
     RDKit          3D

 42 44  0  0  1  0  0  0  0  0999 V2000
   46.9040   35.6160   42.4630 C   0  0  0  0  0  0  0  0  0  0  0  0
   47.8630   35.1230   41.5520 N   0  0  0  0  0  0  0  0  0  0  0  0
   49.1710   35.1840   42.1580 C   0  0  0  0  0  0  0  0  0  0  0  0
   49.9590   33.9480   42.1930 C   0  0  0  0  0  0  0  0  0  0  0  0
   49.0440   32.9150   42.4800 O   0  0  0  0  0  0  0  0  0  0  0  0
   48.3700   32.7350   41.2820 C   0  0  0  0  0  0  0  0  0  0  0  0
   47.6510   33.9710   40.8090 C   0  0  2  0  0  0  0  0  0  0  0  0
   48.2230   34.2910   39.4060 C   0  0  0  0  0  0  0  0  0  0  0  0
   45.6440   34.8250   42.5970 C   0  0  1  0  0  0  0  0  0  0  0  0
   44.7070   35.2290   44.9200 C   0  0  0  0  0  0  0  0  0  0  0  0
   45.4950   34.4610   44.0240 C   0  0  0  0  0  0  0  0  0  0  0  0
   46.1430   33.3380   44.5720 C   0  0  0  0  0  0  0  0  0  0  0  0
   45.9660   33.0820   45.8890 N   0  0  0  0  0  0  0  0  0  0  0  0
   45.2130   33.8300   46.7160 C   0  0  0  0  0  0  0  0  0  0  0  0
   44.5630   34.9380   46.2130 N   0  0  0  0  0  0  0  0  0  0  0  0
   44.4470   35.4700   42.0830 C   0  0  0  0  0  0  0  0  0  0  0  0
   43.3930   34.7570   41.3680 C   0  0  0  0  0  0  0  0  0  0  0  0
   42.7560   35.1440   40.0770 C   0  0  0  0  0  0  0  0  0  0  0  0
   42.0220   35.4130   41.3540 C   0  0  0  0  0  0  0  0  0  0  0  0
   46.6287   36.6313   42.1416 H   0  0  0  0  0  0  0  0  0  0  0  0
   47.3866   35.5645   43.4502 H   0  0  0  0  0  0  0  0  0  0  0  0
   49.7564   35.9324   41.6037 H   0  0  0  0  0  0  0  0  0  0  0  0
   48.9796   35.4244   43.2142 H   0  0  0  0  0  0  0  0  0  0  0  0
   50.4403   33.7733   41.2195 H   0  0  0  0  0  0  0  0  0  0  0  0
   50.7589   34.0000   42.9463 H   0  0  0  0  0  0  0  0  0  0  0  0
   49.0988   32.4396   40.5128 H   0  0  0  0  0  0  0  0  0  0  0  0
   47.6075   31.9604   41.4514 H   0  0  0  0  0  0  0  0  0  0  0  0
   46.5776   33.7385   40.8695 H   0  0  0  0  0  0  0  0  0  0  0  0
   49.1785   34.8255   39.5128 H   0  0  0  0  0  0  0  0  0  0  0  0
   48.3869   33.3536   38.8543 H   0  0  0  0  0  0  0  0  0  0  0  0
   47.5099   34.9212   38.8543 H   0  0  0  0  0  0  0  0  0  0  0  0
   45.7427   33.9342   41.9592 H   0  0  0  0  0  0  0  0  0  0  0  0
   44.1859   36.1138   44.5257 H   0  0  0  0  0  0  0  0  0  0  0  0
   46.7744   32.6880   43.9484 H   0  0  0  0  0  0  0  0  0  0  0  0
   45.1170   33.5617   47.7785 H   0  0  0  0  0  0  0  0  0  0  0  0
   43.9592   35.9355   42.9521 H   0  0  0  0  0  0  0  0  0  0  0  0
   44.8667   36.0946   41.2807 H   0  0  0  0  0  0  0  0  0  0  0  0
   43.8764   33.8178   41.6748 H   0  0  0  0  0  0  0  0  0  0  0  0
   42.3926   34.3645   39.3912 H   0  0  0  0  0  0  0  0  0  0  0  0
   43.0637   35.7610   39.2199 H   0  0  0  0  0  0  0  0  0  0  0  0
   41.9001   36.4453   41.7139 H   0  0  0  0  0  0  0  0  0  0  0  0
   41.0292   35.1595   41.7541 H   0  0  0  0  0  0  0  0  0  0  0  0
  1  9  1  0
  2  3  1  0
  2  1  1  0
  3  4  1  0
  4  5  1  0
  6  5  1  0
  7  6  1  0
  7  2  1  0
  8  7  1  0
  9 11  1  0
 10 15  2  0
 11 12  2  0
 11 10  1  0
 12 13  1  0
 13 14  2  0
 15 14  1  0
 16  9  1  0
 17 16  1  0
 18 19  1  0
 18 17  1  0
 19 17  1  0
  1 20  1  0
  1 21  1  0
  3 22  1  0
  3 23  1  0
  4 24  1  0
  4 25  1  0
  6 26  1  0
  6 27  1  0
  7 28  1  6
  8 29  1  0
  8 30  1  0
  8 31  1  0
  9 32  1  6
 10 33  1  0
 12 34  1  0
 14 35  1  0
 16 36  1  0
 16 37  1  0
 17 38  1  0
 18 39  1  0
 18 40  1  0
 19 41  1  0
 19 42  1  0
M  ISO  8  20   8  21   8  22  13  23  13  24  13  25  13  26  13  27  13
M  ISO  8  28  13  29   8  30   8  31   8  32   8  33  14  34  14  35  14
M  ISO  7  36   8  37   8  38  13  39  13  40  13  41  13  42  13
M  END
>  <minimizedAffinity>  (1) 
-4.66322327

>  <minimizedRMSD>  (1) 
1.87200558

$$$$
