
     RDKit          3D

 31 33  0  0  0  0  0  0  0  0999 V2000
   45.7340   32.6580   44.3860 C   0  0  0  0  0  0  0  0  0  0  0  0
   45.1300   33.5510   43.4890 C   0  0  0  0  0  0  0  0  0  0  0  0
   44.2430   33.0280   42.5280 C   0  0  0  0  0  0  0  0  0  0  0  0
   44.0060   31.6960   42.5040 N   0  0  0  0  0  0  0  0  0  0  0  0
   44.6200   30.8550   43.4010 C   0  0  0  0  0  0  0  0  0  0  0  0
   45.4790   31.3430   44.3350 N   0  0  0  0  0  0  0  0  0  0  0  0
   43.6170   33.9420   41.6020 C   0  0  0  0  0  0  0  0  0  0  0  0
   43.9360   34.1360   40.2720 C   0  0  0  0  0  0  0  0  0  0  0  0
   43.0790   35.0920   39.8150 C   0  0  0  0  0  0  0  0  0  0  0  0
   42.2730   35.4410   40.8850 C   0  0  0  0  0  0  0  0  0  0  0  0
   42.6280   34.7250   41.9500 O   0  0  0  0  0  0  0  0  0  0  0  0
   45.3880   34.9510   43.5220 C   0  0  0  0  0  0  0  0  0  0  0  0
   44.8330   35.6380   44.3940 O   0  0  0  0  0  0  0  0  0  0  0  0
   46.2320   35.5810   42.6220 O   0  0  0  0  0  0  0  0  0  0  0  0
   47.3160   34.8750   42.0990 C   0  0  0  0  0  0  0  0  0  0  0  0
   47.3910   34.5080   40.9060 O   0  0  0  0  0  0  0  0  0  0  0  0
   48.3950   34.5520   42.9580 O   0  0  0  0  0  0  0  0  0  0  0  0
   49.0960   33.4140   42.6230 C   0  0  0  0  0  0  0  0  0  0  0  0
   48.5630   32.1760   42.8800 C   0  0  0  0  0  0  0  0  0  0  0  0
   49.9140   31.0030   42.2290 S   0  0  0  0  0  0  0  0  0  0  0  0
   50.9470   32.5320   41.7310 C   0  0  0  0  0  0  0  0  0  0  0  0
   50.2710   33.3750   42.0560 N   0  0  0  0  0  0  0  0  0  0  0  0
   52.2320   32.4120   41.1110 N   0  0  0  0  0  0  0  0  0  0  0  0
   46.4299   33.0438   45.1455 H   0  0  0  0  0  0  0  0  0  0  0  0
   44.4141   29.7751   43.3628 H   0  0  0  0  0  0  0  0  0  0  0  0
   44.7220   33.6231   39.6984 H   0  0  0  0  0  0  0  0  0  0  0  0
   43.0362   35.5050   38.7964 H   0  0  0  0  0  0  0  0  0  0  0  0
   41.4679   36.1901   40.8595 H   0  0  0  0  0  0  0  0  0  0  0  0
   47.5983   31.9246   43.3450 H   0  0  0  0  0  0  0  0  0  0  0  0
   52.6274   31.4800   40.9216 H   0  0  0  0  0  0  0  0  0  0  0  0
   52.7610   33.2577   40.8544 H   0  0  0  0  0  0  0  0  0  0  0  0
  2 12  1  0
  2  1  2  0
  3  2  1  0
  4  3  2  0
  4  5  1  0
  5  6  2  0
  6  1  1  0
  7 11  1  0
  7  3  1  0
  8  7  2  0
  9  8  1  0
  9 10  2  0
 10 11  1  0
 12 13  2  0
 14 12  1  0
 15 14  1  0
 15 17  1  0
 16 15  2  0
 18 19  2  0
 18 17  1  0
 20 19  1  0
 21 22  2  0
 21 20  1  0
 22 18  1  0
 23 21  1  0
  1 24  1  0
  5 25  1  0
  8 26  1  0
  9 27  1  0
 10 28  1  0
 19 29  1  0
 23 30  1  0
 23 31  1  0
M  ISO  6  24  14  25  14  26  14  27  14  28  14  29  14
M  END
>  <minimizedAffinity>  (1) 
-4.75876045

>  <minimizedRMSD>  (1) 
0.323683262

$$$$
