
     RDKit          3D

 32 34  0  0  0  0  0  0  0  0999 V2000
   45.8000   32.6960   44.3450 C   0  0  0  0  0  0  0  0  0  0  0  0
   45.1730   33.5630   43.4390 C   0  0  0  0  0  0  0  0  0  0  0  0
   44.2430   33.0300   42.5160 C   0  0  0  0  0  0  0  0  0  0  0  0
   43.9950   31.7020   42.5420 N   0  0  0  0  0  0  0  0  0  0  0  0
   44.6310   30.8840   43.4450 C   0  0  0  0  0  0  0  0  0  0  0  0
   45.5280   31.3860   44.3380 N   0  0  0  0  0  0  0  0  0  0  0  0
   43.5970   33.9270   41.5870 C   0  0  0  0  0  0  0  0  0  0  0  0
   43.8650   34.0670   40.2420 C   0  0  0  0  0  0  0  0  0  0  0  0
   43.0030   35.0270   39.7970 C   0  0  0  0  0  0  0  0  0  0  0  0
   42.2480   35.4300   40.8860 C   0  0  0  0  0  0  0  0  0  0  0  0
   42.6340   34.7410   41.9610 O   0  0  0  0  0  0  0  0  0  0  0  0
   45.4500   34.9760   43.4190 C   0  0  0  0  0  0  0  0  0  0  0  0
   44.7980   35.7060   44.1860 O   0  0  0  0  0  0  0  0  0  0  0  0
   46.3940   35.5420   42.5950 O   0  0  0  0  0  0  0  0  0  0  0  0
   47.2390   34.7120   41.8610 C   0  0  0  0  0  0  0  0  0  0  0  0
   47.1310   34.5390   40.6380 O   0  0  0  0  0  0  0  0  0  0  0  0
   48.2710   34.0290   42.5280 O   0  0  0  0  0  0  0  0  0  0  0  0
   48.7400   32.8940   41.8960 C   0  0  0  0  0  0  0  0  0  0  0  0
   47.9560   31.7640   41.8370 C   0  0  0  0  0  0  0  0  0  0  0  0
   49.0750   30.5550   40.8840 S   0  0  0  0  0  0  0  0  0  0  0  0
   50.3960   31.9070   40.7810 C   0  0  0  0  0  0  0  0  0  0  0  0
   49.9040   32.7700   41.3220 N   0  0  0  0  0  0  0  0  0  0  0  0
   51.6820   31.5460   40.0640 C   0  0  0  0  0  0  0  0  0  0  0  0
   51.6920   30.7800   39.0940 O   0  0  0  0  0  0  0  0  0  0  0  0
   52.7540   32.1670   40.6320 O   0  0  0  0  0  0  0  0  0  0  0  0
   46.5237   33.0973   45.0697 H   0  0  0  0  0  0  0  0  0  0  0  0
   44.4118   29.8061   43.4463 H   0  0  0  0  0  0  0  0  0  0  0  0
   44.6153   33.5203   39.6519 H   0  0  0  0  0  0  0  0  0  0  0  0
   42.9230   35.4084   38.7683 H   0  0  0  0  0  0  0  0  0  0  0  0
   41.4576   36.1948   40.8674 H   0  0  0  0  0  0  0  0  0  0  0  0
   46.9443   31.6018   42.2372 H   0  0  0  0  0  0  0  0  0  0  0  0
   53.6619   32.0220   40.2648 H   0  0  0  0  0  0  0  0  0  0  0  0
  2  1  2  0
  3  4  2  0
  3  2  1  0
  4  5  1  0
  5  6  2  0
  6  1  1  0
  7 11  1  0
  7  3  1  0
  8  7  2  0
  9  8  1  0
  9 10  2  0
 10 11  1  0
 12  2  1  0
 12 13  2  0
 14 12  1  0
 15 17  1  0
 15 14  1  0
 16 15  2  0
 18 17  1  0
 19 18  2  0
 20 19  1  0
 21 20  1  0
 21 22  2  0
 22 18  1  0
 23 25  1  0
 23 21  1  0
 24 23  2  0
  1 26  1  0
  5 27  1  0
  8 28  1  0
  9 29  1  0
 10 30  1  0
 19 31  1  0
 25 32  1  0
M  ISO  7  26  14  27  14  28  14  29  14  30  14  31  14  32   3
M  END
>  <minimizedAffinity>  (1) 
-4.52966309

>  <minimizedRMSD>  (1) 
1.12404811

$$$$
