
     RDKit          3D

 34 37  0  0  0  0  0  0  0  0999 V2000
   45.5700   34.9410   43.3050 C   0  0  0  0  0  0  0  0  0  0  0  0
   44.9330   35.7130   44.0420 O   0  0  0  0  0  0  0  0  0  0  0  0
   45.9050   32.6700   44.2290 C   0  0  0  0  0  0  0  0  0  0  0  0
   45.2610   33.5540   43.3500 C   0  0  0  0  0  0  0  0  0  0  0  0
   44.2800   33.0310   42.4860 C   0  0  0  0  0  0  0  0  0  0  0  0
   43.9980   31.7020   42.5370 N   0  0  0  0  0  0  0  0  0  0  0  0
   44.6530   30.8730   43.4140 C   0  0  0  0  0  0  0  0  0  0  0  0
   45.6040   31.3670   44.2540 N   0  0  0  0  0  0  0  0  0  0  0  0
   43.6110   33.9320   41.5750 C   0  0  0  0  0  0  0  0  0  0  0  0
   43.8430   34.0720   40.2170 C   0  0  0  0  0  0  0  0  0  0  0  0
   42.9760   35.0360   39.7930 C   0  0  0  0  0  0  0  0  0  0  0  0
   42.2550   35.4410   40.9080 C   0  0  0  0  0  0  0  0  0  0  0  0
   42.6690   34.7470   41.9690 O   0  0  0  0  0  0  0  0  0  0  0  0
   46.5470   35.4640   42.4750 O   0  0  0  0  0  0  0  0  0  0  0  0
   47.3000   34.5970   41.6840 C   0  0  0  0  0  0  0  0  0  0  0  0
   47.1320   34.4750   40.4430 O   0  0  0  0  0  0  0  0  0  0  0  0
   48.3030   33.8100   42.2870 O   0  0  0  0  0  0  0  0  0  0  0  0
   48.7020   32.7030   41.5630 C   0  0  0  0  0  0  0  0  0  0  0  0
   47.8820   31.6020   41.4610 C   0  0  0  0  0  0  0  0  0  0  0  0
   48.9260   30.4340   40.3790 S   0  0  0  0  0  0  0  0  0  0  0  0
   50.2940   31.7650   40.3080 C   0  0  0  0  0  0  0  0  0  0  0  0
   49.8400   32.5900   40.9290 N   0  0  0  0  0  0  0  0  0  0  0  0
   51.5840   31.6000   39.5740 C   0  0  0  0  0  0  0  0  0  0  0  0
   52.7940   31.3580   40.1030 N   0  0  0  0  0  0  0  0  0  0  0  0
   53.6540   31.2820   39.1390 O   0  0  0  0  0  0  0  0  0  0  0  0
   53.0870   31.4620   37.9670 C   0  0  0  0  0  0  0  0  0  0  0  0
   51.7690   31.6650   38.2250 N   0  0  0  0  0  0  0  0  0  0  0  0
   46.6747   33.0573   44.9129 H   0  0  0  0  0  0  0  0  0  0  0  0
   44.4074   29.8010   43.4382 H   0  0  0  0  0  0  0  0  0  0  0  0
   44.5740   33.5208   39.6073 H   0  0  0  0  0  0  0  0  0  0  0  0
   42.8690   35.4181   38.7671 H   0  0  0  0  0  0  0  0  0  0  0  0
   41.4689   36.2104   40.9153 H   0  0  0  0  0  0  0  0  0  0  0  0
   46.8833   31.4393   41.8924 H   0  0  0  0  0  0  0  0  0  0  0  0
   53.5775   31.4506   36.9825 H   0  0  0  0  0  0  0  0  0  0  0  0
  1  4  1  0
  1  2  2  0
  3  8  2  0
  4  3  1  0
  5  6  1  0
  5  4  2  0
  6  7  2  0
  7  8  1  0
  9 13  1  0
  9  5  1  0
 10  9  2  0
 11 10  1  0
 11 12  2  0
 12 13  1  0
 14  1  1  0
 15 17  1  0
 15 14  1  0
 16 15  2  0
 18 17  1  0
 19 18  2  0
 20 19  1  0
 21 20  1  0
 21 22  2  0
 22 18  1  0
 23 24  2  0
 23 21  1  0
 25 24  1  0
 26 27  2  0
 26 25  1  0
 27 23  1  0
  3 28  1  0
  7 29  1  0
 10 30  1  0
 11 31  1  0
 12 32  1  0
 19 33  1  0
 26 34  1  0
M  ISO  7  28  14  29  14  30  14  31  14  32  14  33  14  34  14
M  END
>  <minimizedAffinity>  (1) 
-4.57987022

>  <minimizedRMSD>  (1) 
1.70720685

$$$$
