
     RDKit          3D

 32 34  0  0  0  0  0  0  0  0999 V2000
   45.8570   32.6980   44.3600 C   0  0  0  0  0  0  0  0  0  0  0  0
   45.2240   33.5850   43.4630 C   0  0  0  0  0  0  0  0  0  0  0  0
   44.3010   33.0450   42.5450 C   0  0  0  0  0  0  0  0  0  0  0  0
   44.0570   31.7140   42.5560 N   0  0  0  0  0  0  0  0  0  0  0  0
   44.6940   30.8880   43.4460 C   0  0  0  0  0  0  0  0  0  0  0  0
   45.5870   31.3870   44.3400 N   0  0  0  0  0  0  0  0  0  0  0  0
   43.6480   33.9430   41.6230 C   0  0  0  0  0  0  0  0  0  0  0  0
   43.9040   34.0860   40.2750 C   0  0  0  0  0  0  0  0  0  0  0  0
   43.0430   35.0470   39.8340 C   0  0  0  0  0  0  0  0  0  0  0  0
   42.3070   35.4460   40.9210 C   0  0  0  0  0  0  0  0  0  0  0  0
   42.6980   34.7550   41.9980 O   0  0  0  0  0  0  0  0  0  0  0  0
   45.4910   34.9840   43.4580 C   0  0  0  0  0  0  0  0  0  0  0  0
   44.9020   35.7030   44.2730 O   0  0  0  0  0  0  0  0  0  0  0  0
   46.3840   35.5710   42.5780 O   0  0  0  0  0  0  0  0  0  0  0  0
   47.2930   34.7650   41.8940 C   0  0  0  0  0  0  0  0  0  0  0  0
   47.2440   34.5590   40.6610 O   0  0  0  0  0  0  0  0  0  0  0  0
   48.3350   34.1370   42.6260 O   0  0  0  0  0  0  0  0  0  0  0  0
   48.8550   33.0030   42.0480 C   0  0  0  0  0  0  0  0  0  0  0  0
   48.0580   31.9080   41.8530 C   0  0  0  0  0  0  0  0  0  0  0  0
   49.2400   30.6600   41.0460 S   0  0  0  0  0  0  0  0  0  0  0  0
   50.6270   31.9650   41.1600 C   0  0  0  0  0  0  0  0  0  0  0  0
   50.0830   32.8290   41.6400 N   0  0  0  0  0  0  0  0  0  0  0  0
   52.0440   31.7450   40.6810 C   0  0  0  0  0  0  0  0  0  0  0  0
   46.5836   33.0901   45.0869 H   0  0  0  0  0  0  0  0  0  0  0  0
   44.4796   29.8092   43.4360 H   0  0  0  0  0  0  0  0  0  0  0  0
   44.6487   33.5381   39.6791 H   0  0  0  0  0  0  0  0  0  0  0  0
   42.9555   35.4284   38.8060 H   0  0  0  0  0  0  0  0  0  0  0  0
   41.5191   36.2135   40.9090 H   0  0  0  0  0  0  0  0  0  0  0  0
   46.9941   31.7817   42.1024 H   0  0  0  0  0  0  0  0  0  0  0  0
   52.7123   31.6412   41.5485 H   0  0  0  0  0  0  0  0  0  0  0  0
   52.0875   30.8293   40.0730 H   0  0  0  0  0  0  0  0  0  0  0  0
   52.3631   32.6044   40.0730 H   0  0  0  0  0  0  0  0  0  0  0  0
  2  1  2  0
  3  4  2  0
  3  2  1  0
  4  5  1  0
  5  6  2  0
  6  1  1  0
  7 11  1  0
  7  3  1  0
  8  7  2  0
  9  8  1  0
  9 10  2  0
 10 11  1  0
 12  2  1  0
 12 13  2  0
 14 12  1  0
 15 14  1  0
 15 17  1  0
 16 15  2  0
 18 17  1  0
 19 18  2  0
 20 21  1  0
 20 19  1  0
 21 22  2  0
 22 18  1  0
 23 21  1  0
  1 24  1  0
  5 25  1  0
  8 26  1  0
  9 27  1  0
 10 28  1  0
 19 29  1  0
 23 30  1  0
 23 31  1  0
 23 32  1  0
M  ISO  8  24  14  25  14  26  14  27  14  28  14  29  14  30   8  31   8
M  ISO  1  32   8
M  END
>  <minimizedAffinity>  (1) 
-4.24193239

>  <minimizedRMSD>  (1) 
0.747903943

$$$$
