
     RDKit          3D

 19 20  0  0  0  0  0  0  0  0999 V2000
   43.4790   34.4980   41.3850 N   0  0  0  0  0  0  0  0  0  0  0  0
   43.8010   34.2230   40.1170 C   0  0  0  0  0  0  0  0  0  0  0  0
   42.7230   34.6380   39.3120 C   0  0  0  0  0  0  0  0  0  0  0  0
   41.7790   35.1510   40.1130 N   0  0  0  0  0  0  0  0  0  0  0  0
   42.2380   35.0660   41.3880 C   0  0  0  0  0  0  0  0  0  0  0  0
   41.3500   35.5650   42.3780 N   0  0  0  0  0  0  0  0  0  0  0  0
   44.4450   35.4100   43.3650 C   0  0  0  0  0  0  0  0  0  0  0  0
   44.2050   34.2810   42.5550 C   0  0  0  0  0  0  0  0  0  0  0  0
   44.7040   33.0350   42.9820 C   0  0  0  0  0  0  0  0  0  0  0  0
   45.3940   32.9970   44.1610 N   0  0  0  0  0  0  0  0  0  0  0  0
   45.5970   34.1140   44.9060 C   0  0  0  0  0  0  0  0  0  0  0  0
   45.1200   35.3280   44.5050 N   0  0  0  0  0  0  0  0  0  0  0  0
   44.7349   33.7586   39.7674 H   0  0  0  0  0  0  0  0  0  0  0  0
   42.6656   34.5555   38.2166 H   0  0  0  0  0  0  0  0  0  0  0  0
   40.4381   35.9563   42.1018 H   0  0  0  0  0  0  0  0  0  0  0  0
   41.6180   35.5356   43.3721 H   0  0  0  0  0  0  0  0  0  0  0  0
   44.0610   36.3889   43.0422 H   0  0  0  0  0  0  0  0  0  0  0  0
   44.5438   32.1238   42.3869 H   0  0  0  0  0  0  0  0  0  0  0  0
   46.1563   34.0389   45.8502 H   0  0  0  0  0  0  0  0  0  0  0  0
  1  5  1  0
  1  8  1  0
  2  1  1  0
  3  4  1  0
  3  2  2  0
  4  5  2  0
  5  6  1  0
  7 12  2  0
  8  9  2  0
  8  7  1  0
  9 10  1  0
 10 11  2  0
 12 11  1  0
  2 13  1  0
  3 14  1  0
  6 15  1  0
  6 16  1  0
  7 17  1  0
  9 18  1  0
 11 19  1  0
M  ISO  5  13  14  14  14  17  14  18  14  19  14
M  END
>  <minimizedAffinity>  (1) 
-3.65241194

>  <minimizedRMSD>  (1) 
0.737058878

$$$$
