
     RDKit          3D

 29 31  0  0  0  0  0  0  0  0999 V2000
   43.1460   35.2300   41.7200 C   0  0  0  0  0  0  0  0  0  0  0  0
   42.6620   34.3970   40.6800 C   0  0  0  0  0  0  0  0  0  0  0  0
   43.5910   33.6000   40.0030 C   0  0  0  0  0  0  0  0  0  0  0  0
   44.8960   33.6710   40.3830 N   0  0  0  0  0  0  0  0  0  0  0  0
   45.3040   34.4800   41.3790 C   0  0  0  0  0  0  0  0  0  0  0  0
   44.4280   35.2700   42.0580 N   0  0  0  0  0  0  0  0  0  0  0  0
   41.2990   34.4460   40.4200 N   0  0  0  0  0  0  0  0  0  0  0  0
   40.6070   35.1540   39.5340 C   0  0  0  0  0  0  0  0  0  0  0  0
   39.2510   34.8450   39.6730 C   0  0  0  0  0  0  0  0  0  0  0  0
   39.1450   33.9430   40.6550 N   0  0  0  0  0  0  0  0  0  0  0  0
   40.3970   33.6930   41.1190 C   0  0  0  0  0  0  0  0  0  0  0  0
   40.4730   32.7430   42.1810 N   0  0  0  0  0  0  0  0  0  0  0  0
   46.7040   34.5510   41.7790 C   0  0  0  0  0  0  0  0  0  0  0  0
   47.6450   35.1830   40.9930 C   0  0  0  0  0  0  0  0  0  0  0  0
   48.9930   35.3170   41.2580 C   0  0  0  0  0  0  0  0  0  0  0  0
   49.4090   34.7470   42.4430 C   0  0  0  0  0  0  0  0  0  0  0  0
   48.5250   34.0960   43.2800 C   0  0  0  0  0  0  0  0  0  0  0  0
   47.1710   33.9920   42.9610 C   0  0  0  0  0  0  0  0  0  0  0  0
   42.4333   35.8656   42.2659 H   0  0  0  0  0  0  0  0  0  0  0  0
   43.2756   32.9343   39.1861 H   0  0  0  0  0  0  0  0  0  0  0  0
   41.0312   35.8658   38.8105 H   0  0  0  0  0  0  0  0  0  0  0  0
   38.4233   35.2661   39.0834 H   0  0  0  0  0  0  0  0  0  0  0  0
   39.6141   32.3027   42.5406 H   0  0  0  0  0  0  0  0  0  0  0  0
   41.3868   32.4976   42.5880 H   0  0  0  0  0  0  0  0  0  0  0  0
   47.2824   35.6278   40.0546 H   0  0  0  0  0  0  0  0  0  0  0  0
   49.6820   35.8380   40.5769 H   0  0  0  0  0  0  0  0  0  0  0  0
   50.4695   34.8126   42.7277 H   0  0  0  0  0  0  0  0  0  0  0  0
   48.8951   33.6512   44.2155 H   0  0  0  0  0  0  0  0  0  0  0  0
   46.4794   33.4717   43.6399 H   0  0  0  0  0  0  0  0  0  0  0  0
  1  6  2  0
  2  1  1  0
  3  4  1  0
  3  2  2  0
  4  5  2  0
  5 13  1  0
  5  6  1  0
  7  2  1  0
  7 11  1  0
  8  9  2  0
  8  7  1  0
  9 10  1  0
 10 11  2  0
 11 12  1  0
 13 18  2  0
 14 15  2  0
 14 13  1  0
 15 16  1  0
 16 17  2  0
 18 17  1  0
  1 19  1  0
  3 20  1  0
  8 21  1  0
  9 22  1  0
 12 23  1  0
 12 24  1  0
 14 25  1  0
 15 26  1  0
 16 27  1  0
 17 28  1  0
 18 29  1  0
M  ISO  8  19  14  20  14  21  14  22  14  25  14  26  14  27  14  28  14
M  ISO  1  29  14
M  END
>  <minimizedAffinity>  (1) 
-5.46088314

>  <minimizedRMSD>  (1) 
3.99619412

$$$$
