
     RDKit          3D

 29 31  0  0  0  0  0  0  0  0999 V2000
   43.3370   32.9790   41.8600 C   0  0  0  0  0  0  0  0  0  0  0  0
   44.0400   34.1670   42.1600 C   0  0  0  0  0  0  0  0  0  0  0  0
   43.5850   35.3620   41.5730 C   0  0  0  0  0  0  0  0  0  0  0  0
   42.4900   35.2990   40.7500 N   0  0  0  0  0  0  0  0  0  0  0  0
   41.8620   34.1320   40.5030 C   0  0  0  0  0  0  0  0  0  0  0  0
   42.2840   32.9710   41.0560 N   0  0  0  0  0  0  0  0  0  0  0  0
   45.1260   34.0520   43.0120 N   0  0  0  0  0  0  0  0  0  0  0  0
   46.3040   33.4500   42.8220 C   0  0  0  0  0  0  0  0  0  0  0  0
   47.0630   33.6170   43.9910 C   0  0  0  0  0  0  0  0  0  0  0  0
   46.3290   34.3130   44.8560 N   0  0  0  0  0  0  0  0  0  0  0  0
   45.1350   34.5860   44.2650 C   0  0  0  0  0  0  0  0  0  0  0  0
   44.2150   35.3360   45.0600 N   0  0  0  0  0  0  0  0  0  0  0  0
   40.7040   34.1290   39.6190 C   0  0  0  0  0  0  0  0  0  0  0  0
   39.5000   33.5950   40.0280 C   0  0  0  0  0  0  0  0  0  0  0  0
   38.3830   33.5810   39.1990 C   0  0  0  0  0  0  0  0  0  0  0  0
   38.5010   34.1250   37.9250 C   0  0  0  0  0  0  0  0  0  0  0  0
   39.7100   34.6680   37.4980 C   0  0  0  0  0  0  0  0  0  0  0  0
   40.8140   34.6670   38.3540 C   0  0  0  0  0  0  0  0  0  0  0  0
   43.6739   32.0322   42.3073 H   0  0  0  0  0  0  0  0  0  0  0  0
   44.0925   36.3182   41.7684 H   0  0  0  0  0  0  0  0  0  0  0  0
   46.6218   32.9189   41.9126 H   0  0  0  0  0  0  0  0  0  0  0  0
   48.0822   33.2400   44.1616 H   0  0  0  0  0  0  0  0  0  0  0  0
   44.4767   35.6286   46.0123 H   0  0  0  0  0  0  0  0  0  0  0  0
   43.2900   35.5841   44.6809 H   0  0  0  0  0  0  0  0  0  0  0  0
   39.4207   33.1680   41.0386 H   0  0  0  0  0  0  0  0  0  0  0  0
   37.4308   33.1506   39.5426 H   0  0  0  0  0  0  0  0  0  0  0  0
   37.6329   34.1265   37.2494 H   0  0  0  0  0  0  0  0  0  0  0  0
   39.7956   35.0969   36.4887 H   0  0  0  0  0  0  0  0  0  0  0  0
   41.7704   35.0951   38.0192 H   0  0  0  0  0  0  0  0  0  0  0  0
  1  2  2  0
  2  7  1  0
  3  2  1  0
  4  3  2  0
  5  4  1  0
  5  6  2  0
  6  1  1  0
  7 11  1  0
  8  7  1  0
  8  9  2  0
  9 10  1  0
 11 10  2  0
 11 12  1  0
 13 14  2  0
 13  5  1  0
 15 14  1  0
 16 15  2  0
 17 16  1  0
 17 18  2  0
 18 13  1  0
  1 19  1  0
  3 20  1  0
  8 21  1  0
  9 22  1  0
 12 23  1  0
 12 24  1  0
 14 25  1  0
 15 26  1  0
 16 27  1  0
 17 28  1  0
 18 29  1  0
M  ISO  8  19  14  20  14  21  14  22  14  25  14  26  14  27  14  28  14
M  ISO  1  29  14
M  END
>  <minimizedAffinity>  (1) 
-5.50955057

>  <minimizedRMSD>  (1) 
7.60259676

$$$$
