
     RDKit          3D

 26 27  0  0  0  0  0  0  0  0999 V2000
   44.7080   35.1930   43.4400 C   0  0  0  0  0  0  0  0  0  0  0  0
   44.2990   34.1370   42.6150 C   0  0  0  0  0  0  0  0  0  0  0  0
   44.6770   32.8370   42.9680 C   0  0  0  0  0  0  0  0  0  0  0  0
   45.4260   32.6660   44.1010 N   0  0  0  0  0  0  0  0  0  0  0  0
   45.7970   33.7130   44.8660 C   0  0  0  0  0  0  0  0  0  0  0  0
   45.4320   34.9910   44.5290 N   0  0  0  0  0  0  0  0  0  0  0  0
   46.5760   33.4920   46.0370 N   0  0  0  0  0  0  0  0  0  0  0  0
   45.8850   33.2670   47.2570 C   0  0  0  0  0  0  0  0  0  0  0  0
   44.6690   33.6260   47.3960 N   0  0  0  0  0  0  0  0  0  0  0  0
   46.5760   32.6240   48.3420 N   0  0  0  0  0  0  0  0  0  0  0  0
   44.1010   33.4990   48.2460 H   0  0  0  0  0  0  0  0  0  0  0  0
   43.5390   34.4740   41.4950 N   0  0  0  0  0  0  0  0  0  0  0  0
   43.8010   34.2610   40.1910 C   0  0  0  0  0  0  0  0  0  0  0  0
   42.7090   34.7950   39.4700 C   0  0  0  0  0  0  0  0  0  0  0  0
   41.8380   35.3050   40.3430 N   0  0  0  0  0  0  0  0  0  0  0  0
   42.3340   35.1150   41.5980 C   0  0  0  0  0  0  0  0  0  0  0  0
   41.5360   35.5970   42.6520 N   0  0  0  0  0  0  0  0  0  0  0  0
   44.4186   36.2205   43.1745 H   0  0  0  0  0  0  0  0  0  0  0  0
   44.3803   31.9755   42.3517 H   0  0  0  0  0  0  0  0  0  0  0  0
   47.6053   33.4952   46.0005 H   0  0  0  0  0  0  0  0  0  0  0  0
   46.0892   32.4534   49.2335 H   0  0  0  0  0  0  0  0  0  0  0  0
   47.5577   32.3341   48.2276 H   0  0  0  0  0  0  0  0  0  0  0  0
   44.6899   33.7684   39.7701 H   0  0  0  0  0  0  0  0  0  0  0  0
   42.5963   34.7909   38.3758 H   0  0  0  0  0  0  0  0  0  0  0  0
   40.6379   36.0584   42.4486 H   0  0  0  0  0  0  0  0  0  0  0  0
   41.8500   35.4884   43.6269 H   0  0  0  0  0  0  0  0  0  0  0  0
  1  6  2  0
  2  3  2  0
  2  1  1  0
  3  4  1  0
  4  5  2  0
  5  7  1  0
  6  5  1  0
  7  8  1  0
  8  9  2  0
  8 10  1  0
  9 11  1  0
 12 16  1  0
 12  2  1  0
 13 12  1  0
 14 13  2  0
 14 15  1  0
 15 16  2  0
 16 17  1  0
  1 18  1  0
  3 19  1  0
  7 20  1  0
 10 21  1  0
 10 22  1  0
 13 23  1  0
 14 24  1  0
 17 25  1  0
 17 26  1  0
M  ISO  4  18  14  19  14  23  14  24  14
M  END
>  <minimizedAffinity>  (1) 
-5.51795435

>  <minimizedRMSD>  (1) 
0.385059237

$$$$
