
     RDKit          3D

 28 30  0  0  0  0  0  0  0  0999 V2000
   43.3420   32.9070   41.9520 C   0  0  0  0  0  0  0  0  0  0  0  0
   44.0730   34.0500   42.2930 C   0  0  0  0  0  0  0  0  0  0  0  0
   43.6730   35.2680   41.7170 C   0  0  0  0  0  0  0  0  0  0  0  0
   42.6130   35.2740   40.8720 N   0  0  0  0  0  0  0  0  0  0  0  0
   41.9380   34.1220   40.5770 C   0  0  0  0  0  0  0  0  0  0  0  0
   42.3060   32.9370   41.1210 N   0  0  0  0  0  0  0  0  0  0  0  0
   45.1430   33.8940   43.1770 N   0  0  0  0  0  0  0  0  0  0  0  0
   46.2820   33.2250   43.0420 C   0  0  0  0  0  0  0  0  0  0  0  0
   47.0160   33.3920   44.2360 C   0  0  0  0  0  0  0  0  0  0  0  0
   46.2890   34.1690   45.0690 N   0  0  0  0  0  0  0  0  0  0  0  0
   45.1350   34.4780   44.4180 C   0  0  0  0  0  0  0  0  0  0  0  0
   44.2390   35.3030   45.1610 N   0  0  0  0  0  0  0  0  0  0  0  0
   40.8000   34.1510   39.6660 C   0  0  0  0  0  0  0  0  0  0  0  0
   39.5640   33.7510   40.1160 C   0  0  0  0  0  0  0  0  0  0  0  0
   38.4130   33.7290   39.3660 C   0  0  0  0  0  0  0  0  0  0  0  0
   38.5420   34.1490   38.0590 C   0  0  0  0  0  0  0  0  0  0  0  0
   39.7830   34.5560   37.5910 C   0  0  0  0  0  0  0  0  0  0  0  0
   40.8870   34.5520   38.3930 N   0  0  0  0  0  0  0  0  0  0  0  0
   43.6376   31.9425   42.3906 H   0  0  0  0  0  0  0  0  0  0  0  0
   44.2104   36.1997   41.9477 H   0  0  0  0  0  0  0  0  0  0  0  0
   46.5961   32.6464   42.1608 H   0  0  0  0  0  0  0  0  0  0  0  0
   48.0065   32.9645   44.4509 H   0  0  0  0  0  0  0  0  0  0  0  0
   44.4911   35.6122   46.1106 H   0  0  0  0  0  0  0  0  0  0  0  0
   43.3401   35.5894   44.7478 H   0  0  0  0  0  0  0  0  0  0  0  0
   39.4905   33.4214   41.1629 H   0  0  0  0  0  0  0  0  0  0  0  0
   37.4500   33.3975   39.7817 H   0  0  0  0  0  0  0  0  0  0  0  0
   37.6672   34.1613   37.3922 H   0  0  0  0  0  0  0  0  0  0  0  0
   39.8794   34.8902   36.5475 H   0  0  0  0  0  0  0  0  0  0  0  0
  1  2  2  0
  2  7  1  0
  3  2  1  0
  4  3  2  0
  5  4  1  0
  5  6  2  0
  6  1  1  0
  7 11  1  0
  8  7  1  0
  8  9  2  0
  9 10  1  0
 11 10  2  0
 11 12  1  0
 13 14  2  0
 13  5  1  0
 15 14  1  0
 16 15  2  0
 17 16  1  0
 17 18  2  0
 18 13  1  0
  1 19  1  0
  3 20  1  0
  8 21  1  0
  9 22  1  0
 12 23  1  0
 12 24  1  0
 14 25  1  0
 15 26  1  0
 16 27  1  0
 17 28  1  0
M  ISO  8  19  14  20  14  21  14  22  14  25  14  26  14  27  14  28  14
M  END
>  <minimizedAffinity>  (1) 
-5.26186943

>  <minimizedRMSD>  (1) 
7.63370466

$$$$
