
     RDKit          3D

 32 34  0  0  0  0  0  0  0  0999 V2000
   44.4280   35.4800   41.7970 C   0  0  0  0  0  0  0  0  0  0  0  0
   45.2640   34.5080   41.2330 C   0  0  0  0  0  0  0  0  0  0  0  0
   44.7490   33.6800   40.2040 C   0  0  0  0  0  0  0  0  0  0  0  0
   43.4460   33.8920   39.8240 N   0  0  0  0  0  0  0  0  0  0  0  0
   42.6960   34.8450   40.4070 C   0  0  0  0  0  0  0  0  0  0  0  0
   43.1710   35.6420   41.3910 N   0  0  0  0  0  0  0  0  0  0  0  0
   41.3520   35.0470   39.9990 N   0  0  0  0  0  0  0  0  0  0  0  0
   40.1860   34.6320   40.7550 C   0  0  0  0  0  0  0  0  0  0  0  0
   38.9820   34.5460   39.8400 C   0  0  0  0  0  0  0  0  0  0  0  0
   39.3200   33.9940   38.6090 O   0  0  0  0  0  0  0  0  0  0  0  0
   40.2760   34.6800   37.9100 C   0  0  0  0  0  0  0  0  0  0  0  0
   41.0010   35.7040   38.7560 C   0  0  0  0  0  0  0  0  0  0  0  0
   46.5710   34.4170   41.7320 N   0  0  0  0  0  0  0  0  0  0  0  0
   47.0190   34.2780   42.9720 C   0  0  0  0  0  0  0  0  0  0  0  0
   48.4250   34.2400   42.9170 C   0  0  0  0  0  0  0  0  0  0  0  0
   48.7890   34.3550   41.6420 N   0  0  0  0  0  0  0  0  0  0  0  0
   47.6640   34.4660   40.9010 C   0  0  0  0  0  0  0  0  0  0  0  0
   47.8720   34.6000   39.4940 N   0  0  0  0  0  0  0  0  0  0  0  0
   44.8205   36.1261   42.5961 H   0  0  0  0  0  0  0  0  0  0  0  0
   45.3657   32.9019   39.7306 H   0  0  0  0  0  0  0  0  0  0  0  0
   40.3744   33.6455   41.2036 H   0  0  0  0  0  0  0  0  0  0  0  0
   39.9869   35.3688   41.5471 H   0  0  0  0  0  0  0  0  0  0  0  0
   38.2148   33.9175   40.3158 H   0  0  0  0  0  0  0  0  0  0  0  0
   38.6017   35.5642   39.6707 H   0  0  0  0  0  0  0  0  0  0  0  0
   41.0119   33.9602   37.5224 H   0  0  0  0  0  0  0  0  0  0  0  0
   39.7676   35.2216   37.0987 H   0  0  0  0  0  0  0  0  0  0  0  0
   41.9095   36.0473   38.2394 H   0  0  0  0  0  0  0  0  0  0  0  0
   40.3673   36.5841   38.9399 H   0  0  0  0  0  0  0  0  0  0  0  0
   46.4028   34.2054   43.8803 H   0  0  0  0  0  0  0  0  0  0  0  0
   49.1034   34.1339   43.7764 H   0  0  0  0  0  0  0  0  0  0  0  0
   47.0650   34.6898   38.8603 H   0  0  0  0  0  0  0  0  0  0  0  0
   48.8290   34.6068   39.1132 H   0  0  0  0  0  0  0  0  0  0  0  0
  2 13  1  0
  2  1  2  0
  3  2  1  0
  4  3  2  0
  4  5  1  0
  5  6  2  0
  6  1  1  0
  7  5  1  0
  7  8  1  0
  9  8  1  0
 10  9  1  0
 11 10  1  0
 11 12  1  0
 12  7  1  0
 13 14  1  0
 15 14  2  0
 16 15  1  0
 17 16  2  0
 17 13  1  0
 18 17  1  0
  1 19  1  0
  3 20  1  0
  8 21  1  0
  8 22  1  0
  9 23  1  0
  9 24  1  0
 11 25  1  0
 11 26  1  0
 12 27  1  0
 12 28  1  0
 14 29  1  0
 15 30  1  0
 18 31  1  0
 18 32  1  0
M  ISO  8  19  14  20  14  21  13  22  13  23  13  24  13  25  13  26  13
M  ISO  4  27  13  28  13  29  14  30  14
M  END
>  <minimizedAffinity>  (1) 
-5.21387482

>  <minimizedRMSD>  (1) 
7.38730288

$$$$
