
     RDKit          3D

 22 23  0  0  0  0  0  0  0  0999 V2000
   42.2970   33.0390   41.3020 C   0  0  0  0  0  0  0  0  0  0  0  0
   42.7850   34.3630   41.1640 C   0  0  0  0  0  0  0  0  0  0  0  0
   41.9220   35.3400   40.6560 C   0  0  0  0  0  0  0  0  0  0  0  0
   40.6540   34.9730   40.3180 N   0  0  0  0  0  0  0  0  0  0  0  0
   40.2280   33.6890   40.4670 C   0  0  0  0  0  0  0  0  0  0  0  0
   41.0570   32.7200   40.9610 N   0  0  0  0  0  0  0  0  0  0  0  0
   44.1010   34.5790   41.5530 N   0  0  0  0  0  0  0  0  0  0  0  0
   45.2450   34.2650   40.9430 C   0  0  0  0  0  0  0  0  0  0  0  0
   46.2970   34.7100   41.7680 C   0  0  0  0  0  0  0  0  0  0  0  0
   45.7690   35.2780   42.8500 N   0  0  0  0  0  0  0  0  0  0  0  0
   44.4160   35.2060   42.7340 C   0  0  0  0  0  0  0  0  0  0  0  0
   43.6790   35.7740   43.8180 N   0  0  0  0  0  0  0  0  0  0  0  0
   38.8480   33.3540   40.0830 C   0  0  0  0  0  0  0  0  0  0  0  0
   38.2640   32.5820   41.0710 F   0  0  0  0  0  0  0  0  0  0  0  0
   38.1600   34.5380   39.9750 F   0  0  0  0  0  0  0  0  0  0  0  0
   38.8360   32.6220   38.9200 F   0  0  0  0  0  0  0  0  0  0  0  0
   42.9625   32.2593   41.7010 H   0  0  0  0  0  0  0  0  0  0  0  0
   42.2591   36.3798   40.5324 H   0  0  0  0  0  0  0  0  0  0  0  0
   45.3480   33.7532   39.9748 H   0  0  0  0  0  0  0  0  0  0  0  0
   47.3710   34.6059   41.5545 H   0  0  0  0  0  0  0  0  0  0  0  0
   44.1774   36.1983   44.6133 H   0  0  0  0  0  0  0  0  0  0  0  0
   42.6492   35.7592   43.8043 H   0  0  0  0  0  0  0  0  0  0  0  0
  2  1  2  0
  2  7  1  0
  3  2  1  0
  4  5  1  0
  4  3  2  0
  5  6  2  0
  6  1  1  0
  7 11  1  0
  8  7  1  0
  8  9  2  0
  9 10  1  0
 11 10  2  0
 11 12  1  0
 13  5  1  0
 13 14  1  0
 15 13  1  0
 16 13  1  0
  1 17  1  0
  3 18  1  0
  8 19  1  0
  9 20  1  0
 12 21  1  0
 12 22  1  0
M  ISO  4  17  14  18  14  19  14  20  14
M  END
>  <minimizedAffinity>  (1) 
-4.94219351

>  <minimizedRMSD>  (1) 
6.40282679

$$$$
