
     RDKit          3D

 28 29  0  0  0  0  0  0  0  0999 V2000
   42.1020   33.6620   41.3120 C   0  0  0  0  0  0  0  0  0  0  0  0
   42.9770   34.6710   40.8650 C   0  0  0  0  0  0  0  0  0  0  0  0
   42.5110   35.5540   39.8780 C   0  0  0  0  0  0  0  0  0  0  0  0
   41.2500   35.3970   39.4000 N   0  0  0  0  0  0  0  0  0  0  0  0
   40.4430   34.3980   39.8690 C   0  0  0  0  0  0  0  0  0  0  0  0
   40.8750   33.5320   40.8280 N   0  0  0  0  0  0  0  0  0  0  0  0
   44.2440   34.7060   41.4510 N   0  0  0  0  0  0  0  0  0  0  0  0
   45.4200   34.3060   40.9700 C   0  0  0  0  0  0  0  0  0  0  0  0
   46.3830   34.5690   41.9730 C   0  0  0  0  0  0  0  0  0  0  0  0
   45.7540   35.1180   43.0230 N   0  0  0  0  0  0  0  0  0  0  0  0
   44.4460   35.2020   42.7060 C   0  0  0  0  0  0  0  0  0  0  0  0
   43.6270   35.7710   43.7250 N   0  0  0  0  0  0  0  0  0  0  0  0
   39.0900   34.3800   39.2290 C   0  0  0  0  0  0  0  0  0  0  0  0
   38.2670   33.2100   39.7190 C   0  0  0  0  0  0  0  0  0  0  0  0
   39.2150   34.3130   37.7170 C   0  0  0  0  0  0  0  0  0  0  0  0
   42.4473   32.9608   42.0860 H   0  0  0  0  0  0  0  0  0  0  0  0
   43.1567   36.3595   39.4983 H   0  0  0  0  0  0  0  0  0  0  0  0
   45.6067   33.8575   39.9831 H   0  0  0  0  0  0  0  0  0  0  0  0
   47.4606   34.3595   41.9037 H   0  0  0  0  0  0  0  0  0  0  0  0
   44.0483   36.0754   44.6142 H   0  0  0  0  0  0  0  0  0  0  0  0
   42.6140   35.8777   43.5719 H   0  0  0  0  0  0  0  0  0  0  0  0
   38.5788   35.3122   39.5113 H   0  0  0  0  0  0  0  0  0  0  0  0
   38.2608   33.2012   40.8189 H   0  0  0  0  0  0  0  0  0  0  0  0
   37.2361   33.3056   39.3473 H   0  0  0  0  0  0  0  0  0  0  0  0
   38.7054   32.2721   39.3473 H   0  0  0  0  0  0  0  0  0  0  0  0
   40.1553   33.8090   37.4488 H   0  0  0  0  0  0  0  0  0  0  0  0
   38.3658   33.7491   37.3035 H   0  0  0  0  0  0  0  0  0  0  0  0
   39.2144   35.3323   37.3035 H   0  0  0  0  0  0  0  0  0  0  0  0
  2  1  2  0
  2  7  1  0
  3  2  1  0
  4  5  1  0
  4  3  2  0
  5  6  2  0
  6  1  1  0
  7 11  1  0
  8  7  1  0
  8  9  2  0
  9 10  1  0
 11 10  2  0
 11 12  1  0
 13 14  1  0
 13  5  1  0
 15 13  1  0
  1 16  1  0
  3 17  1  0
  8 18  1  0
  9 19  1  0
 12 20  1  0
 12 21  1  0
 13 22  1  0
 14 23  1  0
 14 24  1  0
 14 25  1  0
 15 26  1  0
 15 27  1  0
 15 28  1  0
M  ISO  8  16  14  17  14  18  14  19  14  22   8  23   8  24   8  25   8
M  ISO  3  26   8  27   8  28   8
M  END
>  <minimizedAffinity>  (1) 
-4.92211342

>  <minimizedRMSD>  (1) 
6.30814409

$$$$
