
     RDKit          3D

 26 28  0  0  0  0  0  0  0  0999 V2000
   42.1830   33.2350   41.4430 C   0  0  0  0  0  0  0  0  0  0  0  0
   42.7190   34.5290   41.2790 C   0  0  0  0  0  0  0  0  0  0  0  0
   41.9060   35.5050   40.6870 C   0  0  0  0  0  0  0  0  0  0  0  0
   40.6410   35.1540   40.3020 N   0  0  0  0  0  0  0  0  0  0  0  0
   40.1820   33.8920   40.4870 C   0  0  0  0  0  0  0  0  0  0  0  0
   40.9450   32.9280   41.0560 N   0  0  0  0  0  0  0  0  0  0  0  0
   44.0270   34.7240   41.7260 N   0  0  0  0  0  0  0  0  0  0  0  0
   45.1840   34.4450   41.1140 C   0  0  0  0  0  0  0  0  0  0  0  0
   46.2160   34.8310   41.9900 C   0  0  0  0  0  0  0  0  0  0  0  0
   45.6500   35.3320   43.1080 N   0  0  0  0  0  0  0  0  0  0  0  0
   44.3090   35.2640   42.9410 C   0  0  0  0  0  0  0  0  0  0  0  0
   43.5360   35.7560   44.0370 N   0  0  0  0  0  0  0  0  0  0  0  0
   38.8100   33.5050   40.0700 C   0  0  0  0  0  0  0  0  0  0  0  0
   38.3350   33.8290   38.6920 C   0  0  0  0  0  0  0  0  0  0  0  0
   38.6500   32.4130   39.0300 C   0  0  0  0  0  0  0  0  0  0  0  0
   42.8059   32.4547   41.9047 H   0  0  0  0  0  0  0  0  0  0  0  0
   42.2764   36.5296   40.5354 H   0  0  0  0  0  0  0  0  0  0  0  0
   45.3055   33.9988   40.1159 H   0  0  0  0  0  0  0  0  0  0  0  0
   47.2951   34.7402   41.7970 H   0  0  0  0  0  0  0  0  0  0  0  0
   44.0075   36.1268   44.8743 H   0  0  0  0  0  0  0  0  0  0  0  0
   42.5072   35.7399   43.9899 H   0  0  0  0  0  0  0  0  0  0  0  0
   38.4279   33.6903   41.0847 H   0  0  0  0  0  0  0  0  0  0  0  0
   38.9891   34.3857   38.0049 H   0  0  0  0  0  0  0  0  0  0  0  0
   37.4555   34.3465   38.2812 H   0  0  0  0  0  0  0  0  0  0  0  0
   37.8394   31.6756   39.1253 H   0  0  0  0  0  0  0  0  0  0  0  0
   39.3042   31.6366   38.6067 H   0  0  0  0  0  0  0  0  0  0  0  0
  2  1  2  0
  2  7  1  0
  3  2  1  0
  4  5  1  0
  4  3  2  0
  5  6  2  0
  6  1  1  0
  7 11  1  0
  8  7  1  0
  8  9  2  0
  9 10  1  0
 11 10  2  0
 11 12  1  0
 13  5  1  0
 14 15  1  0
 14 13  1  0
 15 13  1  0
  1 16  1  0
  3 17  1  0
  8 18  1  0
  9 19  1  0
 12 20  1  0
 12 21  1  0
 13 22  1  0
 14 23  1  0
 14 24  1  0
 15 25  1  0
 15 26  1  0
M  ISO  8  16  14  17  14  18  14  19  14  22  13  23  13  24  13  25  13
M  ISO  1  26  13
M  END
>  <minimizedAffinity>  (1) 
-4.74867916

>  <minimizedRMSD>  (1) 
6.2017684

$$$$
