
     RDKit          3D

 21 22  0  0  0  0  0  0  0  0999 V2000
   44.6260   35.1210   43.3280 C   0  0  0  0  0  0  0  0  0  0  0  0
   44.1960   34.0830   42.4680 C   0  0  0  0  0  0  0  0  0  0  0  0
   44.5490   32.7660   42.8090 C   0  0  0  0  0  0  0  0  0  0  0  0
   45.2830   32.5660   43.9480 N   0  0  0  0  0  0  0  0  0  0  0  0
   45.6650   33.5980   44.7280 C   0  0  0  0  0  0  0  0  0  0  0  0
   45.3410   34.8790   44.4250 N   0  0  0  0  0  0  0  0  0  0  0  0
   43.4580   34.4560   41.3540 N   0  0  0  0  0  0  0  0  0  0  0  0
   43.7020   34.2760   40.0600 C   0  0  0  0  0  0  0  0  0  0  0  0
   42.6470   34.8400   39.3350 C   0  0  0  0  0  0  0  0  0  0  0  0
   41.7830   35.3510   40.2140 N   0  0  0  0  0  0  0  0  0  0  0  0
   42.2760   35.1190   41.4570 C   0  0  0  0  0  0  0  0  0  0  0  0
   41.4700   35.6040   42.5310 N   0  0  0  0  0  0  0  0  0  0  0  0
   46.4440   33.2700   45.9170 C   0  0  0  0  0  0  0  0  0  0  0  0
   45.8260   32.9090   46.9440 O   0  0  0  0  0  0  0  0  0  0  0  0
   44.3614   36.1602   43.0828 H   0  0  0  0  0  0  0  0  0  0  0  0
   44.2439   31.9183   42.1779 H   0  0  0  0  0  0  0  0  0  0  0  0
   44.5811   33.7711   39.6331 H   0  0  0  0  0  0  0  0  0  0  0  0
   42.5478   34.8588   38.2396 H   0  0  0  0  0  0  0  0  0  0  0  0
   40.5849   36.0914   42.3313 H   0  0  0  0  0  0  0  0  0  0  0  0
   41.7736   35.4665   43.5056 H   0  0  0  0  0  0  0  0  0  0  0  0
   47.5419   33.3379   45.9113 H   0  0  0  0  0  0  0  0  0  0  0  0
  1  6  2  0
  2  3  2  0
  2  1  1  0
  3  4  1  0
  4  5  2  0
  5 13  1  0
  6  5  1  0
  7 11  1  0
  7  2  1  0
  8  7  1  0
  9  8  2  0
  9 10  1  0
 10 11  2  0
 11 12  1  0
 13 14  2  0
  1 15  1  0
  3 16  1  0
  8 17  1  0
  9 18  1  0
 12 19  1  0
 12 20  1  0
 13 21  1  0
M  ISO  5  15  14  16  14  17  14  18  14  21   6
M  END
>  <minimizedAffinity>  (1) 
-4.00542307

>  <minimizedRMSD>  (1) 
0.465863705

$$$$
