
     RDKit          3D

 21 22  0  0  0  0  0  0  0  0999 V2000
   44.5750   35.2950   43.5500 C   0  0  0  0  0  0  0  0  0  0  0  0
   44.2990   34.2230   42.6880 C   0  0  0  0  0  0  0  0  0  0  0  0
   44.7690   32.9510   43.0460 C   0  0  0  0  0  0  0  0  0  0  0  0
   45.4680   32.8240   44.2110 N   0  0  0  0  0  0  0  0  0  0  0  0
   45.7050   33.8990   45.0070 C   0  0  0  0  0  0  0  0  0  0  0  0
   45.2620   35.1380   44.6830 N   0  0  0  0  0  0  0  0  0  0  0  0
   46.4410   33.6250   46.1840 N   0  0  0  0  0  0  0  0  0  0  0  0
   43.5730   34.5090   41.5340 N   0  0  0  0  0  0  0  0  0  0  0  0
   43.8720   34.2990   40.2520 C   0  0  0  0  0  0  0  0  0  0  0  0
   42.7970   34.7720   39.4860 C   0  0  0  0  0  0  0  0  0  0  0  0
   41.8590   35.2650   40.3230 N   0  0  0  0  0  0  0  0  0  0  0  0
   42.3350   35.1040   41.5830 C   0  0  0  0  0  0  0  0  0  0  0  0
   41.4710   35.5720   42.6160 N   0  0  0  0  0  0  0  0  0  0  0  0
   44.2128   36.2987   43.2828 H   0  0  0  0  0  0  0  0  0  0  0  0
   44.5790   32.0781   42.4041 H   0  0  0  0  0  0  0  0  0  0  0  0
   46.6630   34.3861   46.8415 H   0  0  0  0  0  0  0  0  0  0  0  0
   46.7548   32.6644   46.3833 H   0  0  0  0  0  0  0  0  0  0  0  0
   44.7934   33.8389   39.8657 H   0  0  0  0  0  0  0  0  0  0  0  0
   42.7292   34.7459   38.3884 H   0  0  0  0  0  0  0  0  0  0  0  0
   40.5626   35.9940   42.3758 H   0  0  0  0  0  0  0  0  0  0  0  0
   41.7552   35.4881   43.6025 H   0  0  0  0  0  0  0  0  0  0  0  0
  1  6  2  0
  2  3  2  0
  2  1  1  0
  3  4  1  0
  4  5  2  0
  5  7  1  0
  6  5  1  0
  8 12  1  0
  8  2  1  0
  9  8  1  0
 10  9  2  0
 10 11  1  0
 11 12  2  0
 12 13  1  0
  1 14  1  0
  3 15  1  0
  7 16  1  0
  7 17  1  0
  9 18  1  0
 10 19  1  0
 13 20  1  0
 13 21  1  0
M  ISO  4  14  14  15  14  18  14  19  14
M  END
>  <minimizedAffinity>  (1) 
-4.24884224

>  <minimizedRMSD>  (1) 
0.233664185

$$$$
