
     RDKit          3D

 32 34  0  0  0  0  0  0  0  0999 V2000
   44.7650   34.8590   43.5810 C   0  0  0  0  0  0  0  0  0  0  0  0
   44.3970   33.8640   42.6450 C   0  0  0  0  0  0  0  0  0  0  0  0
   44.7900   32.5480   42.9030 C   0  0  0  0  0  0  0  0  0  0  0  0
   45.5100   32.2910   44.0440 N   0  0  0  0  0  0  0  0  0  0  0  0
   45.8330   33.2810   44.9010 C   0  0  0  0  0  0  0  0  0  0  0  0
   45.4630   34.5810   44.6780 N   0  0  0  0  0  0  0  0  0  0  0  0
   43.6710   34.2870   41.5440 N   0  0  0  0  0  0  0  0  0  0  0  0
   43.8760   34.0590   40.2390 C   0  0  0  0  0  0  0  0  0  0  0  0
   42.8500   34.7140   39.5320 C   0  0  0  0  0  0  0  0  0  0  0  0
   42.0490   35.3220   40.4230 N   0  0  0  0  0  0  0  0  0  0  0  0
   42.5470   35.0630   41.6550 C   0  0  0  0  0  0  0  0  0  0  0  0
   41.8120   35.6380   42.7360 N   0  0  0  0  0  0  0  0  0  0  0  0
   46.6120   32.9920   46.1340 C   0  0  0  0  0  0  0  0  0  0  0  0
   45.6270   33.0670   47.2800 C   0  0  0  0  0  0  0  0  0  0  0  0
   45.0370   31.6810   47.4180 C   0  0  0  0  0  0  0  0  0  0  0  0
   46.0270   30.7200   46.7970 C   0  0  0  0  0  0  0  0  0  0  0  0
   47.0600   31.5660   46.0860 C   0  0  0  0  0  0  0  0  0  0  0  0
   44.4628   35.9001   43.3945 H   0  0  0  0  0  0  0  0  0  0  0  0
   44.5286   31.7364   42.2080 H   0  0  0  0  0  0  0  0  0  0  0  0
   44.6948   33.4690   39.8014 H   0  0  0  0  0  0  0  0  0  0  0  0
   42.7256   34.7260   38.4391 H   0  0  0  0  0  0  0  0  0  0  0  0
   40.9706   36.2005   42.5450 H   0  0  0  0  0  0  0  0  0  0  0  0
   42.1233   35.4902   43.7066 H   0  0  0  0  0  0  0  0  0  0  0  0
   47.4629   33.6817   46.2350 H   0  0  0  0  0  0  0  0  0  0  0  0
   46.1422   33.3566   48.2077 H   0  0  0  0  0  0  0  0  0  0  0  0
   44.8466   33.8187   47.0904 H   0  0  0  0  0  0  0  0  0  0  0  0
   44.8879   31.4371   48.4802 H   0  0  0  0  0  0  0  0  0  0  0  0
   44.0589   31.6171   46.9187 H   0  0  0  0  0  0  0  0  0  0  0  0
   46.5066   30.1114   47.5778 H   0  0  0  0  0  0  0  0  0  0  0  0
   45.5283   30.0316   46.0989 H   0  0  0  0  0  0  0  0  0  0  0  0
   47.1516   31.2398   45.0395 H   0  0  0  0  0  0  0  0  0  0  0  0
   48.0394   31.4595   46.5754 H   0  0  0  0  0  0  0  0  0  0  0  0
  1  6  2  0
  2  3  2  0
  2  1  1  0
  3  4  1  0
  4  5  2  0
  5 13  1  0
  6  5  1  0
  7 11  1  0
  7  2  1  0
  8  7  1  0
  9  8  2  0
  9 10  1  0
 10 11  2  0
 11 12  1  0
 13 14  1  0
 14 15  1  0
 16 15  1  0
 17 13  1  0
 17 16  1  0
  1 18  1  0
  3 19  1  0
  8 20  1  0
  9 21  1  0
 12 22  1  0
 12 23  1  0
 13 24  1  0
 14 25  1  0
 14 26  1  0
 15 27  1  0
 15 28  1  0
 16 29  1  0
 16 30  1  0
 17 31  1  0
 17 32  1  0
M  ISO  8  18  14  19  14  20  14  21  14  24  13  25  13  26  13  27  13
M  ISO  5  28  13  29  13  30  13  31  13  32  13
M  END
>  <minimizedAffinity>  (1) 
-4.48007345

>  <minimizedRMSD>  (1) 
0.757733464

$$$$
