
     RDKit          3D

 22 23  0  0  0  0  0  0  0  0999 V2000
   43.4590   34.4270   41.3610 N   0  0  0  0  0  0  0  0  0  0  0  0
   43.7130   34.2390   40.0560 C   0  0  0  0  0  0  0  0  0  0  0  0
   42.6450   34.8260   39.3460 C   0  0  0  0  0  0  0  0  0  0  0  0
   41.7880   35.3460   40.2450 N   0  0  0  0  0  0  0  0  0  0  0  0
   42.2890   35.1010   41.4770 C   0  0  0  0  0  0  0  0  0  0  0  0
   41.4990   35.5880   42.5570 N   0  0  0  0  0  0  0  0  0  0  0  0
   44.6700   35.0560   43.3080 C   0  0  0  0  0  0  0  0  0  0  0  0
   44.2110   34.0340   42.4670 C   0  0  0  0  0  0  0  0  0  0  0  0
   44.5440   32.6990   42.7980 C   0  0  0  0  0  0  0  0  0  0  0  0
   45.2880   32.4870   43.9160 N   0  0  0  0  0  0  0  0  0  0  0  0
   45.7060   33.5160   44.6970 C   0  0  0  0  0  0  0  0  0  0  0  0
   45.4000   34.8020   44.3990 N   0  0  0  0  0  0  0  0  0  0  0  0
   46.5240   33.2260   45.9160 C   0  0  0  0  0  0  0  0  0  0  0  0
   44.5852   33.7264   39.6242 H   0  0  0  0  0  0  0  0  0  0  0  0
   42.5322   34.8540   38.2522 H   0  0  0  0  0  0  0  0  0  0  0  0
   40.6181   36.0866   42.3668 H   0  0  0  0  0  0  0  0  0  0  0  0
   41.8085   35.4416   43.5284 H   0  0  0  0  0  0  0  0  0  0  0  0
   44.4223   36.0994   43.0633 H   0  0  0  0  0  0  0  0  0  0  0  0
   44.2113   31.8591   42.1704 H   0  0  0  0  0  0  0  0  0  0  0  0
   45.9282   33.4372   46.8162 H   0  0  0  0  0  0  0  0  0  0  0  0
   46.8225   32.1673   45.9139 H   0  0  0  0  0  0  0  0  0  0  0  0
   47.4227   33.8603   45.9139 H   0  0  0  0  0  0  0  0  0  0  0  0
  1  5  1  0
  1  8  1  0
  2  1  1  0
  3  2  2  0
  3  4  1  0
  4  5  2  0
  5  6  1  0
  7 12  2  0
  8  9  2  0
  8  7  1  0
  9 10  1  0
 10 11  2  0
 11 13  1  0
 12 11  1  0
  2 14  1  0
  3 15  1  0
  6 16  1  0
  6 17  1  0
  7 18  1  0
  9 19  1  0
 13 20  1  0
 13 21  1  0
 13 22  1  0
M  ISO  7  14  14  15  14  18  14  19  14  20   8  21   8  22   8
M  END
>  <minimizedAffinity>  (1) 
-3.93968296

>  <minimizedRMSD>  (1) 
0.432487786

$$$$
