
     RDKit          3D

 22 22  0  0  0  0  0  0  0  0999 V2000
   45.5900   34.6160   43.9300 C   0  0  0  0  0  0  0  0  0  0  0  0
   46.6470   33.9120   43.3000 C   0  0  0  0  0  0  0  0  0  0  0  0
   47.3680   32.9220   44.0190 C   0  0  0  0  0  0  0  0  0  0  0  0
   46.9930   32.7040   45.3020 N   0  0  0  0  0  0  0  0  0  0  0  0
   46.0010   33.3630   45.8990 C   0  0  0  0  0  0  0  0  0  0  0  0
   45.3280   34.2920   45.2160 N   0  0  0  0  0  0  0  0  0  0  0  0
   44.7820   35.6100   43.3090 C   0  0  0  0  0  0  0  0  0  0  0  0
   45.5240   36.8120   43.2220 F   0  0  0  0  0  0  0  0  0  0  0  0
   43.8410   35.9890   44.3060 F   0  0  0  0  0  0  0  0  0  0  0  0
   44.0940   35.5200   42.2150 F   0  0  0  0  0  0  0  0  0  0  0  0
   47.0230   34.2260   41.9210 C   0  0  0  0  0  0  0  0  0  0  0  0
   45.9160   34.1380   40.9610 C   0  0  0  0  0  0  0  0  0  0  0  0
   47.9110   35.4170   41.8650 C   0  0  0  0  0  0  0  0  0  0  0  0
   48.1918   32.3591   43.5559 H   0  0  0  0  0  0  0  0  0  0  0  0
   45.7389   33.1438   46.9446 H   0  0  0  0  0  0  0  0  0  0  0  0
   47.6595   33.4159   41.5354 H   0  0  0  0  0  0  0  0  0  0  0  0
   44.9634   34.0623   41.5058 H   0  0  0  0  0  0  0  0  0  0  0  0
   45.9064   35.0382   40.3289 H   0  0  0  0  0  0  0  0  0  0  0  0
   46.0487   33.2476   40.3289 H   0  0  0  0  0  0  0  0  0  0  0  0
   48.1534   35.7421   42.8875 H   0  0  0  0  0  0  0  0  0  0  0  0
   48.8384   35.1582   41.3330 H   0  0  0  0  0  0  0  0  0  0  0  0
   47.3983   36.2319   41.3330 H   0  0  0  0  0  0  0  0  0  0  0  0
  1  6  2  0
  2  1  1  0
  2  3  2  0
  3  4  1  0
  4  5  2  0
  6  5  1  0
  7  1  1  0
  7  9  1  0
  8  7  1  0
 10  7  1  0
 11  2  1  0
 12 11  1  0
 13 11  1  0
  3 14  1  0
  5 15  1  0
 11 16  1  0
 12 17  1  0
 12 18  1  0
 12 19  1  0
 13 20  1  0
 13 21  1  0
 13 22  1  0
M  ISO  8  14  14  15  14  16   8  17   8  18   8  19   8  20   8  21   8
M  ISO  1  22   8
M  END
>  <minimizedAffinity>  (1) 
-4.30057907

>  <minimizedRMSD>  (1) 
1.91124344

$$$$
