
     RDKit          3D

 31 32  0  0  0  0  0  0  0  0999 V2000
   43.6410   35.1360   42.1920 C   0  0  0  0  0  0  0  0  0  0  0  0
   42.8910   34.1360   41.5550 C   0  0  0  0  0  0  0  0  0  0  0  0
   43.2700   32.7860   41.7290 C   0  0  0  0  0  0  0  0  0  0  0  0
   44.3570   32.5310   42.5180 N   0  0  0  0  0  0  0  0  0  0  0  0
   45.0450   33.5340   43.1090 C   0  0  0  0  0  0  0  0  0  0  0  0
   44.6930   34.8310   42.9500 N   0  0  0  0  0  0  0  0  0  0  0  0
   41.8080   34.5640   40.7840 N   0  0  0  0  0  0  0  0  0  0  0  0
   41.7820   35.1260   39.5790 C   0  0  0  0  0  0  0  0  0  0  0  0
   40.4420   35.3670   39.2460 C   0  0  0  0  0  0  0  0  0  0  0  0
   39.6810   34.9370   40.2730 N   0  0  0  0  0  0  0  0  0  0  0  0
   40.5170   34.4470   41.2140 C   0  0  0  0  0  0  0  0  0  0  0  0
   39.8740   33.9480   42.3750 N   0  0  0  0  0  0  0  0  0  0  0  0
   46.2280   33.2760   43.9680 C   0  0  0  0  0  0  0  0  0  0  0  0
   47.4380   34.0430   43.4780 C   0  0  0  0  0  0  0  0  0  0  0  0
   45.8570   33.7180   45.3830 C   0  0  0  0  0  0  0  0  0  0  0  0
   46.6090   31.8130   43.9820 C   0  0  0  0  0  0  0  0  0  0  0  0
   43.3553   36.1904   42.0632 H   0  0  0  0  0  0  0  0  0  0  0  0
   42.7110   31.9702   41.2474 H   0  0  0  0  0  0  0  0  0  0  0  0
   42.6568   35.3601   38.9545 H   0  0  0  0  0  0  0  0  0  0  0  0
   40.0768   35.8245   38.3147 H   0  0  0  0  0  0  0  0  0  0  0  0
   38.8471   33.9797   42.4489 H   0  0  0  0  0  0  0  0  0  0  0  0
   40.4338   33.5538   43.1445 H   0  0  0  0  0  0  0  0  0  0  0  0
   48.0145   34.4084   44.3406 H   0  0  0  0  0  0  0  0  0  0  0  0
   48.0701   33.3803   42.8687 H   0  0  0  0  0  0  0  0  0  0  0  0
   47.1084   34.8975   42.8687 H   0  0  0  0  0  0  0  0  0  0  0  0
   46.3854   33.0885   46.1141 H   0  0  0  0  0  0  0  0  0  0  0  0
   46.1472   34.7692   45.5267 H   0  0  0  0  0  0  0  0  0  0  0  0
   44.7714   33.6144   45.5267 H   0  0  0  0  0  0  0  0  0  0  0  0
   46.6990   31.4675   45.0224 H   0  0  0  0  0  0  0  0  0  0  0  0
   45.8335   31.2272   43.4669 H   0  0  0  0  0  0  0  0  0  0  0  0
   47.5718   31.6799   43.4669 H   0  0  0  0  0  0  0  0  0  0  0  0
  1  6  2  0
  2  3  2  0
  2  1  1  0
  3  4  1  0
  4  5  2  0
  5 13  1  0
  6  5  1  0
  7 11  1  0
  7  2  1  0
  8  7  1  0
  9  8  2  0
  9 10  1  0
 10 11  2  0
 11 12  1  0
 13 16  1  0
 13 15  1  0
 14 13  1  0
  1 17  1  0
  3 18  1  0
  8 19  1  0
  9 20  1  0
 12 21  1  0
 12 22  1  0
 14 23  1  0
 14 24  1  0
 14 25  1  0
 15 26  1  0
 15 27  1  0
 15 28  1  0
 16 29  1  0
 16 30  1  0
 16 31  1  0
M  ISO  8  17  14  18  14  19  14  20  14  23   8  24   8  25   8  26   8
M  ISO  5  27   8  28   8  29   8  30   8  31   8
M  END
>  <minimizedAffinity>  (1) 
-4.62386274

>  <minimizedRMSD>  (1) 
2.18413138

$$$$
