
     RDKit          3D

 45 48  0  0  0  0  0  0  0  0999 V2000
   46.0000   33.4710   44.0720 C   0  0  0  0  0  0  0  0  0  0  0  0
   43.4430   35.1170   42.0760 C   0  0  0  0  0  0  0  0  0  0  0  0
   42.7830   34.0650   41.4470 C   0  0  0  0  0  0  0  0  0  0  0  0
   43.2160   32.7470   41.7050 C   0  0  0  0  0  0  0  0  0  0  0  0
   44.2670   32.5770   42.5610 N   0  0  0  0  0  0  0  0  0  0  0  0
   44.8710   33.6400   43.1440 C   0  0  0  0  0  0  0  0  0  0  0  0
   44.4630   34.9100   42.9040 N   0  0  0  0  0  0  0  0  0  0  0  0
   41.7200   34.4000   40.6000 N   0  0  0  0  0  0  0  0  0  0  0  0
   41.7220   34.8690   39.3670 C   0  0  0  0  0  0  0  0  0  0  0  0
   40.3900   35.0440   38.9580 C   0  0  0  0  0  0  0  0  0  0  0  0
   39.6080   34.6660   39.9830 N   0  0  0  0  0  0  0  0  0  0  0  0
   40.4080   34.2720   40.9880 C   0  0  0  0  0  0  0  0  0  0  0  0
   39.7370   33.8380   42.1580 N   0  0  0  0  0  0  0  0  0  0  0  0
   47.2530   34.1640   43.5390 C   0  0  0  0  0  0  0  0  0  0  0  0
   45.6130   34.1050   45.3910 C   0  0  0  0  0  0  0  0  0  0  0  0
   46.3930   32.0270   44.2580 C   0  0  0  0  0  0  0  0  0  0  0  0
   46.4990   31.5790   45.6480 C   0  0  0  0  0  0  0  0  0  0  0  0
   47.2130   32.2070   46.5990 N   0  0  0  0  0  0  0  0  0  0  0  0
   47.2650   31.7580   47.8630 C   0  0  0  0  0  0  0  0  0  0  0  0
   46.6100   30.6530   48.2660 N   0  0  0  0  0  0  0  0  0  0  0  0
   45.8680   29.9610   47.3700 C   0  0  0  0  0  0  0  0  0  0  0  0
   45.2240   28.8430   47.8260 C   0  0  0  0  0  0  0  0  0  0  0  0
   44.4690   28.1240   46.9270 C   0  0  0  0  0  0  0  0  0  0  0  0
   44.3740   28.5340   45.6040 C   0  0  0  0  0  0  0  0  0  0  0  0
   45.0510   29.6640   45.2350 C   0  0  0  0  0  0  0  0  0  0  0  0
   45.8350   30.4420   46.0960 C   0  0  0  0  0  0  0  0  0  0  0  0
   43.1117   36.1480   41.8828 H   0  0  0  0  0  0  0  0  0  0  0  0
   42.7233   31.8846   41.2323 H   0  0  0  0  0  0  0  0  0  0  0  0
   42.6149   35.0860   38.7623 H   0  0  0  0  0  0  0  0  0  0  0  0
   40.0506   35.4200   37.9816 H   0  0  0  0  0  0  0  0  0  0  0  0
   38.7076   33.8401   42.1921 H   0  0  0  0  0  0  0  0  0  0  0  0
   40.2786   33.5204   42.9745 H   0  0  0  0  0  0  0  0  0  0  0  0
   47.8703   34.5054   44.3830 H   0  0  0  0  0  0  0  0  0  0  0  0
   47.8301   33.4568   42.9251 H   0  0  0  0  0  0  0  0  0  0  0  0
   46.9607   35.0287   42.9251 H   0  0  0  0  0  0  0  0  0  0  0  0
   45.9901   33.4873   46.2194 H   0  0  0  0  0  0  0  0  0  0  0  0
   46.0505   35.1122   45.4560 H   0  0  0  0  0  0  0  0  0  0  0  0
   44.5172   34.1763   45.4560 H   0  0  0  0  0  0  0  0  0  0  0  0
   45.6386   31.4027   43.7568 H   0  0  0  0  0  0  0  0  0  0  0  0
   47.4019   31.9300   43.8305 H   0  0  0  0  0  0  0  0  0  0  0  0
   47.8658   32.3142   48.5976 H   0  0  0  0  0  0  0  0  0  0  0  0
   45.3069   28.5290   48.8770 H   0  0  0  0  0  0  0  0  0  0  0  0
   43.9380   27.2196   47.2588 H   0  0  0  0  0  0  0  0  0  0  0  0
   43.7738   27.9685   44.8760 H   0  0  0  0  0  0  0  0  0  0  0  0
   44.9740   29.9849   44.1857 H   0  0  0  0  0  0  0  0  0  0  0  0
  1 16  1  0
  1 15  1  0
  2  7  2  0
  3  4  2  0
  3  2  1  0
  4  5  1  0
  5  6  2  0
  6  1  1  0
  7  6  1  0
  8 12  1  0
  8  3  1  0
  9  8  1  0
 10  9  2  0
 10 11  1  0
 11 12  2  0
 12 13  1  0
 14  1  1  0
 16 17  1  0
 17 26  1  0
 17 18  2  0
 18 19  1  0
 19 20  2  0
 21 22  2  0
 21 20  1  0
 23 22  1  0
 24 23  2  0
 25 24  1  0
 25 26  2  0
 26 21  1  0
  2 27  1  0
  4 28  1  0
  9 29  1  0
 10 30  1  0
 13 31  1  0
 13 32  1  0
 14 33  1  0
 14 34  1  0
 14 35  1  0
 15 36  1  0
 15 37  1  0
 15 38  1  0
 16 39  1  0
 16 40  1  0
 19 41  1  0
 22 42  1  0
 23 43  1  0
 24 44  1  0
 25 45  1  0
M  ISO  8  27  14  28  14  29  14  30  14  33   8  34   8  35   8  36   8
M  ISO  8  37   8  38   8  39   8  40   8  41  14  42  14  43  14  44  14
M  ISO  1  45  14
M  END
>  <minimizedAffinity>  (1) 
-6.13597393

>  <minimizedRMSD>  (1) 
2.46798801

$$$$
