
     RDKit          3D

 44 47  0  0  0  0  0  0  0  0999 V2000
   46.0730   33.5680   43.8120 C   0  0  0  0  0  0  0  0  0  0  0  0
   43.2510   34.9070   41.9240 C   0  0  0  0  0  0  0  0  0  0  0  0
   42.6550   33.7690   41.3860 C   0  0  0  0  0  0  0  0  0  0  0  0
   43.2210   32.4990   41.6700 C   0  0  0  0  0  0  0  0  0  0  0  0
   44.3300   32.5120   42.4670 N   0  0  0  0  0  0  0  0  0  0  0  0
   44.8730   33.6270   42.9630 C   0  0  0  0  0  0  0  0  0  0  0  0
   44.3340   34.8280   42.6940 N   0  0  0  0  0  0  0  0  0  0  0  0
   41.5220   33.9740   40.5940 N   0  0  0  0  0  0  0  0  0  0  0  0
   41.4220   34.2620   39.3000 C   0  0  0  0  0  0  0  0  0  0  0  0
   40.0530   34.3640   38.9940 C   0  0  0  0  0  0  0  0  0  0  0  0
   39.3550   34.1290   40.1350 N   0  0  0  0  0  0  0  0  0  0  0  0
   40.2510   33.8910   41.1130 C   0  0  0  0  0  0  0  0  0  0  0  0
   39.6840   33.6240   42.3810 N   0  0  0  0  0  0  0  0  0  0  0  0
   47.1970   34.4300   43.2200 C   0  0  0  0  0  0  0  0  0  0  0  0
   45.6810   34.1950   45.1610 C   0  0  0  0  0  0  0  0  0  0  0  0
   46.6510   32.2130   43.9910 C   0  0  0  0  0  0  0  0  0  0  0  0
   46.0490   31.3430   44.9570 N   0  0  0  0  0  0  0  0  0  0  0  0
   45.1600   30.3390   44.9770 C   0  0  0  0  0  0  0  0  0  0  0  0
   44.9520   29.8120   46.1940 N   0  0  0  0  0  0  0  0  0  0  0  0
   45.7440   30.5030   47.0260 C   0  0  0  0  0  0  0  0  0  0  0  0
   45.8660   30.3060   48.3860 C   0  0  0  0  0  0  0  0  0  0  0  0
   46.7440   31.1290   49.0290 N   0  0  0  0  0  0  0  0  0  0  0  0
   47.4180   32.0610   48.2940 C   0  0  0  0  0  0  0  0  0  0  0  0
   47.2530   32.2010   46.9710 N   0  0  0  0  0  0  0  0  0  0  0  0
   46.4210   31.4440   46.2740 C   0  0  0  0  0  0  0  0  0  0  0  0
   45.1270   29.3100   49.0820 N   0  0  0  0  0  0  0  0  0  0  0  0
   42.8167   35.8942   41.7076 H   0  0  0  0  0  0  0  0  0  0  0  0
   42.7945   31.5655   41.2742 H   0  0  0  0  0  0  0  0  0  0  0  0
   42.2574   34.3960   38.5970 H   0  0  0  0  0  0  0  0  0  0  0  0
   39.6244   34.5931   38.0072 H   0  0  0  0  0  0  0  0  0  0  0  0
   38.6607   33.6240   42.4979 H   0  0  0  0  0  0  0  0  0  0  0  0
   40.2945   33.4296   43.1875 H   0  0  0  0  0  0  0  0  0  0  0  0
   47.7828   34.8792   44.0355 H   0  0  0  0  0  0  0  0  0  0  0  0
   47.8534   33.8015   42.6002 H   0  0  0  0  0  0  0  0  0  0  0  0
   46.7602   35.2269   42.6002 H   0  0  0  0  0  0  0  0  0  0  0  0
   46.0697   33.5733   45.9810 H   0  0  0  0  0  0  0  0  0  0  0  0
   46.1081   35.2061   45.2333 H   0  0  0  0  0  0  0  0  0  0  0  0
   44.5850   34.2539   45.2333 H   0  0  0  0  0  0  0  0  0  0  0  0
   46.5988   31.7047   43.0169 H   0  0  0  0  0  0  0  0  0  0  0  0
   47.6623   32.3973   44.3826 H   0  0  0  0  0  0  0  0  0  0  0  0
   44.6456   29.9784   44.0740 H   0  0  0  0  0  0  0  0  0  0  0  0
   48.1269   32.7257   48.8093 H   0  0  0  0  0  0  0  0  0  0  0  0
   45.2475   29.1955   50.0985 H   0  0  0  0  0  0  0  0  0  0  0  0
   44.4712   28.7031   48.5696 H   0  0  0  0  0  0  0  0  0  0  0  0
  1 16  1  0
  1 15  1  0
  2  7  2  0
  3  4  2  0
  3  2  1  0
  4  5  1  0
  5  6  2  0
  6  1  1  0
  7  6  1  0
  8 12  1  0
  8  3  1  0
  9  8  1  0
 10  9  2  0
 10 11  1  0
 11 12  2  0
 12 13  1  0
 14  1  1  0
 16 17  1  0
 17 18  1  0
 17 25  1  0
 18 19  2  0
 19 20  1  0
 20 21  2  0
 21 22  1  0
 21 26  1  0
 23 22  2  0
 24 23  1  0
 25 24  2  0
 25 20  1  0
  2 27  1  0
  4 28  1  0
  9 29  1  0
 10 30  1  0
 13 31  1  0
 13 32  1  0
 14 33  1  0
 14 34  1  0
 14 35  1  0
 15 36  1  0
 15 37  1  0
 15 38  1  0
 16 39  1  0
 16 40  1  0
 18 41  1  0
 23 42  1  0
 26 43  1  0
 26 44  1  0
M  ISO  8  27  14  28  14  29  14  30  14  33   8  34   8  35   8  36   8
M  ISO  6  37   8  38   8  39   8  40   8  41  14  42  14
M  END
>  <minimizedAffinity>  (1) 
-6.14208412

>  <minimizedRMSD>  (1) 
1.64616656

$$$$
