
     RDKit          3D

 43 45  0  0  0  0  0  0  0  0999 V2000
   43.4720   35.1430   42.2930 C   0  0  0  0  0  0  0  0  0  0  0  0
   42.8310   34.1300   41.5490 C   0  0  0  0  0  0  0  0  0  0  0  0
   43.2590   32.8020   41.7170 C   0  0  0  0  0  0  0  0  0  0  0  0
   44.2750   32.5740   42.5940 N   0  0  0  0  0  0  0  0  0  0  0  0
   44.8630   33.5740   43.2870 C   0  0  0  0  0  0  0  0  0  0  0  0
   44.4630   34.8670   43.1390 N   0  0  0  0  0  0  0  0  0  0  0  0
   41.8070   34.5460   40.6930 N   0  0  0  0  0  0  0  0  0  0  0  0
   41.8820   35.0920   39.4730 C   0  0  0  0  0  0  0  0  0  0  0  0
   40.5680   35.3280   39.0360 C   0  0  0  0  0  0  0  0  0  0  0  0
   39.7310   34.9110   40.0200 N   0  0  0  0  0  0  0  0  0  0  0  0
   40.4950   34.4360   41.0260 C   0  0  0  0  0  0  0  0  0  0  0  0
   39.7700   33.9560   42.1380 N   0  0  0  0  0  0  0  0  0  0  0  0
   45.9760   33.3270   44.2360 C   0  0  0  0  0  0  0  0  0  0  0  0
   45.7250   33.9810   45.5600 C   0  0  0  0  0  0  0  0  0  0  0  0
   46.0170   31.7940   44.4330 C   0  0  0  0  0  0  0  0  0  0  0  0
   47.2930   33.7620   43.6910 C   0  0  0  0  0  0  0  0  0  0  0  0
   47.3800   33.9980   42.2940 N   0  0  0  0  0  0  0  0  0  0  0  0
   48.2270   32.9000   41.7740 C   0  0  0  0  0  0  0  0  0  0  0  0
   48.8020   33.3870   40.4730 C   0  0  0  0  0  0  0  0  0  0  0  0
   48.2950   34.8270   40.3640 C   0  0  0  0  0  0  0  0  0  0  0  0
   48.1420   35.1260   41.8700 C   0  0  0  0  0  0  0  0  0  0  0  0
   43.1453   36.1863   42.1714 H   0  0  0  0  0  0  0  0  0  0  0  0
   42.7903   31.9771   41.1603 H   0  0  0  0  0  0  0  0  0  0  0  0
   42.8035   35.3149   38.9151 H   0  0  0  0  0  0  0  0  0  0  0  0
   40.2717   35.7697   38.0731 H   0  0  0  0  0  0  0  0  0  0  0  0
   38.7405   33.9891   42.1349 H   0  0  0  0  0  0  0  0  0  0  0  0
   40.2704   33.5726   42.9525 H   0  0  0  0  0  0  0  0  0  0  0  0
   45.9920   33.2853   46.3691 H   0  0  0  0  0  0  0  0  0  0  0  0
   46.3378   34.8908   45.6416 H   0  0  0  0  0  0  0  0  0  0  0  0
   44.6608   34.2472   45.6416 H   0  0  0  0  0  0  0  0  0  0  0  0
   46.0232   31.5625   45.5084 H   0  0  0  0  0  0  0  0  0  0  0  0
   45.1307   31.3404   43.9654 H   0  0  0  0  0  0  0  0  0  0  0  0
   46.9263   31.3884   43.9654 H   0  0  0  0  0  0  0  0  0  0  0  0
   47.5674   34.6974   44.2006 H   0  0  0  0  0  0  0  0  0  0  0  0
   47.9658   32.9110   43.8732 H   0  0  0  0  0  0  0  0  0  0  0  0
   49.0346   32.6729   42.4855 H   0  0  0  0  0  0  0  0  0  0  0  0
   47.6428   31.9789   41.6318 H   0  0  0  0  0  0  0  0  0  0  0  0
   49.9014   33.3596   40.4962 H   0  0  0  0  0  0  0  0  0  0  0  0
   48.5018   32.7651   39.6168 H   0  0  0  0  0  0  0  0  0  0  0  0
   49.0284   35.4899   39.8816 H   0  0  0  0  0  0  0  0  0  0  0  0
   47.3922   34.9721   39.7526 H   0  0  0  0  0  0  0  0  0  0  0  0
   49.1183   35.1672   42.3751 H   0  0  0  0  0  0  0  0  0  0  0  0
   47.6782   36.0977   42.0951 H   0  0  0  0  0  0  0  0  0  0  0  0
  1  6  2  0
  2  3  2  0
  2  1  1  0
  3  4  1  0
  4  5  2  0
  5 13  1  0
  6  5  1  0
  7 11  1  0
  7  2  1  0
  8  7  1  0
  9  8  2  0
  9 10  1  0
 10 11  2  0
 11 12  1  0
 13 15  1  0
 13 14  1  0
 16 13  1  0
 17 16  1  0
 18 17  1  0
 19 18  1  0
 20 19  1  0
 20 21  1  0
 21 17  1  0
  1 22  1  0
  3 23  1  0
  8 24  1  0
  9 25  1  0
 12 26  1  0
 12 27  1  0
 14 28  1  0
 14 29  1  0
 14 30  1  0
 15 31  1  0
 15 32  1  0
 15 33  1  0
 16 34  1  0
 16 35  1  0
 18 36  1  0
 18 37  1  0
 19 38  1  0
 19 39  1  0
 20 40  1  0
 20 41  1  0
 21 42  1  0
 21 43  1  0
M  ISO  8  22  14  23  14  24  14  25  14  28   8  29   8  30   8  31   8
M  ISO  8  32   8  33   8  34   8  35   8  36  13  37  13  38  13  39  13
M  ISO  4  40  13  41  13  42  13  43  13
M  END
>  <minimizedAffinity>  (1) 
-5.26817989

>  <minimizedRMSD>  (1) 
2.30846286

$$$$
