
     RDKit          3D

 40 42  0  0  0  0  0  0  0  0999 V2000
   45.9400   33.2540   44.1580 C   0  0  0  0  0  0  0  0  0  0  0  0
   43.2180   33.1370   41.7430 C   0  0  0  0  0  0  0  0  0  0  0  0
   42.8850   34.4820   41.5640 C   0  0  0  0  0  0  0  0  0  0  0  0
   43.6040   35.4690   42.2850 C   0  0  0  0  0  0  0  0  0  0  0  0
   44.5880   35.0170   43.1150 N   0  0  0  0  0  0  0  0  0  0  0  0
   44.8740   33.7170   43.2570 C   0  0  0  0  0  0  0  0  0  0  0  0
   44.1970   32.7740   42.5770 N   0  0  0  0  0  0  0  0  0  0  0  0
   41.8470   34.7630   40.6710 N   0  0  0  0  0  0  0  0  0  0  0  0
   40.5380   34.9200   40.9080 C   0  0  0  0  0  0  0  0  0  0  0  0
   39.9210   35.1880   39.6760 C   0  0  0  0  0  0  0  0  0  0  0  0
   40.8740   35.1860   38.7290 N   0  0  0  0  0  0  0  0  0  0  0  0
   42.0620   34.9250   39.3320 C   0  0  0  0  0  0  0  0  0  0  0  0
   43.1820   34.8850   38.4760 N   0  0  0  0  0  0  0  0  0  0  0  0
   45.7040   33.7330   45.5860 C   0  0  0  0  0  0  0  0  0  0  0  0
   45.9090   31.7330   44.1520 C   0  0  0  0  0  0  0  0  0  0  0  0
   47.3180   33.7300   43.7770 C   0  0  0  0  0  0  0  0  0  0  0  0
   47.6050   33.8420   42.3540 C   0  0  0  0  0  0  0  0  0  0  0  0
   48.1020   35.0780   41.9190 C   0  0  0  0  0  0  0  0  0  0  0  0
   48.4100   35.2950   40.5780 C   0  0  0  0  0  0  0  0  0  0  0  0
   48.2310   34.2990   39.6610 C   0  0  0  0  0  0  0  0  0  0  0  0
   47.7430   33.0940   40.1030 C   0  0  0  0  0  0  0  0  0  0  0  0
   47.4590   32.9170   41.3860 N   0  0  0  0  0  0  0  0  0  0  0  0
   42.6654   32.3643   41.1884 H   0  0  0  0  0  0  0  0  0  0  0  0
   43.3805   36.5410   42.1807 H   0  0  0  0  0  0  0  0  0  0  0  0
   40.0393   34.8516   41.8861 H   0  0  0  0  0  0  0  0  0  0  0  0
   38.8479   35.3677   39.5146 H   0  0  0  0  0  0  0  0  0  0  0  0
   44.1178   34.6924   38.8609 H   0  0  0  0  0  0  0  0  0  0  0  0
   43.0643   35.0483   37.4659 H   0  0  0  0  0  0  0  0  0  0  0  0
   46.0766   32.9768   46.2927 H   0  0  0  0  0  0  0  0  0  0  0  0
   46.2382   34.6808   45.7478 H   0  0  0  0  0  0  0  0  0  0  0  0
   44.6269   33.8869   45.7478 H   0  0  0  0  0  0  0  0  0  0  0  0
   45.9014   31.3623   45.1876 H   0  0  0  0  0  0  0  0  0  0  0  0
   45.0036   31.3868   43.6320 H   0  0  0  0  0  0  0  0  0  0  0  0
   46.7995   31.3502   43.6320 H   0  0  0  0  0  0  0  0  0  0  0  0
   47.4618   34.7245   44.2245 H   0  0  0  0  0  0  0  0  0  0  0  0
   48.0030   32.9533   44.1479 H   0  0  0  0  0  0  0  0  0  0  0  0
   48.2511   35.8888   42.6473 H   0  0  0  0  0  0  0  0  0  0  0  0
   48.7989   36.2724   40.2564 H   0  0  0  0  0  0  0  0  0  0  0  0
   48.4708   34.4574   38.5992 H   0  0  0  0  0  0  0  0  0  0  0  0
   47.5869   32.2716   39.3893 H   0  0  0  0  0  0  0  0  0  0  0  0
  1 14  1  0
  2  7  2  0
  3  2  1  0
  3  4  2  0
  4  5  1  0
  5  6  2  0
  6  1  1  0
  7  6  1  0
  8  9  1  0
  8  3  1  0
 10  9  2  0
 11 12  2  0
 11 10  1  0
 12  8  1  0
 13 12  1  0
 15  1  1  0
 16  1  1  0
 17 16  1  0
 18 17  2  0
 19 18  1  0
 20 21  1  0
 20 19  2  0
 21 22  2  0
 22 17  1  0
  2 23  1  0
  4 24  1  0
  9 25  1  0
 10 26  1  0
 13 27  1  0
 13 28  1  0
 14 29  1  0
 14 30  1  0
 14 31  1  0
 15 32  1  0
 15 33  1  0
 15 34  1  0
 16 35  1  0
 16 36  1  0
 18 37  1  0
 19 38  1  0
 20 39  1  0
 21 40  1  0
M  ISO  8  23  14  24  14  25  14  26  14  29   8  30   8  31   8  32   8
M  ISO  8  33   8  34   8  35   8  36   8  37  14  38  14  39  14  40  14
M  END
>  <minimizedAffinity>  (1) 
-5.58337402

>  <minimizedRMSD>  (1) 
4.06674862

$$$$
