
     RDKit          3D

 41 43  0  0  0  0  0  0  0  0999 V2000
   46.0170   33.1210   44.4390 C   0  0  0  0  0  0  0  0  0  0  0  0
   43.6910   34.9680   42.3310 C   0  0  0  0  0  0  0  0  0  0  0  0
   43.0170   33.9450   41.6290 C   0  0  0  0  0  0  0  0  0  0  0  0
   43.3660   32.5980   41.8860 C   0  0  0  0  0  0  0  0  0  0  0  0
   44.3510   32.4030   42.8130 N   0  0  0  0  0  0  0  0  0  0  0  0
   44.9640   33.4000   43.4550 C   0  0  0  0  0  0  0  0  0  0  0  0
   44.6420   34.6840   43.2200 N   0  0  0  0  0  0  0  0  0  0  0  0
   42.0380   34.3560   40.7190 N   0  0  0  0  0  0  0  0  0  0  0  0
   42.1730   34.8160   39.4690 C   0  0  0  0  0  0  0  0  0  0  0  0
   40.8820   35.0880   38.9880 C   0  0  0  0  0  0  0  0  0  0  0  0
   40.0010   34.7840   39.9630 N   0  0  0  0  0  0  0  0  0  0  0  0
   40.7130   34.3370   41.0200 C   0  0  0  0  0  0  0  0  0  0  0  0
   39.9340   33.9670   42.1500 N   0  0  0  0  0  0  0  0  0  0  0  0
   47.4040   33.4040   43.8530 C   0  0  0  0  0  0  0  0  0  0  0  0
   45.8070   34.1140   45.5990 C   0  0  0  0  0  0  0  0  0  0  0  0
   46.0620   31.7380   44.9630 C   0  0  0  0  0  0  0  0  0  0  0  0
   46.2190   31.5180   46.3900 C   0  0  0  0  0  0  0  0  0  0  0  0
   45.1770   30.8670   47.0660 C   0  0  0  0  0  0  0  0  0  0  0  0
   45.1570   30.6040   48.4190 C   0  0  0  0  0  0  0  0  0  0  0  0
   46.2200   30.9950   49.2060 C   0  0  0  0  0  0  0  0  0  0  0  0
   47.2710   31.6380   48.6000 C   0  0  0  0  0  0  0  0  0  0  0  0
   47.2390   31.8730   47.2440 C   0  0  0  0  0  0  0  0  0  0  0  0
   43.4262   36.0185   42.1405 H   0  0  0  0  0  0  0  0  0  0  0  0
   42.8746   31.7593   41.3712 H   0  0  0  0  0  0  0  0  0  0  0  0
   43.1171   34.9547   38.9219 H   0  0  0  0  0  0  0  0  0  0  0  0
   40.6329   35.4802   37.9909 H   0  0  0  0  0  0  0  0  0  0  0  0
   38.9080   34.0520   42.1184 H   0  0  0  0  0  0  0  0  0  0  0  0
   40.3955   33.6139   43.0004 H   0  0  0  0  0  0  0  0  0  0  0  0
   48.1246   33.5510   44.6710 H   0  0  0  0  0  0  0  0  0  0  0  0
   47.7212   32.5521   43.2336 H   0  0  0  0  0  0  0  0  0  0  0  0
   47.3621   34.3121   43.2336 H   0  0  0  0  0  0  0  0  0  0  0  0
   45.9185   33.5866   46.5579 H   0  0  0  0  0  0  0  0  0  0  0  0
   46.5550   34.9179   45.5335 H   0  0  0  0  0  0  0  0  0  0  0  0
   44.7976   34.5462   45.5335 H   0  0  0  0  0  0  0  0  0  0  0  0
   45.1204   31.2528   44.6663 H   0  0  0  0  0  0  0  0  0  0  0  0
   46.9898   31.3301   44.5354 H   0  0  0  0  0  0  0  0  0  0  0  0
   44.3103   30.5417   46.4718 H   0  0  0  0  0  0  0  0  0  0  0  0
   44.2977   30.0850   48.8687 H   0  0  0  0  0  0  0  0  0  0  0  0
   46.2257   30.7974   50.2881 H   0  0  0  0  0  0  0  0  0  0  0  0
   48.1359   31.9643   49.1962 H   0  0  0  0  0  0  0  0  0  0  0  0
   48.1045   32.3899   46.8040 H   0  0  0  0  0  0  0  0  0  0  0  0
  1 16  1  0
  1 15  1  0
  2  7  2  0
  3  4  2  0
  3  2  1  0
  4  5  1  0
  5  6  2  0
  6  1  1  0
  7  6  1  0
  8 12  1  0
  8  3  1  0
  9  8  1  0
 10  9  2  0
 10 11  1  0
 11 12  2  0
 12 13  1  0
 14  1  1  0
 16 17  1  0
 17 18  2  0
 17 22  1  0
 18 19  1  0
 19 20  2  0
 21 20  1  0
 22 21  2  0
  2 23  1  0
  4 24  1  0
  9 25  1  0
 10 26  1  0
 13 27  1  0
 13 28  1  0
 14 29  1  0
 14 30  1  0
 14 31  1  0
 15 32  1  0
 15 33  1  0
 15 34  1  0
 16 35  1  0
 16 36  1  0
 18 37  1  0
 19 38  1  0
 20 39  1  0
 21 40  1  0
 22 41  1  0
M  ISO  8  23  14  24  14  25  14  26  14  29   8  30   8  31   8  32   8
M  ISO  8  33   8  34   8  35   8  36   8  37  14  38  14  39  14  40  14
M  ISO  1  41  14
M  END
>  <minimizedAffinity>  (1) 
-5.63734341

>  <minimizedRMSD>  (1) 
2.14929152

$$$$
