
     RDKit          3D

 45 47  0  0  0  0  0  0  0  0999 V2000
   46.0580   34.2760   42.7580 C   0  0  0  0  0  0  0  0  0  0  0  0
   42.8110   35.3380   41.4760 C   0  0  0  0  0  0  0  0  0  0  0  0
   42.2410   34.1480   41.0040 C   0  0  0  0  0  0  0  0  0  0  0  0
   42.9720   32.9510   41.1330 C   0  0  0  0  0  0  0  0  0  0  0  0
   44.2060   33.0220   41.7160 N   0  0  0  0  0  0  0  0  0  0  0  0
   44.7170   34.1840   42.1540 C   0  0  0  0  0  0  0  0  0  0  0  0
   44.0170   35.3470   42.0350 N   0  0  0  0  0  0  0  0  0  0  0  0
   40.9720   34.2430   40.4310 N   0  0  0  0  0  0  0  0  0  0  0  0
   40.6160   34.6650   39.2100 C   0  0  0  0  0  0  0  0  0  0  0  0
   39.2230   34.5700   39.1150 C   0  0  0  0  0  0  0  0  0  0  0  0
   38.7690   34.0890   40.2870 N   0  0  0  0  0  0  0  0  0  0  0  0
   39.8430   33.8880   41.0940 C   0  0  0  0  0  0  0  0  0  0  0  0
   39.5430   33.3800   42.3750 N   0  0  0  0  0  0  0  0  0  0  0  0
   46.7010   35.6100   42.5570 C   0  0  0  0  0  0  0  0  0  0  0  0
   45.8290   34.0790   44.2900 C   0  0  0  0  0  0  0  0  0  0  0  0
   46.9710   33.1780   42.3080 C   0  0  0  0  0  0  0  0  0  0  0  0
   48.2970   33.4810   42.0010 N   0  0  0  0  0  0  0  0  0  0  0  0
   48.6880   33.3110   40.6430 C   0  0  0  0  0  0  0  0  0  0  0  0
   49.7270   32.2490   40.5020 C   0  0  0  0  0  0  0  0  0  0  0  0
   50.9100   32.4350   41.2840 N   0  0  0  0  0  0  0  0  0  0  0  0
   50.7230   33.4870   42.2440 C   0  0  0  0  0  0  0  0  0  0  0  0
   49.3520   33.2900   42.8940 C   0  0  0  0  0  0  0  0  0  0  0  0
   42.2512   36.2802   41.3824 H   0  0  0  0  0  0  0  0  0  0  0  0
   42.5643   31.9933   40.7772 H   0  0  0  0  0  0  0  0  0  0  0  0
   41.2968   35.0221   38.4232 H   0  0  0  0  0  0  0  0  0  0  0  0
   38.6108   34.8394   38.2417 H   0  0  0  0  0  0  0  0  0  0  0  0
   38.5654   33.1893   42.6374 H   0  0  0  0  0  0  0  0  0  0  0  0
   40.3015   33.1997   43.0481 H   0  0  0  0  0  0  0  0  0  0  0  0
   46.9193   36.0629   43.5354 H   0  0  0  0  0  0  0  0  0  0  0  0
   47.6375   35.4845   41.9939 H   0  0  0  0  0  0  0  0  0  0  0  0
   46.0194   36.2645   41.9939 H   0  0  0  0  0  0  0  0  0  0  0  0
   46.5466   34.6963   44.8504 H   0  0  0  0  0  0  0  0  0  0  0  0
   44.8038   34.3818   44.5494 H   0  0  0  0  0  0  0  0  0  0  0  0
   45.9753   33.0201   44.5494 H   0  0  0  0  0  0  0  0  0  0  0  0
   46.9903   32.4263   43.1109 H   0  0  0  0  0  0  0  0  0  0  0  0
   46.5447   32.8603   41.3450 H   0  0  0  0  0  0  0  0  0  0  0  0
   47.8058   33.0290   40.0496 H   0  0  0  0  0  0  0  0  0  0  0  0
   49.1136   34.2600   40.2849 H   0  0  0  0  0  0  0  0  0  0  0  0
   49.2738   31.2908   40.7962 H   0  0  0  0  0  0  0  0  0  0  0  0
   50.0518   32.2830   39.4516 H   0  0  0  0  0  0  0  0  0  0  0  0
   51.1286   31.5593   41.7802 H   0  0  0  0  0  0  0  0  0  0  0  0
   51.5107   33.4385   43.0103 H   0  0  0  0  0  0  0  0  0  0  0  0
   50.7770   34.4695   41.7522 H   0  0  0  0  0  0  0  0  0  0  0  0
   49.2480   34.0094   43.7196 H   0  0  0  0  0  0  0  0  0  0  0  0
   49.3006   32.2502   43.2493 H   0  0  0  0  0  0  0  0  0  0  0  0
  1 15  1  0
  2  7  2  0
  3  4  2  0
  3  2  1  0
  4  5  1  0
  5  6  2  0
  6  1  1  0
  7  6  1  0
  8  3  1  0
  8 12  1  0
  9  8  1  0
 10  9  2  0
 10 11  1  0
 11 12  2  0
 12 13  1  0
 14  1  1  0
 16  1  1  0
 17 16  1  0
 17 22  1  0
 18 17  1  0
 19 18  1  0
 19 20  1  0
 20 21  1  0
 21 22  1  0
  2 23  1  0
  4 24  1  0
  9 25  1  0
 10 26  1  0
 13 27  1  0
 13 28  1  0
 14 29  1  0
 14 30  1  0
 14 31  1  0
 15 32  1  0
 15 33  1  0
 15 34  1  0
 16 35  1  0
 16 36  1  0
 18 37  1  0
 18 38  1  0
 19 39  1  0
 19 40  1  0
 20 41  1  0
 21 42  1  0
 21 43  1  0
 22 44  1  0
 22 45  1  0
M  ISO  8  23  14  24  14  25  14  26  14  29   8  30   8  31   8  32   8
M  ISO  8  33   8  34   8  35   8  36   8  37  13  38  13  39  13  40  13
M  ISO  5  41   5  42  13  43  13  44  13  45  13
M  END
>  <minimizedAffinity>  (1) 
-5.30385399

>  <minimizedRMSD>  (1) 
2.32565975

$$$$
