
     RDKit          3D

 42 45  0  0  0  0  0  0  0  0999 V2000
   46.5330   33.8590   42.4340 C   0  0  0  0  0  0  0  0  0  0  0  0
   43.5260   35.0310   40.7400 C   0  0  0  0  0  0  0  0  0  0  0  0
   42.6050   33.9840   40.9670 C   0  0  0  0  0  0  0  0  0  0  0  0
   43.0220   32.8590   41.7070 C   0  0  0  0  0  0  0  0  0  0  0  0
   44.3140   32.8840   42.1510 N   0  0  0  0  0  0  0  0  0  0  0  0
   45.1580   33.8930   41.9170 C   0  0  0  0  0  0  0  0  0  0  0  0
   44.7720   34.9680   41.2130 N   0  0  0  0  0  0  0  0  0  0  0  0
   41.3300   34.1590   40.4240 N   0  0  0  0  0  0  0  0  0  0  0  0
   40.9710   34.4090   39.1570 C   0  0  0  0  0  0  0  0  0  0  0  0
   39.5610   34.4960   39.1460 C   0  0  0  0  0  0  0  0  0  0  0  0
   39.1130   34.2940   40.4130 N   0  0  0  0  0  0  0  0  0  0  0  0
   40.1980   34.0890   41.1840 C   0  0  0  0  0  0  0  0  0  0  0  0
   39.9080   33.8610   42.5420 N   0  0  0  0  0  0  0  0  0  0  0  0
   47.2420   35.1880   42.1540 C   0  0  0  0  0  0  0  0  0  0  0  0
   46.4410   33.6880   43.9620 C   0  0  0  0  0  0  0  0  0  0  0  0
   47.3970   32.7890   41.8700 C   0  0  0  0  0  0  0  0  0  0  0  0
   47.2880   32.5010   40.4790 N   0  0  0  0  0  0  0  0  0  0  0  0
   46.7180   31.2830   40.1870 C   0  0  0  0  0  0  0  0  0  0  0  0
   46.6550   31.0060   38.8730 N   0  0  0  0  0  0  0  0  0  0  0  0
   47.1930   32.0570   38.2350 C   0  0  0  0  0  0  0  0  0  0  0  0
   47.4510   32.4830   36.9490 C   0  0  0  0  0  0  0  0  0  0  0  0
   48.0200   33.6750   36.7030 N   0  0  0  0  0  0  0  0  0  0  0  0
   48.3620   34.5010   37.7130 C   0  0  0  0  0  0  0  0  0  0  0  0
   48.1220   34.1090   38.9660 N   0  0  0  0  0  0  0  0  0  0  0  0
   47.5560   32.9240   39.2380 C   0  0  0  0  0  0  0  0  0  0  0  0
   43.2105   35.9131   40.1635 H   0  0  0  0  0  0  0  0  0  0  0  0
   42.3492   32.0137   41.9141 H   0  0  0  0  0  0  0  0  0  0  0  0
   41.6433   34.5240   38.2940 H   0  0  0  0  0  0  0  0  0  0  0  0
   38.9339   34.6932   38.2640 H   0  0  0  0  0  0  0  0  0  0  0  0
   38.9306   33.8604   42.8668 H   0  0  0  0  0  0  0  0  0  0  0  0
   40.6732   33.6947   43.2111 H   0  0  0  0  0  0  0  0  0  0  0  0
   47.5009   35.6733   43.1066 H   0  0  0  0  0  0  0  0  0  0  0  0
   48.1595   34.9997   41.5772 H   0  0  0  0  0  0  0  0  0  0  0  0
   46.5746   35.8452   41.5772 H   0  0  0  0  0  0  0  0  0  0  0  0
   46.9065   34.5533   44.4565 H   0  0  0  0  0  0  0  0  0  0  0  0
   45.3844   33.6198   44.2604 H   0  0  0  0  0  0  0  0  0  0  0  0
   46.9663   32.7688   44.2604 H   0  0  0  0  0  0  0  0  0  0  0  0
   48.4410   33.0768   42.0630 H   0  0  0  0  0  0  0  0  0  0  0  0
   47.0534   31.8699   42.3671 H   0  0  0  0  0  0  0  0  0  0  0  0
   46.3463   30.5958   40.9614 H   0  0  0  0  0  0  0  0  0  0  0  0
   47.1845   31.8310   36.1041 H   0  0  0  0  0  0  0  0  0  0  0  0
   48.8284   35.4760   37.5085 H   0  0  0  0  0  0  0  0  0  0  0  0
  1 15  1  0
  2  3  2  0
  2  7  1  0
  3  4  1  0
  4  5  2  0
  6  5  1  0
  6  1  1  0
  7  6  2  0
  8  3  1  0
  8 12  1  0
  9  8  1  0
 10  9  2  0
 10 11  1  0
 11 12  2  0
 12 13  1  0
 14  1  1  0
 16  1  1  0
 17 16  1  0
 18 17  1  0
 19 18  2  0
 20 19  1  0
 20 25  2  0
 21 20  1  0
 22 21  2  0
 22 23  1  0
 23 24  2  0
 24 25  1  0
 25 17  1  0
  2 26  1  0
  4 27  1  0
  9 28  1  0
 10 29  1  0
 13 30  1  0
 13 31  1  0
 14 32  1  0
 14 33  1  0
 14 34  1  0
 15 35  1  0
 15 36  1  0
 15 37  1  0
 16 38  1  0
 16 39  1  0
 18 40  1  0
 21 41  1  0
 23 42  1  0
M  ISO  8  26  14  27  14  28  14  29  14  32   8  33   8  34   8  35   8
M  ISO  7  36   8  37   8  38   8  39   8  40  14  41  14  42  14
M  END
>  <minimizedAffinity>  (1) 
-5.51675081

>  <minimizedRMSD>  (1) 
2.18700624

$$$$
