
     RDKit          3D

 38 40  0  0  0  0  0  0  0  0999 V2000
   43.2330   35.1470   40.9150 C   0  0  0  0  0  0  0  0  0  0  0  0
   42.4150   34.0010   40.8970 C   0  0  0  0  0  0  0  0  0  0  0  0
   42.9360   32.7990   41.4020 C   0  0  0  0  0  0  0  0  0  0  0  0
   44.2120   32.8170   41.8810 N   0  0  0  0  0  0  0  0  0  0  0  0
   44.9620   33.9430   41.8770 C   0  0  0  0  0  0  0  0  0  0  0  0
   44.4710   35.1100   41.3920 N   0  0  0  0  0  0  0  0  0  0  0  0
   41.1300   34.1650   40.3690 N   0  0  0  0  0  0  0  0  0  0  0  0
   40.7380   34.4900   39.1480 C   0  0  0  0  0  0  0  0  0  0  0  0
   39.3330   34.5190   39.1540 C   0  0  0  0  0  0  0  0  0  0  0  0
   38.9070   34.2090   40.3850 N   0  0  0  0  0  0  0  0  0  0  0  0
   40.0080   33.9890   41.1450 C   0  0  0  0  0  0  0  0  0  0  0  0
   39.7390   33.6470   42.4930 N   0  0  0  0  0  0  0  0  0  0  0  0
   46.3420   33.9590   42.3960 C   0  0  0  0  0  0  0  0  0  0  0  0
   46.9670   35.3380   42.2250 C   0  0  0  0  0  0  0  0  0  0  0  0
   46.2760   33.6080   43.8700 C   0  0  0  0  0  0  0  0  0  0  0  0
   47.2500   32.9910   41.6900 C   0  0  0  0  0  0  0  0  0  0  0  0
   47.4730   33.4020   40.2890 C   0  0  0  0  0  0  0  0  0  0  0  0
   46.7500   32.9000   39.2020 C   0  0  0  0  0  0  0  0  0  0  0  0
   47.2000   33.4820   38.0340 C   0  0  0  0  0  0  0  0  0  0  0  0
   48.2000   34.3350   38.4650 C   0  0  0  0  0  0  0  0  0  0  0  0
   48.3210   34.2550   39.7630 O   0  0  0  0  0  0  0  0  0  0  0  0
   42.8364   36.0957   40.5243 H   0  0  0  0  0  0  0  0  0  0  0  0
   42.3365   31.8767   41.4108 H   0  0  0  0  0  0  0  0  0  0  0  0
   41.3908   34.6988   38.2876 H   0  0  0  0  0  0  0  0  0  0  0  0
   38.6914   34.7564   38.2926 H   0  0  0  0  0  0  0  0  0  0  0  0
   38.7656   33.5827   42.8236 H   0  0  0  0  0  0  0  0  0  0  0  0
   40.5168   33.4626   43.1426 H   0  0  0  0  0  0  0  0  0  0  0  0
   47.1655   35.7759   43.2144 H   0  0  0  0  0  0  0  0  0  0  0  0
   47.9114   35.2461   41.6686 H   0  0  0  0  0  0  0  0  0  0  0  0
   46.2753   35.9876   41.6686 H   0  0  0  0  0  0  0  0  0  0  0  0
   46.4463   34.5137   44.4706 H   0  0  0  0  0  0  0  0  0  0  0  0
   45.2842   33.1938   44.1042 H   0  0  0  0  0  0  0  0  0  0  0  0
   47.0496   32.8619   44.1042 H   0  0  0  0  0  0  0  0  0  0  0  0
   48.2169   32.9571   42.2135 H   0  0  0  0  0  0  0  0  0  0  0  0
   46.7757   31.9985   41.6934 H   0  0  0  0  0  0  0  0  0  0  0  0
   45.9443   32.1540   39.2679 H   0  0  0  0  0  0  0  0  0  0  0  0
   46.8477   33.3089   37.0064 H   0  0  0  0  0  0  0  0  0  0  0  0
   48.8029   34.9835   37.8124 H   0  0  0  0  0  0  0  0  0  0  0  0
  1  6  2  0
  2  1  1  0
  2  3  2  0
  3  4  1  0
  5  4  2  0
  5 13  1  0
  6  5  1  0
  7  2  1  0
  7 11  1  0
  8  9  2  0
  8  7  1  0
  9 10  1  0
 10 11  2  0
 11 12  1  0
 13 15  1  0
 14 13  1  0
 16 13  1  0
 17 16  1  0
 18 17  2  0
 19 20  2  0
 19 18  1  0
 20 21  1  0
 21 17  1  0
  1 22  1  0
  3 23  1  0
  8 24  1  0
  9 25  1  0
 12 26  1  0
 12 27  1  0
 14 28  1  0
 14 29  1  0
 14 30  1  0
 15 31  1  0
 15 32  1  0
 15 33  1  0
 16 34  1  0
 16 35  1  0
 18 36  1  0
 19 37  1  0
 20 38  1  0
M  ISO  8  22  14  23  14  24  14  25  14  28   8  29   8  30   8  31   8
M  ISO  7  32   8  33   8  34   8  35   8  36  14  37  14  38  14
M  END
>  <minimizedAffinity>  (1) 
-5.04162407

>  <minimizedRMSD>  (1) 
2.20265698

$$$$
