
     RDKit          3D

 36 38  0  0  0  0  0  0  0  0999 V2000
   43.3400   35.0310   42.0420 C   0  0  0  0  0  0  0  0  0  0  0  0
   42.7840   33.9170   41.4070 C   0  0  0  0  0  0  0  0  0  0  0  0
   43.2820   32.6500   41.7450 C   0  0  0  0  0  0  0  0  0  0  0  0
   44.2740   32.5760   42.6680 N   0  0  0  0  0  0  0  0  0  0  0  0
   44.7820   33.6660   43.2560 C   0  0  0  0  0  0  0  0  0  0  0  0
   44.3200   34.9070   42.9480 N   0  0  0  0  0  0  0  0  0  0  0  0
   41.7760   34.1590   40.4850 N   0  0  0  0  0  0  0  0  0  0  0  0
   41.8540   34.4830   39.1890 C   0  0  0  0  0  0  0  0  0  0  0  0
   40.5460   34.6190   38.7050 C   0  0  0  0  0  0  0  0  0  0  0  0
   39.7050   34.3730   39.7240 N   0  0  0  0  0  0  0  0  0  0  0  0
   40.4450   34.0900   40.8190 C   0  0  0  0  0  0  0  0  0  0  0  0
   39.7150   33.8040   41.9960 N   0  0  0  0  0  0  0  0  0  0  0  0
   45.8570   33.6150   44.2600 C   0  0  0  0  0  0  0  0  0  0  0  0
   47.2150   33.8850   43.6410 C   0  0  0  0  0  0  0  0  0  0  0  0
   45.5670   34.6780   45.3070 C   0  0  0  0  0  0  0  0  0  0  0  0
   45.9440   32.2730   44.9420 C   0  0  0  0  0  0  0  0  0  0  0  0
   46.1650   32.2880   46.3780 C   0  0  0  0  0  0  0  0  0  0  0  0
   45.3020   32.3830   47.4170 N   0  0  0  0  0  0  0  0  0  0  0  0
   45.9330   32.3580   48.5540 O   0  0  0  0  0  0  0  0  0  0  0  0
   47.2150   32.2490   48.3190 C   0  0  0  0  0  0  0  0  0  0  0  0
   47.3810   32.2050   46.9860 N   0  0  0  0  0  0  0  0  0  0  0  0
   42.9641   36.0341   41.7921 H   0  0  0  0  0  0  0  0  0  0  0  0
   42.8793   31.7409   41.2745 H   0  0  0  0  0  0  0  0  0  0  0  0
   42.7783   34.6182   38.6082 H   0  0  0  0  0  0  0  0  0  0  0  0
   40.2591   34.8802   37.6757 H   0  0  0  0  0  0  0  0  0  0  0  0
   38.6852   33.8192   41.9798 H   0  0  0  0  0  0  0  0  0  0  0  0
   40.2131   33.5805   42.8694 H   0  0  0  0  0  0  0  0  0  0  0  0
   47.9585   34.0328   44.4381 H   0  0  0  0  0  0  0  0  0  0  0  0
   47.5109   33.0281   43.0180 H   0  0  0  0  0  0  0  0  0  0  0  0
   47.1606   34.7899   43.0180 H   0  0  0  0  0  0  0  0  0  0  0  0
   45.6851   34.2452   46.3114 H   0  0  0  0  0  0  0  0  0  0  0  0
   46.2695   35.5154   45.1837 H   0  0  0  0  0  0  0  0  0  0  0  0
   44.5366   35.0426   45.1837 H   0  0  0  0  0  0  0  0  0  0  0  0
   44.9994   31.7413   44.7549 H   0  0  0  0  0  0  0  0  0  0  0  0
   46.8342   31.7873   44.5158 H   0  0  0  0  0  0  0  0  0  0  0  0
   48.0126   32.2019   49.0751 H   0  0  0  0  0  0  0  0  0  0  0  0
  1  6  2  0
  2  3  2  0
  2  1  1  0
  3  4  1  0
  4  5  2  0
  5 13  1  0
  6  5  1  0
  7 11  1  0
  7  2  1  0
  8  7  1  0
  9  8  2  0
  9 10  1  0
 10 11  2  0
 11 12  1  0
 13 16  1  0
 13 15  1  0
 14 13  1  0
 16 17  1  0
 17 21  1  0
 17 18  2  0
 18 19  1  0
 20 19  1  0
 21 20  2  0
  1 22  1  0
  3 23  1  0
  8 24  1  0
  9 25  1  0
 12 26  1  0
 12 27  1  0
 14 28  1  0
 14 29  1  0
 14 30  1  0
 15 31  1  0
 15 32  1  0
 15 33  1  0
 16 34  1  0
 16 35  1  0
 20 36  1  0
M  ISO  8  22  14  23  14  24  14  25  14  28   8  29   8  30   8  31   8
M  ISO  5  32   8  33   8  34   8  35   8  36  14
M  END
>  <minimizedAffinity>  (1) 
-5.07798147

>  <minimizedRMSD>  (1) 
2

$$$$
