
     RDKit          3D

 39 41  0  0  0  0  0  0  0  0999 V2000
   46.3330   33.9690   42.4750 C   0  0  0  0  0  0  0  0  0  0  0  0
   43.2540   35.1170   40.8890 C   0  0  0  0  0  0  0  0  0  0  0  0
   42.4080   34.0130   40.9490 C   0  0  0  0  0  0  0  0  0  0  0  0
   42.8870   32.8310   41.5460 C   0  0  0  0  0  0  0  0  0  0  0  0
   44.1620   32.8370   42.0340 N   0  0  0  0  0  0  0  0  0  0  0  0
   44.9420   33.9470   41.9460 C   0  0  0  0  0  0  0  0  0  0  0  0
   44.4890   35.0830   41.3760 N   0  0  0  0  0  0  0  0  0  0  0  0
   41.1360   34.1620   40.4060 N   0  0  0  0  0  0  0  0  0  0  0  0
   40.7560   34.4720   39.1680 C   0  0  0  0  0  0  0  0  0  0  0  0
   39.3530   34.4960   39.1430 C   0  0  0  0  0  0  0  0  0  0  0  0
   38.9050   34.1920   40.3890 N   0  0  0  0  0  0  0  0  0  0  0  0
   40.0030   33.9910   41.1540 C   0  0  0  0  0  0  0  0  0  0  0  0
   39.7120   33.6600   42.5050 N   0  0  0  0  0  0  0  0  0  0  0  0
   46.9960   35.2970   42.1790 C   0  0  0  0  0  0  0  0  0  0  0  0
   46.2350   33.7350   43.9710 C   0  0  0  0  0  0  0  0  0  0  0  0
   47.1950   32.9060   41.8300 C   0  0  0  0  0  0  0  0  0  0  0  0
   47.2270   33.2050   40.3720 C   0  0  0  0  0  0  0  0  0  0  0  0
   48.2300   34.0470   39.9290 C   0  0  0  0  0  0  0  0  0  0  0  0
   48.2390   34.3090   38.5670 C   0  0  0  0  0  0  0  0  0  0  0  0
   47.3340   33.7890   37.6970 N   0  0  0  0  0  0  0  0  0  0  0  0
   46.3660   32.9670   38.1710 C   0  0  0  0  0  0  0  0  0  0  0  0
   46.3560   32.7150   39.4730 N   0  0  0  0  0  0  0  0  0  0  0  0
   42.8887   36.0448   40.4245 H   0  0  0  0  0  0  0  0  0  0  0  0
   42.2553   31.9333   41.6167 H   0  0  0  0  0  0  0  0  0  0  0  0
   41.4229   34.6734   38.3167 H   0  0  0  0  0  0  0  0  0  0  0  0
   38.7259   34.7215   38.2678 H   0  0  0  0  0  0  0  0  0  0  0  0
   38.7335   33.5943   42.8199 H   0  0  0  0  0  0  0  0  0  0  0  0
   40.4796   33.4857   43.1693 H   0  0  0  0  0  0  0  0  0  0  0  0
   47.2472   35.8002   43.1244 H   0  0  0  0  0  0  0  0  0  0  0  0
   47.9149   35.1268   41.5988 H   0  0  0  0  0  0  0  0  0  0  0  0
   46.3078   35.9292   41.5988 H   0  0  0  0  0  0  0  0  0  0  0  0
   46.6063   34.6216   44.5059 H   0  0  0  0  0  0  0  0  0  0  0  0
   45.1854   33.5538   44.2458 H   0  0  0  0  0  0  0  0  0  0  0  0
   46.8423   32.8599   44.2458 H   0  0  0  0  0  0  0  0  0  0  0  0
   48.2127   32.9398   42.2460 H   0  0  0  0  0  0  0  0  0  0  0  0
   46.7894   31.9010   42.0182 H   0  0  0  0  0  0  0  0  0  0  0  0
   48.9737   34.4816   40.6132 H   0  0  0  0  0  0  0  0  0  0  0  0
   49.0206   34.9733   38.1699 H   0  0  0  0  0  0  0  0  0  0  0  0
   45.6154   32.5246   37.4995 H   0  0  0  0  0  0  0  0  0  0  0  0
  1 15  1  0
  2  3  2  0
  2  7  1  0
  3  4  1  0
  4  5  2  0
  6  5  1  0
  6  1  1  0
  7  6  2  0
  8  3  1  0
  8 12  1  0
  9  8  1  0
 10  9  2  0
 10 11  1  0
 11 12  2  0
 12 13  1  0
 14  1  1  0
 16  1  1  0
 17 16  1  0
 18 17  2  0
 19 18  1  0
 20 21  1  0
 20 19  2  0
 21 22  2  0
 22 17  1  0
  2 23  1  0
  4 24  1  0
  9 25  1  0
 10 26  1  0
 13 27  1  0
 13 28  1  0
 14 29  1  0
 14 30  1  0
 14 31  1  0
 15 32  1  0
 15 33  1  0
 15 34  1  0
 16 35  1  0
 16 36  1  0
 18 37  1  0
 19 38  1  0
 21 39  1  0
M  ISO  8  23  14  24  14  25  14  26  14  29   8  30   8  31   8  32   8
M  ISO  7  33   8  34   8  35   8  36   8  37  14  38  14  39  14
M  END
>  <minimizedAffinity>  (1) 
-5.23613548

>  <minimizedRMSD>  (1) 
2.10482645

$$$$
