
     RDKit          3D

 38 40  0  0  0  0  0  0  0  0999 V2000
   43.2970   35.1530   40.9410 C   0  0  0  0  0  0  0  0  0  0  0  0
   42.4830   34.0240   40.9220 C   0  0  0  0  0  0  0  0  0  0  0  0
   43.0160   32.8170   41.3950 C   0  0  0  0  0  0  0  0  0  0  0  0
   44.3010   32.8060   41.8520 N   0  0  0  0  0  0  0  0  0  0  0  0
   45.0560   33.9380   41.8500 C   0  0  0  0  0  0  0  0  0  0  0  0
   44.5500   35.1150   41.3920 N   0  0  0  0  0  0  0  0  0  0  0  0
   41.1970   34.1880   40.4290 N   0  0  0  0  0  0  0  0  0  0  0  0
   40.7870   34.5020   39.1920 C   0  0  0  0  0  0  0  0  0  0  0  0
   39.3890   34.5480   39.2010 C   0  0  0  0  0  0  0  0  0  0  0  0
   38.9790   34.2560   40.4620 N   0  0  0  0  0  0  0  0  0  0  0  0
   40.0880   34.0380   41.2030 C   0  0  0  0  0  0  0  0  0  0  0  0
   39.8420   33.7170   42.5580 N   0  0  0  0  0  0  0  0  0  0  0  0
   46.4470   33.9800   42.3340 C   0  0  0  0  0  0  0  0  0  0  0  0
   47.0370   35.3600   42.2110 C   0  0  0  0  0  0  0  0  0  0  0  0
   46.4330   33.5380   43.7890 C   0  0  0  0  0  0  0  0  0  0  0  0
   47.3440   33.0470   41.5470 C   0  0  0  0  0  0  0  0  0  0  0  0
   47.6070   33.4980   40.1840 C   0  0  0  0  0  0  0  0  0  0  0  0
   46.8090   32.9890   39.1510 C   0  0  0  0  0  0  0  0  0  0  0  0
   47.2340   33.5440   38.0060 N   0  0  0  0  0  0  0  0  0  0  0  0
   48.2600   34.3800   38.2410 C   0  0  0  0  0  0  0  0  0  0  0  0
   48.4590   34.3290   39.5600 N   0  0  0  0  0  0  0  0  0  0  0  0
   42.8927   36.1071   40.5718 H   0  0  0  0  0  0  0  0  0  0  0  0
   42.4109   31.8984   41.3976 H   0  0  0  0  0  0  0  0  0  0  0  0
   41.4353   34.6902   38.3235 H   0  0  0  0  0  0  0  0  0  0  0  0
   38.7403   34.7786   38.3431 H   0  0  0  0  0  0  0  0  0  0  0  0
   38.8745   33.6653   42.9076 H   0  0  0  0  0  0  0  0  0  0  0  0
   40.6303   33.5349   43.1954 H   0  0  0  0  0  0  0  0  0  0  0  0
   47.2140   35.7739   43.2147 H   0  0  0  0  0  0  0  0  0  0  0  0
   47.9898   35.3040   41.6642 H   0  0  0  0  0  0  0  0  0  0  0  0
   46.3382   36.0102   41.6642 H   0  0  0  0  0  0  0  0  0  0  0  0
   46.4610   34.4232   44.4414 H   0  0  0  0  0  0  0  0  0  0  0  0
   45.5162   32.9640   43.9890 H   0  0  0  0  0  0  0  0  0  0  0  0
   47.3116   32.9071   43.9890 H   0  0  0  0  0  0  0  0  0  0  0  0
   48.3047   32.9606   42.0758 H   0  0  0  0  0  0  0  0  0  0  0  0
   46.8188   32.0835   41.4714 H   0  0  0  0  0  0  0  0  0  0  0  0
   45.9858   32.2674   39.2589 H   0  0  0  0  0  0  0  0  0  0  0  0
   48.8164   34.9780   37.5043 H   0  0  0  0  0  0  0  0  0  0  0  0
   49.1880   34.8691   40.0476 H   0  0  0  0  0  0  0  0  0  0  0  0
  1  6  2  0
  2  1  1  0
  2  3  2  0
  3  4  1  0
  5  4  2  0
  5 13  1  0
  6  5  1  0
  7  2  1  0
  7 11  1  0
  8  9  2  0
  8  7  1  0
  9 10  1  0
 10 11  2  0
 11 12  1  0
 13 15  1  0
 14 13  1  0
 16 13  1  0
 17 16  1  0
 18 17  2  0
 19 20  2  0
 19 18  1  0
 20 21  1  0
 21 17  1  0
  1 22  1  0
  3 23  1  0
  8 24  1  0
  9 25  1  0
 12 26  1  0
 12 27  1  0
 14 28  1  0
 14 29  1  0
 14 30  1  0
 15 31  1  0
 15 32  1  0
 15 33  1  0
 16 34  1  0
 16 35  1  0
 18 36  1  0
 20 37  1  0
 21 38  1  0
M  ISO  8  22  14  23  14  24  14  25  14  28   8  29   8  30   8  31   8
M  ISO  7  32   8  33   8  34   8  35   8  36  14  37  14  38   9
M  END
>  <minimizedAffinity>  (1) 
-5.20499802

>  <minimizedRMSD>  (1) 
2.27743053

$$$$
