
     RDKit          3D

 44 46  0  0  0  0  0  0  0  0999 V2000
   43.4770   35.1760   42.2100 C   0  0  0  0  0  0  0  0  0  0  0  0
   42.8550   34.1540   41.4790 C   0  0  0  0  0  0  0  0  0  0  0  0
   43.2550   32.8290   41.7070 C   0  0  0  0  0  0  0  0  0  0  0  0
   44.2330   32.6010   42.6320 N   0  0  0  0  0  0  0  0  0  0  0  0
   44.8010   33.6160   43.3080 C   0  0  0  0  0  0  0  0  0  0  0  0
   44.4240   34.9030   43.0980 N   0  0  0  0  0  0  0  0  0  0  0  0
   41.8720   34.5590   40.5740 N   0  0  0  0  0  0  0  0  0  0  0  0
   41.9680   35.0650   39.3550 C   0  0  0  0  0  0  0  0  0  0  0  0
   40.6720   35.3010   38.8770 C   0  0  0  0  0  0  0  0  0  0  0  0
   39.8040   34.9240   39.8430 N   0  0  0  0  0  0  0  0  0  0  0  0
   40.5340   34.4700   40.8790 C   0  0  0  0  0  0  0  0  0  0  0  0
   39.7650   34.0260   41.9970 N   0  0  0  0  0  0  0  0  0  0  0  0
   45.8750   33.3960   44.3270 C   0  0  0  0  0  0  0  0  0  0  0  0
   47.2360   33.7640   43.7430 C   0  0  0  0  0  0  0  0  0  0  0  0
   45.5560   34.3160   45.4870 C   0  0  0  0  0  0  0  0  0  0  0  0
   45.9530   31.9640   44.7320 C   0  0  0  0  0  0  0  0  0  0  0  0
   47.1180   31.5150   45.5070 C   0  0  0  0  0  0  0  0  0  0  0  0
   47.0350   29.9660   45.5440 C   0  0  0  0  0  0  0  0  0  0  0  0
   45.8800   29.7860   46.5290 C   0  0  0  0  0  0  0  0  0  0  0  0
   45.9600   30.9490   47.4710 C   0  0  0  0  0  0  0  0  0  0  0  0
   47.1340   31.7730   46.9720 C   0  0  0  0  0  0  0  0  0  0  0  0
   43.1750   36.2207   42.0446 H   0  0  0  0  0  0  0  0  0  0  0  0
   42.7934   31.9965   41.1557 H   0  0  0  0  0  0  0  0  0  0  0  0
   42.9029   35.2656   38.8112 H   0  0  0  0  0  0  0  0  0  0  0  0
   40.4084   35.7176   37.8937 H   0  0  0  0  0  0  0  0  0  0  0  0
   38.7364   34.0689   41.9642 H   0  0  0  0  0  0  0  0  0  0  0  0
   40.2388   33.6627   42.8363 H   0  0  0  0  0  0  0  0  0  0  0  0
   47.9461   33.9560   44.5608 H   0  0  0  0  0  0  0  0  0  0  0  0
   47.6059   32.9336   43.1236 H   0  0  0  0  0  0  0  0  0  0  0  0
   47.1370   34.6676   43.1236 H   0  0  0  0  0  0  0  0  0  0  0  0
   45.7390   33.7882   46.4346 H   0  0  0  0  0  0  0  0  0  0  0  0
   46.1972   35.2082   45.4344 H   0  0  0  0  0  0  0  0  0  0  0  0
   44.5001   34.6197   45.4344 H   0  0  0  0  0  0  0  0  0  0  0  0
   45.0592   31.7486   45.3359 H   0  0  0  0  0  0  0  0  0  0  0  0
   46.0384   31.4201   43.7797 H   0  0  0  0  0  0  0  0  0  0  0  0
   47.9572   32.0366   45.0236 H   0  0  0  0  0  0  0  0  0  0  0  0
   46.7977   29.5461   44.5554 H   0  0  0  0  0  0  0  0  0  0  0  0
   47.9689   29.4584   45.8271 H   0  0  0  0  0  0  0  0  0  0  0  0
   44.9179   29.7907   45.9958 H   0  0  0  0  0  0  0  0  0  0  0  0
   45.9501   28.8272   47.0635 H   0  0  0  0  0  0  0  0  0  0  0  0
   45.0317   31.5382   47.4388 H   0  0  0  0  0  0  0  0  0  0  0  0
   46.0916   30.6290   48.5152 H   0  0  0  0  0  0  0  0  0  0  0  0
   48.0774   31.4330   47.4240 H   0  0  0  0  0  0  0  0  0  0  0  0
   47.0571   32.8402   47.2273 H   0  0  0  0  0  0  0  0  0  0  0  0
  1  6  2  0
  2  3  2  0
  2  1  1  0
  3  4  1  0
  4  5  2  0
  5 13  1  0
  6  5  1  0
  7 11  1  0
  7  2  1  0
  8  7  1  0
  9  8  2  0
  9 10  1  0
 10 11  2  0
 11 12  1  0
 13 16  1  0
 13 15  1  0
 14 13  1  0
 16 17  1  0
 17 18  1  0
 17 21  1  0
 18 19  1  0
 19 20  1  0
 21 20  1  0
  1 22  1  0
  3 23  1  0
  8 24  1  0
  9 25  1  0
 12 26  1  0
 12 27  1  0
 14 28  1  0
 14 29  1  0
 14 30  1  0
 15 31  1  0
 15 32  1  0
 15 33  1  0
 16 34  1  0
 16 35  1  0
 17 36  1  0
 18 37  1  0
 18 38  1  0
 19 39  1  0
 19 40  1  0
 20 41  1  0
 20 42  1  0
 21 43  1  0
 21 44  1  0
M  ISO  8  22  14  23  14  24  14  25  14  28   8  29   8  30   8  31   8
M  ISO  8  32   8  33   8  34   8  35   8  36  13  37  13  38  13  39  13
M  ISO  5  40  13  41  13  42  13  43  13  44  13
M  END
>  <minimizedAffinity>  (1) 
-5.03717899

>  <minimizedRMSD>  (1) 
0.721937478

$$$$
