
     RDKit          3D

 33 34  0  0  0  0  0  0  0  0999 V2000
   43.5770   35.1910   42.1610 C   0  0  0  0  0  0  0  0  0  0  0  0
   42.8470   34.1780   41.5240 C   0  0  0  0  0  0  0  0  0  0  0  0
   43.2550   32.8460   41.7070 C   0  0  0  0  0  0  0  0  0  0  0  0
   44.3440   32.6150   42.5000 N   0  0  0  0  0  0  0  0  0  0  0  0
   45.0110   33.6340   43.0910 C   0  0  0  0  0  0  0  0  0  0  0  0
   44.6300   34.9120   42.9220 N   0  0  0  0  0  0  0  0  0  0  0  0
   41.7620   34.5750   40.7480 N   0  0  0  0  0  0  0  0  0  0  0  0
   41.7080   35.1160   39.5410 C   0  0  0  0  0  0  0  0  0  0  0  0
   40.3660   35.3260   39.2090 C   0  0  0  0  0  0  0  0  0  0  0  0
   39.6210   34.9020   40.2380 N   0  0  0  0  0  0  0  0  0  0  0  0
   40.4670   34.4410   41.1820 C   0  0  0  0  0  0  0  0  0  0  0  0
   39.8360   33.9450   42.3560 N   0  0  0  0  0  0  0  0  0  0  0  0
   46.1870   33.3870   43.9470 C   0  0  0  0  0  0  0  0  0  0  0  0
   47.3980   34.1440   43.4270 C   0  0  0  0  0  0  0  0  0  0  0  0
   45.8460   33.8720   45.3430 C   0  0  0  0  0  0  0  0  0  0  0  0
   46.5810   31.9410   44.0250 C   0  0  0  0  0  0  0  0  0  0  0  0
   47.2650   31.4420   42.8910 N   0  0  0  0  0  0  0  0  0  0  0  0
   43.2716   36.2394   42.0281 H   0  0  0  0  0  0  0  0  0  0  0  0
   42.7154   32.0159   41.2276 H   0  0  0  0  0  0  0  0  0  0  0  0
   42.5729   35.3593   38.9063 H   0  0  0  0  0  0  0  0  0  0  0  0
   39.9899   35.7612   38.2714 H   0  0  0  0  0  0  0  0  0  0  0  0
   38.8090   33.9581   42.4334 H   0  0  0  0  0  0  0  0  0  0  0  0
   40.4060   33.5727   43.1289 H   0  0  0  0  0  0  0  0  0  0  0  0
   47.9910   34.5147   44.2761 H   0  0  0  0  0  0  0  0  0  0  0  0
   48.0158   33.4710   42.8143 H   0  0  0  0  0  0  0  0  0  0  0  0
   47.0636   34.9942   42.8143 H   0  0  0  0  0  0  0  0  0  0  0  0
   46.3126   33.2084   46.0859 H   0  0  0  0  0  0  0  0  0  0  0  0
   46.2238   34.8963   45.4778 H   0  0  0  0  0  0  0  0  0  0  0  0
   44.7543   33.8631   45.4778 H   0  0  0  0  0  0  0  0  0  0  0  0
   47.2345   31.8129   44.9005 H   0  0  0  0  0  0  0  0  0  0  0  0
   45.6423   31.3714   44.0911 H   0  0  0  0  0  0  0  0  0  0  0  0
   48.0596   30.8623   43.1969 H   0  0  0  0  0  0  0  0  0  0  0  0
   46.6210   30.8708   42.3254 H   0  0  0  0  0  0  0  0  0  0  0  0
  1  6  2  0
  2  3  2  0
  2  1  1  0
  3  4  1  0
  4  5  2  0
  5 13  1  0
  6  5  1  0
  7 11  1  0
  7  2  1  0
  8  7  1  0
  9  8  2  0
  9 10  1  0
 10 11  2  0
 11 12  1  0
 13 16  1  0
 13 15  1  0
 14 13  1  0
 17 16  1  0
  1 18  1  0
  3 19  1  0
  8 20  1  0
  9 21  1  0
 12 22  1  0
 12 23  1  0
 14 24  1  0
 14 25  1  0
 14 26  1  0
 15 27  1  0
 15 28  1  0
 15 29  1  0
 16 30  1  0
 16 31  1  0
 17 32  1  0
 17 33  1  0
M  ISO  8  18  14  19  14  20  14  21  14  24   8  25   8  26   8  27   8
M  ISO  6  28   8  29   8  30   8  31   8  32   5  33   5
M  END
>  <minimizedAffinity>  (1) 
-4.49891758

>  <minimizedRMSD>  (1) 
0.13216953

$$$$
