
     RDKit          3D

 38 40  0  0  0  0  0  0  0  0999 V2000
   43.2260   35.1140   41.7010 C   0  0  0  0  0  0  0  0  0  0  0  0
   42.5020   33.9750   41.2830 C   0  0  0  0  0  0  0  0  0  0  0  0
   43.0110   32.7090   41.6060 C   0  0  0  0  0  0  0  0  0  0  0  0
   44.1800   32.6440   42.3080 N   0  0  0  0  0  0  0  0  0  0  0  0
   44.8320   33.7780   42.6840 C   0  0  0  0  0  0  0  0  0  0  0  0
   44.3630   35.0000   42.3850 N   0  0  0  0  0  0  0  0  0  0  0  0
   41.3310   34.2070   40.5780 N   0  0  0  0  0  0  0  0  0  0  0  0
   41.1590   34.6220   39.3170 C   0  0  0  0  0  0  0  0  0  0  0  0
   39.7680   34.6950   39.0940 C   0  0  0  0  0  0  0  0  0  0  0  0
   39.1360   34.3200   40.2360 N   0  0  0  0  0  0  0  0  0  0  0  0
   40.0910   34.0240   41.1370 C   0  0  0  0  0  0  0  0  0  0  0  0
   39.6030   33.6110   42.3930 N   0  0  0  0  0  0  0  0  0  0  0  0
   46.0980   33.7250   43.4480 C   0  0  0  0  0  0  0  0  0  0  0  0
   47.0780   34.7780   42.9550 C   0  0  0  0  0  0  0  0  0  0  0  0
   45.7560   33.9550   44.9080 C   0  0  0  0  0  0  0  0  0  0  0  0
   46.8020   32.3990   43.3330 C   0  0  0  0  0  0  0  0  0  0  0  0
   47.8560   32.3930   42.3740 C   0  0  0  0  0  0  0  0  0  0  0  0
   49.2300   32.5890   42.4960 C   0  0  0  0  0  0  0  0  0  0  0  0
   50.0020   32.5230   41.3760 C   0  0  0  0  0  0  0  0  0  0  0  0
   49.3270   32.2430   40.0730 C   0  0  0  0  0  0  0  0  0  0  0  0
   47.5370   32.1020   40.6780 S   0  0  0  0  0  0  0  0  0  0  0  0
   42.8426   36.1156   41.4564 H   0  0  0  0  0  0  0  0  0  0  0  0
   42.4828   31.7933   41.3020 H   0  0  0  0  0  0  0  0  0  0  0  0
   41.9516   34.8607   38.5925 H   0  0  0  0  0  0  0  0  0  0  0  0
   39.2798   35.0024   38.1574 H   0  0  0  0  0  0  0  0  0  0  0  0
   38.5879   33.5572   42.5588 H   0  0  0  0  0  0  0  0  0  0  0  0
   40.2615   33.3629   43.1452 H   0  0  0  0  0  0  0  0  0  0  0  0
   47.5434   35.2780   43.8172 H   0  0  0  0  0  0  0  0  0  0  0  0
   47.8572   34.2970   42.3456 H   0  0  0  0  0  0  0  0  0  0  0  0
   46.5423   35.5207   42.3456 H   0  0  0  0  0  0  0  0  0  0  0  0
   46.5016   33.4536   45.5426 H   0  0  0  0  0  0  0  0  0  0  0  0
   45.7604   35.0344   45.1200 H   0  0  0  0  0  0  0  0  0  0  0  0
   44.7580   33.5438   45.1200 H   0  0  0  0  0  0  0  0  0  0  0  0
   47.2249   32.1436   44.3158 H   0  0  0  0  0  0  0  0  0  0  0  0
   46.0548   31.6658   42.9951 H   0  0  0  0  0  0  0  0  0  0  0  0
   49.6824   32.7931   43.4777 H   0  0  0  0  0  0  0  0  0  0  0  0
   51.0906   32.6715   41.4292 H   0  0  0  0  0  0  0  0  0  0  0  0
   49.7459   32.1470   39.0604 H   0  0  0  0  0  0  0  0  0  0  0  0
  1  6  2  0
  2  3  2  0
  2  1  1  0
  3  4  1  0
  4  5  2  0
  5 13  1  0
  6  5  1  0
  7 11  1  0
  7  2  1  0
  8  7  1  0
  9  8  2  0
  9 10  1  0
 10 11  2  0
 11 12  1  0
 13 15  1  0
 14 13  1  0
 16 13  1  0
 17 18  2  0
 17 16  1  0
 19 18  1  0
 20 21  1  0
 20 19  2  0
 21 17  1  0
  1 22  1  0
  3 23  1  0
  8 24  1  0
  9 25  1  0
 12 26  1  0
 12 27  1  0
 14 28  1  0
 14 29  1  0
 14 30  1  0
 15 31  1  0
 15 32  1  0
 15 33  1  0
 16 34  1  0
 16 35  1  0
 18 36  1  0
 19 37  1  0
 20 38  1  0
M  ISO  8  22  14  23  14  24  14  25  14  28   8  29   8  30   8  31   8
M  ISO  7  32   8  33   8  34   8  35   8  36  14  37  14  38  14
M  END
>  <minimizedAffinity>  (1) 
-4.97225285

>  <minimizedRMSD>  (1) 
1.32036567

$$$$
