
     RDKit          3D

 38 40  0  0  0  0  0  0  0  0999 V2000
   46.1010   33.7360   43.4460 C   0  0  0  0  0  0  0  0  0  0  0  0
   43.2090   35.1130   41.7150 C   0  0  0  0  0  0  0  0  0  0  0  0
   42.5050   33.9850   41.2790 C   0  0  0  0  0  0  0  0  0  0  0  0
   43.0340   32.7230   41.5850 C   0  0  0  0  0  0  0  0  0  0  0  0
   44.1970   32.6600   42.2870 N   0  0  0  0  0  0  0  0  0  0  0  0
   44.8410   33.7670   42.6860 C   0  0  0  0  0  0  0  0  0  0  0  0
   44.3460   35.0000   42.3990 N   0  0  0  0  0  0  0  0  0  0  0  0
   41.3340   34.2150   40.5750 N   0  0  0  0  0  0  0  0  0  0  0  0
   41.1490   34.6270   39.3210 C   0  0  0  0  0  0  0  0  0  0  0  0
   39.7680   34.7010   39.0900 C   0  0  0  0  0  0  0  0  0  0  0  0
   39.1400   34.3230   40.2240 N   0  0  0  0  0  0  0  0  0  0  0  0
   40.0990   34.0270   41.1300 C   0  0  0  0  0  0  0  0  0  0  0  0
   39.6060   33.6070   42.4010 N   0  0  0  0  0  0  0  0  0  0  0  0
   47.0640   34.8050   42.9730 C   0  0  0  0  0  0  0  0  0  0  0  0
   45.7550   33.9730   44.9070 C   0  0  0  0  0  0  0  0  0  0  0  0
   46.8080   32.4020   43.3170 C   0  0  0  0  0  0  0  0  0  0  0  0
   47.8980   32.4240   42.3880 N   0  0  0  0  0  0  0  0  0  0  0  0
   49.1950   32.6500   42.5200 N   0  0  0  0  0  0  0  0  0  0  0  0
   49.8550   32.5710   41.3740 C   0  0  0  0  0  0  0  0  0  0  0  0
   48.9350   32.2670   40.3810 C   0  0  0  0  0  0  0  0  0  0  0  0
   47.7330   32.1870   41.0560 C   0  0  0  0  0  0  0  0  0  0  0  0
   42.8148   36.1145   41.4879 H   0  0  0  0  0  0  0  0  0  0  0  0
   42.5200   31.8048   41.2645 H   0  0  0  0  0  0  0  0  0  0  0  0
   41.9402   34.8667   38.5953 H   0  0  0  0  0  0  0  0  0  0  0  0
   39.2830   35.0114   38.1528 H   0  0  0  0  0  0  0  0  0  0  0  0
   38.5910   33.5482   42.5659 H   0  0  0  0  0  0  0  0  0  0  0  0
   40.2650   33.3625   43.1538 H   0  0  0  0  0  0  0  0  0  0  0  0
   47.5139   35.3044   43.8437 H   0  0  0  0  0  0  0  0  0  0  0  0
   47.8561   34.3423   42.3659 H   0  0  0  0  0  0  0  0  0  0  0  0
   46.5214   35.5446   42.3659 H   0  0  0  0  0  0  0  0  0  0  0  0
   46.4939   33.4668   45.5456 H   0  0  0  0  0  0  0  0  0  0  0  0
   45.7679   35.0528   45.1164 H   0  0  0  0  0  0  0  0  0  0  0  0
   44.7528   33.5708   45.1164 H   0  0  0  0  0  0  0  0  0  0  0  0
   47.1977   32.1168   44.3053 H   0  0  0  0  0  0  0  0  0  0  0  0
   46.0713   31.6792   42.9365 H   0  0  0  0  0  0  0  0  0  0  0  0
   50.9360   32.7195   41.2350 H   0  0  0  0  0  0  0  0  0  0  0  0
   49.1200   32.1232   39.3062 H   0  0  0  0  0  0  0  0  0  0  0  0
   46.7673   31.9612   40.5802 H   0  0  0  0  0  0  0  0  0  0  0  0
  1 15  1  0
  2  7  2  0
  3  4  2  0
  3  2  1  0
  4  5  1  0
  5  6  2  0
  6  1  1  0
  7  6  1  0
  8 12  1  0
  8  3  1  0
  9  8  1  0
 10  9  2  0
 10 11  1  0
 11 12  2  0
 12 13  1  0
 14  1  1  0
 16  1  1  0
 17 18  1  0
 17 16  1  0
 19 18  2  0
 20 21  2  0
 20 19  1  0
 21 17  1  0
  2 22  1  0
  4 23  1  0
  9 24  1  0
 10 25  1  0
 13 26  1  0
 13 27  1  0
 14 28  1  0
 14 29  1  0
 14 30  1  0
 15 31  1  0
 15 32  1  0
 15 33  1  0
 16 34  1  0
 16 35  1  0
 19 36  1  0
 20 37  1  0
 21 38  1  0
M  ISO  8  22  14  23  14  24  14  25  14  28   8  29   8  30   8  31   8
M  ISO  7  32   8  33   8  34   8  35   8  36  14  37  14  38  14
M  END
>  <minimizedAffinity>  (1) 
-4.86310434

>  <minimizedRMSD>  (1) 
1.32250869

$$$$
