
     RDKit          3D

 21 21  0  0  0  0  0  0  0  0999 V2000
   45.0730   35.6380   43.7960 C   0  0  0  0  0  0  0  0  0  0  0  0
   45.9090   34.5270   43.5140 C   0  0  0  0  0  0  0  0  0  0  0  0
   46.0980   33.6190   44.5530 C   0  0  0  0  0  0  0  0  0  0  0  0
   45.4800   33.8550   45.7420 N   0  0  0  0  0  0  0  0  0  0  0  0
   44.6990   34.9090   45.9780 C   0  0  0  0  0  0  0  0  0  0  0  0
   44.4950   35.8080   44.9930 N   0  0  0  0  0  0  0  0  0  0  0  0
   44.8470   36.5910   42.7750 N   0  0  0  0  0  0  0  0  0  0  0  0
   46.5510   34.3210   42.2100 C   0  0  0  0  0  0  0  0  0  0  0  0
   45.5700   34.3940   41.0960 C   0  0  0  0  0  0  0  0  0  0  0  0
   47.6720   35.3210   42.0610 C   0  0  0  0  0  0  0  0  0  0  0  0
   46.7326   32.7311   44.4155 H   0  0  0  0  0  0  0  0  0  0  0  0
   44.2272   35.0440   46.9625 H   0  0  0  0  0  0  0  0  0  0  0  0
   45.2863   36.4701   41.8513 H   0  0  0  0  0  0  0  0  0  0  0  0
   44.2432   37.4057   42.9554 H   0  0  0  0  0  0  0  0  0  0  0  0
   46.9736   33.3065   42.1624 H   0  0  0  0  0  0  0  0  0  0  0  0
   44.5527   34.4697   41.5076 H   0  0  0  0  0  0  0  0  0  0  0  0
   45.7822   35.2788   40.4779 H   0  0  0  0  0  0  0  0  0  0  0  0
   45.6489   33.4875   40.4779 H   0  0  0  0  0  0  0  0  0  0  0  0
   48.0207   35.6320   43.0568 H   0  0  0  0  0  0  0  0  0  0  0  0
   48.5040   34.8596   41.5088 H   0  0  0  0  0  0  0  0  0  0  0  0
   47.3082   36.2000   41.5088 H   0  0  0  0  0  0  0  0  0  0  0  0
  1  6  2  0
  2  1  1  0
  2  3  2  0
  3  4  1  0
  4  5  2  0
  6  5  1  0
  7  1  1  0
  8  2  1  0
  9  8  1  0
 10  8  1  0
  3 11  1  0
  5 12  1  0
  7 13  1  0
  7 14  1  0
  8 15  1  0
  9 16  1  0
  9 17  1  0
  9 18  1  0
 10 19  1  0
 10 20  1  0
 10 21  1  0
M  ISO  8  11  14  12  14  15   8  16   8  17   8  18   8  19   8  20   8
M  ISO  1  21   8
M  END
>  <minimizedAffinity>  (1) 
-3.76088214

>  <minimizedRMSD>  (1) 
0.752113461

$$$$
