
     RDKit          3D

 31 32  0  0  1  0  0  0  0  0999 V2000
   46.1800   32.1730   47.2770 C   0  0  0  0  0  0  0  0  0  0  0  0
   46.0920   30.8380   46.9100 C   0  0  0  0  0  0  0  0  0  0  0  0
   45.5460   29.8340   47.8160 C   0  0  0  0  0  0  0  0  0  0  0  0
   45.1300   30.2600   49.0240 N   0  0  0  0  0  0  0  0  0  0  0  0
   45.2220   31.5820   49.3680 C   0  0  0  0  0  0  0  0  0  0  0  0
   45.7290   32.5060   48.5190 N   0  0  0  0  0  0  0  0  0  0  0  0
   46.7490   33.2070   46.5570 N   0  0  0  0  0  0  0  0  0  0  0  0
   46.3240   33.5830   45.2490 C   0  0  0  0  0  0  0  0  0  0  0  0
   45.1040   33.6270   44.9310 N   0  0  0  0  0  0  0  0  0  0  0  0
   47.1790   33.9640   44.1420 N   0  0  0  0  0  0  0  0  0  0  0  0
   44.3340   33.4090   45.5460 H   0  0  0  0  0  0  0  0  0  0  0  0
   46.6840   30.4910   45.5890 C   0  0  2  0  0  0  0  0  0  0  0  0
   45.7200   29.4440   44.9190 C   0  0  0  0  0  0  0  0  0  0  0  0
   46.2650   28.6330   43.8900 C   0  0  0  0  0  0  0  0  0  0  0  0
   47.6760   28.7530   43.5370 C   0  0  0  0  0  0  0  0  0  0  0  0
   48.5190   29.6970   44.2670 C   0  0  0  0  0  0  0  0  0  0  0  0
   48.0230   29.9330   45.6450 C   0  0  0  0  0  0  0  0  0  0  0  0
   45.4770   28.7753   47.5255 H   0  0  0  0  0  0  0  0  0  0  0  0
   44.8744   31.9018   50.3614 H   0  0  0  0  0  0  0  0  0  0  0  0
   47.5215   33.7341   46.9887 H   0  0  0  0  0  0  0  0  0  0  0  0
   46.7637   34.2187   43.2345 H   0  0  0  0  0  0  0  0  0  0  0  0
   48.2017   33.9800   44.2630 H   0  0  0  0  0  0  0  0  0  0  0  0
   46.7848   31.4252   45.0171 H   0  0  0  0  0  0  0  0  0  0  0  0
   44.6707   29.3450   45.2339 H   0  0  0  0  0  0  0  0  0  0  0  0
   45.6242   27.9141   43.3585 H   0  0  0  0  0  0  0  0  0  0  0  0
   48.1245   27.7568   43.6654 H   0  0  0  0  0  0  0  0  0  0  0  0
   47.6547   29.1598   42.5152 H   0  0  0  0  0  0  0  0  0  0  0  0
   49.5405   29.2926   44.3214 H   0  0  0  0  0  0  0  0  0  0  0  0
   48.4996   30.6565   43.7295 H   0  0  0  0  0  0  0  0  0  0  0  0
   48.6925   30.6377   46.1599 H   0  0  0  0  0  0  0  0  0  0  0  0
   48.0003   28.9803   46.1944 H   0  0  0  0  0  0  0  0  0  0  0  0
  1  6  2  0
  2  1  1  0
  2  3  2  0
  3  4  1  0
  4  5  2  0
  6  5  1  0
  7  1  1  0
  8  7  1  0
  9  8  2  0
  9 11  1  0
 10  8  1  0
 12 17  1  0
 12  2  1  0
 13 12  1  0
 14 13  2  0
 15 14  1  0
 15 16  1  0
 16 17  1  0
  3 18  1  0
  5 19  1  0
  7 20  1  0
 10 21  1  0
 10 22  1  0
 12 23  1  6
 13 24  1  0
 14 25  1  0
 15 26  1  0
 15 27  1  0
 16 28  1  0
 16 29  1  0
 17 30  1  0
 17 31  1  0
M  ISO  8  18  14  19  14  23  13  24  13  25  13  26  13  27  13  28  13
M  ISO  3  29  13  30  13  31  13
M  END
>  <minimizedAffinity>  (1) 
-4.5918808

>  <minimizedRMSD>  (1) 
4.17734575

$$$$
