
     RDKit          3D

 31 33  0  0  1  0  0  0  0  0999 V2000
   47.1680   32.7210   44.3890 C   0  0  2  0  0  0  0  0  0  0  0  0
   46.9170   31.6030   43.3120 C   0  0  0  0  0  0  0  0  0  0  0  0
   47.0410   30.2410   43.7310 C   0  0  0  0  0  0  0  0  0  0  0  0
   47.3550   29.9390   45.1220 C   0  0  0  0  0  0  0  0  0  0  0  0
   47.6360   31.0490   46.0370 C   0  0  0  0  0  0  0  0  0  0  0  0
   46.8020   32.2350   45.7070 C   0  0  0  0  0  0  0  0  0  0  0  0
   47.0210   34.7590   43.0230 C   0  0  0  0  0  0  0  0  0  0  0  0
   46.3650   33.9060   43.9430 C   0  0  0  0  0  0  0  0  0  0  0  0
   45.0550   34.2550   44.4780 C   0  0  0  0  0  0  0  0  0  0  0  0
   44.5120   35.4140   44.0550 N   0  0  0  0  0  0  0  0  0  0  0  0
   45.1810   36.2050   43.1640 C   0  0  0  0  0  0  0  0  0  0  0  0
   46.4090   35.8850   42.6580 N   0  0  0  0  0  0  0  0  0  0  0  0
   48.3360   34.6010   42.3620 C   0  0  0  0  0  0  0  0  0  0  0  0
   48.8910   35.5830   41.4490 C   0  0  0  0  0  0  0  0  0  0  0  0
   48.2590   34.4410   40.7950 C   0  0  0  0  0  0  0  0  0  0  0  0
   48.2270   33.0065   44.4722 H   0  0  0  0  0  0  0  0  0  0  0  0
   46.6557   31.8589   42.2746 H   0  0  0  0  0  0  0  0  0  0  0  0
   46.9000   29.4252   43.0068 H   0  0  0  0  0  0  0  0  0  0  0  0
   46.4974   29.3879   45.5353 H   0  0  0  0  0  0  0  0  0  0  0  0
   48.3066   29.3899   45.0679 H   0  0  0  0  0  0  0  0  0  0  0  0
   47.4172   30.7306   47.0669 H   0  0  0  0  0  0  0  0  0  0  0  0
   48.6957   31.3265   45.9367 H   0  0  0  0  0  0  0  0  0  0  0  0
   46.9746   33.0255   46.4522 H   0  0  0  0  0  0  0  0  0  0  0  0
   45.7384   31.9544   45.7164 H   0  0  0  0  0  0  0  0  0  0  0  0
   44.5335   33.6027   45.1939 H   0  0  0  0  0  0  0  0  0  0  0  0
   44.7086   37.1436   42.8388 H   0  0  0  0  0  0  0  0  0  0  0  0
   48.7516   34.0901   43.2431 H   0  0  0  0  0  0  0  0  0  0  0  0
   48.4147   36.5717   41.3744 H   0  0  0  0  0  0  0  0  0  0  0  0
   49.8912   36.0318   41.3582 H   0  0  0  0  0  0  0  0  0  0  0  0
   47.3007   34.5594   40.2681 H   0  0  0  0  0  0  0  0  0  0  0  0
   48.5574   33.6815   40.0574 H   0  0  0  0  0  0  0  0  0  0  0  0
  1  6  1  0
  2  3  2  0
  2  1  1  0
  3  4  1  0
  4  5  1  0
  6  5  1  0
  7  8  1  0
  8  1  1  0
  8  9  2  0
 10  9  1  0
 11 10  2  0
 12  7  2  0
 12 11  1  0
 13  7  1  0
 14 13  1  0
 15 14  1  0
 15 13  1  0
  1 16  1  1
  2 17  1  0
  3 18  1  0
  4 19  1  0
  4 20  1  0
  5 21  1  0
  5 22  1  0
  6 23  1  0
  6 24  1  0
  9 25  1  0
 11 26  1  0
 13 27  1  0
 14 28  1  0
 14 29  1  0
 15 30  1  0
 15 31  1  0
M  ISO  8  16  13  17  13  18  13  19  13  20  13  21  13  22  13  23  13
M  ISO  8  24  13  25  14  26  14  27  13  28  13  29  13  30  13  31  13
M  END
>  <minimizedAffinity>  (1) 
-4.11229849

>  <minimizedRMSD>  (1) 
5.90219593

$$$$
