
     RDKit          3D

 34 37  0  0  0  0  0  0  0  0999 V2000
   48.1360   33.7050   42.4260 C   0  0  0  0  0  0  0  0  0  0  0  0
   48.8420   34.8770   42.7060 C   0  0  0  0  0  0  0  0  0  0  0  0
   49.2000   35.7730   41.7130 C   0  0  0  0  0  0  0  0  0  0  0  0
   48.8290   35.4630   40.4180 C   0  0  0  0  0  0  0  0  0  0  0  0
   48.1270   34.3010   40.1310 C   0  0  0  0  0  0  0  0  0  0  0  0
   47.7970   33.4470   41.1420 N   0  0  0  0  0  0  0  0  0  0  0  0
   47.7670   34.0230   38.7800 N   0  0  0  0  0  0  0  0  0  0  0  0
   48.5000   34.2240   37.6670 C   0  0  0  0  0  0  0  0  0  0  0  0
   47.7570   33.8140   36.6000 N   0  0  0  0  0  0  0  0  0  0  0  0
   46.5770   33.3650   37.0520 C   0  0  0  0  0  0  0  0  0  0  0  0
   45.4410   32.8370   36.4710 C   0  0  0  0  0  0  0  0  0  0  0  0
   44.3670   32.4610   37.2240 N   0  0  0  0  0  0  0  0  0  0  0  0
   44.3800   32.5920   38.5670 C   0  0  0  0  0  0  0  0  0  0  0  0
   45.4910   33.1060   39.1140 N   0  0  0  0  0  0  0  0  0  0  0  0
   46.5720   33.4920   38.4260 C   0  0  0  0  0  0  0  0  0  0  0  0
   45.3810   32.6790   35.0580 N   0  0  0  0  0  0  0  0  0  0  0  0
   47.7840   32.7940   43.5100 C   0  0  0  0  0  0  0  0  0  0  0  0
   48.3450   31.6560   43.5060 O   0  0  0  0  0  0  0  0  0  0  0  0
   46.8360   33.2180   44.5110 C   0  0  0  0  0  0  0  0  0  0  0  0
   46.8780   32.5350   45.7370 C   0  0  0  0  0  0  0  0  0  0  0  0
   45.9810   32.9240   46.7100 C   0  0  0  0  0  0  0  0  0  0  0  0
   45.1190   33.9360   46.4260 N   0  0  0  0  0  0  0  0  0  0  0  0
   45.1030   34.5710   45.2410 C   0  0  0  0  0  0  0  0  0  0  0  0
   45.9560   34.2120   44.2960 N   0  0  0  0  0  0  0  0  0  0  0  0
   49.1222   35.0949   43.7472 H   0  0  0  0  0  0  0  0  0  0  0  0
   49.7564   36.6931   41.9449 H   0  0  0  0  0  0  0  0  0  0  0  0
   49.0949   36.1495   39.6007 H   0  0  0  0  0  0  0  0  0  0  0  0
   49.5160   34.6438   37.6267 H   0  0  0  0  0  0  0  0  0  0  0  0
   43.5201   32.2914   39.1836 H   0  0  0  0  0  0  0  0  0  0  0  0
   44.5362   32.2857   34.6192 H   0  0  0  0  0  0  0  0  0  0  0  0
   46.1824   32.9579   34.4741 H   0  0  0  0  0  0  0  0  0  0  0  0
   47.5975   31.7221   45.9145 H   0  0  0  0  0  0  0  0  0  0  0  0
   45.9636   32.4276   47.6915 H   0  0  0  0  0  0  0  0  0  0  0  0
   44.3849   35.3841   45.0585 H   0  0  0  0  0  0  0  0  0  0  0  0
  1  2  2  0
  1 17  1  0
  3  2  1  0
  4  3  2  0
  5  4  1  0
  5  6  2  0
  6  1  1  0
  7  5  1  0
  8  7  1  0
  9 10  1  0
  9  8  2  0
 10 15  2  0
 11 10  1  0
 11 12  2  0
 12 13  1  0
 13 14  2  0
 15  7  1  0
 15 14  1  0
 16 11  1  0
 17 19  1  0
 18 17  2  0
 19 20  2  0
 20 21  1  0
 22 21  2  0
 23 22  1  0
 24 19  1  0
 24 23  2  0
  2 25  1  0
  3 26  1  0
  4 27  1  0
  8 28  1  0
 13 29  1  0
 16 30  1  0
 16 31  1  0
 20 32  1  0
 21 33  1  0
 23 34  1  0
M  ISO  8  25  14  26  14  27  14  28  14  29  14  32  14  33  14  34  14
M  END
>  <minimizedAffinity>  (1) 
-6.44663668

>  <minimizedRMSD>  (1) 
0.894764721

$$$$
