
     RDKit          3D

 35 38  0  0  0  0  0  0  0  0999 V2000
   47.7190   34.0280   42.2510 C   0  0  0  0  0  0  0  0  0  0  0  0
   48.5630   35.1120   42.3550 C   0  0  0  0  0  0  0  0  0  0  0  0
   49.0940   35.7810   41.2700 C   0  0  0  0  0  0  0  0  0  0  0  0
   48.7300   35.2990   40.0180 C   0  0  0  0  0  0  0  0  0  0  0  0
   47.8720   34.1970   39.8900 C   0  0  0  0  0  0  0  0  0  0  0  0
   47.3820   33.5810   41.0100 N   0  0  0  0  0  0  0  0  0  0  0  0
   47.5460   33.7630   38.5740 N   0  0  0  0  0  0  0  0  0  0  0  0
   48.5040   33.8370   37.6070 C   0  0  0  0  0  0  0  0  0  0  0  0
   48.0170   33.3820   36.4180 N   0  0  0  0  0  0  0  0  0  0  0  0
   46.7430   33.0210   36.6450 C   0  0  0  0  0  0  0  0  0  0  0  0
   45.7020   32.4950   35.9060 C   0  0  0  0  0  0  0  0  0  0  0  0
   45.9070   32.2590   34.6850 O   0  0  0  0  0  0  0  0  0  0  0  0
   44.5220   32.2590   36.5070 N   0  0  0  0  0  0  0  0  0  0  0  0
   44.2780   32.5020   37.8070 C   0  0  0  0  0  0  0  0  0  0  0  0
   42.9960   32.2170   38.3530 N   0  0  0  0  0  0  0  0  0  0  0  0
   45.2730   33.0170   38.5690 N   0  0  0  0  0  0  0  0  0  0  0  0
   46.4690   33.2640   37.9810 C   0  0  0  0  0  0  0  0  0  0  0  0
   47.1970   33.3720   43.4350 C   0  0  0  0  0  0  0  0  0  0  0  0
   47.6250   32.2090   43.7040 O   0  0  0  0  0  0  0  0  0  0  0  0
   46.2160   34.0610   44.2570 C   0  0  0  0  0  0  0  0  0  0  0  0
   46.0220   33.5520   45.5680 C   0  0  0  0  0  0  0  0  0  0  0  0
   45.0980   34.1890   46.3650 C   0  0  0  0  0  0  0  0  0  0  0  0
   44.4350   35.2630   45.8430 N   0  0  0  0  0  0  0  0  0  0  0  0
   44.6360   35.7270   44.5990 C   0  0  0  0  0  0  0  0  0  0  0  0
   45.5300   35.1190   43.8120 N   0  0  0  0  0  0  0  0  0  0  0  0
   48.8296   35.4655   43.3620 H   0  0  0  0  0  0  0  0  0  0  0  0
   49.7653   36.6442   41.3893 H   0  0  0  0  0  0  0  0  0  0  0  0
   49.1208   35.7892   39.1141 H   0  0  0  0  0  0  0  0  0  0  0  0
   49.5264   34.2113   37.7642 H   0  0  0  0  0  0  0  0  0  0  0  0
   43.7585   31.8682   35.9366 H   0  0  0  0  0  0  0  0  0  0  0  0
   42.8074   32.4025   39.3484 H   0  0  0  0  0  0  0  0  0  0  0  0
   42.2562   31.8251   37.7530 H   0  0  0  0  0  0  0  0  0  0  0  0
   46.5881   32.6823   45.9328 H   0  0  0  0  0  0  0  0  0  0  0  0
   44.8997   33.8438   47.3904 H   0  0  0  0  0  0  0  0  0  0  0  0
   44.0719   36.5970   44.2317 H   0  0  0  0  0  0  0  0  0  0  0  0
  1  2  2  0
  1 18  1  0
  3  2  1  0
  4  3  2  0
  5  4  1  0
  5  6  2  0
  6  1  1  0
  7  5  1  0
  8  7  1  0
  9 10  1  0
  9  8  2  0
 10 17  2  0
 11 13  1  0
 11 10  1  0
 12 11  2  0
 13 14  1  0
 14 15  1  0
 14 16  2  0
 17 16  1  0
 17  7  1  0
 18 19  2  0
 18 20  1  0
 20 21  2  0
 21 22  1  0
 23 22  2  0
 24 23  1  0
 25 20  1  0
 25 24  2  0
  2 26  1  0
  3 27  1  0
  4 28  1  0
  8 29  1  0
 13 30  1  0
 15 31  1  0
 15 32  1  0
 21 33  1  0
 22 34  1  0
 24 35  1  0
M  ISO  8  26  14  27  14  28  14  29  14  30   9  33  14  34  14  35  14
M  END
>  <minimizedAffinity>  (1) 
-6.59194756

>  <minimizedRMSD>  (1) 
1.30577123

$$$$
