
     RDKit          3D

 31 33  0  0  0  0  0  0  0  0999 V2000
   47.6520   33.9650   42.2660 C   0  0  0  0  0  0  0  0  0  0  0  0
   48.5610   35.0180   42.2750 C   0  0  0  0  0  0  0  0  0  0  0  0
   49.0210   35.6270   41.1190 C   0  0  0  0  0  0  0  0  0  0  0  0
   48.5300   35.1350   39.9320 C   0  0  0  0  0  0  0  0  0  0  0  0
   47.6170   34.0810   39.9020 C   0  0  0  0  0  0  0  0  0  0  0  0
   47.1960   33.5150   41.0780 N   0  0  0  0  0  0  0  0  0  0  0  0
   47.1030   33.5640   38.6820 N   0  0  0  0  0  0  0  0  0  0  0  0
   46.0790   32.6880   38.6490 C   0  0  0  0  0  0  0  0  0  0  0  0
   45.5790   32.1850   37.4510 C   0  0  0  0  0  0  0  0  0  0  0  0
   46.1480   32.5950   36.2520 C   0  0  0  0  0  0  0  0  0  0  0  0
   45.7280   32.1640   35.1370 O   0  0  0  0  0  0  0  0  0  0  0  0
   47.1660   33.4690   36.3310 N   0  0  0  0  0  0  0  0  0  0  0  0
   47.6290   33.9400   37.5210 C   0  0  0  0  0  0  0  0  0  0  0  0
   48.5850   34.7500   37.4170 O   0  0  0  0  0  0  0  0  0  0  0  0
   47.2060   33.3670   43.5170 C   0  0  0  0  0  0  0  0  0  0  0  0
   47.7170   32.2530   43.8390 O   0  0  0  0  0  0  0  0  0  0  0  0
   46.2180   34.0550   44.3230 C   0  0  0  0  0  0  0  0  0  0  0  0
   46.0110   33.5590   45.6200 C   0  0  0  0  0  0  0  0  0  0  0  0
   45.0750   34.1950   46.4120 C   0  0  0  0  0  0  0  0  0  0  0  0
   44.4200   35.2530   45.8860 N   0  0  0  0  0  0  0  0  0  0  0  0
   44.6370   35.7130   44.6320 C   0  0  0  0  0  0  0  0  0  0  0  0
   45.5300   35.1200   43.8530 N   0  0  0  0  0  0  0  0  0  0  0  0
   48.9313   35.3836   43.2441 H   0  0  0  0  0  0  0  0  0  0  0  0
   49.7400   36.4590   41.1486 H   0  0  0  0  0  0  0  0  0  0  0  0
   48.8650   35.5830   38.9849 H   0  0  0  0  0  0  0  0  0  0  0  0
   45.6252   32.3611   39.5962 H   0  0  0  0  0  0  0  0  0  0  0  0
   44.7425   31.4707   37.4539 H   0  0  0  0  0  0  0  0  0  0  0  0
   47.6112   33.7936   35.4607 H   0  0  0  0  0  0  0  0  0  0  0  0
   46.5759   32.6921   45.9933 H   0  0  0  0  0  0  0  0  0  0  0  0
   44.8698   33.8515   47.4367 H   0  0  0  0  0  0  0  0  0  0  0  0
   44.0717   36.5798   44.2590 H   0  0  0  0  0  0  0  0  0  0  0  0
  1  2  2  0
  1 15  1  0
  3  2  1  0
  4  3  2  0
  5  4  1  0
  5  6  2  0
  6  1  1  0
  7  5  1  0
  8  7  1  0
  9  8  2  0
 10 12  1  0
 10  9  1  0
 11 10  2  0
 12 13  1  0
 13  7  1  0
 14 13  2  0
 15 16  2  0
 15 17  1  0
 17 18  2  0
 18 19  1  0
 20 19  2  0
 21 20  1  0
 22 17  1  0
 22 21  2  0
  2 23  1  0
  3 24  1  0
  4 25  1  0
  8 26  1  0
  9 27  1  0
 12 28  1  0
 18 29  1  0
 19 30  1  0
 21 31  1  0
M  ISO  8  23  14  24  14  25  14  26  14  27  14  28   9  29  14  30  14
M  ISO  1  31  14
M  END
>  <minimizedAffinity>  (1) 
-6.33686733

>  <minimizedRMSD>  (1) 
1.21826398

$$$$
