
     RDKit          3D

 21 21  0  0  0  0  0  0  0  0999 V2000
   45.8190   34.6040   43.9770 C   0  0  0  0  0  0  0  0  0  0  0  0
   46.8020   33.8770   43.3040 C   0  0  0  0  0  0  0  0  0  0  0  0
   47.3750   32.8320   44.0510 C   0  0  0  0  0  0  0  0  0  0  0  0
   46.9460   32.6200   45.3180 N   0  0  0  0  0  0  0  0  0  0  0  0
   46.0040   33.3460   45.9110 C   0  0  0  0  0  0  0  0  0  0  0  0
   45.4240   34.3590   45.2360 N   0  0  0  0  0  0  0  0  0  0  0  0
   45.1440   35.7050   43.3340 C   0  0  0  0  0  0  0  0  0  0  0  0
   45.1380   36.9430   43.2060 O   0  0  0  0  0  0  0  0  0  0  0  0
   47.2310   34.1530   41.9420 C   0  0  0  0  0  0  0  0  0  0  0  0
   46.0880   34.2710   41.0050 C   0  0  0  0  0  0  0  0  0  0  0  0
   48.1390   35.3650   41.9630 C   0  0  0  0  0  0  0  0  0  0  0  0
   48.1592   32.1970   43.6131 H   0  0  0  0  0  0  0  0  0  0  0  0
   45.6999   33.1223   46.9442 H   0  0  0  0  0  0  0  0  0  0  0  0
   44.3237   35.2949   42.7266 H   0  0  0  0  0  0  0  0  0  0  0  0
   47.8063   33.3017   41.5492 H   0  0  0  0  0  0  0  0  0  0  0  0
   45.1534   34.3675   41.5770 H   0  0  0  0  0  0  0  0  0  0  0  0
   46.2235   35.1599   40.3714 H   0  0  0  0  0  0  0  0  0  0  0  0
   46.0391   33.3731   40.3714 H   0  0  0  0  0  0  0  0  0  0  0  0
   48.3502   35.6469   43.0051 H   0  0  0  0  0  0  0  0  0  0  0  0
   49.0819   35.1257   41.4496 H   0  0  0  0  0  0  0  0  0  0  0  0
   47.6443   36.2027   41.4496 H   0  0  0  0  0  0  0  0  0  0  0  0
  1  6  2  0
  2  1  1  0
  2  3  2  0
  3  4  1  0
  4  5  2  0
  6  5  1  0
  7  1  1  0
  8  7  2  0
  9 11  1  0
  9  2  1  0
 10  9  1  0
  3 12  1  0
  5 13  1  0
  7 14  1  0
  9 15  1  0
 10 16  1  0
 10 17  1  0
 10 18  1  0
 11 19  1  0
 11 20  1  0
 11 21  1  0
M  ISO  8  12  14  13  14  14   6  15   8  16   8  17   8  18   8  19   8
M  ISO  2  20   8  21   8
M  END
>  <minimizedAffinity>  (1) 
-3.55338478

>  <minimizedRMSD>  (1) 
1.67419672

$$$$
