
     RDKit          3D

 34 36  0  0  0  0  0  0  0  0999 V2000
   47.7340   33.9190   42.2760 C   0  0  0  0  0  0  0  0  0  0  0  0
   48.6280   34.9750   42.2660 C   0  0  0  0  0  0  0  0  0  0  0  0
   48.9980   35.6090   41.0950 C   0  0  0  0  0  0  0  0  0  0  0  0
   48.4510   35.1620   39.9210 C   0  0  0  0  0  0  0  0  0  0  0  0
   47.5550   34.1030   39.9260 C   0  0  0  0  0  0  0  0  0  0  0  0
   47.2140   33.5050   41.0890 N   0  0  0  0  0  0  0  0  0  0  0  0
   46.9720   33.6190   38.7230 N   0  0  0  0  0  0  0  0  0  0  0  0
   45.7910   32.9840   38.6570 C   0  0  0  0  0  0  0  0  0  0  0  0
   45.2700   32.5300   37.4460 C   0  0  0  0  0  0  0  0  0  0  0  0
   43.9720   31.8350   37.3870 C   0  0  0  0  0  0  0  0  0  0  0  0
   46.0040   32.7460   36.2760 C   0  0  0  0  0  0  0  0  0  0  0  0
   45.5620   32.3480   35.1630 O   0  0  0  0  0  0  0  0  0  0  0  0
   47.1870   33.3830   36.3550 N   0  0  0  0  0  0  0  0  0  0  0  0
   47.6070   33.7810   37.5480 C   0  0  0  0  0  0  0  0  0  0  0  0
   48.7330   34.3810   37.5810 O   0  0  0  0  0  0  0  0  0  0  0  0
   47.3600   33.2650   43.5250 C   0  0  0  0  0  0  0  0  0  0  0  0
   47.9360   32.1740   43.8040 O   0  0  0  0  0  0  0  0  0  0  0  0
   46.3700   33.8760   44.3710 C   0  0  0  0  0  0  0  0  0  0  0  0
   46.2450   33.3220   45.6740 C   0  0  0  0  0  0  0  0  0  0  0  0
   45.2930   33.9010   46.5050 C   0  0  0  0  0  0  0  0  0  0  0  0
   44.5610   34.9390   46.0240 N   0  0  0  0  0  0  0  0  0  0  0  0
   44.7070   35.4400   44.7770 C   0  0  0  0  0  0  0  0  0  0  0  0
   45.6070   34.9090   43.9610 N   0  0  0  0  0  0  0  0  0  0  0  0
   49.0570   35.3201   43.2183 H   0  0  0  0  0  0  0  0  0  0  0  0
   49.7102   36.4472   41.1052 H   0  0  0  0  0  0  0  0  0  0  0  0
   48.7234   35.6447   38.9709 H   0  0  0  0  0  0  0  0  0  0  0  0
   45.2197   32.8176   39.5821 H   0  0  0  0  0  0  0  0  0  0  0  0
   43.6124   31.6425   38.4086 H   0  0  0  0  0  0  0  0  0  0  0  0
   43.2434   32.4636   36.8542 H   0  0  0  0  0  0  0  0  0  0  0  0
   44.0913   30.8801   36.8542 H   0  0  0  0  0  0  0  0  0  0  0  0
   47.7512   33.5567   35.5110 H   0  0  0  0  0  0  0  0  0  0  0  0
   46.8688   32.4795   46.0072 H   0  0  0  0  0  0  0  0  0  0  0  0
   45.1362   33.5275   47.5277 H   0  0  0  0  0  0  0  0  0  0  0  0
   44.0837   36.2821   44.4417 H   0  0  0  0  0  0  0  0  0  0  0  0
  1 16  1  0
  2  1  2  0
  3  2  1  0
  4  5  1  0
  4  3  2  0
  5  6  2  0
  6  1  1  0
  7  5  1  0
  8  7  1  0
  9  8  2  0
 10  9  1  0
 11 13  1  0
 11  9  1  0
 12 11  2  0
 13 14  1  0
 14 15  2  0
 14  7  1  0
 16 17  2  0
 16 18  1  0
 18 19  2  0
 19 20  1  0
 21 20  2  0
 22 21  1  0
 23 18  1  0
 23 22  2  0
  2 24  1  0
  3 25  1  0
  4 26  1  0
  8 27  1  0
 10 28  1  0
 10 29  1  0
 10 30  1  0
 13 31  1  0
 19 32  1  0
 20 33  1  0
 22 34  1  0
M  ISO  8  24  14  25  14  26  14  27  14  28   8  29   8  30   8  31   9
M  ISO  3  32  14  33  14  34  14
M  END
>  <minimizedAffinity>  (1) 
-6.32470226

>  <minimizedRMSD>  (1) 
1.05890322

$$$$
