
     RDKit          3D

 35 36  0  0  0  0  0  0  0  0999 V2000
   45.8950   33.5900   44.3130 C   0  0  0  0  0  0  0  0  0  0  0  0
   46.9720   32.7360   44.5830 C   0  0  0  0  0  0  0  0  0  0  0  0
   47.2090   32.3870   45.9200 C   0  0  0  0  0  0  0  0  0  0  0  0
   46.3890   32.8910   46.8760 N   0  0  0  0  0  0  0  0  0  0  0  0
   45.3590   33.7090   46.5970 C   0  0  0  0  0  0  0  0  0  0  0  0
   45.1210   34.0530   45.3190 N   0  0  0  0  0  0  0  0  0  0  0  0
   45.5260   34.0220   42.9800 C   0  0  0  0  0  0  0  0  0  0  0  0
   44.3410   33.2250   42.4940 C   0  0  0  0  0  0  0  0  0  0  0  0
   44.1250   33.4590   41.0150 C   0  0  0  0  0  0  0  0  0  0  0  0
   44.1380   34.9500   40.7850 C   0  0  0  0  0  0  0  0  0  0  0  0
   43.9120   35.7020   42.0590 C   0  0  0  0  0  0  0  0  0  0  0  0
   45.0140   35.4700   43.0730 C   0  0  0  0  0  0  0  0  0  0  0  0
   47.8330   32.2310   43.5130 C   0  0  0  0  0  0  0  0  0  0  0  0
   47.2030   31.1680   42.7060 C   0  0  0  0  0  0  0  0  0  0  0  0
   48.4260   33.3700   42.7410 C   0  0  0  0  0  0  0  0  0  0  0  0
   48.0412   31.7194   46.1879 H   0  0  0  0  0  0  0  0  0  0  0  0
   44.7184   34.0924   47.4049 H   0  0  0  0  0  0  0  0  0  0  0  0
   46.3960   33.9065   42.3169 H   0  0  0  0  0  0  0  0  0  0  0  0
   44.5262   32.1550   42.6693 H   0  0  0  0  0  0  0  0  0  0  0  0
   43.4433   33.5457   43.0430 H   0  0  0  0  0  0  0  0  0  0  0  0
   44.9313   32.9829   40.4378 H   0  0  0  0  0  0  0  0  0  0  0  0
   43.1678   33.0252   40.6899 H   0  0  0  0  0  0  0  0  0  0  0  0
   45.1137   35.2390   40.3673 H   0  0  0  0  0  0  0  0  0  0  0  0
   43.3249   35.1993   40.0874 H   0  0  0  0  0  0  0  0  0  0  0  0
   43.8636   36.7769   41.8303 H   0  0  0  0  0  0  0  0  0  0  0  0
   42.9713   35.3393   42.4989 H   0  0  0  0  0  0  0  0  0  0  0  0
   44.6214   35.6523   44.0843 H   0  0  0  0  0  0  0  0  0  0  0  0
   45.8456   36.1587   42.8630 H   0  0  0  0  0  0  0  0  0  0  0  0
   48.6838   31.7022   43.9674 H   0  0  0  0  0  0  0  0  0  0  0  0
   46.7574   30.4161   43.3738 H   0  0  0  0  0  0  0  0  0  0  0  0
   46.4184   31.6057   42.0713 H   0  0  0  0  0  0  0  0  0  0  0  0
   47.9637   30.6899   42.0713 H   0  0  0  0  0  0  0  0  0  0  0  0
   48.8179   34.1227   43.4409 H   0  0  0  0  0  0  0  0  0  0  0  0
   49.2444   32.9970   42.1077 H   0  0  0  0  0  0  0  0  0  0  0  0
   47.6511   33.8265   42.1077 H   0  0  0  0  0  0  0  0  0  0  0  0
  1  2  2  0
  1  6  1  0
  2  3  1  0
  3  4  2  0
  5  4  1  0
  6  5  2  0
  7 12  1  0
  7  1  1  0
  8  7  1  0
  9  8  1  0
 10  9  1  0
 10 11  1  0
 11 12  1  0
 13  2  1  0
 14 13  1  0
 15 13  1  0
  3 16  1  0
  5 17  1  0
  7 18  1  0
  8 19  1  0
  8 20  1  0
  9 21  1  0
  9 22  1  0
 10 23  1  0
 10 24  1  0
 11 25  1  0
 11 26  1  0
 12 27  1  0
 12 28  1  0
 13 29  1  0
 14 30  1  0
 14 31  1  0
 14 32  1  0
 15 33  1  0
 15 34  1  0
 15 35  1  0
M  ISO  8  16  14  17  14  18  13  19  13  20  13  21  13  22  13  23  13
M  ISO  8  24  13  25  13  26  13  27  13  28  13  29   8  30   8  31   8
M  ISO  4  32   8  33   8  34   8  35   8
M  END
>  <minimizedAffinity>  (1) 
-3.54963326

>  <minimizedRMSD>  (1) 
3.03740764

$$$$
