
     RDKit          3D

 28 29  0  0  0  0  0  0  0  0999 V2000
   48.0460   33.6560   42.5030 C   0  0  0  0  0  0  0  0  0  0  0  0
   48.9350   34.6780   42.7560 C   0  0  0  0  0  0  0  0  0  0  0  0
   49.3420   35.5890   41.7940 C   0  0  0  0  0  0  0  0  0  0  0  0
   48.8180   35.4430   40.5350 C   0  0  0  0  0  0  0  0  0  0  0  0
   47.9220   34.4210   40.2520 C   0  0  0  0  0  0  0  0  0  0  0  0
   47.5690   33.5680   41.2420 N   0  0  0  0  0  0  0  0  0  0  0  0
   47.3390   34.2180   38.9480 N   0  0  0  0  0  0  0  0  0  0  0  0
   48.1120   34.2690   37.7410 C   0  0  0  0  0  0  0  0  0  0  0  0
   49.0810   35.1230   37.7660 N   0  0  0  0  0  0  0  0  0  0  0  0
   47.6820   33.3660   36.7070 N   0  0  0  0  0  0  0  0  0  0  0  0
   49.6930   35.2240   36.9320 H   0  0  0  0  0  0  0  0  0  0  0  0
   47.6440   32.7210   43.5380 C   0  0  0  0  0  0  0  0  0  0  0  0
   48.1040   31.5580   43.4930 O   0  0  0  0  0  0  0  0  0  0  0  0
   46.7310   33.1750   44.5720 C   0  0  0  0  0  0  0  0  0  0  0  0
   46.7840   32.4700   45.8040 C   0  0  0  0  0  0  0  0  0  0  0  0
   45.9230   32.8900   46.7970 C   0  0  0  0  0  0  0  0  0  0  0  0
   45.0930   33.9300   46.5430 N   0  0  0  0  0  0  0  0  0  0  0  0
   45.0660   34.5790   45.3640 C   0  0  0  0  0  0  0  0  0  0  0  0
   45.8840   34.1950   44.3940 N   0  0  0  0  0  0  0  0  0  0  0  0
   49.3423   34.7758   43.7731 H   0  0  0  0  0  0  0  0  0  0  0  0
   50.0539   36.3937   42.0299 H   0  0  0  0  0  0  0  0  0  0  0  0
   49.1112   36.1442   39.7398 H   0  0  0  0  0  0  0  0  0  0  0  0
   46.3287   34.0292   38.8813 H   0  0  0  0  0  0  0  0  0  0  0  0
   46.8745   32.7469   36.8669 H   0  0  0  0  0  0  0  0  0  0  0  0
   48.1816   33.3385   35.8067 H   0  0  0  0  0  0  0  0  0  0  0  0
   47.4775   31.6303   45.9588 H   0  0  0  0  0  0  0  0  0  0  0  0
   45.9108   32.3897   47.7766 H   0  0  0  0  0  0  0  0  0  0  0  0
   44.3729   35.4186   45.2071 H   0  0  0  0  0  0  0  0  0  0  0  0
  1  2  2  0
  1 12  1  0
  3  2  1  0
  4  3  2  0
  5  4  1  0
  5  6  2  0
  6  1  1  0
  7  5  1  0
  8  9  2  0
  8  7  1  0
 10  8  1  0
 11  9  1  0
 12 14  1  0
 13 12  2  0
 14 15  2  0
 15 16  1  0
 17 16  2  0
 18 17  1  0
 19 14  1  0
 19 18  2  0
  2 20  1  0
  3 21  1  0
  4 22  1  0
  7 23  1  0
 10 24  1  0
 10 25  1  0
 15 26  1  0
 16 27  1  0
 18 28  1  0
M  ISO  6  20  14  21  14  22  14  26  14  27  14  28  14
M  END
>  <minimizedAffinity>  (1) 
-5.86532116

>  <minimizedRMSD>  (1) 
0.193527758

$$$$
