
     RDKit          3D

 34 36  0  0  0  0  0  0  0  0999 V2000
   47.8060   34.0940   42.3690 C   0  0  0  0  0  0  0  0  0  0  0  0
   48.6020   35.2200   42.4730 C   0  0  0  0  0  0  0  0  0  0  0  0
   49.1040   35.8870   41.3800 C   0  0  0  0  0  0  0  0  0  0  0  0
   48.7780   35.3810   40.1360 C   0  0  0  0  0  0  0  0  0  0  0  0
   47.9820   34.2540   40.0080 C   0  0  0  0  0  0  0  0  0  0  0  0
   47.5140   33.6350   41.1140 N   0  0  0  0  0  0  0  0  0  0  0  0
   47.0420   32.6550   36.1590 C   0  0  0  0  0  0  0  0  0  0  0  0
   48.2200   33.3230   36.4100 C   0  0  0  0  0  0  0  0  0  0  0  0
   48.5120   33.8410   37.6760 C   0  0  0  0  0  0  0  0  0  0  0  0
   47.6150   33.6910   38.7140 C   0  0  0  0  0  0  0  0  0  0  0  0
   46.4560   33.0280   38.4490 C   0  0  0  0  0  0  0  0  0  0  0  0
   46.1440   32.5050   37.2020 C   0  0  0  0  0  0  0  0  0  0  0  0
   46.6220   31.9870   34.6000 S   0  0  0  0  0  0  0  0  0  0  0  0
   45.2530   32.3910   34.1760 O   0  0  0  0  0  0  0  0  0  0  0  0
   47.5770   32.4170   33.5290 O   0  0  0  0  0  0  0  0  0  0  0  0
   47.2900   33.4100   43.5450 C   0  0  0  0  0  0  0  0  0  0  0  0
   47.7640   32.2700   43.8060 O   0  0  0  0  0  0  0  0  0  0  0  0
   46.2720   34.0640   44.3430 C   0  0  0  0  0  0  0  0  0  0  0  0
   46.0810   33.5390   45.6430 C   0  0  0  0  0  0  0  0  0  0  0  0
   45.1190   34.1350   46.4370 C   0  0  0  0  0  0  0  0  0  0  0  0
   44.4300   35.1800   45.9130 N   0  0  0  0  0  0  0  0  0  0  0  0
   44.6350   35.6590   44.6670 C   0  0  0  0  0  0  0  0  0  0  0  0
   45.5520   35.1020   43.8900 N   0  0  0  0  0  0  0  0  0  0  0  0
   48.8449   35.5998   43.4764 H   0  0  0  0  0  0  0  0  0  0  0  0
   49.7352   36.7810   41.4908 H   0  0  0  0  0  0  0  0  0  0  0  0
   49.1567   35.8812   39.2324 H   0  0  0  0  0  0  0  0  0  0  0  0
   48.9482   33.4522   35.5958 H   0  0  0  0  0  0  0  0  0  0  0  0
   49.4612   34.3705   37.8451 H   0  0  0  0  0  0  0  0  0  0  0  0
   45.7296   32.9003   39.2651 H   0  0  0  0  0  0  0  0  0  0  0  0
   45.1924   31.9764   37.0438 H   0  0  0  0  0  0  0  0  0  0  0  0
   46.6820   30.6272   34.7554 H   0  0  0  0  0  0  0  0  0  0  0  0
   46.6756   32.6886   46.0081 H   0  0  0  0  0  0  0  0  0  0  0  0
   44.9192   33.7750   47.4570 H   0  0  0  0  0  0  0  0  0  0  0  0
   44.0422   36.5092   44.2984 H   0  0  0  0  0  0  0  0  0  0  0  0
  1  2  2  0
  1 16  1  0
  3  2  1  0
  4  3  2  0
  5  4  1  0
  5  6  2  0
  6  1  1  0
  7  8  2  0
  7 12  1  0
  8  9  1  0
  9 10  2  0
 10  5  1  0
 11 10  1  0
 12 11  2  0
 13  7  1  0
 14 13  2  0
 15 13  2  0
 16 17  2  0
 16 18  1  0
 18 19  2  0
 19 20  1  0
 21 20  2  0
 22 21  1  0
 23 18  1  0
 23 22  2  0
  2 24  1  0
  3 25  1  0
  4 26  1  0
  8 27  1  0
  9 28  1  0
 11 29  1  0
 12 30  1  0
 13 31  1  0
 19 32  1  0
 20 33  1  0
 22 34  1  0
M  ISO  8  24  14  25  14  26  14  27  14  28  14  29  14  30  14  31  11
M  ISO  3  32  14  33  14  34  14
M  END
>  <minimizedAffinity>  (1) 
-5.83167124

>  <minimizedRMSD>  (1) 
1.49584889

$$$$
