
     RDKit          3D

 37 40  0  0  0  0  0  0  0  0999 V2000
   47.7000   33.0020   43.0390 C   0  0  0  0  0  0  0  0  0  0  0  0
   48.6980   33.9400   42.9440 C   0  0  0  0  0  0  0  0  0  0  0  0
   48.7540   34.8770   41.9330 C   0  0  0  0  0  0  0  0  0  0  0  0
   47.7590   34.8510   40.9930 C   0  0  0  0  0  0  0  0  0  0  0  0
   46.7370   33.9220   41.0520 C   0  0  0  0  0  0  0  0  0  0  0  0
   46.7640   33.0460   42.0740 N   0  0  0  0  0  0  0  0  0  0  0  0
   45.5710   33.7780   40.2120 C   0  0  0  0  0  0  0  0  0  0  0  0
   45.7060   33.1040   38.9980 C   0  0  0  0  0  0  0  0  0  0  0  0
   44.6990   32.8970   38.0880 C   0  0  0  0  0  0  0  0  0  0  0  0
   43.4430   33.3760   38.3580 C   0  0  0  0  0  0  0  0  0  0  0  0
   43.2300   34.0560   39.5360 C   0  0  0  0  0  0  0  0  0  0  0  0
   41.9910   34.5870   39.8260 C   0  0  0  0  0  0  0  0  0  0  0  0
   41.7500   35.3180   40.9940 C   0  0  0  0  0  0  0  0  0  0  0  0
   42.8410   35.4850   41.8570 C   0  0  0  0  0  0  0  0  0  0  0  0
   44.0570   34.9360   41.5250 C   0  0  0  0  0  0  0  0  0  0  0  0
   44.2930   34.2160   40.3830 C   0  0  0  0  0  0  0  0  0  0  0  0
   47.6650   32.0250   44.1180 C   0  0  0  0  0  0  0  0  0  0  0  0
   48.3450   30.9780   43.9660 O   0  0  0  0  0  0  0  0  0  0  0  0
   46.8620   32.3090   45.2880 C   0  0  0  0  0  0  0  0  0  0  0  0
   46.8740   31.3070   46.2910 C   0  0  0  0  0  0  0  0  0  0  0  0
   46.1140   31.5540   47.4160 C   0  0  0  0  0  0  0  0  0  0  0  0
   45.4200   32.7150   47.4890 N   0  0  0  0  0  0  0  0  0  0  0  0
   45.4290   33.6530   46.5150 C   0  0  0  0  0  0  0  0  0  0  0  0
   46.1460   33.4550   45.4160 N   0  0  0  0  0  0  0  0  0  0  0  0
   49.4888   33.9446   43.7086 H   0  0  0  0  0  0  0  0  0  0  0  0
   49.5668   35.6165   41.8840 H   0  0  0  0  0  0  0  0  0  0  0  0
   47.7731   35.5847   40.1736 H   0  0  0  0  0  0  0  0  0  0  0  0
   46.7008   32.7058   38.7495 H   0  0  0  0  0  0  0  0  0  0  0  0
   44.8976   32.3530   37.1528 H   0  0  0  0  0  0  0  0  0  0  0  0
   42.6196   33.2197   37.6456 H   0  0  0  0  0  0  0  0  0  0  0  0
   41.1655   34.4307   39.1160 H   0  0  0  0  0  0  0  0  0  0  0  0
   40.7594   35.7382   41.2222 H   0  0  0  0  0  0  0  0  0  0  0  0
   42.7256   36.0511   42.7931 H   0  0  0  0  0  0  0  0  0  0  0  0
   44.8953   35.0844   42.2216 H   0  0  0  0  0  0  0  0  0  0  0  0
   47.4582   30.3818   46.1784 H   0  0  0  0  0  0  0  0  0  0  0  0
   46.0726   30.8229   48.2369 H   0  0  0  0  0  0  0  0  0  0  0  0
   44.8440   34.5770   46.6333 H   0  0  0  0  0  0  0  0  0  0  0  0
  1 17  1  0
  2  1  2  0
  3  2  1  0
  4  5  1  0
  4  3  2  0
  5  6  2  0
  6  1  1  0
  7 16  1  0
  7  5  1  0
  8  7  2  0
  9 10  2  0
  9  8  1  0
 10 11  1  0
 11 12  1  0
 11 16  2  0
 12 13  2  0
 13 14  1  0
 15 14  2  0
 16 15  1  0
 17 19  1  0
 18 17  2  0
 19 24  1  0
 19 20  2  0
 20 21  1  0
 21 22  2  0
 23 22  1  0
 24 23  2  0
  2 25  1  0
  3 26  1  0
  4 27  1  0
  8 28  1  0
  9 29  1  0
 10 30  1  0
 12 31  1  0
 13 32  1  0
 14 33  1  0
 15 34  1  0
 20 35  1  0
 21 36  1  0
 23 37  1  0
M  ISO  8  25  14  26  14  27  14  28  14  29  14  30  14  31  14  32  14
M  ISO  5  33  14  34  14  35  14  36  14  37  14
M  END
>  <minimizedAffinity>  (1) 
-5.67386818

>  <minimizedRMSD>  (1) 
3.35492969

$$$$
