
     RDKit          3D

 27 29  0  0  0  0  0  0  0  0999 V2000
   47.8330   34.0270   42.4000 C   0  0  0  0  0  0  0  0  0  0  0  0
   48.6470   35.1080   42.6610 C   0  0  0  0  0  0  0  0  0  0  0  0
   49.1940   35.8870   41.6530 C   0  0  0  0  0  0  0  0  0  0  0  0
   48.9050   35.5550   40.3560 C   0  0  0  0  0  0  0  0  0  0  0  0
   48.0780   34.4560   40.0810 C   0  0  0  0  0  0  0  0  0  0  0  0
   47.5680   33.7280   41.1020 N   0  0  0  0  0  0  0  0  0  0  0  0
   47.6700   33.9640   38.8170 N   0  0  0  0  0  0  0  0  0  0  0  0
   48.3150   34.2500   37.6720 C   0  0  0  0  0  0  0  0  0  0  0  0
   47.7120   33.6520   36.6270 N   0  0  0  0  0  0  0  0  0  0  0  0
   46.6560   32.9690   37.1440 C   0  0  0  0  0  0  0  0  0  0  0  0
   46.6700   33.1840   38.4560 N   0  0  0  0  0  0  0  0  0  0  0  0
   47.2740   33.2280   43.4880 C   0  0  0  0  0  0  0  0  0  0  0  0
   47.6680   32.0380   43.5860 O   0  0  0  0  0  0  0  0  0  0  0  0
   46.3150   33.8330   44.3810 C   0  0  0  0  0  0  0  0  0  0  0  0
   46.2230   33.2900   45.6730 C   0  0  0  0  0  0  0  0  0  0  0  0
   45.3160   33.8420   46.5530 C   0  0  0  0  0  0  0  0  0  0  0  0
   44.5640   34.8860   46.1110 N   0  0  0  0  0  0  0  0  0  0  0  0
   44.6640   35.3950   44.8730 C   0  0  0  0  0  0  0  0  0  0  0  0
   45.5310   34.8740   44.0100 N   0  0  0  0  0  0  0  0  0  0  0  0
   48.8709   35.3621   43.7076 H   0  0  0  0  0  0  0  0  0  0  0  0
   49.8404   36.7455   41.8877 H   0  0  0  0  0  0  0  0  0  0  0  0
   49.3215   36.1502   39.5300 H   0  0  0  0  0  0  0  0  0  0  0  0
   49.2107   34.8843   37.5993 H   0  0  0  0  0  0  0  0  0  0  0  0
   45.9315   32.3579   36.5857 H   0  0  0  0  0  0  0  0  0  0  0  0
   46.8589   32.4450   45.9756 H   0  0  0  0  0  0  0  0  0  0  0  0
   45.2046   33.4522   47.5756 H   0  0  0  0  0  0  0  0  0  0  0  0
   44.0296   36.2420   44.5728 H   0  0  0  0  0  0  0  0  0  0  0  0
  1  2  2  0
  1 12  1  0
  3  2  1  0
  4  3  2  0
  5  4  1  0
  5  6  2  0
  6  1  1  0
  7  5  1  0
  8  7  1  0
  9 10  1  0
  9  8  2  0
 10 11  2  0
 11  7  1  0
 12 13  2  0
 12 14  1  0
 14 15  2  0
 15 16  1  0
 17 16  2  0
 18 17  1  0
 19 14  1  0
 19 18  2  0
  2 20  1  0
  3 21  1  0
  4 22  1  0
  8 23  1  0
 10 24  1  0
 15 25  1  0
 16 26  1  0
 18 27  1  0
M  ISO  8  20  14  21  14  22  14  23  14  24  14  25  14  26  14  27  14
M  END
>  <minimizedAffinity>  (1) 
-5.43741417

>  <minimizedRMSD>  (1) 
0.901577473

$$$$
