
     RDKit          3D

 27 29  0  0  0  0  0  0  0  0999 V2000
   47.8700   34.0080   42.4800 C   0  0  0  0  0  0  0  0  0  0  0  0
   48.6300   35.1440   42.6500 C   0  0  0  0  0  0  0  0  0  0  0  0
   49.1300   35.8910   41.6090 C   0  0  0  0  0  0  0  0  0  0  0  0
   48.8310   35.4440   40.3410 C   0  0  0  0  0  0  0  0  0  0  0  0
   48.0680   34.3010   40.1230 C   0  0  0  0  0  0  0  0  0  0  0  0
   47.6230   33.6360   41.2110 N   0  0  0  0  0  0  0  0  0  0  0  0
   47.7550   33.8320   38.7510 C   0  0  0  0  0  0  0  0  0  0  0  0
   46.5770   33.1170   38.5070 C   0  0  0  0  0  0  0  0  0  0  0  0
   46.6630   32.7820   36.7090 S   0  0  0  0  0  0  0  0  0  0  0  0
   48.3260   33.6950   36.5990 C   0  0  0  0  0  0  0  0  0  0  0  0
   48.4910   34.0140   37.6650 N   0  0  0  0  0  0  0  0  0  0  0  0
   47.3610   33.2430   43.6150 C   0  0  0  0  0  0  0  0  0  0  0  0
   47.8300   32.0840   43.7880 O   0  0  0  0  0  0  0  0  0  0  0  0
   46.3660   33.8330   44.4700 C   0  0  0  0  0  0  0  0  0  0  0  0
   46.2570   33.2810   45.7660 C   0  0  0  0  0  0  0  0  0  0  0  0
   45.3030   33.8360   46.6070 C   0  0  0  0  0  0  0  0  0  0  0  0
   44.5470   34.8660   46.1230 N   0  0  0  0  0  0  0  0  0  0  0  0
   44.6780   35.3690   44.8780 C   0  0  0  0  0  0  0  0  0  0  0  0
   45.5850   34.8480   44.0650 N   0  0  0  0  0  0  0  0  0  0  0  0
   48.8495   35.4725   43.6766 H   0  0  0  0  0  0  0  0  0  0  0  0
   49.7344   36.7942   41.7794 H   0  0  0  0  0  0  0  0  0  0  0  0
   49.2068   36.0077   39.4744 H   0  0  0  0  0  0  0  0  0  0  0  0
   45.7917   32.8272   39.2207 H   0  0  0  0  0  0  0  0  0  0  0  0
   48.9634   33.8672   35.7192 H   0  0  0  0  0  0  0  0  0  0  0  0
   46.8988   32.4497   46.0932 H   0  0  0  0  0  0  0  0  0  0  0  0
   45.1600   33.4589   47.6304 H   0  0  0  0  0  0  0  0  0  0  0  0
   44.0405   36.2003   44.5426 H   0  0  0  0  0  0  0  0  0  0  0  0
  1  2  2  0
  1 12  1  0
  3  2  1  0
  4  3  2  0
  5  4  1  0
  5  6  2  0
  6  1  1  0
  7  5  1  0
  8  7  2  0
  9  8  1  0
 10  9  1  0
 10 11  2  0
 11  7  1  0
 12 13  2  0
 12 14  1  0
 14 15  2  0
 15 16  1  0
 17 16  2  0
 18 17  1  0
 19 14  1  0
 19 18  2  0
  2 20  1  0
  3 21  1  0
  4 22  1  0
  8 23  1  0
 10 24  1  0
 15 25  1  0
 16 26  1  0
 18 27  1  0
M  ISO  8  20  14  21  14  22  14  23  14  24  14  25  14  26  14  27  14
M  END
>  <minimizedAffinity>  (1) 
-5.17948341

>  <minimizedRMSD>  (1) 
0.975502253

$$$$
