
     RDKit          3D

 33 34  0  0  0  0  0  0  0  0999 V2000
   47.6890   34.0360   42.2120 C   0  0  0  0  0  0  0  0  0  0  0  0
   48.4210   35.1950   42.4410 C   0  0  0  0  0  0  0  0  0  0  0  0
   49.0220   35.8960   41.3970 C   0  0  0  0  0  0  0  0  0  0  0  0
   48.8620   35.3940   40.1310 C   0  0  0  0  0  0  0  0  0  0  0  0
   48.1330   34.2370   39.8990 C   0  0  0  0  0  0  0  0  0  0  0  0
   47.5580   33.5760   40.9470 N   0  0  0  0  0  0  0  0  0  0  0  0
   47.8830   33.5870   38.5880 C   0  0  0  0  0  0  0  0  0  0  0  0
   46.4190   33.2130   38.4360 C   0  0  0  0  0  0  0  0  0  0  0  0
   48.3220   34.5060   37.4780 C   0  0  0  0  0  0  0  0  0  0  0  0
   48.7200   32.3250   38.5870 C   0  0  0  0  0  0  0  0  0  0  0  0
   47.0750   33.3310   43.3380 C   0  0  0  0  0  0  0  0  0  0  0  0
   47.3980   32.1200   43.5030 O   0  0  0  0  0  0  0  0  0  0  0  0
   46.1470   34.0350   44.1960 C   0  0  0  0  0  0  0  0  0  0  0  0
   46.0000   33.5260   45.5070 C   0  0  0  0  0  0  0  0  0  0  0  0
   45.1180   34.1880   46.3320 C   0  0  0  0  0  0  0  0  0  0  0  0
   44.4620   35.2650   45.8420 N   0  0  0  0  0  0  0  0  0  0  0  0
   44.6140   35.7350   44.5960 C   0  0  0  0  0  0  0  0  0  0  0  0
   45.4600   35.1160   43.7700 N   0  0  0  0  0  0  0  0  0  0  0  0
   48.5285   35.5678   43.4703 H   0  0  0  0  0  0  0  0  0  0  0  0
   49.6004   36.8134   41.5809 H   0  0  0  0  0  0  0  0  0  0  0  0
   49.3216   35.9201   39.2813 H   0  0  0  0  0  0  0  0  0  0  0  0
   45.9650   33.0970   39.4312 H   0  0  0  0  0  0  0  0  0  0  0  0
   45.8935   34.0057   37.8834 H   0  0  0  0  0  0  0  0  0  0  0  0
   46.3381   32.2653   37.8834 H   0  0  0  0  0  0  0  0  0  0  0  0
   48.7582   35.4192   37.9090 H   0  0  0  0  0  0  0  0  0  0  0  0
   49.0746   33.9978   36.8573 H   0  0  0  0  0  0  0  0  0  0  0  0
   47.4537   34.7721   36.8573 H   0  0  0  0  0  0  0  0  0  0  0  0
   48.9230   32.0189   39.6238 H   0  0  0  0  0  0  0  0  0  0  0  0
   48.1740   31.5233   38.0682 H   0  0  0  0  0  0  0  0  0  0  0  0
   49.6710   32.5161   38.0682 H   0  0  0  0  0  0  0  0  0  0  0  0
   46.5621   32.6452   45.8508 H   0  0  0  0  0  0  0  0  0  0  0  0
   44.9508   33.8490   47.3650 H   0  0  0  0  0  0  0  0  0  0  0  0
   44.0501   36.6174   44.2594 H   0  0  0  0  0  0  0  0  0  0  0  0
  1  2  2  0
  1 11  1  0
  3  2  1  0
  4  3  2  0
  5  4  1  0
  5  6  2  0
  6  1  1  0
  7  5  1  0
  8  7  1  0
  9  7  1  0
 10  7  1  0
 11 12  2  0
 11 13  1  0
 13 14  2  0
 14 15  1  0
 16 15  2  0
 17 16  1  0
 18 13  1  0
 18 17  2  0
  2 19  1  0
  3 20  1  0
  4 21  1  0
  8 22  1  0
  8 23  1  0
  8 24  1  0
  9 25  1  0
  9 26  1  0
  9 27  1  0
 10 28  1  0
 10 29  1  0
 10 30  1  0
 14 31  1  0
 15 32  1  0
 17 33  1  0
M  ISO  8  19  14  20  14  21  14  22   8  23   8  24   8  25   8  26   8
M  ISO  7  27   8  28   8  29   8  30   8  31  14  32  14  33  14
M  END
>  <minimizedAffinity>  (1) 
-5.16382504

>  <minimizedRMSD>  (1) 
1.301741

$$$$
