
     RDKit          3D

 24 25  0  0  0  0  0  0  0  0999 V2000
   46.8570   34.1790   41.3630 C   0  0  0  0  0  0  0  0  0  0  0  0
   47.7430   35.0610   41.9560 C   0  0  0  0  0  0  0  0  0  0  0  0
   48.7920   35.6590   41.2760 C   0  0  0  0  0  0  0  0  0  0  0  0
   48.9340   35.3370   39.9310 C   0  0  0  0  0  0  0  0  0  0  0  0
   48.0490   34.4540   39.3340 C   0  0  0  0  0  0  0  0  0  0  0  0
   47.0370   33.8920   40.0380 N   0  0  0  0  0  0  0  0  0  0  0  0
   45.7740   33.5810   42.1220 C   0  0  0  0  0  0  0  0  0  0  0  0
   45.2270   32.5590   41.6440 O   0  0  0  0  0  0  0  0  0  0  0  0
   45.3790   34.1770   43.3730 C   0  0  0  0  0  0  0  0  0  0  0  0
   45.7100   33.4710   44.5490 C   0  0  0  0  0  0  0  0  0  0  0  0
   45.3360   34.0340   45.7580 C   0  0  0  0  0  0  0  0  0  0  0  0
   44.6800   35.2180   45.7390 N   0  0  0  0  0  0  0  0  0  0  0  0
   44.3750   35.8760   44.6070 C   0  0  0  0  0  0  0  0  0  0  0  0
   44.7220   35.3580   43.4340 N   0  0  0  0  0  0  0  0  0  0  0  0
   48.2450   34.1530   37.9300 C   0  0  0  0  0  0  0  0  0  0  0  0
   47.2380   33.8590   37.2340 O   0  0  0  0  0  0  0  0  0  0  0  0
   49.4580   34.1620   37.2860 O   0  0  0  0  0  0  0  0  0  0  0  0
   47.6078   35.2996   43.0213 H   0  0  0  0  0  0  0  0  0  0  0  0
   49.4801   36.3558   41.7770 H   0  0  0  0  0  0  0  0  0  0  0  0
   49.7484   35.7830   39.3413 H   0  0  0  0  0  0  0  0  0  0  0  0
   46.2445   32.5105   44.5073 H   0  0  0  0  0  0  0  0  0  0  0  0
   45.5661   33.5319   46.7093 H   0  0  0  0  0  0  0  0  0  0  0  0
   43.8416   36.8370   44.6518 H   0  0  0  0  0  0  0  0  0  0  0  0
   49.5080   33.9442   36.3216 H   0  0  0  0  0  0  0  0  0  0  0  0
  1  2  2  0
  1  7  1  0
  3  2  1  0
  4  3  2  0
  5  4  1  0
  5  6  2  0
  6  1  1  0
  7  9  1  0
  8  7  2  0
  9 14  1  0
  9 10  2  0
 10 11  1  0
 12 11  2  0
 13 12  1  0
 14 13  2  0
 15  5  1  0
 16 15  2  0
 17 15  1  0
  2 18  1  0
  3 19  1  0
  4 20  1  0
 10 21  1  0
 11 22  1  0
 13 23  1  0
 17 24  1  0
M  ISO  7  18  14  19  14  20  14  21  14  22  14  23  14  24   3
M  END
>  <minimizedAffinity>  (1) 
-5.22500467

>  <minimizedRMSD>  (1) 
1.9421258

$$$$
