
     RDKit          3D

 30 32  0  0  0  0  0  0  0  0999 V2000
   47.7670   34.0340   42.3710 C   0  0  0  0  0  0  0  0  0  0  0  0
   48.5570   35.1730   42.4720 C   0  0  0  0  0  0  0  0  0  0  0  0
   49.0740   35.8550   41.3880 C   0  0  0  0  0  0  0  0  0  0  0  0
   48.7630   35.3400   40.1480 C   0  0  0  0  0  0  0  0  0  0  0  0
   47.9760   34.2060   40.0210 C   0  0  0  0  0  0  0  0  0  0  0  0
   47.4980   33.5780   41.1190 N   0  0  0  0  0  0  0  0  0  0  0  0
   47.6840   33.7130   38.6790 C   0  0  0  0  0  0  0  0  0  0  0  0
   48.5800   33.8820   37.6460 C   0  0  0  0  0  0  0  0  0  0  0  0
   48.2910   33.4120   36.3830 C   0  0  0  0  0  0  0  0  0  0  0  0
   47.0590   32.7790   36.2710 C   0  0  0  0  0  0  0  0  0  0  0  0
   46.1300   32.5900   37.2890 C   0  0  0  0  0  0  0  0  0  0  0  0
   46.5100   33.0870   38.4810 N   0  0  0  0  0  0  0  0  0  0  0  0
   47.2620   33.3730   43.5580 C   0  0  0  0  0  0  0  0  0  0  0  0
   47.7380   32.2360   43.8290 O   0  0  0  0  0  0  0  0  0  0  0  0
   46.2530   34.0410   44.3600 C   0  0  0  0  0  0  0  0  0  0  0  0
   46.0700   33.5210   45.6620 C   0  0  0  0  0  0  0  0  0  0  0  0
   45.1130   34.1370   46.4520 C   0  0  0  0  0  0  0  0  0  0  0  0
   44.4270   35.1840   45.9300 N   0  0  0  0  0  0  0  0  0  0  0  0
   44.6320   35.6530   44.6760 C   0  0  0  0  0  0  0  0  0  0  0  0
   45.5400   35.0820   43.8990 N   0  0  0  0  0  0  0  0  0  0  0  0
   48.7847   35.5551   43.4781 H   0  0  0  0  0  0  0  0  0  0  0  0
   49.6961   36.7544   41.5070 H   0  0  0  0  0  0  0  0  0  0  0  0
   49.1456   35.8370   39.2443 H   0  0  0  0  0  0  0  0  0  0  0  0
   49.5344   34.3966   37.8310 H   0  0  0  0  0  0  0  0  0  0  0  0
   48.9794   33.5285   35.5330 H   0  0  0  0  0  0  0  0  0  0  0  0
   46.7917   32.3883   35.2781 H   0  0  0  0  0  0  0  0  0  0  0  0
   45.1685   32.0789   37.1335 H   0  0  0  0  0  0  0  0  0  0  0  0
   46.6593   32.6682   46.0301 H   0  0  0  0  0  0  0  0  0  0  0  0
   44.9148   33.7862   47.4755 H   0  0  0  0  0  0  0  0  0  0  0  0
   44.0458   36.5061   44.3038 H   0  0  0  0  0  0  0  0  0  0  0  0
  1  2  2  0
  1 13  1  0
  3  2  1  0
  4  3  2  0
  5  4  1  0
  5  6  2  0
  6  1  1  0
  7  5  1  0
  8  7  2  0
  9  8  1  0
 10  9  2  0
 10 11  1  0
 11 12  2  0
 12  7  1  0
 13 14  2  0
 13 15  1  0
 15 16  2  0
 16 17  1  0
 18 17  2  0
 19 18  1  0
 20 15  1  0
 20 19  2  0
  2 21  1  0
  3 22  1  0
  4 23  1  0
  8 24  1  0
  9 25  1  0
 10 26  1  0
 11 27  1  0
 16 28  1  0
 17 29  1  0
 19 30  1  0
M  ISO  8  21  14  22  14  23  14  24  14  25  14  26  14  27  14  28  14
M  ISO  2  29  14  30  14
M  END
>  <minimizedAffinity>  (1) 
-5.3554039

>  <minimizedRMSD>  (1) 
1.21355736

$$$$
