
     RDKit          3D

 28 30  0  0  0  0  0  0  0  0999 V2000
   47.6580   34.0770   42.2480 C   0  0  0  0  0  0  0  0  0  0  0  0
   48.4670   35.1770   42.4780 C   0  0  0  0  0  0  0  0  0  0  0  0
   49.0790   35.8860   41.4610 C   0  0  0  0  0  0  0  0  0  0  0  0
   48.8560   35.4510   40.1790 C   0  0  0  0  0  0  0  0  0  0  0  0
   48.0470   34.3470   39.9230 C   0  0  0  0  0  0  0  0  0  0  0  0
   47.4660   33.6840   40.9630 N   0  0  0  0  0  0  0  0  0  0  0  0
   47.7930   33.8630   38.5590 C   0  0  0  0  0  0  0  0  0  0  0  0
   48.6180   34.1870   37.4840 C   0  0  0  0  0  0  0  0  0  0  0  0
   48.1140   33.5840   36.3510 C   0  0  0  0  0  0  0  0  0  0  0  0
   46.9880   32.9110   36.7980 C   0  0  0  0  0  0  0  0  0  0  0  0
   46.8280   33.0960   38.1050 O   0  0  0  0  0  0  0  0  0  0  0  0
   47.0380   33.3670   43.3550 C   0  0  0  0  0  0  0  0  0  0  0  0
   47.3500   32.1510   43.5000 O   0  0  0  0  0  0  0  0  0  0  0  0
   46.1180   34.0610   44.2190 C   0  0  0  0  0  0  0  0  0  0  0  0
   45.9770   33.5310   45.5270 C   0  0  0  0  0  0  0  0  0  0  0  0
   45.0880   34.1980   46.3700 C   0  0  0  0  0  0  0  0  0  0  0  0
   44.4380   35.2780   45.8910 N   0  0  0  0  0  0  0  0  0  0  0  0
   44.5950   35.7530   44.6480 C   0  0  0  0  0  0  0  0  0  0  0  0
   45.4330   35.1450   43.8150 N   0  0  0  0  0  0  0  0  0  0  0  0
   48.6301   35.5013   43.5164 H   0  0  0  0  0  0  0  0  0  0  0  0
   49.7153   36.7586   41.6700 H   0  0  0  0  0  0  0  0  0  0  0  0
   49.3246   35.9839   39.3385 H   0  0  0  0  0  0  0  0  0  0  0  0
   49.5185   34.8169   37.5311 H   0  0  0  0  0  0  0  0  0  0  0  0
   48.5139   33.6272   35.3272 H   0  0  0  0  0  0  0  0  0  0  0  0
   46.3216   32.3095   36.1622 H   0  0  0  0  0  0  0  0  0  0  0  0
   46.5371   32.6440   45.8580 H   0  0  0  0  0  0  0  0  0  0  0  0
   44.9212   33.8514   47.4005 H   0  0  0  0  0  0  0  0  0  0  0  0
   44.0340   36.6403   44.3193 H   0  0  0  0  0  0  0  0  0  0  0  0
  1  2  2  0
  1 12  1  0
  3  2  1  0
  4  3  2  0
  5  4  1  0
  5  6  2  0
  6  1  1  0
  7  5  1  0
  8  7  2  0
  9 10  2  0
  9  8  1  0
 10 11  1  0
 11  7  1  0
 12 13  2  0
 12 14  1  0
 14 15  2  0
 15 16  1  0
 17 16  2  0
 18 17  1  0
 19 14  1  0
 19 18  2  0
  2 20  1  0
  3 21  1  0
  4 22  1  0
  8 23  1  0
  9 24  1  0
 10 25  1  0
 15 26  1  0
 16 27  1  0
 18 28  1  0
M  ISO  8  20  14  21  14  22  14  23  14  24  14  25  14  26  14  27  14
M  ISO  1  28  14
M  END
>  <minimizedAffinity>  (1) 
-5.27018356

>  <minimizedRMSD>  (1) 
1.24331617

$$$$
