
     RDKit          3D

 24 25  0  0  0  0  0  0  0  0999 V2000
   47.7410   32.8480   43.4760 C   0  0  0  0  0  0  0  0  0  0  0  0
   48.2790   31.7090   43.4800 O   0  0  0  0  0  0  0  0  0  0  0  0
   46.7860   33.2940   44.4750 C   0  0  0  0  0  0  0  0  0  0  0  0
   46.8380   32.5980   45.7090 C   0  0  0  0  0  0  0  0  0  0  0  0
   45.9270   33.0130   46.6800 C   0  0  0  0  0  0  0  0  0  0  0  0
   45.0850   34.0250   46.3770 N   0  0  0  0  0  0  0  0  0  0  0  0
   45.0630   34.6630   45.1970 C   0  0  0  0  0  0  0  0  0  0  0  0
   45.9210   34.2920   44.2430 N   0  0  0  0  0  0  0  0  0  0  0  0
   48.1140   33.7500   42.3980 C   0  0  0  0  0  0  0  0  0  0  0  0
   48.8110   34.9130   42.6500 C   0  0  0  0  0  0  0  0  0  0  0  0
   49.1920   35.8080   41.6740 C   0  0  0  0  0  0  0  0  0  0  0  0
   48.8330   35.4810   40.3710 C   0  0  0  0  0  0  0  0  0  0  0  0
   48.1320   34.3170   40.0960 C   0  0  0  0  0  0  0  0  0  0  0  0
   47.7780   33.4610   41.1050 N   0  0  0  0  0  0  0  0  0  0  0  0
   47.7590   33.9860   38.6960 C   0  0  0  0  0  0  0  0  0  0  0  0
   47.5525   31.7814   45.8894 H   0  0  0  0  0  0  0  0  0  0  0  0
   45.8949   32.5288   47.6672 H   0  0  0  0  0  0  0  0  0  0  0  0
   44.3485   35.4800   45.0178 H   0  0  0  0  0  0  0  0  0  0  0  0
   49.0788   35.1397   43.6925 H   0  0  0  0  0  0  0  0  0  0  0  0
   49.7475   36.7272   41.9117 H   0  0  0  0  0  0  0  0  0  0  0  0
   49.1091   36.1553   39.5469 H   0  0  0  0  0  0  0  0  0  0  0  0
   46.9362   33.2559   38.6986 H   0  0  0  0  0  0  0  0  0  0  0  0
   47.4362   34.9003   38.1766 H   0  0  0  0  0  0  0  0  0  0  0  0
   48.6285   33.5568   38.1766 H   0  0  0  0  0  0  0  0  0  0  0  0
  1  2  2  0
  1  3  1  0
  3  4  2  0
  4  5  1  0
  6  5  2  0
  7  6  1  0
  8  3  1  0
  8  7  2  0
  9 10  2  0
  9  1  1  0
 11 10  1  0
 12 11  2  0
 13 12  1  0
 13 14  2  0
 14  9  1  0
 15 13  1  0
  4 16  1  0
  5 17  1  0
  7 18  1  0
 10 19  1  0
 11 20  1  0
 12 21  1  0
 15 22  1  0
 15 23  1  0
 15 24  1  0
M  ISO  8  16  14  17  14  18  14  19  14  20  14  21  14  22   8  23   8
M  ISO  1  24   8
M  END
>  <minimizedAffinity>  (1) 
-4.54477167

>  <minimizedRMSD>  (1) 
0.366378546

$$$$
