
     RDKit          3D

 28 30  0  0  0  0  0  0  0  0999 V2000
   47.8830   34.0130   42.3110 C   0  0  0  0  0  0  0  0  0  0  0  0
   48.6520   35.1430   42.5020 C   0  0  0  0  0  0  0  0  0  0  0  0
   49.1490   35.8970   41.4500 C   0  0  0  0  0  0  0  0  0  0  0  0
   48.8450   35.4770   40.1690 C   0  0  0  0  0  0  0  0  0  0  0  0
   48.0720   34.3420   39.9720 C   0  0  0  0  0  0  0  0  0  0  0  0
   47.6040   33.6290   41.0290 N   0  0  0  0  0  0  0  0  0  0  0  0
   47.7470   33.8910   38.5930 C   0  0  0  0  0  0  0  0  0  0  0  0
   48.7630   33.1000   37.8210 C   0  0  0  0  0  0  0  0  0  0  0  0
   48.3860   34.5190   37.4120 C   0  0  0  0  0  0  0  0  0  0  0  0
   47.3770   33.2460   43.4400 C   0  0  0  0  0  0  0  0  0  0  0  0
   47.8350   32.0800   43.5970 O   0  0  0  0  0  0  0  0  0  0  0  0
   46.3850   33.8550   44.3130 C   0  0  0  0  0  0  0  0  0  0  0  0
   46.2900   33.3000   45.6060 C   0  0  0  0  0  0  0  0  0  0  0  0
   45.3530   33.8600   46.4610 C   0  0  0  0  0  0  0  0  0  0  0  0
   44.6050   34.8840   46.0070 N   0  0  0  0  0  0  0  0  0  0  0  0
   44.7220   35.3930   44.7590 C   0  0  0  0  0  0  0  0  0  0  0  0
   45.6100   34.8800   43.9140 N   0  0  0  0  0  0  0  0  0  0  0  0
   48.8799   35.4583   43.5309 H   0  0  0  0  0  0  0  0  0  0  0  0
   49.7608   36.7937   41.6279 H   0  0  0  0  0  0  0  0  0  0  0  0
   49.2170   36.0443   39.3031 H   0  0  0  0  0  0  0  0  0  0  0  0
   46.7012   33.7332   38.8953 H   0  0  0  0  0  0  0  0  0  0  0  0
   49.7516   32.8936   38.2569 H   0  0  0  0  0  0  0  0  0  0  0  0
   48.7826   32.1185   37.3248 H   0  0  0  0  0  0  0  0  0  0  0  0
   49.1054   35.3401   37.5471 H   0  0  0  0  0  0  0  0  0  0  0  0
   48.0204   34.9918   36.4885 H   0  0  0  0  0  0  0  0  0  0  0  0
   46.9292   32.4622   45.9214 H   0  0  0  0  0  0  0  0  0  0  0  0
   45.2238   33.4776   47.4843 H   0  0  0  0  0  0  0  0  0  0  0  0
   44.0826   36.2308   44.4440 H   0  0  0  0  0  0  0  0  0  0  0  0
  1  2  2  0
  1 10  1  0
  3  2  1  0
  4  3  2  0
  5  4  1  0
  5  6  2  0
  6  1  1  0
  7  5  1  0
  8  7  1  0
  9  8  1  0
  9  7  1  0
 10 11  2  0
 10 12  1  0
 12 13  2  0
 13 14  1  0
 15 14  2  0
 16 15  1  0
 17 12  1  0
 17 16  2  0
  2 18  1  0
  3 19  1  0
  4 20  1  0
  7 21  1  0
  8 22  1  0
  8 23  1  0
  9 24  1  0
  9 25  1  0
 13 26  1  0
 14 27  1  0
 16 28  1  0
M  ISO  8  18  14  19  14  20  14  21  13  22  13  23  13  24  13  25  13
M  ISO  3  26  14  27  14  28  14
M  END
>  <minimizedAffinity>  (1) 
-5.04105186

>  <minimizedRMSD>  (1) 
0.890913427

$$$$
