
     RDKit          3D

 20 20  0  0  0  0  0  0  0  0999 V2000
   45.7240   34.5990   43.9690 C   0  0  0  0  0  0  0  0  0  0  0  0
   46.7400   33.8640   43.3110 C   0  0  0  0  0  0  0  0  0  0  0  0
   47.3610   32.8600   44.0520 C   0  0  0  0  0  0  0  0  0  0  0  0
   46.9560   32.6580   45.3390 N   0  0  0  0  0  0  0  0  0  0  0  0
   45.9930   33.3730   45.9270 C   0  0  0  0  0  0  0  0  0  0  0  0
   45.3570   34.3680   45.2330 N   0  0  0  0  0  0  0  0  0  0  0  0
   47.1610   34.1110   41.9310 C   0  0  0  0  0  0  0  0  0  0  0  0
   45.9960   34.2790   41.0260 C   0  0  0  0  0  0  0  0  0  0  0  0
   48.0540   35.3480   41.9330 C   0  0  0  0  0  0  0  0  0  0  0  0
   44.9060   35.8930   43.0470 S   0  0  0  0  0  0  0  0  0  0  0  0
   48.1587   32.2452   43.6096 H   0  0  0  0  0  0  0  0  0  0  0  0
   45.7106   33.1626   46.9691 H   0  0  0  0  0  0  0  0  0  0  0  0
   47.7196   33.2446   41.5472 H   0  0  0  0  0  0  0  0  0  0  0  0
   45.0826   34.4107   41.6247 H   0  0  0  0  0  0  0  0  0  0  0  0
   46.1493   35.1643   40.3914 H   0  0  0  0  0  0  0  0  0  0  0  0
   45.8929   33.3864   40.3914 H   0  0  0  0  0  0  0  0  0  0  0  0
   48.2678   35.6442   42.9706 H   0  0  0  0  0  0  0  0  0  0  0  0
   48.9972   35.1201   41.4149 H   0  0  0  0  0  0  0  0  0  0  0  0
   47.5408   36.1716   41.4149 H   0  0  0  0  0  0  0  0  0  0  0  0
   44.3409   36.7869   43.9179 H   0  0  0  0  0  0  0  0  0  0  0  0
  1  6  2  0
  2  1  1  0
  2  3  2  0
  3  4  1  0
  4  5  2  0
  6  5  1  0
  7  9  1  0
  7  2  1  0
  8  7  1  0
 10  1  1  0
  3 11  1  0
  5 12  1  0
  7 13  1  0
  8 14  1  0
  8 15  1  0
  8 16  1  0
  9 17  1  0
  9 18  1  0
  9 19  1  0
 10 20  1  0
M  ISO  8  11  14  12  14  13   8  14   8  15   8  16   8  17   8  18   8
M  ISO  2  19   8  20  11
M  END
>  <minimizedAffinity>  (1) 
-3.39113498

>  <minimizedRMSD>  (1) 
1.63424683

$$$$
