
     RDKit          3D

 22 23  0  0  0  0  0  0  0  0999 V2000
   47.6740   32.7060   43.6110 C   0  0  0  0  0  0  0  0  0  0  0  0
   48.2000   31.5570   43.5780 O   0  0  0  0  0  0  0  0  0  0  0  0
   46.7590   33.1370   44.6550 C   0  0  0  0  0  0  0  0  0  0  0  0
   46.8280   32.4100   45.8600 C   0  0  0  0  0  0  0  0  0  0  0  0
   45.9660   32.7960   46.8790 C   0  0  0  0  0  0  0  0  0  0  0  0
   45.1240   33.8440   46.6340 N   0  0  0  0  0  0  0  0  0  0  0  0
   45.0890   34.5150   45.4660 C   0  0  0  0  0  0  0  0  0  0  0  0
   45.9010   34.1600   44.4880 N   0  0  0  0  0  0  0  0  0  0  0  0
   48.0140   33.6360   42.5390 C   0  0  0  0  0  0  0  0  0  0  0  0
   48.9170   34.6610   42.7510 C   0  0  0  0  0  0  0  0  0  0  0  0
   49.2680   35.5610   41.7710 C   0  0  0  0  0  0  0  0  0  0  0  0
   48.6820   35.4140   40.5390 C   0  0  0  0  0  0  0  0  0  0  0  0
   47.7650   34.3790   40.3100 C   0  0  0  0  0  0  0  0  0  0  0  0
   47.4590   33.5240   41.3110 N   0  0  0  0  0  0  0  0  0  0  0  0
   47.1050   34.1170   39.1210 O   0  0  0  0  0  0  0  0  0  0  0  0
   47.5323   31.5748   45.9881 H   0  0  0  0  0  0  0  0  0  0  0  0
   45.9615   32.2764   47.8485 H   0  0  0  0  0  0  0  0  0  0  0  0
   44.3890   35.3523   45.3287 H   0  0  0  0  0  0  0  0  0  0  0  0
   49.3748   34.7615   43.7462 H   0  0  0  0  0  0  0  0  0  0  0  0
   49.9903   36.3670   41.9676 H   0  0  0  0  0  0  0  0  0  0  0  0
   48.9332   36.1121   39.7268 H   0  0  0  0  0  0  0  0  0  0  0  0
   46.4732   33.3570   39.0626 H   0  0  0  0  0  0  0  0  0  0  0  0
  1  3  1  0
  2  1  2  0
  3  4  2  0
  4  5  1  0
  6  5  2  0
  7  6  1  0
  8  3  1  0
  8  7  2  0
  9 10  2  0
  9  1  1  0
 11 10  1  0
 12 11  2  0
 13 12  1  0
 13 14  2  0
 14  9  1  0
 15 13  1  0
  4 16  1  0
  5 17  1  0
  7 18  1  0
 10 19  1  0
 11 20  1  0
 12 21  1  0
 15 22  1  0
M  ISO  7  16  14  17  14  18  14  19  14  20  14  21  14  22   3
M  END
>  <minimizedAffinity>  (1) 
-4.61487341

>  <minimizedRMSD>  (1) 
0.0687965378

$$$$
