
     RDKit          3D

 29 31  0  0  0  0  0  0  0  0999 V2000
   46.9260   33.4180   43.1700 C   0  0  0  0  0  0  0  0  0  0  0  0
   47.4010   32.1770   42.8210 C   0  0  0  0  0  0  0  0  0  0  0  0
   47.6100   31.1780   43.7450 C   0  0  0  0  0  0  0  0  0  0  0  0
   47.3270   31.4570   45.0510 C   0  0  0  0  0  0  0  0  0  0  0  0
   46.8410   32.7150   45.4340 C   0  0  0  0  0  0  0  0  0  0  0  0
   46.6560   33.6580   44.4830 N   0  0  0  0  0  0  0  0  0  0  0  0
   46.7150   34.4610   42.1610 C   0  0  0  0  0  0  0  0  0  0  0  0
   46.4140   35.6200   42.5720 O   0  0  0  0  0  0  0  0  0  0  0  0
   46.8570   34.1250   40.7610 C   0  0  0  0  0  0  0  0  0  0  0  0
   48.0430   34.5510   40.1470 C   0  0  0  0  0  0  0  0  0  0  0  0
   48.2080   34.2410   38.7970 C   0  0  0  0  0  0  0  0  0  0  0  0
   47.2060   33.5500   38.1810 N   0  0  0  0  0  0  0  0  0  0  0  0
   46.0850   33.1610   38.8070 C   0  0  0  0  0  0  0  0  0  0  0  0
   45.9150   33.4470   40.0860 N   0  0  0  0  0  0  0  0  0  0  0  0
   46.5210   33.1160   46.7090 O   0  0  0  0  0  0  0  0  0  0  0  0
   46.5000   32.2780   47.8150 C   0  0  0  0  0  0  0  0  0  0  0  0
   45.2220   31.9520   48.2330 C   0  0  0  0  0  0  0  0  0  0  0  0
   45.3400   31.1100   49.3450 C   0  0  0  0  0  0  0  0  0  0  0  0
   46.6750   30.9780   49.5320 N   0  0  0  0  0  0  0  0  0  0  0  0
   47.3720   31.6590   48.6410 N   0  0  0  0  0  0  0  0  0  0  0  0
   47.6228   31.9738   41.7629 H   0  0  0  0  0  0  0  0  0  0  0  0
   47.9909   30.1915   43.4421 H   0  0  0  0  0  0  0  0  0  0  0  0
   47.4829   30.6818   45.8157 H   0  0  0  0  0  0  0  0  0  0  0  0
   48.8108   35.1061   40.7059 H   0  0  0  0  0  0  0  0  0  0  0  0
   49.1129   34.5427   38.2492 H   0  0  0  0  0  0  0  0  0  0  0  0
   45.3102   32.6060   38.2577 H   0  0  0  0  0  0  0  0  0  0  0  0
   44.2823   32.2931   47.7741 H   0  0  0  0  0  0  0  0  0  0  0  0
   44.5297   30.6569   49.9350 H   0  0  0  0  0  0  0  0  0  0  0  0
   47.0973   30.4122   50.2820 H   0  0  0  0  0  0  0  0  0  0  0  0
  1  6  1  0
  2  1  2  0
  2  3  1  0
  3  4  2  0
  4  5  1  0
  5 15  1  0
  6  5  2  0
  7  8  2  0
  7  1  1  0
  9  7  1  0
 10  9  2  0
 11 10  1  0
 12 11  2  0
 12 13  1  0
 13 14  2  0
 14  9  1  0
 15 16  1  0
 16 17  1  0
 16 20  2  0
 17 18  2  0
 18 19  1  0
 20 19  1  0
  2 21  1  0
  3 22  1  0
  4 23  1  0
 10 24  1  0
 11 25  1  0
 13 26  1  0
 17 27  1  0
 18 28  1  0
 19 29  1  0
M  ISO  8  21  14  22  14  23  14  24  14  25  14  26  14  27  14  28  14
M  ISO  1  29   9
M  END
>  <minimizedAffinity>  (1) 
-5.2424016

>  <minimizedRMSD>  (1) 
7.95624924

$$$$
