
     RDKit          3D

 25 26  0  0  0  0  0  0  0  0999 V2000
   47.9990   33.8060   42.5150 C   0  0  0  0  0  0  0  0  0  0  0  0
   48.8200   34.9070   42.7440 C   0  0  0  0  0  0  0  0  0  0  0  0
   49.2310   35.7500   41.7390 C   0  0  0  0  0  0  0  0  0  0  0  0
   48.7990   35.4730   40.4620 C   0  0  0  0  0  0  0  0  0  0  0  0
   47.9690   34.3650   40.2130 C   0  0  0  0  0  0  0  0  0  0  0  0
   47.5960   33.5670   41.2450 N   0  0  0  0  0  0  0  0  0  0  0  0
   47.5930   32.9450   43.6140 C   0  0  0  0  0  0  0  0  0  0  0  0
   48.1100   31.8040   43.6780 O   0  0  0  0  0  0  0  0  0  0  0  0
   46.6140   33.4480   44.5730 C   0  0  0  0  0  0  0  0  0  0  0  0
   46.5940   32.7870   45.8200 C   0  0  0  0  0  0  0  0  0  0  0  0
   45.6740   33.2420   46.7590 C   0  0  0  0  0  0  0  0  0  0  0  0
   44.8670   34.2810   46.4010 N   0  0  0  0  0  0  0  0  0  0  0  0
   44.9160   34.8850   45.2020 C   0  0  0  0  0  0  0  0  0  0  0  0
   45.7770   34.4770   44.2940 N   0  0  0  0  0  0  0  0  0  0  0  0
   47.4680   33.9760   38.9930 O   0  0  0  0  0  0  0  0  0  0  0  0
   48.3560   33.9740   37.9280 C   0  0  0  0  0  0  0  0  0  0  0  0
   48.1080   34.7400   36.9530 O   0  0  0  0  0  0  0  0  0  0  0  0
   49.5000   33.2090   37.8280 O   0  0  0  0  0  0  0  0  0  0  0  0
   49.1537   35.1108   43.7722 H   0  0  0  0  0  0  0  0  0  0  0  0
   49.8804   36.6130   41.9475 H   0  0  0  0  0  0  0  0  0  0  0  0
   49.1053   36.1233   39.6294 H   0  0  0  0  0  0  0  0  0  0  0  0
   47.2743   31.9509   46.0391 H   0  0  0  0  0  0  0  0  0  0  0  0
   45.6002   32.7801   47.7546 H   0  0  0  0  0  0  0  0  0  0  0  0
   44.2364   35.7207   44.9791 H   0  0  0  0  0  0  0  0  0  0  0  0
   50.0729   33.2780   37.0236 H   0  0  0  0  0  0  0  0  0  0  0  0
  1  2  2  0
  1  7  1  0
  3  2  1  0
  4  3  2  0
  5  4  1  0
  5  6  2  0
  6  1  1  0
  7  8  2  0
  7  9  1  0
  9 10  2  0
 10 11  1  0
 12 11  2  0
 13 12  1  0
 14  9  1  0
 14 13  2  0
 15  5  1  0
 16 15  1  0
 17 16  2  0
 18 16  1  0
  2 19  1  0
  3 20  1  0
  4 21  1  0
 10 22  1  0
 11 23  1  0
 13 24  1  0
 18 25  1  0
M  ISO  7  19  14  20  14  21  14  22  14  23  14  24  14  25   3
M  END
>  <minimizedAffinity>  (1) 
-4.97301769

>  <minimizedRMSD>  (1) 
1.63384748

$$$$
