
     RDKit          3D

 30 32  0  0  0  0  0  0  0  0999 V2000
   47.6230   34.0980   42.1990 C   0  0  0  0  0  0  0  0  0  0  0  0
   48.5010   35.1060   42.5330 C   0  0  0  0  0  0  0  0  0  0  0  0
   49.1640   35.8510   41.5850 C   0  0  0  0  0  0  0  0  0  0  0  0
   48.9240   35.5560   40.2730 C   0  0  0  0  0  0  0  0  0  0  0  0
   48.0290   34.5280   39.9040 C   0  0  0  0  0  0  0  0  0  0  0  0
   47.4100   33.8360   40.8860 N   0  0  0  0  0  0  0  0  0  0  0  0
   46.9420   33.3360   43.2440 C   0  0  0  0  0  0  0  0  0  0  0  0
   47.1560   32.1020   43.3040 O   0  0  0  0  0  0  0  0  0  0  0  0
   46.0530   34.0450   44.1640 C   0  0  0  0  0  0  0  0  0  0  0  0
   45.9690   33.4860   45.4610 C   0  0  0  0  0  0  0  0  0  0  0  0
   45.1340   34.1320   46.3620 C   0  0  0  0  0  0  0  0  0  0  0  0
   44.4670   35.2470   45.9240 N   0  0  0  0  0  0  0  0  0  0  0  0
   44.5790   35.7420   44.6780 C   0  0  0  0  0  0  0  0  0  0  0  0
   45.3700   35.1390   43.8060 N   0  0  0  0  0  0  0  0  0  0  0  0
   47.6950   34.1290   38.6390 O   0  0  0  0  0  0  0  0  0  0  0  0
   48.4630   33.2060   37.9670 C   0  0  0  0  0  0  0  0  0  0  0  0
   48.0980   33.3330   36.6180 C   0  0  0  0  0  0  0  0  0  0  0  0
   48.6680   32.5530   35.6030 C   0  0  0  0  0  0  0  0  0  0  0  0
   49.6170   31.6290   35.9260 N   0  0  0  0  0  0  0  0  0  0  0  0
   49.9600   31.5160   37.2400 C   0  0  0  0  0  0  0  0  0  0  0  0
   49.4000   32.2750   38.1870 N   0  0  0  0  0  0  0  0  0  0  0  0
   48.6784   35.3231   43.5967 H   0  0  0  0  0  0  0  0  0  0  0  0
   49.8601   36.6528   41.8724 H   0  0  0  0  0  0  0  0  0  0  0  0
   49.4381   36.1306   39.4884 H   0  0  0  0  0  0  0  0  0  0  0  0
   46.5361   32.5860   45.7408 H   0  0  0  0  0  0  0  0  0  0  0  0
   45.0117   33.7626   47.3909 H   0  0  0  0  0  0  0  0  0  0  0  0
   44.0169   36.6415   44.3866 H   0  0  0  0  0  0  0  0  0  0  0  0
   47.3331   34.0753   36.3462 H   0  0  0  0  0  0  0  0  0  0  0  0
   48.3533   32.6847   34.5573 H   0  0  0  0  0  0  0  0  0  0  0  0
   50.7214   30.7771   37.5303 H   0  0  0  0  0  0  0  0  0  0  0  0
  1  2  2  0
  1  7  1  0
  3  2  1  0
  4  3  2  0
  5  4  1  0
  5  6  2  0
  6  1  1  0
  7  8  2  0
  7  9  1  0
  9 10  2  0
 10 11  1  0
 12 11  2  0
 13 12  1  0
 14  9  1  0
 14 13  2  0
 15  5  1  0
 16 21  1  0
 16 15  1  0
 17 16  2  0
 18 19  2  0
 18 17  1  0
 19 20  1  0
 20 21  2  0
  2 22  1  0
  3 23  1  0
  4 24  1  0
 10 25  1  0
 11 26  1  0
 13 27  1  0
 17 28  1  0
 18 29  1  0
 20 30  1  0
M  ISO  8  22  14  23  14  24  14  25  14  26  14  27  14  28  14  29  14
M  ISO  1  30  14
M  END
>  <minimizedAffinity>  (1) 
-5.19316626

>  <minimizedRMSD>  (1) 
2.39729118

$$$$
