
     RDKit          3D

 31 33  0  0  0  0  0  0  0  0999 V2000
   47.9730   33.7740   42.1520 C   0  0  0  0  0  0  0  0  0  0  0  0
   48.7620   34.7900   42.6840 C   0  0  0  0  0  0  0  0  0  0  0  0
   50.1300   34.7390   42.6900 C   0  0  0  0  0  0  0  0  0  0  0  0
   50.7170   33.6180   42.1350 C   0  0  0  0  0  0  0  0  0  0  0  0
   49.9450   32.5930   41.5980 C   0  0  0  0  0  0  0  0  0  0  0  0
   48.5960   32.7000   41.6210 N   0  0  0  0  0  0  0  0  0  0  0  0
   46.5170   33.8790   42.1740 C   0  0  0  0  0  0  0  0  0  0  0  0
   45.8930   33.5130   41.1330 O   0  0  0  0  0  0  0  0  0  0  0  0
   45.8630   34.3860   43.3590 C   0  0  0  0  0  0  0  0  0  0  0  0
   45.9810   33.5690   44.5080 C   0  0  0  0  0  0  0  0  0  0  0  0
   45.3610   34.0320   45.6630 C   0  0  0  0  0  0  0  0  0  0  0  0
   44.6950   35.2280   45.5940 N   0  0  0  0  0  0  0  0  0  0  0  0
   44.6100   35.9730   44.4730 C   0  0  0  0  0  0  0  0  0  0  0  0
   45.1930   35.5460   43.3680 N   0  0  0  0  0  0  0  0  0  0  0  0
   50.4080   31.4420   41.0260 O   0  0  0  0  0  0  0  0  0  0  0  0
   51.1480   31.4560   39.8690 C   0  0  0  0  0  0  0  0  0  0  0  0
   52.4690   31.1770   40.2480 C   0  0  0  0  0  0  0  0  0  0  0  0
   53.5280   31.1050   39.3310 C   0  0  0  0  0  0  0  0  0  0  0  0
   53.2810   31.3140   37.9890 C   0  0  0  0  0  0  0  0  0  0  0  0
   51.9720   31.5860   37.6510 C   0  0  0  0  0  0  0  0  0  0  0  0
   50.9850   31.6480   38.5520 N   0  0  0  0  0  0  0  0  0  0  0  0
   48.2655   35.6706   43.1177 H   0  0  0  0  0  0  0  0  0  0  0  0
   50.7342   35.5530   43.1170 H   0  0  0  0  0  0  0  0  0  0  0  0
   51.8137   33.5347   42.1175 H   0  0  0  0  0  0  0  0  0  0  0  0
   46.5338   32.6182   44.4885 H   0  0  0  0  0  0  0  0  0  0  0  0
   45.4035   33.4580   46.6004 H   0  0  0  0  0  0  0  0  0  0  0  0
   44.0609   36.9261   44.4792 H   0  0  0  0  0  0  0  0  0  0  0  0
   52.6846   31.0068   41.3132 H   0  0  0  0  0  0  0  0  0  0  0  0
   54.5478   30.8836   39.6787 H   0  0  0  0  0  0  0  0  0  0  0  0
   54.0802   31.2664   37.2347 H   0  0  0  0  0  0  0  0  0  0  0  0
   51.7283   31.7599   36.5925 H   0  0  0  0  0  0  0  0  0  0  0  0
  1  7  1  0
  1  2  2  0
  2  3  1  0
  4  3  2  0
  5  6  2  0
  5  4  1  0
  6  1  1  0
  7  9  1  0
  8  7  2  0
  9 14  1  0
  9 10  2  0
 10 11  1  0
 12 11  2  0
 13 12  1  0
 14 13  2  0
 15  5  1  0
 16 17  2  0
 16 15  1  0
 18 17  1  0
 19 18  2  0
 20 19  1  0
 20 21  2  0
 21 16  1  0
  2 22  1  0
  3 23  1  0
  4 24  1  0
 10 25  1  0
 11 26  1  0
 13 27  1  0
 17 28  1  0
 18 29  1  0
 19 30  1  0
 20 31  1  0
M  ISO  8  22  14  23  14  24  14  25  14  26  14  27  14  28  14  29  14
M  ISO  2  30  14  31  14
M  END
>  <minimizedAffinity>  (1) 
-5.22036743

>  <minimizedRMSD>  (1) 
4.01399899

$$$$
