
     RDKit          3D

 32 34  0  0  0  0  0  0  0  0999 V2000
   47.9680   33.7170   42.2330 C   0  0  0  0  0  0  0  0  0  0  0  0
   48.7080   34.7850   42.6810 C   0  0  0  0  0  0  0  0  0  0  0  0
   50.0890   34.7890   42.6760 C   0  0  0  0  0  0  0  0  0  0  0  0
   50.7170   33.6770   42.2020 C   0  0  0  0  0  0  0  0  0  0  0  0
   49.9760   32.5690   41.7370 C   0  0  0  0  0  0  0  0  0  0  0  0
   48.6280   32.6350   41.7720 N   0  0  0  0  0  0  0  0  0  0  0  0
   46.5090   33.7650   42.2610 C   0  0  0  0  0  0  0  0  0  0  0  0
   45.8860   33.3110   41.2620 O   0  0  0  0  0  0  0  0  0  0  0  0
   45.8460   34.3280   43.4310 C   0  0  0  0  0  0  0  0  0  0  0  0
   45.9300   33.5660   44.6120 C   0  0  0  0  0  0  0  0  0  0  0  0
   45.3080   34.0790   45.7380 C   0  0  0  0  0  0  0  0  0  0  0  0
   44.6650   35.2710   45.6270 N   0  0  0  0  0  0  0  0  0  0  0  0
   44.6030   35.9780   44.4740 C   0  0  0  0  0  0  0  0  0  0  0  0
   45.1890   35.5040   43.3950 N   0  0  0  0  0  0  0  0  0  0  0  0
   50.4770   31.3890   41.2350 O   0  0  0  0  0  0  0  0  0  0  0  0
   51.1760   31.4140   40.0360 C   0  0  0  0  0  0  0  0  0  0  0  0
   52.5340   31.2360   40.2360 C   0  0  0  0  0  0  0  0  0  0  0  0
   53.4320   31.2240   39.1840 C   0  0  0  0  0  0  0  0  0  0  0  0
   52.9460   31.3970   37.8920 C   0  0  0  0  0  0  0  0  0  0  0  0
   51.5920   31.5730   37.6980 C   0  0  0  0  0  0  0  0  0  0  0  0
   50.7010   31.5840   38.7520 C   0  0  0  0  0  0  0  0  0  0  0  0
   48.1790   35.6724   43.0588 H   0  0  0  0  0  0  0  0  0  0  0  0
   50.6594   35.6560   43.0404 H   0  0  0  0  0  0  0  0  0  0  0  0
   51.8162   33.6419   42.1813 H   0  0  0  0  0  0  0  0  0  0  0  0
   46.4659   32.6058   44.6391 H   0  0  0  0  0  0  0  0  0  0  0  0
   45.3337   33.5371   46.6949 H   0  0  0  0  0  0  0  0  0  0  0  0
   44.0684   36.9387   44.4394 H   0  0  0  0  0  0  0  0  0  0  0  0
   52.9098   31.1002   41.2608 H   0  0  0  0  0  0  0  0  0  0  0  0
   54.5075   31.0807   39.3651 H   0  0  0  0  0  0  0  0  0  0  0  0
   53.6345   31.3934   37.0341 H   0  0  0  0  0  0  0  0  0  0  0  0
   51.2116   31.7084   36.6748 H   0  0  0  0  0  0  0  0  0  0  0  0
   49.6255   31.7265   38.5705 H   0  0  0  0  0  0  0  0  0  0  0  0
  1  7  1  0
  1  2  2  0
  3  2  1  0
  4  3  2  0
  5  6  2  0
  5  4  1  0
  6  1  1  0
  7  9  1  0
  8  7  2  0
  9 10  2  0
 10 11  1  0
 12 11  2  0
 13 12  1  0
 14  9  1  0
 14 13  2  0
 15  5  1  0
 16 17  2  0
 16 15  1  0
 18 17  1  0
 19 18  2  0
 20 19  1  0
 20 21  2  0
 21 16  1  0
  2 22  1  0
  3 23  1  0
  4 24  1  0
 10 25  1  0
 11 26  1  0
 13 27  1  0
 17 28  1  0
 18 29  1  0
 19 30  1  0
 20 31  1  0
 21 32  1  0
M  ISO  8  22  14  23  14  24  14  25  14  26  14  27  14  28  14  29  14
M  ISO  3  30  14  31  14  32  14
M  END
>  <minimizedAffinity>  (1) 
-5.22294855

>  <minimizedRMSD>  (1) 
4.18391323

$$$$
