
     RDKit          3D

 38 40  0  0  0  0  0  0  0  0999 V2000
   47.7220   34.0240   42.4620 C   0  0  0  0  0  0  0  0  0  0  0  0
   48.6380   35.0540   42.5440 C   0  0  0  0  0  0  0  0  0  0  0  0
   49.1160   35.7210   41.4410 C   0  0  0  0  0  0  0  0  0  0  0  0
   48.6470   35.3320   40.2050 C   0  0  0  0  0  0  0  0  0  0  0  0
   47.7200   34.2900   40.1110 C   0  0  0  0  0  0  0  0  0  0  0  0
   47.3000   33.6840   41.2330 N   0  0  0  0  0  0  0  0  0  0  0  0
   47.2480   33.3490   43.6550 C   0  0  0  0  0  0  0  0  0  0  0  0
   47.7430   32.2150   43.9250 O   0  0  0  0  0  0  0  0  0  0  0  0
   46.2420   33.9940   44.4760 C   0  0  0  0  0  0  0  0  0  0  0  0
   46.0690   33.4590   45.7670 C   0  0  0  0  0  0  0  0  0  0  0  0
   45.1120   34.0550   46.5780 C   0  0  0  0  0  0  0  0  0  0  0  0
   44.4120   35.1090   46.0670 N   0  0  0  0  0  0  0  0  0  0  0  0
   44.6070   35.5890   44.8260 C   0  0  0  0  0  0  0  0  0  0  0  0
   45.5140   35.0320   44.0460 N   0  0  0  0  0  0  0  0  0  0  0  0
   47.1660   33.7960   38.9350 O   0  0  0  0  0  0  0  0  0  0  0  0
   47.7960   32.9390   38.0390 C   0  0  0  0  0  0  0  0  0  0  0  0
   49.0580   32.3120   38.5850 C   0  0  0  0  0  0  0  0  0  0  0  0
   49.9900   31.8650   37.4920 C   0  0  0  0  0  0  0  0  0  0  0  0
   49.2820   31.6500   36.1730 C   0  0  0  0  0  0  0  0  0  0  0  0
   48.6600   32.9120   35.6680 C   0  0  0  0  0  0  0  0  0  0  0  0
   48.2310   33.7710   36.8360 C   0  0  0  0  0  0  0  0  0  0  0  0
   49.0020   35.3547   43.5375 H   0  0  0  0  0  0  0  0  0  0  0  0
   49.8472   36.5366   41.5415 H   0  0  0  0  0  0  0  0  0  0  0  0
   49.0009   35.8397   39.2956 H   0  0  0  0  0  0  0  0  0  0  0  0
   46.6667   32.6050   46.1184 H   0  0  0  0  0  0  0  0  0  0  0  0
   44.9245   33.6895   47.5984 H   0  0  0  0  0  0  0  0  0  0  0  0
   44.0137   36.4412   44.4631 H   0  0  0  0  0  0  0  0  0  0  0  0
   47.0797   32.1374   37.8058 H   0  0  0  0  0  0  0  0  0  0  0  0
   49.5773   33.0507   39.2131 H   0  0  0  0  0  0  0  0  0  0  0  0
   48.7693   31.4240   39.1664 H   0  0  0  0  0  0  0  0  0  0  0  0
   50.7650   32.6334   37.3543 H   0  0  0  0  0  0  0  0  0  0  0  0
   50.4227   30.9010   37.7979 H   0  0  0  0  0  0  0  0  0  0  0  0
   50.0106   31.2901   35.4317 H   0  0  0  0  0  0  0  0  0  0  0  0
   48.4818   30.9116   36.3294 H   0  0  0  0  0  0  0  0  0  0  0  0
   49.3921   33.4623   35.0588 H   0  0  0  0  0  0  0  0  0  0  0  0
   47.7808   32.6650   35.0549 H   0  0  0  0  0  0  0  0  0  0  0  0
   49.0756   34.4094   37.1344 H   0  0  0  0  0  0  0  0  0  0  0  0
   47.3678   34.3712   36.5126 H   0  0  0  0  0  0  0  0  0  0  0  0
  1  2  2  0
  1  7  1  0
  3  2  1  0
  4  3  2  0
  5  4  1  0
  5  6  2  0
  6  1  1  0
  7  8  2  0
  7  9  1  0
  9 10  2  0
 10 11  1  0
 12 11  2  0
 13 12  1  0
 14  9  1  0
 14 13  2  0
 15  5  1  0
 16 17  1  0
 16 15  1  0
 18 17  1  0
 19 18  1  0
 20 19  1  0
 20 21  1  0
 21 16  1  0
  2 22  1  0
  3 23  1  0
  4 24  1  0
 10 25  1  0
 11 26  1  0
 13 27  1  0
 16 28  1  0
 17 29  1  0
 17 30  1  0
 18 31  1  0
 18 32  1  0
 19 33  1  0
 19 34  1  0
 20 35  1  0
 20 36  1  0
 21 37  1  0
 21 38  1  0
M  ISO  8  22  14  23  14  24  14  25  14  26  14  27  14  28  13  29  13
M  ISO  8  30  13  31  13  32  13  33  13  34  13  35  13  36  13  37  13
M  ISO  1  38  13
M  END
>  <minimizedAffinity>  (1) 
-5.21557903

>  <minimizedRMSD>  (1) 
2.77450204

$$$$
