
     RDKit          3D

 29 31  0  0  0  0  0  0  0  0999 V2000
   46.0730   32.9130   44.1550 C   0  0  0  0  0  0  0  0  0  0  0  0
   47.3030   33.3520   43.7330 C   0  0  0  0  0  0  0  0  0  0  0  0
   47.4710   34.4950   42.9880 C   0  0  0  0  0  0  0  0  0  0  0  0
   46.3390   35.2080   42.6720 C   0  0  0  0  0  0  0  0  0  0  0  0
   45.0830   34.7830   43.0890 C   0  0  0  0  0  0  0  0  0  0  0  0
   44.9930   33.6480   43.8180 N   0  0  0  0  0  0  0  0  0  0  0  0
   45.9580   31.6900   44.9420 C   0  0  0  0  0  0  0  0  0  0  0  0
   45.5700   30.6430   44.3360 O   0  0  0  0  0  0  0  0  0  0  0  0
   46.2800   31.7130   46.3480 C   0  0  0  0  0  0  0  0  0  0  0  0
   47.4050   30.9590   46.7310 C   0  0  0  0  0  0  0  0  0  0  0  0
   47.7350   30.9650   48.0900 C   0  0  0  0  0  0  0  0  0  0  0  0
   46.9490   31.6940   48.9240 N   0  0  0  0  0  0  0  0  0  0  0  0
   45.8750   32.4080   48.5210 C   0  0  0  0  0  0  0  0  0  0  0  0
   45.5550   32.4080   47.2400 N   0  0  0  0  0  0  0  0  0  0  0  0
   43.8760   35.3890   42.8470 O   0  0  0  0  0  0  0  0  0  0  0  0
   43.2920   35.2610   41.5990 C   0  0  0  0  0  0  0  0  0  0  0  0
   41.9220   35.4090   41.7050 C   0  0  0  0  0  0  0  0  0  0  0  0
   41.3540   35.2760   40.4320 C   0  0  0  0  0  0  0  0  0  0  0  0
   42.4590   35.0480   39.6130 C   0  0  0  0  0  0  0  0  0  0  0  0
   43.5280   35.0530   40.3420 O   0  0  0  0  0  0  0  0  0  0  0  0
   48.1927   32.7639   44.0025 H   0  0  0  0  0  0  0  0  0  0  0  0
   48.4676   34.8246   42.6591 H   0  0  0  0  0  0  0  0  0  0  0  0
   46.4286   36.1303   42.0792 H   0  0  0  0  0  0  0  0  0  0  0  0
   47.9963   30.3922   45.9967 H   0  0  0  0  0  0  0  0  0  0  0  0
   48.5993   30.4002   48.4695 H   0  0  0  0  0  0  0  0  0  0  0  0
   45.2779   32.9791   49.2472 H   0  0  0  0  0  0  0  0  0  0  0  0
   41.3687   35.5999   42.6363 H   0  0  0  0  0  0  0  0  0  0  0  0
   40.2932   35.3367   40.1472 H   0  0  0  0  0  0  0  0  0  0  0  0
   42.4272   34.8897   38.5249 H   0  0  0  0  0  0  0  0  0  0  0  0
  1  7  1  0
  2  1  2  0
  3  2  1  0
  4  3  2  0
  4  5  1  0
  5  6  2  0
  6  1  1  0
  7  9  1  0
  8  7  2  0
  9 10  2  0
  9 14  1  0
 10 11  1  0
 11 12  2  0
 13 12  1  0
 14 13  2  0
 15  5  1  0
 16 17  2  0
 16 15  1  0
 18 17  1  0
 19 20  1  0
 19 18  2  0
 20 16  1  0
  2 21  1  0
  3 22  1  0
  4 23  1  0
 10 24  1  0
 11 25  1  0
 13 26  1  0
 17 27  1  0
 18 28  1  0
 19 29  1  0
M  ISO  8  21  14  22  14  23  14  24  14  25  14  26  14  27  14  28  14
M  ISO  1  29  14
M  END
>  <minimizedAffinity>  (1) 
-4.9605689

>  <minimizedRMSD>  (1) 
4.30576038

$$$$
