
     RDKit          3D

 28 29  0  0  0  0  0  0  0  0999 V2000
   47.8220   33.9980   42.5300 C   0  0  0  0  0  0  0  0  0  0  0  0
   48.7130   35.0310   42.6910 C   0  0  0  0  0  0  0  0  0  0  0  0
   49.2060   35.7630   41.6350 C   0  0  0  0  0  0  0  0  0  0  0  0
   48.7770   35.4340   40.3780 C   0  0  0  0  0  0  0  0  0  0  0  0
   47.8740   34.3900   40.2030 C   0  0  0  0  0  0  0  0  0  0  0  0
   47.4290   33.7120   41.2740 N   0  0  0  0  0  0  0  0  0  0  0  0
   47.3230   33.2460   43.6720 C   0  0  0  0  0  0  0  0  0  0  0  0
   47.7900   32.0820   43.8650 O   0  0  0  0  0  0  0  0  0  0  0  0
   46.3250   33.8440   44.5330 C   0  0  0  0  0  0  0  0  0  0  0  0
   46.2090   33.2920   45.8150 C   0  0  0  0  0  0  0  0  0  0  0  0
   45.2520   33.8490   46.6690 C   0  0  0  0  0  0  0  0  0  0  0  0
   44.5130   34.8800   46.1870 N   0  0  0  0  0  0  0  0  0  0  0  0
   44.6530   35.3840   44.9490 C   0  0  0  0  0  0  0  0  0  0  0  0
   45.5450   34.8760   44.1300 N   0  0  0  0  0  0  0  0  0  0  0  0
   47.3570   33.9480   38.9890 O   0  0  0  0  0  0  0  0  0  0  0  0
   48.0130   33.1440   38.0610 C   0  0  0  0  0  0  0  0  0  0  0  0
   48.4990   34.0680   36.9470 C   0  0  0  0  0  0  0  0  0  0  0  0
   49.0469   35.2841   43.7081 H   0  0  0  0  0  0  0  0  0  0  0  0
   49.9201   36.5841   41.7959 H   0  0  0  0  0  0  0  0  0  0  0  0
   49.1458   35.9946   39.5064 H   0  0  0  0  0  0  0  0  0  0  0  0
   46.8450   32.4542   46.1370 H   0  0  0  0  0  0  0  0  0  0  0  0
   45.1043   33.4670   47.6899 H   0  0  0  0  0  0  0  0  0  0  0  0
   44.0203   36.2222   44.6217 H   0  0  0  0  0  0  0  0  0  0  0  0
   48.8677   32.6384   38.5343 H   0  0  0  0  0  0  0  0  0  0  0  0
   47.3422   32.3667   37.6663 H   0  0  0  0  0  0  0  0  0  0  0  0
   48.9680   34.9596   37.3886 H   0  0  0  0  0  0  0  0  0  0  0  0
   49.2345   33.5370   36.3249 H   0  0  0  0  0  0  0  0  0  0  0  0
   47.6447   34.3731   36.3249 H   0  0  0  0  0  0  0  0  0  0  0  0
  1  2  2  0
  1  7  1  0
  3  2  1  0
  4  3  2  0
  5  4  1  0
  5  6  2  0
  6  1  1  0
  7  8  2  0
  7  9  1  0
  9 10  2  0
 10 11  1  0
 12 11  2  0
 13 12  1  0
 14  9  1  0
 14 13  2  0
 15  5  1  0
 16 15  1  0
 17 16  1  0
  2 18  1  0
  3 19  1  0
  4 20  1  0
 10 21  1  0
 11 22  1  0
 13 23  1  0
 16 24  1  0
 16 25  1  0
 17 26  1  0
 17 27  1  0
 17 28  1  0
M  ISO  8  18  14  19  14  20  14  21  14  22  14  23  14  24   8  25   8
M  ISO  3  26   8  27   8  28   8
M  END
>  <minimizedAffinity>  (1) 
-4.55269575

>  <minimizedRMSD>  (1) 
1.34879494

$$$$
