
     RDKit          3D

 28 30  0  0  0  0  0  0  0  0999 V2000
   46.5090   34.8310   42.6900 C   0  0  0  0  0  0  0  0  0  0  0  0
   47.6600   35.2760   42.0910 C   0  0  0  0  0  0  0  0  0  0  0  0
   48.8620   34.6160   42.1940 C   0  0  0  0  0  0  0  0  0  0  0  0
   48.8660   33.4590   42.9430 C   0  0  0  0  0  0  0  0  0  0  0  0
   47.7070   32.9840   43.5630 C   0  0  0  0  0  0  0  0  0  0  0  0
   46.5560   33.6860   43.4190 N   0  0  0  0  0  0  0  0  0  0  0  0
   45.2540   35.5750   42.5470 C   0  0  0  0  0  0  0  0  0  0  0  0
   45.1230   36.6290   43.2360 O   0  0  0  0  0  0  0  0  0  0  0  0
   44.2350   35.0870   41.6440 C   0  0  0  0  0  0  0  0  0  0  0  0
   42.9160   35.4620   41.9550 C   0  0  0  0  0  0  0  0  0  0  0  0
   41.9140   35.0040   41.1000 C   0  0  0  0  0  0  0  0  0  0  0  0
   42.2870   34.2350   40.0400 N   0  0  0  0  0  0  0  0  0  0  0  0
   43.5630   33.9000   39.7790 C   0  0  0  0  0  0  0  0  0  0  0  0
   44.5230   34.3280   40.5820 N   0  0  0  0  0  0  0  0  0  0  0  0
   47.5760   31.8560   44.3290 O   0  0  0  0  0  0  0  0  0  0  0  0
   47.0080   31.8150   45.5940 C   0  0  0  0  0  0  0  0  0  0  0  0
   46.2000   30.6960   45.6850 C   0  0  0  0  0  0  0  0  0  0  0  0
   45.5680   30.8350   47.3870 S   0  0  0  0  0  0  0  0  0  0  0  0
   46.5420   32.4410   47.6880 C   0  0  0  0  0  0  0  0  0  0  0  0
   47.0430   32.5470   46.6870 N   0  0  0  0  0  0  0  0  0  0  0  0
   47.6196   36.2036   41.5011 H   0  0  0  0  0  0  0  0  0  0  0  0
   49.7725   34.9917   41.7043 H   0  0  0  0  0  0  0  0  0  0  0  0
   49.8042   32.8958   43.0555 H   0  0  0  0  0  0  0  0  0  0  0  0
   42.6856   36.0866   42.8306 H   0  0  0  0  0  0  0  0  0  0  0  0
   40.8577   35.2555   41.2760 H   0  0  0  0  0  0  0  0  0  0  0  0
   43.8060   33.2761   38.9062 H   0  0  0  0  0  0  0  0  0  0  0  0
   45.9935   29.9249   44.9282 H   0  0  0  0  0  0  0  0  0  0  0  0
   46.5986   33.0801   48.5815 H   0  0  0  0  0  0  0  0  0  0  0  0
  1  6  2  0
  2  3  2  0
  2  1  1  0
  3  4  1  0
  4  5  2  0
  5 15  1  0
  6  5  1  0
  7  1  1  0
  7  8  2  0
  9 10  2  0
  9  7  1  0
 11 10  1  0
 12 11  2  0
 13 12  1  0
 13 14  2  0
 14  9  1  0
 15 16  1  0
 16 17  2  0
 16 20  1  0
 17 18  1  0
 18 19  1  0
 20 19  2  0
  2 21  1  0
  3 22  1  0
  4 23  1  0
 10 24  1  0
 11 25  1  0
 13 26  1  0
 17 27  1  0
 19 28  1  0
M  ISO  8  21  14  22  14  23  14  24  14  25  14  26  14  27  14  28  14
M  END
>  <minimizedAffinity>  (1) 
-4.78695583

>  <minimizedRMSD>  (1) 
6.68527269

$$$$
