
     RDKit          3D

 27 29  0  0  0  0  0  0  0  0999 V2000
   47.4450   34.6800   42.6480 C   0  0  0  0  0  0  0  0  0  0  0  0
   47.3720   33.8600   43.7720 C   0  0  0  0  0  0  0  0  0  0  0  0
   46.2130   33.6860   44.4920 C   0  0  0  0  0  0  0  0  0  0  0  0
   45.0980   34.3640   44.0570 C   0  0  0  0  0  0  0  0  0  0  0  0
   45.1480   35.1880   42.9370 C   0  0  0  0  0  0  0  0  0  0  0  0
   46.3220   35.3220   42.2650 N   0  0  0  0  0  0  0  0  0  0  0  0
   48.7000   34.8270   41.9230 C   0  0  0  0  0  0  0  0  0  0  0  0
   49.1400   36.0080   41.7500 O   0  0  0  0  0  0  0  0  0  0  0  0
   49.3770   33.6400   41.4400 C   0  0  0  0  0  0  0  0  0  0  0  0
   50.5500   33.2870   42.1440 C   0  0  0  0  0  0  0  0  0  0  0  0
   51.2290   32.1630   41.7190 C   0  0  0  0  0  0  0  0  0  0  0  0
   50.7060   31.4800   40.6450 N   0  0  0  0  0  0  0  0  0  0  0  0
   49.5840   31.8520   40.0010 C   0  0  0  0  0  0  0  0  0  0  0  0
   48.9250   32.9240   40.3950 N   0  0  0  0  0  0  0  0  0  0  0  0
   44.1190   35.9190   42.3960 O   0  0  0  0  0  0  0  0  0  0  0  0
   43.3710   35.3640   41.3690 C   0  0  0  0  0  0  0  0  0  0  0  0
   42.0640   35.3530   41.7400 N   0  0  0  0  0  0  0  0  0  0  0  0
   41.3270   34.8300   40.7780 O   0  0  0  0  0  0  0  0  0  0  0  0
   42.1040   34.4970   39.7880 C   0  0  0  0  0  0  0  0  0  0  0  0
   43.3590   34.8220   40.1410 N   0  0  0  0  0  0  0  0  0  0  0  0
   48.2791   33.3296   44.0972 H   0  0  0  0  0  0  0  0  0  0  0  0
   46.1793   33.0333   45.3768 H   0  0  0  0  0  0  0  0  0  0  0  0
   44.1502   34.2528   44.6042 H   0  0  0  0  0  0  0  0  0  0  0  0
   50.9076   33.8837   42.9961 H   0  0  0  0  0  0  0  0  0  0  0  0
   52.1499   31.8272   42.2181 H   0  0  0  0  0  0  0  0  0  0  0  0
   49.2175   31.2627   39.1475 H   0  0  0  0  0  0  0  0  0  0  0  0
   41.7914   34.0357   38.8396 H   0  0  0  0  0  0  0  0  0  0  0  0
  1  2  2  0
  2  3  1  0
  4  3  2  0
  5  4  1  0
  6  1  1  0
  6  5  2  0
  7  1  1  0
  8  7  2  0
  9  7  1  0
  9 10  2  0
 11 10  1  0
 12 11  2  0
 13 14  2  0
 13 12  1  0
 14  9  1  0
 15  5  1  0
 16 17  2  0
 16 15  1  0
 18 17  1  0
 19 20  2  0
 19 18  1  0
 20 16  1  0
  2 21  1  0
  3 22  1  0
  4 23  1  0
 10 24  1  0
 11 25  1  0
 13 26  1  0
 19 27  1  0
M  ISO  7  21  14  22  14  23  14  24  14  25  14  26  14  27  14
M  END
>  <minimizedAffinity>  (1) 
-4.95890522

>  <minimizedRMSD>  (1) 
5.38483047

$$$$
