
     RDKit          3D

 25 26  0  0  0  0  0  0  0  0999 V2000
   48.1310   33.7740   42.4050 C   0  0  0  0  0  0  0  0  0  0  0  0
   48.8830   34.8940   42.6670 C   0  0  0  0  0  0  0  0  0  0  0  0
   49.2500   35.7870   41.6990 C   0  0  0  0  0  0  0  0  0  0  0  0
   48.8390   35.5350   40.4120 C   0  0  0  0  0  0  0  0  0  0  0  0
   48.0670   34.3910   40.1250 C   0  0  0  0  0  0  0  0  0  0  0  0
   47.7500   33.5680   41.1350 N   0  0  0  0  0  0  0  0  0  0  0  0
   47.7560   32.8420   43.4660 C   0  0  0  0  0  0  0  0  0  0  0  0
   48.2870   31.6940   43.4500 O   0  0  0  0  0  0  0  0  0  0  0  0
   46.8030   33.2750   44.4730 C   0  0  0  0  0  0  0  0  0  0  0  0
   46.8550   32.5800   45.6950 C   0  0  0  0  0  0  0  0  0  0  0  0
   45.9610   32.9650   46.6850 C   0  0  0  0  0  0  0  0  0  0  0  0
   45.0970   33.9900   46.3940 N   0  0  0  0  0  0  0  0  0  0  0  0
   45.0850   34.6230   45.2130 C   0  0  0  0  0  0  0  0  0  0  0  0
   45.9230   34.2750   44.2660 N   0  0  0  0  0  0  0  0  0  0  0  0
   47.6040   34.0470   38.8770 O   0  0  0  0  0  0  0  0  0  0  0  0
   46.5910   33.1180   38.6370 C   0  0  0  0  0  0  0  0  0  0  0  0
   49.2042   35.0804   43.7024 H   0  0  0  0  0  0  0  0  0  0  0  0
   49.8523   36.6749   41.9415 H   0  0  0  0  0  0  0  0  0  0  0  0
   49.1134   36.2283   39.6032 H   0  0  0  0  0  0  0  0  0  0  0  0
   47.5748   31.7646   45.8595 H   0  0  0  0  0  0  0  0  0  0  0  0
   45.9461   32.4669   47.6657 H   0  0  0  0  0  0  0  0  0  0  0  0
   44.3685   35.4388   45.0368 H   0  0  0  0  0  0  0  0  0  0  0  0
   46.1933   32.7533   39.5956 H   0  0  0  0  0  0  0  0  0  0  0  0
   45.7835   33.5961   38.0631 H   0  0  0  0  0  0  0  0  0  0  0  0
   46.9976   32.2722   38.0631 H   0  0  0  0  0  0  0  0  0  0  0  0
  1  2  2  0
  1  7  1  0
  3  2  1  0
  4  3  2  0
  5  4  1  0
  5  6  2  0
  6  1  1  0
  7  9  1  0
  8  7  2  0
  9 10  2  0
 10 11  1  0
 12 11  2  0
 13 12  1  0
 14  9  1  0
 14 13  2  0
 15  5  1  0
 16 15  1  0
  2 17  1  0
  3 18  1  0
  4 19  1  0
 10 20  1  0
 11 21  1  0
 13 22  1  0
 16 23  1  0
 16 24  1  0
 16 25  1  0
M  ISO  8  17  14  18  14  19  14  20  14  21  14  22  14  23   8  24   8
M  ISO  1  25   8
M  END
>  <minimizedAffinity>  (1) 
-4.43272734

>  <minimizedRMSD>  (1) 
0.303029448

$$$$
