
     RDKit          3D

 29 31  0  0  0  0  0  0  0  0999 V2000
   47.6290   34.0550   42.2290 C   0  0  0  0  0  0  0  0  0  0  0  0
   48.5170   35.0800   42.4410 C   0  0  0  0  0  0  0  0  0  0  0  0
   49.1100   35.7780   41.4130 C   0  0  0  0  0  0  0  0  0  0  0  0
   48.7780   35.4070   40.1340 C   0  0  0  0  0  0  0  0  0  0  0  0
   47.8770   34.3670   39.8980 C   0  0  0  0  0  0  0  0  0  0  0  0
   47.3350   33.7290   40.9530 N   0  0  0  0  0  0  0  0  0  0  0  0
   47.0300   33.3490   43.3570 C   0  0  0  0  0  0  0  0  0  0  0  0
   47.3490   32.1330   43.5200 O   0  0  0  0  0  0  0  0  0  0  0  0
   46.1110   34.0470   44.2300 C   0  0  0  0  0  0  0  0  0  0  0  0
   45.9670   33.5270   45.5300 C   0  0  0  0  0  0  0  0  0  0  0  0
   45.0950   34.1750   46.3870 C   0  0  0  0  0  0  0  0  0  0  0  0
   44.4400   35.2680   45.9060 N   0  0  0  0  0  0  0  0  0  0  0  0
   44.6000   35.7410   44.6580 C   0  0  0  0  0  0  0  0  0  0  0  0
   45.4280   35.1320   43.8310 N   0  0  0  0  0  0  0  0  0  0  0  0
   47.4630   33.9020   38.6750 O   0  0  0  0  0  0  0  0  0  0  0  0
   48.1180   34.0360   37.4530 C   0  0  0  0  0  0  0  0  0  0  0  0
   49.2250   33.0310   37.2020 C   0  0  0  0  0  0  0  0  0  0  0  0
   47.9570   33.0420   36.3640 C   0  0  0  0  0  0  0  0  0  0  0  0
   48.7655   35.3555   43.4765 H   0  0  0  0  0  0  0  0  0  0  0  0
   49.8184   36.5966   41.6081 H   0  0  0  0  0  0  0  0  0  0  0  0
   49.2286   35.9371   39.2820 H   0  0  0  0  0  0  0  0  0  0  0  0
   46.5275   32.6374   45.8531 H   0  0  0  0  0  0  0  0  0  0  0  0
   44.9370   33.8212   47.4165 H   0  0  0  0  0  0  0  0  0  0  0  0
   44.0437   36.6308   44.3282 H   0  0  0  0  0  0  0  0  0  0  0  0
   48.0021   35.1297   37.4702 H   0  0  0  0  0  0  0  0  0  0  0  0
   50.1806   33.3567   36.7654 H   0  0  0  0  0  0  0  0  0  0  0  0
   49.7621   32.2851   37.8063 H   0  0  0  0  0  0  0  0  0  0  0  0
   47.9965   33.3678   35.3141 H   0  0  0  0  0  0  0  0  0  0  0  0
   47.1933   32.2936   36.1056 H   0  0  0  0  0  0  0  0  0  0  0  0
  1  2  2  0
  1  7  1  0
  3  2  1  0
  4  3  2  0
  5  4  1  0
  5  6  2  0
  6  1  1  0
  7  8  2  0
  7  9  1  0
  9 10  2  0
 10 11  1  0
 12 11  2  0
 13 12  1  0
 14  9  1  0
 14 13  2  0
 15  5  1  0
 16 15  1  0
 17 16  1  0
 18 17  1  0
 18 16  1  0
  2 19  1  0
  3 20  1  0
  4 21  1  0
 10 22  1  0
 11 23  1  0
 13 24  1  0
 16 25  1  0
 17 26  1  0
 17 27  1  0
 18 28  1  0
 18 29  1  0
M  ISO  8  19  14  20  14  21  14  22  14  23  14  24  14  25  13  26  13
M  ISO  3  27  13  28  13  29  13
M  END
>  <minimizedAffinity>  (1) 
-4.8600049

>  <minimizedRMSD>  (1) 
1.23488796

$$$$
