
     RDKit          3D

 42 46  0  0  1  0  0  0  0  0999 V2000
   46.9960   34.1410   41.4990 C   0  0  0  0  0  0  0  0  0  0  0  0
   47.9400   34.9540   42.0750 C   0  0  0  0  0  0  0  0  0  0  0  0
   48.9220   35.5990   41.3560 C   0  0  0  0  0  0  0  0  0  0  0  0
   48.9400   35.4050   40.0070 C   0  0  0  0  0  0  0  0  0  0  0  0
   48.0020   34.5910   39.4000 C   0  0  0  0  0  0  0  0  0  0  0  0
   47.0590   33.9860   40.1670 N   0  0  0  0  0  0  0  0  0  0  0  0
   45.9820   33.4780   42.3120 C   0  0  0  0  0  0  0  0  0  0  0  0
   45.5790   32.3310   41.9140 O   0  0  0  0  0  0  0  0  0  0  0  0
   45.4910   34.1310   43.5020 C   0  0  0  0  0  0  0  0  0  0  0  0
   45.7590   33.4550   44.7180 C   0  0  0  0  0  0  0  0  0  0  0  0
   45.2970   34.0670   45.8800 C   0  0  0  0  0  0  0  0  0  0  0  0
   44.6290   35.2570   45.7530 N   0  0  0  0  0  0  0  0  0  0  0  0
   44.4040   35.8490   44.5780 C   0  0  0  0  0  0  0  0  0  0  0  0
   44.8300   35.2930   43.4600 N   0  0  0  0  0  0  0  0  0  0  0  0
   47.8660   34.2720   38.0610 O   0  0  0  0  0  0  0  0  0  0  0  0
   48.4720   33.1760   37.4190 C   0  0  1  0  0  0  0  0  0  0  0  0
   47.4320   32.0720   37.1340 C   0  0  0  0  0  0  0  0  0  0  0  0
   48.1120   32.8520   36.0340 C   0  0  2  0  0  0  0  0  0  0  0  0
   49.0200   32.1670   35.1440 N   0  0  0  0  0  0  0  0  0  0  0  0
   49.9790   31.2700   35.5040 C   0  0  0  0  0  0  0  0  0  0  0  0
   50.6520   30.8140   34.4560 N   0  0  0  0  0  0  0  0  0  0  0  0
   50.1330   31.4180   33.3710 C   0  0  0  0  0  0  0  0  0  0  0  0
   50.4910   31.2780   32.0570 C   0  0  0  0  0  0  0  0  0  0  0  0
   49.8100   32.0010   31.1470 N   0  0  0  0  0  0  0  0  0  0  0  0
   48.8130   32.8260   31.5800 C   0  0  0  0  0  0  0  0  0  0  0  0
   48.4780   32.9470   32.8970 N   0  0  0  0  0  0  0  0  0  0  0  0
   49.1260   32.2490   33.8240 C   0  0  0  0  0  0  0  0  0  0  0  0
   51.5390   30.4040   31.6450 N   0  0  0  0  0  0  0  0  0  0  0  0
   47.9109   35.0976   43.1652 H   0  0  0  0  0  0  0  0  0  0  0  0
   49.6622   36.2449   41.8508 H   0  0  0  0  0  0  0  0  0  0  0  0
   49.7082   35.9009   39.3955 H   0  0  0  0  0  0  0  0  0  0  0  0
   46.3024   32.4989   44.7426 H   0  0  0  0  0  0  0  0  0  0  0  0
   45.4626   33.6107   46.8671 H   0  0  0  0  0  0  0  0  0  0  0  0
   43.8609   36.8049   44.5417 H   0  0  0  0  0  0  0  0  0  0  0  0
   49.4513   33.2902   37.9068 H   0  0  0  0  0  0  0  0  0  0  0  0
   47.6820   31.0142   37.3032 H   0  0  0  0  0  0  0  0  0  0  0  0
   46.3941   31.8645   37.4334 H   0  0  0  0  0  0  0  0  0  0  0  0
   47.7727   33.4684   35.1885 H   0  0  0  0  0  0  0  0  0  0  0  0
   50.1727   30.9601   36.5415 H   0  0  0  0  0  0  0  0  0  0  0  0
   48.2571   33.4172   30.8374 H   0  0  0  0  0  0  0  0  0  0  0  0
   51.7808   30.3244   30.6469 H   0  0  0  0  0  0  0  0  0  0  0  0
   52.0545   29.8520   32.3454 H   0  0  0  0  0  0  0  0  0  0  0  0
  1  2  2  0
  1  7  1  0
  3  2  1  0
  4  3  2  0
  5  4  1  0
  5  6  2  0
  6  1  1  0
  7  9  1  0
  8  7  2  0
  9 10  2  0
 10 11  1  0
 12 11  2  0
 13 12  1  0
 14  9  1  0
 14 13  2  0
 15  5  1  0
 16 15  1  0
 17 16  1  0
 18 17  1  0
 18 16  1  0
 19 20  1  0
 19 18  1  0
 21 20  2  0
 22 27  2  0
 22 21  1  0
 23 22  1  0
 24 25  1  0
 24 23  2  0
 25 26  2  0
 26 27  1  0
 27 19  1  0
 28 23  1  0
  2 29  1  0
  3 30  1  0
  4 31  1  0
 10 32  1  0
 11 33  1  0
 13 34  1  0
 16 35  1  6
 17 36  1  0
 17 37  1  0
 18 38  1  6
 20 39  1  0
 25 40  1  0
 28 41  1  0
 28 42  1  0
M  ISO  8  29  14  30  14  31  14  32  14  33  14  34  14  35  13  36  13
M  ISO  4  37  13  38  13  39  14  40  14
M  END
>  <minimizedAffinity>  (1) 
-6.7007041

>  <minimizedRMSD>  (1) 
2.60958862

$$$$
