
     RDKit          3D

 43 46  0  0  1  0  0  0  0  0999 V2000
   47.5030   33.9240   42.0090 C   0  0  0  0  0  0  0  0  0  0  0  0
   48.3350   35.0200   42.1460 C   0  0  0  0  0  0  0  0  0  0  0  0
   48.9180   35.6660   41.0790 C   0  0  0  0  0  0  0  0  0  0  0  0
   48.6490   35.1850   39.8350 C   0  0  0  0  0  0  0  0  0  0  0  0
   47.8210   34.0910   39.6660 C   0  0  0  0  0  0  0  0  0  0  0  0
   47.2760   33.5000   40.7590 N   0  0  0  0  0  0  0  0  0  0  0  0
   46.9210   33.2810   43.1730 C   0  0  0  0  0  0  0  0  0  0  0  0
   47.2140   32.0530   43.3650 O   0  0  0  0  0  0  0  0  0  0  0  0
   46.0540   34.0420   44.0450 C   0  0  0  0  0  0  0  0  0  0  0  0
   45.9250   33.5470   45.3650 C   0  0  0  0  0  0  0  0  0  0  0  0
   45.0950   34.2620   46.2210 C   0  0  0  0  0  0  0  0  0  0  0  0
   44.4760   35.3780   45.7220 N   0  0  0  0  0  0  0  0  0  0  0  0
   44.6310   35.8050   44.4640 C   0  0  0  0  0  0  0  0  0  0  0  0
   45.4160   35.1390   43.6350 N   0  0  0  0  0  0  0  0  0  0  0  0
   47.4420   33.4630   38.4900 O   0  0  0  0  0  0  0  0  0  0  0  0
   47.9910   33.7210   37.2200 C   0  0  1  0  0  0  0  0  0  0  0  0
   49.0250   32.6260   36.8600 C   0  0  0  0  0  0  0  0  0  0  0  0
   47.7350   32.8330   36.0890 C   0  0  1  0  0  0  0  0  0  0  0  0
   46.6490   31.8750   36.2540 N   0  0  0  0  0  0  0  0  0  0  0  0
   46.8300   30.7380   35.3730 C   0  0  0  0  0  0  0  0  0  0  0  0
   45.5400   30.2590   34.7480 C   0  0  0  0  0  0  0  0  0  0  0  0
   44.8980   31.2680   33.9310 N   0  0  0  0  0  0  0  0  0  0  0  0
   45.4650   32.5530   34.2990 C   0  0  0  0  0  0  0  0  0  0  0  0
   45.4430   32.6030   35.8280 C   0  0  0  0  0  0  0  0  0  0  0  0
   48.5416   35.3949   43.1593 H   0  0  0  0  0  0  0  0  0  0  0  0
   49.5748   36.5360   41.2263 H   0  0  0  0  0  0  0  0  0  0  0  0
   49.0949   35.6715   38.9549 H   0  0  0  0  0  0  0  0  0  0  0  0
   46.4549   32.6420   45.6968 H   0  0  0  0  0  0  0  0  0  0  0  0
   44.9406   33.9430   47.2624 H   0  0  0  0  0  0  0  0  0  0  0  0
   44.1063   36.7085   44.1200 H   0  0  0  0  0  0  0  0  0  0  0  0
   47.9162   34.8158   37.2963 H   0  0  0  0  0  0  0  0  0  0  0  0
   49.9926   32.8972   36.4126 H   0  0  0  0  0  0  0  0  0  0  0  0
   49.5141   31.7909   37.3829 H   0  0  0  0  0  0  0  0  0  0  0  0
   47.5201   32.9753   35.0196 H   0  0  0  0  0  0  0  0  0  0  0  0
   47.5228   31.0257   34.5685 H   0  0  0  0  0  0  0  0  0  0  0  0
   47.2252   29.9117   35.9821 H   0  0  0  0  0  0  0  0  0  0  0  0
   45.7595   29.3849   34.1173 H   0  0  0  0  0  0  0  0  0  0  0  0
   44.8495   30.0111   35.5676 H   0  0  0  0  0  0  0  0  0  0  0  0
   43.8829   31.2685   34.1057 H   0  0  0  0  0  0  0  0  0  0  0  0
   46.4977   32.6349   33.9290 H   0  0  0  0  0  0  0  0  0  0  0  0
   44.8940   33.3850   33.8610 H   0  0  0  0  0  0  0  0  0  0  0  0
   45.4761   33.6444   36.1806 H   0  0  0  0  0  0  0  0  0  0  0  0
   44.5259   32.1578   36.2413 H   0  0  0  0  0  0  0  0  0  0  0  0
  1  2  2  0
  1  7  1  0
  3  2  1  0
  4  3  2  0
  5  4  1  0
  5  6  2  0
  6  1  1  0
  7  8  2  0
  7  9  1  0
  9 10  2  0
 10 11  1  0
 12 11  2  0
 13 12  1  0
 14  9  1  0
 14 13  2  0
 15  5  1  0
 16 15  1  0
 17 16  1  0
 18 19  1  0
 18 17  1  0
 18 16  1  0
 20 19  1  0
 21 20  1  0
 22 23  1  0
 22 21  1  0
 23 24  1  0
 24 19  1  0
  2 25  1  0
  3 26  1  0
  4 27  1  0
 10 28  1  0
 11 29  1  0
 13 30  1  0
 16 31  1  6
 17 32  1  0
 17 33  1  0
 18 34  1  6
 20 35  1  0
 20 36  1  0
 21 37  1  0
 21 38  1  0
 22 39  1  0
 23 40  1  0
 23 41  1  0
 24 42  1  0
 24 43  1  0
M  ISO  8  25  14  26  14  27  14  28  14  29  14  30  14  31  13  32  13
M  ISO  8  33  13  34  13  35  13  36  13  37  13  38  13  39   5  40  13
M  ISO  3  41  13  42  13  43  13
M  END
>  <minimizedAffinity>  (1) 
-5.5132165

>  <minimizedRMSD>  (1) 
0.665510237

$$$$
