
     RDKit          3D

 42 45  0  0  1  0  0  0  0  0999 V2000
   47.5850   33.8990   41.9820 C   0  0  0  0  0  0  0  0  0  0  0  0
   48.4320   34.9790   41.9150 C   0  0  0  0  0  0  0  0  0  0  0  0
   48.8690   35.5280   40.7320 C   0  0  0  0  0  0  0  0  0  0  0  0
   48.4260   34.9520   39.5790 C   0  0  0  0  0  0  0  0  0  0  0  0
   47.5750   33.8630   39.6140 C   0  0  0  0  0  0  0  0  0  0  0  0
   47.1790   33.3710   40.8160 N   0  0  0  0  0  0  0  0  0  0  0  0
   47.1580   33.3570   43.2670 C   0  0  0  0  0  0  0  0  0  0  0  0
   47.6570   32.2340   43.6180 O   0  0  0  0  0  0  0  0  0  0  0  0
   46.2100   34.0950   44.0680 C   0  0  0  0  0  0  0  0  0  0  0  0
   45.9940   33.5970   45.3760 C   0  0  0  0  0  0  0  0  0  0  0  0
   45.0800   34.2970   46.1620 C   0  0  0  0  0  0  0  0  0  0  0  0
   44.4770   35.3870   45.6180 N   0  0  0  0  0  0  0  0  0  0  0  0
   44.7130   35.8200   44.3720 C   0  0  0  0  0  0  0  0  0  0  0  0
   45.5760   35.1730   43.6090 N   0  0  0  0  0  0  0  0  0  0  0  0
   47.0330   33.1500   38.5570 O   0  0  0  0  0  0  0  0  0  0  0  0
   47.7540   32.6640   37.4500 C   0  0  1  0  0  0  0  0  0  0  0  0
   47.7720   31.1210   37.4590 C   0  0  0  0  0  0  0  0  0  0  0  0
   47.0670   31.9260   36.3870 C   0  0  2  0  0  0  0  0  0  0  0  0
   48.7160   31.9250   32.4140 C   0  0  0  0  0  0  0  0  0  0  0  0
   47.7130   31.0430   32.7630 C   0  0  0  0  0  0  0  0  0  0  0  0
   47.2240   31.0890   34.0470 C   0  0  0  0  0  0  0  0  0  0  0  0
   47.6630   31.9580   35.0260 C   0  0  0  0  0  0  0  0  0  0  0  0
   48.6660   32.8270   34.6460 C   0  0  0  0  0  0  0  0  0  0  0  0
   49.1960   32.8260   33.3680 C   0  0  0  0  0  0  0  0  0  0  0  0
   49.3230   31.8480   30.7700 S   0  0  0  0  0  0  0  0  0  0  0  0
   49.5750   33.1950   30.1820 O   0  0  0  0  0  0  0  0  0  0  0  0
   48.2480   31.2070   29.9270 O   0  0  0  0  0  0  0  0  0  0  0  0
   48.7789   35.4282   42.8573 H   0  0  0  0  0  0  0  0  0  0  0  0
   49.5466   36.3944   40.7172 H   0  0  0  0  0  0  0  0  0  0  0  0
   48.7493   35.3583   38.6093 H   0  0  0  0  0  0  0  0  0  0  0  0
   46.5190   32.7062   45.7514 H   0  0  0  0  0  0  0  0  0  0  0  0
   44.8539   33.9774   47.1900 H   0  0  0  0  0  0  0  0  0  0  0  0
   44.1914   36.7086   43.9868 H   0  0  0  0  0  0  0  0  0  0  0  0
   48.4593   33.5067   37.4015 H   0  0  0  0  0  0  0  0  0  0  0  0
   48.6970   30.5729   37.2268 H   0  0  0  0  0  0  0  0  0  0  0  0
   47.4928   30.3282   38.1686 H   0  0  0  0  0  0  0  0  0  0  0  0
   46.0413   31.9308   35.9895 H   0  0  0  0  0  0  0  0  0  0  0  0
   47.3156   30.3225   32.0330 H   0  0  0  0  0  0  0  0  0  0  0  0
   46.4247   30.3819   34.3139 H   0  0  0  0  0  0  0  0  0  0  0  0
   49.0566   33.5437   35.3834 H   0  0  0  0  0  0  0  0  0  0  0  0
   49.9949   33.5342   33.1031 H   0  0  0  0  0  0  0  0  0  0  0  0
   50.5042   31.1542   30.7909 H   0  0  0  0  0  0  0  0  0  0  0  0
  1  7  1  0
  2  1  2  0
  3  2  1  0
  4  5  1  0
  4  3  2  0
  5  6  2  0
  6  1  1  0
  7  8  2  0
  7  9  1  0
  9 10  2  0
 10 11  1  0
 12 11  2  0
 13 12  1  0
 14  9  1  0
 14 13  2  0
 15  5  1  0
 16 17  1  0
 16 15  1  0
 18 16  1  0
 18 17  1  0
 19 20  2  0
 19 24  1  0
 20 21  1  0
 21 22  2  0
 22 18  1  0
 23 22  1  0
 24 23  2  0
 25 19  1  0
 26 25  2  0
 27 25  2  0
  2 28  1  0
  3 29  1  0
  4 30  1  0
 10 31  1  0
 11 32  1  0
 13 33  1  0
 16 34  1  6
 17 35  1  0
 17 36  1  0
 18 37  1  6
 20 38  1  0
 21 39  1  0
 23 40  1  0
 24 41  1  0
 25 42  1  0
M  ISO  8  28  14  29  14  30  14  31  14  32  14  33  14  34  13  35  13
M  ISO  7  36  13  37  13  38  14  39  14  40  14  41  14  42  11
M  END
>  <minimizedAffinity>  (1) 
-6.15989065

>  <minimizedRMSD>  (1) 
1.68422413

$$$$
