
     RDKit          3D

 37 40  0  0  1  0  0  0  0  0999 V2000
   47.4720   34.0180   41.9630 C   0  0  0  0  0  0  0  0  0  0  0  0
   48.3650   35.0280   42.2720 C   0  0  0  0  0  0  0  0  0  0  0  0
   49.0590   35.7410   41.3260 C   0  0  0  0  0  0  0  0  0  0  0  0
   48.8370   35.4150   40.0240 C   0  0  0  0  0  0  0  0  0  0  0  0
   47.9510   34.4090   39.6810 C   0  0  0  0  0  0  0  0  0  0  0  0
   47.2980   33.7450   40.6630 N   0  0  0  0  0  0  0  0  0  0  0  0
   46.7700   33.2940   43.0080 C   0  0  0  0  0  0  0  0  0  0  0  0
   46.9020   32.0300   43.0260 O   0  0  0  0  0  0  0  0  0  0  0  0
   45.9660   34.0210   43.9650 C   0  0  0  0  0  0  0  0  0  0  0  0
   45.9300   33.4850   45.2730 C   0  0  0  0  0  0  0  0  0  0  0  0
   45.1660   34.1710   46.2090 C   0  0  0  0  0  0  0  0  0  0  0  0
   44.5140   35.3040   45.7930 N   0  0  0  0  0  0  0  0  0  0  0  0
   44.5840   35.7660   44.5430 C   0  0  0  0  0  0  0  0  0  0  0  0
   45.2960   35.1430   43.6340 N   0  0  0  0  0  0  0  0  0  0  0  0
   47.6150   33.9440   38.4190 O   0  0  0  0  0  0  0  0  0  0  0  0
   48.4430   33.1720   37.5850 C   0  0  1  0  0  0  0  0  0  0  0  0
   48.1790   31.6660   37.8060 C   0  0  0  0  0  0  0  0  0  0  0  0
   47.8710   32.3620   36.5050 C   0  0  2  0  0  0  0  0  0  0  0  0
   48.7880   32.1350   35.3470 C   0  0  0  0  0  0  0  0  0  0  0  0
   49.7960   31.1930   35.3430 C   0  0  0  0  0  0  0  0  0  0  0  0
   50.6340   30.9970   34.2650 C   0  0  0  0  0  0  0  0  0  0  0  0
   50.4490   31.7740   33.1590 N   0  0  0  0  0  0  0  0  0  0  0  0
   49.4620   32.7110   33.1380 C   0  0  0  0  0  0  0  0  0  0  0  0
   48.6810   32.8650   34.1970 N   0  0  0  0  0  0  0  0  0  0  0  0
   48.5278   35.2730   43.3319 H   0  0  0  0  0  0  0  0  0  0  0  0
   49.7619   36.5388   41.6077 H   0  0  0  0  0  0  0  0  0  0  0  0
   49.3704   35.9599   39.2312 H   0  0  0  0  0  0  0  0  0  0  0  0
   46.4800   32.5696   45.5366 H   0  0  0  0  0  0  0  0  0  0  0  0
   45.0867   33.8178   47.2477 H   0  0  0  0  0  0  0  0  0  0  0  0
   44.0376   36.6812   44.2712 H   0  0  0  0  0  0  0  0  0  0  0  0
   49.2808   33.8848   37.5853 H   0  0  0  0  0  0  0  0  0  0  0  0
   49.0177   30.9575   37.8738 H   0  0  0  0  0  0  0  0  0  0  0  0
   47.6192   31.0574   38.5314 H   0  0  0  0  0  0  0  0  0  0  0  0
   46.9634   32.4080   35.8853 H   0  0  0  0  0  0  0  0  0  0  0  0
   49.9377   30.5708   36.2390 H   0  0  0  0  0  0  0  0  0  0  0  0
   51.4281   30.2365   34.2962 H   0  0  0  0  0  0  0  0  0  0  0  0
   49.3135   33.3374   32.2460 H   0  0  0  0  0  0  0  0  0  0  0  0
  1  2  2  0
  1  7  1  0
  3  2  1  0
  4  3  2  0
  5  4  1  0
  5  6  2  0
  6  1  1  0
  7  8  2  0
  7  9  1  0
  9 10  2  0
 10 11  1  0
 12 11  2  0
 13 12  1  0
 14  9  1  0
 14 13  2  0
 15  5  1  0
 16 17  1  0
 16 15  1  0
 18 16  1  0
 18 17  1  0
 19 18  1  0
 20 19  2  0
 21 20  1  0
 22 21  2  0
 23 22  1  0
 23 24  2  0
 24 19  1  0
  2 25  1  0
  3 26  1  0
  4 27  1  0
 10 28  1  0
 11 29  1  0
 13 30  1  0
 16 31  1  6
 17 32  1  0
 17 33  1  0
 18 34  1  6
 20 35  1  0
 21 36  1  0
 23 37  1  0
M  ISO  8  25  14  26  14  27  14  28  14  29  14  30  14  31  13  32  13
M  ISO  5  33  13  34  13  35  14  36  14  37  14
M  END
>  <minimizedAffinity>  (1) 
-5.59049511

>  <minimizedRMSD>  (1) 
1.60015929

$$$$
