
     RDKit          3D

 35 38  0  0  1  0  0  0  0  0999 V2000
   47.3270   34.0400   41.8640 C   0  0  0  0  0  0  0  0  0  0  0  0
   48.2120   35.0160   42.2760 C   0  0  0  0  0  0  0  0  0  0  0  0
   48.9970   35.7390   41.4080 C   0  0  0  0  0  0  0  0  0  0  0  0
   48.8810   35.4580   40.0820 C   0  0  0  0  0  0  0  0  0  0  0  0
   48.0020   34.4810   39.6470 C   0  0  0  0  0  0  0  0  0  0  0  0
   47.2540   33.8060   40.5460 N   0  0  0  0  0  0  0  0  0  0  0  0
   46.5250   33.3040   42.8280 C   0  0  0  0  0  0  0  0  0  0  0  0
   46.4960   32.0370   42.7110 O   0  0  0  0  0  0  0  0  0  0  0  0
   45.8140   34.0260   43.8550 C   0  0  0  0  0  0  0  0  0  0  0  0
   45.8720   33.4680   45.1520 C   0  0  0  0  0  0  0  0  0  0  0  0
   45.1990   34.1440   46.1610 C   0  0  0  0  0  0  0  0  0  0  0  0
   44.5380   35.2900   45.8250 N   0  0  0  0  0  0  0  0  0  0  0  0
   44.5130   35.7770   44.5810 C   0  0  0  0  0  0  0  0  0  0  0  0
   45.1380   35.1610   43.6030 N   0  0  0  0  0  0  0  0  0  0  0  0
   47.7640   34.0610   38.3460 O   0  0  0  0  0  0  0  0  0  0  0  0
   48.7260   33.9120   37.3360 C   0  0  1  0  0  0  0  0  0  0  0  0
   49.1890   32.4350   37.2580 C   0  0  0  0  0  0  0  0  0  0  0  0
   48.4610   33.1460   36.1280 C   0  0  1  0  0  0  0  0  0  0  0  0
   47.1510   32.5720   35.8530 N   0  0  0  0  0  0  0  0  0  0  0  0
   46.0670   32.3290   36.6140 C   0  0  0  0  0  0  0  0  0  0  0  0
   45.1000   31.7770   35.8660 N   0  0  0  0  0  0  0  0  0  0  0  0
   45.5870   31.6740   34.6180 C   0  0  0  0  0  0  0  0  0  0  0  0
   46.8470   32.1620   34.6100 N   0  0  0  0  0  0  0  0  0  0  0  0
   48.2936   35.2262   43.3526 H   0  0  0  0  0  0  0  0  0  0  0  0
   49.6899   36.5124   41.7711 H   0  0  0  0  0  0  0  0  0  0  0  0
   49.4894   36.0106   39.3509 H   0  0  0  0  0  0  0  0  0  0  0  0
   46.4258   32.5392   45.3534 H   0  0  0  0  0  0  0  0  0  0  0  0
   45.1985   33.7690   47.1951 H   0  0  0  0  0  0  0  0  0  0  0  0
   43.9619   36.7059   44.3728 H   0  0  0  0  0  0  0  0  0  0  0  0
   49.1447   34.9223   37.4542 H   0  0  0  0  0  0  0  0  0  0  0  0
   50.2570   32.1877   37.1670 H   0  0  0  0  0  0  0  0  0  0  0  0
   49.0411   31.5205   37.8511 H   0  0  0  0  0  0  0  0  0  0  0  0
   48.6427   33.4012   35.0735 H   0  0  0  0  0  0  0  0  0  0  0  0
   45.9865   32.5501   37.6885 H   0  0  0  0  0  0  0  0  0  0  0  0
   45.0510   31.2623   33.7501 H   0  0  0  0  0  0  0  0  0  0  0  0
  1  2  2  0
  1  7  1  0
  3  2  1  0
  4  3  2  0
  5  4  1  0
  5  6  2  0
  6  1  1  0
  7  9  1  0
  8  7  2  0
  9 10  2  0
 10 11  1  0
 12 11  2  0
 13 12  1  0
 14  9  1  0
 14 13  2  0
 15  5  1  0
 16 15  1  0
 17 16  1  0
 18 17  1  0
 18 16  1  0
 19 18  1  0
 19 20  1  0
 21 20  2  0
 22 21  1  0
 23 22  2  0
 23 19  1  0
  2 24  1  0
  3 25  1  0
  4 26  1  0
 10 27  1  0
 11 28  1  0
 13 29  1  0
 16 30  1  6
 17 31  1  0
 17 32  1  0
 18 33  1  6
 20 34  1  0
 22 35  1  0
M  ISO  8  24  14  25  14  26  14  27  14  28  14  29  14  30  13  31  13
M  ISO  4  32  13  33  13  34  14  35  14
M  END
>  <minimizedAffinity>  (1) 
-5.38363647

>  <minimizedRMSD>  (1) 
0.853061974

$$$$
