
     RDKit          3D

 35 38  0  0  1  0  0  0  0  0999 V2000
   47.5240   34.0070   41.9740 C   0  0  0  0  0  0  0  0  0  0  0  0
   48.3790   35.0630   42.2030 C   0  0  0  0  0  0  0  0  0  0  0  0
   49.0170   35.7520   41.1950 C   0  0  0  0  0  0  0  0  0  0  0  0
   48.7780   35.3520   39.9150 C   0  0  0  0  0  0  0  0  0  0  0  0
   47.9240   34.2920   39.6590 C   0  0  0  0  0  0  0  0  0  0  0  0
   47.3240   33.6540   40.6950 N   0  0  0  0  0  0  0  0  0  0  0  0
   46.8810   33.3130   43.0790 C   0  0  0  0  0  0  0  0  0  0  0  0
   47.1080   32.0600   43.1890 O   0  0  0  0  0  0  0  0  0  0  0  0
   46.0340   34.0550   43.9840 C   0  0  0  0  0  0  0  0  0  0  0  0
   45.9390   33.5330   45.2960 C   0  0  0  0  0  0  0  0  0  0  0  0
   45.1320   34.2300   46.1890 C   0  0  0  0  0  0  0  0  0  0  0  0
   44.5000   35.3550   45.7280 N   0  0  0  0  0  0  0  0  0  0  0  0
   44.6240   35.8030   44.4770 C   0  0  0  0  0  0  0  0  0  0  0  0
   45.3830   35.1640   43.6100 N   0  0  0  0  0  0  0  0  0  0  0  0
   47.5690   33.7450   38.4350 O   0  0  0  0  0  0  0  0  0  0  0  0
   48.4690   33.2610   37.4680 C   0  0  1  0  0  0  0  0  0  0  0  0
   48.9300   31.8340   37.8430 C   0  0  0  0  0  0  0  0  0  0  0  0
   48.1100   32.1260   36.6120 C   0  0  2  0  0  0  0  0  0  0  0  0
   48.8260   32.0760   35.2840 C   0  0  0  0  0  0  0  0  0  0  0  0
   49.7940   31.1170   35.0410 C   0  0  0  0  0  0  0  0  0  0  0  0
   50.3140   31.5280   33.2970 S   0  0  0  0  0  0  0  0  0  0  0  0
   49.0760   32.9610   33.2470 C   0  0  0  0  0  0  0  0  0  0  0  0
   48.6000   32.9060   34.2820 N   0  0  0  0  0  0  0  0  0  0  0  0
   48.5613   35.3714   43.2430 H   0  0  0  0  0  0  0  0  0  0  0  0
   49.6926   36.5918   41.4150 H   0  0  0  0  0  0  0  0  0  0  0  0
   49.2665   35.8743   39.0791 H   0  0  0  0  0  0  0  0  0  0  0  0
   46.4768   32.6211   45.5947 H   0  0  0  0  0  0  0  0  0  0  0  0
   45.0057   33.8904   47.2276 H   0  0  0  0  0  0  0  0  0  0  0  0
   44.0885   36.7126   44.1674 H   0  0  0  0  0  0  0  0  0  0  0  0
   48.8948   34.2436   37.2167 H   0  0  0  0  0  0  0  0  0  0  0  0
   49.9885   31.5487   37.7526 H   0  0  0  0  0  0  0  0  0  0  0  0
   48.8377   31.1756   38.7194 H   0  0  0  0  0  0  0  0  0  0  0  0
   47.1659   31.7169   36.2229 H   0  0  0  0  0  0  0  0  0  0  0  0
   50.1613   30.3197   35.7039 H   0  0  0  0  0  0  0  0  0  0  0  0
   48.8690   33.6662   32.4286 H   0  0  0  0  0  0  0  0  0  0  0  0
  1  2  2  0
  1  7  1  0
  3  2  1  0
  4  3  2  0
  5  4  1  0
  5  6  2  0
  6  1  1  0
  7  8  2  0
  7  9  1  0
  9 10  2  0
 10 11  1  0
 12 11  2  0
 13 12  1  0
 14  9  1  0
 14 13  2  0
 15  5  1  0
 16 17  1  0
 16 15  1  0
 18 16  1  0
 18 17  1  0
 19 18  1  0
 20 19  2  0
 21 20  1  0
 22 21  1  0
 22 23  2  0
 23 19  1  0
  2 24  1  0
  3 25  1  0
  4 26  1  0
 10 27  1  0
 11 28  1  0
 13 29  1  0
 16 30  1  6
 17 31  1  0
 17 32  1  0
 18 33  1  6
 20 34  1  0
 22 35  1  0
M  ISO  8  24  14  25  14  26  14  27  14  28  14  29  14  30  13  31  13
M  ISO  4  32  13  33  13  34  14  35  14
M  END
>  <minimizedAffinity>  (1) 
-5.4108777

>  <minimizedRMSD>  (1) 
1.26521766

$$$$
