
     RDKit          3D

 36 39  0  0  1  0  0  0  0  0999 V2000
   47.6710   34.1130   42.2800 C   0  0  0  0  0  0  0  0  0  0  0  0
   48.5370   35.1600   42.5410 C   0  0  0  0  0  0  0  0  0  0  0  0
   49.1630   35.8880   41.5550 C   0  0  0  0  0  0  0  0  0  0  0  0
   48.9060   35.5440   40.2650 C   0  0  0  0  0  0  0  0  0  0  0  0
   48.0460   34.5000   39.9740 C   0  0  0  0  0  0  0  0  0  0  0  0
   47.4580   33.8200   40.9920 N   0  0  0  0  0  0  0  0  0  0  0  0
   47.0470   33.3800   43.3640 C   0  0  0  0  0  0  0  0  0  0  0  0
   47.3600   32.1470   43.4860 O   0  0  0  0  0  0  0  0  0  0  0  0
   46.1150   34.0640   44.2370 C   0  0  0  0  0  0  0  0  0  0  0  0
   45.9910   33.5130   45.5390 C   0  0  0  0  0  0  0  0  0  0  0  0
   45.1070   34.1510   46.4020 C   0  0  0  0  0  0  0  0  0  0  0  0
   44.4370   35.2470   45.9250 N   0  0  0  0  0  0  0  0  0  0  0  0
   44.5900   35.7270   44.6850 C   0  0  0  0  0  0  0  0  0  0  0  0
   45.4250   35.1360   43.8500 N   0  0  0  0  0  0  0  0  0  0  0  0
   47.6750   34.0040   38.7340 O   0  0  0  0  0  0  0  0  0  0  0  0
   48.4470   34.0660   37.5620 C   0  0  1  0  0  0  0  0  0  0  0  0
   49.0790   32.6850   37.2630 C   0  0  0  0  0  0  0  0  0  0  0  0
   48.0460   33.3430   36.3580 C   0  0  1  0  0  0  0  0  0  0  0  0
   46.7410   32.6110   36.3530 C   0  0  0  0  0  0  0  0  0  0  0  0
   46.5420   31.2470   36.2950 C   0  0  0  0  0  0  0  0  0  0  0  0
   45.1780   30.9560   36.3100 C   0  0  0  0  0  0  0  0  0  0  0  0
   44.5890   32.1700   36.3770 N   0  0  0  0  0  0  0  0  0  0  0  0
   45.4810   33.1350   36.4020 N   0  0  0  0  0  0  0  0  0  0  0  0
   48.7353   35.4240   43.5903 H   0  0  0  0  0  0  0  0  0  0  0  0
   49.8445   36.7157   41.8010 H   0  0  0  0  0  0  0  0  0  0  0  0
   49.3857   36.1002   39.4461 H   0  0  0  0  0  0  0  0  0  0  0  0
   46.5645   32.6271   45.8493 H   0  0  0  0  0  0  0  0  0  0  0  0
   44.9513   33.7895   47.4292 H   0  0  0  0  0  0  0  0  0  0  0  0
   44.0215   36.6117   44.3622 H   0  0  0  0  0  0  0  0  0  0  0  0
   48.7516   35.1144   37.6962 H   0  0  0  0  0  0  0  0  0  0  0  0
   50.1300   32.6081   36.9475 H   0  0  0  0  0  0  0  0  0  0  0  0
   49.1795   31.7246   37.7897 H   0  0  0  0  0  0  0  0  0  0  0  0
   47.9860   33.6598   35.3063 H   0  0  0  0  0  0  0  0  0  0  0  0
   47.3444   30.4963   36.2442 H   0  0  0  0  0  0  0  0  0  0  0  0
   44.6946   29.9685   36.2754 H   0  0  0  0  0  0  0  0  0  0  0  0
   43.5704   32.3202   36.4049 H   0  0  0  0  0  0  0  0  0  0  0  0
  1  2  2  0
  1  7  1  0
  3  2  1  0
  4  3  2  0
  5  4  1  0
  5  6  2  0
  6  1  1  0
  7  8  2  0
  7  9  1  0
  9 10  2  0
 10 11  1  0
 12 11  2  0
 13 12  1  0
 14  9  1  0
 14 13  2  0
 15  5  1  0
 16 15  1  0
 17 16  1  0
 18 17  1  0
 18 16  1  0
 19 18  1  0
 19 23  2  0
 20 21  2  0
 20 19  1  0
 21 22  1  0
 22 23  1  0
  2 24  1  0
  3 25  1  0
  4 26  1  0
 10 27  1  0
 11 28  1  0
 13 29  1  0
 16 30  1  6
 17 31  1  0
 17 32  1  0
 18 33  1  6
 20 34  1  0
 21 35  1  0
 22 36  1  0
M  ISO  8  24  14  25  14  26  14  27  14  28  14  29  14  30  13  31  13
M  ISO  5  32  13  33  13  34  14  35  14  36   9
M  END
>  <minimizedAffinity>  (1) 
-5.4402504

>  <minimizedRMSD>  (1) 
0.677815735

$$$$
