
     RDKit          3D

 42 45  0  0  1  0  0  0  0  0999 V2000
   47.5530   34.0270   42.1720 C   0  0  0  0  0  0  0  0  0  0  0  0
   48.4080   35.0710   42.4210 C   0  0  0  0  0  0  0  0  0  0  0  0
   49.0480   35.7770   41.4310 C   0  0  0  0  0  0  0  0  0  0  0  0
   48.8060   35.4050   40.1400 C   0  0  0  0  0  0  0  0  0  0  0  0
   47.9500   34.3550   39.8610 C   0  0  0  0  0  0  0  0  0  0  0  0
   47.3520   33.7020   40.8890 N   0  0  0  0  0  0  0  0  0  0  0  0
   46.9080   33.3100   43.2650 C   0  0  0  0  0  0  0  0  0  0  0  0
   47.1520   32.0590   43.3620 O   0  0  0  0  0  0  0  0  0  0  0  0
   46.0420   34.0220   44.1680 C   0  0  0  0  0  0  0  0  0  0  0  0
   45.9430   33.4970   45.4730 C   0  0  0  0  0  0  0  0  0  0  0  0
   45.1080   34.1760   46.3610 C   0  0  0  0  0  0  0  0  0  0  0  0
   44.4600   35.2780   45.9080 N   0  0  0  0  0  0  0  0  0  0  0  0
   44.5810   35.7470   44.6580 C   0  0  0  0  0  0  0  0  0  0  0  0
   45.3700   35.1130   43.8020 N   0  0  0  0  0  0  0  0  0  0  0  0
   47.5940   33.8370   38.6270 O   0  0  0  0  0  0  0  0  0  0  0  0
   48.2870   34.0540   37.4230 C   0  0  1  0  0  0  0  0  0  0  0  0
   49.2640   32.8870   37.1530 C   0  0  0  0  0  0  0  0  0  0  0  0
   48.0660   33.1910   36.2620 C   0  0  1  0  0  0  0  0  0  0  0  0
   47.0020   32.1200   36.2660 C   0  0  0  0  0  0  0  0  0  0  0  0
   47.3190   31.1070   35.2090 C   0  0  0  0  0  0  0  0  0  0  0  0
   45.9990   30.7570   34.5420 C   0  0  0  0  0  0  0  0  0  0  0  0
   45.3160   32.1220   34.5290 C   0  0  0  0  0  0  0  0  0  0  0  0
   45.6480   32.6850   35.9000 C   0  0  0  0  0  0  0  0  0  0  0  0
   48.5905   35.3575   43.4672 H   0  0  0  0  0  0  0  0  0  0  0  0
   49.7279   36.6083   41.6691 H   0  0  0  0  0  0  0  0  0  0  0  0
   49.2954   35.9443   39.3156 H   0  0  0  0  0  0  0  0  0  0  0  0
   46.4969   32.5963   45.7761 H   0  0  0  0  0  0  0  0  0  0  0  0
   44.9792   33.8282   47.3966 H   0  0  0  0  0  0  0  0  0  0  0  0
   44.0318   36.6477   44.3462 H   0  0  0  0  0  0  0  0  0  0  0  0
   48.2957   35.1509   37.5048 H   0  0  0  0  0  0  0  0  0  0  0  0
   50.2868   33.0855   36.8002 H   0  0  0  0  0  0  0  0  0  0  0  0
   49.6383   32.0174   37.7130 H   0  0  0  0  0  0  0  0  0  0  0  0
   47.8879   33.4355   35.2044 H   0  0  0  0  0  0  0  0  0  0  0  0
   46.9797   31.6872   37.2770 H   0  0  0  0  0  0  0  0  0  0  0  0
   48.0170   31.5313   34.4723 H   0  0  0  0  0  0  0  0  0  0  0  0
   47.7967   30.2153   35.6411 H   0  0  0  0  0  0  0  0  0  0  0  0
   46.1499   30.3699   33.5235 H   0  0  0  0  0  0  0  0  0  0  0  0
   45.4274   29.9659   35.0494 H   0  0  0  0  0  0  0  0  0  0  0  0
   45.7232   32.7599   33.7307 H   0  0  0  0  0  0  0  0  0  0  0  0
   44.2348   32.0632   34.3354 H   0  0  0  0  0  0  0  0  0  0  0  0
   45.6898   33.7836   35.8621 H   0  0  0  0  0  0  0  0  0  0  0  0
   44.8838   32.4131   36.6430 H   0  0  0  0  0  0  0  0  0  0  0  0
  1  2  2  0
  1  7  1  0
  3  2  1  0
  4  3  2  0
  5  4  1  0
  5  6  2  0
  6  1  1  0
  7  8  2  0
  7  9  1  0
  9 10  2  0
 10 11  1  0
 12 11  2  0
 13 12  1  0
 14  9  1  0
 14 13  2  0
 15  5  1  0
 16 15  1  0
 17 16  1  0
 18 19  1  0
 18 17  1  0
 18 16  1  0
 20 19  1  0
 21 20  1  0
 22 21  1  0
 22 23  1  0
 23 19  1  0
  2 24  1  0
  3 25  1  0
  4 26  1  0
 10 27  1  0
 11 28  1  0
 13 29  1  0
 16 30  1  6
 17 31  1  0
 17 32  1  0
 18 33  1  6
 19 34  1  0
 20 35  1  0
 20 36  1  0
 21 37  1  0
 21 38  1  0
 22 39  1  0
 22 40  1  0
 23 41  1  0
 23 42  1  0
M  ISO  8  24  14  25  14  26  14  27  14  28  14  29  14  30  13  31  13
M  ISO  8  32  13  33  13  34  13  35  13  36  13  37  13  38  13  39  13
M  ISO  3  40  13  41  13  42  13
M  END
>  <minimizedAffinity>  (1) 
-5.4471097

>  <minimizedRMSD>  (1) 
0.948863685

$$$$
