
     RDKit          3D

 41 43  0  0  1  0  0  0  0  0999 V2000
   47.6510   34.1050   42.2390 C   0  0  0  0  0  0  0  0  0  0  0  0
   48.5010   35.1540   42.5010 C   0  0  0  0  0  0  0  0  0  0  0  0
   49.1310   35.8810   41.5150 C   0  0  0  0  0  0  0  0  0  0  0  0
   48.8840   35.5240   40.2220 C   0  0  0  0  0  0  0  0  0  0  0  0
   48.0350   34.4730   39.9290 C   0  0  0  0  0  0  0  0  0  0  0  0
   47.4470   33.8000   40.9510 N   0  0  0  0  0  0  0  0  0  0  0  0
   47.0210   33.3700   43.3250 C   0  0  0  0  0  0  0  0  0  0  0  0
   47.3210   32.1330   43.4410 O   0  0  0  0  0  0  0  0  0  0  0  0
   46.1010   34.0600   44.2060 C   0  0  0  0  0  0  0  0  0  0  0  0
   45.9900   33.5070   45.5050 C   0  0  0  0  0  0  0  0  0  0  0  0
   45.1170   34.1530   46.3790 C   0  0  0  0  0  0  0  0  0  0  0  0
   44.4490   35.2540   45.9130 N   0  0  0  0  0  0  0  0  0  0  0  0
   44.5940   35.7310   44.6720 C   0  0  0  0  0  0  0  0  0  0  0  0
   45.4140   35.1380   43.8250 N   0  0  0  0  0  0  0  0  0  0  0  0
   47.6730   33.9640   38.6940 O   0  0  0  0  0  0  0  0  0  0  0  0
   48.3970   34.1290   37.5040 C   0  0  1  0  0  0  0  0  0  0  0  0
   49.2310   32.8670   37.1990 C   0  0  0  0  0  0  0  0  0  0  0  0
   48.1120   33.3460   36.3100 C   0  0  1  0  0  0  0  0  0  0  0  0
   46.9610   32.4240   36.1590 C   0  0  0  0  0  0  0  0  0  0  0  0
   45.6430   33.0320   36.5900 C   0  0  0  0  0  0  0  0  0  0  0  0
   47.1800   31.1770   36.9730 C   0  0  0  0  0  0  0  0  0  0  0  0
   46.7880   31.9770   34.7080 C   0  0  0  0  0  0  0  0  0  0  0  0
   48.6871   35.4261   43.5504 H   0  0  0  0  0  0  0  0  0  0  0  0
   49.8053   36.7148   41.7603 H   0  0  0  0  0  0  0  0  0  0  0  0
   49.3657   36.0785   39.4032 H   0  0  0  0  0  0  0  0  0  0  0  0
   46.5611   32.6169   45.8076 H   0  0  0  0  0  0  0  0  0  0  0  0
   44.9698   33.7910   47.4072 H   0  0  0  0  0  0  0  0  0  0  0  0
   44.0282   36.6200   44.3565 H   0  0  0  0  0  0  0  0  0  0  0  0
   48.5233   35.2146   37.6288 H   0  0  0  0  0  0  0  0  0  0  0  0
   50.2783   32.9551   36.8745 H   0  0  0  0  0  0  0  0  0  0  0  0
   49.4845   31.9352   37.7257 H   0  0  0  0  0  0  0  0  0  0  0  0
   47.9829   33.6669   35.2658 H   0  0  0  0  0  0  0  0  0  0  0  0
   45.5919   33.0556   37.6886 H   0  0  0  0  0  0  0  0  0  0  0  0
   45.5660   34.0566   36.1973 H   0  0  0  0  0  0  0  0  0  0  0  0
   44.8136   32.4255   36.1973 H   0  0  0  0  0  0  0  0  0  0  0  0
   47.1363   31.4256   38.0436 H   0  0  0  0  0  0  0  0  0  0  0  0
   46.3972   30.4417   36.7351 H   0  0  0  0  0  0  0  0  0  0  0  0
   48.1665   30.7524   36.7351 H   0  0  0  0  0  0  0  0  0  0  0  0
   46.3911   30.9514   34.6851 H   0  0  0  0  0  0  0  0  0  0  0  0
   46.0866   32.6531   34.1972 H   0  0  0  0  0  0  0  0  0  0  0  0
   47.7618   32.0048   34.1972 H   0  0  0  0  0  0  0  0  0  0  0  0
  1  2  2  0
  1  7  1  0
  3  2  1  0
  4  3  2  0
  5  4  1  0
  5  6  2  0
  6  1  1  0
  7  8  2  0
  7  9  1  0
  9 10  2  0
 10 11  1  0
 12 11  2  0
 13 12  1  0
 14  9  1  0
 14 13  2  0
 15  5  1  0
 16 15  1  0
 17 16  1  0
 18 17  1  0
 18 16  1  0
 19 18  1  0
 19 20  1  0
 19 21  1  0
 22 19  1  0
  2 23  1  0
  3 24  1  0
  4 25  1  0
 10 26  1  0
 11 27  1  0
 13 28  1  0
 16 29  1  6
 17 30  1  0
 17 31  1  0
 18 32  1  6
 20 33  1  0
 20 34  1  0
 20 35  1  0
 21 36  1  0
 21 37  1  0
 21 38  1  0
 22 39  1  0
 22 40  1  0
 22 41  1  0
M  ISO  8  23  14  24  14  25  14  26  14  27  14  28  14  29  13  30  13
M  ISO  8  31  13  32  13  33   8  34   8  35   8  36   8  37   8  38   8
M  ISO  3  39   8  40   8  41   8
M  END
>  <minimizedAffinity>  (1) 
-5.29071712

>  <minimizedRMSD>  (1) 
0.348690927

$$$$
