
     RDKit          3D

 30 32  0  0  1  0  0  0  0  0999 V2000
   47.4670   34.0560   42.0130 C   0  0  0  0  0  0  0  0  0  0  0  0
   48.3230   35.0740   42.3670 C   0  0  0  0  0  0  0  0  0  0  0  0
   49.0420   35.8120   41.4570 C   0  0  0  0  0  0  0  0  0  0  0  0
   48.8790   35.4970   40.1510 C   0  0  0  0  0  0  0  0  0  0  0  0
   48.0290   34.4800   39.7510 C   0  0  0  0  0  0  0  0  0  0  0  0
   47.3500   33.7940   40.7050 N   0  0  0  0  0  0  0  0  0  0  0  0
   46.7360   33.3070   43.0230 C   0  0  0  0  0  0  0  0  0  0  0  0
   46.8400   32.0420   42.9990 O   0  0  0  0  0  0  0  0  0  0  0  0
   45.9320   34.0350   43.9960 C   0  0  0  0  0  0  0  0  0  0  0  0
   45.9210   33.4810   45.2980 C   0  0  0  0  0  0  0  0  0  0  0  0
   45.1650   34.1510   46.2530 C   0  0  0  0  0  0  0  0  0  0  0  0
   44.5010   35.2830   45.8540 N   0  0  0  0  0  0  0  0  0  0  0  0
   44.5460   35.7650   44.6070 C   0  0  0  0  0  0  0  0  0  0  0  0
   45.2580   35.1420   43.6860 N   0  0  0  0  0  0  0  0  0  0  0  0
   47.7550   34.0230   38.4740 O   0  0  0  0  0  0  0  0  0  0  0  0
   48.6460   34.0660   37.3860 C   0  0  1  0  0  0  0  0  0  0  0  0
   49.3530   32.6970   37.2220 C   0  0  0  0  0  0  0  0  0  0  0  0
   48.4030   33.2620   36.1880 C   0  0  1  0  0  0  0  0  0  0  0  0
   47.2250   32.5180   36.0560 O   0  0  0  0  0  0  0  0  0  0  0  0
   48.4379   35.3097   43.4353 H   0  0  0  0  0  0  0  0  0  0  0  0
   49.7174   36.6198   41.7751 H   0  0  0  0  0  0  0  0  0  0  0  0
   49.4352   36.0626   39.3889 H   0  0  0  0  0  0  0  0  0  0  0  0
   46.4820   32.5668   45.5420 H   0  0  0  0  0  0  0  0  0  0  0  0
   45.1017   33.7872   47.2892 H   0  0  0  0  0  0  0  0  0  0  0  0
   43.9907   36.6789   44.3493 H   0  0  0  0  0  0  0  0  0  0  0  0
   48.8958   35.1316   37.4962 H   0  0  0  0  0  0  0  0  0  0  0  0
   50.4331   32.6475   37.0194 H   0  0  0  0  0  0  0  0  0  0  0  0
   49.4313   31.7680   37.8058 H   0  0  0  0  0  0  0  0  0  0  0  0
   48.4393   33.5311   35.1220 H   0  0  0  0  0  0  0  0  0  0  0  0
   46.8728   32.2956   36.9541 H   0  0  0  0  0  0  0  0  0  0  0  0
  1  2  2  0
  1  7  1  0
  3  2  1  0
  4  3  2  0
  5  4  1  0
  5  6  2  0
  6  1  1  0
  7  9  1  0
  8  7  2  0
  9 10  2  0
 10 11  1  0
 12 11  2  0
 13 12  1  0
 14  9  1  0
 14 13  2  0
 15  5  1  0
 16 15  1  0
 17 16  1  0
 18 17  1  0
 18 16  1  0
 19 18  1  0
  2 20  1  0
  3 21  1  0
  4 22  1  0
 10 23  1  0
 11 24  1  0
 13 25  1  0
 16 26  1  6
 17 27  1  0
 17 28  1  0
 18 29  1  6
 19 30  1  0
M  ISO  8  20  14  21  14  22  14  23  14  24  14  25  14  26  13  27  13
M  ISO  3  28  13  29  13  30   3
M  END
>  <minimizedAffinity>  (1) 
-5.08410931

>  <minimizedRMSD>  (1) 
0.361759454

$$$$
