
     RDKit          3D

 36 39  0  0  1  0  0  0  0  0999 V2000
   47.6340   34.0830   42.1870 C   0  0  0  0  0  0  0  0  0  0  0  0
   48.4920   35.1380   42.4370 C   0  0  0  0  0  0  0  0  0  0  0  0
   49.1140   35.8590   41.4450 C   0  0  0  0  0  0  0  0  0  0  0  0
   48.8520   35.4920   40.1680 C   0  0  0  0  0  0  0  0  0  0  0  0
   48.0000   34.4400   39.8790 C   0  0  0  0  0  0  0  0  0  0  0  0
   47.4150   33.7680   40.9020 N   0  0  0  0  0  0  0  0  0  0  0  0
   47.0080   33.3570   43.2800 C   0  0  0  0  0  0  0  0  0  0  0  0
   47.2970   32.1280   43.3950 O   0  0  0  0  0  0  0  0  0  0  0  0
   46.1030   34.0470   44.1700 C   0  0  0  0  0  0  0  0  0  0  0  0
   45.9820   33.5180   45.4690 C   0  0  0  0  0  0  0  0  0  0  0  0
   45.1200   34.1690   46.3430 C   0  0  0  0  0  0  0  0  0  0  0  0
   44.4600   35.2690   45.8790 N   0  0  0  0  0  0  0  0  0  0  0  0
   44.6090   35.7350   44.6360 C   0  0  0  0  0  0  0  0  0  0  0  0
   45.4140   35.1410   43.7900 N   0  0  0  0  0  0  0  0  0  0  0  0
   47.6370   33.9360   38.6410 O   0  0  0  0  0  0  0  0  0  0  0  0
   48.3600   34.0910   37.4460 C   0  0  1  0  0  0  0  0  0  0  0  0
   49.2430   32.8470   37.1880 C   0  0  0  0  0  0  0  0  0  0  0  0
   48.0920   33.2320   36.2920 C   0  0  1  0  0  0  0  0  0  0  0  0
   46.9430   32.3390   36.3470 N   0  0  0  0  0  0  0  0  0  0  0  0
   45.6590   32.6220   36.0390 C   0  0  0  0  0  0  0  0  0  0  0  0
   44.8420   31.5240   36.2130 C   0  0  0  0  0  0  0  0  0  0  0  0
   45.6730   30.5380   36.6480 N   0  0  0  0  0  0  0  0  0  0  0  0
   46.9310   31.0500   36.7210 C   0  0  0  0  0  0  0  0  0  0  0  0
   48.6871   35.4149   43.4836 H   0  0  0  0  0  0  0  0  0  0  0  0
   49.7917   36.6937   41.6775 H   0  0  0  0  0  0  0  0  0  0  0  0
   49.3268   36.0421   39.3421 H   0  0  0  0  0  0  0  0  0  0  0  0
   46.5464   32.6263   45.7792 H   0  0  0  0  0  0  0  0  0  0  0  0
   44.9749   33.8101   47.3726 H   0  0  0  0  0  0  0  0  0  0  0  0
   44.0495   36.6275   44.3191 H   0  0  0  0  0  0  0  0  0  0  0  0
   48.4524   35.1844   37.5225 H   0  0  0  0  0  0  0  0  0  0  0  0
   50.2811   32.9620   36.8427 H   0  0  0  0  0  0  0  0  0  0  0  0
   49.5422   31.9541   37.7566 H   0  0  0  0  0  0  0  0  0  0  0  0
   47.9733   33.4445   35.2193 H   0  0  0  0  0  0  0  0  0  0  0  0
   45.3082   33.6053   35.6926 H   0  0  0  0  0  0  0  0  0  0  0  0
   43.7578   31.4597   36.0386 H   0  0  0  0  0  0  0  0  0  0  0  0
   47.8180   30.4845   37.0428 H   0  0  0  0  0  0  0  0  0  0  0  0
  1  2  2  0
  1  7  1  0
  3  2  1  0
  4  3  2  0
  5  4  1  0
  5  6  2  0
  6  1  1  0
  7  8  2  0
  7  9  1  0
  9 10  2  0
 10 11  1  0
 12 11  2  0
 13 12  1  0
 14  9  1  0
 14 13  2  0
 15  5  1  0
 16 15  1  0
 17 16  1  0
 18 19  1  0
 18 17  1  0
 18 16  1  0
 19 23  1  0
 20 21  2  0
 20 19  1  0
 21 22  1  0
 22 23  2  0
  2 24  1  0
  3 25  1  0
  4 26  1  0
 10 27  1  0
 11 28  1  0
 13 29  1  0
 16 30  1  6
 17 31  1  0
 17 32  1  0
 18 33  1  6
 20 34  1  0
 21 35  1  0
 23 36  1  0
M  ISO  8  24  14  25  14  26  14  27  14  28  14  29  14  30  13  31  13
M  ISO  5  32  13  33  13  34  14  35  14  36  14
M  END
>  <minimizedAffinity>  (1) 
-5.32664442

>  <minimizedRMSD>  (1) 
0.419864982

$$$$
