
     RDKit          3D

 41 44  0  0  1  0  0  0  0  0999 V2000
   47.7210   34.0890   42.2810 C   0  0  0  0  0  0  0  0  0  0  0  0
   48.5840   35.1590   42.4290 C   0  0  0  0  0  0  0  0  0  0  0  0
   49.1300   35.8470   41.3680 C   0  0  0  0  0  0  0  0  0  0  0  0
   48.7900   35.4330   40.1170 C   0  0  0  0  0  0  0  0  0  0  0  0
   47.9300   34.3650   39.9360 C   0  0  0  0  0  0  0  0  0  0  0  0
   47.4260   33.7310   41.0250 N   0  0  0  0  0  0  0  0  0  0  0  0
   47.1810   33.4000   43.4390 C   0  0  0  0  0  0  0  0  0  0  0  0
   47.6100   32.2180   43.6590 O   0  0  0  0  0  0  0  0  0  0  0  0
   46.2060   34.0690   44.2730 C   0  0  0  0  0  0  0  0  0  0  0  0
   46.0470   33.5280   45.5730 C   0  0  0  0  0  0  0  0  0  0  0  0
   45.1160   34.1560   46.3930 C   0  0  0  0  0  0  0  0  0  0  0  0
   44.4390   35.2300   45.8840 N   0  0  0  0  0  0  0  0  0  0  0  0
   44.6280   35.7000   44.6470 C   0  0  0  0  0  0  0  0  0  0  0  0
   45.5030   35.1250   43.8470 N   0  0  0  0  0  0  0  0  0  0  0  0
   47.4800   33.8010   38.7530 O   0  0  0  0  0  0  0  0  0  0  0  0
   48.0170   34.0510   37.4760 C   0  0  1  0  0  0  0  0  0  0  0  0
   49.1440   33.0450   37.1650 C   0  0  0  0  0  0  0  0  0  0  0  0
   47.8500   33.0710   36.3990 C   0  0  1  0  0  0  0  0  0  0  0  0
   46.9010   31.9970   36.4760 N   0  0  0  0  0  0  0  0  0  0  0  0
   45.7050   32.3830   35.7460 C   0  0  0  0  0  0  0  0  0  0  0  0
   46.1380   32.1180   34.3210 C   0  0  0  0  0  0  0  0  0  0  0  0
   46.8190   30.7690   34.4500 C   0  0  0  0  0  0  0  0  0  0  0  0
   47.2920   30.7670   35.8870 C   0  0  0  0  0  0  0  0  0  0  0  0
   48.8486   35.4777   43.4480 H   0  0  0  0  0  0  0  0  0  0  0  0
   49.8122   36.6954   41.5252 H   0  0  0  0  0  0  0  0  0  0  0  0
   49.2035   35.9533   39.2405 H   0  0  0  0  0  0  0  0  0  0  0  0
   46.6282   32.6589   45.9148 H   0  0  0  0  0  0  0  0  0  0  0  0
   44.9301   33.8008   47.4173 H   0  0  0  0  0  0  0  0  0  0  0  0
   44.0517   36.5688   44.2961 H   0  0  0  0  0  0  0  0  0  0  0  0
   47.8464   35.1375   37.4972 H   0  0  0  0  0  0  0  0  0  0  0  0
   50.0778   33.3836   36.6923 H   0  0  0  0  0  0  0  0  0  0  0  0
   49.7143   32.2941   37.7316 H   0  0  0  0  0  0  0  0  0  0  0  0
   47.5927   33.1507   35.3325 H   0  0  0  0  0  0  0  0  0  0  0  0
   44.8418   31.7622   36.0279 H   0  0  0  0  0  0  0  0  0  0  0  0
   45.3721   33.4144   35.9343 H   0  0  0  0  0  0  0  0  0  0  0  0
   46.8385   32.8880   33.9654 H   0  0  0  0  0  0  0  0  0  0  0  0
   45.3124   32.1328   33.5943 H   0  0  0  0  0  0  0  0  0  0  0  0
   46.1102   29.9483   34.2652 H   0  0  0  0  0  0  0  0  0  0  0  0
   47.6322   30.6210   33.7242 H   0  0  0  0  0  0  0  0  0  0  0  0
   46.8316   29.9290   36.4309 H   0  0  0  0  0  0  0  0  0  0  0  0
   48.3850   30.6514   35.9307 H   0  0  0  0  0  0  0  0  0  0  0  0
  1  2  2  0
  1  7  1  0
  3  2  1  0
  4  3  2  0
  5  4  1  0
  5  6  2  0
  6  1  1  0
  7  8  2  0
  7  9  1  0
  9 10  2  0
 10 11  1  0
 12 11  2  0
 13 12  1  0
 14  9  1  0
 14 13  2  0
 15  5  1  0
 16 15  1  0
 17 16  1  0
 18 19  1  0
 18 17  1  0
 18 16  1  0
 19 20  1  0
 21 22  1  0
 21 20  1  0
 22 23  1  0
 23 19  1  0
  2 24  1  0
  3 25  1  0
  4 26  1  0
 10 27  1  0
 11 28  1  0
 13 29  1  0
 16 30  1  6
 17 31  1  0
 17 32  1  0
 18 33  1  6
 20 34  1  0
 20 35  1  0
 21 36  1  0
 21 37  1  0
 22 38  1  0
 22 39  1  0
 23 40  1  0
 23 41  1  0
M  ISO  8  24  14  25  14  26  14  27  14  28  14  29  14  30  13  31  13
M  ISO  8  32  13  33  13  34  13  35  13  36  13  37  13  38  13  39  13
M  ISO  2  40  13  41  13
M  END
>  <minimizedAffinity>  (1) 
-5.3572197

>  <minimizedRMSD>  (1) 
1.12240827

$$$$
