
     RDKit          3D

 32 34  0  0  1  0  0  0  0  0999 V2000
   47.5860   34.1190   42.1580 C   0  0  0  0  0  0  0  0  0  0  0  0
   48.4430   35.1410   42.4780 C   0  0  0  0  0  0  0  0  0  0  0  0
   49.1210   35.8790   41.5410 C   0  0  0  0  0  0  0  0  0  0  0  0
   48.9200   35.5650   40.2320 C   0  0  0  0  0  0  0  0  0  0  0  0
   48.0610   34.5390   39.8820 C   0  0  0  0  0  0  0  0  0  0  0  0
   47.4150   33.8430   40.8510 N   0  0  0  0  0  0  0  0  0  0  0  0
   46.8930   33.3610   43.1970 C   0  0  0  0  0  0  0  0  0  0  0  0
   47.0980   32.1000   43.2240 O   0  0  0  0  0  0  0  0  0  0  0  0
   46.0310   34.0570   44.1190 C   0  0  0  0  0  0  0  0  0  0  0  0
   45.9590   33.4940   45.4160 C   0  0  0  0  0  0  0  0  0  0  0  0
   45.1330   34.1530   46.3270 C   0  0  0  0  0  0  0  0  0  0  0  0
   44.4730   35.2580   45.9110 N   0  0  0  0  0  0  0  0  0  0  0  0
   44.5730   35.7550   44.6650 C   0  0  0  0  0  0  0  0  0  0  0  0
   45.3500   35.1520   43.7830 N   0  0  0  0  0  0  0  0  0  0  0  0
   47.7430   34.0780   38.6140 O   0  0  0  0  0  0  0  0  0  0  0  0
   48.5600   34.1570   37.4770 C   0  0  1  0  0  0  0  0  0  0  0  0
   49.3200   32.8280   37.2750 C   0  0  0  0  0  0  0  0  0  0  0  0
   48.2770   33.3450   36.2960 C   0  0  1  0  0  0  0  0  0  0  0  0
   46.9660   32.5620   36.3680 C   0  0  0  0  0  0  0  0  0  0  0  0
   48.5945   35.3813   43.5407 H   0  0  0  0  0  0  0  0  0  0  0  0
   49.8002   36.6924   41.8360 H   0  0  0  0  0  0  0  0  0  0  0  0
   49.4440   36.1307   39.4475 H   0  0  0  0  0  0  0  0  0  0  0  0
   46.5218   32.5893   45.6896 H   0  0  0  0  0  0  0  0  0  0  0  0
   45.0213   33.7835   47.3570 H   0  0  0  0  0  0  0  0  0  0  0  0
   44.0114   36.6576   44.3823 H   0  0  0  0  0  0  0  0  0  0  0  0
   48.7676   35.2331   37.5708 H   0  0  0  0  0  0  0  0  0  0  0  0
   50.3868   32.8301   37.0070 H   0  0  0  0  0  0  0  0  0  0  0  0
   49.4794   31.9068   37.8546 H   0  0  0  0  0  0  0  0  0  0  0  0
   48.2613   33.5582   35.2170 H   0  0  0  0  0  0  0  0  0  0  0  0
   46.6935   32.3992   37.4212 H   0  0  0  0  0  0  0  0  0  0  0  0
   46.1701   33.1328   35.8673 H   0  0  0  0  0  0  0  0  0  0  0  0
   47.0911   31.5906   35.8673 H   0  0  0  0  0  0  0  0  0  0  0  0
  1  2  2  0
  1  7  1  0
  3  2  1  0
  4  3  2  0
  5  4  1  0
  5  6  2  0
  6  1  1  0
  7  8  2  0
  7  9  1  0
  9 10  2  0
 10 11  1  0
 12 11  2  0
 13 12  1  0
 14  9  1  0
 14 13  2  0
 15  5  1  0
 16 15  1  0
 17 16  1  0
 18 19  1  0
 18 17  1  0
 18 16  1  0
  2 20  1  0
  3 21  1  0
  4 22  1  0
 10 23  1  0
 11 24  1  0
 13 25  1  0
 16 26  1  6
 17 27  1  0
 17 28  1  0
 18 29  1  6
 19 30  1  0
 19 31  1  0
 19 32  1  0
M  ISO  8  20  14  21  14  22  14  23  14  24  14  25  14  26  13  27  13
M  ISO  5  28  13  29  13  30   8  31   8  32   8
M  END
>  <minimizedAffinity>  (1) 
-5.06120014

>  <minimizedRMSD>  (1) 
0.277269185

$$$$
