
     RDKit          3D

 44 47  0  0  1  0  0  0  0  0999 V2000
   47.6330   33.9590   42.1090 C   0  0  0  0  0  0  0  0  0  0  0  0
   48.4460   35.0790   42.1210 C   0  0  0  0  0  0  0  0  0  0  0  0
   48.9330   35.6730   40.9840 C   0  0  0  0  0  0  0  0  0  0  0  0
   48.5830   35.1120   39.7940 C   0  0  0  0  0  0  0  0  0  0  0  0
   47.7730   33.9930   39.7420 C   0  0  0  0  0  0  0  0  0  0  0  0
   47.3280   33.4580   40.9060 N   0  0  0  0  0  0  0  0  0  0  0  0
   47.1500   33.3680   43.3480 C   0  0  0  0  0  0  0  0  0  0  0  0
   47.6110   32.2280   43.6620 O   0  0  0  0  0  0  0  0  0  0  0  0
   46.1820   34.0990   44.1480 C   0  0  0  0  0  0  0  0  0  0  0  0
   45.9820   33.5940   45.4580 C   0  0  0  0  0  0  0  0  0  0  0  0
   45.0710   34.2710   46.2520 C   0  0  0  0  0  0  0  0  0  0  0  0
   44.4530   35.3480   45.7130 N   0  0  0  0  0  0  0  0  0  0  0  0
   44.6680   35.8020   44.4600 C   0  0  0  0  0  0  0  0  0  0  0  0
   45.5330   35.1690   43.6890 N   0  0  0  0  0  0  0  0  0  0  0  0
   47.3260   33.2910   38.6360 O   0  0  0  0  0  0  0  0  0  0  0  0
   47.7880   33.4770   37.3170 C   0  0  1  0  0  0  0  0  0  0  0  0
   48.9720   32.5240   37.0320 C   0  0  0  0  0  0  0  0  0  0  0  0
   47.6370   32.4120   36.3270 C   0  0  2  0  0  0  0  0  0  0  0  0
   47.5910   32.6440   34.9100 N   0  0  0  0  0  0  0  0  0  0  0  0
   46.6570   31.8090   34.1980 C   0  0  0  0  0  0  0  0  0  0  0  0
   46.9890   30.3380   34.2780 C   0  0  0  0  0  0  0  0  0  0  0  0
   48.4620   30.1630   34.0130 C   0  0  0  0  0  0  0  0  0  0  0  0
   49.1030   31.3980   33.4020 C   0  0  0  0  0  0  0  0  0  0  0  0
   48.9150   32.5550   34.3340 C   0  0  0  0  0  0  0  0  0  0  0  0
   48.7161   35.5162   43.0936 H   0  0  0  0  0  0  0  0  0  0  0  0
   49.5776   36.5630   41.0319 H   0  0  0  0  0  0  0  0  0  0  0  0
   48.9511   35.5568   38.8577 H   0  0  0  0  0  0  0  0  0  0  0  0
   46.5230   32.7093   45.8250 H   0  0  0  0  0  0  0  0  0  0  0  0
   44.8579   33.9459   47.2810 H   0  0  0  0  0  0  0  0  0  0  0  0
   44.1305   36.6862   44.0868 H   0  0  0  0  0  0  0  0  0  0  0  0
   47.5452   34.5485   37.2633 H   0  0  0  0  0  0  0  0  0  0  0  0
   49.8600   32.8835   36.4915 H   0  0  0  0  0  0  0  0  0  0  0  0
   49.6162   31.8577   37.6245 H   0  0  0  0  0  0  0  0  0  0  0  0
   46.8687   31.6350   36.2008 H   0  0  0  0  0  0  0  0  0  0  0  0
   46.6563   32.1096   33.1399 H   0  0  0  0  0  0  0  0  0  0  0  0
   45.6725   31.9467   34.6689 H   0  0  0  0  0  0  0  0  0  0  0  0
   46.7449   29.9569   35.2806 H   0  0  0  0  0  0  0  0  0  0  0  0
   46.4039   29.7794   33.5326 H   0  0  0  0  0  0  0  0  0  0  0  0
   48.9660   29.9403   34.9650 H   0  0  0  0  0  0  0  0  0  0  0  0
   48.5723   29.3414   33.2899 H   0  0  0  0  0  0  0  0  0  0  0  0
   50.1774   31.2185   33.2485 H   0  0  0  0  0  0  0  0  0  0  0  0
   48.6327   31.6206   32.4328 H   0  0  0  0  0  0  0  0  0  0  0  0
   49.6420   32.4591   35.1539 H   0  0  0  0  0  0  0  0  0  0  0  0
   49.0622   33.4678   33.7381 H   0  0  0  0  0  0  0  0  0  0  0  0
  1  2  2  0
  1  7  1  0
  3  2  1  0
  4  3  2  0
  5  4  1  0
  5  6  2  0
  6  1  1  0
  7  8  2  0
  7  9  1  0
  9 10  2  0
 10 11  1  0
 12 11  2  0
 13 12  1  0
 14  9  1  0
 14 13  2  0
 15  5  1  0
 16 15  1  0
 17 16  1  0
 18 17  1  0
 18 16  1  0
 19 18  1  0
 20 21  1  0
 20 19  1  0
 22 21  1  0
 23 22  1  0
 23 24  1  0
 24 19  1  0
  2 25  1  0
  3 26  1  0
  4 27  1  0
 10 28  1  0
 11 29  1  0
 13 30  1  0
 16 31  1  6
 17 32  1  0
 17 33  1  0
 18 34  1  1
 20 35  1  0
 20 36  1  0
 21 37  1  0
 21 38  1  0
 22 39  1  0
 22 40  1  0
 23 41  1  0
 23 42  1  0
 24 43  1  0
 24 44  1  0
M  ISO  8  25  14  26  14  27  14  28  14  29  14  30  14  31  13  32  13
M  ISO  8  33  13  34  13  35  13  36  13  37  13  38  13  39  13  40  13
M  ISO  4  41  13  42  13  43  13  44  13
M  END
>  <minimizedAffinity>  (1) 
-5.31096888

>  <minimizedRMSD>  (1) 
0.61892128

$$$$
