
     RDKit          3D

 36 39  0  0  1  0  0  0  0  0999 V2000
   47.5470   34.0280   42.0330 C   0  0  0  0  0  0  0  0  0  0  0  0
   48.4140   35.0780   42.2620 C   0  0  0  0  0  0  0  0  0  0  0  0
   49.0460   35.7720   41.2550 C   0  0  0  0  0  0  0  0  0  0  0  0
   48.7900   35.3870   39.9710 C   0  0  0  0  0  0  0  0  0  0  0  0
   47.9270   34.3380   39.7110 C   0  0  0  0  0  0  0  0  0  0  0  0
   47.3380   33.6980   40.7530 N   0  0  0  0  0  0  0  0  0  0  0  0
   46.9200   33.3320   43.1390 C   0  0  0  0  0  0  0  0  0  0  0  0
   47.1760   32.0840   43.2610 O   0  0  0  0  0  0  0  0  0  0  0  0
   46.0540   34.0610   44.0380 C   0  0  0  0  0  0  0  0  0  0  0  0
   45.9530   33.5270   45.3470 C   0  0  0  0  0  0  0  0  0  0  0  0
   45.1240   34.2150   46.2330 C   0  0  0  0  0  0  0  0  0  0  0  0
   44.4890   35.3260   45.7740 N   0  0  0  0  0  0  0  0  0  0  0  0
   44.6180   35.7900   44.5240 C   0  0  0  0  0  0  0  0  0  0  0  0
   45.3950   35.1610   43.6630 N   0  0  0  0  0  0  0  0  0  0  0  0
   47.5500   33.8040   38.4900 O   0  0  0  0  0  0  0  0  0  0  0  0
   48.3740   33.7500   37.3490 C   0  0  1  0  0  0  0  0  0  0  0  0
   49.3210   32.5330   37.4250 C   0  0  0  0  0  0  0  0  0  0  0  0
   48.2340   32.6670   36.3730 C   0  0  2  0  0  0  0  0  0  0  0  0
   48.6460   32.8690   34.9360 C   0  0  0  0  0  0  0  0  0  0  0  0
   47.7570   32.1170   33.9470 C   0  0  0  0  0  0  0  0  0  0  0  0
   49.2390   31.8330   34.0980 C   0  0  0  0  0  0  0  0  0  0  0  0
   48.6098   35.3753   43.3028 H   0  0  0  0  0  0  0  0  0  0  0  0
   49.7304   36.6041   41.4766 H   0  0  0  0  0  0  0  0  0  0  0  0
   49.2739   35.9152   39.1362 H   0  0  0  0  0  0  0  0  0  0  0  0
   46.4982   32.6201   45.6476 H   0  0  0  0  0  0  0  0  0  0  0  0
   44.9885   33.8701   47.2687 H   0  0  0  0  0  0  0  0  0  0  0  0
   44.0758   36.6959   44.2152 H   0  0  0  0  0  0  0  0  0  0  0  0
   48.4232   34.8398   37.2078 H   0  0  0  0  0  0  0  0  0  0  0  0
   50.3808   32.6328   37.1478 H   0  0  0  0  0  0  0  0  0  0  0  0
   49.6015   31.7912   38.1873 H   0  0  0  0  0  0  0  0  0  0  0  0
   47.3814   32.0498   36.0534 H   0  0  0  0  0  0  0  0  0  0  0  0
   48.9897   33.8933   35.1424 H   0  0  0  0  0  0  0  0  0  0  0  0
   47.3748   32.6204   33.0467 H   0  0  0  0  0  0  0  0  0  0  0  0
   46.8272   31.5318   34.0019 H   0  0  0  0  0  0  0  0  0  0  0  0
   49.5692   30.8872   34.5523 H   0  0  0  0  0  0  0  0  0  0  0  0
   50.0895   31.8034   33.4010 H   0  0  0  0  0  0  0  0  0  0  0  0
  1  2  2  0
  1  7  1  0
  3  2  1  0
  4  3  2  0
  5  4  1  0
  5  6  2  0
  6  1  1  0
  7  8  2  0
  7  9  1  0
  9 10  2  0
 10 11  1  0
 12 11  2  0
 13 12  1  0
 14  9  1  0
 14 13  2  0
 15  5  1  0
 16 17  1  0
 16 15  1  0
 18 16  1  0
 18 17  1  0
 19 18  1  0
 20 21  1  0
 20 19  1  0
 21 19  1  0
  2 22  1  0
  3 23  1  0
  4 24  1  0
 10 25  1  0
 11 26  1  0
 13 27  1  0
 16 28  1  6
 17 29  1  0
 17 30  1  0
 18 31  1  6
 19 32  1  0
 20 33  1  0
 20 34  1  0
 21 35  1  0
 21 36  1  0
M  ISO  8  22  14  23  14  24  14  25  14  26  14  27  14  28  13  29  13
M  ISO  7  30  13  31  13  32  13  33  13  34  13  35  13  36  13
M  END
>  <minimizedAffinity>  (1) 
-5.13850451

>  <minimizedRMSD>  (1) 
0.435748249

$$$$
