
     RDKit          3D

 35 37  0  0  1  0  0  0  0  0999 V2000
   44.5140   35.8870   44.8410 C   0  0  0  0  0  0  0  0  0  0  0  0
   44.9090   35.6460   43.5130 C   0  0  0  0  0  0  0  0  0  0  0  0
   45.6190   34.4640   43.2360 C   0  0  0  0  0  0  0  0  0  0  0  0
   45.8910   33.6070   44.2660 N   0  0  0  0  0  0  0  0  0  0  0  0
   45.4880   33.8870   45.5270 C   0  0  0  0  0  0  0  0  0  0  0  0
   44.8140   35.0090   45.7940 N   0  0  0  0  0  0  0  0  0  0  0  0
   45.8150   32.9460   46.5130 N   0  0  0  0  0  0  0  0  0  0  0  0
   45.0370   32.6860   47.7140 C   0  0  0  0  0  0  0  0  0  0  0  0
   46.1350   32.2980   48.6820 C   0  0  0  0  0  0  0  0  0  0  0  0
   46.8990   31.3160   47.8040 C   0  0  1  0  0  0  0  0  0  0  0  0
   46.9850   32.0630   46.5180 C   0  0  0  0  0  0  0  0  0  0  0  0
   48.1350   30.9060   48.3660 N   0  0  0  0  0  0  0  0  0  0  0  0
   48.9470   31.7890   49.0180 C   0  0  0  0  0  0  0  0  0  0  0  0
   50.1590   31.4770   49.5920 C   0  0  0  0  0  0  0  0  0  0  0  0
   50.9370   32.5530   50.2720 C   0  0  0  0  0  0  0  0  0  0  0  0
   50.5720   30.1630   49.4910 C   0  0  0  0  0  0  0  0  0  0  0  0
   51.6830   29.8490   50.0090 O   0  0  0  0  0  0  0  0  0  0  0  0
   49.8000   29.2640   48.8560 N   0  0  0  0  0  0  0  0  0  0  0  0
   48.6110   29.6540   48.3150 C   0  0  0  0  0  0  0  0  0  0  0  0
   47.9310   28.7540   47.7300 O   0  0  0  0  0  0  0  0  0  0  0  0
   43.9569   36.8018   45.0916 H   0  0  0  0  0  0  0  0  0  0  0  0
   44.6693   36.3621   42.7131 H   0  0  0  0  0  0  0  0  0  0  0  0
   45.9486   34.2338   42.2121 H   0  0  0  0  0  0  0  0  0  0  0  0
   44.4989   33.5844   48.0506 H   0  0  0  0  0  0  0  0  0  0  0  0
   44.2480   31.9293   47.5917 H   0  0  0  0  0  0  0  0  0  0  0  0
   46.7540   33.1607   48.9694 H   0  0  0  0  0  0  0  0  0  0  0  0
   45.7918   31.8979   49.6474 H   0  0  0  0  0  0  0  0  0  0  0  0
   46.4113   30.3380   47.6790 H   0  0  0  0  0  0  0  0  0  0  0  0
   46.9495   31.3694   45.6649 H   0  0  0  0  0  0  0  0  0  0  0  0
   47.9267   32.6245   46.4286 H   0  0  0  0  0  0  0  0  0  0  0  0
   48.6059   32.8323   49.0905 H   0  0  0  0  0  0  0  0  0  0  0  0
   50.8512   32.4344   51.3622 H   0  0  0  0  0  0  0  0  0  0  0  0
   51.9945   32.4828   49.9776 H   0  0  0  0  0  0  0  0  0  0  0  0
   50.5389   33.5353   49.9776 H   0  0  0  0  0  0  0  0  0  0  0  0
   50.1059   28.2835   48.7785 H   0  0  0  0  0  0  0  0  0  0  0  0
  1  6  2  0
  2  1  1  0
  3  2  2  0
  3  4  1  0
  4  5  2  0
  5  6  1  0
  5  7  1  0
  7 11  1  0
  7  8  1  0
  8  9  1  0
 10 12  1  0
 10  9  1  0
 11 10  1  0
 12 13  1  0
 13 14  2  0
 14 15  1  0
 16 14  1  0
 16 17  2  0
 18 16  1  0
 19 12  1  0
 19 18  1  0
 20 19  2  0
  1 21  1  0
  2 22  1  0
  3 23  1  0
  8 24  1  0
  8 25  1  0
  9 26  1  0
  9 27  1  0
 10 28  1  6
 11 29  1  0
 11 30  1  0
 13 31  1  0
 15 32  1  0
 15 33  1  0
 15 34  1  0
 18 35  1  0
M  ISO  8  21  14  22  14  23  14  24  13  25  13  26  13  27  13  28  13
M  ISO  7  29  13  30  13  31  14  32   8  33   8  34   8  35   9
M  END
>  <minimizedAffinity>  (1) 
-5.8752203

>  <minimizedRMSD>  (1) 
0.979295611

$$$$
