
     RDKit          3D

 30 32  0  0  1  0  0  0  0  0999 V2000
   47.5800   34.1030   42.1560 C   0  0  0  0  0  0  0  0  0  0  0  0
   48.4420   35.1330   42.4680 C   0  0  0  0  0  0  0  0  0  0  0  0
   49.1140   35.8700   41.5200 C   0  0  0  0  0  0  0  0  0  0  0  0
   48.9050   35.5510   40.2150 C   0  0  0  0  0  0  0  0  0  0  0  0
   48.0490   34.5230   39.8680 C   0  0  0  0  0  0  0  0  0  0  0  0
   47.4170   33.8380   40.8540 N   0  0  0  0  0  0  0  0  0  0  0  0
   46.9030   33.3540   43.2000 C   0  0  0  0  0  0  0  0  0  0  0  0
   47.1200   32.0960   43.2450 O   0  0  0  0  0  0  0  0  0  0  0  0
   46.0350   34.0560   44.1240 C   0  0  0  0  0  0  0  0  0  0  0  0
   45.9610   33.4950   45.4230 C   0  0  0  0  0  0  0  0  0  0  0  0
   45.1360   34.1480   46.3320 C   0  0  0  0  0  0  0  0  0  0  0  0
   44.4730   35.2640   45.9010 N   0  0  0  0  0  0  0  0  0  0  0  0
   44.5790   35.7520   44.6610 C   0  0  0  0  0  0  0  0  0  0  0  0
   45.3570   35.1500   43.7780 N   0  0  0  0  0  0  0  0  0  0  0  0
   47.7190   34.0530   38.6080 O   0  0  0  0  0  0  0  0  0  0  0  0
   48.5290   34.1410   37.4650 C   0  0  1  0  0  0  0  0  0  0  0  0
   49.3220   32.8220   37.2760 C   0  0  0  0  0  0  0  0  0  0  0  0
   48.2770   33.3080   36.2940 C   0  0  1  0  0  0  0  0  0  0  0  0
   46.7130   32.3530   36.3730 S   0  0  0  0  0  0  0  0  0  0  0  0
   48.6005   35.3780   43.5286 H   0  0  0  0  0  0  0  0  0  0  0  0
   49.7940   36.6857   41.8069 H   0  0  0  0  0  0  0  0  0  0  0  0
   49.4228   36.1173   39.4268 H   0  0  0  0  0  0  0  0  0  0  0  0
   46.5257   32.5918   45.6975 H   0  0  0  0  0  0  0  0  0  0  0  0
   45.0205   33.7798   47.3621 H   0  0  0  0  0  0  0  0  0  0  0  0
   44.0188   36.6546   44.3754 H   0  0  0  0  0  0  0  0  0  0  0  0
   48.7029   35.2242   37.5454 H   0  0  0  0  0  0  0  0  0  0  0  0
   50.3897   32.8451   37.0124 H   0  0  0  0  0  0  0  0  0  0  0  0
   49.4989   31.9086   37.8629 H   0  0  0  0  0  0  0  0  0  0  0  0
   48.2696   33.5041   35.2116 H   0  0  0  0  0  0  0  0  0  0  0  0
   46.3711   32.1442   37.6831 H   0  0  0  0  0  0  0  0  0  0  0  0
  1  2  2  0
  1  7  1  0
  3  2  1  0
  4  3  2  0
  5  4  1  0
  5  6  2  0
  6  1  1  0
  7  8  2  0
  7  9  1  0
  9 10  2  0
 10 11  1  0
 12 11  2  0
 13 12  1  0
 14  9  1  0
 14 13  2  0
 15  5  1  0
 16 15  1  0
 17 16  1  0
 18 19  1  0
 18 17  1  0
 18 16  1  0
  2 20  1  0
  3 21  1  0
  4 22  1  0
 10 23  1  0
 11 24  1  0
 13 25  1  0
 16 26  1  6
 17 27  1  0
 17 28  1  0
 18 29  1  6
 19 30  1  0
M  ISO  8  20  14  21  14  22  14  23  14  24  14  25  14  26  13  27  13
M  ISO  3  28  13  29  13  30  11
M  END
>  <minimizedAffinity>  (1) 
-5.05543852

>  <minimizedRMSD>  (1) 
0.261706203

$$$$
