
     RDKit          3D

 35 37  0  0  1  0  0  0  0  0999 V2000
   44.5590   35.7630   44.9270 C   0  0  0  0  0  0  0  0  0  0  0  0
   45.1100   35.6200   43.6190 C   0  0  0  0  0  0  0  0  0  0  0  0
   45.9450   34.5160   43.3660 C   0  0  0  0  0  0  0  0  0  0  0  0
   46.1690   33.6600   44.3870 N   0  0  0  0  0  0  0  0  0  0  0  0
   45.6280   33.8280   45.6170 C   0  0  0  0  0  0  0  0  0  0  0  0
   44.8330   34.8710   45.8740 N   0  0  0  0  0  0  0  0  0  0  0  0
   45.9430   32.8620   46.5870 N   0  0  0  0  0  0  0  0  0  0  0  0
   45.0890   32.4840   47.7100 C   0  0  0  0  0  0  0  0  0  0  0  0
   46.1620   32.1550   48.7430 C   0  0  0  0  0  0  0  0  0  0  0  0
   47.0260   31.2260   47.8920 C   0  0  1  0  0  0  0  0  0  0  0  0
   47.1680   32.0700   46.6490 C   0  0  0  0  0  0  0  0  0  0  0  0
   50.8110   30.4020   49.7840 C   0  0  0  0  0  0  0  0  0  0  0  0
   50.2610   31.6580   49.8290 C   0  0  0  0  0  0  0  0  0  0  0  0
   49.0500   31.9170   49.2240 C   0  0  0  0  0  0  0  0  0  0  0  0
   48.3320   30.9510   48.5470 C   0  0  0  0  0  0  0  0  0  0  0  0
   48.8800   29.6950   48.5000 C   0  0  0  0  0  0  0  0  0  0  0  0
   50.1060   29.4100   49.1080 C   0  0  0  0  0  0  0  0  0  0  0  0
   52.3350   30.0810   50.5490 S   0  0  0  0  0  0  0  0  0  0  0  0
   52.7940   28.6980   50.2170 O   0  0  0  0  0  0  0  0  0  0  0  0
   52.1730   30.2870   52.0240 O   0  0  0  0  0  0  0  0  0  0  0  0
   43.9033   36.6167   45.1535 H   0  0  0  0  0  0  0  0  0  0  0  0
   44.8881   36.3530   42.8294 H   0  0  0  0  0  0  0  0  0  0  0  0
   46.3974   34.3562   42.3762 H   0  0  0  0  0  0  0  0  0  0  0  0
   44.4473   33.3159   48.0357 H   0  0  0  0  0  0  0  0  0  0  0  0
   44.3746   31.6736   47.5028 H   0  0  0  0  0  0  0  0  0  0  0  0
   46.7126   33.0505   49.0670 H   0  0  0  0  0  0  0  0  0  0  0  0
   45.7967   31.7303   49.6896 H   0  0  0  0  0  0  0  0  0  0  0  0
   46.6105   30.2231   47.7144 H   0  0  0  0  0  0  0  0  0  0  0  0
   47.2615   31.4324   45.7575 H   0  0  0  0  0  0  0  0  0  0  0  0
   48.0674   32.7025   46.6800 H   0  0  0  0  0  0  0  0  0  0  0  0
   50.7918   32.4664   50.3531 H   0  0  0  0  0  0  0  0  0  0  0  0
   48.6384   32.9354   49.2829 H   0  0  0  0  0  0  0  0  0  0  0  0
   48.3427   28.8935   47.9719 H   0  0  0  0  0  0  0  0  0  0  0  0
   50.5179   28.3916   49.0517 H   0  0  0  0  0  0  0  0  0  0  0  0
   53.3009   30.9382   50.0918 H   0  0  0  0  0  0  0  0  0  0  0  0
  1  6  2  0
  2  1  1  0
  3  2  2  0
  3  4  1  0
  4  5  2  0
  5  6  1  0
  5  7  1  0
  7 11  1  0
  7  8  1  0
  8  9  1  0
 10 15  1  0
 10  9  1  0
 11 10  1  0
 12 13  2  0
 12 18  1  0
 14 13  1  0
 15 14  2  0
 16 15  1  0
 16 17  2  0
 17 12  1  0
 18 20  2  0
 19 18  2  0
  1 21  1  0
  2 22  1  0
  3 23  1  0
  8 24  1  0
  8 25  1  0
  9 26  1  0
  9 27  1  0
 10 28  1  6
 11 29  1  0
 11 30  1  0
 13 31  1  0
 14 32  1  0
 16 33  1  0
 17 34  1  0
 18 35  1  0
M  ISO  8  21  14  22  14  23  14  24  13  25  13  26  13  27  13  28  13
M  ISO  7  29  13  30  13  31  14  32  14  33  14  34  14  35  11
M  END
>  <minimizedAffinity>  (1) 
-5.59655571

>  <minimizedRMSD>  (1) 
0.609650671

$$$$
