
     RDKit          3D

 38 41  0  0  1  0  0  0  0  0999 V2000
   44.6510   35.7580   44.9180 C   0  0  0  0  0  0  0  0  0  0  0  0
   44.9750   35.4990   43.5750 C   0  0  0  0  0  0  0  0  0  0  0  0
   45.5800   34.2500   43.2840 C   0  0  0  0  0  0  0  0  0  0  0  0
   45.7950   33.4160   44.3200 N   0  0  0  0  0  0  0  0  0  0  0  0
   45.4750   33.6930   45.5910 C   0  0  0  0  0  0  0  0  0  0  0  0
   44.9050   34.8600   45.8830 N   0  0  0  0  0  0  0  0  0  0  0  0
   45.7430   32.7400   46.5800 N   0  0  0  0  0  0  0  0  0  0  0  0
   45.0590   32.5390   47.8220 C   0  0  0  0  0  0  0  0  0  0  0  0
   46.1930   32.1320   48.7190 C   0  0  0  0  0  0  0  0  0  0  0  0
   46.8650   31.0490   47.8380 C   0  0  1  0  0  0  0  0  0  0  0  0
   46.8150   31.7220   46.5120 C   0  0  0  0  0  0  0  0  0  0  0  0
   48.2130   30.9000   48.4370 C   0  0  0  0  0  0  0  0  0  0  0  0
   48.8390   31.9630   49.1070 C   0  0  0  0  0  0  0  0  0  0  0  0
   50.0910   31.9730   49.6780 C   0  0  0  0  0  0  0  0  0  0  0  0
   50.8250   30.8120   49.5880 C   0  0  0  0  0  0  0  0  0  0  0  0
   50.3010   29.7110   48.9510 C   0  0  0  0  0  0  0  0  0  0  0  0
   51.0400   28.5580   48.8820 C   0  0  0  0  0  0  0  0  0  0  0  0
   50.5480   27.4160   48.2650 C   0  0  0  0  0  0  0  0  0  0  0  0
   49.2630   27.4850   47.7110 C   0  0  0  0  0  0  0  0  0  0  0  0
   48.5790   28.6670   47.8140 C   0  0  0  0  0  0  0  0  0  0  0  0
   49.0390   29.8060   48.4160 C   0  0  0  0  0  0  0  0  0  0  0  0
   44.1798   36.7158   45.1836 H   0  0  0  0  0  0  0  0  0  0  0  0
   44.7680   36.2341   42.7833 H   0  0  0  0  0  0  0  0  0  0  0  0
   45.8615   33.9740   42.2571 H   0  0  0  0  0  0  0  0  0  0  0  0
   44.5804   33.4652   48.1728 H   0  0  0  0  0  0  0  0  0  0  0  0
   44.2390   31.8075   47.7718 H   0  0  0  0  0  0  0  0  0  0  0  0
   46.8736   32.9720   48.9218 H   0  0  0  0  0  0  0  0  0  0  0  0
   45.8897   31.7898   49.7195 H   0  0  0  0  0  0  0  0  0  0  0  0
   46.4397   30.0376   47.7596 H   0  0  0  0  0  0  0  0  0  0  0  0
   46.5886   30.9879   45.7247 H   0  0  0  0  0  0  0  0  0  0  0  0
   47.7824   32.1879   46.2731 H   0  0  0  0  0  0  0  0  0  0  0  0
   48.2618   32.8962   49.1845 H   0  0  0  0  0  0  0  0  0  0  0  0
   50.4866   32.8668   50.1826 H   0  0  0  0  0  0  0  0  0  0  0  0
   51.8328   30.7645   50.0264 H   0  0  0  0  0  0  0  0  0  0  0  0
   52.0462   28.5375   49.3260 H   0  0  0  0  0  0  0  0  0  0  0  0
   51.1438   26.4928   48.2131 H   0  0  0  0  0  0  0  0  0  0  0  0
   48.8163   26.6148   47.2078 H   0  0  0  0  0  0  0  0  0  0  0  0
   47.5715   28.7037   47.3741 H   0  0  0  0  0  0  0  0  0  0  0  0
  1  6  2  0
  2  1  1  0
  3  2  2  0
  3  4  1  0
  4  5  2  0
  5  6  1  0
  5  7  1  0
  7  8  1  0
  8  9  1  0
 10 12  1  0
 10  9  1  0
 11  7  1  0
 11 10  1  0
 12 13  2  0
 13 14  1  0
 15 14  2  0
 16 15  1  0
 17 16  2  0
 18 17  1  0
 19 20  1  0
 19 18  2  0
 20 21  2  0
 21 12  1  0
 21 16  1  0
  1 22  1  0
  2 23  1  0
  3 24  1  0
  8 25  1  0
  8 26  1  0
  9 27  1  0
  9 28  1  0
 10 29  1  6
 11 30  1  0
 11 31  1  0
 13 32  1  0
 14 33  1  0
 15 34  1  0
 17 35  1  0
 18 36  1  0
 19 37  1  0
 20 38  1  0
M  ISO  8  22  14  23  14  24  14  25  13  26  13  27  13  28  13  29  13
M  ISO  8  30  13  31  13  32  14  33  14  34  14  35  14  36  14  37  14
M  ISO  1  38  14
M  END
>  <minimizedAffinity>  (1) 
-5.77217293

>  <minimizedRMSD>  (1) 
1.17180979

$$$$
