
     RDKit          3D

 38 40  0  0  1  0  0  0  0  0999 V2000
   47.6600   34.0630   42.1980 C   0  0  0  0  0  0  0  0  0  0  0  0
   48.5330   35.1140   42.3740 C   0  0  0  0  0  0  0  0  0  0  0  0
   49.1080   35.8050   41.3300 C   0  0  0  0  0  0  0  0  0  0  0  0
   48.7810   35.4090   40.0660 C   0  0  0  0  0  0  0  0  0  0  0  0
   47.9090   34.3560   39.8590 C   0  0  0  0  0  0  0  0  0  0  0  0
   47.3780   33.7200   40.9340 N   0  0  0  0  0  0  0  0  0  0  0  0
   47.0920   33.3670   43.3420 C   0  0  0  0  0  0  0  0  0  0  0  0
   47.4600   32.1570   43.5270 O   0  0  0  0  0  0  0  0  0  0  0  0
   46.1550   34.0590   44.2010 C   0  0  0  0  0  0  0  0  0  0  0  0
   46.0120   33.5250   45.5040 C   0  0  0  0  0  0  0  0  0  0  0  0
   45.1190   34.1720   46.3460 C   0  0  0  0  0  0  0  0  0  0  0  0
   44.4570   35.2620   45.8530 N   0  0  0  0  0  0  0  0  0  0  0  0
   44.6260   35.7310   44.6100 C   0  0  0  0  0  0  0  0  0  0  0  0
   45.4720   35.1290   43.7950 N   0  0  0  0  0  0  0  0  0  0  0  0
   47.4720   33.8180   38.6620 O   0  0  0  0  0  0  0  0  0  0  0  0
   48.2640   33.6280   37.5160 C   0  0  1  0  0  0  0  0  0  0  0  0
   49.1380   32.3660   37.6740 C   0  0  0  0  0  0  0  0  0  0  0  0
   48.0400   32.4880   36.6290 C   0  0  2  0  0  0  0  0  0  0  0  0
   48.4010   32.5770   35.1700 C   0  0  0  0  0  0  0  0  0  0  0  0
   49.5130   31.5790   34.9110 C   0  0  0  0  0  0  0  0  0  0  0  0
   47.1780   32.0660   34.4010 C   0  0  0  0  0  0  0  0  0  0  0  0
   48.7840   35.4172   43.4012 H   0  0  0  0  0  0  0  0  0  0  0  0
   49.8012   36.6404   41.5079 H   0  0  0  0  0  0  0  0  0  0  0  0
   49.2158   35.9331   39.2021 H   0  0  0  0  0  0  0  0  0  0  0  0
   46.5799   32.6420   45.8324 H   0  0  0  0  0  0  0  0  0  0  0  0
   44.9495   33.8203   47.3744 H   0  0  0  0  0  0  0  0  0  0  0  0
   44.0630   36.6128   44.2702 H   0  0  0  0  0  0  0  0  0  0  0  0
   48.3740   34.6986   37.2886 H   0  0  0  0  0  0  0  0  0  0  0  0
   50.1966   32.3792   37.3755 H   0  0  0  0  0  0  0  0  0  0  0  0
   49.3878   31.6686   38.4871 H   0  0  0  0  0  0  0  0  0  0  0  0
   47.1559   31.8864   36.3713 H   0  0  0  0  0  0  0  0  0  0  0  0
   48.6966   33.5967   34.8823 H   0  0  0  0  0  0  0  0  0  0  0  0
   49.9137   31.2194   35.8702 H   0  0  0  0  0  0  0  0  0  0  0  0
   49.1161   30.7284   34.3374 H   0  0  0  0  0  0  0  0  0  0  0  0
   50.3159   32.0653   34.3374 H   0  0  0  0  0  0  0  0  0  0  0  0
   46.4052   31.7431   35.1140 H   0  0  0  0  0  0  0  0  0  0  0  0
   46.7792   32.8728   33.7685 H   0  0  0  0  0  0  0  0  0  0  0  0
   47.4717   31.2153   33.7685 H   0  0  0  0  0  0  0  0  0  0  0  0
  1  2  2  0
  1  7  1  0
  3  2  1  0
  4  3  2  0
  5  4  1  0
  5  6  2  0
  6  1  1  0
  7  8  2  0
  7  9  1  0
  9 10  2  0
 10 11  1  0
 12 11  2  0
 13 12  1  0
 14  9  1  0
 14 13  2  0
 15  5  1  0
 16 17  1  0
 16 15  1  0
 18 16  1  0
 18 17  1  0
 19 18  1  0
 20 19  1  0
 21 19  1  0
  2 22  1  0
  3 23  1  0
  4 24  1  0
 10 25  1  0
 11 26  1  0
 13 27  1  0
 16 28  1  6
 17 29  1  0
 17 30  1  0
 18 31  1  6
 19 32  1  0
 20 33  1  0
 20 34  1  0
 20 35  1  0
 21 36  1  0
 21 37  1  0
 21 38  1  0
M  ISO  8  22  14  23  14  24  14  25  14  26  14  27  14  28  13  29  13
M  ISO  8  30  13  31  13  32   8  33   8  34   8  35   8  36   8  37   8
M  ISO  1  38   8
M  END
>  <minimizedAffinity>  (1) 
-5.00674582

>  <minimizedRMSD>  (1) 
0.52263397

$$$$
