
     RDKit          3D

 35 37  0  0  1  0  0  0  0  0999 V2000
   47.4600   34.0550   42.0140 C   0  0  0  0  0  0  0  0  0  0  0  0
   48.3240   35.0770   42.3620 C   0  0  0  0  0  0  0  0  0  0  0  0
   49.0390   35.8040   41.4470 C   0  0  0  0  0  0  0  0  0  0  0  0
   48.8760   35.4860   40.1340 C   0  0  0  0  0  0  0  0  0  0  0  0
   48.0200   34.4680   39.7530 C   0  0  0  0  0  0  0  0  0  0  0  0
   47.3400   33.7870   40.7070 N   0  0  0  0  0  0  0  0  0  0  0  0
   46.7280   33.3110   43.0290 C   0  0  0  0  0  0  0  0  0  0  0  0
   46.8360   32.0450   43.0030 O   0  0  0  0  0  0  0  0  0  0  0  0
   45.9310   34.0280   43.9990 C   0  0  0  0  0  0  0  0  0  0  0  0
   45.9200   33.4760   45.3010 C   0  0  0  0  0  0  0  0  0  0  0  0
   45.1630   34.1560   46.2510 C   0  0  0  0  0  0  0  0  0  0  0  0
   44.5000   35.2860   45.8550 N   0  0  0  0  0  0  0  0  0  0  0  0
   44.5480   35.7600   44.6090 C   0  0  0  0  0  0  0  0  0  0  0  0
   45.2530   35.1430   43.6860 N   0  0  0  0  0  0  0  0  0  0  0  0
   47.7400   34.0080   38.4760 O   0  0  0  0  0  0  0  0  0  0  0  0
   48.6150   34.0650   37.3760 C   0  0  1  0  0  0  0  0  0  0  0  0
   49.3630   32.7220   37.2140 C   0  0  0  0  0  0  0  0  0  0  0  0
   48.3850   33.2390   36.1880 C   0  0  1  0  0  0  0  0  0  0  0  0
   47.1490   32.4100   36.0190 C   0  0  0  0  0  0  0  0  0  0  0  0
   47.0090   31.9780   34.5590 C   0  0  0  0  0  0  0  0  0  0  0  0
   48.4434   35.3187   43.4284 H   0  0  0  0  0  0  0  0  0  0  0  0
   49.7169   36.6115   41.7608 H   0  0  0  0  0  0  0  0  0  0  0  0
   49.4314   36.0449   39.3664 H   0  0  0  0  0  0  0  0  0  0  0  0
   46.4780   32.5611   45.5490 H   0  0  0  0  0  0  0  0  0  0  0  0
   45.0996   33.7960   47.2885 H   0  0  0  0  0  0  0  0  0  0  0  0
   43.9934   36.6744   44.3514 H   0  0  0  0  0  0  0  0  0  0  0  0
   48.8302   35.1393   37.4735 H   0  0  0  0  0  0  0  0  0  0  0  0
   50.4415   32.7073   36.9981 H   0  0  0  0  0  0  0  0  0  0  0  0
   49.4794   31.8023   37.8062 H   0  0  0  0  0  0  0  0  0  0  0  0
   48.4005   33.4969   35.1188 H   0  0  0  0  0  0  0  0  0  0  0  0
   47.2178   31.5177   36.6586 H   0  0  0  0  0  0  0  0  0  0  0  0
   46.2704   33.0062   36.3066 H   0  0  0  0  0  0  0  0  0  0  0  0
   46.6701   30.9323   34.5169 H   0  0  0  0  0  0  0  0  0  0  0  0
   46.2737   32.6223   34.0549 H   0  0  0  0  0  0  0  0  0  0  0  0
   47.9825   32.0685   34.0549 H   0  0  0  0  0  0  0  0  0  0  0  0
  1  2  2  0
  1  7  1  0
  3  2  1  0
  4  3  2  0
  5  4  1  0
  5  6  2  0
  6  1  1  0
  7  9  1  0
  8  7  2  0
  9 10  2  0
 10 11  1  0
 12 11  2  0
 13 12  1  0
 14  9  1  0
 14 13  2  0
 15  5  1  0
 16 15  1  0
 17 16  1  0
 18 17  1  0
 18 16  1  0
 19 18  1  0
 20 19  1  0
  2 21  1  0
  3 22  1  0
  4 23  1  0
 10 24  1  0
 11 25  1  0
 13 26  1  0
 16 27  1  6
 17 28  1  0
 17 29  1  0
 18 30  1  6
 19 31  1  0
 19 32  1  0
 20 33  1  0
 20 34  1  0
 20 35  1  0
M  ISO  8  21  14  22  14  23  14  24  14  25  14  26  14  27  13  28  13
M  ISO  7  29  13  30  13  31   8  32   8  33   8  34   8  35   8
M  END
>  <minimizedAffinity>  (1) 
-5.01920748

>  <minimizedRMSD>  (1) 
0.397450298

$$$$
