
     RDKit          3D

 35 38  0  0  1  0  0  0  0  0999 V2000
   44.6050   35.7530   44.9490 C   0  0  0  0  0  0  0  0  0  0  0  0
   45.1360   35.5970   43.6360 C   0  0  0  0  0  0  0  0  0  0  0  0
   45.9310   34.4510   43.3820 C   0  0  0  0  0  0  0  0  0  0  0  0
   46.1260   33.5900   44.4100 N   0  0  0  0  0  0  0  0  0  0  0  0
   45.6140   33.7640   45.6290 C   0  0  0  0  0  0  0  0  0  0  0  0
   44.8550   34.8460   45.8950 N   0  0  0  0  0  0  0  0  0  0  0  0
   45.8800   32.8130   46.6130 N   0  0  0  0  0  0  0  0  0  0  0  0
   45.0480   32.4210   47.7170 C   0  0  0  0  0  0  0  0  0  0  0  0
   46.0820   32.0990   48.7750 C   0  0  0  0  0  0  0  0  0  0  0  0
   47.0650   31.2710   47.9740 C   0  0  1  0  0  0  0  0  0  0  0  0
   47.1200   32.0150   46.6810 C   0  0  0  0  0  0  0  0  0  0  0  0
   48.3390   31.1260   48.6080 N   0  0  0  0  0  0  0  0  0  0  0  0
   49.0820   32.0540   49.2410 C   0  0  0  0  0  0  0  0  0  0  0  0
   50.2250   31.5190   49.7050 N   0  0  0  0  0  0  0  0  0  0  0  0
   50.2010   30.2170   49.3540 C   0  0  0  0  0  0  0  0  0  0  0  0
   51.1610   29.2520   49.6100 C   0  0  0  0  0  0  0  0  0  0  0  0
   50.9230   28.0060   49.1600 N   0  0  0  0  0  0  0  0  0  0  0  0
   49.7810   27.7380   48.4890 C   0  0  0  0  0  0  0  0  0  0  0  0
   48.8540   28.6910   48.2470 N   0  0  0  0  0  0  0  0  0  0  0  0
   49.0140   29.9640   48.6620 C   0  0  0  0  0  0  0  0  0  0  0  0
   52.3540   29.5900   50.3260 N   0  0  0  0  0  0  0  0  0  0  0  0
   43.9833   36.6293   45.1848 H   0  0  0  0  0  0  0  0  0  0  0  0
   44.9364   36.3385   42.8484 H   0  0  0  0  0  0  0  0  0  0  0  0
   46.3716   34.2682   42.3908 H   0  0  0  0  0  0  0  0  0  0  0  0
   44.3896   33.2426   48.0355 H   0  0  0  0  0  0  0  0  0  0  0  0
   44.3645   31.5895   47.4903 H   0  0  0  0  0  0  0  0  0  0  0  0
   46.5513   33.0111   49.1723 H   0  0  0  0  0  0  0  0  0  0  0  0
   45.6791   31.5912   49.6637 H   0  0  0  0  0  0  0  0  0  0  0  0
   46.7556   30.2220   47.8562 H   0  0  0  0  0  0  0  0  0  0  0  0
   47.1672   31.3107   45.8373 H   0  0  0  0  0  0  0  0  0  0  0  0
   48.0127   32.6552   46.6241 H   0  0  0  0  0  0  0  0  0  0  0  0
   48.7926   33.1083   49.3622 H   0  0  0  0  0  0  0  0  0  0  0  0
   49.6008   26.7142   48.1293 H   0  0  0  0  0  0  0  0  0  0  0  0
   53.0643   28.8680   50.5133 H   0  0  0  0  0  0  0  0  0  0  0  0
   52.5019   30.5552   50.6538 H   0  0  0  0  0  0  0  0  0  0  0  0
  1  6  2  0
  2  1  1  0
  3  2  2  0
  3  4  1  0
  4  5  2  0
  5  6  1  0
  5  7  1  0
  7 11  1  0
  7  8  1  0
  8  9  1  0
 10 12  1  0
 10  9  1  0
 11 10  1  0
 12 20  1  0
 12 13  1  0
 13 14  2  0
 15 16  2  0
 15 14  1  0
 16 21  1  0
 17 16  1  0
 18 17  2  0
 19 18  1  0
 19 20  2  0
 20 15  1  0
  1 22  1  0
  2 23  1  0
  3 24  1  0
  8 25  1  0
  8 26  1  0
  9 27  1  0
  9 28  1  0
 10 29  1  6
 11 30  1  0
 11 31  1  0
 13 32  1  0
 18 33  1  0
 21 34  1  0
 21 35  1  0
M  ISO  8  22  14  23  14  24  14  25  13  26  13  27  13  28  13  29  13
M  ISO  4  30  13  31  13  32  14  33  14
M  END
>  <minimizedAffinity>  (1) 
-5.47027731

>  <minimizedRMSD>  (1) 
0.880285859

$$$$
