
     RDKit          3D

 33 35  0  0  1  0  0  0  0  0999 V2000
   44.5960   35.7660   44.9220 C   0  0  0  0  0  0  0  0  0  0  0  0
   45.0730   35.5800   43.6020 C   0  0  0  0  0  0  0  0  0  0  0  0
   45.8220   34.4210   43.3400 C   0  0  0  0  0  0  0  0  0  0  0  0
   46.0310   33.5680   44.3680 N   0  0  0  0  0  0  0  0  0  0  0  0
   45.5730   33.7620   45.6070 C   0  0  0  0  0  0  0  0  0  0  0  0
   44.8590   34.8630   45.8670 N   0  0  0  0  0  0  0  0  0  0  0  0
   45.8610   32.8010   46.5790 N   0  0  0  0  0  0  0  0  0  0  0  0
   45.0730   32.5270   47.7660 C   0  0  0  0  0  0  0  0  0  0  0  0
   46.1640   32.1480   48.7390 C   0  0  0  0  0  0  0  0  0  0  0  0
   46.9220   31.1450   47.8740 C   0  0  1  0  0  0  0  0  0  0  0  0
   47.0090   31.9030   46.5730 C   0  0  0  0  0  0  0  0  0  0  0  0
   48.2170   30.8400   48.4320 N   0  0  0  0  0  0  0  0  0  0  0  0
   48.7990   31.8800   49.0660 C   0  0  0  0  0  0  0  0  0  0  0  0
   50.0530   31.6740   49.6350 C   0  0  0  0  0  0  0  0  0  0  0  0
   50.5950   30.4140   49.5000 C   0  0  0  0  0  0  0  0  0  0  0  0
   51.8760   30.1850   50.0750 N   0  0  0  0  0  0  0  0  0  0  0  0
   49.9640   29.3930   48.8470 N   0  0  0  0  0  0  0  0  0  0  0  0
   48.7510   29.6110   48.3030 C   0  0  0  0  0  0  0  0  0  0  0  0
   48.1070   28.7240   47.6870 O   0  0  0  0  0  0  0  0  0  0  0  0
   44.0052   36.6604   45.1692 H   0  0  0  0  0  0  0  0  0  0  0  0
   44.8648   36.3157   42.8112 H   0  0  0  0  0  0  0  0  0  0  0  0
   46.2232   34.2152   42.3367 H   0  0  0  0  0  0  0  0  0  0  0  0
   44.5210   33.4174   48.1015 H   0  0  0  0  0  0  0  0  0  0  0  0
   44.2926   31.7634   47.6320 H   0  0  0  0  0  0  0  0  0  0  0  0
   46.7891   33.0105   49.0134 H   0  0  0  0  0  0  0  0  0  0  0  0
   45.8178   31.7662   49.7108 H   0  0  0  0  0  0  0  0  0  0  0  0
   46.4449   30.1584   47.7793 H   0  0  0  0  0  0  0  0  0  0  0  0
   46.9541   31.2118   45.7190 H   0  0  0  0  0  0  0  0  0  0  0  0
   47.9589   32.4493   46.4771 H   0  0  0  0  0  0  0  0  0  0  0  0
   48.2992   32.8577   49.1309 H   0  0  0  0  0  0  0  0  0  0  0  0
   50.5848   32.4772   50.1660 H   0  0  0  0  0  0  0  0  0  0  0  0
   52.3172   29.2575   49.9970 H   0  0  0  0  0  0  0  0  0  0  0  0
   52.3623   30.9467   50.5693 H   0  0  0  0  0  0  0  0  0  0  0  0
  1  6  2  0
  2  1  1  0
  3  2  2  0
  3  4  1  0
  4  5  2  0
  5  6  1  0
  5  7  1  0
  7  8  1  0
  8  9  1  0
 10 12  1  0
 10  9  1  0
 11  7  1  0
 11 10  1  0
 12 13  1  0
 13 14  2  0
 15 14  1  0
 15 16  1  0
 17 15  2  0
 18 12  1  0
 18 17  1  0
 19 18  2  0
  1 20  1  0
  2 21  1  0
  3 22  1  0
  8 23  1  0
  8 24  1  0
  9 25  1  0
  9 26  1  0
 10 27  1  6
 11 28  1  0
 11 29  1  0
 13 30  1  0
 14 31  1  0
 16 32  1  0
 16 33  1  0
M  ISO  8  20  14  21  14  22  14  23  13  24  13  25  13  26  13  27  13
M  ISO  4  28  13  29  13  30  14  31  14
M  END
>  <minimizedAffinity>  (1) 
-5.51029444

>  <minimizedRMSD>  (1) 
0.88183409

$$$$
