
     RDKit          3D

 30 32  0  0  1  0  0  0  0  0999 V2000
   44.5530   35.7850   44.9280 C   0  0  0  0  0  0  0  0  0  0  0  0
   45.0840   35.6570   43.6320 C   0  0  0  0  0  0  0  0  0  0  0  0
   45.9170   34.5450   43.3590 C   0  0  0  0  0  0  0  0  0  0  0  0
   46.1440   33.6760   44.3810 N   0  0  0  0  0  0  0  0  0  0  0  0
   45.6220   33.8260   45.6090 C   0  0  0  0  0  0  0  0  0  0  0  0
   44.8400   34.8750   45.8560 N   0  0  0  0  0  0  0  0  0  0  0  0
   45.9160   32.8790   46.5840 N   0  0  0  0  0  0  0  0  0  0  0  0
   45.0980   32.4970   47.7030 C   0  0  0  0  0  0  0  0  0  0  0  0
   46.1570   32.1680   48.7410 C   0  0  0  0  0  0  0  0  0  0  0  0
   47.0240   31.2380   47.8760 C   0  0  1  0  0  0  0  0  0  0  0  0
   47.1400   32.0860   46.6470 C   0  0  0  0  0  0  0  0  0  0  0  0
   48.3140   30.9420   48.5130 C   0  0  0  0  0  0  0  0  0  0  0  0
   48.9010   29.6920   48.4850 C   0  0  0  0  0  0  0  0  0  0  0  0
   50.1080   29.4750   49.0990 C   0  0  0  0  0  0  0  0  0  0  0  0
   50.6920   30.5220   49.7230 N   0  0  0  0  0  0  0  0  0  0  0  0
   50.1270   31.7340   49.7520 C   0  0  0  0  0  0  0  0  0  0  0  0
   48.9300   31.9570   49.1460 N   0  0  0  0  0  0  0  0  0  0  0  0
   43.9013   36.6362   45.1744 H   0  0  0  0  0  0  0  0  0  0  0  0
   44.8586   36.3997   42.8525 H   0  0  0  0  0  0  0  0  0  0  0  0
   46.3610   34.3905   42.3645 H   0  0  0  0  0  0  0  0  0  0  0  0
   44.4533   33.3250   48.0328 H   0  0  0  0  0  0  0  0  0  0  0  0
   44.3996   31.6736   47.4926 H   0  0  0  0  0  0  0  0  0  0  0  0
   46.7070   33.0611   49.0725 H   0  0  0  0  0  0  0  0  0  0  0  0
   45.7898   31.7435   49.6871 H   0  0  0  0  0  0  0  0  0  0  0  0
   46.6174   30.2323   47.6939 H   0  0  0  0  0  0  0  0  0  0  0  0
   47.2301   31.4517   45.7528 H   0  0  0  0  0  0  0  0  0  0  0  0
   48.0326   32.7278   46.6849 H   0  0  0  0  0  0  0  0  0  0  0  0
   48.3963   28.8638   47.9660 H   0  0  0  0  0  0  0  0  0  0  0  0
   50.5841   28.4835   49.0841 H   0  0  0  0  0  0  0  0  0  0  0  0
   50.6359   32.5593   50.2716 H   0  0  0  0  0  0  0  0  0  0  0  0
  1  6  2  0
  2  1  1  0
  3  2  2  0
  3  4  1  0
  4  5  2  0
  5  6  1  0
  5  7  1  0
  7 11  1  0
  7  8  1  0
  8  9  1  0
 10 12  1  0
 10  9  1  0
 11 10  1  0
 12 17  1  0
 13 12  2  0
 13 14  1  0
 14 15  2  0
 15 16  1  0
 17 16  2  0
  1 18  1  0
  2 19  1  0
  3 20  1  0
  8 21  1  0
  8 22  1  0
  9 23  1  0
  9 24  1  0
 10 25  1  6
 11 26  1  0
 11 27  1  0
 13 28  1  0
 14 29  1  0
 16 30  1  0
M  ISO  8  18  14  19  14  20  14  21  13  22  13  23  13  24  13  25  13
M  ISO  5  26  13  27  13  28  14  29  14  30  14
M  END
>  <minimizedAffinity>  (1) 
-5.3495245

>  <minimizedRMSD>  (1) 
0.469604224

$$$$
