
     RDKit          3D

 33 36  0  0  1  0  0  0  0  0999 V2000
   44.5550   35.8200   44.9040 C   0  0  0  0  0  0  0  0  0  0  0  0
   45.1110   35.6550   43.6020 C   0  0  0  0  0  0  0  0  0  0  0  0
   45.9230   34.5210   43.3740 C   0  0  0  0  0  0  0  0  0  0  0  0
   46.1130   33.6760   44.4100 N   0  0  0  0  0  0  0  0  0  0  0  0
   45.5680   33.8650   45.6350 C   0  0  0  0  0  0  0  0  0  0  0  0
   44.7940   34.9370   45.8700 N   0  0  0  0  0  0  0  0  0  0  0  0
   45.8480   32.9080   46.6170 N   0  0  0  0  0  0  0  0  0  0  0  0
   44.9760   32.5760   47.7390 C   0  0  0  0  0  0  0  0  0  0  0  0
   46.0240   32.2320   48.7870 C   0  0  0  0  0  0  0  0  0  0  0  0
   46.8960   31.2850   47.9670 C   0  0  1  0  0  0  0  0  0  0  0  0
   47.0580   32.0800   46.6880 C   0  0  0  0  0  0  0  0  0  0  0  0
   48.2110   31.1270   48.5570 N   0  0  0  0  0  0  0  0  0  0  0  0
   49.0250   31.9600   49.2090 C   0  0  0  0  0  0  0  0  0  0  0  0
   50.1600   31.3160   49.5630 N   0  0  0  0  0  0  0  0  0  0  0  0
   50.0590   30.0380   49.1230 C   0  0  0  0  0  0  0  0  0  0  0  0
   50.9350   28.9920   49.2280 C   0  0  0  0  0  0  0  0  0  0  0  0
   50.5490   27.8130   48.6800 N   0  0  0  0  0  0  0  0  0  0  0  0
   49.3570   27.6720   48.0570 C   0  0  0  0  0  0  0  0  0  0  0  0
   48.5380   28.7190   47.9800 N   0  0  0  0  0  0  0  0  0  0  0  0
   48.8330   29.9250   48.4910 C   0  0  0  0  0  0  0  0  0  0  0  0
   43.9178   36.6918   45.1136 H   0  0  0  0  0  0  0  0  0  0  0  0
   44.9149   36.3848   42.8026 H   0  0  0  0  0  0  0  0  0  0  0  0
   46.3819   34.3342   42.3919 H   0  0  0  0  0  0  0  0  0  0  0  0
   44.3578   33.4330   48.0444 H   0  0  0  0  0  0  0  0  0  0  0  0
   44.2403   31.7832   47.5383 H   0  0  0  0  0  0  0  0  0  0  0  0
   46.5814   33.1208   49.1176 H   0  0  0  0  0  0  0  0  0  0  0  0
   45.6297   31.8129   49.7245 H   0  0  0  0  0  0  0  0  0  0  0  0
   46.4657   30.2773   47.8700 H   0  0  0  0  0  0  0  0  0  0  0  0
   47.1224   31.4094   45.8184 H   0  0  0  0  0  0  0  0  0  0  0  0
   47.9788   32.6818   46.6822 H   0  0  0  0  0  0  0  0  0  0  0  0
   48.8048   33.0156   49.4264 H   0  0  0  0  0  0  0  0  0  0  0  0
   51.9061   29.1022   49.7329 H   0  0  0  0  0  0  0  0  0  0  0  0
   49.0678   26.7050   47.6196 H   0  0  0  0  0  0  0  0  0  0  0  0
  1  6  2  0
  2  1  1  0
  3  2  2  0
  3  4  1  0
  4  5  2  0
  5  6  1  0
  5  7  1  0
  7 11  1  0
  7  8  1  0
  8  9  1  0
 10 12  1  0
 10  9  1  0
 11 10  1  0
 12 13  1  0
 13 14  2  0
 15 16  2  0
 15 14  1  0
 17 16  1  0
 18 17  2  0
 19 18  1  0
 19 20  2  0
 20 12  1  0
 20 15  1  0
  1 21  1  0
  2 22  1  0
  3 23  1  0
  8 24  1  0
  8 25  1  0
  9 26  1  0
  9 27  1  0
 10 28  1  6
 11 29  1  0
 11 30  1  0
 13 31  1  0
 16 32  1  0
 18 33  1  0
M  ISO  8  21  14  22  14  23  14  24  13  25  13  26  13  27  13  28  13
M  ISO  5  29  13  30  13  31  14  32  14  33  14
M  END
>  <minimizedAffinity>  (1) 
-5.43969011

>  <minimizedRMSD>  (1) 
1.40018249

$$$$
