
     RDKit          3D

 32 34  0  0  1  0  0  0  0  0999 V2000
   44.4910   35.8710   44.8180 C   0  0  0  0  0  0  0  0  0  0  0  0
   44.8870   35.6260   43.4740 C   0  0  0  0  0  0  0  0  0  0  0  0
   45.6200   34.4500   43.2060 C   0  0  0  0  0  0  0  0  0  0  0  0
   45.8960   33.6320   44.2560 N   0  0  0  0  0  0  0  0  0  0  0  0
   45.4980   33.9060   45.5140 C   0  0  0  0  0  0  0  0  0  0  0  0
   44.8050   35.0120   45.7880 N   0  0  0  0  0  0  0  0  0  0  0  0
   45.8500   32.9730   46.5090 N   0  0  0  0  0  0  0  0  0  0  0  0
   45.0680   32.6970   47.7100 C   0  0  0  0  0  0  0  0  0  0  0  0
   46.1700   32.2960   48.6540 C   0  0  0  0  0  0  0  0  0  0  0  0
   46.9080   31.2940   47.7640 C   0  0  1  0  0  0  0  0  0  0  0  0
   47.0510   32.1290   46.5060 C   0  0  0  0  0  0  0  0  0  0  0  0
   48.1870   30.8550   48.3210 C   0  0  0  0  0  0  0  0  0  0  0  0
   48.8640   31.7750   49.1010 C   0  0  0  0  0  0  0  0  0  0  0  0
   50.0770   31.4280   49.6580 C   0  0  0  0  0  0  0  0  0  0  0  0
   50.5930   30.1520   49.4190 C   0  0  0  0  0  0  0  0  0  0  0  0
   49.8840   29.2440   48.6260 C   0  0  0  0  0  0  0  0  0  0  0  0
   48.6540   29.6050   48.0650 C   0  0  0  0  0  0  0  0  0  0  0  0
   43.9194   36.7792   45.0597 H   0  0  0  0  0  0  0  0  0  0  0  0
   44.6302   36.3305   42.6692 H   0  0  0  0  0  0  0  0  0  0  0  0
   45.9548   34.2050   42.1873 H   0  0  0  0  0  0  0  0  0  0  0  0
   44.5333   33.5910   48.0632 H   0  0  0  0  0  0  0  0  0  0  0  0
   44.2723   31.9483   47.5825 H   0  0  0  0  0  0  0  0  0  0  0  0
   46.8074   33.1497   48.9278 H   0  0  0  0  0  0  0  0  0  0  0  0
   45.8361   31.9036   49.6259 H   0  0  0  0  0  0  0  0  0  0  0  0
   46.3916   30.3331   47.6227 H   0  0  0  0  0  0  0  0  0  0  0  0
   47.0783   31.4891   45.6117 H   0  0  0  0  0  0  0  0  0  0  0  0
   47.9825   32.7138   46.4866 H   0  0  0  0  0  0  0  0  0  0  0  0
   48.4388   32.7744   49.2755 H   0  0  0  0  0  0  0  0  0  0  0  0
   50.6303   32.1457   50.2815 H   0  0  0  0  0  0  0  0  0  0  0  0
   51.5596   29.8606   49.8557 H   0  0  0  0  0  0  0  0  0  0  0  0
   50.2955   28.2406   48.4423 H   0  0  0  0  0  0  0  0  0  0  0  0
   48.0853   28.9017   47.4389 H   0  0  0  0  0  0  0  0  0  0  0  0
  1  6  2  0
  2  1  1  0
  3  2  2  0
  3  4  1  0
  4  5  2  0
  5  6  1  0
  5  7  1  0
  7  8  1  0
  8  9  1  0
 10 12  1  0
 10  9  1  0
 11  7  1  0
 11 10  1  0
 12 13  2  0
 13 14  1  0
 15 14  2  0
 16 15  1  0
 17 12  1  0
 17 16  2  0
  1 18  1  0
  2 19  1  0
  3 20  1  0
  8 21  1  0
  8 22  1  0
  9 23  1  0
  9 24  1  0
 10 25  1  6
 11 26  1  0
 11 27  1  0
 13 28  1  0
 14 29  1  0
 15 30  1  0
 16 31  1  0
 17 32  1  0
M  ISO  8  18  14  19  14  20  14  21  13  22  13  23  13  24  13  25  13
M  ISO  7  26  13  27  13  28  14  29  14  30  14  31  14  32  14
M  END
>  <minimizedAffinity>  (1) 
-5.51969433

>  <minimizedRMSD>  (1) 
0.868012547

$$$$
