
     RDKit          3D

 27 29  0  0  1  0  0  0  0  0999 V2000
   44.5780   35.5690   45.0970 C   0  0  0  0  0  0  0  0  0  0  0  0
   45.2170   35.4510   43.8270 C   0  0  0  0  0  0  0  0  0  0  0  0
   46.1130   34.3680   43.6270 C   0  0  0  0  0  0  0  0  0  0  0  0
   46.2980   33.5180   44.6740 N   0  0  0  0  0  0  0  0  0  0  0  0
   45.6630   33.6800   45.8590 C   0  0  0  0  0  0  0  0  0  0  0  0
   44.8140   34.6980   46.0600 N   0  0  0  0  0  0  0  0  0  0  0  0
   45.9480   32.7220   46.8430 N   0  0  0  0  0  0  0  0  0  0  0  0
   45.0170   32.3080   47.8880 C   0  0  0  0  0  0  0  0  0  0  0  0
   45.9670   31.9900   49.0030 C   0  0  0  0  0  0  0  0  0  0  0  0
   47.0310   31.1930   48.2820 C   0  0  1  0  0  0  0  0  0  0  0  0
   47.1990   31.9750   47.0040 C   0  0  0  0  0  0  0  0  0  0  0  0
   48.3280   31.3580   49.0280 C   0  0  0  0  0  0  0  0  0  0  0  0
   49.2060   32.3690   49.1310 N   0  0  0  0  0  0  0  0  0  0  0  0
   50.1760   32.0070   49.9070 O   0  0  0  0  0  0  0  0  0  0  0  0
   49.9540   30.7820   50.3160 C   0  0  0  0  0  0  0  0  0  0  0  0
   48.7950   30.3440   49.7780 N   0  0  0  0  0  0  0  0  0  0  0  0
   43.8781   36.3984   45.2763 H   0  0  0  0  0  0  0  0  0  0  0  0
   45.0211   36.1784   43.0255 H   0  0  0  0  0  0  0  0  0  0  0  0
   46.6341   34.2224   42.6693 H   0  0  0  0  0  0  0  0  0  0  0  0
   44.3290   33.1213   48.1623 H   0  0  0  0  0  0  0  0  0  0  0  0
   44.3547   31.4770   47.6039 H   0  0  0  0  0  0  0  0  0  0  0  0
   46.3842   32.9056   49.4476 H   0  0  0  0  0  0  0  0  0  0  0  0
   45.5035   31.4559   49.8456 H   0  0  0  0  0  0  0  0  0  0  0  0
   46.7825   30.1276   48.1670 H   0  0  0  0  0  0  0  0  0  0  0  0
   47.3544   31.2951   46.1534 H   0  0  0  0  0  0  0  0  0  0  0  0
   48.0736   32.6411   47.0416 H   0  0  0  0  0  0  0  0  0  0  0  0
   50.6055   30.2043   50.9882 H   0  0  0  0  0  0  0  0  0  0  0  0
  1  6  2  0
  2  1  1  0
  3  2  2  0
  3  4  1  0
  4  5  2  0
  5  6  1  0
  5  7  1  0
  7 11  1  0
  7  8  1  0
  8  9  1  0
 10  9  1  0
 10 12  1  0
 11 10  1  0
 12 13  2  0
 12 16  1  0
 13 14  1  0
 14 15  1  0
 16 15  2  0
  1 17  1  0
  2 18  1  0
  3 19  1  0
  8 20  1  0
  8 21  1  0
  9 22  1  0
  9 23  1  0
 10 24  1  6
 11 25  1  0
 11 26  1  0
 15 27  1  0
M  ISO  8  17  14  18  14  19  14  20  13  21  13  22  13  23  13  24  13
M  ISO  3  25  13  26  13  27  14
M  END
>  <minimizedAffinity>  (1) 
-5.18319798

>  <minimizedRMSD>  (1) 
0.400818825

$$$$
