
     RDKit          3D

 30 32  0  0  1  0  0  0  0  0999 V2000
   44.6040   35.7460   44.9110 C   0  0  0  0  0  0  0  0  0  0  0  0
   44.8790   35.4520   43.5460 C   0  0  0  0  0  0  0  0  0  0  0  0
   45.4890   34.2080   43.2430 C   0  0  0  0  0  0  0  0  0  0  0  0
   45.7660   33.3890   44.2860 N   0  0  0  0  0  0  0  0  0  0  0  0
   45.4880   33.7050   45.5620 C   0  0  0  0  0  0  0  0  0  0  0  0
   44.9130   34.8700   45.8750 N   0  0  0  0  0  0  0  0  0  0  0  0
   45.8310   32.7570   46.5420 N   0  0  0  0  0  0  0  0  0  0  0  0
   45.1130   32.5270   47.7920 C   0  0  0  0  0  0  0  0  0  0  0  0
   46.2690   32.1450   48.6920 C   0  0  0  0  0  0  0  0  0  0  0  0
   46.9460   31.1030   47.8010 C   0  0  1  0  0  0  0  0  0  0  0  0
   46.9680   31.8320   46.4820 C   0  0  0  0  0  0  0  0  0  0  0  0
   48.3220   30.9280   48.3320 C   0  0  0  0  0  0  0  0  0  0  0  0
   49.1420   29.8410   48.1110 C   0  0  0  0  0  0  0  0  0  0  0  0
   50.4050   29.7420   48.6320 C   0  0  0  0  0  0  0  0  0  0  0  0
   50.8550   30.7550   49.3930 N   0  0  0  0  0  0  0  0  0  0  0  0
   50.0610   31.8310   49.6210 C   0  0  0  0  0  0  0  0  0  0  0  0
   48.8240   31.9180   49.1040 N   0  0  0  0  0  0  0  0  0  0  0  0
   44.1324   36.7035   45.1769 H   0  0  0  0  0  0  0  0  0  0  0  0
   44.6261   36.1679   42.7501 H   0  0  0  0  0  0  0  0  0  0  0  0
   45.7265   33.9211   42.2080 H   0  0  0  0  0  0  0  0  0  0  0  0
   44.6046   33.4367   48.1442 H   0  0  0  0  0  0  0  0  0  0  0  0
   44.3059   31.7820   47.7326 H   0  0  0  0  0  0  0  0  0  0  0  0
   46.9292   33.0004   48.8980 H   0  0  0  0  0  0  0  0  0  0  0  0
   45.9860   31.7920   49.6947 H   0  0  0  0  0  0  0  0  0  0  0  0
   46.4742   30.1113   47.7393 H   0  0  0  0  0  0  0  0  0  0  0  0
   46.8483   31.1255   45.6474 H   0  0  0  0  0  0  0  0  0  0  0  0
   47.9201   32.3570   46.3153 H   0  0  0  0  0  0  0  0  0  0  0  0
   48.7646   29.0165   47.4883 H   0  0  0  0  0  0  0  0  0  0  0  0
   51.0322   28.8603   48.4338 H   0  0  0  0  0  0  0  0  0  0  0  0
   50.4398   32.6536   50.2454 H   0  0  0  0  0  0  0  0  0  0  0  0
  1  6  2  0
  2  1  1  0
  3  2  2  0
  3  4  1  0
  4  5  2  0
  5  6  1  0
  5  7  1  0
  7  8  1  0
  8  9  1  0
 10 12  1  0
 10  9  1  0
 11  7  1  0
 11 10  1  0
 12 17  1  0
 13 12  2  0
 13 14  1  0
 14 15  2  0
 15 16  1  0
 17 16  2  0
  1 18  1  0
  2 19  1  0
  3 20  1  0
  8 21  1  0
  8 22  1  0
  9 23  1  0
  9 24  1  0
 10 25  1  6
 11 26  1  0
 11 27  1  0
 13 28  1  0
 14 29  1  0
 16 30  1  0
M  ISO  8  18  14  19  14  20  14  21  13  22  13  23  13  24  13  25  13
M  ISO  5  26  13  27  13  28  14  29  14  30  14
M  END
>  <minimizedAffinity>  (1) 
-5.14541674

>  <minimizedRMSD>  (1) 
1.06561279

$$$$
