
     RDKit          3D

 31 33  0  0  1  0  0  0  0  0999 V2000
   44.5920   35.7530   44.8970 C   0  0  0  0  0  0  0  0  0  0  0  0
   44.9020   35.4670   43.5560 C   0  0  0  0  0  0  0  0  0  0  0  0
   45.5330   34.2470   43.2690 C   0  0  0  0  0  0  0  0  0  0  0  0
   45.8090   33.4080   44.3090 N   0  0  0  0  0  0  0  0  0  0  0  0
   45.4980   33.7200   45.5720 C   0  0  0  0  0  0  0  0  0  0  0  0
   44.8960   34.8820   45.8560 N   0  0  0  0  0  0  0  0  0  0  0  0
   45.8300   32.7800   46.5620 N   0  0  0  0  0  0  0  0  0  0  0  0
   45.0950   32.5570   47.7930 C   0  0  0  0  0  0  0  0  0  0  0  0
   46.2000   32.1670   48.7340 C   0  0  0  0  0  0  0  0  0  0  0  0
   46.9250   31.1360   47.8530 C   0  0  1  0  0  0  0  0  0  0  0  0
   46.9570   31.8630   46.5440 C   0  0  0  0  0  0  0  0  0  0  0  0
   48.2670   30.9250   48.4570 C   0  0  0  0  0  0  0  0  0  0  0  0
   48.9130   29.7020   48.3760 C   0  0  0  0  0  0  0  0  0  0  0  0
   50.1680   29.5480   48.9560 C   0  0  0  0  0  0  0  0  0  0  0  0
   50.7270   30.6340   49.5970 C   0  0  0  0  0  0  0  0  0  0  0  0
   50.0850   31.8490   49.6780 C   0  0  0  0  0  0  0  0  0  0  0  0
   48.8740   31.9510   49.1030 N   0  0  0  0  0  0  0  0  0  0  0  0
   44.0962   36.7005   45.1546 H   0  0  0  0  0  0  0  0  0  0  0  0
   44.6569   36.1793   42.7545 H   0  0  0  0  0  0  0  0  0  0  0  0
   45.7973   33.9751   42.2364 H   0  0  0  0  0  0  0  0  0  0  0  0
   44.5856   33.4724   48.1285 H   0  0  0  0  0  0  0  0  0  0  0  0
   44.2930   31.8090   47.7078 H   0  0  0  0  0  0  0  0  0  0  0  0
   46.8468   33.0207   48.9849 H   0  0  0  0  0  0  0  0  0  0  0  0
   45.8719   31.7975   49.7167 H   0  0  0  0  0  0  0  0  0  0  0  0
   46.4786   30.1360   47.7493 H   0  0  0  0  0  0  0  0  0  0  0  0
   46.8570   31.1522   45.7105 H   0  0  0  0  0  0  0  0  0  0  0  0
   47.9077   32.3989   46.4062 H   0  0  0  0  0  0  0  0  0  0  0  0
   48.4364   28.8578   47.8562 H   0  0  0  0  0  0  0  0  0  0  0  0
   50.7000   28.5866   48.9049 H   0  0  0  0  0  0  0  0  0  0  0  0
   51.7193   30.5255   50.0591 H   0  0  0  0  0  0  0  0  0  0  0  0
   50.5456   32.7044   50.1939 H   0  0  0  0  0  0  0  0  0  0  0  0
  1  6  2  0
  2  1  1  0
  3  2  2  0
  3  4  1  0
  4  5  2  0
  5  6  1  0
  5  7  1  0
  7  8  1  0
  8  9  1  0
 10 12  1  0
 10  9  1  0
 11  7  1  0
 11 10  1  0
 12 17  1  0
 13 12  2  0
 13 14  1  0
 14 15  2  0
 15 16  1  0
 17 16  2  0
  1 18  1  0
  2 19  1  0
  3 20  1  0
  8 21  1  0
  8 22  1  0
  9 23  1  0
  9 24  1  0
 10 25  1  6
 11 26  1  0
 11 27  1  0
 13 28  1  0
 14 29  1  0
 15 30  1  0
 16 31  1  0
M  ISO  8  18  14  19  14  20  14  21  13  22  13  23  13  24  13  25  13
M  ISO  6  26  13  27  13  28  14  29  14  30  14  31  14
M  END
>  <minimizedAffinity>  (1) 
-5.28761053

>  <minimizedRMSD>  (1) 
0.803435326

$$$$
