
     RDKit          3D

 29 31  0  0  1  0  0  0  0  0999 V2000
   44.5560   35.6040   45.0820 C   0  0  0  0  0  0  0  0  0  0  0  0
   45.1450   35.4930   43.7990 C   0  0  0  0  0  0  0  0  0  0  0  0
   46.0180   34.4180   43.5880 C   0  0  0  0  0  0  0  0  0  0  0  0
   46.2560   33.5460   44.6050 N   0  0  0  0  0  0  0  0  0  0  0  0
   45.6690   33.6940   45.8130 C   0  0  0  0  0  0  0  0  0  0  0  0
   44.8290   34.7180   46.0380 N   0  0  0  0  0  0  0  0  0  0  0  0
   45.9690   32.7560   46.7950 N   0  0  0  0  0  0  0  0  0  0  0  0
   45.0900   32.2960   47.8510 C   0  0  0  0  0  0  0  0  0  0  0  0
   46.0850   32.0560   48.9630 C   0  0  0  0  0  0  0  0  0  0  0  0
   47.1370   31.2580   48.2010 C   0  0  1  0  0  0  0  0  0  0  0  0
   47.2560   32.0510   46.9340 C   0  0  0  0  0  0  0  0  0  0  0  0
   48.3540   31.3010   48.9890 N   0  0  0  0  0  0  0  0  0  0  0  0
   49.2890   32.2680   49.2180 C   0  0  0  0  0  0  0  0  0  0  0  0
   50.2580   31.7730   50.0570 C   0  0  0  0  0  0  0  0  0  0  0  0
   49.9330   30.5080   50.3510 N   0  0  0  0  0  0  0  0  0  0  0  0
   48.7860   30.2240   49.7080 C   0  0  0  0  0  0  0  0  0  0  0  0
   43.8639   36.4329   45.2917 H   0  0  0  0  0  0  0  0  0  0  0  0
   44.9264   36.2195   43.0025 H   0  0  0  0  0  0  0  0  0  0  0  0
   46.5054   34.2804   42.6115 H   0  0  0  0  0  0  0  0  0  0  0  0
   44.3521   33.0638   48.1267 H   0  0  0  0  0  0  0  0  0  0  0  0
   44.4814   31.4185   47.5871 H   0  0  0  0  0  0  0  0  0  0  0  0
   46.4927   32.9983   49.3577 H   0  0  0  0  0  0  0  0  0  0  0  0
   45.6763   31.5562   49.8536 H   0  0  0  0  0  0  0  0  0  0  0  0
   46.9134   30.1986   48.0070 H   0  0  0  0  0  0  0  0  0  0  0  0
   47.4245   31.3836   46.0760 H   0  0  0  0  0  0  0  0  0  0  0  0
   48.1053   32.7494   46.9652 H   0  0  0  0  0  0  0  0  0  0  0  0
   49.2700   33.2841   48.7971 H   0  0  0  0  0  0  0  0  0  0  0  0
   51.1414   32.3178   50.4214 H   0  0  0  0  0  0  0  0  0  0  0  0
   48.2667   29.2554   49.7552 H   0  0  0  0  0  0  0  0  0  0  0  0
  1  6  2  0
  2  1  1  0
  3  2  2  0
  3  4  1  0
  4  5  2  0
  5  6  1  0
  5  7  1  0
  7 11  1  0
  7  8  1  0
  8  9  1  0
 10  9  1  0
 10 12  1  0
 11 10  1  0
 12 13  1  0
 12 16  1  0
 13 14  2  0
 14 15  1  0
 16 15  2  0
  1 17  1  0
  2 18  1  0
  3 19  1  0
  8 20  1  0
  8 21  1  0
  9 22  1  0
  9 23  1  0
 10 24  1  6
 11 25  1  0
 11 26  1  0
 13 27  1  0
 14 28  1  0
 16 29  1  0
M  ISO  8  17  14  18  14  19  14  20  13  21  13  22  13  23  13  24  13
M  ISO  5  25  13  26  13  27  14  28  14  29  14
M  END
>  <minimizedAffinity>  (1) 
-4.8515296

>  <minimizedRMSD>  (1) 
0.301074922

$$$$
