
     RDKit          3D

 25 26  0  0  1  0  0  0  0  0999 V2000
   44.5280   35.7580   44.8530 C   0  0  0  0  0  0  0  0  0  0  0  0
   45.1310   35.5800   43.5980 C   0  0  0  0  0  0  0  0  0  0  0  0
   46.0110   34.4800   43.4220 C   0  0  0  0  0  0  0  0  0  0  0  0
   46.2270   33.6500   44.4860 N   0  0  0  0  0  0  0  0  0  0  0  0
   45.6190   33.8700   45.6740 C   0  0  0  0  0  0  0  0  0  0  0  0
   44.7860   34.9100   45.8410 N   0  0  0  0  0  0  0  0  0  0  0  0
   45.9010   32.9640   46.7010 N   0  0  0  0  0  0  0  0  0  0  0  0
   44.9710   32.5810   47.7610 C   0  0  0  0  0  0  0  0  0  0  0  0
   45.9350   32.3050   48.8910 C   0  0  0  0  0  0  0  0  0  0  0  0
   46.9710   31.4540   48.1670 C   0  0  1  0  0  0  0  0  0  0  0  0
   47.1740   32.2450   46.8930 C   0  0  0  0  0  0  0  0  0  0  0  0
   48.2360   31.3950   48.9880 C   0  0  0  0  0  0  0  0  0  0  0  0
   43.8410   36.6011   45.0179 H   0  0  0  0  0  0  0  0  0  0  0  0
   44.9266   36.2759   42.7710 H   0  0  0  0  0  0  0  0  0  0  0  0
   46.5054   34.3007   42.4559 H   0  0  0  0  0  0  0  0  0  0  0  0
   44.2792   33.3995   48.0089 H   0  0  0  0  0  0  0  0  0  0  0  0
   44.3106   31.7386   47.5074 H   0  0  0  0  0  0  0  0  0  0  0  0
   46.3750   33.2327   49.2858 H   0  0  0  0  0  0  0  0  0  0  0  0
   45.4839   31.8277   49.7734 H   0  0  0  0  0  0  0  0  0  0  0  0
   46.6777   30.4088   47.9892 H   0  0  0  0  0  0  0  0  0  0  0  0
   47.3732   31.5730   46.0452 H   0  0  0  0  0  0  0  0  0  0  0  0
   48.0352   32.9265   46.9553 H   0  0  0  0  0  0  0  0  0  0  0  0
   47.9798   31.4070   50.0577 H   0  0  0  0  0  0  0  0  0  0  0  0
   48.7833   30.4704   48.7524 H   0  0  0  0  0  0  0  0  0  0  0  0
   48.8670   32.2647   48.7524 H   0  0  0  0  0  0  0  0  0  0  0  0
  1  6  2  0
  2  1  1  0
  3  2  2  0
  3  4  1  0
  4  5  2  0
  5  6  1  0
  5  7  1  0
  7 11  1  0
  7  8  1  0
  8  9  1  0
 10  9  1  0
 10 12  1  0
 11 10  1  0
  1 13  1  0
  2 14  1  0
  3 15  1  0
  8 16  1  0
  8 17  1  0
  9 18  1  0
  9 19  1  0
 10 20  1  6
 11 21  1  0
 11 22  1  0
 12 23  1  0
 12 24  1  0
 12 25  1  0
M  ISO  8  13  14  14  14  15  14  16  13  17  13  18  13  19  13  20  13
M  ISO  5  21  13  22  13  23   8  24   8  25   8
M  END
>  <minimizedAffinity>  (1) 
-4.65331364

>  <minimizedRMSD>  (1) 
0.0506080613

$$$$
