
     RDKit          3D

 35 37  0  0  1  0  0  0  0  0999 V2000
   44.4110   35.8550   44.8260 C   0  0  0  0  0  0  0  0  0  0  0  0
   44.7060   35.6370   43.4480 C   0  0  0  0  0  0  0  0  0  0  0  0
   45.4420   34.4740   43.1030 C   0  0  0  0  0  0  0  0  0  0  0  0
   45.8060   33.6580   44.1160 N   0  0  0  0  0  0  0  0  0  0  0  0
   45.5070   33.8980   45.4130 C   0  0  0  0  0  0  0  0  0  0  0  0
   44.8160   34.9890   45.7520 N   0  0  0  0  0  0  0  0  0  0  0  0
   45.9560   32.9580   46.3520 N   0  0  0  0  0  0  0  0  0  0  0  0
   45.2950   32.6550   47.6190 C   0  0  0  0  0  0  0  0  0  0  0  0
   46.5160   32.3380   48.4720 C   0  0  0  0  0  0  0  0  0  0  0  0
   47.2250   31.3770   47.5350 C   0  0  1  0  0  0  0  0  0  0  0  0
   47.1440   32.1210   46.2380 C   0  0  0  0  0  0  0  0  0  0  0  0
   48.6010   31.0010   47.9530 C   0  0  0  0  0  0  0  0  0  0  0  0
   48.6310   30.9560   49.4850 C   0  0  0  0  0  0  0  0  0  0  0  0
   49.5560   29.7810   49.8080 C   0  0  0  0  0  0  0  0  0  0  0  0
   49.2460   28.7990   48.7120 C   0  0  0  0  0  0  0  0  0  0  0  0
   49.0650   29.6670   47.5100 C   0  0  0  0  0  0  0  0  0  0  0  0
   43.8431   36.7478   45.1267 H   0  0  0  0  0  0  0  0  0  0  0  0
   44.3736   36.3478   42.6771 H   0  0  0  0  0  0  0  0  0  0  0  0
   45.7040   34.2474   42.0590 H   0  0  0  0  0  0  0  0  0  0  0  0
   44.7368   33.5196   48.0073 H   0  0  0  0  0  0  0  0  0  0  0  0
   44.5376   31.8586   47.5725 H   0  0  0  0  0  0  0  0  0  0  0  0
   47.1197   33.2347   48.6757 H   0  0  0  0  0  0  0  0  0  0  0  0
   46.2995   31.9433   49.4756 H   0  0  0  0  0  0  0  0  0  0  0  0
   46.7645   30.3787   47.4982 H   0  0  0  0  0  0  0  0  0  0  0  0
   47.0427   31.4198   45.3966 H   0  0  0  0  0  0  0  0  0  0  0  0
   48.0496   32.7157   46.0475 H   0  0  0  0  0  0  0  0  0  0  0  0
   49.2576   31.7517   47.4889 H   0  0  0  0  0  0  0  0  0  0  0  0
   49.0339   31.8938   49.8950 H   0  0  0  0  0  0  0  0  0  0  0  0
   47.6290   30.8360   49.9227 H   0  0  0  0  0  0  0  0  0  0  0  0
   50.6118   30.0883   49.7772 H   0  0  0  0  0  0  0  0  0  0  0  0
   49.4007   29.3701   50.8165 H   0  0  0  0  0  0  0  0  0  0  0  0
   50.0787   28.0950   48.5673 H   0  0  0  0  0  0  0  0  0  0  0  0
   48.3649   28.1773   48.9292 H   0  0  0  0  0  0  0  0  0  0  0  0
   48.3171   29.2190   46.8392 H   0  0  0  0  0  0  0  0  0  0  0  0
   50.0184   29.7623   46.9697 H   0  0  0  0  0  0  0  0  0  0  0  0
  1  6  2  0
  2  1  1  0
  3  2  2  0
  3  4  1  0
  4  5  2  0
  5  6  1  0
  5  7  1  0
  7  8  1  0
  8  9  1  0
 10 12  1  0
 10  9  1  0
 11  7  1  0
 11 10  1  0
 12 13  1  0
 13 14  1  0
 15 14  1  0
 16 12  1  0
 16 15  1  0
  1 17  1  0
  2 18  1  0
  3 19  1  0
  8 20  1  0
  8 21  1  0
  9 22  1  0
  9 23  1  0
 10 24  1  6
 11 25  1  0
 11 26  1  0
 12 27  1  0
 13 28  1  0
 13 29  1  0
 14 30  1  0
 14 31  1  0
 15 32  1  0
 15 33  1  0
 16 34  1  0
 16 35  1  0
M  ISO  8  17  14  18  14  19  14  20  13  21  13  22  13  23  13  24  13
M  ISO  8  25  13  26  13  27  13  28  13  29  13  30  13  31  13  32  13
M  ISO  3  33  13  34  13  35  13
M  END
>  <minimizedAffinity>  (1) 
-4.75995874

>  <minimizedRMSD>  (1) 
0.773784816

$$$$
