
     RDKit          3D

 23 24  0  0  1  0  0  0  0  0999 V2000
   44.5850   35.7230   44.8970 C   0  0  0  0  0  0  0  0  0  0  0  0
   45.1700   35.5540   43.6290 C   0  0  0  0  0  0  0  0  0  0  0  0
   46.0120   34.4420   43.4280 C   0  0  0  0  0  0  0  0  0  0  0  0
   46.2070   33.5950   44.4800 N   0  0  0  0  0  0  0  0  0  0  0  0
   45.6170   33.8080   45.6790 C   0  0  0  0  0  0  0  0  0  0  0  0
   44.8090   34.8670   45.8870 N   0  0  0  0  0  0  0  0  0  0  0  0
   45.8940   32.8640   46.6780 N   0  0  0  0  0  0  0  0  0  0  0  0
   45.0140   32.5570   47.8030 C   0  0  0  0  0  0  0  0  0  0  0  0
   45.9920   32.1630   48.8460 C   0  0  0  0  0  0  0  0  0  0  0  0
   46.9860   31.3330   48.0960 C   0  0  1  0  0  0  0  0  0  0  0  0
   47.0920   32.0230   46.7780 C   0  0  0  0  0  0  0  0  0  0  0  0
   48.6040   31.6110   48.9210 S   0  0  0  0  0  0  0  0  0  0  0  0
   43.9256   36.5857   45.0728 H   0  0  0  0  0  0  0  0  0  0  0  0
   44.9756   36.2700   42.8168 H   0  0  0  0  0  0  0  0  0  0  0  0
   46.4955   34.2629   42.4563 H   0  0  0  0  0  0  0  0  0  0  0  0
   44.4325   33.4387   48.1103 H   0  0  0  0  0  0  0  0  0  0  0  0
   44.2584   31.7881   47.5840 H   0  0  0  0  0  0  0  0  0  0  0  0
   46.4727   33.0478   49.2887 H   0  0  0  0  0  0  0  0  0  0  0  0
   45.5294   31.6234   49.6856 H   0  0  0  0  0  0  0  0  0  0  0  0
   46.7236   30.2665   48.0353 H   0  0  0  0  0  0  0  0  0  0  0  0
   47.1149   31.2879   45.9600 H   0  0  0  0  0  0  0  0  0  0  0  0
   48.0148   32.6168   46.7014 H   0  0  0  0  0  0  0  0  0  0  0  0
   48.4345   31.5819   50.2802 H   0  0  0  0  0  0  0  0  0  0  0  0
  1  6  2  0
  2  1  1  0
  3  2  2  0
  3  4  1  0
  4  5  2  0
  5  6  1  0
  5  7  1  0
  7 11  1  0
  7  8  1  0
  8  9  1  0
 10  9  1  0
 10 12  1  0
 11 10  1  0
  1 13  1  0
  2 14  1  0
  3 15  1  0
  8 16  1  0
  8 17  1  0
  9 18  1  0
  9 19  1  0
 10 20  1  6
 11 21  1  0
 11 22  1  0
 12 23  1  0
M  ISO  8  13  14  14  14  15  14  16  13  17  13  18  13  19  13  20  13
M  ISO  3  21  13  22  13  23  11
M  END
>  <minimizedAffinity>  (1) 
-4.44982338

>  <minimizedRMSD>  (1) 
0.161520556

$$$$
