
     RDKit          3D

 43 47  0  0  1  0  0  0  0  0999 V2000
   44.5370   35.6490   45.1760 C   0  0  0  0  0  0  0  0  0  0  0  0
   44.9990   35.5070   43.8460 C   0  0  0  0  0  0  0  0  0  0  0  0
   45.7790   34.3780   43.5520 C   0  0  0  0  0  0  0  0  0  0  0  0
   46.0560   33.4720   44.5500 N   0  0  0  0  0  0  0  0  0  0  0  0
   45.5810   33.6710   45.8010 C   0  0  0  0  0  0  0  0  0  0  0  0
   44.8230   34.7540   46.1160 N   0  0  0  0  0  0  0  0  0  0  0  0
   45.9130   32.6970   46.7640 N   0  0  0  0  0  0  0  0  0  0  0  0
   45.1030   32.2850   47.8750 C   0  0  0  0  0  0  0  0  0  0  0  0
   46.1420   31.9640   48.9130 C   0  0  0  0  0  0  0  0  0  0  0  0
   47.1200   31.1670   48.0950 C   0  0  1  0  0  0  0  0  0  0  0  0
   47.1560   31.9470   46.7800 C   0  0  0  0  0  0  0  0  0  0  0  0
   48.4140   31.2040   48.7600 C   0  0  0  0  0  0  0  0  0  0  0  0
   49.2180   32.2540   49.2740 C   0  0  0  0  0  0  0  0  0  0  0  0
   50.4180   31.9490   49.8400 C   0  0  0  0  0  0  0  0  0  0  0  0
   50.8410   30.6380   49.9070 C   0  0  0  0  0  0  0  0  0  0  0  0
   49.4090   29.7730   49.1020 S   0  0  0  0  0  0  0  0  0  0  0  0
   51.8730   29.8430   50.3860 C   0  0  0  0  0  0  0  0  0  0  0  0
   52.2120   28.6830   49.7400 N   0  0  0  0  0  0  0  0  0  0  0  0
   53.1170   27.8130   50.1780 C   0  0  0  0  0  0  0  0  0  0  0  0
   53.7910   28.0010   51.3120 N   0  0  0  0  0  0  0  0  0  0  0  0
   53.5610   29.1010   52.0510 C   0  0  0  0  0  0  0  0  0  0  0  0
   54.2630   29.3280   53.2060 C   0  0  0  0  0  0  0  0  0  0  0  0
   54.0500   30.4720   53.9390 C   0  0  0  0  0  0  0  0  0  0  0  0
   53.0920   31.3660   53.4400 C   0  0  0  0  0  0  0  0  0  0  0  0
   52.4170   31.0880   52.2800 C   0  0  0  0  0  0  0  0  0  0  0  0
   52.6180   29.9490   51.5370 C   0  0  0  0  0  0  0  0  0  0  0  0
   43.9245   36.5240   45.4390 H   0  0  0  0  0  0  0  0  0  0  0  0
   44.7565   36.2517   43.0736 H   0  0  0  0  0  0  0  0  0  0  0  0
   46.1650   34.2189   42.5343 H   0  0  0  0  0  0  0  0  0  0  0  0
   44.4402   33.0965   48.2098 H   0  0  0  0  0  0  0  0  0  0  0  0
   44.4283   31.4467   47.6469 H   0  0  0  0  0  0  0  0  0  0  0  0
   46.6031   32.8760   49.3199 H   0  0  0  0  0  0  0  0  0  0  0  0
   45.7544   31.4390   49.7985 H   0  0  0  0  0  0  0  0  0  0  0  0
   46.8593   30.1076   47.9547 H   0  0  0  0  0  0  0  0  0  0  0  0
   47.2059   31.2600   45.9224 H   0  0  0  0  0  0  0  0  0  0  0  0
   48.0380   32.6003   46.7069 H   0  0  0  0  0  0  0  0  0  0  0  0
   48.8770   33.2982   49.2161 H   0  0  0  0  0  0  0  0  0  0  0  0
   51.0524   32.7510   50.2453 H   0  0  0  0  0  0  0  0  0  0  0  0
   53.3159   26.9083   49.5847 H   0  0  0  0  0  0  0  0  0  0  0  0
   55.0024   28.5895   53.5494 H   0  0  0  0  0  0  0  0  0  0  0  0
   54.6024   30.6751   54.8683 H   0  0  0  0  0  0  0  0  0  0  0  0
   52.8804   32.2983   53.9841 H   0  0  0  0  0  0  0  0  0  0  0  0
   51.6735   31.8164   51.9240 H   0  0  0  0  0  0  0  0  0  0  0  0
  1  6  2  0
  2  1  1  0
  3  2  2  0
  3  4  1  0
  4  5  2  0
  5  6  1  0
  5  7  1  0
  7 11  1  0
  7  8  1  0
  8  9  1  0
 10 12  1  0
 10  9  1  0
 11 10  1  0
 12 16  1  0
 12 13  2  0
 13 14  1  0
 14 15  2  0
 15 17  1  0
 16 15  1  0
 17 26  2  0
 18 19  2  0
 18 17  1  0
 19 20  1  0
 20 21  2  0
 21 22  1  0
 22 23  2  0
 24 23  1  0
 25 24  2  0
 26 21  1  0
 26 25  1  0
  1 27  1  0
  2 28  1  0
  3 29  1  0
  8 30  1  0
  8 31  1  0
  9 32  1  0
  9 33  1  0
 10 34  1  6
 11 35  1  0
 11 36  1  0
 13 37  1  0
 14 38  1  0
 19 39  1  0
 22 40  1  0
 23 41  1  0
 24 42  1  0
 25 43  1  0
M  ISO  8  27  14  28  14  29  14  30  13  31  13  32  13  33  13  34  13
M  ISO  8  35  13  36  13  37  14  38  14  39  14  40  14  41  14  42  14
M  ISO  1  43  14
M  END
>  <minimizedAffinity>  (1) 
-6.20417595

>  <minimizedRMSD>  (1) 
1.2984395

$$$$
