
     RDKit          3D

 40 43  0  0  1  0  0  0  0  0999 V2000
   44.6010   35.5640   45.2670 C   0  0  0  0  0  0  0  0  0  0  0  0
   45.1100   35.4830   43.9490 C   0  0  0  0  0  0  0  0  0  0  0  0
   45.9060   34.3630   43.6330 C   0  0  0  0  0  0  0  0  0  0  0  0
   46.1430   33.4250   44.5980 N   0  0  0  0  0  0  0  0  0  0  0  0
   45.6300   33.5560   45.8390 C   0  0  0  0  0  0  0  0  0  0  0  0
   44.8610   34.6180   46.1790 N   0  0  0  0  0  0  0  0  0  0  0  0
   45.9310   32.5390   46.7600 N   0  0  0  0  0  0  0  0  0  0  0  0
   45.0750   32.0820   47.8250 C   0  0  0  0  0  0  0  0  0  0  0  0
   46.0730   31.6830   48.8740 C   0  0  0  0  0  0  0  0  0  0  0  0
   47.0800   30.9290   48.0540 C   0  0  1  0  0  0  0  0  0  0  0  0
   47.1620   31.7780   46.7850 C   0  0  0  0  0  0  0  0  0  0  0  0
   48.3570   30.9310   48.7710 C   0  0  0  0  0  0  0  0  0  0  0  0
   49.1630   31.9760   49.3130 C   0  0  0  0  0  0  0  0  0  0  0  0
   50.3330   31.6270   49.9210 C   0  0  0  0  0  0  0  0  0  0  0  0
   50.6910   30.2850   49.9900 C   0  0  0  0  0  0  0  0  0  0  0  0
   49.2730   29.4310   49.1310 S   0  0  0  0  0  0  0  0  0  0  0  0
   51.8010   29.6640   50.5390 N   0  0  0  0  0  0  0  0  0  0  0  0
   52.9690   29.6490   49.9210 C   0  0  0  0  0  0  0  0  0  0  0  0
   54.0840   29.0170   50.4870 C   0  0  0  0  0  0  0  0  0  0  0  0
   53.8770   28.4180   51.7210 C   0  0  0  0  0  0  0  0  0  0  0  0
   54.9400   27.7480   52.3890 N   0  0  0  0  0  0  0  0  0  0  0  0
   52.6760   28.4450   52.3350 N   0  0  0  0  0  0  0  0  0  0  0  0
   51.6150   29.0710   51.7510 C   0  0  0  0  0  0  0  0  0  0  0  0
   50.5000   29.0880   52.3340 O   0  0  0  0  0  0  0  0  0  0  0  0
   43.9768   36.4246   45.5493 H   0  0  0  0  0  0  0  0  0  0  0  0
   44.8937   36.2613   43.2023 H   0  0  0  0  0  0  0  0  0  0  0  0
   46.3299   34.2460   42.6247 H   0  0  0  0  0  0  0  0  0  0  0  0
   44.4177   32.8877   48.1838 H   0  0  0  0  0  0  0  0  0  0  0  0
   44.3919   31.2719   47.5300 H   0  0  0  0  0  0  0  0  0  0  0  0
   46.5242   32.5631   49.3554 H   0  0  0  0  0  0  0  0  0  0  0  0
   45.6445   31.1028   49.7045 H   0  0  0  0  0  0  0  0  0  0  0  0
   46.8269   29.8782   47.8498 H   0  0  0  0  0  0  0  0  0  0  0  0
   47.2372   31.1359   45.8950 H   0  0  0  0  0  0  0  0  0  0  0  0
   48.0489   32.4287   46.7812 H   0  0  0  0  0  0  0  0  0  0  0  0
   48.8511   33.0285   49.2429 H   0  0  0  0  0  0  0  0  0  0  0  0
   50.9868   32.3993   50.3524 H   0  0  0  0  0  0  0  0  0  0  0  0
   53.0678   30.1425   48.9429 H   0  0  0  0  0  0  0  0  0  0  0  0
   55.0622   28.9970   49.9844 H   0  0  0  0  0  0  0  0  0  0  0  0
   54.7756   27.3065   53.3050 H   0  0  0  0  0  0  0  0  0  0  0  0
   55.8738   27.7045   51.9565 H   0  0  0  0  0  0  0  0  0  0  0  0
  1  6  2  0
  2  1  1  0
  3  2  2  0
  3  4  1  0
  4  5  2  0
  5  6  1  0
  5  7  1  0
  7 11  1  0
  7  8  1  0
  8  9  1  0
 10 12  1  0
 10  9  1  0
 11 10  1  0
 12 16  1  0
 12 13  2  0
 13 14  1  0
 14 15  2  0
 15 17  1  0
 16 15  1  0
 17 23  1  0
 18 19  2  0
 18 17  1  0
 19 20  1  0
 20 22  2  0
 20 21  1  0
 23 24  2  0
 23 22  1  0
  1 25  1  0
  2 26  1  0
  3 27  1  0
  8 28  1  0
  8 29  1  0
  9 30  1  0
  9 31  1  0
 10 32  1  6
 11 33  1  0
 11 34  1  0
 13 35  1  0
 14 36  1  0
 18 37  1  0
 19 38  1  0
 21 39  1  0
 21 40  1  0
M  ISO  8  25  14  26  14  27  14  28  13  29  13  30  13  31  13  32  13
M  ISO  6  33  13  34  13  35  14  36  14  37  14  38  14
M  END
>  <minimizedAffinity>  (1) 
-5.83999634

>  <minimizedRMSD>  (1) 
1.49715376

$$$$
