
     RDKit          3D

 43 47  0  0  1  0  0  0  0  0999 V2000
   44.9400   34.8770   45.1040 C   0  0  0  0  0  0  0  0  0  0  0  0
   45.6320   34.8480   43.8680 C   0  0  0  0  0  0  0  0  0  0  0  0
   46.6580   33.8930   43.7280 C   0  0  0  0  0  0  0  0  0  0  0  0
   46.9330   33.0540   44.7720 N   0  0  0  0  0  0  0  0  0  0  0  0
   46.2350   33.1310   45.9290 C   0  0  0  0  0  0  0  0  0  0  0  0
   45.2450   34.0330   46.1000 N   0  0  0  0  0  0  0  0  0  0  0  0
   46.5960   32.2230   46.9390 N   0  0  0  0  0  0  0  0  0  0  0  0
   45.7010   31.6460   47.9140 C   0  0  0  0  0  0  0  0  0  0  0  0
   46.6040   31.5040   49.1080 C   0  0  0  0  0  0  0  0  0  0  0  0
   47.8320   30.9140   48.4670 C   0  0  1  0  0  0  0  0  0  0  0  0
   47.9300   31.7160   47.1670 C   0  0  0  0  0  0  0  0  0  0  0  0
   48.9820   31.1740   49.3350 C   0  0  0  0  0  0  0  0  0  0  0  0
   49.8220   32.3120   49.5090 C   0  0  0  0  0  0  0  0  0  0  0  0
   50.8370   32.2220   50.4100 C   0  0  0  0  0  0  0  0  0  0  0  0
   51.0160   31.0390   51.1190 C   0  0  0  0  0  0  0  0  0  0  0  0
   49.6440   29.9630   50.4660 S   0  0  0  0  0  0  0  0  0  0  0  0
   51.9920   30.6980   52.1060 C   0  0  0  0  0  0  0  0  0  0  0  0
   52.9470   29.7420   52.0030 C   0  0  0  0  0  0  0  0  0  0  0  0
   53.6350   29.7690   53.1570 N   0  0  0  0  0  0  0  0  0  0  0  0
   53.1470   30.7100   53.9840 C   0  0  0  0  0  0  0  0  0  0  0  0
   53.5780   31.0440   55.2510 C   0  0  0  0  0  0  0  0  0  0  0  0
   52.9190   32.0560   55.9270 C   0  0  0  0  0  0  0  0  0  0  0  0
   51.8610   32.6840   55.3020 C   0  0  0  0  0  0  0  0  0  0  0  0
   51.4490   32.3330   54.0370 C   0  0  0  0  0  0  0  0  0  0  0  0
   52.0780   31.3310   53.3290 C   0  0  0  0  0  0  0  0  0  0  0  0
   44.1328   35.6099   45.2500 H   0  0  0  0  0  0  0  0  0  0  0  0
   45.3789   35.5416   43.0526 H   0  0  0  0  0  0  0  0  0  0  0  0
   47.2303   33.8232   42.7912 H   0  0  0  0  0  0  0  0  0  0  0  0
   44.8551   32.3158   48.1281 H   0  0  0  0  0  0  0  0  0  0  0  0
   45.2354   30.7032   47.5908 H   0  0  0  0  0  0  0  0  0  0  0  0
   46.8181   32.4784   49.5714 H   0  0  0  0  0  0  0  0  0  0  0  0
   46.1840   30.9009   49.9265 H   0  0  0  0  0  0  0  0  0  0  0  0
   47.7983   29.8275   48.2988 H   0  0  0  0  0  0  0  0  0  0  0  0
   48.2447   31.0680   46.3357 H   0  0  0  0  0  0  0  0  0  0  0  0
   48.6732   32.5241   47.2350 H   0  0  0  0  0  0  0  0  0  0  0  0
   49.6548   33.2340   48.9329 H   0  0  0  0  0  0  0  0  0  0  0  0
   51.5096   33.0764   50.5762 H   0  0  0  0  0  0  0  0  0  0  0  0
   53.1238   29.0763   51.1453 H   0  0  0  0  0  0  0  0  0  0  0  0
   54.4294   29.1518   53.3782 H   0  0  0  0  0  0  0  0  0  0  0  0
   54.4262   30.5180   55.7136 H   0  0  0  0  0  0  0  0  0  0  0  0
   53.2313   32.3529   56.9391 H   0  0  0  0  0  0  0  0  0  0  0  0
   51.3310   33.4896   55.8312 H   0  0  0  0  0  0  0  0  0  0  0  0
   50.5998   32.8630   53.5809 H   0  0  0  0  0  0  0  0  0  0  0  0
  1  6  2  0
  2  1  1  0
  3  2  2  0
  3  4  1  0
  4  5  2  0
  5  6  1  0
  5  7  1  0
  7 11  1  0
  7  8  1  0
  8  9  1  0
 10  9  1  0
 10 12  1  0
 11 10  1  0
 12 13  2  0
 12 16  1  0
 13 14  1  0
 14 15  2  0
 15 17  1  0
 16 15  1  0
 17 25  1  0
 18 17  2  0
 18 19  1  0
 19 20  1  0
 20 21  2  0
 21 22  1  0
 23 22  2  0
 24 23  1  0
 25 20  1  0
 25 24  2  0
  1 26  1  0
  2 27  1  0
  3 28  1  0
  8 29  1  0
  8 30  1  0
  9 31  1  0
  9 32  1  0
 10 33  1  6
 11 34  1  0
 11 35  1  0
 13 36  1  0
 14 37  1  0
 18 38  1  0
 19 39  1  0
 21 40  1  0
 22 41  1  0
 23 42  1  0
 24 43  1  0
M  ISO  8  26  14  27  14  28  14  29  13  30  13  31  13  32  13  33  13
M  ISO  8  34  13  35  13  36  14  37  14  38  14  39   9  40  14  41  14
M  ISO  2  42  14  43  14
M  END
>  <minimizedAffinity>  (1) 
-6.68112755

>  <minimizedRMSD>  (1) 
2.70060134

$$$$
