
     RDKit          3D

 43 46  0  0  1  0  0  0  0  0999 V2000
   44.5700   35.5570   45.1130 C   0  0  0  0  0  0  0  0  0  0  0  0
   45.1190   35.4360   43.8130 C   0  0  0  0  0  0  0  0  0  0  0  0
   45.9850   34.3500   43.5810 C   0  0  0  0  0  0  0  0  0  0  0  0
   46.2490   33.4820   44.6020 N   0  0  0  0  0  0  0  0  0  0  0  0
   45.6970   33.6440   45.8200 C   0  0  0  0  0  0  0  0  0  0  0  0
   44.8580   34.6790   46.0820 N   0  0  0  0  0  0  0  0  0  0  0  0
   46.0210   32.7110   46.8060 N   0  0  0  0  0  0  0  0  0  0  0  0
   45.1780   32.2650   47.8800 C   0  0  0  0  0  0  0  0  0  0  0  0
   46.1730   31.9830   48.9700 C   0  0  0  0  0  0  0  0  0  0  0  0
   47.2350   31.2400   48.2100 C   0  0  1  0  0  0  0  0  0  0  0  0
   47.3090   32.0240   46.9010 C   0  0  0  0  0  0  0  0  0  0  0  0
   48.4890   31.3610   48.9540 C   0  0  0  0  0  0  0  0  0  0  0  0
   49.3480   32.4630   49.2300 C   0  0  0  0  0  0  0  0  0  0  0  0
   50.4900   32.2320   49.9700 C   0  0  0  0  0  0  0  0  0  0  0  0
   50.7480   30.9420   50.4090 C   0  0  0  0  0  0  0  0  0  0  0  0
   49.3040   29.9660   49.7540 S   0  0  0  0  0  0  0  0  0  0  0  0
   51.8210   30.4070   51.1730 C   0  0  1  0  0  0  0  0  0  0  0  0
   52.9720   31.3490   51.2300 C   0  0  0  0  0  0  0  0  0  0  0  0
   53.2870   31.9980   52.5150 C   0  0  0  0  0  0  0  0  0  0  0  0
   52.2790   31.8460   53.6110 C   0  0  0  0  0  0  0  0  0  0  0  0
   52.0220   30.3540   53.6970 C   0  0  0  0  0  0  0  0  0  0  0  0
   51.3280   29.8580   52.4570 C   0  0  0  0  0  0  0  0  0  0  0  0
   43.8899   36.3933   45.3321 H   0  0  0  0  0  0  0  0  0  0  0  0
   44.8794   36.1588   43.0192 H   0  0  0  0  0  0  0  0  0  0  0  0
   46.4424   34.2028   42.5915 H   0  0  0  0  0  0  0  0  0  0  0  0
   44.4680   33.0492   48.1815 H   0  0  0  0  0  0  0  0  0  0  0  0
   44.5523   31.3987   47.6190 H   0  0  0  0  0  0  0  0  0  0  0  0
   46.5660   32.9126   49.4075 H   0  0  0  0  0  0  0  0  0  0  0  0
   45.7600   31.4299   49.8265 H   0  0  0  0  0  0  0  0  0  0  0  0
   47.0398   30.1686   48.0553 H   0  0  0  0  0  0  0  0  0  0  0  0
   47.4492   31.3431   46.0485 H   0  0  0  0  0  0  0  0  0  0  0  0
   48.1567   32.7248   46.8831 H   0  0  0  0  0  0  0  0  0  0  0  0
   49.1076   33.4717   48.8631 H   0  0  0  0  0  0  0  0  0  0  0  0
   51.1813   33.0542   50.2067 H   0  0  0  0  0  0  0  0  0  0  0  0
   52.2526   29.5304   50.6678 H   0  0  0  0  0  0  0  0  0  0  0  0
   53.5741   31.5561   50.3330 H   0  0  0  0  0  0  0  0  0  0  0  0
   54.2173   32.5663   52.6615 H   0  0  0  0  0  0  0  0  0  0  0  0
   52.6806   32.2254   54.5622 H   0  0  0  0  0  0  0  0  0  0  0  0
   51.3590   32.4149   53.4108 H   0  0  0  0  0  0  0  0  0  0  0  0
   52.9821   29.8286   53.8073 H   0  0  0  0  0  0  0  0  0  0  0  0
   51.3755   30.1574   54.5650 H   0  0  0  0  0  0  0  0  0  0  0  0
   50.2613   30.1120   52.5441 H   0  0  0  0  0  0  0  0  0  0  0  0
   51.5319   28.7779   52.4152 H   0  0  0  0  0  0  0  0  0  0  0  0
  1  6  2  0
  2  1  1  0
  3  2  2  0
  3  4  1  0
  4  5  2  0
  5  6  1  0
  5  7  1  0
  7 11  1  0
  7  8  1  0
  8  9  1  0
 10 12  1  0
 10  9  1  0
 11 10  1  0
 12 13  2  0
 12 16  1  0
 13 14  1  0
 14 15  2  0
 16 15  1  0
 17 15  1  0
 17 18  1  0
 17 22  1  0
 18 19  2  0
 19 20  1  0
 20 21  1  0
 22 21  1  0
  1 23  1  0
  2 24  1  0
  3 25  1  0
  8 26  1  0
  8 27  1  0
  9 28  1  0
  9 29  1  0
 10 30  1  6
 11 31  1  0
 11 32  1  0
 13 33  1  0
 14 34  1  0
 17 35  1  6
 18 36  1  0
 19 37  1  0
 20 38  1  0
 20 39  1  0
 21 40  1  0
 21 41  1  0
 22 42  1  0
 22 43  1  0
M  ISO  8  23  14  24  14  25  14  26  13  27  13  28  13  29  13  30  13
M  ISO  8  31  13  32  13  33  14  34  14  35  13  36  13  37  13  38  13
M  ISO  5  39  13  40  13  41  13  42  13  43  13
M  END
>  <minimizedAffinity>  (1) 
-5.84622192

>  <minimizedRMSD>  (1) 
1.49477398

$$$$
