
     RDKit          3D

 39 42  0  0  1  0  0  0  0  0999 V2000
   44.6090   35.6070   45.1440 C   0  0  0  0  0  0  0  0  0  0  0  0
   45.1280   35.5010   43.8320 C   0  0  0  0  0  0  0  0  0  0  0  0
   45.9270   34.3790   43.5450 C   0  0  0  0  0  0  0  0  0  0  0  0
   46.1590   33.4590   44.5310 N   0  0  0  0  0  0  0  0  0  0  0  0
   45.6420   33.6080   45.7620 C   0  0  0  0  0  0  0  0  0  0  0  0
   44.8660   34.6790   46.0740 N   0  0  0  0  0  0  0  0  0  0  0  0
   45.9310   32.6200   46.7090 N   0  0  0  0  0  0  0  0  0  0  0  0
   45.0810   32.1770   47.7800 C   0  0  0  0  0  0  0  0  0  0  0  0
   46.0820   31.8260   48.8450 C   0  0  0  0  0  0  0  0  0  0  0  0
   47.0920   31.0460   48.0440 C   0  0  1  0  0  0  0  0  0  0  0  0
   47.1770   31.8670   46.7570 C   0  0  0  0  0  0  0  0  0  0  0  0
   48.3670   31.0620   48.7710 C   0  0  0  0  0  0  0  0  0  0  0  0
   49.1640   32.1250   49.2940 C   0  0  0  0  0  0  0  0  0  0  0  0
   50.3240   31.7900   49.9130 C   0  0  0  0  0  0  0  0  0  0  0  0
   50.6920   30.4540   50.0180 C   0  0  0  0  0  0  0  0  0  0  0  0
   49.2720   29.5700   49.1620 S   0  0  0  0  0  0  0  0  0  0  0  0
   51.7800   29.8150   50.5740 N   0  0  0  0  0  0  0  0  0  0  0  0
   52.9730   29.8450   49.9350 C   0  0  0  0  0  0  0  0  0  0  0  0
   54.0480   29.1950   50.5190 C   0  0  0  0  0  0  0  0  0  0  0  0
   53.9480   28.5170   51.7280 C   0  0  0  0  0  0  0  0  0  0  0  0
   54.9560   27.9400   52.2170 O   0  0  0  0  0  0  0  0  0  0  0  0
   52.7380   28.5150   52.3270 N   0  0  0  0  0  0  0  0  0  0  0  0
   51.6930   29.1470   51.7620 C   0  0  0  0  0  0  0  0  0  0  0  0
   50.5710   29.1390   52.3280 O   0  0  0  0  0  0  0  0  0  0  0  0
   43.9805   36.4710   45.4056 H   0  0  0  0  0  0  0  0  0  0  0  0
   44.9157   36.2638   43.0684 H   0  0  0  0  0  0  0  0  0  0  0  0
   46.3589   34.2433   42.5425 H   0  0  0  0  0  0  0  0  0  0  0  0
   44.4066   32.9794   48.1136 H   0  0  0  0  0  0  0  0  0  0  0  0
   44.4152   31.3459   47.5044 H   0  0  0  0  0  0  0  0  0  0  0  0
   46.5290   32.7263   49.2918 H   0  0  0  0  0  0  0  0  0  0  0  0
   45.6606   31.2779   49.7006 H   0  0  0  0  0  0  0  0  0  0  0  0
   46.8406   29.9909   47.8607 H   0  0  0  0  0  0  0  0  0  0  0  0
   47.2638   31.2064   45.8817 H   0  0  0  0  0  0  0  0  0  0  0  0
   48.0587   32.5246   46.7431 H   0  0  0  0  0  0  0  0  0  0  0  0
   48.8498   33.1748   49.1988 H   0  0  0  0  0  0  0  0  0  0  0  0
   50.9720   32.5745   50.3310 H   0  0  0  0  0  0  0  0  0  0  0  0
   53.0860   30.3722   48.9762 H   0  0  0  0  0  0  0  0  0  0  0  0
   55.0202   29.2164   50.0049 H   0  0  0  0  0  0  0  0  0  0  0  0
   52.6137   28.0253   53.2246 H   0  0  0  0  0  0  0  0  0  0  0  0
  1  6  2  0
  2  1  1  0
  3  2  2  0
  3  4  1  0
  4  5  2  0
  5  6  1  0
  5  7  1  0
  7 11  1  0
  7  8  1  0
  8  9  1  0
 10 12  1  0
 10  9  1  0
 11 10  1  0
 12 16  1  0
 12 13  2  0
 13 14  1  0
 14 15  2  0
 15 17  1  0
 16 15  1  0
 17 23  1  0
 18 19  2  0
 18 17  1  0
 19 20  1  0
 20 21  2  0
 20 22  1  0
 23 22  1  0
 23 24  2  0
  1 25  1  0
  2 26  1  0
  3 27  1  0
  8 28  1  0
  8 29  1  0
  9 30  1  0
  9 31  1  0
 10 32  1  6
 11 33  1  0
 11 34  1  0
 13 35  1  0
 14 36  1  0
 18 37  1  0
 19 38  1  0
 22 39  1  0
M  ISO  8  25  14  26  14  27  14  28  13  29  13  30  13  31  13  32  13
M  ISO  7  33  13  34  13  35  14  36  14  37  14  38  14  39   9
M  END
>  <minimizedAffinity>  (1) 
-5.80888414

>  <minimizedRMSD>  (1) 
1.45121002

$$$$
