
     RDKit          3D

 36 39  0  0  1  0  0  0  0  0999 V2000
   44.5860   35.6070   45.1110 C   0  0  0  0  0  0  0  0  0  0  0  0
   45.1020   35.4690   43.8190 C   0  0  0  0  0  0  0  0  0  0  0  0
   45.9230   34.3550   43.5540 C   0  0  0  0  0  0  0  0  0  0  0  0
   46.1720   33.4680   44.5700 N   0  0  0  0  0  0  0  0  0  0  0  0
   45.6480   33.6520   45.7950 C   0  0  0  0  0  0  0  0  0  0  0  0
   44.8540   34.7160   46.0740 N   0  0  0  0  0  0  0  0  0  0  0  0
   45.9530   32.6970   46.7840 N   0  0  0  0  0  0  0  0  0  0  0  0
   45.1190   32.2690   47.8720 C   0  0  0  0  0  0  0  0  0  0  0  0
   46.1280   31.9680   48.9330 C   0  0  0  0  0  0  0  0  0  0  0  0
   47.1560   31.1910   48.1560 C   0  0  1  0  0  0  0  0  0  0  0  0
   47.2260   31.9720   46.8430 C   0  0  0  0  0  0  0  0  0  0  0  0
   48.4250   31.2480   48.8770 C   0  0  0  0  0  0  0  0  0  0  0  0
   49.2680   32.3290   49.2630 C   0  0  0  0  0  0  0  0  0  0  0  0
   50.4100   32.0400   49.9290 C   0  0  0  0  0  0  0  0  0  0  0  0
   50.7250   30.7180   50.2140 C   0  0  0  0  0  0  0  0  0  0  0  0
   49.2820   29.8080   49.4760 S   0  0  0  0  0  0  0  0  0  0  0  0
   51.7770   30.0350   50.8620 C   0  0  0  0  0  0  0  0  0  0  0  0
   51.7030   29.7130   52.1980 C   0  0  0  0  0  0  0  0  0  0  0  0
   52.8950   29.0520   52.5140 C   0  0  0  0  0  0  0  0  0  0  0  0
   53.6090   29.0300   51.3090 C   0  0  0  0  0  0  0  0  0  0  0  0
   52.9110   29.6250   50.3460 O   0  0  0  0  0  0  0  0  0  0  0  0
   43.9435   36.4694   45.3423 H   0  0  0  0  0  0  0  0  0  0  0  0
   44.8744   36.2061   43.0349 H   0  0  0  0  0  0  0  0  0  0  0  0
   46.3548   34.2001   42.5542 H   0  0  0  0  0  0  0  0  0  0  0  0
   44.4321   33.0679   48.1880 H   0  0  0  0  0  0  0  0  0  0  0  0
   44.4667   31.4186   47.6245 H   0  0  0  0  0  0  0  0  0  0  0  0
   46.5551   32.8898   49.3548 H   0  0  0  0  0  0  0  0  0  0  0  0
   45.7198   31.4294   49.8009 H   0  0  0  0  0  0  0  0  0  0  0  0
   46.9249   30.1262   48.0047 H   0  0  0  0  0  0  0  0  0  0  0  0
   47.3246   31.2877   45.9874 H   0  0  0  0  0  0  0  0  0  0  0  0
   48.0951   32.6449   46.8003 H   0  0  0  0  0  0  0  0  0  0  0  0
   48.9986   33.3690   49.0266 H   0  0  0  0  0  0  0  0  0  0  0  0
   51.0859   32.8489   50.2433 H   0  0  0  0  0  0  0  0  0  0  0  0
   50.8705   29.9322   52.8827 H   0  0  0  0  0  0  0  0  0  0  0  0
   53.2018   28.6425   53.4877 H   0  0  0  0  0  0  0  0  0  0  0  0
   54.6058   28.5838   51.1779 H   0  0  0  0  0  0  0  0  0  0  0  0
  1  6  2  0
  2  1  1  0
  3  2  2  0
  3  4  1  0
  4  5  2  0
  5  6  1  0
  5  7  1  0
  7 11  1  0
  7  8  1  0
  8  9  1  0
 10 12  1  0
 10  9  1  0
 11 10  1  0
 12 13  2  0
 12 16  1  0
 13 14  1  0
 14 15  2  0
 15 17  1  0
 16 15  1  0
 17 18  2  0
 18 19  1  0
 20 19  2  0
 21 17  1  0
 21 20  1  0
  1 22  1  0
  2 23  1  0
  3 24  1  0
  8 25  1  0
  8 26  1  0
  9 27  1  0
  9 28  1  0
 10 29  1  6
 11 30  1  0
 11 31  1  0
 13 32  1  0
 14 33  1  0
 18 34  1  0
 19 35  1  0
 20 36  1  0
M  ISO  8  22  14  23  14  24  14  25  13  26  13  27  13  28  13  29  13
M  ISO  7  30  13  31  13  32  14  33  14  34  14  35  14  36  14
M  END
>  <minimizedAffinity>  (1) 
-5.42087603

>  <minimizedRMSD>  (1) 
1.21943486

$$$$
