
     RDKit          3D

 41 44  0  0  1  0  0  0  0  0999 V2000
   45.9390   30.8420   47.2030 C   0  0  2  0  0  0  0  0  0  0  0  0
   44.7130   34.7850   46.1110 C   0  0  0  0  0  0  0  0  0  0  0  0
   44.5690   35.5010   44.9230 C   0  0  0  0  0  0  0  0  0  0  0  0
   45.1720   34.9990   43.7650 C   0  0  0  0  0  0  0  0  0  0  0  0
   45.8670   33.8450   43.8470 N   0  0  0  0  0  0  0  0  0  0  0  0
   46.0020   33.1500   45.0170 C   0  0  0  0  0  0  0  0  0  0  0  0
   45.4220   33.6360   46.1250 N   0  0  0  0  0  0  0  0  0  0  0  0
   46.7280   31.9490   45.1260 N   0  0  0  0  0  0  0  0  0  0  0  0
   47.6220   31.7060   44.1230 C   0  0  0  0  0  0  0  0  0  0  0  0
   48.2200   30.4730   44.4600 C   0  0  0  0  0  0  0  0  0  0  0  0
   47.6720   30.0300   45.6310 N   0  0  0  0  0  0  0  0  0  0  0  0
   46.7680   30.9460   46.0110 C   0  0  0  0  0  0  0  0  0  0  0  0
   46.7500   31.5120   48.3530 C   0  0  0  0  0  0  0  0  0  0  0  0
   45.7080   29.4240   47.6080 C   0  0  0  0  0  0  0  0  0  0  0  0
   44.7140   28.7650   46.8260 N   0  0  0  0  0  0  0  0  0  0  0  0
   44.0290   29.3150   45.8200 N   0  0  0  0  0  0  0  0  0  0  0  0
   43.1850   28.3670   45.3420 C   0  0  0  0  0  0  0  0  0  0  0  0
   43.3350   27.1910   46.0570 C   0  0  0  0  0  0  0  0  0  0  0  0
   44.3140   27.4690   46.9970 C   0  0  0  0  0  0  0  0  0  0  0  0
   44.8630   26.5800   48.0140 C   0  0  0  0  0  0  0  0  0  0  0  0
   44.1730   26.3970   49.1950 C   0  0  0  0  0  0  0  0  0  0  0  0
   44.6010   25.5810   50.2220 C   0  0  0  0  0  0  0  0  0  0  0  0
   45.7710   24.9220   50.0490 N   0  0  0  0  0  0  0  0  0  0  0  0
   46.4510   25.1070   48.8790 C   0  0  0  0  0  0  0  0  0  0  0  0
   46.0190   25.9080   47.8880 N   0  0  0  0  0  0  0  0  0  0  0  0
   44.9635   31.3100   47.0045 H   0  0  0  0  0  0  0  0  0  0  0  0
   44.2490   35.1563   47.0367 H   0  0  0  0  0  0  0  0  0  0  0  0
   43.9946   36.4387   44.8972 H   0  0  0  0  0  0  0  0  0  0  0  0
   45.0817   35.5335   42.8078 H   0  0  0  0  0  0  0  0  0  0  0  0
   47.8305   32.3341   43.2443 H   0  0  0  0  0  0  0  0  0  0  0  0
   48.9967   29.9554   43.8779 H   0  0  0  0  0  0  0  0  0  0  0  0
   46.3508   31.1822   49.3235 H   0  0  0  0  0  0  0  0  0  0  0  0
   47.8078   31.2209   48.2736 H   0  0  0  0  0  0  0  0  0  0  0  0
   46.6637   32.6057   48.2736 H   0  0  0  0  0  0  0  0  0  0  0  0
   46.6546   28.8734   47.5042 H   0  0  0  0  0  0  0  0  0  0  0  0
   45.3463   29.4384   48.6467 H   0  0  0  0  0  0  0  0  0  0  0  0
   42.4832   28.5115   44.5074 H   0  0  0  0  0  0  0  0  0  0  0  0
   42.7953   26.2437   45.9108 H   0  0  0  0  0  0  0  0  0  0  0  0
   43.2226   26.9352   49.3258 H   0  0  0  0  0  0  0  0  0  0  0  0
   44.0142   25.4701   51.1458 H   0  0  0  0  0  0  0  0  0  0  0  0
   47.4024   24.5727   48.7395 H   0  0  0  0  0  0  0  0  0  0  0  0
  1 14  1  0
  1 13  1  0
  2  7  2  0
  3  2  1  0
  4  5  1  0
  4  3  2  0
  5  6  2  0
  6  8  1  0
  6  7  1  0
  8 12  1  0
  9 10  2  0
  9  8  1  0
 10 11  1  0
 11 12  2  0
 12  1  1  0
 15 19  1  0
 15 14  1  0
 16 15  1  0
 17 16  2  0
 17 18  1  0
 18 19  2  0
 19 20  1  0
 20 21  2  0
 21 22  1  0
 23 22  2  0
 24 23  1  0
 25 20  1  0
 25 24  2  0
  1 26  1  6
  2 27  1  0
  3 28  1  0
  4 29  1  0
  9 30  1  0
 10 31  1  0
 13 32  1  0
 13 33  1  0
 13 34  1  0
 14 35  1  0
 14 36  1  0
 17 37  1  0
 18 38  1  0
 21 39  1  0
 22 40  1  0
 24 41  1  0
M  ISO  8  26   8  27  14  28  14  29  14  30  14  31  14  32   8  33   8
M  ISO  8  34   8  35   8  36   8  37  14  38  14  39  14  40  14  41  14
M  END
>  <minimizedAffinity>  (1) 
-5.03181171

>  <minimizedRMSD>  (1) 
1.24545014

$$$$
