
     RDKit          3D

 36 39  0  0  1  0  0  0  0  0999 V2000
   44.6240   35.7470   44.9150 C   0  0  0  0  0  0  0  0  0  0  0  0
   44.9810   35.4840   43.5710 C   0  0  0  0  0  0  0  0  0  0  0  0
   45.6210   34.2580   43.3070 C   0  0  0  0  0  0  0  0  0  0  0  0
   45.8600   33.3980   44.3420 N   0  0  0  0  0  0  0  0  0  0  0  0
   45.5000   33.6990   45.6020 C   0  0  0  0  0  0  0  0  0  0  0  0
   44.8810   34.8730   45.8920 N   0  0  0  0  0  0  0  0  0  0  0  0
   45.7850   32.7590   46.5990 N   0  0  0  0  0  0  0  0  0  0  0  0
   45.0160   32.5100   47.7860 C   0  0  0  0  0  0  0  0  0  0  0  0
   46.0770   32.1080   48.7700 C   0  0  0  0  0  0  0  0  0  0  0  0
   46.9040   31.1650   47.9400 C   0  0  1  0  0  0  0  0  0  0  0  0
   46.9360   31.8690   46.5840 C   0  0  0  0  0  0  0  0  0  0  0  0
   48.2420   31.0760   48.5260 C   0  0  0  0  0  0  0  0  0  0  0  0
   49.0540   32.0260   49.2110 C   0  0  0  0  0  0  0  0  0  0  0  0
   50.2820   31.6330   49.6330 C   0  0  0  0  0  0  0  0  0  0  0  0
   50.7060   30.3370   49.3880 C   0  0  0  0  0  0  0  0  0  0  0  0
   49.2410   29.6020   48.4800 S   0  0  0  0  0  0  0  0  0  0  0  0
   51.9760   29.6850   49.7420 C   0  0  0  0  0  0  0  0  0  0  0  0
   52.6980   28.6650   49.1850 C   0  0  0  0  0  0  0  0  0  0  0  0
   53.8000   28.5200   49.9810 C   0  0  0  0  0  0  0  0  0  0  0  0
   53.7480   29.4300   50.9960 N   0  0  0  0  0  0  0  0  0  0  0  0
   52.6210   30.1380   50.8340 N   0  0  0  0  0  0  0  0  0  0  0  0
   44.1225   36.6946   45.1612 H   0  0  0  0  0  0  0  0  0  0  0  0
   44.7679   36.2053   42.7683 H   0  0  0  0  0  0  0  0  0  0  0  0
   45.9243   33.9961   42.2826 H   0  0  0  0  0  0  0  0  0  0  0  0
   44.4875   33.4163   48.1167 H   0  0  0  0  0  0  0  0  0  0  0  0
   44.2276   31.7547   47.6521 H   0  0  0  0  0  0  0  0  0  0  0  0
   46.6668   32.9747   49.1032 H   0  0  0  0  0  0  0  0  0  0  0  0
   45.6868   31.6675   49.6994 H   0  0  0  0  0  0  0  0  0  0  0  0
   46.5182   30.1369   47.8750 H   0  0  0  0  0  0  0  0  0  0  0  0
   46.8501   31.1384   45.7662 H   0  0  0  0  0  0  0  0  0  0  0  0
   47.8784   32.4123   46.4208 H   0  0  0  0  0  0  0  0  0  0  0  0
   48.6949   33.0498   49.3926 H   0  0  0  0  0  0  0  0  0  0  0  0
   50.9365   32.3384   50.1660 H   0  0  0  0  0  0  0  0  0  0  0  0
   52.4450   28.0839   48.2859 H   0  0  0  0  0  0  0  0  0  0  0  0
   54.6032   27.7844   49.8271 H   0  0  0  0  0  0  0  0  0  0  0  0
   54.4438   29.5505   51.7459 H   0  0  0  0  0  0  0  0  0  0  0  0
  1  6  2  0
  2  1  1  0
  3  2  2  0
  3  4  1  0
  4  5  2  0
  5  6  1  0
  5  7  1  0
  7  8  1  0
  8  9  1  0
 10 12  1  0
 10  9  1  0
 11  7  1  0
 11 10  1  0
 12 13  2  0
 13 14  1  0
 15 14  2  0
 15 17  1  0
 16 12  1  0
 16 15  1  0
 17 21  2  0
 18 17  1  0
 18 19  2  0
 19 20  1  0
 21 20  1  0
  1 22  1  0
  2 23  1  0
  3 24  1  0
  8 25  1  0
  8 26  1  0
  9 27  1  0
  9 28  1  0
 10 29  1  6
 11 30  1  0
 11 31  1  0
 13 32  1  0
 14 33  1  0
 18 34  1  0
 19 35  1  0
 20 36  1  0
M  ISO  8  22  14  23  14  24  14  25  13  26  13  27  13  28  13  29  13
M  ISO  7  30  13  31  13  32  14  33  14  34  14  35  14  36   9
M  END
>  <minimizedAffinity>  (1) 
-5.26547813

>  <minimizedRMSD>  (1) 
0.321335495

$$$$
