
     RDKit          3D

 35 38  0  0  1  0  0  0  0  0999 V2000
   44.6370   35.7290   44.9330 C   0  0  0  0  0  0  0  0  0  0  0  0
   45.0180   35.4780   43.5950 C   0  0  0  0  0  0  0  0  0  0  0  0
   45.6690   34.2620   43.3300 C   0  0  0  0  0  0  0  0  0  0  0  0
   45.9030   33.3870   44.3600 N   0  0  0  0  0  0  0  0  0  0  0  0
   45.5160   33.6820   45.6210 C   0  0  0  0  0  0  0  0  0  0  0  0
   44.8830   34.8490   45.9110 N   0  0  0  0  0  0  0  0  0  0  0  0
   45.7920   32.7370   46.6140 N   0  0  0  0  0  0  0  0  0  0  0  0
   45.0100   32.4500   47.7840 C   0  0  0  0  0  0  0  0  0  0  0  0
   46.0720   32.0860   48.7840 C   0  0  0  0  0  0  0  0  0  0  0  0
   46.9200   31.1500   47.9680 C   0  0  1  0  0  0  0  0  0  0  0  0
   46.9640   31.8640   46.6130 C   0  0  0  0  0  0  0  0  0  0  0  0
   48.2500   31.0840   48.5730 C   0  0  0  0  0  0  0  0  0  0  0  0
   49.0690   32.0600   49.2160 C   0  0  0  0  0  0  0  0  0  0  0  0
   50.2910   31.6710   49.6630 C   0  0  0  0  0  0  0  0  0  0  0  0
   50.7010   30.3560   49.4830 C   0  0  0  0  0  0  0  0  0  0  0  0
   49.2420   29.6030   48.6110 S   0  0  0  0  0  0  0  0  0  0  0  0
   51.9350   29.6920   49.8570 C   0  0  0  0  0  0  0  0  0  0  0  0
   52.3320   28.5130   49.1760 C   0  0  0  0  0  0  0  0  0  0  0  0
   53.9470   28.1510   50.0880 S   0  0  0  0  0  0  0  0  0  0  0  0
   53.7360   29.6730   51.1940 C   0  0  0  0  0  0  0  0  0  0  0  0
   52.6520   30.2310   50.8440 N   0  0  0  0  0  0  0  0  0  0  0  0
   44.1252   36.6717   45.1766 H   0  0  0  0  0  0  0  0  0  0  0  0
   44.8132   36.2046   42.7949 H   0  0  0  0  0  0  0  0  0  0  0  0
   45.9879   34.0139   42.3069 H   0  0  0  0  0  0  0  0  0  0  0  0
   44.4388   33.3318   48.1098 H   0  0  0  0  0  0  0  0  0  0  0  0
   44.2541   31.6654   47.6324 H   0  0  0  0  0  0  0  0  0  0  0  0
   46.6418   32.9691   49.1087 H   0  0  0  0  0  0  0  0  0  0  0  0
   45.6872   31.6531   49.7191 H   0  0  0  0  0  0  0  0  0  0  0  0
   46.5495   30.1167   47.8967 H   0  0  0  0  0  0  0  0  0  0  0  0
   46.9052   31.1370   45.7896 H   0  0  0  0  0  0  0  0  0  0  0  0
   47.8995   32.4243   46.4686 H   0  0  0  0  0  0  0  0  0  0  0  0
   48.7212   33.0955   49.3456 H   0  0  0  0  0  0  0  0  0  0  0  0
   50.9522   32.3929   50.1646 H   0  0  0  0  0  0  0  0  0  0  0  0
   51.8423   27.9679   48.3556 H   0  0  0  0  0  0  0  0  0  0  0  0
   54.4209   30.0085   51.9867 H   0  0  0  0  0  0  0  0  0  0  0  0
  1  6  2  0
  2  1  1  0
  3  2  2  0
  3  4  1  0
  4  5  2  0
  5  6  1  0
  5  7  1  0
  7  8  1  0
  8  9  1  0
 10 12  1  0
 10  9  1  0
 11  7  1  0
 11 10  1  0
 12 16  1  0
 12 13  2  0
 13 14  1  0
 15 14  2  0
 15 17  1  0
 16 15  1  0
 17 21  1  0
 18 17  2  0
 18 19  1  0
 19 20  1  0
 21 20  2  0
  1 22  1  0
  2 23  1  0
  3 24  1  0
  8 25  1  0
  8 26  1  0
  9 27  1  0
  9 28  1  0
 10 29  1  6
 11 30  1  0
 11 31  1  0
 13 32  1  0
 14 33  1  0
 18 34  1  0
 20 35  1  0
M  ISO  8  22  14  23  14  24  14  25  13  26  13  27  13  28  13  29  13
M  ISO  6  30  13  31  13  32  14  33  14  34  14  35  14
M  END
>  <minimizedAffinity>  (1) 
-5.23971462

>  <minimizedRMSD>  (1) 
0.564701498

$$$$
