
     RDKit          3D

 31 33  0  0  1  0  0  0  0  0999 V2000
   44.6330   35.7420   44.9040 C   0  0  0  0  0  0  0  0  0  0  0  0
   44.9240   35.4440   43.5510 C   0  0  0  0  0  0  0  0  0  0  0  0
   45.5180   34.1970   43.2780 C   0  0  0  0  0  0  0  0  0  0  0  0
   45.7830   33.3450   44.3150 N   0  0  0  0  0  0  0  0  0  0  0  0
   45.4830   33.6830   45.5860 C   0  0  0  0  0  0  0  0  0  0  0  0
   44.9100   34.8780   45.8880 N   0  0  0  0  0  0  0  0  0  0  0  0
   45.7910   32.7490   46.5840 N   0  0  0  0  0  0  0  0  0  0  0  0
   45.0650   32.5260   47.8040 C   0  0  0  0  0  0  0  0  0  0  0  0
   46.1580   32.1220   48.7500 C   0  0  0  0  0  0  0  0  0  0  0  0
   46.9300   31.1470   47.9080 C   0  0  1  0  0  0  0  0  0  0  0  0
   46.9210   31.8380   46.5440 C   0  0  0  0  0  0  0  0  0  0  0  0
   48.2920   31.0660   48.4450 C   0  0  0  0  0  0  0  0  0  0  0  0
   49.0820   31.9420   49.2450 C   0  0  0  0  0  0  0  0  0  0  0  0
   50.3570   31.5420   49.5510 C   0  0  0  0  0  0  0  0  0  0  0  0
   50.8220   30.3210   49.0770 C   0  0  0  0  0  0  0  0  0  0  0  0
   49.3660   29.6570   48.1190 S   0  0  0  0  0  0  0  0  0  0  0  0
   52.0070   29.6980   49.2220 N   0  0  0  0  0  0  0  0  0  0  0  0
   44.1678   36.7073   45.1527 H   0  0  0  0  0  0  0  0  0  0  0  0
   44.6953   36.1576   42.7457 H   0  0  0  0  0  0  0  0  0  0  0  0
   45.7656   33.9117   42.2449 H   0  0  0  0  0  0  0  0  0  0  0  0
   44.5623   33.4438   48.1431 H   0  0  0  0  0  0  0  0  0  0  0  0
   44.2615   31.7805   47.7113 H   0  0  0  0  0  0  0  0  0  0  0  0
   46.7782   32.9829   49.0401 H   0  0  0  0  0  0  0  0  0  0  0  0
   45.7984   31.7079   49.7035 H   0  0  0  0  0  0  0  0  0  0  0  0
   46.5296   30.1230   47.8739 H   0  0  0  0  0  0  0  0  0  0  0  0
   46.7925   31.0997   45.7388 H   0  0  0  0  0  0  0  0  0  0  0  0
   47.8659   32.3648   46.3447 H   0  0  0  0  0  0  0  0  0  0  0  0
   48.6837   32.9027   49.6033 H   0  0  0  0  0  0  0  0  0  0  0  0
   51.0065   32.1819   50.1664 H   0  0  0  0  0  0  0  0  0  0  0  0
   52.1621   28.7782   48.7852 H   0  0  0  0  0  0  0  0  0  0  0  0
   52.7583   30.1413   49.7697 H   0  0  0  0  0  0  0  0  0  0  0  0
  1  6  2  0
  2  1  1  0
  3  2  2  0
  3  4  1  0
  4  5  2  0
  5  6  1  0
  5  7  1  0
  7  8  1  0
  8  9  1  0
 10 12  1  0
 10  9  1  0
 11  7  1  0
 11 10  1  0
 12 13  2  0
 13 14  1  0
 15 17  1  0
 15 14  2  0
 16 12  1  0
 16 15  1  0
  1 18  1  0
  2 19  1  0
  3 20  1  0
  8 21  1  0
  8 22  1  0
  9 23  1  0
  9 24  1  0
 10 25  1  6
 11 26  1  0
 11 27  1  0
 13 28  1  0
 14 29  1  0
 17 30  1  0
 17 31  1  0
M  ISO  8  18  14  19  14  20  14  21  13  22  13  23  13  24  13  25  13
M  ISO  4  26  13  27  13  28  14  29  14
M  END
>  <minimizedAffinity>  (1) 
-5.03883553

>  <minimizedRMSD>  (1) 
0.0259491522

$$$$
