
     RDKit          3D

 30 32  0  0  1  0  0  0  0  0999 V2000
   44.6250   35.7400   44.8970 C   0  0  0  0  0  0  0  0  0  0  0  0
   44.9190   35.4430   43.5450 C   0  0  0  0  0  0  0  0  0  0  0  0
   45.5220   34.1990   43.2780 C   0  0  0  0  0  0  0  0  0  0  0  0
   45.7880   33.3580   44.3120 N   0  0  0  0  0  0  0  0  0  0  0  0
   45.4830   33.6950   45.5870 C   0  0  0  0  0  0  0  0  0  0  0  0
   44.9060   34.8750   45.8930 N   0  0  0  0  0  0  0  0  0  0  0  0
   45.7990   32.7550   46.5820 N   0  0  0  0  0  0  0  0  0  0  0  0
   45.0650   32.5360   47.8090 C   0  0  0  0  0  0  0  0  0  0  0  0
   46.1490   32.1160   48.7460 C   0  0  0  0  0  0  0  0  0  0  0  0
   46.9400   31.1590   47.9010 C   0  0  1  0  0  0  0  0  0  0  0  0
   46.9280   31.8420   46.5360 C   0  0  0  0  0  0  0  0  0  0  0  0
   48.2990   31.0550   48.4320 C   0  0  0  0  0  0  0  0  0  0  0  0
   49.0740   31.9430   49.2360 C   0  0  0  0  0  0  0  0  0  0  0  0
   50.3400   31.5530   49.5690 C   0  0  0  0  0  0  0  0  0  0  0  0
   50.8190   30.3290   49.1190 C   0  0  0  0  0  0  0  0  0  0  0  0
   49.3580   29.6540   48.1350 S   0  0  0  0  0  0  0  0  0  0  0  0
   51.9950   29.6930   49.2800 O   0  0  0  0  0  0  0  0  0  0  0  0
   44.1541   36.7033   45.1425 H   0  0  0  0  0  0  0  0  0  0  0  0
   44.6865   36.1531   42.7377 H   0  0  0  0  0  0  0  0  0  0  0  0
   45.7744   33.9117   42.2466 H   0  0  0  0  0  0  0  0  0  0  0  0
   44.5750   33.4591   48.1522 H   0  0  0  0  0  0  0  0  0  0  0  0
   44.2504   31.8028   47.7147 H   0  0  0  0  0  0  0  0  0  0  0  0
   46.7622   32.9743   49.0580 H   0  0  0  0  0  0  0  0  0  0  0  0
   45.7784   31.6769   49.6840 H   0  0  0  0  0  0  0  0  0  0  0  0
   46.5412   30.1343   47.8693 H   0  0  0  0  0  0  0  0  0  0  0  0
   46.7935   31.1011   45.7342 H   0  0  0  0  0  0  0  0  0  0  0  0
   47.8733   32.3643   46.3271 H   0  0  0  0  0  0  0  0  0  0  0  0
   48.6667   32.9068   49.5754 H   0  0  0  0  0  0  0  0  0  0  0  0
   50.9753   32.2030   50.1886 H   0  0  0  0  0  0  0  0  0  0  0  0
   52.1382   28.8050   48.8665 H   0  0  0  0  0  0  0  0  0  0  0  0
  1  6  2  0
  2  1  1  0
  3  2  2  0
  3  4  1  0
  4  5  2  0
  5  6  1  0
  5  7  1  0
  7  8  1  0
  8  9  1  0
 10 12  1  0
 10  9  1  0
 11  7  1  0
 11 10  1  0
 12 13  2  0
 13 14  1  0
 15 17  1  0
 15 14  2  0
 16 12  1  0
 16 15  1  0
  1 18  1  0
  2 19  1  0
  3 20  1  0
  8 21  1  0
  8 22  1  0
  9 23  1  0
  9 24  1  0
 10 25  1  6
 11 26  1  0
 11 27  1  0
 13 28  1  0
 14 29  1  0
 17 30  1  0
M  ISO  8  18  14  19  14  20  14  21  13  22  13  23  13  24  13  25  13
M  ISO  5  26  13  27  13  28  14  29  14  30   3
M  END
>  <minimizedAffinity>  (1) 
-5.0442152

>  <minimizedRMSD>  (1) 
0.0326009914

$$$$
