
     RDKit          3D

 46 49  0  0  1  0  0  0  0  0999 V2000
   43.9350   32.6190   40.6040 C   0  0  1  0  0  0  0  0  0  0  0  0
   41.5380   32.8620   41.2720 C   0  0  0  0  0  0  0  0  0  0  0  0
   42.7300   32.1170   41.3050 C   0  0  0  0  0  0  0  0  0  0  0  0
   42.7370   30.8960   42.0080 C   0  0  0  0  0  0  0  0  0  0  0  0
   41.6160   30.4920   42.6150 N   0  0  0  0  0  0  0  0  0  0  0  0
   40.4820   31.1890   42.5910 C   0  0  0  0  0  0  0  0  0  0  0  0
   40.4590   32.3520   41.9270 N   0  0  0  0  0  0  0  0  0  0  0  0
   41.3670   34.1230   40.6470 C   0  0  0  0  0  0  0  0  0  0  0  0
   40.1890   34.1020   39.6270 C   0  0  0  0  0  0  0  0  0  0  0  0
   40.0390   35.6330   39.4070 C   0  0  0  0  0  0  0  0  0  0  0  0
   40.4210   36.2500   40.7120 C   0  0  0  0  0  0  0  0  0  0  0  0
   40.8060   35.1170   41.6410 C   0  0  0  0  0  0  0  0  0  0  0  0
   43.7300   32.7780   39.1450 C   0  0  0  0  0  0  0  0  0  0  0  0
   44.5140   33.7400   41.3650 C   0  0  0  0  0  0  0  0  0  0  0  0
   45.3540   33.1040   42.4360 N   0  0  0  0  0  0  0  0  0  0  0  0
   46.2190   32.0610   42.2680 C   0  0  0  0  0  0  0  0  0  0  0  0
   46.8240   31.7310   43.4210 N   0  0  0  0  0  0  0  0  0  0  0  0
   46.3640   32.5500   44.3490 C   0  0  0  0  0  0  0  0  0  0  0  0
   46.5790   32.7320   45.7040 C   0  0  0  0  0  0  0  0  0  0  0  0
   47.3970   31.9900   46.3200 O   0  0  0  0  0  0  0  0  0  0  0  0
   45.9290   33.6960   46.4050 N   0  0  0  0  0  0  0  0  0  0  0  0
   45.0640   34.4700   45.7240 C   0  0  0  0  0  0  0  0  0  0  0  0
   44.3710   35.4930   46.4540 N   0  0  0  0  0  0  0  0  0  0  0  0
   44.8030   34.3550   44.4090 N   0  0  0  0  0  0  0  0  0  0  0  0
   45.4620   33.3900   43.7410 C   0  0  0  0  0  0  0  0  0  0  0  0
   44.7335   31.8624   40.5968 H   0  0  0  0  0  0  0  0  0  0  0  0
   43.6502   30.2847   42.0568 H   0  0  0  0  0  0  0  0  0  0  0  0
   39.5833   30.8178   43.1054 H   0  0  0  0  0  0  0  0  0  0  0  0
   42.3494   34.3634   40.2143 H   0  0  0  0  0  0  0  0  0  0  0  0
   40.4551   33.5750   38.6988 H   0  0  0  0  0  0  0  0  0  0  0  0
   39.2808   33.5784   39.9603 H   0  0  0  0  0  0  0  0  0  0  0  0
   40.7102   35.9761   38.6059 H   0  0  0  0  0  0  0  0  0  0  0  0
   39.0186   35.9087   39.1025 H   0  0  0  0  0  0  0  0  0  0  0  0
   41.2736   36.9309   40.5729 H   0  0  0  0  0  0  0  0  0  0  0  0
   39.5875   36.8342   41.1293 H   0  0  0  0  0  0  0  0  0  0  0  0
   39.9315   34.7116   42.1711 H   0  0  0  0  0  0  0  0  0  0  0  0
   41.4994   35.4005   42.4465 H   0  0  0  0  0  0  0  0  0  0  0  0
   42.8724   33.4431   38.9656 H   0  0  0  0  0  0  0  0  0  0  0  0
   44.6331   33.2141   38.6932 H   0  0  0  0  0  0  0  0  0  0  0  0
   43.5322   31.7947   38.6932 H   0  0  0  0  0  0  0  0  0  0  0  0
   45.1359   34.3687   40.7108 H   0  0  0  0  0  0  0  0  0  0  0  0
   43.7358   34.3917   41.7888 H   0  0  0  0  0  0  0  0  0  0  0  0
   46.3981   31.5542   41.3083 H   0  0  0  0  0  0  0  0  0  0  0  0
   46.0908   33.8291   47.4135 H   0  0  0  0  0  0  0  0  0  0  0  0
   43.7004   36.1068   45.9697 H   0  0  0  0  0  0  0  0  0  0  0  0
   44.5442   35.6134   47.4622 H   0  0  0  0  0  0  0  0  0  0  0  0
  1  3  1  0
  1 14  1  0
  2  3  1  0
  2  7  2  0
  3  4  2  0
  4  5  1  0
  6  5  2  0
  7  6  1  0
  8  2  1  0
  8 12  1  0
  9  8  1  0
 10  9  1  0
 10 11  1  0
 11 12  1  0
 13  1  1  0
 14 15  1  0
 15 25  1  0
 16 15  1  0
 16 17  2  0
 17 18  1  0
 18 19  1  0
 19 20  2  0
 19 21  1  0
 22 21  1  0
 22 23  1  0
 24 22  2  0
 25 18  2  0
 25 24  1  0
  1 26  1  6
  4 27  1  0
  6 28  1  0
  8 29  1  0
  9 30  1  0
  9 31  1  0
 10 32  1  0
 10 33  1  0
 11 34  1  0
 11 35  1  0
 12 36  1  0
 12 37  1  0
 13 38  1  0
 13 39  1  0
 13 40  1  0
 14 41  1  0
 14 42  1  0
 16 43  1  0
 21 44  1  0
 23 45  1  0
 23 46  1  0
M  ISO  8  26   8  27  14  28  14  29  13  30  13  31  13  32  13  33  13
M  ISO  8  34  13  35  13  36  13  37  13  38   8  39   8  40   8  41   8
M  ISO  3  42   8  43  14  44   9
M  END
>  <minimizedAffinity>  (1) 
-6.06329918

>  <minimizedRMSD>  (1) 
6.23965788

$$$$
