
     RDKit          3D

 48 52  0  0  1  0  0  0  0  0999 V2000
   44.6740   35.2330   45.0350 C   0  0  0  0  0  0  0  0  0  0  0  0
   45.3330   35.2120   43.7830 C   0  0  0  0  0  0  0  0  0  0  0  0
   46.3510   34.2380   43.5950 C   0  0  0  0  0  0  0  0  0  0  0  0
   46.6390   33.3830   44.6240 N   0  0  0  0  0  0  0  0  0  0  0  0
   45.9680   33.4570   45.8010 C   0  0  0  0  0  0  0  0  0  0  0  0
   44.9900   34.3760   46.0110 N   0  0  0  0  0  0  0  0  0  0  0  0
   46.3380   32.5340   46.7900 N   0  0  0  0  0  0  0  0  0  0  0  0
   45.4600   31.9290   47.7650 C   0  0  0  0  0  0  0  0  0  0  0  0
   46.3900   31.7380   48.9250 C   0  0  0  0  0  0  0  0  0  0  0  0
   47.6040   31.1970   48.2730 C   0  0  1  0  0  0  0  0  0  0  0  0
   47.6890   32.0420   46.9840 C   0  0  0  0  0  0  0  0  0  0  0  0
   48.7740   31.4410   49.1230 C   0  0  0  0  0  0  0  0  0  0  0  0
   49.6580   32.5310   49.2340 C   0  0  0  0  0  0  0  0  0  0  0  0
   50.6820   32.4510   50.1330 C   0  0  0  0  0  0  0  0  0  0  0  0
   50.8080   31.3070   50.8920 C   0  0  0  0  0  0  0  0  0  0  0  0
   49.3820   30.2540   50.3090 S   0  0  0  0  0  0  0  0  0  0  0  0
   51.7680   30.9740   51.8760 N   0  0  0  0  0  0  0  0  0  0  0  0
   52.8850   30.2950   51.7610 C   0  0  0  0  0  0  0  0  0  0  0  0
   53.5130   30.1990   52.9380 N   0  0  0  0  0  0  0  0  0  0  0  0
   52.7620   30.8460   53.8350 C   0  0  0  0  0  0  0  0  0  0  0  0
   51.6640   31.3340   53.1700 N   0  0  0  0  0  0  0  0  0  0  0  0
   53.0260   31.0270   55.2900 C   0  0  0  0  0  0  0  0  0  0  0  0
   54.4150   31.6320   55.5120 C   0  0  0  0  0  0  0  0  0  0  0  0
   54.2070   33.0550   55.1100 C   0  0  0  0  0  0  0  0  0  0  0  0
   52.7800   33.3820   55.5510 C   0  0  0  0  0  0  0  0  0  0  0  0
   52.1290   32.0680   55.8810 C   0  0  0  0  0  0  0  0  0  0  0  0
   43.8804   35.9744   45.2098 H   0  0  0  0  0  0  0  0  0  0  0  0
   45.0677   35.9221   42.9859 H   0  0  0  0  0  0  0  0  0  0  0  0
   46.8962   34.1728   42.6418 H   0  0  0  0  0  0  0  0  0  0  0  0
   44.6258   32.5975   48.0243 H   0  0  0  0  0  0  0  0  0  0  0  0
   44.9763   31.0032   47.4202 H   0  0  0  0  0  0  0  0  0  0  0  0
   46.6005   32.6934   49.4279 H   0  0  0  0  0  0  0  0  0  0  0  0
   45.9843   31.0837   49.7107 H   0  0  0  0  0  0  0  0  0  0  0  0
   47.5711   30.1133   48.0873 H   0  0  0  0  0  0  0  0  0  0  0  0
   48.0045   31.4224   46.1316 H   0  0  0  0  0  0  0  0  0  0  0  0
   48.4259   32.8550   47.0615 H   0  0  0  0  0  0  0  0  0  0  0  0
   49.5264   33.4273   48.6101 H   0  0  0  0  0  0  0  0  0  0  0  0
   51.3925   33.2827   50.2496 H   0  0  0  0  0  0  0  0  0  0  0  0
   53.2560   29.8618   50.8204 H   0  0  0  0  0  0  0  0  0  0  0  0
   52.8922   30.0314   55.7383 H   0  0  0  0  0  0  0  0  0  0  0  0
   54.7194   31.5558   56.5663 H   0  0  0  0  0  0  0  0  0  0  0  0
   55.2124   31.1258   54.9481 H   0  0  0  0  0  0  0  0  0  0  0  0
   54.9293   33.7106   55.6183 H   0  0  0  0  0  0  0  0  0  0  0  0
   54.3524   33.2065   54.0302 H   0  0  0  0  0  0  0  0  0  0  0  0
   52.7950   34.0329   56.4376 H   0  0  0  0  0  0  0  0  0  0  0  0
   52.2293   33.9138   54.7611 H   0  0  0  0  0  0  0  0  0  0  0  0
   51.1255   32.0115   55.4339 H   0  0  0  0  0  0  0  0  0  0  0  0
   52.0010   31.9332   56.9652 H   0  0  0  0  0  0  0  0  0  0  0  0
  1  6  2  0
  2  1  1  0
  3  2  2  0
  3  4  1  0
  4  5  2  0
  5  6  1  0
  5  7  1  0
  7 11  1  0
  7  8  1  0
  8  9  1  0
 10  9  1  0
 10 12  1  0
 11 10  1  0
 12 13  2  0
 12 16  1  0
 13 14  1  0
 14 15  2  0
 15 17  1  0
 16 15  1  0
 17 21  1  0
 18 17  1  0
 18 19  2  0
 19 20  1  0
 20 22  1  0
 21 20  2  0
 22 23  1  0
 22 26  1  0
 24 23  1  0
 24 25  1  0
 25 26  1  0
  1 27  1  0
  2 28  1  0
  3 29  1  0
  8 30  1  0
  8 31  1  0
  9 32  1  0
  9 33  1  0
 10 34  1  6
 11 35  1  0
 11 36  1  0
 13 37  1  0
 14 38  1  0
 18 39  1  0
 22 40  1  0
 23 41  1  0
 23 42  1  0
 24 43  1  0
 24 44  1  0
 25 45  1  0
 25 46  1  0
 26 47  1  0
 26 48  1  0
M  ISO  8  27  14  28  14  29  14  30  13  31  13  32  13  33  13  34  13
M  ISO  8  35  13  36  13  37  14  38  14  39  14  40  13  41  13  42  13
M  ISO  6  43  13  44  13  45  13  46  13  47  13  48  13
M  END
>  <minimizedAffinity>  (1) 
-6.48248148

>  <minimizedRMSD>  (1) 
3.47379398

$$$$
