
     RDKit          3D

 38 41  0  0  1  0  0  0  0  0999 V2000
   44.5480   35.5110   45.1190 C   0  0  0  0  0  0  0  0  0  0  0  0
   45.1630   35.4440   43.8470 C   0  0  0  0  0  0  0  0  0  0  0  0
   46.1060   34.4100   43.6110 C   0  0  0  0  0  0  0  0  0  0  0  0
   46.3720   33.5320   44.6280 N   0  0  0  0  0  0  0  0  0  0  0  0
   45.7590   33.6360   45.8300 C   0  0  0  0  0  0  0  0  0  0  0  0
   44.8470   34.6230   46.0810 N   0  0  0  0  0  0  0  0  0  0  0  0
   46.0860   32.6990   46.8210 N   0  0  0  0  0  0  0  0  0  0  0  0
   45.2390   32.1620   47.8340 C   0  0  0  0  0  0  0  0  0  0  0  0
   46.2040   31.9280   48.9580 C   0  0  0  0  0  0  0  0  0  0  0  0
   47.3440   31.2980   48.2470 C   0  0  1  0  0  0  0  0  0  0  0  0
   47.4280   32.1200   46.9450 C   0  0  0  0  0  0  0  0  0  0  0  0
   48.5690   31.4620   49.0350 C   0  0  0  0  0  0  0  0  0  0  0  0
   49.4700   32.5320   49.1820 C   0  0  0  0  0  0  0  0  0  0  0  0
   50.5510   32.3710   50.0020 C   0  0  0  0  0  0  0  0  0  0  0  0
   50.7100   31.1630   50.6490 C   0  0  0  0  0  0  0  0  0  0  0  0
   49.2450   30.1670   50.0780 S   0  0  0  0  0  0  0  0  0  0  0  0
   51.7270   30.7540   51.5480 N   0  0  0  0  0  0  0  0  0  0  0  0
   52.6650   29.8530   51.3870 C   0  0  0  0  0  0  0  0  0  0  0  0
   53.4320   29.7530   52.4830 N   0  0  0  0  0  0  0  0  0  0  0  0
   52.9520   30.6310   53.3690 C   0  0  0  0  0  0  0  0  0  0  0  0
   51.8840   31.2590   52.7860 N   0  0  0  0  0  0  0  0  0  0  0  0
   53.3800   30.9780   54.7610 C   0  0  0  0  0  0  0  0  0  0  0  0
   54.4210   30.1860   55.1620 F   0  0  0  0  0  0  0  0  0  0  0  0
   52.3470   30.7490   55.6640 F   0  0  0  0  0  0  0  0  0  0  0  0
   53.7020   32.3210   54.8740 F   0  0  0  0  0  0  0  0  0  0  0  0
   43.8129   36.3033   45.3235 H   0  0  0  0  0  0  0  0  0  0  0  0
   44.9169   36.1739   43.0617 H   0  0  0  0  0  0  0  0  0  0  0  0
   46.6097   34.3162   42.6376 H   0  0  0  0  0  0  0  0  0  0  0  0
   44.4566   32.8795   48.1222 H   0  0  0  0  0  0  0  0  0  0  0  0
   44.6942   31.2585   47.5227 H   0  0  0  0  0  0  0  0  0  0  0  0
   46.5016   32.8736   49.4348 H   0  0  0  0  0  0  0  0  0  0  0  0
   45.7963   31.3185   49.7779 H   0  0  0  0  0  0  0  0  0  0  0  0
   47.2209   30.2188   48.0730 H   0  0  0  0  0  0  0  0  0  0  0  0
   47.6586   31.4734   46.0855 H   0  0  0  0  0  0  0  0  0  0  0  0
   48.2230   32.8799   46.9676 H   0  0  0  0  0  0  0  0  0  0  0  0
   49.3076   33.4796   48.6474 H   0  0  0  0  0  0  0  0  0  0  0  0
   51.2772   33.1852   50.1429 H   0  0  0  0  0  0  0  0  0  0  0  0
   52.8050   29.2570   50.4731 H   0  0  0  0  0  0  0  0  0  0  0  0
  1  6  2  0
  2  1  1  0
  3  2  2  0
  3  4  1  0
  4  5  2  0
  5  6  1  0
  5  7  1  0
  7 11  1  0
  7  8  1  0
  8  9  1  0
 10  9  1  0
 10 12  1  0
 11 10  1  0
 12 13  2  0
 12 16  1  0
 13 14  1  0
 14 15  2  0
 15 17  1  0
 16 15  1  0
 17 21  1  0
 18 17  1  0
 18 19  2  0
 19 20  1  0
 20 22  1  0
 21 20  2  0
 22 25  1  0
 22 23  1  0
 22 24  1  0
  1 26  1  0
  2 27  1  0
  3 28  1  0
  8 29  1  0
  8 30  1  0
  9 31  1  0
  9 32  1  0
 10 33  1  6
 11 34  1  0
 11 35  1  0
 13 36  1  0
 14 37  1  0
 18 38  1  0
M  ISO  8  26  14  27  14  28  14  29  13  30  13  31  13  32  13  33  13
M  ISO  5  34  13  35  13  36  14  37  14  38  14
M  END
>  <minimizedAffinity>  (1) 
-6.04045677

>  <minimizedRMSD>  (1) 
2.39355326

$$$$
