
     RDKit          3D

 36 39  0  0  1  0  0  0  0  0999 V2000
   44.6120   35.7550   44.9120 C   0  0  0  0  0  0  0  0  0  0  0  0
   44.9560   35.4700   43.5700 C   0  0  0  0  0  0  0  0  0  0  0  0
   45.5920   34.2300   43.2890 C   0  0  0  0  0  0  0  0  0  0  0  0
   45.8370   33.3810   44.3330 N   0  0  0  0  0  0  0  0  0  0  0  0
   45.4890   33.6980   45.5970 C   0  0  0  0  0  0  0  0  0  0  0  0
   44.8760   34.8840   45.8970 N   0  0  0  0  0  0  0  0  0  0  0  0
   45.7830   32.7590   46.6060 N   0  0  0  0  0  0  0  0  0  0  0  0
   45.0200   32.4920   47.7820 C   0  0  0  0  0  0  0  0  0  0  0  0
   46.0950   32.1200   48.7710 C   0  0  0  0  0  0  0  0  0  0  0  0
   46.9230   31.1970   47.9530 C   0  0  1  0  0  0  0  0  0  0  0  0
   46.9540   31.9040   46.5800 C   0  0  0  0  0  0  0  0  0  0  0  0
   48.2700   31.1030   48.5140 C   0  0  0  0  0  0  0  0  0  0  0  0
   49.0510   32.0390   49.2210 C   0  0  0  0  0  0  0  0  0  0  0  0
   50.3110   31.6600   49.6240 C   0  0  0  0  0  0  0  0  0  0  0  0
   50.7450   30.3890   49.3160 C   0  0  0  0  0  0  0  0  0  0  0  0
   49.2970   29.6610   48.3990 S   0  0  0  0  0  0  0  0  0  0  0  0
   51.9820   29.7510   49.6030 N   0  0  0  0  0  0  0  0  0  0  0  0
   52.3360   28.5010   49.4280 C   0  0  0  0  0  0  0  0  0  0  0  0
   53.6100   28.3170   49.8350 N   0  0  0  0  0  0  0  0  0  0  0  0
   54.0580   29.5020   50.2770 C   0  0  0  0  0  0  0  0  0  0  0  0
   53.0430   30.3990   50.1330 N   0  0  0  0  0  0  0  0  0  0  0  0
   55.7000   29.7720   50.9220 S   0  0  0  0  0  0  0  0  0  0  0  0
   44.1189   36.7085   45.1522 H   0  0  0  0  0  0  0  0  0  0  0  0
   44.7374   36.1880   42.7659 H   0  0  0  0  0  0  0  0  0  0  0  0
   45.8788   33.9611   42.2616 H   0  0  0  0  0  0  0  0  0  0  0  0
   44.4653   33.3834   48.1102 H   0  0  0  0  0  0  0  0  0  0  0  0
   44.2517   31.7164   47.6473 H   0  0  0  0  0  0  0  0  0  0  0  0
   46.6699   33.0006   49.0935 H   0  0  0  0  0  0  0  0  0  0  0  0
   45.7188   31.6832   49.7078 H   0  0  0  0  0  0  0  0  0  0  0  0
   46.5341   30.1691   47.9069 H   0  0  0  0  0  0  0  0  0  0  0  0
   46.8875   31.1728   45.7609 H   0  0  0  0  0  0  0  0  0  0  0  0
   47.8859   32.4631   46.4098 H   0  0  0  0  0  0  0  0  0  0  0  0
   48.6643   33.0443   49.4444 H   0  0  0  0  0  0  0  0  0  0  0  0
   50.9570   32.3558   50.1794 H   0  0  0  0  0  0  0  0  0  0  0  0
   51.6888   27.7158   49.0101 H   0  0  0  0  0  0  0  0  0  0  0  0
   55.6595   29.7653   52.2914 H   0  0  0  0  0  0  0  0  0  0  0  0
  1  6  2  0
  2  1  1  0
  3  2  2  0
  3  4  1  0
  4  5  2  0
  5  6  1  0
  5  7  1  0
  7  8  1  0
  8  9  1  0
 10 12  1  0
 10  9  1  0
 11  7  1  0
 11 10  1  0
 12 13  2  0
 13 14  1  0
 15 17  1  0
 15 14  2  0
 16 12  1  0
 16 15  1  0
 17 21  1  0
 18 17  1  0
 18 19  2  0
 19 20  1  0
 20 22  1  0
 21 20  2  0
  1 23  1  0
  2 24  1  0
  3 25  1  0
  8 26  1  0
  8 27  1  0
  9 28  1  0
  9 29  1  0
 10 30  1  6
 11 31  1  0
 11 32  1  0
 13 33  1  0
 14 34  1  0
 18 35  1  0
 22 36  1  0
M  ISO  8  23  14  24  14  25  14  26  13  27  13  28  13  29  13  30  13
M  ISO  6  31  13  32  13  33  14  34  14  35  14  36  11
M  END
>  <minimizedAffinity>  (1) 
-5.29040956

>  <minimizedRMSD>  (1) 
0.0187614337

$$$$
