
     RDKit          3D

 41 45  0  0  1  0  0  0  0  0999 V2000
   44.6210   35.7570   44.9090 C   0  0  0  0  0  0  0  0  0  0  0  0
   44.9630   35.4690   43.5660 C   0  0  0  0  0  0  0  0  0  0  0  0
   45.5870   34.2300   43.2880 C   0  0  0  0  0  0  0  0  0  0  0  0
   45.8270   33.3750   44.3340 N   0  0  0  0  0  0  0  0  0  0  0  0
   45.4850   33.6910   45.5940 C   0  0  0  0  0  0  0  0  0  0  0  0
   44.8810   34.8820   45.8920 N   0  0  0  0  0  0  0  0  0  0  0  0
   45.7670   32.7620   46.6090 N   0  0  0  0  0  0  0  0  0  0  0  0
   45.0130   32.4880   47.7870 C   0  0  0  0  0  0  0  0  0  0  0  0
   46.0900   32.1180   48.7700 C   0  0  0  0  0  0  0  0  0  0  0  0
   46.9190   31.1960   47.9530 C   0  0  1  0  0  0  0  0  0  0  0  0
   46.9540   31.9010   46.5770 C   0  0  0  0  0  0  0  0  0  0  0  0
   48.2670   31.1140   48.5200 C   0  0  0  0  0  0  0  0  0  0  0  0
   49.0590   32.0390   49.2280 C   0  0  0  0  0  0  0  0  0  0  0  0
   50.3090   31.6590   49.6220 C   0  0  0  0  0  0  0  0  0  0  0  0
   50.7460   30.3880   49.3100 C   0  0  0  0  0  0  0  0  0  0  0  0
   49.2950   29.6600   48.3930 S   0  0  0  0  0  0  0  0  0  0  0  0
   51.9810   29.7590   49.5950 N   0  0  0  0  0  0  0  0  0  0  0  0
   52.3320   28.5050   49.4410 C   0  0  0  0  0  0  0  0  0  0  0  0
   53.5970   28.3100   49.8370 N   0  0  0  0  0  0  0  0  0  0  0  0
   54.0610   29.4900   50.2570 C   0  0  0  0  0  0  0  0  0  0  0  0
   53.0460   30.4050   50.1060 N   0  0  0  0  0  0  0  0  0  0  0  0
   55.3990   29.7500   50.7790 C   0  0  0  0  0  0  0  0  0  0  0  0
   56.3030   30.6940   50.2250 C   0  0  0  0  0  0  0  0  0  0  0  0
   57.7940   30.4980   51.3790 S   0  0  0  0  0  0  0  0  0  0  0  0
   56.8600   29.1690   52.3650 C   0  0  0  0  0  0  0  0  0  0  0  0
   55.8060   29.0540   51.8490 N   0  0  0  0  0  0  0  0  0  0  0  0
   44.1343   36.7135   45.1504 H   0  0  0  0  0  0  0  0  0  0  0  0
   44.7497   36.1880   42.7613 H   0  0  0  0  0  0  0  0  0  0  0  0
   45.8722   33.9593   42.2607 H   0  0  0  0  0  0  0  0  0  0  0  0
   44.4559   33.3760   48.1203 H   0  0  0  0  0  0  0  0  0  0  0  0
   44.2489   31.7082   47.6526 H   0  0  0  0  0  0  0  0  0  0  0  0
   46.6640   32.9999   49.0904 H   0  0  0  0  0  0  0  0  0  0  0  0
   45.7159   31.6797   49.7070 H   0  0  0  0  0  0  0  0  0  0  0  0
   46.5315   30.1676   47.9051 H   0  0  0  0  0  0  0  0  0  0  0  0
   46.8885   31.1698   45.7578 H   0  0  0  0  0  0  0  0  0  0  0  0
   47.8859   32.4588   46.4026 H   0  0  0  0  0  0  0  0  0  0  0  0
   48.6784   33.0451   49.4581 H   0  0  0  0  0  0  0  0  0  0  0  0
   50.9563   32.3531   50.1781 H   0  0  0  0  0  0  0  0  0  0  0  0
   51.6757   27.7184   49.0403 H   0  0  0  0  0  0  0  0  0  0  0  0
   56.1732   31.3599   49.3592 H   0  0  0  0  0  0  0  0  0  0  0  0
   57.2289   28.6171   53.2421 H   0  0  0  0  0  0  0  0  0  0  0  0
  1  6  2  0
  2  1  1  0
  3  2  2  0
  3  4  1  0
  4  5  2  0
  5  6  1  0
  5  7  1  0
  7  8  1  0
  8  9  1  0
 10 12  1  0
 10  9  1  0
 11  7  1  0
 11 10  1  0
 12 13  2  0
 13 14  1  0
 15 17  1  0
 15 14  2  0
 16 12  1  0
 16 15  1  0
 17 21  1  0
 18 17  1  0
 18 19  2  0
 19 20  1  0
 20 22  1  0
 21 20  2  0
 22 26  1  0
 23 22  2  0
 23 24  1  0
 24 25  1  0
 26 25  2  0
  1 27  1  0
  2 28  1  0
  3 29  1  0
  8 30  1  0
  8 31  1  0
  9 32  1  0
  9 33  1  0
 10 34  1  6
 11 35  1  0
 11 36  1  0
 13 37  1  0
 14 38  1  0
 18 39  1  0
 23 40  1  0
 25 41  1  0
M  ISO  8  27  14  28  14  29  14  30  13  31  13  32  13  33  13  34  13
M  ISO  7  35  13  36  13  37  14  38  14  39  14  40  14  41  14
M  END
>  <minimizedAffinity>  (1) 
-5.17190218

>  <minimizedRMSD>  (1) 
0.0279293694

$$$$
