
     RDKit          3D

 38 41  0  0  1  0  0  0  0  0999 V2000
   44.6200   35.7540   44.9090 C   0  0  0  0  0  0  0  0  0  0  0  0
   44.9610   35.4700   43.5660 C   0  0  0  0  0  0  0  0  0  0  0  0
   45.5940   34.2270   43.2900 C   0  0  0  0  0  0  0  0  0  0  0  0
   45.8360   33.3820   44.3350 N   0  0  0  0  0  0  0  0  0  0  0  0
   45.4880   33.7040   45.6040 C   0  0  0  0  0  0  0  0  0  0  0  0
   44.8830   34.8840   45.8920 N   0  0  0  0  0  0  0  0  0  0  0  0
   45.7790   32.7670   46.6100 N   0  0  0  0  0  0  0  0  0  0  0  0
   45.0200   32.5040   47.7890 C   0  0  0  0  0  0  0  0  0  0  0  0
   46.0930   32.1230   48.7720 C   0  0  0  0  0  0  0  0  0  0  0  0
   46.9140   31.1930   47.9550 C   0  0  1  0  0  0  0  0  0  0  0  0
   46.9500   31.8990   46.5810 C   0  0  0  0  0  0  0  0  0  0  0  0
   48.2650   31.1060   48.5190 C   0  0  0  0  0  0  0  0  0  0  0  0
   49.0640   32.0280   49.2230 C   0  0  0  0  0  0  0  0  0  0  0  0
   50.3130   31.6390   49.6130 C   0  0  0  0  0  0  0  0  0  0  0  0
   50.7390   30.3660   49.3020 C   0  0  0  0  0  0  0  0  0  0  0  0
   49.2840   29.6450   48.3920 S   0  0  0  0  0  0  0  0  0  0  0  0
   51.9710   29.7310   49.5840 N   0  0  0  0  0  0  0  0  0  0  0  0
   52.3260   28.4800   49.4060 C   0  0  0  0  0  0  0  0  0  0  0  0
   53.5860   28.2640   49.8040 N   0  0  0  0  0  0  0  0  0  0  0  0
   54.0470   29.4490   50.2580 C   0  0  0  0  0  0  0  0  0  0  0  0
   53.0340   30.3670   50.1200 N   0  0  0  0  0  0  0  0  0  0  0  0
   55.3710   29.8640   50.8330 C   0  0  0  0  0  0  0  0  0  0  0  0
   44.1291   36.7083   45.1505 H   0  0  0  0  0  0  0  0  0  0  0  0
   44.7435   36.1875   42.7611 H   0  0  0  0  0  0  0  0  0  0  0  0
   45.8806   33.9539   42.2637 H   0  0  0  0  0  0  0  0  0  0  0  0
   44.4735   33.3992   48.1207 H   0  0  0  0  0  0  0  0  0  0  0  0
   44.2460   31.7338   47.6560 H   0  0  0  0  0  0  0  0  0  0  0  0
   46.6754   32.9992   49.0931 H   0  0  0  0  0  0  0  0  0  0  0  0
   45.7141   31.6877   49.7085 H   0  0  0  0  0  0  0  0  0  0  0  0
   46.5212   30.1665   47.9095 H   0  0  0  0  0  0  0  0  0  0  0  0
   46.8769   31.1682   45.7621 H   0  0  0  0  0  0  0  0  0  0  0  0
   47.8861   32.4503   46.4084 H   0  0  0  0  0  0  0  0  0  0  0  0
   48.6906   33.0368   49.4529 H   0  0  0  0  0  0  0  0  0  0  0  0
   50.9675   32.3292   50.1655 H   0  0  0  0  0  0  0  0  0  0  0  0
   51.6699   27.7053   48.9825 H   0  0  0  0  0  0  0  0  0  0  0  0
   55.3154   29.8466   51.9315 H   0  0  0  0  0  0  0  0  0  0  0  0
   56.1523   29.1677   50.4943 H   0  0  0  0  0  0  0  0  0  0  0  0
   55.6150   30.8817   50.4943 H   0  0  0  0  0  0  0  0  0  0  0  0
  1  6  2  0
  2  1  1  0
  3  2  2  0
  3  4  1  0
  4  5  2  0
  5  6  1  0
  5  7  1  0
  7  8  1  0
  8  9  1  0
 10 12  1  0
 10  9  1  0
 11  7  1  0
 11 10  1  0
 12 13  2  0
 13 14  1  0
 15 17  1  0
 15 14  2  0
 16 12  1  0
 16 15  1  0
 17 21  1  0
 18 17  1  0
 18 19  2  0
 19 20  1  0
 20 22  1  0
 21 20  2  0
  1 23  1  0
  2 24  1  0
  3 25  1  0
  8 26  1  0
  8 27  1  0
  9 28  1  0
  9 29  1  0
 10 30  1  6
 11 31  1  0
 11 32  1  0
 13 33  1  0
 14 34  1  0
 18 35  1  0
 22 36  1  0
 22 37  1  0
 22 38  1  0
M  ISO  8  23  14  24  14  25  14  26  13  27  13  28  13  29  13  30  13
M  ISO  8  31  13  32  13  33  14  34  14  35  14  36   8  37   8  38   8
M  END
>  <minimizedAffinity>  (1) 
-5.30493975

>  <minimizedRMSD>  (1) 
0.0181248374

$$$$
