
     RDKit          3D

 38 41  0  0  1  0  0  0  0  0999 V2000
   44.6120   35.7720   44.9050 C   0  0  0  0  0  0  0  0  0  0  0  0
   44.9550   35.4840   43.5640 C   0  0  0  0  0  0  0  0  0  0  0  0
   45.5810   34.2440   43.2830 C   0  0  0  0  0  0  0  0  0  0  0  0
   45.8190   33.3910   44.3260 N   0  0  0  0  0  0  0  0  0  0  0  0
   45.4730   33.7090   45.5900 C   0  0  0  0  0  0  0  0  0  0  0  0
   44.8680   34.8990   45.8920 N   0  0  0  0  0  0  0  0  0  0  0  0
   45.7560   32.7750   46.5960 N   0  0  0  0  0  0  0  0  0  0  0  0
   45.0000   32.4990   47.7740 C   0  0  0  0  0  0  0  0  0  0  0  0
   46.0760   32.1240   48.7610 C   0  0  0  0  0  0  0  0  0  0  0  0
   46.8960   31.1930   47.9450 C   0  0  1  0  0  0  0  0  0  0  0  0
   46.9300   31.9080   46.5760 C   0  0  0  0  0  0  0  0  0  0  0  0
   48.2460   31.1120   48.5100 C   0  0  0  0  0  0  0  0  0  0  0  0
   49.0390   32.0340   49.2200 C   0  0  0  0  0  0  0  0  0  0  0  0
   50.2910   31.6580   49.6120 C   0  0  0  0  0  0  0  0  0  0  0  0
   50.7330   30.3900   49.2980 C   0  0  0  0  0  0  0  0  0  0  0  0
   49.2740   29.6580   48.3750 S   0  0  0  0  0  0  0  0  0  0  0  0
   51.9730   29.7530   49.5790 N   0  0  0  0  0  0  0  0  0  0  0  0
   52.3320   28.5100   49.3640 C   0  0  0  0  0  0  0  0  0  0  0  0
   53.5940   28.3140   49.7940 N   0  0  0  0  0  0  0  0  0  0  0  0
   54.0310   29.4920   50.2960 C   0  0  0  0  0  0  0  0  0  0  0  0
   52.9990   30.3860   50.1510 N   0  0  0  0  0  0  0  0  0  0  0  0
   55.2860   29.9250   50.9020 C   0  0  0  0  0  0  0  0  0  0  0  0
   56.4380   29.6680   50.4660 O   0  0  0  0  0  0  0  0  0  0  0  0
   55.3120   30.6910   52.0600 O   0  0  0  0  0  0  0  0  0  0  0  0
   44.1262   36.7295   45.1440 H   0  0  0  0  0  0  0  0  0  0  0  0
   44.7416   36.2035   42.7598 H   0  0  0  0  0  0  0  0  0  0  0  0
   45.8674   33.9750   42.2556 H   0  0  0  0  0  0  0  0  0  0  0  0
   44.4438   33.3871   48.1084 H   0  0  0  0  0  0  0  0  0  0  0  0
   44.2356   31.7200   47.6362 H   0  0  0  0  0  0  0  0  0  0  0  0
   46.6572   33.0024   49.0783 H   0  0  0  0  0  0  0  0  0  0  0  0
   45.6997   31.6929   49.7004 H   0  0  0  0  0  0  0  0  0  0  0  0
   46.5076   30.1650   47.8965 H   0  0  0  0  0  0  0  0  0  0  0  0
   46.8636   31.1802   45.7539 H   0  0  0  0  0  0  0  0  0  0  0  0
   47.8638   32.4667   46.4154 H   0  0  0  0  0  0  0  0  0  0  0  0
   48.6565   33.0384   49.4543 H   0  0  0  0  0  0  0  0  0  0  0  0
   50.9360   32.3539   50.1685 H   0  0  0  0  0  0  0  0  0  0  0  0
   51.6965   27.7408   48.9009 H   0  0  0  0  0  0  0  0  0  0  0  0
   56.1783   30.9706   52.4492 H   0  0  0  0  0  0  0  0  0  0  0  0
  1  6  2  0
  2  1  1  0
  3  2  2  0
  3  4  1  0
  4  5  2  0
  5  6  1  0
  5  7  1  0
  7  8  1  0
  8  9  1  0
 10 12  1  0
 10  9  1  0
 11  7  1  0
 11 10  1  0
 12 13  2  0
 13 14  1  0
 15 17  1  0
 15 14  2  0
 16 12  1  0
 16 15  1  0
 17 21  1  0
 18 17  1  0
 18 19  2  0
 19 20  1  0
 20 22  1  0
 21 20  2  0
 22 24  1  0
 23 22  2  0
  1 25  1  0
  2 26  1  0
  3 27  1  0
  8 28  1  0
  8 29  1  0
  9 30  1  0
  9 31  1  0
 10 32  1  6
 11 33  1  0
 11 34  1  0
 13 35  1  0
 14 36  1  0
 18 37  1  0
 24 38  1  0
M  ISO  8  25  14  26  14  27  14  28  13  29  13  30  13  31  13  32  13
M  ISO  6  33  13  34  13  35  14  36  14  37  14  38   3
M  END
>  <minimizedAffinity>  (1) 
-5.12627506

>  <minimizedRMSD>  (1) 
0.0494426601

$$$$
