
     RDKit          3D

 34 38  0  0  0  0  0  0  0  0999 V2000
   44.5950   35.9810   44.4710 C   0  0  0  0  0  0  0  0  0  0  0  0
   45.3930   35.9320   43.2970 C   0  0  0  0  0  0  0  0  0  0  0  0
   46.3010   34.8940   43.1750 C   0  0  0  0  0  0  0  0  0  0  0  0
   46.3850   33.9720   44.1820 N   0  0  0  0  0  0  0  0  0  0  0  0
   45.6080   34.0490   45.2880 C   0  0  0  0  0  0  0  0  0  0  0  0
   44.7170   35.0500   45.4320 N   0  0  0  0  0  0  0  0  0  0  0  0
   45.7380   33.0620   46.3060 N   0  0  0  0  0  0  0  0  0  0  0  0
   45.1420   33.0860   47.5120 C   0  0  0  0  0  0  0  0  0  0  0  0
   45.4930   31.9790   48.2270 N   0  0  0  0  0  0  0  0  0  0  0  0
   46.3280   31.2680   47.4220 C   0  0  0  0  0  0  0  0  0  0  0  0
   47.0190   30.0840   47.5320 C   0  0  0  0  0  0  0  0  0  0  0  0
   47.7910   29.6290   46.5230 N   0  0  0  0  0  0  0  0  0  0  0  0
   47.9050   30.3360   45.3640 C   0  0  0  0  0  0  0  0  0  0  0  0
   47.2480   31.5030   45.2040 N   0  0  0  0  0  0  0  0  0  0  0  0
   46.4810   31.9430   46.2250 C   0  0  0  0  0  0  0  0  0  0  0  0
   47.0860   34.8640   41.9970 N   0  0  0  0  0  0  0  0  0  0  0  0
   48.2890   35.4980   41.9190 C   0  0  0  0  0  0  0  0  0  0  0  0
   48.7860   35.2840   40.6790 N   0  0  0  0  0  0  0  0  0  0  0  0
   47.9140   34.5280   39.9820 C   0  0  0  0  0  0  0  0  0  0  0  0
   47.9670   34.0480   38.6970 C   0  0  0  0  0  0  0  0  0  0  0  0
   46.9130   33.3070   38.2980 N   0  0  0  0  0  0  0  0  0  0  0  0
   45.8540   33.0410   39.1090 C   0  0  0  0  0  0  0  0  0  0  0  0
   45.8270   33.5320   40.3870 N   0  0  0  0  0  0  0  0  0  0  0  0
   46.8440   34.2660   40.8170 C   0  0  0  0  0  0  0  0  0  0  0  0
   49.0570   34.3120   37.8290 N   0  0  0  0  0  0  0  0  0  0  0  0
   43.8651   36.7945   44.5954 H   0  0  0  0  0  0  0  0  0  0  0  0
   45.2928   36.6941   42.5102 H   0  0  0  0  0  0  0  0  0  0  0  0
   44.4707   33.8811   47.8686 H   0  0  0  0  0  0  0  0  0  0  0  0
   46.9410   29.4973   48.4592 H   0  0  0  0  0  0  0  0  0  0  0  0
   48.5387   29.9515   44.5512 H   0  0  0  0  0  0  0  0  0  0  0  0
   48.7697   36.0792   42.7197 H   0  0  0  0  0  0  0  0  0  0  0  0
   45.0178   32.4304   38.7376 H   0  0  0  0  0  0  0  0  0  0  0  0
   49.0567   33.9321   36.8716 H   0  0  0  0  0  0  0  0  0  0  0  0
   49.8490   34.8836   38.1560 H   0  0  0  0  0  0  0  0  0  0  0  0
  1  6  2  0
  2  1  1  0
  3  2  2  0
  3  4  1  0
  4  5  2  0
  5  6  1  0
  5  7  1  0
  7  8  1  0
  8  9  2  0
 10 11  2  0
 10  9  1  0
 12 11  1  0
 13 12  2  0
 14 13  1  0
 14 15  2  0
 15  7  1  0
 15 10  1  0
 16  3  1  0
 17 16  1  0
 18 17  2  0
 19 18  1  0
 19 24  2  0
 20 19  1  0
 21 20  2  0
 21 22  1  0
 22 23  2  0
 23 24  1  0
 24 16  1  0
 25 20  1  0
  1 26  1  0
  2 27  1  0
  8 28  1  0
 11 29  1  0
 13 30  1  0
 17 31  1  0
 22 32  1  0
 25 33  1  0
 25 34  1  0
M  ISO  7  26  14  27  14  28  14  29  14  30  14  31  14  32  14
M  END
>  <minimizedAffinity>  (1) 
-7.38377333

>  <minimizedRMSD>  (1) 
0.168827131

$$$$
