
     RDKit          3D

 35 38  0  0  0  0  0  0  0  0999 V2000
   47.1200   34.8610   41.9380 N   0  0  0  0  0  0  0  0  0  0  0  0
   48.3160   35.5180   41.8510 C   0  0  0  0  0  0  0  0  0  0  0  0
   48.8150   35.3210   40.6050 N   0  0  0  0  0  0  0  0  0  0  0  0
   47.9600   34.5600   39.9170 C   0  0  0  0  0  0  0  0  0  0  0  0
   48.0030   34.0790   38.6180 C   0  0  0  0  0  0  0  0  0  0  0  0
   46.9470   33.3140   38.2180 N   0  0  0  0  0  0  0  0  0  0  0  0
   45.9200   33.0390   39.0360 C   0  0  0  0  0  0  0  0  0  0  0  0
   45.8980   33.5220   40.3120 N   0  0  0  0  0  0  0  0  0  0  0  0
   46.9080   34.2750   40.7480 C   0  0  0  0  0  0  0  0  0  0  0  0
   49.0980   34.3830   37.7620 N   0  0  0  0  0  0  0  0  0  0  0  0
   44.5240   35.8540   44.3430 C   0  0  0  0  0  0  0  0  0  0  0  0
   45.3270   35.8230   43.1690 C   0  0  0  0  0  0  0  0  0  0  0  0
   46.3420   34.8680   43.1100 C   0  0  0  0  0  0  0  0  0  0  0  0
   46.4940   34.0390   44.1690 N   0  0  0  0  0  0  0  0  0  0  0  0
   45.7350   34.0750   45.2690 C   0  0  0  0  0  0  0  0  0  0  0  0
   44.7370   34.9940   45.3570 N   0  0  0  0  0  0  0  0  0  0  0  0
   45.9380   33.1780   46.3550 N   0  0  0  0  0  0  0  0  0  0  0  0
   45.1730   33.1300   47.5940 C   0  0  0  0  0  0  0  0  0  0  0  0
   45.7340   31.9680   48.3470 C   0  0  0  0  0  0  0  0  0  0  0  0
   47.1470   31.7590   47.8260 C   0  0  0  0  0  0  0  0  0  0  0  0
   46.9790   32.1480   46.3740 C   0  0  0  0  0  0  0  0  0  0  0  0
   48.7907   36.1041   42.6517 H   0  0  0  0  0  0  0  0  0  0  0  0
   45.0872   32.4179   38.6745 H   0  0  0  0  0  0  0  0  0  0  0  0
   49.1156   34.0181   36.7990 H   0  0  0  0  0  0  0  0  0  0  0  0
   49.8731   34.9680   38.1053 H   0  0  0  0  0  0  0  0  0  0  0  0
   43.7143   36.5941   44.4239 H   0  0  0  0  0  0  0  0  0  0  0  0
   45.1541   36.5250   42.3399 H   0  0  0  0  0  0  0  0  0  0  0  0
   45.3031   34.0608   48.1655 H   0  0  0  0  0  0  0  0  0  0  0  0
   44.0937   33.0226   47.4105 H   0  0  0  0  0  0  0  0  0  0  0  0
   45.7547   32.1875   49.4247 H   0  0  0  0  0  0  0  0  0  0  0  0
   45.1196   31.0668   48.2043 H   0  0  0  0  0  0  0  0  0  0  0  0
   47.8676   32.4131   48.3388 H   0  0  0  0  0  0  0  0  0  0  0  0
   47.5423   30.7442   47.9810 H   0  0  0  0  0  0  0  0  0  0  0  0
   46.6677   31.2776   45.7778 H   0  0  0  0  0  0  0  0  0  0  0  0
   47.9211   32.5164   45.9418 H   0  0  0  0  0  0  0  0  0  0  0  0
  1 13  1  0
  2  1  1  0
  3  2  2  0
  4  3  1  0
  4  9  2  0
  5  4  1  0
  6  5  2  0
  6  7  1  0
  7  8  2  0
  8  9  1  0
  9  1  1  0
 10  5  1  0
 11 16  2  0
 12 11  1  0
 13 12  2  0
 13 14  1  0
 14 15  2  0
 15 16  1  0
 15 17  1  0
 17 21  1  0
 17 18  1  0
 18 19  1  0
 20 19  1  0
 21 20  1  0
  2 22  1  0
  7 23  1  0
 10 24  1  0
 10 25  1  0
 11 26  1  0
 12 27  1  0
 18 28  1  0
 18 29  1  0
 19 30  1  0
 19 31  1  0
 20 32  1  0
 20 33  1  0
 21 34  1  0
 21 35  1  0
M  ISO  8  22  14  23  14  26  14  27  14  28  13  29  13  30  13  31  13
M  ISO  4  32  13  33  13  34  13  35  13
M  END
>  <minimizedAffinity>  (1) 
-6.94513464

>  <minimizedRMSD>  (1) 
0.149122939

$$$$
