
     RDKit          3D

 29 32  0  0  0  0  0  0  0  0999 V2000
   47.1210   34.8760   41.9690 N   0  0  0  0  0  0  0  0  0  0  0  0
   48.3090   35.5080   41.8820 C   0  0  0  0  0  0  0  0  0  0  0  0
   48.8060   35.2950   40.6350 N   0  0  0  0  0  0  0  0  0  0  0  0
   47.9460   34.5430   39.9470 C   0  0  0  0  0  0  0  0  0  0  0  0
   47.9890   34.0560   38.6490 C   0  0  0  0  0  0  0  0  0  0  0  0
   46.9260   33.3040   38.2550 N   0  0  0  0  0  0  0  0  0  0  0  0
   45.8880   33.0440   39.0740 C   0  0  0  0  0  0  0  0  0  0  0  0
   45.8590   33.5320   40.3510 N   0  0  0  0  0  0  0  0  0  0  0  0
   46.8790   34.2750   40.7860 C   0  0  0  0  0  0  0  0  0  0  0  0
   49.0890   34.3350   37.7930 N   0  0  0  0  0  0  0  0  0  0  0  0
   44.5290   35.9020   44.3690 C   0  0  0  0  0  0  0  0  0  0  0  0
   45.3240   35.8780   43.1970 C   0  0  0  0  0  0  0  0  0  0  0  0
   46.3270   34.8950   43.1450 C   0  0  0  0  0  0  0  0  0  0  0  0
   46.4700   34.0500   44.1940 N   0  0  0  0  0  0  0  0  0  0  0  0
   45.6920   34.1060   45.2910 C   0  0  0  0  0  0  0  0  0  0  0  0
   44.7190   35.0240   45.3940 N   0  0  0  0  0  0  0  0  0  0  0  0
   46.0200   33.1220   46.2660 N   0  0  0  0  0  0  0  0  0  0  0  0
   46.9490   32.1690   46.4580 C   0  0  0  0  0  0  0  0  0  0  0  0
   46.6940   31.5560   47.6300 N   0  0  0  0  0  0  0  0  0  0  0  0
   45.5930   32.1350   48.1740 C   0  0  0  0  0  0  0  0  0  0  0  0
   45.1980   33.0990   47.3090 N   0  0  0  0  0  0  0  0  0  0  0  0
   48.7908   36.0927   42.6795 H   0  0  0  0  0  0  0  0  0  0  0  0
   45.0513   32.4298   38.7097 H   0  0  0  0  0  0  0  0  0  0  0  0
   49.1012   33.9636   36.8324 H   0  0  0  0  0  0  0  0  0  0  0  0
   49.8739   34.9086   38.1334 H   0  0  0  0  0  0  0  0  0  0  0  0
   43.7314   36.6546   44.4548 H   0  0  0  0  0  0  0  0  0  0  0  0
   45.1651   36.5894   42.3732 H   0  0  0  0  0  0  0  0  0  0  0  0
   47.7768   31.9305   45.7740 H   0  0  0  0  0  0  0  0  0  0  0  0
   45.1157   31.8726   49.1297 H   0  0  0  0  0  0  0  0  0  0  0  0
  1 13  1  0
  2  1  1  0
  3  2  2  0
  4  3  1  0
  4  9  2  0
  5  4  1  0
  6  5  2  0
  6  7  1  0
  7  8  2  0
  8  9  1  0
  9  1  1  0
 10  5  1  0
 11 16  2  0
 12 11  1  0
 13 12  2  0
 13 14  1  0
 14 15  2  0
 15 16  1  0
 15 17  1  0
 17 18  1  0
 17 21  1  0
 18 19  2  0
 19 20  1  0
 21 20  2  0
  2 22  1  0
  7 23  1  0
 10 24  1  0
 10 25  1  0
 11 26  1  0
 12 27  1  0
 18 28  1  0
 20 29  1  0
M  ISO  6  22  14  23  14  26  14  27  14  28  14  29  14
M  END
>  <minimizedAffinity>  (1) 
-6.81934738

>  <minimizedRMSD>  (1) 
0.125630707

$$$$
