
     RDKit          3D

 30 33  0  0  0  0  0  0  0  0999 V2000
   44.5190   35.9510   44.3650 C   0  0  0  0  0  0  0  0  0  0  0  0
   45.3210   35.9050   43.2040 C   0  0  0  0  0  0  0  0  0  0  0  0
   46.2920   34.9190   43.1430 C   0  0  0  0  0  0  0  0  0  0  0  0
   46.4310   34.0470   44.1860 N   0  0  0  0  0  0  0  0  0  0  0  0
   45.6460   34.1170   45.2860 C   0  0  0  0  0  0  0  0  0  0  0  0
   44.6860   35.0700   45.3810 N   0  0  0  0  0  0  0  0  0  0  0  0
   45.8830   33.1560   46.3090 N   0  0  0  0  0  0  0  0  0  0  0  0
   45.3560   32.8400   47.4810 N   0  0  0  0  0  0  0  0  0  0  0  0
   46.0260   31.8030   48.0140 C   0  0  0  0  0  0  0  0  0  0  0  0
   47.0290   31.4460   47.1300 C   0  0  0  0  0  0  0  0  0  0  0  0
   46.9240   32.3130   46.0580 C   0  0  0  0  0  0  0  0  0  0  0  0
   47.0930   34.8810   41.9680 N   0  0  0  0  0  0  0  0  0  0  0  0
   48.2950   35.4990   41.8920 C   0  0  0  0  0  0  0  0  0  0  0  0
   48.7930   35.2680   40.6410 N   0  0  0  0  0  0  0  0  0  0  0  0
   47.9310   34.5290   39.9550 C   0  0  0  0  0  0  0  0  0  0  0  0
   47.9790   34.0400   38.6690 C   0  0  0  0  0  0  0  0  0  0  0  0
   46.9080   33.2990   38.2650 N   0  0  0  0  0  0  0  0  0  0  0  0
   45.8570   33.0550   39.0730 C   0  0  0  0  0  0  0  0  0  0  0  0
   45.8270   33.5470   40.3440 N   0  0  0  0  0  0  0  0  0  0  0  0
   46.8570   34.2790   40.7790 C   0  0  0  0  0  0  0  0  0  0  0  0
   49.0940   34.2970   37.8090 N   0  0  0  0  0  0  0  0  0  0  0  0
   43.7385   36.7218   44.4469 H   0  0  0  0  0  0  0  0  0  0  0  0
   45.1806   36.6224   42.3820 H   0  0  0  0  0  0  0  0  0  0  0  0
   45.8143   31.3236   48.9811 H   0  0  0  0  0  0  0  0  0  0  0  0
   47.7622   30.6356   47.2550 H   0  0  0  0  0  0  0  0  0  0  0  0
   47.5649   32.3209   45.1641 H   0  0  0  0  0  0  0  0  0  0  0  0
   48.7809   36.0797   42.6899 H   0  0  0  0  0  0  0  0  0  0  0  0
   45.0145   32.4524   38.7028 H   0  0  0  0  0  0  0  0  0  0  0  0
   49.1035   33.9186   36.8511 H   0  0  0  0  0  0  0  0  0  0  0  0
   49.8868   34.8603   38.1481 H   0  0  0  0  0  0  0  0  0  0  0  0
  1  6  2  0
  2  1  1  0
  3  2  2  0
  3  4  1  0
  4  5  2  0
  5  6  1  0
  5  7  1  0
  7  8  1  0
  8  9  2  0
 10  9  1  0
 11  7  1  0
 11 10  2  0
 12  3  1  0
 13 12  1  0
 14 13  2  0
 15 14  1  0
 15 20  2  0
 16 15  1  0
 17 16  2  0
 17 18  1  0
 18 19  2  0
 19 20  1  0
 20 12  1  0
 21 16  1  0
  1 22  1  0
  2 23  1  0
  9 24  1  0
 10 25  1  0
 11 26  1  0
 13 27  1  0
 18 28  1  0
 21 29  1  0
 21 30  1  0
M  ISO  7  22  14  23  14  24  14  25  14  26  14  27  14  28  14
M  END
>  <minimizedAffinity>  (1) 
-6.84314013

>  <minimizedRMSD>  (1) 
0.129461706

$$$$
