
     RDKit          3D

 36 39  0  0  0  0  0  0  0  0999 V2000
   47.2320   34.8520   41.9560 N   0  0  0  0  0  0  0  0  0  0  0  0
   48.3820   35.5790   41.8610 C   0  0  0  0  0  0  0  0  0  0  0  0
   48.8550   35.4580   40.6000 N   0  0  0  0  0  0  0  0  0  0  0  0
   48.0260   34.6710   39.9060 C   0  0  0  0  0  0  0  0  0  0  0  0
   48.0630   34.2420   38.5850 C   0  0  0  0  0  0  0  0  0  0  0  0
   47.0520   33.4350   38.1840 N   0  0  0  0  0  0  0  0  0  0  0  0
   46.0560   33.0620   39.0140 C   0  0  0  0  0  0  0  0  0  0  0  0
   46.0320   33.4930   40.3130 N   0  0  0  0  0  0  0  0  0  0  0  0
   47.0020   34.2840   40.7480 C   0  0  0  0  0  0  0  0  0  0  0  0
   49.1250   34.6420   37.7090 N   0  0  0  0  0  0  0  0  0  0  0  0
   44.6400   35.5960   44.4600 C   0  0  0  0  0  0  0  0  0  0  0  0
   45.4180   35.6510   43.2690 C   0  0  0  0  0  0  0  0  0  0  0  0
   46.4850   34.7680   43.1470 C   0  0  0  0  0  0  0  0  0  0  0  0
   46.7340   33.8960   44.1670 N   0  0  0  0  0  0  0  0  0  0  0  0
   45.9830   33.8660   45.2760 C   0  0  0  0  0  0  0  0  0  0  0  0
   44.9370   34.7060   45.4360 N   0  0  0  0  0  0  0  0  0  0  0  0
   46.2700   32.9080   46.3760 C   0  0  0  0  0  0  0  0  0  0  0  0
   45.2490   32.9630   47.4870 C   0  0  0  0  0  0  0  0  0  0  0  0
   45.4550   31.6330   48.1760 C   0  0  0  0  0  0  0  0  0  0  0  0
   45.6230   30.6800   47.0360 C   0  0  0  0  0  0  0  0  0  0  0  0
   46.0790   31.4960   45.8710 C   0  0  0  0  0  0  0  0  0  0  0  0
   48.8448   36.1629   42.6703 H   0  0  0  0  0  0  0  0  0  0  0  0
   45.2554   32.4051   38.6433 H   0  0  0  0  0  0  0  0  0  0  0  0
   49.1377   34.3151   36.7323 H   0  0  0  0  0  0  0  0  0  0  0  0
   49.8753   35.2562   38.0563 H   0  0  0  0  0  0  0  0  0  0  0  0
   43.7902   36.2826   44.5883 H   0  0  0  0  0  0  0  0  0  0  0  0
   45.1823   36.3696   42.4702 H   0  0  0  0  0  0  0  0  0  0  0  0
   47.2826   33.1655   46.7199 H   0  0  0  0  0  0  0  0  0  0  0  0
   45.4482   33.8014   48.1706 H   0  0  0  0  0  0  0  0  0  0  0  0
   44.2197   33.1224   47.1333 H   0  0  0  0  0  0  0  0  0  0  0  0
   46.3538   31.6522   48.8098 H   0  0  0  0  0  0  0  0  0  0  0  0
   44.6263   31.3616   48.8466 H   0  0  0  0  0  0  0  0  0  0  0  0
   46.3757   29.9175   47.2848 H   0  0  0  0  0  0  0  0  0  0  0  0
   44.6829   30.1545   46.8124 H   0  0  0  0  0  0  0  0  0  0  0  0
   45.3197   31.4777   45.0753 H   0  0  0  0  0  0  0  0  0  0  0  0
   47.0139   31.0968   45.4508 H   0  0  0  0  0  0  0  0  0  0  0  0
  1 13  1  0
  2  1  1  0
  3  2  2  0
  4  3  1  0
  4  9  2  0
  5  4  1  0
  6  5  2  0
  6  7  1  0
  7  8  2  0
  8  9  1  0
  9  1  1  0
 10  5  1  0
 11 16  2  0
 12 11  1  0
 13 12  2  0
 13 14  1  0
 14 15  2  0
 15 16  1  0
 15 17  1  0
 17 18  1  0
 18 19  1  0
 20 19  1  0
 21 17  1  0
 21 20  1  0
  2 22  1  0
  7 23  1  0
 10 24  1  0
 10 25  1  0
 11 26  1  0
 12 27  1  0
 17 28  1  0
 18 29  1  0
 18 30  1  0
 19 31  1  0
 19 32  1  0
 20 33  1  0
 20 34  1  0
 21 35  1  0
 21 36  1  0
M  ISO  8  22  14  23  14  26  14  27  14  28  13  29  13  30  13  31  13
M  ISO  5  32  13  33  13  34  13  35  13  36  13
M  END
>  <minimizedAffinity>  (1) 
-6.631145

>  <minimizedRMSD>  (1) 
0.51639688

$$$$
