
     RDKit          3D

 36 39  0  0  0  0  0  0  0  0999 V2000
   44.8690   35.0370   44.5060 C   0  0  0  0  0  0  0  0  0  0  0  0
   45.5750   35.2020   43.2850 C   0  0  0  0  0  0  0  0  0  0  0  0
   46.7280   34.4630   43.0680 C   0  0  0  0  0  0  0  0  0  0  0  0
   47.1450   33.5980   44.0450 N   0  0  0  0  0  0  0  0  0  0  0  0
   46.4630   33.4590   45.1920 C   0  0  0  0  0  0  0  0  0  0  0  0
   45.3310   34.1620   45.4450 N   0  0  0  0  0  0  0  0  0  0  0  0
   47.3890   34.6680   41.8340 N   0  0  0  0  0  0  0  0  0  0  0  0
   48.4270   35.5320   41.7040 C   0  0  0  0  0  0  0  0  0  0  0  0
   48.8350   35.4990   40.4100 N   0  0  0  0  0  0  0  0  0  0  0  0
   48.0750   34.6340   39.7360 C   0  0  0  0  0  0  0  0  0  0  0  0
   48.0810   34.2410   38.4140 C   0  0  0  0  0  0  0  0  0  0  0  0
   47.1590   33.3270   38.0470 N   0  0  0  0  0  0  0  0  0  0  0  0
   46.2620   32.8110   38.9280 C   0  0  0  0  0  0  0  0  0  0  0  0
   46.2680   33.2080   40.2270 N   0  0  0  0  0  0  0  0  0  0  0  0
   47.1550   34.1040   40.6340 C   0  0  0  0  0  0  0  0  0  0  0  0
   49.0180   34.7790   37.4860 N   0  0  0  0  0  0  0  0  0  0  0  0
   48.0010   30.5980   47.9110 C   0  0  0  0  0  0  0  0  0  0  0  0
   47.5920   31.8360   48.4050 C   0  0  0  0  0  0  0  0  0  0  0  0
   47.0870   32.7760   47.5140 C   0  0  0  0  0  0  0  0  0  0  0  0
   46.9840   32.5130   46.1750 C   0  0  0  0  0  0  0  0  0  0  0  0
   47.3990   31.2760   45.7250 C   0  0  0  0  0  0  0  0  0  0  0  0
   47.9170   30.2830   46.5610 C   0  0  0  0  0  0  0  0  0  0  0  0
   48.6510   29.3520   48.9660 S   0  0  0  0  0  0  0  0  0  0  0  0
   49.4360   29.9260   50.0870 O   0  0  0  0  0  0  0  0  0  0  0  0
   49.4130   28.3890   48.1230 O   0  0  0  0  0  0  0  0  0  0  0  0
   43.9514   35.6136   44.6943 H   0  0  0  0  0  0  0  0  0  0  0  0
   45.2122   35.9063   42.5219 H   0  0  0  0  0  0  0  0  0  0  0  0
   48.8606   36.1492   42.5047 H   0  0  0  0  0  0  0  0  0  0  0  0
   45.5267   32.0673   38.5870 H   0  0  0  0  0  0  0  0  0  0  0  0
   49.0043   34.4710   36.5032 H   0  0  0  0  0  0  0  0  0  0  0  0
   49.7093   35.4760   37.7977 H   0  0  0  0  0  0  0  0  0  0  0  0
   47.6674   32.0644   49.4784 H   0  0  0  0  0  0  0  0  0  0  0  0
   46.7621   33.7555   47.8947 H   0  0  0  0  0  0  0  0  0  0  0  0
   47.3176   31.0598   44.6495 H   0  0  0  0  0  0  0  0  0  0  0  0
   48.2402   29.3064   46.1714 H   0  0  0  0  0  0  0  0  0  0  0  0
   47.6367   28.6724   49.5875 H   0  0  0  0  0  0  0  0  0  0  0  0
  1  6  2  0
  2  1  1  0
  3  2  2  0
  3  4  1  0
  4  5  2  0
  5  6  1  0
  5 20  1  0
  7  3  1  0
  8  7  1  0
  9  8  2  0
 10  9  1  0
 10 15  2  0
 11 10  1  0
 12 11  2  0
 12 13  1  0
 13 14  2  0
 14 15  1  0
 15  7  1  0
 16 11  1  0
 17 18  2  0
 17 23  1  0
 19 18  1  0
 20 19  2  0
 21 20  1  0
 21 22  2  0
 22 17  1  0
 23 24  2  0
 25 23  2  0
  1 26  1  0
  2 27  1  0
  8 28  1  0
 13 29  1  0
 16 30  1  0
 16 31  1  0
 18 32  1  0
 19 33  1  0
 21 34  1  0
 22 35  1  0
 23 36  1  0
M  ISO  8  26  14  27  14  28  14  29  14  32  14  33  14  34  14  35  14
M  ISO  1  36  11
M  END
>  <minimizedAffinity>  (1) 
-6.11927271

>  <minimizedRMSD>  (1) 
1.25111794

$$$$
