
     RDKit          3D

 29 32  0  0  0  0  0  0  0  0999 V2000
   47.1160   34.8670   41.9710 N   0  0  0  0  0  0  0  0  0  0  0  0
   48.3040   35.5060   41.8810 C   0  0  0  0  0  0  0  0  0  0  0  0
   48.8010   35.3040   40.6400 N   0  0  0  0  0  0  0  0  0  0  0  0
   47.9440   34.5470   39.9490 C   0  0  0  0  0  0  0  0  0  0  0  0
   47.9910   34.0680   38.6560 C   0  0  0  0  0  0  0  0  0  0  0  0
   46.9330   33.3110   38.2540 N   0  0  0  0  0  0  0  0  0  0  0  0
   45.8900   33.0370   39.0690 C   0  0  0  0  0  0  0  0  0  0  0  0
   45.8640   33.5200   40.3450 N   0  0  0  0  0  0  0  0  0  0  0  0
   46.8850   34.2700   40.7810 C   0  0  0  0  0  0  0  0  0  0  0  0
   49.0880   34.3550   37.7960 N   0  0  0  0  0  0  0  0  0  0  0  0
   44.5560   35.9090   44.4060 C   0  0  0  0  0  0  0  0  0  0  0  0
   45.3610   35.8800   43.2320 C   0  0  0  0  0  0  0  0  0  0  0  0
   46.3260   34.8780   43.1470 C   0  0  0  0  0  0  0  0  0  0  0  0
   46.4400   34.0040   44.1730 N   0  0  0  0  0  0  0  0  0  0  0  0
   45.6660   34.0590   45.2650 C   0  0  0  0  0  0  0  0  0  0  0  0
   44.7160   35.0090   45.3980 N   0  0  0  0  0  0  0  0  0  0  0  0
   45.9610   33.0050   46.2630 C   0  0  0  0  0  0  0  0  0  0  0  0
   46.9860   31.9670   46.0610 C   0  0  0  0  0  0  0  0  0  0  0  0
   46.8170   31.0490   47.6200 S   0  0  0  0  0  0  0  0  0  0  0  0
   45.4310   32.1870   48.2660 C   0  0  0  0  0  0  0  0  0  0  0  0
   45.2440   33.0420   47.3690 N   0  0  0  0  0  0  0  0  0  0  0  0
   48.7838   36.0900   42.6802 H   0  0  0  0  0  0  0  0  0  0  0  0
   45.0566   32.4205   38.7012 H   0  0  0  0  0  0  0  0  0  0  0  0
   49.0992   33.9854   36.8347 H   0  0  0  0  0  0  0  0  0  0  0  0
   49.8708   34.9323   38.1349 H   0  0  0  0  0  0  0  0  0  0  0  0
   43.7835   36.6855   44.5067 H   0  0  0  0  0  0  0  0  0  0  0  0
   45.2270   36.6170   42.4264 H   0  0  0  0  0  0  0  0  0  0  0  0
   47.6611   31.7962   45.2095 H   0  0  0  0  0  0  0  0  0  0  0  0
   44.9037   32.1093   49.2283 H   0  0  0  0  0  0  0  0  0  0  0  0
  1 13  1  0
  2  1  1  0
  3  2  2  0
  4  3  1  0
  4  9  2  0
  5  4  1  0
  6  5  2  0
  6  7  1  0
  7  8  2  0
  8  9  1  0
  9  1  1  0
 10  5  1  0
 11 16  2  0
 12 11  1  0
 13 12  2  0
 13 14  1  0
 14 15  2  0
 15 16  1  0
 15 17  1  0
 17 21  1  0
 18 17  2  0
 18 19  1  0
 19 20  1  0
 21 20  2  0
  2 22  1  0
  7 23  1  0
 10 24  1  0
 10 25  1  0
 11 26  1  0
 12 27  1  0
 18 28  1  0
 20 29  1  0
M  ISO  6  22  14  23  14  26  14  27  14  28  14  29  14
M  END
>  <minimizedAffinity>  (1) 
-6.50072432

>  <minimizedRMSD>  (1) 
0.421649426

$$$$
