
     RDKit          3D

 26 28  0  0  0  0  0  0  0  0999 V2000
   47.1640   34.8780   41.9270 N   0  0  0  0  0  0  0  0  0  0  0  0
   48.3340   35.5330   41.8340 C   0  0  0  0  0  0  0  0  0  0  0  0
   48.8250   35.3390   40.5780 N   0  0  0  0  0  0  0  0  0  0  0  0
   47.9760   34.5740   39.8960 C   0  0  0  0  0  0  0  0  0  0  0  0
   48.0200   34.0980   38.5980 C   0  0  0  0  0  0  0  0  0  0  0  0
   46.9820   33.3300   38.2000 N   0  0  0  0  0  0  0  0  0  0  0  0
   45.9450   33.0380   39.0320 C   0  0  0  0  0  0  0  0  0  0  0  0
   45.9150   33.5110   40.3020 N   0  0  0  0  0  0  0  0  0  0  0  0
   46.9290   34.2790   40.7350 C   0  0  0  0  0  0  0  0  0  0  0  0
   49.0970   34.3980   37.7240 N   0  0  0  0  0  0  0  0  0  0  0  0
   44.5660   35.8700   44.3560 C   0  0  0  0  0  0  0  0  0  0  0  0
   45.3830   35.8540   43.1830 C   0  0  0  0  0  0  0  0  0  0  0  0
   46.3810   34.8690   43.1000 C   0  0  0  0  0  0  0  0  0  0  0  0
   46.5120   33.9920   44.1320 N   0  0  0  0  0  0  0  0  0  0  0  0
   45.7280   34.0400   45.2110 C   0  0  0  0  0  0  0  0  0  0  0  0
   44.7560   34.9560   45.3520 N   0  0  0  0  0  0  0  0  0  0  0  0
   45.9560   33.0280   46.2880 C   0  0  0  0  0  0  0  0  0  0  0  0
   48.8110   36.1218   42.6313 H   0  0  0  0  0  0  0  0  0  0  0  0
   45.1191   32.4089   38.6684 H   0  0  0  0  0  0  0  0  0  0  0  0
   49.0989   34.0274   36.7630 H   0  0  0  0  0  0  0  0  0  0  0  0
   49.8768   34.9863   38.0507 H   0  0  0  0  0  0  0  0  0  0  0  0
   43.7750   36.6277   44.4572 H   0  0  0  0  0  0  0  0  0  0  0  0
   45.2356   36.5860   42.3753 H   0  0  0  0  0  0  0  0  0  0  0  0
   45.8477   33.5085   47.2715 H   0  0  0  0  0  0  0  0  0  0  0  0
   45.2178   32.2181   46.1924 H   0  0  0  0  0  0  0  0  0  0  0  0
   46.9702   32.6129   46.1924 H   0  0  0  0  0  0  0  0  0  0  0  0
  1 13  1  0
  2  1  1  0
  3  2  2  0
  4  3  1  0
  4  9  2  0
  5  4  1  0
  6  5  2  0
  6  7  1  0
  7  8  2  0
  8  9  1  0
  9  1  1  0
 10  5  1  0
 11 16  2  0
 12 11  1  0
 13 12  2  0
 13 14  1  0
 14 15  2  0
 15 16  1  0
 15 17  1  0
  2 18  1  0
  7 19  1  0
 10 20  1  0
 10 21  1  0
 11 22  1  0
 12 23  1  0
 17 24  1  0
 17 25  1  0
 17 26  1  0
M  ISO  7  18  14  19  14  22  14  23  14  24   8  25   8  26   8
M  END
>  <minimizedAffinity>  (1) 
-5.74739552

>  <minimizedRMSD>  (1) 
0.0450260527

$$$$
