
     RDKit          3D

 25 27  0  0  0  0  0  0  0  0999 V2000
   47.0850   34.8630   41.9810 N   0  0  0  0  0  0  0  0  0  0  0  0
   48.2790   35.5030   41.9110 C   0  0  0  0  0  0  0  0  0  0  0  0
   48.7880   35.3020   40.6670 N   0  0  0  0  0  0  0  0  0  0  0  0
   47.9270   34.5450   39.9650 C   0  0  0  0  0  0  0  0  0  0  0  0
   47.9790   34.0660   38.6680 C   0  0  0  0  0  0  0  0  0  0  0  0
   46.9240   33.3140   38.2610 N   0  0  0  0  0  0  0  0  0  0  0  0
   45.8820   33.0470   39.0700 C   0  0  0  0  0  0  0  0  0  0  0  0
   45.8490   33.5300   40.3470 N   0  0  0  0  0  0  0  0  0  0  0  0
   46.8630   34.2730   40.7920 C   0  0  0  0  0  0  0  0  0  0  0  0
   49.0770   34.3520   37.8150 N   0  0  0  0  0  0  0  0  0  0  0  0
   44.6020   36.0380   44.4370 C   0  0  0  0  0  0  0  0  0  0  0  0
   45.4220   35.9700   43.2890 C   0  0  0  0  0  0  0  0  0  0  0  0
   46.2940   34.8770   43.1440 C   0  0  0  0  0  0  0  0  0  0  0  0
   46.3020   33.9400   44.1200 N   0  0  0  0  0  0  0  0  0  0  0  0
   45.5110   34.0200   45.2120 C   0  0  0  0  0  0  0  0  0  0  0  0
   44.6600   35.0690   45.3720 N   0  0  0  0  0  0  0  0  0  0  0  0
   45.6160   32.9690   46.1690 N   0  0  0  0  0  0  0  0  0  0  0  0
   48.7515   36.0821   42.7181 H   0  0  0  0  0  0  0  0  0  0  0  0
   45.0481   32.4332   38.6987 H   0  0  0  0  0  0  0  0  0  0  0  0
   49.0917   33.9834   36.8533 H   0  0  0  0  0  0  0  0  0  0  0  0
   49.8590   34.9281   38.1577 H   0  0  0  0  0  0  0  0  0  0  0  0
   43.9131   36.8854   44.5685 H   0  0  0  0  0  0  0  0  0  0  0  0
   45.3791   36.7578   42.5225 H   0  0  0  0  0  0  0  0  0  0  0  0
   45.0333   32.9856   47.0182 H   0  0  0  0  0  0  0  0  0  0  0  0
   46.2745   32.1929   46.0114 H   0  0  0  0  0  0  0  0  0  0  0  0
  1 13  1  0
  2  1  1  0
  3  2  2  0
  4  3  1  0
  4  9  2  0
  5  4  1  0
  6  5  2  0
  6  7  1  0
  7  8  2  0
  8  9  1  0
  9  1  1  0
 10  5  1  0
 11 16  2  0
 12 11  1  0
 13 12  2  0
 13 14  1  0
 14 15  2  0
 15 16  1  0
 15 17  1  0
  2 18  1  0
  7 19  1  0
 10 20  1  0
 10 21  1  0
 11 22  1  0
 12 23  1  0
 17 24  1  0
 17 25  1  0
M  ISO  4  18  14  19  14  22  14  23  14
M  END
>  <minimizedAffinity>  (1) 
-5.78916836

>  <minimizedRMSD>  (1) 
0.125223607

$$$$
