
     RDKit          3D

 29 31  0  0  0  0  0  0  0  0999 V2000
   47.2500   34.8070   41.9760 N   0  0  0  0  0  0  0  0  0  0  0  0
   48.3790   35.5760   41.8860 C   0  0  0  0  0  0  0  0  0  0  0  0
   48.8470   35.4800   40.6130 N   0  0  0  0  0  0  0  0  0  0  0  0
   48.0450   34.6800   39.9230 C   0  0  0  0  0  0  0  0  0  0  0  0
   48.0780   34.2600   38.6020 C   0  0  0  0  0  0  0  0  0  0  0  0
   47.0920   33.4300   38.2060 N   0  0  0  0  0  0  0  0  0  0  0  0
   46.1090   33.0140   39.0450 C   0  0  0  0  0  0  0  0  0  0  0  0
   46.0950   33.4400   40.3400 N   0  0  0  0  0  0  0  0  0  0  0  0
   47.0430   34.2580   40.7780 C   0  0  0  0  0  0  0  0  0  0  0  0
   49.0980   34.7030   37.7210 N   0  0  0  0  0  0  0  0  0  0  0  0
   44.6810   35.5140   44.5190 C   0  0  0  0  0  0  0  0  0  0  0  0
   45.4480   35.5790   43.3280 C   0  0  0  0  0  0  0  0  0  0  0  0
   46.5210   34.6970   43.1810 C   0  0  0  0  0  0  0  0  0  0  0  0
   46.7830   33.8180   44.1780 N   0  0  0  0  0  0  0  0  0  0  0  0
   46.0400   33.7740   45.3030 C   0  0  0  0  0  0  0  0  0  0  0  0
   44.9930   34.6090   45.4890 N   0  0  0  0  0  0  0  0  0  0  0  0
   46.3440   32.8030   46.3860 C   0  0  0  0  0  0  0  0  0  0  0  0
   45.2910   32.9100   47.4700 C   0  0  0  0  0  0  0  0  0  0  0  0
   48.8276   36.1663   42.6986 H   0  0  0  0  0  0  0  0  0  0  0  0
   45.3249   32.3341   38.6804 H   0  0  0  0  0  0  0  0  0  0  0  0
   49.1086   34.3818   36.7424 H   0  0  0  0  0  0  0  0  0  0  0  0
   49.8279   35.3458   38.0600 H   0  0  0  0  0  0  0  0  0  0  0  0
   43.8305   36.1971   44.6605 H   0  0  0  0  0  0  0  0  0  0  0  0
   45.2039   36.3061   42.5394 H   0  0  0  0  0  0  0  0  0  0  0  0
   46.3443   31.7829   45.9745 H   0  0  0  0  0  0  0  0  0  0  0  0
   47.3331   33.0266   46.8121 H   0  0  0  0  0  0  0  0  0  0  0  0
   45.7744   32.8609   48.4569 H   0  0  0  0  0  0  0  0  0  0  0  0
   44.7578   33.8669   47.3701 H   0  0  0  0  0  0  0  0  0  0  0  0
   44.5762   32.0799   47.3701 H   0  0  0  0  0  0  0  0  0  0  0  0
  1 13  1  0
  2  1  1  0
  3  2  2  0
  4  3  1  0
  4  9  2  0
  5  4  1  0
  6  5  2  0
  6  7  1  0
  7  8  2  0
  8  9  1  0
  9  1  1  0
 10  5  1  0
 11 16  2  0
 12 11  1  0
 13 12  2  0
 13 14  1  0
 14 15  2  0
 15 16  1  0
 15 17  1  0
 17 18  1  0
  2 19  1  0
  7 20  1  0
 10 21  1  0
 10 22  1  0
 11 23  1  0
 12 24  1  0
 17 25  1  0
 17 26  1  0
 18 27  1  0
 18 28  1  0
 18 29  1  0
M  ISO  8  19  14  20  14  23  14  24  14  25   8  26   8  27   8  28   8
M  ISO  1  29   8
M  END
>  <minimizedAffinity>  (1) 
-5.76866055

>  <minimizedRMSD>  (1) 
0.327611357

$$$$
