
     RDKit          3D

 46 48  0  0  1  0  0  0  0  0999 V2000
   45.5170   33.7870   43.3170 C   0  0  0  0  0  0  0  0  0  0  0  0
   46.6480   32.9550   43.3890 C   0  0  0  0  0  0  0  0  0  0  0  0
   47.1910   32.6700   44.6560 C   0  0  0  0  0  0  0  0  0  0  0  0
   46.6180   33.1960   45.7440 N   0  0  0  0  0  0  0  0  0  0  0  0
   45.5430   33.9880   45.6830 C   0  0  0  0  0  0  0  0  0  0  0  0
   45.0140   34.2680   44.4850 N   0  0  0  0  0  0  0  0  0  0  0  0
   44.8720   34.2060   42.1270 C   0  0  0  0  0  0  0  0  0  0  0  0
   43.5800   33.3780   41.8520 C   0  0  0  0  0  0  0  0  0  0  0  0
   42.9430   34.2790   40.7590 C   0  0  0  0  0  0  0  0  0  0  0  0
   43.3960   35.6640   41.0810 C   0  0  0  0  0  0  0  0  0  0  0  0
   44.2400   35.5660   42.3360 C   0  0  0  0  0  0  0  0  0  0  0  0
   47.2280   32.3900   42.1710 C   0  0  1  0  0  0  0  0  0  0  0  0
   46.7410   31.0130   41.8680 C   0  0  0  0  0  0  0  0  0  0  0  0
   47.1800   33.3650   41.0680 C   0  0  0  0  0  0  0  0  0  0  0  0
   48.6010   33.8240   40.8780 N   0  0  0  0  0  0  0  0  0  0  0  0
   49.5190   32.9680   41.4910 C   0  0  0  0  0  0  0  0  0  0  0  0
   50.4790   33.7010   42.3710 C   0  0  0  0  0  0  0  0  0  0  0  0
   49.7570   34.7150   43.0910 N   0  0  0  0  0  0  0  0  0  0  0  0
   49.4070   35.7640   42.1530 C   0  0  0  0  0  0  0  0  0  0  0  0
   48.7730   35.2080   40.9040 C   0  0  0  0  0  0  0  0  0  0  0  0
   48.0755   32.0228   44.7501 H   0  0  0  0  0  0  0  0  0  0  0  0
   45.1006   34.4026   46.6008 H   0  0  0  0  0  0  0  0  0  0  0  0
   45.6431   34.1364   41.3456 H   0  0  0  0  0  0  0  0  0  0  0  0
   43.8083   32.3703   41.4746 H   0  0  0  0  0  0  0  0  0  0  0  0
   42.9481   33.1810   42.7306 H   0  0  0  0  0  0  0  0  0  0  0  0
   41.8456   34.2136   40.7964 H   0  0  0  0  0  0  0  0  0  0  0  0
   43.2445   33.9727   39.7464 H   0  0  0  0  0  0  0  0  0  0  0  0
   43.9950   36.0692   40.2521 H   0  0  0  0  0  0  0  0  0  0  0  0
   42.5380   36.3354   41.2329 H   0  0  0  0  0  0  0  0  0  0  0  0
   43.6223   35.5929   43.2458 H   0  0  0  0  0  0  0  0  0  0  0  0
   44.9544   36.3904   42.4777 H   0  0  0  0  0  0  0  0  0  0  0  0
   48.3003   32.2124   42.3402 H   0  0  0  0  0  0  0  0  0  0  0  0
   46.5511   30.4759   42.8090 H   0  0  0  0  0  0  0  0  0  0  0  0
   45.8097   31.0733   41.2858 H   0  0  0  0  0  0  0  0  0  0  0  0
   47.5032   30.4744   41.2858 H   0  0  0  0  0  0  0  0  0  0  0  0
   46.8031   32.8897   40.1504 H   0  0  0  0  0  0  0  0  0  0  0  0
   46.5056   34.2044   41.2931 H   0  0  0  0  0  0  0  0  0  0  0  0
   48.9681   32.2367   42.1007 H   0  0  0  0  0  0  0  0  0  0  0  0
   50.0997   32.4742   40.6979 H   0  0  0  0  0  0  0  0  0  0  0  0
   50.9407   32.9995   43.0814 H   0  0  0  0  0  0  0  0  0  0  0  0
   51.2702   34.1629   41.7622 H   0  0  0  0  0  0  0  0  0  0  0  0
   48.9020   34.3119   43.5002 H   0  0  0  0  0  0  0  0  0  0  0  0
   48.6979   36.4521   42.6364 H   0  0  0  0  0  0  0  0  0  0  0  0
   50.3305   36.2872   41.8643 H   0  0  0  0  0  0  0  0  0  0  0  0
   49.4083   35.4858   40.0500 H   0  0  0  0  0  0  0  0  0  0  0  0
   47.7608   35.6369   40.8649 H   0  0  0  0  0  0  0  0  0  0  0  0
  1  2  1  0
  1  6  2  0
  2  3  2  0
  3  4  1  0
  5  4  2  0
  6  5  1  0
  7 11  1  0
  7  1  1  0
  8  7  1  0
  9 10  1  0
  9  8  1  0
 10 11  1  0
 12  2  1  0
 13 12  1  0
 14 12  1  0
 15 20  1  0
 15 14  1  0
 15 16  1  0
 16 17  1  0
 17 18  1  0
 19 18  1  0
 20 19  1  0
  3 21  1  0
  5 22  1  0
  7 23  1  0
  8 24  1  0
  8 25  1  0
  9 26  1  0
  9 27  1  0
 10 28  1  0
 10 29  1  0
 11 30  1  0
 11 31  1  0
 12 32  1  1
 13 33  1  0
 13 34  1  0
 13 35  1  0
 14 36  1  0
 14 37  1  0
 16 38  1  0
 16 39  1  0
 17 40  1  0
 17 41  1  0
 18 42  1  0
 19 43  1  0
 19 44  1  0
 20 45  1  0
 20 46  1  0
M  ISO  8  21  14  22  14  23  13  24  13  25  13  26  13  27  13  28  13
M  ISO  8  29  13  30  13  31  13  32   8  33   8  34   8  35   8  36   8
M  ISO  8  37   8  38  13  39  13  40  13  41  13  42   5  43  13  44  13
M  ISO  2  45  13  46  13
M  END
>  <minimizedAffinity>  (1) 
-4.99876738

>  <minimizedRMSD>  (1) 
2.13504148

$$$$
