
     RDKit          3D

 36 40  0  0  0  0  0  0  0  0999 V2000
   44.7020   36.0930   44.5050 C   0  0  0  0  0  0  0  0  0  0  0  0
   45.4330   35.9870   43.2910 C   0  0  0  0  0  0  0  0  0  0  0  0
   46.2360   34.8400   43.1120 C   0  0  0  0  0  0  0  0  0  0  0  0
   46.2460   33.9410   44.1020 N   0  0  0  0  0  0  0  0  0  0  0  0
   45.5650   34.0370   45.2360 C   0  0  0  0  0  0  0  0  0  0  0  0
   44.7790   35.1200   45.4530 N   0  0  0  0  0  0  0  0  0  0  0  0
   45.7540   32.9310   46.0990 N   0  0  0  0  0  0  0  0  0  0  0  0
   45.1940   32.5530   47.2530 C   0  0  0  0  0  0  0  0  0  0  0  0
   45.7720   31.3220   47.6050 C   0  0  0  0  0  0  0  0  0  0  0  0
   46.6730   31.0250   46.6130 N   0  0  0  0  0  0  0  0  0  0  0  0
   46.6480   32.0020   45.7230 C   0  0  0  0  0  0  0  0  0  0  0  0
   47.5740   31.7440   44.6660 N   0  0  0  0  0  0  0  0  0  0  0  0
   47.9250   32.6260   43.7170 C   0  0  0  0  0  0  0  0  0  0  0  0
   48.8240   32.0120   42.8930 N   0  0  0  0  0  0  0  0  0  0  0  0
   49.0220   30.7450   43.3450 C   0  0  0  0  0  0  0  0  0  0  0  0
   48.2340   30.6080   44.4450 N   0  0  0  0  0  0  0  0  0  0  0  0
   46.9460   34.7720   41.9070 N   0  0  0  0  0  0  0  0  0  0  0  0
   48.1480   35.4250   41.7490 C   0  0  0  0  0  0  0  0  0  0  0  0
   48.5970   35.1900   40.4980 N   0  0  0  0  0  0  0  0  0  0  0  0
   47.7190   34.4100   39.8590 C   0  0  0  0  0  0  0  0  0  0  0  0
   47.6810   33.8790   38.5930 C   0  0  0  0  0  0  0  0  0  0  0  0
   46.6170   33.1130   38.2670 N   0  0  0  0  0  0  0  0  0  0  0  0
   45.6230   32.8700   39.1390 C   0  0  0  0  0  0  0  0  0  0  0  0
   45.6590   33.3980   40.3960 N   0  0  0  0  0  0  0  0  0  0  0  0
   46.6970   34.1630   40.7570 C   0  0  0  0  0  0  0  0  0  0  0  0
   48.7350   34.1640   37.6650 N   0  0  0  0  0  0  0  0  0  0  0  0
   44.0657   36.9730   44.6806 H   0  0  0  0  0  0  0  0  0  0  0  0
   45.3753   36.7693   42.5198 H   0  0  0  0  0  0  0  0  0  0  0  0
   44.4267   33.1016   47.8190 H   0  0  0  0  0  0  0  0  0  0  0  0
   45.5477   30.7176   48.4963 H   0  0  0  0  0  0  0  0  0  0  0  0
   47.5551   33.6574   43.6206 H   0  0  0  0  0  0  0  0  0  0  0  0
   49.6858   29.9840   42.9088 H   0  0  0  0  0  0  0  0  0  0  0  0
   48.6554   36.0339   42.5117 H   0  0  0  0  0  0  0  0  0  0  0  0
   44.7736   32.2401   38.8361 H   0  0  0  0  0  0  0  0  0  0  0  0
   48.7068   33.7659   36.7155 H   0  0  0  0  0  0  0  0  0  0  0  0
   49.5208   34.7670   37.9475 H   0  0  0  0  0  0  0  0  0  0  0  0
  1  6  2  0
  2  1  1  0
  3  2  2  0
  3  4  1  0
  4  5  2  0
  5  6  1  0
  5  7  1  0
  7  8  1  0
  8  9  2  0
 10  9  1  0
 11  7  1  0
 11 10  2  0
 12 11  1  0
 13 12  1  0
 14 15  1  0
 14 13  2  0
 15 16  2  0
 16 12  1  0
 17  3  1  0
 18 17  1  0
 19 18  2  0
 20 19  1  0
 20 25  2  0
 21 20  1  0
 22 21  2  0
 22 23  1  0
 23 24  2  0
 24 25  1  0
 25 17  1  0
 26 21  1  0
  1 27  1  0
  2 28  1  0
  8 29  1  0
  9 30  1  0
 13 31  1  0
 15 32  1  0
 18 33  1  0
 23 34  1  0
 26 35  1  0
 26 36  1  0
M  ISO  8  27  14  28  14  29  14  30  14  31  14  32  14  33  14  34  14
M  END
>  <minimizedAffinity>  (1) 
-6.93362617

>  <minimizedRMSD>  (1) 
0.447013497

$$$$
