
     RDKit          3D

 44 49  0  0  0  0  0  0  0  0999 V2000
   44.6630   36.1780   44.6880 C   0  0  0  0  0  0  0  0  0  0  0  0
   45.2670   35.9190   43.4290 C   0  0  0  0  0  0  0  0  0  0  0  0
   45.9130   34.6990   43.2560 C   0  0  0  0  0  0  0  0  0  0  0  0
   45.9110   33.8660   44.2960 N   0  0  0  0  0  0  0  0  0  0  0  0
   45.3600   34.0870   45.4680 C   0  0  0  0  0  0  0  0  0  0  0  0
   44.7240   35.2530   45.6820 N   0  0  0  0  0  0  0  0  0  0  0  0
   45.5400   32.9920   46.3800 N   0  0  0  0  0  0  0  0  0  0  0  0
   45.0110   32.7540   47.5930 C   0  0  0  0  0  0  0  0  0  0  0  0
   45.4450   31.5000   47.9860 C   0  0  0  0  0  0  0  0  0  0  0  0
   46.2280   31.0550   46.9560 N   0  0  0  0  0  0  0  0  0  0  0  0
   46.2870   31.9640   45.9850 C   0  0  0  0  0  0  0  0  0  0  0  0
   46.5230   34.4890   42.0090 N   0  0  0  0  0  0  0  0  0  0  0  0
   47.8090   34.9090   41.7430 C   0  0  0  0  0  0  0  0  0  0  0  0
   48.1230   34.5820   40.4790 N   0  0  0  0  0  0  0  0  0  0  0  0
   47.0680   33.9590   39.9200 C   0  0  0  0  0  0  0  0  0  0  0  0
   46.8560   33.4290   38.6780 C   0  0  0  0  0  0  0  0  0  0  0  0
   45.6520   32.8620   38.4480 N   0  0  0  0  0  0  0  0  0  0  0  0
   44.6960   32.8150   39.3920 C   0  0  0  0  0  0  0  0  0  0  0  0
   44.9080   33.3450   40.6280 N   0  0  0  0  0  0  0  0  0  0  0  0
   46.0870   33.9150   40.8960 C   0  0  0  0  0  0  0  0  0  0  0  0
   47.8730   33.4970   37.6700 N   0  0  0  0  0  0  0  0  0  0  0  0
   47.1250   31.4760   44.9010 C   0  0  0  0  0  0  0  0  0  0  0  0
   47.1040   31.6710   43.5490 C   0  0  0  0  0  0  0  0  0  0  0  0
   48.0040   30.9730   42.8500 N   0  0  0  0  0  0  0  0  0  0  0  0
   48.7030   30.2470   43.7270 C   0  0  0  0  0  0  0  0  0  0  0  0
   49.7420   29.3440   43.6790 C   0  0  0  0  0  0  0  0  0  0  0  0
   50.2930   28.7190   44.7740 C   0  0  0  0  0  0  0  0  0  0  0  0
   49.7790   29.0080   46.0220 C   0  0  0  0  0  0  0  0  0  0  0  0
   48.7390   29.9110   46.0840 C   0  0  0  0  0  0  0  0  0  0  0  0
   48.1820   30.5440   44.9630 C   0  0  0  0  0  0  0  0  0  0  0  0
   44.1431   37.1321   44.8596 H   0  0  0  0  0  0  0  0  0  0  0  0
   45.2254   36.6594   42.6165 H   0  0  0  0  0  0  0  0  0  0  0  0
   44.3569   33.4285   48.1649 H   0  0  0  0  0  0  0  0  0  0  0  0
   45.2110   30.9747   48.9237 H   0  0  0  0  0  0  0  0  0  0  0  0
   48.4709   35.4281   42.4518 H   0  0  0  0  0  0  0  0  0  0  0  0
   43.7297   32.3421   39.1627 H   0  0  0  0  0  0  0  0  0  0  0  0
   47.7018   33.0941   36.7377 H   0  0  0  0  0  0  0  0  0  0  0  0
   48.7749   33.9488   37.8781 H   0  0  0  0  0  0  0  0  0  0  0  0
   46.3926   32.3578   43.0672 H   0  0  0  0  0  0  0  0  0  0  0  0
   48.1341   30.9913   41.8284 H   0  0  0  0  0  0  0  0  0  0  0  0
   50.1628   29.1046   42.6913 H   0  0  0  0  0  0  0  0  0  0  0  0
   51.1229   28.0064   44.6577 H   0  0  0  0  0  0  0  0  0  0  0  0
   50.1828   28.5369   46.9303 H   0  0  0  0  0  0  0  0  0  0  0  0
   48.3205   30.1496   47.0729 H   0  0  0  0  0  0  0  0  0  0  0  0
  1  6  2  0
  2  1  1  0
  3  2  2  0
  3  4  1  0
  4  5  2  0
  5  6  1  0
  5  7  1  0
  7  8  1  0
  8  9  2  0
 10  9  1  0
 11  7  1  0
 11 10  2  0
 12  3  1  0
 13 12  1  0
 14 13  2  0
 15 14  1  0
 15 20  2  0
 16 15  1  0
 17 16  2  0
 17 18  1  0
 18 19  2  0
 19 20  1  0
 20 12  1  0
 21 16  1  0
 22 30  1  0
 22 11  1  0
 23 22  2  0
 24 23  1  0
 24 25  1  0
 25 30  2  0
 26 25  1  0
 26 27  2  0
 27 28  1  0
 28 29  2  0
 30 29  1  0
  1 31  1  0
  2 32  1  0
  8 33  1  0
  9 34  1  0
 13 35  1  0
 18 36  1  0
 21 37  1  0
 21 38  1  0
 23 39  1  0
 24 40  1  0
 26 41  1  0
 27 42  1  0
 28 43  1  0
 29 44  1  0
M  ISO  8  31  14  32  14  33  14  34  14  35  14  36  14  39  14  40   9
M  ISO  4  41  14  42  14  43  14  44  14
M  END
>  <minimizedAffinity>  (1) 
-6.44975328

>  <minimizedRMSD>  (1) 
1.1254158

$$$$
