
     RDKit          3D

 37 41  0  0  0  0  0  0  0  0999 V2000
   44.6370   36.2040   44.4830 C   0  0  0  0  0  0  0  0  0  0  0  0
   45.3850   36.0660   43.2870 C   0  0  0  0  0  0  0  0  0  0  0  0
   46.1660   34.9300   43.1560 C   0  0  0  0  0  0  0  0  0  0  0  0
   46.1460   34.0580   44.1740 N   0  0  0  0  0  0  0  0  0  0  0  0
   45.4770   34.1470   45.2780 C   0  0  0  0  0  0  0  0  0  0  0  0
   44.6980   35.2430   45.4530 N   0  0  0  0  0  0  0  0  0  0  0  0
   45.6660   33.0570   46.1620 N   0  0  0  0  0  0  0  0  0  0  0  0
   45.1390   32.7980   47.3760 C   0  0  0  0  0  0  0  0  0  0  0  0
   45.7160   31.6370   47.8330 C   0  0  0  0  0  0  0  0  0  0  0  0
   46.5560   31.2680   46.8570 N   0  0  0  0  0  0  0  0  0  0  0  0
   46.5400   32.1230   45.8250 C   0  0  0  0  0  0  0  0  0  0  0  0
   46.9030   34.8060   41.9530 N   0  0  0  0  0  0  0  0  0  0  0  0
   48.1390   35.3620   41.8010 C   0  0  0  0  0  0  0  0  0  0  0  0
   48.5870   35.0790   40.5560 N   0  0  0  0  0  0  0  0  0  0  0  0
   47.6550   34.3550   39.9190 C   0  0  0  0  0  0  0  0  0  0  0  0
   47.6010   33.8060   38.6470 C   0  0  0  0  0  0  0  0  0  0  0  0
   46.4880   33.1100   38.3280 N   0  0  0  0  0  0  0  0  0  0  0  0
   45.4680   32.9480   39.1960 C   0  0  0  0  0  0  0  0  0  0  0  0
   45.5170   33.4880   40.4450 N   0  0  0  0  0  0  0  0  0  0  0  0
   46.6160   34.1950   40.8040 C   0  0  0  0  0  0  0  0  0  0  0  0
   48.6780   34.0130   37.7290 N   0  0  0  0  0  0  0  0  0  0  0  0
   47.4790   31.5970   44.8880 C   0  0  0  0  0  0  0  0  0  0  0  0
   48.0620   32.0460   43.7620 C   0  0  0  0  0  0  0  0  0  0  0  0
   48.9050   31.2010   43.1510 N   0  0  0  0  0  0  0  0  0  0  0  0
   48.8920   30.0790   43.9290 C   0  0  0  0  0  0  0  0  0  0  0  0
   48.0420   30.3780   44.9220 N   0  0  0  0  0  0  0  0  0  0  0  0
   44.0031   37.0906   44.6316 H   0  0  0  0  0  0  0  0  0  0  0  0
   45.3467   36.8294   42.4959 H   0  0  0  0  0  0  0  0  0  0  0  0
   44.3868   33.4035   47.9029 H   0  0  0  0  0  0  0  0  0  0  0  0
   45.5293   31.1246   48.7883 H   0  0  0  0  0  0  0  0  0  0  0  0
   48.6805   35.9427   42.5623 H   0  0  0  0  0  0  0  0  0  0  0  0
   44.5831   32.3707   38.8900 H   0  0  0  0  0  0  0  0  0  0  0  0
   48.6355   33.6041   36.7846 H   0  0  0  0  0  0  0  0  0  0  0  0
   49.4961   34.5710   38.0123 H   0  0  0  0  0  0  0  0  0  0  0  0
   47.8584   33.0512   43.3643 H   0  0  0  0  0  0  0  0  0  0  0  0
   49.4508   29.1439   43.7762 H   0  0  0  0  0  0  0  0  0  0  0  0
   47.8312   29.7061   45.6737 H   0  0  0  0  0  0  0  0  0  0  0  0
  1  6  2  0
  2  1  1  0
  3  2  2  0
  3  4  1  0
  4  5  2  0
  5  6  1  0
  5  7  1  0
  7  8  1  0
  8  9  2  0
 10  9  1  0
 11  7  1  0
 11 10  2  0
 12  3  1  0
 13 12  1  0
 14 13  2  0
 15 14  1  0
 15 20  2  0
 16 15  1  0
 17 16  2  0
 17 18  1  0
 18 19  2  0
 19 20  1  0
 20 12  1  0
 21 16  1  0
 22 26  1  0
 22 11  1  0
 23 22  2  0
 24 23  1  0
 24 25  2  0
 25 26  1  0
  1 27  1  0
  2 28  1  0
  8 29  1  0
  9 30  1  0
 13 31  1  0
 18 32  1  0
 21 33  1  0
 21 34  1  0
 23 35  1  0
 25 36  1  0
 26 37  1  0
M  ISO  8  27  14  28  14  29  14  30  14  31  14  32  14  35  14  36  14
M  ISO  1  37   9
M  END
>  <minimizedAffinity>  (1) 
-6.57299471

>  <minimizedRMSD>  (1) 
0.475517988

$$$$
