
     RDKit          3D

 46 51  0  0  0  0  0  0  0  0999 V2000
   44.4030   35.9010   44.5210 C   0  0  0  0  0  0  0  0  0  0  0  0
   44.3210   35.4980   43.1550 C   0  0  0  0  0  0  0  0  0  0  0  0
   44.8750   34.2590   42.8170 C   0  0  0  0  0  0  0  0  0  0  0  0
   45.4310   33.5640   43.8120 N   0  0  0  0  0  0  0  0  0  0  0  0
   45.5190   33.9150   45.0760 C   0  0  0  0  0  0  0  0  0  0  0  0
   45.0000   35.0970   45.4430 N   0  0  0  0  0  0  0  0  0  0  0  0
   46.1810   32.9450   45.8600 N   0  0  0  0  0  0  0  0  0  0  0  0
   46.3750   32.8640   47.1950 C   0  0  0  0  0  0  0  0  0  0  0  0
   47.1180   31.7220   47.4440 C   0  0  0  0  0  0  0  0  0  0  0  0
   47.3290   31.1760   46.2370 N   0  0  0  0  0  0  0  0  0  0  0  0
   46.7640   31.9110   45.2560 C   0  0  0  0  0  0  0  0  0  0  0  0
   44.7820   33.8850   41.4620 N   0  0  0  0  0  0  0  0  0  0  0  0
   45.8780   33.7700   40.6570 C   0  0  0  0  0  0  0  0  0  0  0  0
   45.4730   33.3980   39.4220 N   0  0  0  0  0  0  0  0  0  0  0  0
   44.1340   33.2760   39.4320 C   0  0  0  0  0  0  0  0  0  0  0  0
   43.2390   32.9270   38.4430 C   0  0  0  0  0  0  0  0  0  0  0  0
   41.9350   32.9050   38.8080 N   0  0  0  0  0  0  0  0  0  0  0  0
   41.5290   33.2010   40.0490 C   0  0  0  0  0  0  0  0  0  0  0  0
   42.4150   33.5460   41.0220 N   0  0  0  0  0  0  0  0  0  0  0  0
   43.7260   33.5850   40.7130 C   0  0  0  0  0  0  0  0  0  0  0  0
   43.6810   32.6140   37.1280 N   0  0  0  0  0  0  0  0  0  0  0  0
   46.9920   31.3020   43.9690 C   0  0  0  0  0  0  0  0  0  0  0  0
   46.3850   30.1420   43.4980 C   0  0  0  0  0  0  0  0  0  0  0  0
   46.6260   29.5020   42.3090 C   0  0  0  0  0  0  0  0  0  0  0  0
   47.5540   30.0410   41.4790 C   0  0  0  0  0  0  0  0  0  0  0  0
   48.2200   31.1910   41.8380 C   0  0  0  0  0  0  0  0  0  0  0  0
   49.1570   31.6770   40.9530 C   0  0  0  0  0  0  0  0  0  0  0  0
   49.8610   32.8190   41.2720 C   0  0  0  0  0  0  0  0  0  0  0  0
   49.5960   33.4410   42.4870 C   0  0  0  0  0  0  0  0  0  0  0  0
   48.6530   32.9040   43.3170 C   0  0  0  0  0  0  0  0  0  0  0  0
   47.9150   31.7640   43.0500 C   0  0  0  0  0  0  0  0  0  0  0  0
   43.9809   36.8682   44.8314 H   0  0  0  0  0  0  0  0  0  0  0  0
   43.8414   36.1360   42.3980 H   0  0  0  0  0  0  0  0  0  0  0  0
   46.0087   33.5769   47.9484 H   0  0  0  0  0  0  0  0  0  0  0  0
   47.4604   31.3449   48.4190 H   0  0  0  0  0  0  0  0  0  0  0  0
   46.9192   33.9503   40.9626 H   0  0  0  0  0  0  0  0  0  0  0  0
   40.4557   33.1644   40.2870 H   0  0  0  0  0  0  0  0  0  0  0  0
   44.6852   32.6455   36.9011 H   0  0  0  0  0  0  0  0  0  0  0  0
   42.9969   32.3558   36.4026 H   0  0  0  0  0  0  0  0  0  0  0  0
   45.6269   29.6872   44.1525 H   0  0  0  0  0  0  0  0  0  0  0  0
   46.0854   28.5832   42.0377 H   0  0  0  0  0  0  0  0  0  0  0  0
   47.7750   29.5575   40.5160 H   0  0  0  0  0  0  0  0  0  0  0  0
   49.3420   31.1589   40.0005 H   0  0  0  0  0  0  0  0  0  0  0  0
   50.6139   33.2279   40.5821 H   0  0  0  0  0  0  0  0  0  0  0  0
   50.1384   34.3533   42.7761 H   0  0  0  0  0  0  0  0  0  0  0  0
   48.4658   33.4175   44.2716 H   0  0  0  0  0  0  0  0  0  0  0  0
  1  6  2  0
  2  1  1  0
  3  2  2  0
  3  4  1  0
  4  5  2  0
  5  6  1  0
  5  7  1  0
  7  8  1  0
  8  9  2  0
 10  9  1  0
 11  7  1  0
 11 10  2  0
 12  3  1  0
 13 12  1  0
 14 15  1  0
 14 13  2  0
 15 20  2  0
 16 17  2  0
 16 15  1  0
 17 18  1  0
 18 19  2  0
 20 19  1  0
 20 12  1  0
 21 16  1  0
 22 11  1  0
 23 22  2  0
 24 23  1  0
 25 26  1  0
 25 24  2  0
 26 31  2  0
 27 28  2  0
 27 26  1  0
 28 29  1  0
 29 30  2  0
 31 30  1  0
 31 22  1  0
  1 32  1  0
  2 33  1  0
  8 34  1  0
  9 35  1  0
 13 36  1  0
 18 37  1  0
 21 38  1  0
 21 39  1  0
 23 40  1  0
 24 41  1  0
 25 42  1  0
 27 43  1  0
 28 44  1  0
 29 45  1  0
 30 46  1  0
M  ISO  8  32  14  33  14  34  14  35  14  36  14  37  14  40  14  41  14
M  ISO  5  42  14  43  14  44  14  45  14  46  14
M  END
>  <minimizedAffinity>  (1) 
-6.34591007

>  <minimizedRMSD>  (1) 
2.90128279

$$$$
