
     RDKit          3D

 37 41  0  0  0  0  0  0  0  0999 V2000
   44.5990   36.1710   44.5060 C   0  0  0  0  0  0  0  0  0  0  0  0
   45.3550   36.0190   43.3130 C   0  0  0  0  0  0  0  0  0  0  0  0
   46.1790   34.8940   43.1970 C   0  0  0  0  0  0  0  0  0  0  0  0
   46.1860   34.0460   44.2280 N   0  0  0  0  0  0  0  0  0  0  0  0
   45.4870   34.1780   45.3450 C   0  0  0  0  0  0  0  0  0  0  0  0
   44.6840   35.2460   45.4960 N   0  0  0  0  0  0  0  0  0  0  0  0
   45.7110   33.0990   46.2620 N   0  0  0  0  0  0  0  0  0  0  0  0
   45.1240   32.7830   47.4230 C   0  0  0  0  0  0  0  0  0  0  0  0
   45.6970   31.6000   47.8580 C   0  0  0  0  0  0  0  0  0  0  0  0
   46.6210   31.2720   46.9020 N   0  0  0  0  0  0  0  0  0  0  0  0
   46.6320   32.1760   45.9390 C   0  0  0  0  0  0  0  0  0  0  0  0
   46.9220   34.7900   42.0180 N   0  0  0  0  0  0  0  0  0  0  0  0
   48.1640   35.3750   41.8880 C   0  0  0  0  0  0  0  0  0  0  0  0
   48.6370   35.1210   40.6550 N   0  0  0  0  0  0  0  0  0  0  0  0
   47.7200   34.3800   39.9850 C   0  0  0  0  0  0  0  0  0  0  0  0
   47.7100   33.8620   38.7130 C   0  0  0  0  0  0  0  0  0  0  0  0
   46.6060   33.1540   38.3660 N   0  0  0  0  0  0  0  0  0  0  0  0
   45.5730   32.9640   39.2180 C   0  0  0  0  0  0  0  0  0  0  0  0
   45.6050   33.4860   40.4710 N   0  0  0  0  0  0  0  0  0  0  0  0
   46.6740   34.1950   40.8600 C   0  0  0  0  0  0  0  0  0  0  0  0
   48.8030   34.0710   37.8230 N   0  0  0  0  0  0  0  0  0  0  0  0
   47.6350   31.8860   44.8780 C   0  0  0  0  0  0  0  0  0  0  0  0
   48.0950   30.5150   44.5950 C   0  0  0  0  0  0  0  0  0  0  0  0
   47.0440   31.0220   43.7150 C   0  0  0  0  0  0  0  0  0  0  0  0
   43.9406   37.0437   44.6284 H   0  0  0  0  0  0  0  0  0  0  0  0
   45.2945   36.7630   42.5050 H   0  0  0  0  0  0  0  0  0  0  0  0
   44.3358   33.3549   47.9345 H   0  0  0  0  0  0  0  0  0  0  0  0
   45.4604   31.0423   48.7761 H   0  0  0  0  0  0  0  0  0  0  0  0
   48.6829   35.9546   42.6657 H   0  0  0  0  0  0  0  0  0  0  0  0
   44.6987   32.3811   38.8928 H   0  0  0  0  0  0  0  0  0  0  0  0
   48.7766   33.6742   36.8729 H   0  0  0  0  0  0  0  0  0  0  0  0
   49.6195   34.6188   38.1298 H   0  0  0  0  0  0  0  0  0  0  0  0
   48.1766   32.8294   45.0410 H   0  0  0  0  0  0  0  0  0  0  0  0
   49.1062   30.3603   44.1906 H   0  0  0  0  0  0  0  0  0  0  0  0
   48.1842   29.6102   45.2141 H   0  0  0  0  0  0  0  0  0  0  0  0
   47.2696   31.2721   42.6678 H   0  0  0  0  0  0  0  0  0  0  0  0
   46.0406   30.6886   43.4118 H   0  0  0  0  0  0  0  0  0  0  0  0
  1  6  2  0
  2  1  1  0
  3  2  2  0
  3  4  1  0
  4  5  2  0
  5  6  1  0
  5  7  1  0
  7  8  1  0
  8  9  2  0
 10  9  1  0
 11  7  1  0
 11 10  2  0
 12  3  1  0
 13 12  1  0
 14 13  2  0
 15 14  1  0
 15 20  2  0
 16 15  1  0
 17 16  2  0
 17 18  1  0
 18 19  2  0
 19 20  1  0
 20 12  1  0
 21 16  1  0
 22 11  1  0
 23 22  1  0
 24 23  1  0
 24 22  1  0
  1 25  1  0
  2 26  1  0
  8 27  1  0
  9 28  1  0
 13 29  1  0
 18 30  1  0
 21 31  1  0
 21 32  1  0
 22 33  1  0
 23 34  1  0
 23 35  1  0
 24 36  1  0
 24 37  1  0
M  ISO  8  25  14  26  14  27  14  28  14  29  14  30  14  33  13  34  13
M  ISO  3  35  13  36  13  37  13
M  END
>  <minimizedAffinity>  (1) 
-6.42170429

>  <minimizedRMSD>  (1) 
0.930572212

$$$$
