
     RDKit          3D

 43 47  0  0  0  0  0  0  0  0999 V2000
   44.6270   36.2270   44.5600 C   0  0  0  0  0  0  0  0  0  0  0  0
   45.3670   36.0520   43.3610 C   0  0  0  0  0  0  0  0  0  0  0  0
   46.1300   34.8950   43.2340 C   0  0  0  0  0  0  0  0  0  0  0  0
   46.1130   34.0310   44.2460 N   0  0  0  0  0  0  0  0  0  0  0  0
   45.4330   34.1780   45.3670 C   0  0  0  0  0  0  0  0  0  0  0  0
   44.6770   35.2830   45.5420 N   0  0  0  0  0  0  0  0  0  0  0  0
   45.6000   33.0910   46.2770 N   0  0  0  0  0  0  0  0  0  0  0  0
   44.9770   32.7880   47.4280 C   0  0  0  0  0  0  0  0  0  0  0  0
   45.4860   31.5500   47.8060 C   0  0  0  0  0  0  0  0  0  0  0  0
   46.3980   31.1780   46.8510 N   0  0  0  0  0  0  0  0  0  0  0  0
   46.4570   32.1230   45.9340 C   0  0  0  0  0  0  0  0  0  0  0  0
   46.8850   34.7680   42.0460 N   0  0  0  0  0  0  0  0  0  0  0  0
   48.1400   35.3270   41.9260 C   0  0  0  0  0  0  0  0  0  0  0  0
   48.6030   35.0580   40.6850 N   0  0  0  0  0  0  0  0  0  0  0  0
   47.6680   34.3400   40.0190 C   0  0  0  0  0  0  0  0  0  0  0  0
   47.6380   33.8140   38.7540 C   0  0  0  0  0  0  0  0  0  0  0  0
   46.5260   33.1270   38.4070 N   0  0  0  0  0  0  0  0  0  0  0  0
   45.4890   32.9620   39.2570 C   0  0  0  0  0  0  0  0  0  0  0  0
   45.5390   33.4940   40.5090 N   0  0  0  0  0  0  0  0  0  0  0  0
   46.6180   34.1790   40.8920 C   0  0  0  0  0  0  0  0  0  0  0  0
   48.7380   34.0070   37.8550 N   0  0  0  0  0  0  0  0  0  0  0  0
   47.4520   31.7480   44.9030 C   0  0  0  0  0  0  0  0  0  0  0  0
   46.7560   31.1830   43.6770 C   0  0  0  0  0  0  0  0  0  0  0  0
   47.8530   30.4190   42.9320 C   0  0  0  0  0  0  0  0  0  0  0  0
   48.5830   29.7810   44.0650 C   0  0  0  0  0  0  0  0  0  0  0  0
   48.2850   30.5150   45.3220 C   0  0  0  0  0  0  0  0  0  0  0  0
   44.0109   37.1279   44.6970 H   0  0  0  0  0  0  0  0  0  0  0  0
   45.3382   36.8052   42.5598 H   0  0  0  0  0  0  0  0  0  0  0  0
   44.2248   33.3904   47.9584 H   0  0  0  0  0  0  0  0  0  0  0  0
   45.2091   30.9765   48.7029 H   0  0  0  0  0  0  0  0  0  0  0  0
   48.6717   35.8933   42.7048 H   0  0  0  0  0  0  0  0  0  0  0  0
   44.6018   32.3962   38.9365 H   0  0  0  0  0  0  0  0  0  0  0  0
   48.7042   33.6069   36.9065 H   0  0  0  0  0  0  0  0  0  0  0  0
   49.5620   34.5458   38.1576 H   0  0  0  0  0  0  0  0  0  0  0  0
   48.0420   32.6626   44.7434 H   0  0  0  0  0  0  0  0  0  0  0  0
   45.9408   30.5053   43.9704 H   0  0  0  0  0  0  0  0  0  0  0  0
   46.2979   31.9678   43.0571 H   0  0  0  0  0  0  0  0  0  0  0  0
   47.4287   29.6664   42.2512 H   0  0  0  0  0  0  0  0  0  0  0  0
   48.4831   31.0489   42.2869 H   0  0  0  0  0  0  0  0  0  0  0  0
   48.2602   28.7343   44.1662 H   0  0  0  0  0  0  0  0  0  0  0  0
   49.6649   29.8136   43.8690 H   0  0  0  0  0  0  0  0  0  0  0  0
   49.2181   30.8315   45.8111 H   0  0  0  0  0  0  0  0  0  0  0  0
   47.7406   29.8838   46.0398 H   0  0  0  0  0  0  0  0  0  0  0  0
  1  6  2  0
  2  1  1  0
  3  2  2  0
  3  4  1  0
  4  5  2  0
  5  6  1  0
  5  7  1  0
  7  8  1  0
  8  9  2  0
 10  9  1  0
 11  7  1  0
 11 10  2  0
 12  3  1  0
 13 12  1  0
 14 13  2  0
 15 14  1  0
 15 20  2  0
 16 15  1  0
 17 16  2  0
 17 18  1  0
 18 19  2  0
 19 20  1  0
 20 12  1  0
 21 16  1  0
 22 26  1  0
 22 11  1  0
 23 22  1  0
 24 23  1  0
 24 25  1  0
 25 26  1  0
  1 27  1  0
  2 28  1  0
  8 29  1  0
  9 30  1  0
 13 31  1  0
 18 32  1  0
 21 33  1  0
 21 34  1  0
 22 35  1  0
 23 36  1  0
 23 37  1  0
 24 38  1  0
 24 39  1  0
 25 40  1  0
 25 41  1  0
 26 42  1  0
 26 43  1  0
M  ISO  8  27  14  28  14  29  14  30  14  31  14  32  14  35  13  36  13
M  ISO  7  37  13  38  13  39  13  40  13  41  13  42  13  43  13
M  END
>  <minimizedAffinity>  (1) 
-6.3438468

>  <minimizedRMSD>  (1) 
0.854994416

$$$$
