
     RDKit          3D

 32 35  0  0  0  0  0  0  0  0999 V2000
   44.5720   36.1680   44.4850 C   0  0  0  0  0  0  0  0  0  0  0  0
   45.3350   36.0170   43.2980 C   0  0  0  0  0  0  0  0  0  0  0  0
   46.1830   34.9020   43.1940 C   0  0  0  0  0  0  0  0  0  0  0  0
   46.1990   34.0670   44.2380 N   0  0  0  0  0  0  0  0  0  0  0  0
   45.4890   34.2010   45.3510 C   0  0  0  0  0  0  0  0  0  0  0  0
   44.6660   35.2530   45.4890 N   0  0  0  0  0  0  0  0  0  0  0  0
   45.7130   33.1360   46.2780 N   0  0  0  0  0  0  0  0  0  0  0  0
   45.1370   32.7760   47.4280 C   0  0  0  0  0  0  0  0  0  0  0  0
   45.7520   31.6140   47.8620 C   0  0  0  0  0  0  0  0  0  0  0  0
   46.6940   31.3240   46.9270 N   0  0  0  0  0  0  0  0  0  0  0  0
   46.6610   32.2460   45.9840 C   0  0  0  0  0  0  0  0  0  0  0  0
   46.9210   34.7960   42.0150 N   0  0  0  0  0  0  0  0  0  0  0  0
   48.1670   35.3720   41.8880 C   0  0  0  0  0  0  0  0  0  0  0  0
   48.6410   35.1140   40.6550 N   0  0  0  0  0  0  0  0  0  0  0  0
   47.7210   34.3830   39.9900 C   0  0  0  0  0  0  0  0  0  0  0  0
   47.7120   33.8670   38.7180 C   0  0  0  0  0  0  0  0  0  0  0  0
   46.6120   33.1700   38.3600 N   0  0  0  0  0  0  0  0  0  0  0  0
   45.5710   32.9840   39.2020 C   0  0  0  0  0  0  0  0  0  0  0  0
   45.5950   33.5040   40.4640 N   0  0  0  0  0  0  0  0  0  0  0  0
   46.6650   34.2000   40.8560 C   0  0  0  0  0  0  0  0  0  0  0  0
   48.8110   34.0640   37.8310 N   0  0  0  0  0  0  0  0  0  0  0  0
   47.6520   31.9860   44.9650 C   0  0  0  0  0  0  0  0  0  0  0  0
   48.0300   31.2440   44.0750 O   0  0  0  0  0  0  0  0  0  0  0  0
   43.8992   37.0313   44.5949 H   0  0  0  0  0  0  0  0  0  0  0  0
   45.2644   36.7521   42.4827 H   0  0  0  0  0  0  0  0  0  0  0  0
   44.3204   33.3074   47.9387 H   0  0  0  0  0  0  0  0  0  0  0  0
   45.5249   31.0437   48.7748 H   0  0  0  0  0  0  0  0  0  0  0  0
   48.6884   35.9480   42.6667 H   0  0  0  0  0  0  0  0  0  0  0  0
   44.6959   32.4079   38.8670 H   0  0  0  0  0  0  0  0  0  0  0  0
   48.7832   33.6679   36.8806 H   0  0  0  0  0  0  0  0  0  0  0  0
   49.6326   34.6024   38.1407 H   0  0  0  0  0  0  0  0  0  0  0  0
   48.3761   32.8126   45.0132 H   0  0  0  0  0  0  0  0  0  0  0  0
  1  6  2  0
  2  1  1  0
  3  2  2  0
  3  4  1  0
  4  5  2  0
  5  6  1  0
  5  7  1  0
  7  8  1  0
  8  9  2  0
 10  9  1  0
 11  7  1  0
 11 10  2  0
 12  3  1  0
 13 12  1  0
 14 13  2  0
 15 14  1  0
 15 20  2  0
 16 15  1  0
 17 16  2  0
 17 18  1  0
 18 19  2  0
 19 20  1  0
 20 12  1  0
 21 16  1  0
 22 11  1  0
 23 22  2  0
  1 24  1  0
  2 25  1  0
  8 26  1  0
  9 27  1  0
 13 28  1  0
 18 29  1  0
 21 30  1  0
 21 31  1  0
 22 32  1  0
M  ISO  7  24  14  25  14  26  14  27  14  28  14  29  14  32   6
M  END
>  <minimizedAffinity>  (1) 
-6.25475836

>  <minimizedRMSD>  (1) 
0.323508143

$$$$
