
     RDKit          3D

 32 33  0  0  1  0  0  0  0  0999 V2000
   47.8440   35.1350   41.1090 C   0  0  2  0  0  0  0  0  0  0  0  0
   49.4970   31.9530   39.8800 C   0  0  0  0  0  0  0  0  0  0  0  0
   49.0520   32.9520   40.7700 C   0  0  0  0  0  0  0  0  0  0  0  0
   48.3420   34.0450   40.2240 C   0  0  0  0  0  0  0  0  0  0  0  0
   48.1330   34.0710   38.8920 N   0  0  0  0  0  0  0  0  0  0  0  0
   48.5700   33.1010   38.0600 C   0  0  0  0  0  0  0  0  0  0  0  0
   49.2530   32.0400   38.5510 N   0  0  0  0  0  0  0  0  0  0  0  0
   49.0670   35.7710   41.7580 C   0  0  0  0  0  0  0  0  0  0  0  0
   46.8960   34.5830   42.1580 C   0  0  0  0  0  0  0  0  0  0  0  0
   45.5130   34.8500   41.8950 N   0  0  0  0  0  0  0  0  0  0  0  0
   44.8700   34.3570   40.8120 C   0  0  0  0  0  0  0  0  0  0  0  0
   43.5560   34.6040   40.5520 C   0  0  0  0  0  0  0  0  0  0  0  0
   42.8250   34.0760   39.3680 C   0  0  0  0  0  0  0  0  0  0  0  0
   42.8660   35.4090   41.4640 C   0  0  0  0  0  0  0  0  0  0  0  0
   41.6360   35.7000   41.3130 O   0  0  0  0  0  0  0  0  0  0  0  0
   43.4610   35.9220   42.5550 N   0  0  0  0  0  0  0  0  0  0  0  0
   44.7620   35.6100   42.7090 C   0  0  0  0  0  0  0  0  0  0  0  0
   45.3530   36.0840   43.7380 O   0  0  0  0  0  0  0  0  0  0  0  0
   47.2791   35.8823   40.5324 H   0  0  0  0  0  0  0  0  0  0  0  0
   50.0520   31.0880   40.2721 H   0  0  0  0  0  0  0  0  0  0  0  0
   49.2503   32.8831   41.8498 H   0  0  0  0  0  0  0  0  0  0  0  0
   48.3705   33.1731   36.9806 H   0  0  0  0  0  0  0  0  0  0  0  0
   48.9694   35.7202   42.8525 H   0  0  0  0  0  0  0  0  0  0  0  0
   49.9717   35.2291   41.4450 H   0  0  0  0  0  0  0  0  0  0  0  0
   49.1429   36.8228   41.4450 H   0  0  0  0  0  0  0  0  0  0  0  0
   47.0338   33.4928   42.2087 H   0  0  0  0  0  0  0  0  0  0  0  0
   47.1420   35.0868   43.1044 H   0  0  0  0  0  0  0  0  0  0  0  0
   45.4345   33.7273   40.1085 H   0  0  0  0  0  0  0  0  0  0  0  0
   41.9761   33.4628   39.7047 H   0  0  0  0  0  0  0  0  0  0  0  0
   42.4534   34.9155   38.7621 H   0  0  0  0  0  0  0  0  0  0  0  0
   43.5052   33.4594   38.7621 H   0  0  0  0  0  0  0  0  0  0  0  0
   42.9551   36.5146   43.2287 H   0  0  0  0  0  0  0  0  0  0  0  0
  1  8  1  0
  1  9  1  0
  2  3  2  0
  4  3  1  0
  4  1  1  0
  5  4  2  0
  6  7  2  0
  6  5  1  0
  7  2  1  0
 10  9  1  0
 10 17  1  0
 11 10  1  0
 12 11  2  0
 12 14  1  0
 13 12  1  0
 14 16  1  0
 15 14  2  0
 16 17  1  0
 17 18  2  0
  1 19  1  6
  2 20  1  0
  3 21  1  0
  6 22  1  0
  8 23  1  0
  8 24  1  0
  8 25  1  0
  9 26  1  0
  9 27  1  0
 11 28  1  0
 13 29  1  0
 13 30  1  0
 13 31  1  0
 16 32  1  0
M  ISO  8  19   8  20  14  21  14  22  14  23   8  24   8  25   8  26   8
M  ISO  6  27   8  28  14  29   8  30   8  31   8  32   9
M  END
>  <minimizedAffinity>  (1) 
-5.07017183

>  <minimizedRMSD>  (1) 
5.82454681

$$$$
