
     RDKit          3D

 33 35  0  0  1  0  0  0  0  0999 V2000
   46.0800   34.2380   40.9230 C   0  0  0  0  0  0  0  0  0  0  0  0
   46.8530   33.8510   39.7810 N   0  0  0  0  0  0  0  0  0  0  0  0
   48.1820   33.9710   39.5880 C   0  0  0  0  0  0  0  0  0  0  0  0
   48.4430   33.4630   38.3500 N   0  0  0  0  0  0  0  0  0  0  0  0
   47.3170   33.0310   37.7700 C   0  0  0  0  0  0  0  0  0  0  0  0
   47.0020   32.4450   36.5580 C   0  0  0  0  0  0  0  0  0  0  0  0
   47.8860   32.2120   35.7220 O   0  0  0  0  0  0  0  0  0  0  0  0
   45.7240   32.1020   36.2290 N   0  0  0  0  0  0  0  0  0  0  0  0
   44.7850   32.3670   37.1550 C   0  0  0  0  0  0  0  0  0  0  0  0
   43.4370   32.0090   36.8170 N   0  0  0  0  0  0  0  0  0  0  0  0
   45.0220   32.9350   38.3560 N   0  0  0  0  0  0  0  0  0  0  0  0
   46.2910   33.2780   38.6840 C   0  0  0  0  0  0  0  0  0  0  0  0
   46.9770   34.2970   42.1670 C   0  0  2  0  0  0  0  0  0  0  0  0
   44.5630   35.8050   44.6430 C   0  0  0  0  0  0  0  0  0  0  0  0
   45.2860   35.6230   43.4490 C   0  0  0  0  0  0  0  0  0  0  0  0
   46.1950   34.5360   43.3870 C   0  0  0  0  0  0  0  0  0  0  0  0
   46.3000   33.7560   44.4800 N   0  0  0  0  0  0  0  0  0  0  0  0
   45.5970   33.9540   45.6090 C   0  0  0  0  0  0  0  0  0  0  0  0
   44.7290   34.9740   45.6940 N   0  0  0  0  0  0  0  0  0  0  0  0
   47.9900   35.4230   42.0330 C   0  0  0  0  0  0  0  0  0  0  0  0
   45.2781   33.5030   41.0864 H   0  0  0  0  0  0  0  0  0  0  0  0
   45.6437   35.2318   40.7444 H   0  0  0  0  0  0  0  0  0  0  0  0
   48.9129   34.3958   40.2918 H   0  0  0  0  0  0  0  0  0  0  0  0
   45.4915   31.6660   35.3253 H   0  0  0  0  0  0  0  0  0  0  0  0
   42.6738   32.1871   37.4854 H   0  0  0  0  0  0  0  0  0  0  0  0
   43.2327   31.5740   35.9060 H   0  0  0  0  0  0  0  0  0  0  0  0
   47.4841   33.3239   42.2435 H   0  0  0  0  0  0  0  0  0  0  0  0
   43.8501   36.6391   44.7211 H   0  0  0  0  0  0  0  0  0  0  0  0
   45.1506   36.3007   42.5932 H   0  0  0  0  0  0  0  0  0  0  0  0
   45.7338   33.2777   46.4657 H   0  0  0  0  0  0  0  0  0  0  0  0
   48.2954   35.7625   43.0337 H   0  0  0  0  0  0  0  0  0  0  0  0
   48.8714   35.0599   41.4842 H   0  0  0  0  0  0  0  0  0  0  0  0
   47.5360   36.2613   41.4842 H   0  0  0  0  0  0  0  0  0  0  0  0
  1 13  1  0
  2  1  1  0
  3  2  1  0
  4  3  2  0
  5  4  1  0
  5 12  2  0
  6  5  1  0
  7  6  2  0
  8  6  1  0
  8  9  1  0
  9 11  2  0
 10  9  1  0
 11 12  1  0
 12  2  1  0
 13 16  1  0
 14 19  2  0
 15 14  1  0
 16 15  2  0
 16 17  1  0
 17 18  2  0
 18 19  1  0
 20 13  1  0
  1 21  1  0
  1 22  1  0
  3 23  1  0
  8 24  1  0
 10 25  1  0
 10 26  1  0
 13 27  1  1
 14 28  1  0
 15 29  1  0
 18 30  1  0
 20 31  1  0
 20 32  1  0
 20 33  1  0
M  ISO  8  21   8  22   8  23  14  24   9  27   8  28  14  29  14  30  14
M  ISO  3  31   8  32   8  33   8
M  END
>  <minimizedAffinity>  (1) 
-5.12287474

>  <minimizedRMSD>  (1) 
0.411792696

$$$$
