
     RDKit          3D

 29 30  0  0  1  0  0  0  0  0999 V2000
   47.8040   34.4590   41.7330 C   0  0  2  0  0  0  0  0  0  0  0  0
   44.9330   35.7050   43.8410 C   0  0  0  0  0  0  0  0  0  0  0  0
   45.8410   35.6110   42.7660 C   0  0  0  0  0  0  0  0  0  0  0  0
   46.8300   34.5970   42.8260 C   0  0  0  0  0  0  0  0  0  0  0  0
   46.8230   33.8020   43.9120 N   0  0  0  0  0  0  0  0  0  0  0  0
   45.9540   33.9010   44.9280 C   0  0  0  0  0  0  0  0  0  0  0  0
   45.0130   34.8480   44.8950 N   0  0  0  0  0  0  0  0  0  0  0  0
   48.7020   35.6700   41.7650 C   0  0  0  0  0  0  0  0  0  0  0  0
   47.1500   34.3190   40.3960 C   0  0  0  0  0  0  0  0  0  0  0  0
   47.9580   33.7730   39.3260 C   0  0  0  0  0  0  0  0  0  0  0  0
   48.6730   32.6090   39.5900 C   0  0  0  0  0  0  0  0  0  0  0  0
   49.4860   31.9630   38.6900 C   0  0  0  0  0  0  0  0  0  0  0  0
   49.6160   32.4990   37.4120 C   0  0  0  0  0  0  0  0  0  0  0  0
   48.9240   33.6520   37.1120 C   0  0  0  0  0  0  0  0  0  0  0  0
   48.1160   34.2720   38.0440 C   0  0  0  0  0  0  0  0  0  0  0  0
   48.3835   33.5360   41.8822 H   0  0  0  0  0  0  0  0  0  0  0  0
   44.1518   36.4793   43.8273 H   0  0  0  0  0  0  0  0  0  0  0  0
   45.7839   36.3004   41.9108 H   0  0  0  0  0  0  0  0  0  0  0  0
   46.0155   33.2088   45.7807 H   0  0  0  0  0  0  0  0  0  0  0  0
   48.9072   35.9468   42.8096 H   0  0  0  0  0  0  0  0  0  0  0  0
   49.6483   35.4383   41.2544 H   0  0  0  0  0  0  0  0  0  0  0  0
   48.2055   36.5083   41.2544 H   0  0  0  0  0  0  0  0  0  0  0  0
   46.2760   33.6628   40.5206 H   0  0  0  0  0  0  0  0  0  0  0  0
   46.9152   35.3469   40.0824 H   0  0  0  0  0  0  0  0  0  0  0  0
   48.5805   32.1727   40.5955 H   0  0  0  0  0  0  0  0  0  0  0  0
   50.0212   31.0445   38.9727 H   0  0  0  0  0  0  0  0  0  0  0  0
   50.2556   32.0139   36.6599 H   0  0  0  0  0  0  0  0  0  0  0  0
   49.0175   34.0886   36.1067 H   0  0  0  0  0  0  0  0  0  0  0  0
   47.5814   35.1903   37.7596 H   0  0  0  0  0  0  0  0  0  0  0  0
  1  8  1  0
  1  4  1  0
  2  7  2  0
  3  4  2  0
  3  2  1  0
  4  5  1  0
  5  6  2  0
  7  6  1  0
  9  1  1  0
 10 11  2  0
 10  9  1  0
 12 11  1  0
 13 12  2  0
 14 13  1  0
 14 15  2  0
 15 10  1  0
  1 16  1  1
  2 17  1  0
  3 18  1  0
  6 19  1  0
  8 20  1  0
  8 21  1  0
  8 22  1  0
  9 23  1  0
  9 24  1  0
 11 25  1  0
 12 26  1  0
 13 27  1  0
 14 28  1  0
 15 29  1  0
M  ISO  8  16   8  17  14  18  14  19  14  20   8  21   8  22   8  23   8
M  ISO  6  24   8  25  14  26  14  27  14  28  14  29  14
M  END
>  <minimizedAffinity>  (1) 
-4.58451557

>  <minimizedRMSD>  (1) 
3.60741162

$$$$
