
     RDKit          3D

 35 37  0  0  1  0  0  0  0  0999 V2000
   47.6730   34.4150   41.8030 C   0  0  2  0  0  0  0  0  0  0  0  0
   44.8450   35.9070   43.8300 C   0  0  0  0  0  0  0  0  0  0  0  0
   45.7490   35.7310   42.7760 C   0  0  0  0  0  0  0  0  0  0  0  0
   46.6790   34.6790   42.8720 C   0  0  0  0  0  0  0  0  0  0  0  0
   46.6190   33.9150   43.9940 N   0  0  0  0  0  0  0  0  0  0  0  0
   45.7480   34.0960   44.9950 C   0  0  0  0  0  0  0  0  0  0  0  0
   44.8590   35.0900   44.9160 N   0  0  0  0  0  0  0  0  0  0  0  0
   48.5450   35.6580   41.7070 C   0  0  0  0  0  0  0  0  0  0  0  0
   46.9800   34.1420   40.4870 C   0  0  0  0  0  0  0  0  0  0  0  0
   47.8630   33.5910   39.4620 C   0  0  0  0  0  0  0  0  0  0  0  0
   47.9990   34.2460   38.2310 C   0  0  0  0  0  0  0  0  0  0  0  0
   48.8120   33.8310   37.1940 C   0  0  0  0  0  0  0  0  0  0  0  0
   49.5240   32.6890   37.4160 C   0  0  0  0  0  0  0  0  0  0  0  0
   49.4630   31.9710   38.5860 C   0  0  0  0  0  0  0  0  0  0  0  0
   50.2100   30.8220   38.7420 C   0  0  0  0  0  0  0  0  0  0  0  0
   50.0960   30.1400   39.9550 C   0  0  0  0  0  0  0  0  0  0  0  0
   49.2740   30.5840   40.9670 C   0  0  0  0  0  0  0  0  0  0  0  0
   48.5530   31.7410   40.7520 C   0  0  0  0  0  0  0  0  0  0  0  0
   48.6300   32.4510   39.5730 C   0  0  0  0  0  0  0  0  0  0  0  0
   48.2787   33.5266   42.0351 H   0  0  0  0  0  0  0  0  0  0  0  0
   44.1087   36.7226   43.7783 H   0  0  0  0  0  0  0  0  0  0  0  0
   45.7331   36.3949   41.8991 H   0  0  0  0  0  0  0  0  0  0  0  0
   45.7644   33.4333   45.8728 H   0  0  0  0  0  0  0  0  0  0  0  0
   48.7927   36.0111   42.7189 H   0  0  0  0  0  0  0  0  0  0  0  0
   49.4716   35.4150   41.1664 H   0  0  0  0  0  0  0  0  0  0  0  0
   48.0011   36.4466   41.1664 H   0  0  0  0  0  0  0  0  0  0  0  0
   46.1653   33.4249   40.6657 H   0  0  0  0  0  0  0  0  0  0  0  0
   46.6133   35.1082   40.1101 H   0  0  0  0  0  0  0  0  0  0  0  0
   47.4118   35.1635   38.0780 H   0  0  0  0  0  0  0  0  0  0  0  0
   48.8809   34.3873   36.2475 H   0  0  0  0  0  0  0  0  0  0  0  0
   50.1829   32.3229   36.6149 H   0  0  0  0  0  0  0  0  0  0  0  0
   50.8702   30.4570   37.9415 H   0  0  0  0  0  0  0  0  0  0  0  0
   50.6802   29.2205   40.1070 H   0  0  0  0  0  0  0  0  0  0  0  0
   49.1947   30.0340   41.9163 H   0  0  0  0  0  0  0  0  0  0  0  0
   47.8928   32.1101   41.5507 H   0  0  0  0  0  0  0  0  0  0  0  0
  1  4  1  0
  2  7  2  0
  3  4  2  0
  3  2  1  0
  4  5  1  0
  5  6  2  0
  7  6  1  0
  8  1  1  0
  9  1  1  0
 10 19  1  0
 10  9  1  0
 11 10  2  0
 12 13  2  0
 12 11  1  0
 13 14  1  0
 14 15  1  0
 14 19  2  0
 15 16  2  0
 16 17  1  0
 18 17  2  0
 19 18  1  0
  1 20  1  1
  2 21  1  0
  3 22  1  0
  6 23  1  0
  8 24  1  0
  8 25  1  0
  8 26  1  0
  9 27  1  0
  9 28  1  0
 11 29  1  0
 12 30  1  0
 13 31  1  0
 15 32  1  0
 16 33  1  0
 17 34  1  0
 18 35  1  0
M  ISO  8  20   8  21  14  22  14  23  14  24   8  25   8  26   8  27   8
M  ISO  8  28   8  29  14  30  14  31  14  32  14  33  14  34  14  35  14
M  END
>  <minimizedAffinity>  (1) 
-4.89911842

>  <minimizedRMSD>  (1) 
0.830022216

$$$$
