
     RDKit          3D

 32 34  0  0  1  0  0  0  0  0999 V2000
   48.0140   34.3170   41.3860 C   0  0  2  0  0  0  0  0  0  0  0  0
   45.3030   35.1620   43.8900 C   0  0  0  0  0  0  0  0  0  0  0  0
   46.0700   35.2140   42.7110 C   0  0  0  0  0  0  0  0  0  0  0  0
   47.1630   34.3170   42.5960 C   0  0  0  0  0  0  0  0  0  0  0  0
   47.3980   33.4670   43.6290 N   0  0  0  0  0  0  0  0  0  0  0  0
   46.6470   33.4390   44.7470 C   0  0  0  0  0  0  0  0  0  0  0  0
   45.6060   34.2760   44.8840 N   0  0  0  0  0  0  0  0  0  0  0  0
   48.7800   35.6350   41.3840 C   0  0  0  0  0  0  0  0  0  0  0  0
   47.1820   34.1950   40.1250 C   0  0  0  0  0  0  0  0  0  0  0  0
   48.0410   33.7510   39.0430 N   0  0  0  0  0  0  0  0  0  0  0  0
   48.2670   34.3860   37.8800 C   0  0  0  0  0  0  0  0  0  0  0  0
   49.1270   33.6780   37.1010 N   0  0  0  0  0  0  0  0  0  0  0  0
   49.4460   32.5840   37.7870 C   0  0  0  0  0  0  0  0  0  0  0  0
   50.2660   31.5050   37.5170 C   0  0  0  0  0  0  0  0  0  0  0  0
   50.4030   30.5100   38.4250 N   0  0  0  0  0  0  0  0  0  0  0  0
   49.7380   30.5760   39.5890 C   0  0  0  0  0  0  0  0  0  0  0  0
   48.9480   31.6180   39.8460 N   0  0  0  0  0  0  0  0  0  0  0  0
   48.7710   32.6360   38.9850 C   0  0  0  0  0  0  0  0  0  0  0  0
   50.9860   31.4050   36.2930 N   0  0  0  0  0  0  0  0  0  0  0  0
   48.6974   33.4552   41.4029 H   0  0  0  0  0  0  0  0  0  0  0  0
   44.4485   35.8438   44.0123 H   0  0  0  0  0  0  0  0  0  0  0  0
   45.8303   35.9253   41.9069 H   0  0  0  0  0  0  0  0  0  0  0  0
   46.8875   32.7277   45.5508 H   0  0  0  0  0  0  0  0  0  0  0  0
   48.9649   35.9532   42.4206 H   0  0  0  0  0  0  0  0  0  0  0  0
   49.7404   35.5001   40.8650 H   0  0  0  0  0  0  0  0  0  0  0  0
   48.1874   36.4027   40.8650 H   0  0  0  0  0  0  0  0  0  0  0  0
   46.3762   33.4629   40.2824 H   0  0  0  0  0  0  0  0  0  0  0  0
   46.7357   35.1687   39.8743 H   0  0  0  0  0  0  0  0  0  0  0  0
   47.8167   35.3488   37.5968 H   0  0  0  0  0  0  0  0  0  0  0  0
   49.8450   29.7705   40.3304 H   0  0  0  0  0  0  0  0  0  0  0  0
   51.5907   30.5901   36.1163 H   0  0  0  0  0  0  0  0  0  0  0  0
   50.9023   32.1475   35.5841 H   0  0  0  0  0  0  0  0  0  0  0  0
  1  4  1  0
  2  7  2  0
  3  2  1  0
  4  3  2  0
  4  5  1  0
  5  6  2  0
  6  7  1  0
  8  1  1  0
  9  1  1  0
 10  9  1  0
 11 10  1  0
 12 13  1  0
 12 11  2  0
 13 18  2  0
 14 13  1  0
 14 15  2  0
 15 16  1  0
 16 17  2  0
 18 10  1  0
 18 17  1  0
 19 14  1  0
  1 20  1  1
  2 21  1  0
  3 22  1  0
  6 23  1  0
  8 24  1  0
  8 25  1  0
  8 26  1  0
  9 27  1  0
  9 28  1  0
 11 29  1  0
 16 30  1  0
 19 31  1  0
 19 32  1  0
M  ISO  8  20   8  21  14  22  14  23  14  24   8  25   8  26   8  27   8
M  ISO  3  28   8  29  14  30  14
M  END
>  <minimizedAffinity>  (1) 
-4.85790491

>  <minimizedRMSD>  (1) 
1.27003694

$$$$
