
     RDKit          3D

 26 27  0  0  1  0  0  0  0  0999 V2000
   47.3350   34.3900   42.0340 C   0  0  2  0  0  0  0  0  0  0  0  0
   44.6960   36.0140   44.1700 C   0  0  0  0  0  0  0  0  0  0  0  0
   45.5500   35.8010   43.0650 C   0  0  0  0  0  0  0  0  0  0  0  0
   46.4140   34.6790   43.1410 C   0  0  0  0  0  0  0  0  0  0  0  0
   46.3750   33.8880   44.2490 N   0  0  0  0  0  0  0  0  0  0  0  0
   45.5290   34.1460   45.2840 C   0  0  0  0  0  0  0  0  0  0  0  0
   44.6910   35.2030   45.2460 N   0  0  0  0  0  0  0  0  0  0  0  0
   48.3460   35.5270   41.9630 C   0  0  0  0  0  0  0  0  0  0  0  0
   46.6130   34.2400   40.7130 C   0  0  0  0  0  0  0  0  0  0  0  0
   47.6270   33.7350   39.7460 C   0  0  0  0  0  0  0  0  0  0  0  0
   48.2350   32.4840   39.8760 C   0  0  0  0  0  0  0  0  0  0  0  0
   49.1210   32.3220   38.8230 C   0  0  0  0  0  0  0  0  0  0  0  0
   49.0300   33.4690   38.0890 N   0  0  0  0  0  0  0  0  0  0  0  0
   48.1460   34.2980   38.6380 N   0  0  0  0  0  0  0  0  0  0  0  0
   47.8364   33.4293   42.2230 H   0  0  0  0  0  0  0  0  0  0  0  0
   44.0099   36.8736   44.1513 H   0  0  0  0  0  0  0  0  0  0  0  0
   45.5451   36.4700   42.1919 H   0  0  0  0  0  0  0  0  0  0  0  0
   45.5286   33.4842   46.1627 H   0  0  0  0  0  0  0  0  0  0  0  0
   48.6215   35.8368   42.9819 H   0  0  0  0  0  0  0  0  0  0  0  0
   49.2445   35.1858   41.4279 H   0  0  0  0  0  0  0  0  0  0  0  0
   47.9021   36.3795   41.4279 H   0  0  0  0  0  0  0  0  0  0  0  0
   45.7855   33.5217   40.8091 H   0  0  0  0  0  0  0  0  0  0  0  0
   46.1792   35.1945   40.3802 H   0  0  0  0  0  0  0  0  0  0  0  0
   48.0435   31.7537   40.6760 H   0  0  0  0  0  0  0  0  0  0  0  0
   49.7628   31.4518   38.6211 H   0  0  0  0  0  0  0  0  0  0  0  0
   49.5684   33.6647   37.2330 H   0  0  0  0  0  0  0  0  0  0  0  0
  1  4  1  0
  2  7  2  0
  3  4  2  0
  3  2  1  0
  4  5  1  0
  5  6  2  0
  7  6  1  0
  8  1  1  0
  9  1  1  0
 10 11  1  0
 10  9  1  0
 12 11  2  0
 13 14  1  0
 13 12  1  0
 14 10  2  0
  1 15  1  1
  2 16  1  0
  3 17  1  0
  6 18  1  0
  8 19  1  0
  8 20  1  0
  8 21  1  0
  9 22  1  0
  9 23  1  0
 11 24  1  0
 12 25  1  0
 13 26  1  0
M  ISO  8  15   8  16  14  17  14  18  14  19   8  20   8  21   8  22   8
M  ISO  4  23   8  24  14  25  14  26   9
M  END
>  <minimizedAffinity>  (1) 
-4.39371395

>  <minimizedRMSD>  (1) 
0.378008991

$$$$
