
     RDKit          3D

 21 21  0  0  1  0  0  0  0  0999 V2000
   47.0910   34.2630   42.0830 C   0  0  2  0  0  0  0  0  0  0  0  0
   44.6440   36.0770   44.3240 C   0  0  0  0  0  0  0  0  0  0  0  0
   45.4290   35.7860   43.1950 C   0  0  0  0  0  0  0  0  0  0  0  0
   46.2440   34.6270   43.2250 C   0  0  0  0  0  0  0  0  0  0  0  0
   46.2110   33.8690   44.3510 N   0  0  0  0  0  0  0  0  0  0  0  0
   45.4420   34.1800   45.4190 C   0  0  0  0  0  0  0  0  0  0  0  0
   44.6620   35.2760   45.4070 N   0  0  0  0  0  0  0  0  0  0  0  0
   48.1390   35.3560   41.9220 C   0  0  0  0  0  0  0  0  0  0  0  0
   46.2680   34.1790   40.7930 C   0  0  0  0  0  0  0  0  0  0  0  0
   45.4270   33.0030   40.7950 N   0  0  0  0  0  0  0  0  0  0  0  0
   47.5504   33.2804   42.2657 H   0  0  0  0  0  0  0  0  0  0  0  0
   44.0052   36.9725   44.3233 H   0  0  0  0  0  0  0  0  0  0  0  0
   45.4112   36.4407   42.3113 H   0  0  0  0  0  0  0  0  0  0  0  0
   45.4544   33.5302   46.3065 H   0  0  0  0  0  0  0  0  0  0  0  0
   48.4672   35.6983   42.9145 H   0  0  0  0  0  0  0  0  0  0  0  0
   49.0017   34.9580   41.3676 H   0  0  0  0  0  0  0  0  0  0  0  0
   47.7051   36.2012   41.3676 H   0  0  0  0  0  0  0  0  0  0  0  0
   46.9511   34.1322   39.9321 H   0  0  0  0  0  0  0  0  0  0  0  0
   45.6268   35.0703   40.7257 H   0  0  0  0  0  0  0  0  0  0  0  0
   45.2281   32.7248   41.7666 H   0  0  0  0  0  0  0  0  0  0  0  0
   44.5428   33.2124   40.3099 H   0  0  0  0  0  0  0  0  0  0  0  0
  1  4  1  0
  2  7  2  0
  3  4  2  0
  3  2  1  0
  4  5  1  0
  5  6  2  0
  7  6  1  0
  8  1  1  0
  9 10  1  0
  9  1  1  0
  1 11  1  1
  2 12  1  0
  3 13  1  0
  6 14  1  0
  8 15  1  0
  8 16  1  0
  8 17  1  0
  9 18  1  0
  9 19  1  0
 10 20  1  0
 10 21  1  0
M  ISO  8  11   8  12  14  13  14  14  14  15   8  16   8  17   8  18   8
M  ISO  3  19   8  20   5  21   5
M  END
>  <minimizedAffinity>  (1) 
-3.46700788

>  <minimizedRMSD>  (1) 
0.111551218

$$$$
