
     RDKit          3D

 25 26  0  0  1  0  0  0  0  0999 V2000
   47.5190   34.3480   41.8920 C   0  0  2  0  0  0  0  0  0  0  0  0
   44.7830   35.8460   44.0250 C   0  0  0  0  0  0  0  0  0  0  0  0
   45.6470   35.6760   42.9250 C   0  0  0  0  0  0  0  0  0  0  0  0
   46.5770   34.6070   42.9890 C   0  0  0  0  0  0  0  0  0  0  0  0
   46.5600   33.8360   44.1050 N   0  0  0  0  0  0  0  0  0  0  0  0
   45.7220   34.0270   45.1380 C   0  0  0  0  0  0  0  0  0  0  0  0
   44.8370   35.0250   45.1020 N   0  0  0  0  0  0  0  0  0  0  0  0
   48.4480   35.5460   41.8060 C   0  0  0  0  0  0  0  0  0  0  0  0
   46.7810   34.1890   40.5650 C   0  0  0  0  0  0  0  0  0  0  0  0
   47.6550   33.7010   39.5300 N   0  0  0  0  0  0  0  0  0  0  0  0
   48.3700   32.5920   39.6830 C   0  0  0  0  0  0  0  0  0  0  0  0
   49.0980   32.3570   38.5780 N   0  0  0  0  0  0  0  0  0  0  0  0
   48.8250   33.3590   37.7050 C   0  0  0  0  0  0  0  0  0  0  0  0
   47.9400   34.1610   38.3200 N   0  0  0  0  0  0  0  0  0  0  0  0
   48.0731   33.4176   42.0854 H   0  0  0  0  0  0  0  0  0  0  0  0
   44.0477   36.6640   44.0093 H   0  0  0  0  0  0  0  0  0  0  0  0
   45.6021   36.3447   42.0527 H   0  0  0  0  0  0  0  0  0  0  0  0
   45.7656   33.3612   46.0125 H   0  0  0  0  0  0  0  0  0  0  0  0
   48.7083   35.8817   42.8207 H   0  0  0  0  0  0  0  0  0  0  0  0
   49.3641   35.2617   41.2675 H   0  0  0  0  0  0  0  0  0  0  0  0
   47.9446   36.3625   41.2675 H   0  0  0  0  0  0  0  0  0  0  0  0
   45.9536   33.4767   40.6993 H   0  0  0  0  0  0  0  0  0  0  0  0
   46.4027   35.1759   40.2602 H   0  0  0  0  0  0  0  0  0  0  0  0
   48.3667   31.9587   40.5824 H   0  0  0  0  0  0  0  0  0  0  0  0
   49.2441   33.4887   36.6963 H   0  0  0  0  0  0  0  0  0  0  0  0
  1  4  1  0
  2  7  2  0
  3  4  2  0
  3  2  1  0
  4  5  1  0
  5  6  2  0
  7  6  1  0
  8  1  1  0
  9  1  1  0
 10 11  1  0
 10  9  1  0
 12 11  2  0
 13 14  2  0
 13 12  1  0
 14 10  1  0
  1 15  1  1
  2 16  1  0
  3 17  1  0
  6 18  1  0
  8 19  1  0
  8 20  1  0
  8 21  1  0
  9 22  1  0
  9 23  1  0
 11 24  1  0
 13 25  1  0
M  ISO  8  15   8  16  14  17  14  18  14  19   8  20   8  21   8  22   8
M  ISO  3  23   8  24  14  25  14
M  END
>  <minimizedAffinity>  (1) 
-4.07065725

>  <minimizedRMSD>  (1) 
0.585990548

$$$$
