
     RDKit          3D

 29 30  0  0  1  0  0  0  0  0999 V2000
   47.2960   34.3480   42.0420 C   0  0  2  0  0  0  0  0  0  0  0  0
   44.6930   36.0300   44.1700 C   0  0  0  0  0  0  0  0  0  0  0  0
   45.5460   35.7810   43.0820 C   0  0  0  0  0  0  0  0  0  0  0  0
   46.3910   34.6730   43.1490 C   0  0  0  0  0  0  0  0  0  0  0  0
   46.3350   33.9030   44.2700 N   0  0  0  0  0  0  0  0  0  0  0  0
   45.5050   34.1700   45.2970 C   0  0  0  0  0  0  0  0  0  0  0  0
   44.6790   35.2320   45.2570 N   0  0  0  0  0  0  0  0  0  0  0  0
   48.2950   35.4760   41.9140 C   0  0  0  0  0  0  0  0  0  0  0  0
   46.5640   34.1590   40.7270 C   0  0  0  0  0  0  0  0  0  0  0  0
   47.0800   33.2060   39.8530 N   0  0  0  0  0  0  0  0  0  0  0  0
   47.6180   33.7410   38.6560 C   0  0  0  0  0  0  0  0  0  0  0  0
   48.8180   32.8990   38.2740 C   0  0  0  0  0  0  0  0  0  0  0  0
   48.9330   31.8300   39.3340 C   0  0  0  0  0  0  0  0  0  0  0  0
   47.7690   32.0750   40.2920 C   0  0  0  0  0  0  0  0  0  0  0  0
   47.7937   33.3927   42.2648 H   0  0  0  0  0  0  0  0  0  0  0  0
   44.0189   36.8985   44.1344 H   0  0  0  0  0  0  0  0  0  0  0  0
   45.5476   36.4411   42.2020 H   0  0  0  0  0  0  0  0  0  0  0  0
   45.5023   33.5123   46.1787 H   0  0  0  0  0  0  0  0  0  0  0  0
   48.5954   35.8152   42.9163 H   0  0  0  0  0  0  0  0  0  0  0  0
   49.1805   35.1212   41.3663 H   0  0  0  0  0  0  0  0  0  0  0  0
   47.8358   36.3121   41.3663 H   0  0  0  0  0  0  0  0  0  0  0  0
   45.5287   33.8702   40.9609 H   0  0  0  0  0  0  0  0  0  0  0  0
   46.6667   35.1189   40.1997 H   0  0  0  0  0  0  0  0  0  0  0  0
   47.2334   34.6111   38.1037 H   0  0  0  0  0  0  0  0  0  0  0  0
   49.4729   33.0382   37.4012 H   0  0  0  0  0  0  0  0  0  0  0  0
   48.8541   30.8305   38.8815 H   0  0  0  0  0  0  0  0  0  0  0  0
   49.9025   31.8728   39.8519 H   0  0  0  0  0  0  0  0  0  0  0  0
   48.1519   32.2427   41.3095 H   0  0  0  0  0  0  0  0  0  0  0  0
   47.0991   31.2027   40.3104 H   0  0  0  0  0  0  0  0  0  0  0  0
  1  4  1  0
  2  7  2  0
  3  4  2  0
  3  2  1  0
  4  5  1  0
  5  6  2  0
  7  6  1  0
  8  1  1  0
  9  1  1  0
 10 14  1  0
 10  9  1  0
 11 10  1  0
 12 11  2  0
 12 13  1  0
 13 14  1  0
  1 15  1  1
  2 16  1  0
  3 17  1  0
  6 18  1  0
  8 19  1  0
  8 20  1  0
  8 21  1  0
  9 22  1  0
  9 23  1  0
 11 24  1  0
 12 25  1  0
 13 26  1  0
 13 27  1  0
 14 28  1  0
 14 29  1  0
M  ISO  8  15   8  16  14  17  14  18  14  19   8  20   8  21   8  22   8
M  ISO  7  23   8  24  13  25  13  26  13  27  13  28  13  29  13
M  END
>  <minimizedAffinity>  (1) 
-3.95036864

>  <minimizedRMSD>  (1) 
2.32677126

$$$$
