
     RDKit          3D

 20 20  0  0  1  0  0  0  0  0999 V2000
   47.3280   34.3410   42.0390 C   0  0  2  0  0  0  0  0  0  0  0  0
   44.6920   36.0380   44.1480 C   0  0  0  0  0  0  0  0  0  0  0  0
   45.5540   35.7800   43.0640 C   0  0  0  0  0  0  0  0  0  0  0  0
   46.4100   34.6540   43.1450 C   0  0  0  0  0  0  0  0  0  0  0  0
   46.3470   33.8950   44.2580 N   0  0  0  0  0  0  0  0  0  0  0  0
   45.5020   34.1700   45.2880 C   0  0  0  0  0  0  0  0  0  0  0  0
   44.6760   35.2380   45.2380 N   0  0  0  0  0  0  0  0  0  0  0  0
   48.3140   35.4730   41.9190 C   0  0  0  0  0  0  0  0  0  0  0  0
   46.5580   34.1470   40.7250 C   0  0  0  0  0  0  0  0  0  0  0  0
   47.6930   33.8480   39.3700 S   0  0  0  0  0  0  0  0  0  0  0  0
   47.8572   33.3990   42.2455 H   0  0  0  0  0  0  0  0  0  0  0  0
   44.0189   36.9071   44.1069 H   0  0  0  0  0  0  0  0  0  0  0  0
   45.5622   36.4343   42.1798 H   0  0  0  0  0  0  0  0  0  0  0  0
   45.4911   33.5152   46.1718 H   0  0  0  0  0  0  0  0  0  0  0  0
   48.6083   35.8109   42.9236 H   0  0  0  0  0  0  0  0  0  0  0  0
   49.2042   35.1275   41.3729 H   0  0  0  0  0  0  0  0  0  0  0  0
   47.8497   36.3074   41.3729 H   0  0  0  0  0  0  0  0  0  0  0  0
   45.8805   33.2864   40.8262 H   0  0  0  0  0  0  0  0  0  0  0  0
   45.9825   35.0599   40.5120 H   0  0  0  0  0  0  0  0  0  0  0  0
   48.9262   33.5231   39.8705 H   0  0  0  0  0  0  0  0  0  0  0  0
  1  4  1  0
  2  7  2  0
  3  4  2  0
  3  2  1  0
  4  5  1  0
  5  6  2  0
  7  6  1  0
  8  1  1  0
  9  1  1  0
 10  9  1  0
  1 11  1  1
  2 12  1  0
  3 13  1  0
  6 14  1  0
  8 15  1  0
  8 16  1  0
  8 17  1  0
  9 18  1  0
  9 19  1  0
 10 20  1  0
M  ISO  8  11   8  12  14  13  14  14  14  15   8  16   8  17   8  18   8
M  ISO  2  19   8  20  11
M  END
>  <minimizedAffinity>  (1) 
-3.57951689

>  <minimizedRMSD>  (1) 
0.260224223

$$$$
