
     RDKit          3D

 43 47  0  0  1  0  0  0  0  0999 V2000
   45.8810   33.9550   40.3020 N   0  0  0  0  0  0  0  0  0  0  0  0
   46.7320   33.4140   39.4120 C   0  0  0  0  0  0  0  0  0  0  0  0
   46.2770   32.7590   38.2730 C   0  0  0  0  0  0  0  0  0  0  0  0
   44.9150   32.7040   38.1220 C   0  0  0  0  0  0  0  0  0  0  0  0
   44.4340   32.1230   37.1020 O   0  0  0  0  0  0  0  0  0  0  0  0
   44.0630   33.2360   39.0020 N   0  0  0  0  0  0  0  0  0  0  0  0
   44.5520   33.8560   40.0790 C   0  0  0  0  0  0  0  0  0  0  0  0
   43.8040   34.3800   40.9470 O   0  0  0  0  0  0  0  0  0  0  0  0
   42.6480   33.2030   38.8900 C   0  0  0  0  0  0  0  0  0  0  0  0
   42.2000   32.1570   38.1560 N   0  0  0  0  0  0  0  0  0  0  0  0
   40.8620   31.9810   37.9540 C   0  0  0  0  0  0  0  0  0  0  0  0
   40.0000   32.8620   38.4940 N   0  0  0  0  0  0  0  0  0  0  0  0
   40.3940   33.9170   39.2300 C   0  0  0  0  0  0  0  0  0  0  0  0
   39.5520   34.8410   39.8010 C   0  0  0  0  0  0  0  0  0  0  0  0
   40.0090   35.9100   40.5500 C   0  0  0  0  0  0  0  0  0  0  0  0
   41.3940   36.0270   40.7160 C   0  0  0  0  0  0  0  0  0  0  0  0
   42.2930   35.1270   40.1660 C   0  0  0  0  0  0  0  0  0  0  0  0
   41.7440   34.1020   39.4400 C   0  0  0  0  0  0  0  0  0  0  0  0
   46.4930   34.6300   41.3960 C   0  0  0  0  0  0  0  0  0  0  0  0
   46.7960   33.8000   42.5830 C   0  0  2  0  0  0  0  0  0  0  0  0
   44.5550   35.7300   44.8920 C   0  0  0  0  0  0  0  0  0  0  0  0
   45.2660   35.3470   43.7390 C   0  0  0  0  0  0  0  0  0  0  0  0
   46.0540   34.1940   43.7790 C   0  0  0  0  0  0  0  0  0  0  0  0
   46.0880   33.5010   44.9510 N   0  0  0  0  0  0  0  0  0  0  0  0
   45.4120   33.8650   46.0540 C   0  0  0  0  0  0  0  0  0  0  0  0
   44.6450   34.9770   46.0260 N   0  0  0  0  0  0  0  0  0  0  0  0
   48.2890   33.8890   42.9540 C   0  0  0  0  0  0  0  0  0  0  0  0
   47.8148   33.4916   39.5896 H   0  0  0  0  0  0  0  0  0  0  0  0
   46.9655   32.3134   37.5399 H   0  0  0  0  0  0  0  0  0  0  0  0
   44.5293   32.9074   40.6354 H   0  0  0  0  0  0  0  0  0  0  0  0
   40.4938   31.1322   37.3590 H   0  0  0  0  0  0  0  0  0  0  0  0
   38.4678   34.7253   39.6560 H   0  0  0  0  0  0  0  0  0  0  0  0
   39.3142   36.6369   40.9960 H   0  0  0  0  0  0  0  0  0  0  0  0
   41.7850   36.8680   41.3074 H   0  0  0  0  0  0  0  0  0  0  0  0
   47.4387   35.0629   41.0378 H   0  0  0  0  0  0  0  0  0  0  0  0
   45.7569   35.3740   41.7345 H   0  0  0  0  0  0  0  0  0  0  0  0
   46.5020   32.7817   42.2885 H   0  0  0  0  0  0  0  0  0  0  0  0
   43.9285   36.6341   44.8786 H   0  0  0  0  0  0  0  0  0  0  0  0
   45.2021   35.9471   42.8194 H   0  0  0  0  0  0  0  0  0  0  0  0
   45.4825   33.2628   46.9718 H   0  0  0  0  0  0  0  0  0  0  0  0
   48.3950   33.8953   44.0489 H   0  0  0  0  0  0  0  0  0  0  0  0
   48.8223   33.0211   42.5390 H   0  0  0  0  0  0  0  0  0  0  0  0
   48.7154   34.8142   42.5390 H   0  0  0  0  0  0  0  0  0  0  0  0
  1 19  1  0
  2  1  1  0
  3  2  2  0
  4  3  1  0
  4  6  1  0
  5  4  2  0
  6  7  1  0
  7  1  1  0
  7  8  1  0
  9  6  1  0
  9 18  2  0
 10  9  1  0
 11 10  2  0
 11 12  1  0
 12 13  2  0
 13 18  1  0
 13 14  1  0
 14 15  2  0
 15 16  1  0
 17 16  2  0
 17  8  1  0
 18 17  1  0
 19 20  1  0
 20 27  1  0
 20 23  1  0
 21 26  2  0
 22 23  2  0
 22 21  1  0
 23 24  1  0
 24 25  2  0
 26 25  1  0
  2 28  1  0
  3 29  1  0
  7 30  1  0
 11 31  1  0
 14 32  1  0
 15 33  1  0
 16 34  1  0
 19 35  1  0
 19 36  1  0
 20 37  1  6
 21 38  1  0
 22 39  1  0
 25 40  1  0
 27 41  1  0
 27 42  1  0
 27 43  1  0
M  ISO  8  28  13  29  13  30  13  31  14  32  14  33  14  34  14  35   8
M  ISO  8  36   8  37   8  38  14  39  14  40  14  41   8  42   8  43   8
M  END
>  <minimizedAffinity>  (1) 
-6.73310471

>  <minimizedRMSD>  (1) 
2.35834002

$$$$
