
     RDKit          3D

 43 46  0  0  1  0  0  0  0  0999 V2000
   46.2360   34.0550   40.3330 N   0  0  0  0  0  0  0  0  0  0  0  0
   47.1420   33.7010   39.4010 C   0  0  0  0  0  0  0  0  0  0  0  0
   46.7680   33.0350   38.2360 C   0  0  0  0  0  0  0  0  0  0  0  0
   45.4280   32.7590   38.0920 C   0  0  0  0  0  0  0  0  0  0  0  0
   45.0560   32.1620   37.0610 O   0  0  0  0  0  0  0  0  0  0  0  0
   44.4930   33.1020   39.0120 N   0  0  0  0  0  0  0  0  0  0  0  0
   44.9350   33.7450   40.1150 C   0  0  0  0  0  0  0  0  0  0  0  0
   44.1250   34.0960   41.0180 O   0  0  0  0  0  0  0  0  0  0  0  0
   43.1040   32.8210   38.8730 C   0  0  0  0  0  0  0  0  0  0  0  0
   42.6180   31.5530   39.1390 C   0  0  0  0  0  0  0  0  0  0  0  0
   41.2900   31.6000   38.9200 N   0  0  0  0  0  0  0  0  0  0  0  0
   40.9230   32.8470   38.5280 C   0  0  0  0  0  0  0  0  0  0  0  0
   39.7210   33.4490   38.1800 C   0  0  0  0  0  0  0  0  0  0  0  0
   39.6910   34.7800   37.8170 C   0  0  0  0  0  0  0  0  0  0  0  0
   40.8560   35.5480   37.7910 C   0  0  0  0  0  0  0  0  0  0  0  0
   42.0800   34.9690   38.1370 C   0  0  0  0  0  0  0  0  0  0  0  0
   42.0480   33.6470   38.4870 C   0  0  0  0  0  0  0  0  0  0  0  0
   46.7330   34.7580   41.4560 C   0  0  0  0  0  0  0  0  0  0  0  0
   47.0590   33.9310   42.6440 C   0  0  2  0  0  0  0  0  0  0  0  0
   44.5920   35.6510   44.8870 C   0  0  0  0  0  0  0  0  0  0  0  0
   45.3790   35.3470   43.7520 C   0  0  0  0  0  0  0  0  0  0  0  0
   46.2360   34.2450   43.8100 C   0  0  0  0  0  0  0  0  0  0  0  0
   46.2570   33.5260   44.9690 N   0  0  0  0  0  0  0  0  0  0  0  0
   45.5110   33.8140   46.0460 C   0  0  0  0  0  0  0  0  0  0  0  0
   44.6760   34.8770   46.0080 N   0  0  0  0  0  0  0  0  0  0  0  0
   48.5200   34.0980   43.0900 C   0  0  0  0  0  0  0  0  0  0  0  0
   48.2025   33.9436   39.5638 H   0  0  0  0  0  0  0  0  0  0  0  0
   47.5047   32.7453   37.4722 H   0  0  0  0  0  0  0  0  0  0  0  0
   43.2012   30.6791   39.4650 H   0  0  0  0  0  0  0  0  0  0  0  0
   40.6456   30.8045   39.0335 H   0  0  0  0  0  0  0  0  0  0  0  0
   38.7901   32.8632   38.1937 H   0  0  0  0  0  0  0  0  0  0  0  0
   38.7319   35.2439   37.5433 H   0  0  0  0  0  0  0  0  0  0  0  0
   40.8109   36.6075   37.4986 H   0  0  0  0  0  0  0  0  0  0  0  0
   43.0174   35.5446   38.1284 H   0  0  0  0  0  0  0  0  0  0  0  0
   47.6499   35.2816   41.1475 H   0  0  0  0  0  0  0  0  0  0  0  0
   45.9198   35.4277   41.7726 H   0  0  0  0  0  0  0  0  0  0  0  0
   46.8629   32.9020   42.3082 H   0  0  0  0  0  0  0  0  0  0  0  0
   43.9101   36.5139   44.8663 H   0  0  0  0  0  0  0  0  0  0  0  0
   45.3178   35.9644   42.8437 H   0  0  0  0  0  0  0  0  0  0  0  0
   45.5778   33.1919   46.9507 H   0  0  0  0  0  0  0  0  0  0  0  0
   48.5696   34.1037   44.1889 H   0  0  0  0  0  0  0  0  0  0  0  0
   49.1201   33.2626   42.7002 H   0  0  0  0  0  0  0  0  0  0  0  0
   48.9161   35.0473   42.7002 H   0  0  0  0  0  0  0  0  0  0  0  0
  1 18  1  0
  2  1  1  0
  3  2  2  0
  4  3  1  0
  4  6  1  0
  5  4  2  0
  6  7  1  0
  7  1  1  0
  7  8  2  0
  9  6  1  0
  9 10  2  0
 11 10  1  0
 12 11  1  0
 13 12  2  0
 14 13  1  0
 15 14  2  0
 15 16  1  0
 16 17  2  0
 17 12  1  0
 17  9  1  0
 18 19  1  0
 19 26  1  0
 19 22  1  0
 20 25  2  0
 21 22  2  0
 21 20  1  0
 22 23  1  0
 23 24  2  0
 25 24  1  0
  2 27  1  0
  3 28  1  0
 10 29  1  0
 11 30  1  0
 13 31  1  0
 14 32  1  0
 15 33  1  0
 16 34  1  0
 18 35  1  0
 18 36  1  0
 19 37  1  6
 20 38  1  0
 21 39  1  0
 24 40  1  0
 26 41  1  0
 26 42  1  0
 26 43  1  0
M  ISO  8  27  14  28  14  29  14  30   9  31  14  32  14  33  14  34  14
M  ISO  8  35   8  36   8  37   8  38  14  39  14  40  14  41   8  42   8
M  ISO  1  43   8
M  END
>  <minimizedAffinity>  (1) 
-6.03978443

>  <minimizedRMSD>  (1) 
1.89363289

$$$$
