
     RDKit          3D

 40 43  0  0  1  0  0  0  0  0999 V2000
   45.9600   34.0440   40.5170 N   0  0  0  0  0  0  0  0  0  0  0  0
   46.8060   33.6440   39.5480 C   0  0  0  0  0  0  0  0  0  0  0  0
   46.3320   33.0070   38.3980 C   0  0  0  0  0  0  0  0  0  0  0  0
   44.9760   32.8200   38.3220 C   0  0  0  0  0  0  0  0  0  0  0  0
   44.4990   32.2500   37.2990 O   0  0  0  0  0  0  0  0  0  0  0  0
   44.1170   33.2150   39.2880 N   0  0  0  0  0  0  0  0  0  0  0  0
   44.6370   33.8220   40.3690 C   0  0  0  0  0  0  0  0  0  0  0  0
   43.8940   34.2180   41.3080 O   0  0  0  0  0  0  0  0  0  0  0  0
   40.2250   35.1610   37.9750 N   0  0  0  0  0  0  0  0  0  0  0  0
   41.2800   35.9310   37.7030 C   0  0  0  0  0  0  0  0  0  0  0  0
   42.3880   35.2910   38.1190 N   0  0  0  0  0  0  0  0  0  0  0  0
   42.0210   34.0950   38.6630 C   0  0  0  0  0  0  0  0  0  0  0  0
   42.7200   33.0370   39.2410 C   0  0  0  0  0  0  0  0  0  0  0  0
   42.0330   31.9640   39.6950 N   0  0  0  0  0  0  0  0  0  0  0  0
   40.6750   31.9140   39.5910 C   0  0  0  0  0  0  0  0  0  0  0  0
   39.9680   32.9280   39.0330 N   0  0  0  0  0  0  0  0  0  0  0  0
   40.6320   34.0050   38.5740 C   0  0  0  0  0  0  0  0  0  0  0  0
   46.5580   34.7190   41.6080 C   0  0  0  0  0  0  0  0  0  0  0  0
   47.3020   33.8770   42.5710 C   0  0  2  0  0  0  0  0  0  0  0  0
   45.0250   34.6140   45.4650 C   0  0  0  0  0  0  0  0  0  0  0  0
   45.6280   34.6800   44.1950 C   0  0  0  0  0  0  0  0  0  0  0  0
   46.6730   33.8050   43.8900 C   0  0  0  0  0  0  0  0  0  0  0  0
   47.0530   32.9280   44.8560 N   0  0  0  0  0  0  0  0  0  0  0  0
   46.4820   32.8590   46.0710 C   0  0  0  0  0  0  0  0  0  0  0  0
   45.4690   33.7000   46.3760 N   0  0  0  0  0  0  0  0  0  0  0  0
   48.7230   34.4270   42.8060 C   0  0  0  0  0  0  0  0  0  0  0  0
   47.8854   33.8213   39.6636 H   0  0  0  0  0  0  0  0  0  0  0  0
   47.0095   32.6740   37.5979 H   0  0  0  0  0  0  0  0  0  0  0  0
   39.2466   35.4038   37.7637 H   0  0  0  0  0  0  0  0  0  0  0  0
   41.2493   36.9194   37.2213 H   0  0  0  0  0  0  0  0  0  0  0  0
   40.1397   31.0303   39.9686 H   0  0  0  0  0  0  0  0  0  0  0  0
   47.2598   35.4609   41.1993 H   0  0  0  0  0  0  0  0  0  0  0  0
   45.7231   35.1507   42.1794 H   0  0  0  0  0  0  0  0  0  0  0  0
   47.3145   32.8777   42.1113 H   0  0  0  0  0  0  0  0  0  0  0  0
   44.2005   35.2953   45.7219 H   0  0  0  0  0  0  0  0  0  0  0  0
   45.2803   35.4122   43.4513 H   0  0  0  0  0  0  0  0  0  0  0  0
   46.8359   32.1250   46.8099 H   0  0  0  0  0  0  0  0  0  0  0  0
   48.9135   34.5007   43.8869 H   0  0  0  0  0  0  0  0  0  0  0  0
   49.4589   33.7487   42.3494 H   0  0  0  0  0  0  0  0  0  0  0  0
   48.8105   35.4239   42.3494 H   0  0  0  0  0  0  0  0  0  0  0  0
  1 18  1  0
  2  1  1  0
  3  2  2  0
  4  3  1  0
  4  6  1  0
  5  4  2  0
  6  7  1  0
  7  1  1  0
  7  8  2  0
  9 17  1  0
 10  9  1  0
 10 11  2  0
 11 12  1  0
 12 13  1  0
 13  6  1  0
 13 14  2  0
 15 14  1  0
 16 15  2  0
 17 12  2  0
 17 16  1  0
 18 19  1  0
 19 26  1  0
 19 22  1  0
 20 25  2  0
 21 20  1  0
 22 21  2  0
 22 23  1  0
 23 24  2  0
 24 25  1  0
  2 27  1  0
  3 28  1  0
  9 29  1  0
 10 30  1  0
 15 31  1  0
 18 32  1  0
 18 33  1  0
 19 34  1  6
 20 35  1  0
 21 36  1  0
 24 37  1  0
 26 38  1  0
 26 39  1  0
 26 40  1  0
M  ISO  8  27  14  28  14  29   9  30  14  31  14  32   8  33   8  34   8
M  ISO  6  35  14  36  14  37  14  38   8  39   8  40   8
M  END
>  <minimizedAffinity>  (1) 
-5.51978588

>  <minimizedRMSD>  (1) 
2.2552774

$$$$
