
     RDKit          3D

 34 36  0  0  1  0  0  0  0  0999 V2000
   46.9960   34.7880   41.4070 C   0  0  0  0  0  0  0  0  0  0  0  0
   46.9830   34.1920   40.1270 N   0  0  0  0  0  0  0  0  0  0  0  0
   48.1090   34.2950   39.3970 C   0  0  0  0  0  0  0  0  0  0  0  0
   48.2000   33.7810   38.1070 C   0  0  0  0  0  0  0  0  0  0  0  0
   47.0720   33.1650   37.6320 C   0  0  0  0  0  0  0  0  0  0  0  0
   47.1150   32.6840   36.4600 O   0  0  0  0  0  0  0  0  0  0  0  0
   45.9230   33.0370   38.3230 N   0  0  0  0  0  0  0  0  0  0  0  0
   45.9200   33.5650   39.5680 C   0  0  0  0  0  0  0  0  0  0  0  0
   44.8840   33.4870   40.2850 O   0  0  0  0  0  0  0  0  0  0  0  0
   44.7540   32.3970   37.8230 C   0  0  0  0  0  0  0  0  0  0  0  0
   43.4390   32.4790   38.1310 N   0  0  0  0  0  0  0  0  0  0  0  0
   42.7640   31.6670   37.3630 O   0  0  0  0  0  0  0  0  0  0  0  0
   43.5920   31.0330   36.5400 C   0  0  0  0  0  0  0  0  0  0  0  0
   44.8410   31.4880   36.8260 N   0  0  0  0  0  0  0  0  0  0  0  0
   47.1160   33.8510   42.5540 C   0  0  2  0  0  0  0  0  0  0  0  0
   44.6160   35.6880   44.6710 C   0  0  0  0  0  0  0  0  0  0  0  0
   45.4220   35.3270   43.5670 C   0  0  0  0  0  0  0  0  0  0  0  0
   46.2760   34.2270   43.6920 C   0  0  0  0  0  0  0  0  0  0  0  0
   46.2820   33.5620   44.8830 N   0  0  0  0  0  0  0  0  0  0  0  0
   45.5150   33.9080   45.9320 C   0  0  0  0  0  0  0  0  0  0  0  0
   44.6830   34.9670   45.8290 N   0  0  0  0  0  0  0  0  0  0  0  0
   48.5570   33.7930   43.0920 C   0  0  0  0  0  0  0  0  0  0  0  0
   46.0584   35.3506   41.5271 H   0  0  0  0  0  0  0  0  0  0  0  0
   47.8997   35.4144   41.4364 H   0  0  0  0  0  0  0  0  0  0  0  0
   48.9833   34.8005   39.8330 H   0  0  0  0  0  0  0  0  0  0  0  0
   49.1184   33.8639   37.5072 H   0  0  0  0  0  0  0  0  0  0  0  0
   43.3208   30.2875   35.7780 H   0  0  0  0  0  0  0  0  0  0  0  0
   46.7945   32.8804   42.1483 H   0  0  0  0  0  0  0  0  0  0  0  0
   43.9354   36.5490   44.5974 H   0  0  0  0  0  0  0  0  0  0  0  0
   45.3781   35.8998   42.6289 H   0  0  0  0  0  0  0  0  0  0  0  0
   45.5649   33.3322   46.8680 H   0  0  0  0  0  0  0  0  0  0  0  0
   48.5381   33.7938   44.1918 H   0  0  0  0  0  0  0  0  0  0  0  0
   49.0452   32.8745   42.7343 H   0  0  0  0  0  0  0  0  0  0  0  0
   49.1175   34.6693   42.7343 H   0  0  0  0  0  0  0  0  0  0  0  0
  1 15  1  0
  2  1  1  0
  3  2  1  0
  4  3  2  0
  5  4  1  0
  5  7  1  0
  6  5  2  0
  7  8  1  0
  8  2  1  0
  8  9  2  0
 10 11  2  0
 10  7  1  0
 12 11  1  0
 13 14  2  0
 13 12  1  0
 14 10  1  0
 15 22  1  0
 15 18  1  0
 16 21  2  0
 17 18  2  0
 17 16  1  0
 18 19  1  0
 19 20  2  0
 21 20  1  0
  1 23  1  0
  1 24  1  0
  3 25  1  0
  4 26  1  0
 13 27  1  0
 15 28  1  6
 16 29  1  0
 17 30  1  0
 20 31  1  0
 22 32  1  0
 22 33  1  0
 22 34  1  0
M  ISO  8  23   8  24   8  25  14  26  14  27  14  28   8  29  14  30  14
M  ISO  4  31  14  32   8  33   8  34   8
M  END
>  <minimizedAffinity>  (1) 
-5.07617569

>  <minimizedRMSD>  (1) 
0.197274014

$$$$
