
     RDKit          3D

 42 44  0  0  1  0  0  0  0  0999 V2000
   46.4340   34.6810   41.2660 C   0  0  0  0  0  0  0  0  0  0  0  0
   45.5990   33.9520   40.3860 N   0  0  0  0  0  0  0  0  0  0  0  0
   46.2020   32.9410   39.7310 C   0  0  0  0  0  0  0  0  0  0  0  0
   45.4740   32.1740   38.8000 C   0  0  0  0  0  0  0  0  0  0  0  0
   44.1460   32.5120   38.6080 C   0  0  0  0  0  0  0  0  0  0  0  0
   43.5060   31.8270   37.7800 O   0  0  0  0  0  0  0  0  0  0  0  0
   43.5490   33.5160   39.2610 N   0  0  0  0  0  0  0  0  0  0  0  0
   44.2960   34.2130   40.1380 C   0  0  0  0  0  0  0  0  0  0  0  0
   43.7910   35.1710   40.7850 O   0  0  0  0  0  0  0  0  0  0  0  0
   42.1720   33.8680   39.0640 C   0  0  0  0  0  0  0  0  0  0  0  0
   41.3200   33.7660   40.2930 C   0  0  0  0  0  0  0  0  0  0  0  0
   40.1930   34.7340   40.0110 C   0  0  0  0  0  0  0  0  0  0  0  0
   40.7430   35.8030   39.1200 C   0  0  0  0  0  0  0  0  0  0  0  0
   41.9840   35.2410   38.4690 C   0  0  0  0  0  0  0  0  0  0  0  0
   46.8610   33.9750   42.4960 C   0  0  2  0  0  0  0  0  0  0  0  0
   44.5670   35.8600   44.7970 C   0  0  0  0  0  0  0  0  0  0  0  0
   45.3060   35.5050   43.6480 C   0  0  0  0  0  0  0  0  0  0  0  0
   46.0860   34.3460   43.6830 C   0  0  0  0  0  0  0  0  0  0  0  0
   46.0920   33.6150   44.8380 N   0  0  0  0  0  0  0  0  0  0  0  0
   45.3850   33.9600   45.9300 C   0  0  0  0  0  0  0  0  0  0  0  0
   44.6250   35.0770   45.9130 N   0  0  0  0  0  0  0  0  0  0  0  0
   48.3340   34.2690   42.8330 C   0  0  0  0  0  0  0  0  0  0  0  0
   45.8906   35.5876   41.5707 H   0  0  0  0  0  0  0  0  0  0  0  0
   47.3581   34.8757   40.7020 H   0  0  0  0  0  0  0  0  0  0  0  0
   47.2612   32.7146   39.9228 H   0  0  0  0  0  0  0  0  0  0  0  0
   45.9406   31.3434   38.2502 H   0  0  0  0  0  0  0  0  0  0  0  0
   41.8320   33.1067   38.3465 H   0  0  0  0  0  0  0  0  0  0  0  0
   40.9380   32.7429   40.4248 H   0  0  0  0  0  0  0  0  0  0  0  0
   41.8672   33.9977   41.2187 H   0  0  0  0  0  0  0  0  0  0  0  0
   39.3650   34.2128   39.5081 H   0  0  0  0  0  0  0  0  0  0  0  0
   39.8044   35.1651   40.9454 H   0  0  0  0  0  0  0  0  0  0  0  0
   40.0028   36.0724   38.3522 H   0  0  0  0  0  0  0  0  0  0  0  0
   40.9786   36.7104   39.6954 H   0  0  0  0  0  0  0  0  0  0  0  0
   42.8541   35.8768   38.6896 H   0  0  0  0  0  0  0  0  0  0  0  0
   41.8840   35.1985   37.3744 H   0  0  0  0  0  0  0  0  0  0  0  0
   46.6996   32.9113   42.2667 H   0  0  0  0  0  0  0  0  0  0  0  0
   43.9448   36.7671   44.7928 H   0  0  0  0  0  0  0  0  0  0  0  0
   45.2687   36.1286   42.7426 H   0  0  0  0  0  0  0  0  0  0  0  0
   45.4258   33.3343   46.8338 H   0  0  0  0  0  0  0  0  0  0  0  0
   48.4622   34.2946   43.9252 H   0  0  0  0  0  0  0  0  0  0  0  0
   48.9720   33.4805   42.4073 H   0  0  0  0  0  0  0  0  0  0  0  0
   48.6204   35.2420   42.4073 H   0  0  0  0  0  0  0  0  0  0  0  0
  1 15  1  0
  2  1  1  0
  3  2  1  0
  4  3  2  0
  5  4  1  0
  5  7  1  0
  6  5  2  0
  7  8  1  0
  8  2  1  0
  8  9  2  0
 10  7  1  0
 10 11  1  0
 12 11  1  0
 13 12  1  0
 14 10  1  0
 14 13  1  0
 15 22  1  0
 15 18  1  0
 16 21  2  0
 17 18  2  0
 17 16  1  0
 18 19  1  0
 19 20  2  0
 21 20  1  0
  1 23  1  0
  1 24  1  0
  3 25  1  0
  4 26  1  0
 10 27  1  0
 11 28  1  0
 11 29  1  0
 12 30  1  0
 12 31  1  0
 13 32  1  0
 13 33  1  0
 14 34  1  0
 14 35  1  0
 15 36  1  6
 16 37  1  0
 17 38  1  0
 20 39  1  0
 22 40  1  0
 22 41  1  0
 22 42  1  0
M  ISO  8  23   8  24   8  25  14  26  14  27  13  28  13  29  13  30  13
M  ISO  8  31  13  32  13  33  13  34  13  35  13  36   8  37  14  38  14
M  ISO  4  39  14  40   8  41   8  42   8
M  END
>  <minimizedAffinity>  (1) 
-5.3801465

>  <minimizedRMSD>  (1) 
3.05490017

$$$$
