
     RDKit          3D

 44 46  0  0  1  0  0  0  0  0999 V2000
   46.3710   34.6430   41.2010 C   0  0  0  0  0  0  0  0  0  0  0  0
   45.5220   33.8440   40.3930 N   0  0  0  0  0  0  0  0  0  0  0  0
   46.1420   32.7920   39.8200 C   0  0  0  0  0  0  0  0  0  0  0  0
   45.4600   31.9570   38.9430 C   0  0  0  0  0  0  0  0  0  0  0  0
   44.1240   32.2830   38.7080 C   0  0  0  0  0  0  0  0  0  0  0  0
   43.4800   31.5520   37.9210 O   0  0  0  0  0  0  0  0  0  0  0  0
   43.4810   33.3390   39.2750 N   0  0  0  0  0  0  0  0  0  0  0  0
   44.2230   34.0880   40.1150 C   0  0  0  0  0  0  0  0  0  0  0  0
   43.7200   35.0600   40.6870 O   0  0  0  0  0  0  0  0  0  0  0  0
   39.5230   34.8430   39.2460 N   0  0  0  0  0  0  0  0  0  0  0  0
   40.3090   34.8940   38.0340 C   0  0  0  0  0  0  0  0  0  0  0  0
   41.8090   34.9490   38.3690 C   0  0  0  0  0  0  0  0  0  0  0  0
   42.1130   33.6230   38.9970 C   0  0  0  0  0  0  0  0  0  0  0  0
   41.1970   33.3250   40.1550 C   0  0  0  0  0  0  0  0  0  0  0  0
   40.2370   34.4640   40.4200 C   0  0  0  0  0  0  0  0  0  0  0  0
   46.8540   34.0160   42.4490 C   0  0  2  0  0  0  0  0  0  0  0  0
   44.5530   35.8850   44.7520 C   0  0  0  0  0  0  0  0  0  0  0  0
   45.2940   35.5310   43.6080 C   0  0  0  0  0  0  0  0  0  0  0  0
   46.0840   34.3810   43.6380 C   0  0  0  0  0  0  0  0  0  0  0  0
   46.0870   33.6660   44.7910 N   0  0  0  0  0  0  0  0  0  0  0  0
   45.3860   33.9930   45.8880 C   0  0  0  0  0  0  0  0  0  0  0  0
   44.6180   35.1030   45.8690 N   0  0  0  0  0  0  0  0  0  0  0  0
   48.3090   34.4030   42.7330 C   0  0  0  0  0  0  0  0  0  0  0  0
   45.8171   35.5533   41.4740 H   0  0  0  0  0  0  0  0  0  0  0  0
   47.2698   34.8285   40.5946 H   0  0  0  0  0  0  0  0  0  0  0  0
   47.1992   32.5928   40.0494 H   0  0  0  0  0  0  0  0  0  0  0  0
   45.9435   31.0928   38.4640 H   0  0  0  0  0  0  0  0  0  0  0  0
   38.7620   34.1637   39.1033 H   0  0  0  0  0  0  0  0  0  0  0  0
   40.0327   35.7910   37.4604 H   0  0  0  0  0  0  0  0  0  0  0  0
   40.1090   33.9894   37.4410 H   0  0  0  0  0  0  0  0  0  0  0  0
   42.4047   35.0900   37.4551 H   0  0  0  0  0  0  0  0  0  0  0  0
   42.0537   35.7888   39.0360 H   0  0  0  0  0  0  0  0  0  0  0  0
   41.8930   32.9041   38.1940 H   0  0  0  0  0  0  0  0  0  0  0  0
   40.6185   32.4176   39.9270 H   0  0  0  0  0  0  0  0  0  0  0  0
   41.8163   33.1840   41.0531 H   0  0  0  0  0  0  0  0  0  0  0  0
   40.8067   35.3313   40.7850 H   0  0  0  0  0  0  0  0  0  0  0  0
   39.5057   34.1255   41.1687 H   0  0  0  0  0  0  0  0  0  0  0  0
   46.7416   32.9365   42.2699 H   0  0  0  0  0  0  0  0  0  0  0  0
   43.9245   36.7878   44.7455 H   0  0  0  0  0  0  0  0  0  0  0  0
   45.2506   36.1533   42.7020 H   0  0  0  0  0  0  0  0  0  0  0  0
   45.4366   33.3652   46.7899 H   0  0  0  0  0  0  0  0  0  0  0  0
   48.4714   34.4462   43.8201 H   0  0  0  0  0  0  0  0  0  0  0  0
   48.9810   33.6524   42.2914 H   0  0  0  0  0  0  0  0  0  0  0  0
   48.5192   35.3883   42.2914 H   0  0  0  0  0  0  0  0  0  0  0  0
  1 16  1  0
  2  1  1  0
  3  2  1  0
  4  3  2  0
  5  4  1  0
  5  7  1  0
  6  5  2  0
  7  8  1  0
  8  2  1  0
  8  9  2  0
 10 15  1  0
 11 12  1  0
 11 10  1  0
 12 13  1  0
 13  7  1  0
 13 14  1  0
 14 15  1  0
 16 23  1  0
 16 19  1  0
 17 22  2  0
 18 19  2  0
 18 17  1  0
 19 20  1  0
 20 21  2  0
 22 21  1  0
  1 24  1  0
  1 25  1  0
  3 26  1  0
  4 27  1  0
 10 28  1  0
 11 29  1  0
 11 30  1  0
 12 31  1  0
 12 32  1  0
 13 33  1  0
 14 34  1  0
 14 35  1  0
 15 36  1  0
 15 37  1  0
 16 38  1  6
 17 39  1  0
 18 40  1  0
 21 41  1  0
 23 42  1  0
 23 43  1  0
 23 44  1  0
M  ISO  8  24   8  25   8  26  14  27  14  28   5  29  13  30  13  31  13
M  ISO  8  32  13  33  13  34  13  35  13  36  13  37  13  38   8  39  14
M  ISO  5  40  14  41  14  42   8  43   8  44   8
M  END
>  <minimizedAffinity>  (1) 
-5.42820311

>  <minimizedRMSD>  (1) 
3.27364874

$$$$
