
     RDKit          3D

 36 38  0  0  1  0  0  0  0  0999 V2000
   46.9240   34.7760   41.3210 C   0  0  0  0  0  0  0  0  0  0  0  0
   47.0070   34.0770   40.0930 N   0  0  0  0  0  0  0  0  0  0  0  0
   48.1060   34.3560   39.3620 C   0  0  0  0  0  0  0  0  0  0  0  0
   48.3110   33.7780   38.1110 C   0  0  0  0  0  0  0  0  0  0  0  0
   47.3310   32.9140   37.6760 C   0  0  0  0  0  0  0  0  0  0  0  0
   47.4750   32.3690   36.5500 O   0  0  0  0  0  0  0  0  0  0  0  0
   46.2210   32.6170   38.3900 N   0  0  0  0  0  0  0  0  0  0  0  0
   46.0960   33.2190   39.5930 C   0  0  0  0  0  0  0  0  0  0  0  0
   45.1050   32.9980   40.3160 O   0  0  0  0  0  0  0  0  0  0  0  0
   45.2220   31.7110   37.9030 C   0  0  0  0  0  0  0  0  0  0  0  0
   43.8180   32.1980   37.7160 C   0  0  0  0  0  0  0  0  0  0  0  0
   44.6760   31.7490   36.5490 C   0  0  0  0  0  0  0  0  0  0  0  0
   47.1660   33.9670   42.5390 C   0  0  2  0  0  0  0  0  0  0  0  0
   44.6070   35.7230   44.6440 C   0  0  0  0  0  0  0  0  0  0  0  0
   45.4350   35.3880   43.5550 C   0  0  0  0  0  0  0  0  0  0  0  0
   46.3050   34.3020   43.6710 C   0  0  0  0  0  0  0  0  0  0  0  0
   46.2960   33.6300   44.8490 N   0  0  0  0  0  0  0  0  0  0  0  0
   45.5140   33.9370   45.8940 C   0  0  0  0  0  0  0  0  0  0  0  0
   44.6660   34.9870   45.7940 N   0  0  0  0  0  0  0  0  0  0  0  0
   48.6120   34.1450   43.0360 C   0  0  0  0  0  0  0  0  0  0  0  0
   45.9149   35.2073   41.3968 H   0  0  0  0  0  0  0  0  0  0  0  0
   47.7288   35.5254   41.2942 H   0  0  0  0  0  0  0  0  0  0  0  0
   48.8559   35.0544   39.7620 H   0  0  0  0  0  0  0  0  0  0  0  0
   49.2031   33.9988   37.5065 H   0  0  0  0  0  0  0  0  0  0  0  0
   45.7188   30.9163   38.4789 H   0  0  0  0  0  0  0  0  0  0  0  0
   42.9681   31.5843   38.0492 H   0  0  0  0  0  0  0  0  0  0  0  0
   43.2555   33.1059   37.9792 H   0  0  0  0  0  0  0  0  0  0  0  0
   44.4422   30.8106   36.0248 H   0  0  0  0  0  0  0  0  0  0  0  0
   44.9912   32.2034   35.5981 H   0  0  0  0  0  0  0  0  0  0  0  0
   46.9499   32.9367   42.2200 H   0  0  0  0  0  0  0  0  0  0  0  0
   43.9148   36.5746   44.5691 H   0  0  0  0  0  0  0  0  0  0  0  0
   45.3968   35.9743   42.6251 H   0  0  0  0  0  0  0  0  0  0  0  0
   45.5610   33.3440   46.8193 H   0  0  0  0  0  0  0  0  0  0  0  0
   48.6241   34.1465   44.1359 H   0  0  0  0  0  0  0  0  0  0  0  0
   49.2323   33.3164   42.6636 H   0  0  0  0  0  0  0  0  0  0  0  0
   49.0129   35.0993   42.6636 H   0  0  0  0  0  0  0  0  0  0  0  0
  1 13  1  0
  2  1  1  0
  3  2  1  0
  4  3  2  0
  5  4  1  0
  5  7  1  0
  6  5  2  0
  7  8  1  0
  8  2  1  0
  8  9  2  0
 10  7  1  0
 11 10  1  0
 12 11  1  0
 12 10  1  0
 13 20  1  0
 13 16  1  0
 14 19  2  0
 15 16  2  0
 15 14  1  0
 16 17  1  0
 17 18  2  0
 19 18  1  0
  1 21  1  0
  1 22  1  0
  3 23  1  0
  4 24  1  0
 10 25  1  0
 11 26  1  0
 11 27  1  0
 12 28  1  0
 12 29  1  0
 13 30  1  6
 14 31  1  0
 15 32  1  0
 18 33  1  0
 20 34  1  0
 20 35  1  0
 20 36  1  0
M  ISO  8  21   8  22   8  23  14  24  14  25  13  26  13  27  13  28  13
M  ISO  8  29  13  30   8  31  14  32  14  33  14  34   8  35   8  36   8
M  END
>  <minimizedAffinity>  (1) 
-4.54852915

>  <minimizedRMSD>  (1) 
0.408849061

$$$$
