
     RDKit          3D

 38 39  0  0  1  0  0  0  0  0999 V2000
   47.0700   34.7860   41.4050 C   0  0  0  0  0  0  0  0  0  0  0  0
   47.0650   34.1850   40.1250 N   0  0  0  0  0  0  0  0  0  0  0  0
   48.1380   34.4240   39.3490 C   0  0  0  0  0  0  0  0  0  0  0  0
   48.2150   33.9090   38.0490 C   0  0  0  0  0  0  0  0  0  0  0  0
   47.1420   33.1520   37.6170 C   0  0  0  0  0  0  0  0  0  0  0  0
   47.2090   32.6920   36.4570 O   0  0  0  0  0  0  0  0  0  0  0  0
   46.0700   32.9050   38.3760 N   0  0  0  0  0  0  0  0  0  0  0  0
   46.0610   33.4330   39.6210 C   0  0  0  0  0  0  0  0  0  0  0  0
   45.0790   33.2340   40.3850 O   0  0  0  0  0  0  0  0  0  0  0  0
   45.0110   32.1180   37.8530 C   0  0  0  0  0  0  0  0  0  0  0  0
   43.6510   32.8040   37.9660 C   0  0  0  0  0  0  0  0  0  0  0  0
   44.8670   30.7540   38.4120 C   0  0  0  0  0  0  0  0  0  0  0  0
   47.1940   33.8610   42.5570 C   0  0  2  0  0  0  0  0  0  0  0  0
   44.6410   35.6660   44.6370 C   0  0  0  0  0  0  0  0  0  0  0  0
   45.4670   35.3110   43.5480 C   0  0  0  0  0  0  0  0  0  0  0  0
   46.3330   34.2220   43.6840 C   0  0  0  0  0  0  0  0  0  0  0  0
   46.3300   33.5590   44.8750 N   0  0  0  0  0  0  0  0  0  0  0  0
   45.5430   33.8980   45.9120 C   0  0  0  0  0  0  0  0  0  0  0  0
   44.6980   34.9470   45.7970 N   0  0  0  0  0  0  0  0  0  0  0  0
   48.6310   33.8360   43.1090 C   0  0  0  0  0  0  0  0  0  0  0  0
   46.1276   35.3417   41.5195 H   0  0  0  0  0  0  0  0  0  0  0  0
   47.9708   35.4167   41.4329 H   0  0  0  0  0  0  0  0  0  0  0  0
   48.9662   35.0324   39.7412 H   0  0  0  0  0  0  0  0  0  0  0  0
   49.0858   34.0974   37.4039 H   0  0  0  0  0  0  0  0  0  0  0  0
   45.3203   32.0121   36.8027 H   0  0  0  0  0  0  0  0  0  0  0  0
   43.3930   32.9341   39.0274 H   0  0  0  0  0  0  0  0  0  0  0  0
   43.6948   33.7879   37.4760 H   0  0  0  0  0  0  0  0  0  0  0  0
   42.8858   32.1841   37.4760 H   0  0  0  0  0  0  0  0  0  0  0  0
   44.8724   30.8056   39.5108 H   0  0  0  0  0  0  0  0  0  0  0  0
   43.9176   30.3160   38.0702 H   0  0  0  0  0  0  0  0  0  0  0  0
   45.7040   30.1274   38.0702 H   0  0  0  0  0  0  0  0  0  0  0  0
   46.8945   32.8822   42.1542 H   0  0  0  0  0  0  0  0  0  0  0  0
   43.9530   36.5200   44.5513 H   0  0  0  0  0  0  0  0  0  0  0  0
   45.4296   35.8818   42.6084 H   0  0  0  0  0  0  0  0  0  0  0  0
   45.5868   33.3242   46.8494 H   0  0  0  0  0  0  0  0  0  0  0  0
   48.6015   33.8365   44.2086 H   0  0  0  0  0  0  0  0  0  0  0  0
   49.1435   32.9288   42.7564 H   0  0  0  0  0  0  0  0  0  0  0  0
   49.1748   34.7248   42.7564 H   0  0  0  0  0  0  0  0  0  0  0  0
  1 13  1  0
  2  1  1  0
  3  2  1  0
  4  3  2  0
  5  4  1  0
  5  7  1  0
  6  5  2  0
  7  8  1  0
  8  2  1  0
  8  9  2  0
 10 11  1  0
 10  7  1  0
 10 12  1  0
 13 20  1  0
 13 16  1  0
 14 19  2  0
 15 16  2  0
 15 14  1  0
 16 17  1  0
 17 18  2  0
 19 18  1  0
  1 21  1  0
  1 22  1  0
  3 23  1  0
  4 24  1  0
 10 25  1  0
 11 26  1  0
 11 27  1  0
 11 28  1  0
 12 29  1  0
 12 30  1  0
 12 31  1  0
 13 32  1  6
 14 33  1  0
 15 34  1  0
 18 35  1  0
 20 36  1  0
 20 37  1  0
 20 38  1  0
M  ISO  8  21   8  22   8  23  14  24  14  25   8  26   8  27   8  28   8
M  ISO  8  29   8  30   8  31   8  32   8  33  14  34  14  35  14  36   8
M  ISO  2  37   8  38   8
M  END
>  <minimizedAffinity>  (1) 
-4.54281807

>  <minimizedRMSD>  (1) 
0.334773093

$$$$
