
     RDKit          3D

 35 36  0  0  1  0  0  0  0  0999 V2000
   47.0190   34.7680   41.4370 C   0  0  0  0  0  0  0  0  0  0  0  0
   46.9960   34.1930   40.1450 N   0  0  0  0  0  0  0  0  0  0  0  0
   48.1290   34.3000   39.4210 C   0  0  0  0  0  0  0  0  0  0  0  0
   48.2040   33.7920   38.1250 C   0  0  0  0  0  0  0  0  0  0  0  0
   47.0790   33.1840   37.6270 C   0  0  0  0  0  0  0  0  0  0  0  0
   47.1220   32.7220   36.4740 O   0  0  0  0  0  0  0  0  0  0  0  0
   45.9280   33.0620   38.3340 N   0  0  0  0  0  0  0  0  0  0  0  0
   45.9280   33.5780   39.5850 C   0  0  0  0  0  0  0  0  0  0  0  0
   44.8920   33.5010   40.3030 O   0  0  0  0  0  0  0  0  0  0  0  0
   44.7500   32.4200   37.7990 C   0  0  0  0  0  0  0  0  0  0  0  0
   44.7390   30.9360   38.0530 C   0  0  0  0  0  0  0  0  0  0  0  0
   47.0730   33.8080   42.5690 C   0  0  2  0  0  0  0  0  0  0  0  0
   44.6070   35.7070   44.6690 C   0  0  0  0  0  0  0  0  0  0  0  0
   45.4050   35.3160   43.5680 C   0  0  0  0  0  0  0  0  0  0  0  0
   46.2410   34.2060   43.7040 C   0  0  0  0  0  0  0  0  0  0  0  0
   46.2340   33.5650   44.9050 N   0  0  0  0  0  0  0  0  0  0  0  0
   45.4800   33.9310   45.9520 C   0  0  0  0  0  0  0  0  0  0  0  0
   44.6640   35.0040   45.8380 N   0  0  0  0  0  0  0  0  0  0  0  0
   48.4980   33.6350   43.1230 C   0  0  0  0  0  0  0  0  0  0  0  0
   46.1095   35.3758   41.5525 H   0  0  0  0  0  0  0  0  0  0  0  0
   47.9527   35.3471   41.4906 H   0  0  0  0  0  0  0  0  0  0  0  0
   49.0074   34.7958   39.8600 H   0  0  0  0  0  0  0  0  0  0  0  0
   49.1242   33.8748   37.5280 H   0  0  0  0  0  0  0  0  0  0  0  0
   44.7160   32.5927   36.7132 H   0  0  0  0  0  0  0  0  0  0  0  0
   43.8738   32.8529   38.3039 H   0  0  0  0  0  0  0  0  0  0  0  0
   44.7376   30.7496   39.1371 H   0  0  0  0  0  0  0  0  0  0  0  0
   43.8376   30.4938   37.6037 H   0  0  0  0  0  0  0  0  0  0  0  0
   45.6338   30.4805   37.6037 H   0  0  0  0  0  0  0  0  0  0  0  0
   46.6994   32.8695   42.1336 H   0  0  0  0  0  0  0  0  0  0  0  0
   43.9404   36.5778   44.5831 H   0  0  0  0  0  0  0  0  0  0  0  0
   45.3675   35.8763   42.6221 H   0  0  0  0  0  0  0  0  0  0  0  0
   45.5246   33.3645   46.8939 H   0  0  0  0  0  0  0  0  0  0  0  0
   48.4669   33.6388   44.2226 H   0  0  0  0  0  0  0  0  0  0  0  0
   48.9147   32.6797   42.7713 H   0  0  0  0  0  0  0  0  0  0  0  0
   49.1312   34.4629   42.7713 H   0  0  0  0  0  0  0  0  0  0  0  0
  1 12  1  0
  2  1  1  0
  3  2  1  0
  4  3  2  0
  5  4  1  0
  5  7  1  0
  6  5  2  0
  7  8  1  0
  8  2  1  0
  8  9  2  0
 10 11  1  0
 10  7  1  0
 12 19  1  0
 12 15  1  0
 13 18  2  0
 14 15  2  0
 14 13  1  0
 15 16  1  0
 16 17  2  0
 18 17  1  0
  1 20  1  0
  1 21  1  0
  3 22  1  0
  4 23  1  0
 10 24  1  0
 10 25  1  0
 11 26  1  0
 11 27  1  0
 11 28  1  0
 12 29  1  6
 13 30  1  0
 14 31  1  0
 17 32  1  0
 19 33  1  0
 19 34  1  0
 19 35  1  0
M  ISO  8  20   8  21   8  22  14  23  14  24   8  25   8  26   8  27   8
M  ISO  8  28   8  29   8  30  14  31  14  32  14  33   8  34   8  35   8
M  END
>  <minimizedAffinity>  (1) 
-4.40962029

>  <minimizedRMSD>  (1) 
0.351610303

$$$$
