
     RDKit          3D

 36 38  0  0  1  0  0  0  0  0999 V2000
   46.9390   34.7950   41.3090 C   0  0  0  0  0  0  0  0  0  0  0  0
   47.0090   34.1230   40.0640 N   0  0  0  0  0  0  0  0  0  0  0  0
   48.0900   34.3940   39.3050 C   0  0  0  0  0  0  0  0  0  0  0  0
   48.2470   33.8160   38.0440 C   0  0  0  0  0  0  0  0  0  0  0  0
   47.2550   32.9690   37.6240 C   0  0  0  0  0  0  0  0  0  0  0  0
   47.3720   32.4390   36.5000 O   0  0  0  0  0  0  0  0  0  0  0  0
   46.1630   32.6820   38.3690 N   0  0  0  0  0  0  0  0  0  0  0  0
   46.0750   33.2750   39.5790 C   0  0  0  0  0  0  0  0  0  0  0  0
   45.0850   33.0550   40.3290 O   0  0  0  0  0  0  0  0  0  0  0  0
   45.1250   31.8040   37.9450 C   0  0  0  0  0  0  0  0  0  0  0  0
   44.8670   30.4450   38.0120 C   0  0  0  0  0  0  0  0  0  0  0  0
   43.6660   30.2340   37.3980 N   0  0  0  0  0  0  0  0  0  0  0  0
   43.1990   31.4420   36.9650 C   0  0  0  0  0  0  0  0  0  0  0  0
   44.0840   32.4000   37.2950 N   0  0  0  0  0  0  0  0  0  0  0  0
   47.1890   33.9560   42.5080 C   0  0  2  0  0  0  0  0  0  0  0  0
   44.6230   35.7070   44.6160 C   0  0  0  0  0  0  0  0  0  0  0  0
   45.4520   35.3780   43.5200 C   0  0  0  0  0  0  0  0  0  0  0  0
   46.3240   34.2930   43.6400 C   0  0  0  0  0  0  0  0  0  0  0  0
   46.3260   33.6090   44.8200 N   0  0  0  0  0  0  0  0  0  0  0  0
   45.5380   33.9240   45.8620 C   0  0  0  0  0  0  0  0  0  0  0  0
   44.6840   34.9710   45.7650 N   0  0  0  0  0  0  0  0  0  0  0  0
   48.6350   34.1060   43.0170 C   0  0  0  0  0  0  0  0  0  0  0  0
   45.9322   35.2279   41.4033 H   0  0  0  0  0  0  0  0  0  0  0  0
   47.7459   35.5424   41.2923 H   0  0  0  0  0  0  0  0  0  0  0  0
   48.8601   35.0812   39.6853 H   0  0  0  0  0  0  0  0  0  0  0  0
   49.1253   34.0303   37.4173 H   0  0  0  0  0  0  0  0  0  0  0  0
   45.5088   29.6798   38.4730 H   0  0  0  0  0  0  0  0  0  0  0  0
   42.2509   31.6056   36.4317 H   0  0  0  0  0  0  0  0  0  0  0  0
   43.9919   33.4057   37.0927 H   0  0  0  0  0  0  0  0  0  0  0  0
   46.9828   32.9304   42.1679 H   0  0  0  0  0  0  0  0  0  0  0  0
   43.9280   36.5565   44.5438 H   0  0  0  0  0  0  0  0  0  0  0  0
   45.4116   35.9647   42.5904 H   0  0  0  0  0  0  0  0  0  0  0  0
   45.5863   33.3344   46.7894 H   0  0  0  0  0  0  0  0  0  0  0  0
   48.6383   34.1063   44.1170 H   0  0  0  0  0  0  0  0  0  0  0  0
   49.2423   33.2660   42.6488 H   0  0  0  0  0  0  0  0  0  0  0  0
   49.0570   35.0527   42.6488 H   0  0  0  0  0  0  0  0  0  0  0  0
  1 15  1  0
  2  1  1  0
  3  2  1  0
  4  3  2  0
  5  4  1  0
  5  7  1  0
  6  5  2  0
  7  8  1  0
  8  2  1  0
  8  9  2  0
 10 11  2  0
 10  7  1  0
 12 11  1  0
 13 14  1  0
 13 12  2  0
 14 10  1  0
 15 22  1  0
 15 18  1  0
 16 21  2  0
 17 18  2  0
 17 16  1  0
 18 19  1  0
 19 20  2  0
 21 20  1  0
  1 23  1  0
  1 24  1  0
  3 25  1  0
  4 26  1  0
 11 27  1  0
 13 28  1  0
 14 29  1  0
 15 30  1  6
 16 31  1  0
 17 32  1  0
 20 33  1  0
 22 34  1  0
 22 35  1  0
 22 36  1  0
M  ISO  8  23   8  24   8  25  14  26  14  27  14  28  14  29   9  30   8
M  ISO  6  31  14  32  14  33  14  34   8  35   8  36   8
M  END
>  <minimizedAffinity>  (1) 
-4.78641558

>  <minimizedRMSD>  (1) 
0.535454929

$$$$
