
     RDKit          3D

 41 42  0  0  1  0  0  0  0  0999 V2000
   47.0540   34.7970   41.3910 C   0  0  0  0  0  0  0  0  0  0  0  0
   47.0580   34.1870   40.1110 N   0  0  0  0  0  0  0  0  0  0  0  0
   48.1860   34.4250   39.3930 C   0  0  0  0  0  0  0  0  0  0  0  0
   48.3150   33.9070   38.0910 C   0  0  0  0  0  0  0  0  0  0  0  0
   47.2480   33.1650   37.6110 C   0  0  0  0  0  0  0  0  0  0  0  0
   47.3780   32.7150   36.4700 O   0  0  0  0  0  0  0  0  0  0  0  0
   46.1330   32.9270   38.3150 N   0  0  0  0  0  0  0  0  0  0  0  0
   46.0670   33.4500   39.5600 C   0  0  0  0  0  0  0  0  0  0  0  0
   45.0750   33.2750   40.2820 O   0  0  0  0  0  0  0  0  0  0  0  0
   45.0850   32.1560   37.7420 C   0  0  0  0  0  0  0  0  0  0  0  0
   45.0980   32.0940   36.2430 C   0  0  0  0  0  0  0  0  0  0  0  0
   45.0440   30.7070   38.2050 C   0  0  0  0  0  0  0  0  0  0  0  0
   43.7570   32.8420   38.0860 C   0  0  0  0  0  0  0  0  0  0  0  0
   47.1440   33.8660   42.5410 C   0  0  2  0  0  0  0  0  0  0  0  0
   44.6270   35.6800   44.6480 C   0  0  0  0  0  0  0  0  0  0  0  0
   45.4390   35.3230   43.5550 C   0  0  0  0  0  0  0  0  0  0  0  0
   46.2990   34.2300   43.6780 C   0  0  0  0  0  0  0  0  0  0  0  0
   46.2940   33.5740   44.8690 N   0  0  0  0  0  0  0  0  0  0  0  0
   45.5250   33.9050   45.9180 C   0  0  0  0  0  0  0  0  0  0  0  0
   44.6900   34.9600   45.8060 N   0  0  0  0  0  0  0  0  0  0  0  0
   48.5800   33.7900   43.0800 C   0  0  0  0  0  0  0  0  0  0  0  0
   46.1202   35.3697   41.4907 H   0  0  0  0  0  0  0  0  0  0  0  0
   47.9611   35.4179   41.4329 H   0  0  0  0  0  0  0  0  0  0  0  0
   48.9994   35.0232   39.8296 H   0  0  0  0  0  0  0  0  0  0  0  0
   49.2165   34.0822   37.4855 H   0  0  0  0  0  0  0  0  0  0  0  0
   45.3138   31.0647   35.9205 H   0  0  0  0  0  0  0  0  0  0  0  0
   44.1158   32.4016   35.8548 H   0  0  0  0  0  0  0  0  0  0  0  0
   45.8739   32.7702   35.8548 H   0  0  0  0  0  0  0  0  0  0  0  0
   45.0430   30.6733   39.3045 H   0  0  0  0  0  0  0  0  0  0  0  0
   44.1319   30.2255   37.8226 H   0  0  0  0  0  0  0  0  0  0  0  0
   45.9274   30.1747   37.8226 H   0  0  0  0  0  0  0  0  0  0  0  0
   43.6462   32.8992   39.1789 H   0  0  0  0  0  0  0  0  0  0  0  0
   43.7484   33.8573   37.6629 H   0  0  0  0  0  0  0  0  0  0  0  0
   42.9240   32.2614   37.6629 H   0  0  0  0  0  0  0  0  0  0  0  0
   46.7995   32.9049   42.1315 H   0  0  0  0  0  0  0  0  0  0  0  0
   43.9428   36.5377   44.5691 H   0  0  0  0  0  0  0  0  0  0  0  0
   45.3966   35.8969   42.6175 H   0  0  0  0  0  0  0  0  0  0  0  0
   45.5742   33.3269   46.8525 H   0  0  0  0  0  0  0  0  0  0  0  0
   48.5594   33.7911   44.1798 H   0  0  0  0  0  0  0  0  0  0  0  0
   49.0571   32.8653   42.7231 H   0  0  0  0  0  0  0  0  0  0  0  0
   49.1521   34.6591   42.7231 H   0  0  0  0  0  0  0  0  0  0  0  0
  1 14  1  0
  2  1  1  0
  3  2  1  0
  4  3  2  0
  5  4  1  0
  5  7  1  0
  6  5  2  0
  7  8  1  0
  8  2  1  0
  8  9  2  0
 10 13  1  0
 10 12  1  0
 10  7  1  0
 11 10  1  0
 14 21  1  0
 14 17  1  0
 15 20  2  0
 16 17  2  0
 16 15  1  0
 17 18  1  0
 18 19  2  0
 20 19  1  0
  1 22  1  0
  1 23  1  0
  3 24  1  0
  4 25  1  0
 11 26  1  0
 11 27  1  0
 11 28  1  0
 12 29  1  0
 12 30  1  0
 12 31  1  0
 13 32  1  0
 13 33  1  0
 13 34  1  0
 14 35  1  6
 15 36  1  0
 16 37  1  0
 19 38  1  0
 21 39  1  0
 21 40  1  0
 21 41  1  0
M  ISO  8  22   8  23   8  24  14  25  14  26   8  27   8  28   8  29   8
M  ISO  8  30   8  31   8  32   8  33   8  34   8  35   8  36  14  37  14
M  ISO  4  38  14  39   8  40   8  41   8
M  END
>  <minimizedAffinity>  (1) 
-4.71880817

>  <minimizedRMSD>  (1) 
0.260849059

$$$$
