
     RDKit          3D

 42 44  0  0  1  0  0  0  0  0999 V2000
   46.9810   34.0750   40.0100 N   0  0  0  0  0  0  0  0  0  0  0  0
   48.1050   34.4490   39.3680 C   0  0  0  0  0  0  0  0  0  0  0  0
   48.4420   33.9110   38.1320 C   0  0  0  0  0  0  0  0  0  0  0  0
   47.5600   32.9800   37.6080 C   0  0  0  0  0  0  0  0  0  0  0  0
   47.8490   32.4830   36.4820 O   0  0  0  0  0  0  0  0  0  0  0  0
   46.4350   32.5930   38.2290 N   0  0  0  0  0  0  0  0  0  0  0  0
   46.1740   33.1580   39.4290 C   0  0  0  0  0  0  0  0  0  0  0  0
   45.1350   32.8410   40.0710 O   0  0  0  0  0  0  0  0  0  0  0  0
   43.8410   29.6520   36.7090 C   0  0  0  0  0  0  0  0  0  0  0  0
   44.9170   29.3280   37.5190 C   0  0  0  0  0  0  0  0  0  0  0  0
   45.7640   30.3110   38.0120 C   0  0  0  0  0  0  0  0  0  0  0  0
   45.5300   31.6350   37.6910 C   0  0  0  0  0  0  0  0  0  0  0  0
   44.4500   31.9830   36.8750 C   0  0  0  0  0  0  0  0  0  0  0  0
   43.6260   30.9860   36.4000 C   0  0  0  0  0  0  0  0  0  0  0  0
   42.8010   28.3810   36.1100 S   0  0  0  0  0  0  0  0  0  0  0  0
   43.4160   27.6730   34.9150 O   0  0  0  0  0  0  0  0  0  0  0  0
   41.4820   28.9400   35.6340 O   0  0  0  0  0  0  0  0  0  0  0  0
   46.7220   34.7230   41.2380 C   0  0  0  0  0  0  0  0  0  0  0  0
   47.0920   33.9750   42.4610 C   0  0  2  0  0  0  0  0  0  0  0  0
   44.5990   35.7350   44.6510 C   0  0  0  0  0  0  0  0  0  0  0  0
   45.3970   35.4090   43.5340 C   0  0  0  0  0  0  0  0  0  0  0  0
   46.2600   34.3130   43.6170 C   0  0  0  0  0  0  0  0  0  0  0  0
   46.2790   33.6190   44.7890 N   0  0  0  0  0  0  0  0  0  0  0  0
   45.5210   33.9280   45.8540 C   0  0  0  0  0  0  0  0  0  0  0  0
   44.6820   34.9840   45.7870 N   0  0  0  0  0  0  0  0  0  0  0  0
   48.5440   34.2670   42.8850 C   0  0  0  0  0  0  0  0  0  0  0  0
   48.7684   35.1943   39.8311 H   0  0  0  0  0  0  0  0  0  0  0  0
   49.3577   34.2076   37.5995 H   0  0  0  0  0  0  0  0  0  0  0  0
   45.1032   28.2747   37.7757 H   0  0  0  0  0  0  0  0  0  0  0  0
   46.6151   30.0384   38.6534 H   0  0  0  0  0  0  0  0  0  0  0  0
   44.2609   33.0353   36.6163 H   0  0  0  0  0  0  0  0  0  0  0  0
   42.7745   31.2561   35.7582 H   0  0  0  0  0  0  0  0  0  0  0  0
   42.6276   27.5122   37.1550 H   0  0  0  0  0  0  0  0  0  0  0  0
   47.2804   35.6707   41.2420 H   0  0  0  0  0  0  0  0  0  0  0  0
   45.6294   34.8420   41.2841 H   0  0  0  0  0  0  0  0  0  0  0  0
   46.9502   32.9188   42.1884 H   0  0  0  0  0  0  0  0  0  0  0  0
   43.9116   36.5926   44.6060 H   0  0  0  0  0  0  0  0  0  0  0  0
   45.3408   36.0077   42.6129 H   0  0  0  0  0  0  0  0  0  0  0  0
   45.5831   33.3261   46.7726 H   0  0  0  0  0  0  0  0  0  0  0  0
   48.6098   34.2802   43.9830 H   0  0  0  0  0  0  0  0  0  0  0  0
   49.2066   33.4841   42.4874 H   0  0  0  0  0  0  0  0  0  0  0  0
   48.8524   35.2452   42.4874 H   0  0  0  0  0  0  0  0  0  0  0  0
  1 18  1  0
  2  1  1  0
  3  2  2  0
  4  3  1  0
  4  6  1  0
  5  4  2  0
  6  7  1  0
  7  1  1  0
  7  8  2  0
  9 10  2  0
 10 11  1  0
 12 11  2  0
 12  6  1  0
 13 12  1  0
 14  9  1  0
 14 13  2  0
 15  9  1  0
 16 15  2  0
 17 15  2  0
 18 19  1  0
 19 26  1  0
 19 22  1  0
 20 25  2  0
 21 22  2  0
 21 20  1  0
 22 23  1  0
 23 24  2  0
 25 24  1  0
  2 27  1  0
  3 28  1  0
 10 29  1  0
 11 30  1  0
 13 31  1  0
 14 32  1  0
 15 33  1  0
 18 34  1  0
 18 35  1  0
 19 36  1  6
 20 37  1  0
 21 38  1  0
 24 39  1  0
 26 40  1  0
 26 41  1  0
 26 42  1  0
M  ISO  8  27  14  28  14  29  14  30  14  31  14  32  14  33  11  34   8
M  ISO  8  35   8  36   8  37  14  38  14  39  14  40   8  41   8  42   8
M  END
>  <minimizedAffinity>  (1) 
-4.72229147

>  <minimizedRMSD>  (1) 
1.06861854

$$$$
