
     RDKit          3D

 39 41  0  0  1  0  0  0  0  0999 V2000
   45.6140   33.9390   43.5040 C   0  0  0  0  0  0  0  0  0  0  0  0
   46.8180   33.2220   43.5800 C   0  0  0  0  0  0  0  0  0  0  0  0
   47.3040   32.8630   44.8550 C   0  0  0  0  0  0  0  0  0  0  0  0
   46.6000   33.2200   45.9460 N   0  0  0  0  0  0  0  0  0  0  0  0
   45.4500   33.9070   45.8690 C   0  0  0  0  0  0  0  0  0  0  0  0
   44.9820   34.2500   44.6640 N   0  0  0  0  0  0  0  0  0  0  0  0
   45.0250   34.4210   42.3030 C   0  0  0  0  0  0  0  0  0  0  0  0
   43.8890   33.4790   41.8090 C   0  0  0  0  0  0  0  0  0  0  0  0
   43.2200   34.4130   40.7760 C   0  0  0  0  0  0  0  0  0  0  0  0
   43.4390   35.7980   41.3010 C   0  0  0  0  0  0  0  0  0  0  0  0
   44.2190   35.6630   42.5930 C   0  0  0  0  0  0  0  0  0  0  0  0
   47.5580   32.8400   42.3850 C   0  0  1  0  0  0  0  0  0  0  0  0
   47.1120   31.5450   41.7980 C   0  0  0  0  0  0  0  0  0  0  0  0
   47.6020   33.9690   41.4120 C   0  0  0  0  0  0  0  0  0  0  0  0
   48.9210   34.6150   41.2310 C   0  0  0  0  0  0  0  0  0  0  0  0
   49.1370   36.0900   41.5570 C   0  0  0  0  0  0  0  0  0  0  0  0
   49.6620   35.0300   42.4670 C   0  0  0  0  0  0  0  0  0  0  0  0
   48.2436   32.3001   44.9563 H   0  0  0  0  0  0  0  0  0  0  0  0
   44.9014   34.1834   46.7815 H   0  0  0  0  0  0  0  0  0  0  0  0
   45.8597   34.5399   41.5965 H   0  0  0  0  0  0  0  0  0  0  0  0
   44.2863   32.5662   41.3411 H   0  0  0  0  0  0  0  0  0  0  0  0
   43.2227   33.0943   42.5952 H   0  0  0  0  0  0  0  0  0  0  0  0
   42.1446   34.1953   40.6984 H   0  0  0  0  0  0  0  0  0  0  0  0
   43.6429   34.2829   39.7689 H   0  0  0  0  0  0  0  0  0  0  0  0
   44.0123   36.3916   40.5737 H   0  0  0  0  0  0  0  0  0  0  0  0
   42.4803   36.3093   41.4725 H   0  0  0  0  0  0  0  0  0  0  0  0
   43.5522   35.5214   43.4563 H   0  0  0  0  0  0  0  0  0  0  0  0
   44.8192   36.5456   42.8590 H   0  0  0  0  0  0  0  0  0  0  0  0
   48.5966   32.6392   42.6868 H   0  0  0  0  0  0  0  0  0  0  0  0
   46.8692   30.8401   42.6068 H   0  0  0  0  0  0  0  0  0  0  0  0
   46.2196   31.7119   41.1769 H   0  0  0  0  0  0  0  0  0  0  0  0
   47.9180   31.1270   41.1769 H   0  0  0  0  0  0  0  0  0  0  0  0
   47.2783   33.5838   40.4338 H   0  0  0  0  0  0  0  0  0  0  0  0
   46.9443   34.7464   41.8280 H   0  0  0  0  0  0  0  0  0  0  0  0
   49.1168   33.9970   40.3423 H   0  0  0  0  0  0  0  0  0  0  0  0
   49.8321   36.6919   40.9532 H   0  0  0  0  0  0  0  0  0  0  0  0
   48.4834   36.9668   41.6756 H   0  0  0  0  0  0  0  0  0  0  0  0
   49.2023   34.8816   43.4553 H   0  0  0  0  0  0  0  0  0  0  0  0
   50.6517   34.7962   42.8864 H   0  0  0  0  0  0  0  0  0  0  0  0
  1  2  1  0
  1  6  2  0
  2  3  2  0
  3  4  1  0
  5  4  2  0
  6  5  1  0
  7 11  1  0
  7  1  1  0
  8  7  1  0
  9 10  1  0
  9  8  1  0
 10 11  1  0
 12  2  1  0
 13 12  1  0
 14 12  1  0
 15 14  1  0
 15 16  1  0
 15 17  1  0
 16 17  1  0
  3 18  1  0
  5 19  1  0
  7 20  1  0
  8 21  1  0
  8 22  1  0
  9 23  1  0
  9 24  1  0
 10 25  1  0
 10 26  1  0
 11 27  1  0
 11 28  1  0
 12 29  1  1
 13 30  1  0
 13 31  1  0
 13 32  1  0
 14 33  1  0
 14 34  1  0
 15 35  1  0
 16 36  1  0
 16 37  1  0
 17 38  1  0
 17 39  1  0
M  ISO  8  18  14  19  14  20  13  21  13  22  13  23  13  24  13  25  13
M  ISO  8  26  13  27  13  28  13  29   8  30   8  31   8  32   8  33   8
M  ISO  6  34   8  35  13  36  13  37  13  38  13  39  13
M  END
>  <minimizedAffinity>  (1) 
-4.55864906

>  <minimizedRMSD>  (1) 
0.785160959

$$$$
