
     RDKit          3D

 46 49  0  0  1  0  0  0  0  0999 V2000
   45.3810   34.5240   40.8630 C   0  0  0  0  0  0  0  0  0  0  0  0
   44.3300   33.5960   40.6990 N   0  0  0  0  0  0  0  0  0  0  0  0
   44.6980   32.3060   40.8980 C   0  0  0  0  0  0  0  0  0  0  0  0
   43.7450   31.2730   40.7450 C   0  0  0  0  0  0  0  0  0  0  0  0
   42.4690   31.6460   40.3940 C   0  0  0  0  0  0  0  0  0  0  0  0
   41.6220   30.7270   40.2550 O   0  0  0  0  0  0  0  0  0  0  0  0
   42.1230   32.9260   40.2010 N   0  0  0  0  0  0  0  0  0  0  0  0
   43.0590   33.8710   40.3580 C   0  0  0  0  0  0  0  0  0  0  0  0
   42.7970   35.0850   40.1920 O   0  0  0  0  0  0  0  0  0  0  0  0
   40.7950   33.3260   39.8340 C   0  0  0  0  0  0  0  0  0  0  0  0
   39.7130   33.5750   40.6410 C   0  0  0  0  0  0  0  0  0  0  0  0
   38.5380   33.9490   40.0160 C   0  0  0  0  0  0  0  0  0  0  0  0
   38.4590   34.0650   38.6690 C   0  0  0  0  0  0  0  0  0  0  0  0
   39.5670   33.8090   37.8630 C   0  0  0  0  0  0  0  0  0  0  0  0
   40.7150   33.4420   38.4900 N   0  0  0  0  0  0  0  0  0  0  0  0
   46.3340   34.3000   41.9550 C   0  0  2  0  0  0  0  0  0  0  0  0
   44.4790   35.9790   44.7700 C   0  0  0  0  0  0  0  0  0  0  0  0
   45.0150   35.7140   43.4930 C   0  0  0  0  0  0  0  0  0  0  0  0
   45.7750   34.5470   43.2910 C   0  0  0  0  0  0  0  0  0  0  0  0
   45.9430   33.7380   44.3710 N   0  0  0  0  0  0  0  0  0  0  0  0
   45.4440   33.9740   45.5880 C   0  0  0  0  0  0  0  0  0  0  0  0
   44.7120   35.0900   45.7920 N   0  0  0  0  0  0  0  0  0  0  0  0
   47.5920   35.1700   41.8650 C   0  0  0  0  0  0  0  0  0  0  0  0
   48.7740   34.2790   41.8340 C   0  0  0  0  0  0  0  0  0  0  0  0
   49.9500   34.3160   42.5500 C   0  0  0  0  0  0  0  0  0  0  0  0
   50.9020   33.3420   42.3410 C   0  0  0  0  0  0  0  0  0  0  0  0
   50.7240   32.3460   41.4550 N   0  0  0  0  0  0  0  0  0  0  0  0
   49.5700   32.3240   40.7630 C   0  0  0  0  0  0  0  0  0  0  0  0
   48.6170   33.2580   40.9400 N   0  0  0  0  0  0  0  0  0  0  0  0
   44.9233   35.5109   41.0258 H   0  0  0  0  0  0  0  0  0  0  0  0
   45.9830   34.4214   39.9481 H   0  0  0  0  0  0  0  0  0  0  0  0
   45.7341   32.0643   41.1774 H   0  0  0  0  0  0  0  0  0  0  0  0
   44.0125   30.2173   40.8999 H   0  0  0  0  0  0  0  0  0  0  0  0
   39.7779   33.4812   41.7351 H   0  0  0  0  0  0  0  0  0  0  0  0
   37.6470   34.1571   40.6266 H   0  0  0  0  0  0  0  0  0  0  0  0
   37.5079   34.3652   38.2049 H   0  0  0  0  0  0  0  0  0  0  0  0
   39.5143   33.9001   36.7680 H   0  0  0  0  0  0  0  0  0  0  0  0
   46.5844   33.2364   41.8281 H   0  0  0  0  0  0  0  0  0  0  0  0
   43.8819   36.8859   44.9461 H   0  0  0  0  0  0  0  0  0  0  0  0
   44.8406   36.4133   42.6620 H   0  0  0  0  0  0  0  0  0  0  0  0
   45.6271   33.2688   46.4121 H   0  0  0  0  0  0  0  0  0  0  0  0
   47.5596   35.7765   40.9479 H   0  0  0  0  0  0  0  0  0  0  0  0
   47.6488   35.8439   42.7326 H   0  0  0  0  0  0  0  0  0  0  0  0
   50.1278   35.1168   43.2829 H   0  0  0  0  0  0  0  0  0  0  0  0
   51.8380   33.3803   42.9176 H   0  0  0  0  0  0  0  0  0  0  0  0
   49.4007   31.5198   40.0318 H   0  0  0  0  0  0  0  0  0  0  0  0
  1 16  1  0
  2  1  1  0
  2  3  1  0
  4  3  2  0
  5  4  1  0
  6  5  2  0
  7  8  1  0
  7  5  1  0
  8  2  1  0
  9  8  2  0
 10  7  1  0
 10 11  2  0
 12 11  1  0
 13 12  2  0
 14 15  2  0
 14 13  1  0
 15 10  1  0
 16 19  1  0
 17 22  2  0
 18 17  1  0
 19 18  2  0
 19 20  1  0
 20 21  2  0
 21 22  1  0
 23 16  1  0
 24 23  1  0
 24 25  2  0
 26 25  1  0
 27 26  2  0
 28 29  2  0
 28 27  1  0
 29 24  1  0
  1 30  1  0
  1 31  1  0
  3 32  1  0
  4 33  1  0
 11 34  1  0
 12 35  1  0
 13 36  1  0
 14 37  1  0
 16 38  1  1
 17 39  1  0
 18 40  1  0
 21 41  1  0
 23 42  1  0
 23 43  1  0
 25 44  1  0
 26 45  1  0
 28 46  1  0
M  ISO  8  30   8  31   8  32  14  33  14  34  14  35  14  36  14  37  14
M  ISO  8  38   8  39  14  40  14  41  14  42   8  43   8  44  14  45  14
M  ISO  1  46  14
M  END
>  <minimizedAffinity>  (1) 
-6.61415195

>  <minimizedRMSD>  (1) 
1.14907229

$$$$
