
     RDKit          3D

 45 48  0  0  1  0  0  0  0  0999 V2000
   45.9500   34.5030   40.9340 C   0  0  0  0  0  0  0  0  0  0  0  0
   44.8740   33.6280   40.6680 N   0  0  0  0  0  0  0  0  0  0  0  0
   45.2070   32.3240   40.7000 C   0  0  0  0  0  0  0  0  0  0  0  0
   44.2310   31.3340   40.4330 C   0  0  0  0  0  0  0  0  0  0  0  0
   42.9600   31.7830   40.1470 C   0  0  0  0  0  0  0  0  0  0  0  0
   42.0890   30.9070   39.9060 O   0  0  0  0  0  0  0  0  0  0  0  0
   42.6440   33.0760   40.1190 N   0  0  0  0  0  0  0  0  0  0  0  0
   43.6070   33.9800   40.3800 C   0  0  0  0  0  0  0  0  0  0  0  0
   43.3700   35.2150   40.3710 O   0  0  0  0  0  0  0  0  0  0  0  0
   41.3250   33.5500   39.8210 C   0  0  0  0  0  0  0  0  0  0  0  0
   40.2810   33.8000   40.6760 C   0  0  0  0  0  0  0  0  0  0  0  0
   39.1060   34.2540   40.1290 C   0  0  0  0  0  0  0  0  0  0  0  0
   38.9810   34.4520   38.7860 C   0  0  0  0  0  0  0  0  0  0  0  0
   40.0480   34.1950   37.9310 C   0  0  0  0  0  0  0  0  0  0  0  0
   41.2020   33.7450   38.4880 N   0  0  0  0  0  0  0  0  0  0  0  0
   46.7270   34.2830   42.1570 C   0  0  2  0  0  0  0  0  0  0  0  0
   44.5250   36.0270   44.6380 C   0  0  0  0  0  0  0  0  0  0  0  0
   45.2260   35.7140   43.4570 C   0  0  0  0  0  0  0  0  0  0  0  0
   46.0060   34.5700   43.3940 C   0  0  0  0  0  0  0  0  0  0  0  0
   46.0500   33.7920   44.5150 N   0  0  0  0  0  0  0  0  0  0  0  0
   45.3930   34.0690   45.6530 C   0  0  0  0  0  0  0  0  0  0  0  0
   44.6320   35.1870   45.7090 N   0  0  0  0  0  0  0  0  0  0  0  0
   48.0250   35.1020   42.2060 C   0  0  0  0  0  0  0  0  0  0  0  0
   49.1450   34.1360   42.0960 C   0  0  0  0  0  0  0  0  0  0  0  0
   49.3370   32.8470   41.6500 C   0  0  0  0  0  0  0  0  0  0  0  0
   50.6530   32.4950   41.8040 C   0  0  0  0  0  0  0  0  0  0  0  0
   51.2680   33.5630   42.3430 N   0  0  0  0  0  0  0  0  0  0  0  0
   50.3690   34.5200   42.5090 N   0  0  0  0  0  0  0  0  0  0  0  0
   45.5384   35.5218   40.9863 H   0  0  0  0  0  0  0  0  0  0  0  0
   46.6635   34.3188   40.1173 H   0  0  0  0  0  0  0  0  0  0  0  0
   46.2400   32.0271   40.9342 H   0  0  0  0  0  0  0  0  0  0  0  0
   44.4747   30.2615   40.4528 H   0  0  0  0  0  0  0  0  0  0  0  0
   40.3817   33.6425   41.7600 H   0  0  0  0  0  0  0  0  0  0  0  0
   38.2494   34.4618   40.7870 H   0  0  0  0  0  0  0  0  0  0  0  0
   38.0286   34.8180   38.3749 H   0  0  0  0  0  0  0  0  0  0  0  0
   39.9603   34.3503   36.8456 H   0  0  0  0  0  0  0  0  0  0  0  0
   46.9456   33.2063   42.1025 H   0  0  0  0  0  0  0  0  0  0  0  0
   43.9025   36.9320   44.6963 H   0  0  0  0  0  0  0  0  0  0  0  0
   45.1543   36.3785   42.5834 H   0  0  0  0  0  0  0  0  0  0  0  0
   45.4718   33.4003   46.5228 H   0  0  0  0  0  0  0  0  0  0  0  0
   48.0554   35.8142   41.3682 H   0  0  0  0  0  0  0  0  0  0  0  0
   48.0923   35.6800   43.1395 H   0  0  0  0  0  0  0  0  0  0  0  0
   48.5528   32.1980   41.2332 H   0  0  0  0  0  0  0  0  0  0  0  0
   51.1138   31.5318   41.5397 H   0  0  0  0  0  0  0  0  0  0  0  0
   52.2672   33.6253   42.5850 H   0  0  0  0  0  0  0  0  0  0  0  0
  1 16  1  0
  2  3  1  0
  2  1  1  0
  4  3  2  0
  5  4  1  0
  6  5  2  0
  7  5  1  0
  7  8  1  0
  8  2  1  0
  9  8  2  0
 10  7  1  0
 10 11  2  0
 12 11  1  0
 13 12  2  0
 14 15  2  0
 14 13  1  0
 15 10  1  0
 16 23  1  0
 16 19  1  0
 17 22  2  0
 18 17  1  0
 19 18  2  0
 19 20  1  0
 20 21  2  0
 21 22  1  0
 24 23  1  0
 24 28  2  0
 25 26  2  0
 25 24  1  0
 26 27  1  0
 27 28  1  0
  1 29  1  0
  1 30  1  0
  3 31  1  0
  4 32  1  0
 11 33  1  0
 12 34  1  0
 13 35  1  0
 14 36  1  0
 16 37  1  1
 17 38  1  0
 18 39  1  0
 21 40  1  0
 23 41  1  0
 23 42  1  0
 25 43  1  0
 26 44  1  0
 27 45  1  0
M  ISO  8  29   8  30   8  31  14  32  14  33  14  34  14  35  14  36  14
M  ISO  8  37   8  38  14  39  14  40  14  41   8  42   8  43  14  44  14
M  ISO  1  45   9
M  END
>  <minimizedAffinity>  (1) 
-6.73855972

>  <minimizedRMSD>  (1) 
0.998703599

$$$$
