
     RDKit          3D

 45 48  0  0  1  0  0  0  0  0999 V2000
   45.5810   34.5120   40.8720 C   0  0  0  0  0  0  0  0  0  0  0  0
   44.5010   33.6100   40.7240 N   0  0  0  0  0  0  0  0  0  0  0  0
   44.8220   32.3240   40.9510 C   0  0  0  0  0  0  0  0  0  0  0  0
   43.8380   31.3130   40.8150 C   0  0  0  0  0  0  0  0  0  0  0  0
   42.5770   31.7180   40.4500 C   0  0  0  0  0  0  0  0  0  0  0  0
   41.6970   30.8310   40.3260 O   0  0  0  0  0  0  0  0  0  0  0  0
   42.2740   33.0110   40.2290 N   0  0  0  0  0  0  0  0  0  0  0  0
   43.2390   33.9300   40.3690 C   0  0  0  0  0  0  0  0  0  0  0  0
   43.0170   35.1510   40.1770 O   0  0  0  0  0  0  0  0  0  0  0  0
   40.9640   33.4450   39.8450 C   0  0  0  0  0  0  0  0  0  0  0  0
   39.8880   33.7490   40.6420 C   0  0  0  0  0  0  0  0  0  0  0  0
   38.7290   34.1470   40.0060 C   0  0  0  0  0  0  0  0  0  0  0  0
   38.6540   34.2340   38.6580 C   0  0  0  0  0  0  0  0  0  0  0  0
   39.7520   33.9230   37.8650 C   0  0  0  0  0  0  0  0  0  0  0  0
   40.8910   33.5320   38.4970 N   0  0  0  0  0  0  0  0  0  0  0  0
   46.4870   34.3110   42.0050 C   0  0  2  0  0  0  0  0  0  0  0  0
   44.4940   35.9750   44.7240 C   0  0  0  0  0  0  0  0  0  0  0  0
   45.0890   35.7010   43.4750 C   0  0  0  0  0  0  0  0  0  0  0  0
   45.8670   34.5650   43.3170 C   0  0  0  0  0  0  0  0  0  0  0  0
   46.0190   33.7470   44.4070 N   0  0  0  0  0  0  0  0  0  0  0  0
   45.4590   33.9950   45.6010 C   0  0  0  0  0  0  0  0  0  0  0  0
   44.6980   35.1010   45.7640 N   0  0  0  0  0  0  0  0  0  0  0  0
   47.7490   35.1710   41.9680 C   0  0  0  0  0  0  0  0  0  0  0  0
   48.9100   34.2250   41.9090 C   0  0  0  0  0  0  0  0  0  0  0  0
   50.0880   34.2100   42.5110 C   0  0  0  0  0  0  0  0  0  0  0  0
   50.9960   33.2140   42.3170 C   0  0  0  0  0  0  0  0  0  0  0  0
   50.5160   32.1770   41.3760 C   0  0  0  0  0  0  0  0  0  0  0  0
   48.7980   32.8290   40.9190 S   0  0  0  0  0  0  0  0  0  0  0  0
   45.1548   35.5216   40.9676 H   0  0  0  0  0  0  0  0  0  0  0  0
   46.2068   34.3438   39.9831 H   0  0  0  0  0  0  0  0  0  0  0  0
   45.8485   32.0566   41.2423 H   0  0  0  0  0  0  0  0  0  0  0  0
   44.0731   30.2533   40.9934 H   0  0  0  0  0  0  0  0  0  0  0  0
   39.9468   33.6786   41.7382 H   0  0  0  0  0  0  0  0  0  0  0  0
   37.8450   34.3995   40.6100 H   0  0  0  0  0  0  0  0  0  0  0  0
   37.7141   34.5543   38.1847 H   0  0  0  0  0  0  0  0  0  0  0  0
   39.7018   33.9905   36.7682 H   0  0  0  0  0  0  0  0  0  0  0  0
   46.7469   33.2481   41.8920 H   0  0  0  0  0  0  0  0  0  0  0  0
   43.8763   36.8745   44.8632 H   0  0  0  0  0  0  0  0  0  0  0  0
   44.9360   36.3869   42.6288 H   0  0  0  0  0  0  0  0  0  0  0  0
   45.6179   33.3034   46.4415 H   0  0  0  0  0  0  0  0  0  0  0  0
   47.7413   35.8183   41.0787 H   0  0  0  0  0  0  0  0  0  0  0  0
   47.8119   35.8216   42.8527 H   0  0  0  0  0  0  0  0  0  0  0  0
   50.3436   35.0334   43.1942 H   0  0  0  0  0  0  0  0  0  0  0  0
   51.9804   33.1833   42.8069 H   0  0  0  0  0  0  0  0  0  0  0  0
   51.0251   31.2647   41.0317 H   0  0  0  0  0  0  0  0  0  0  0  0
  1 16  1  0
  2  1  1  0
  2  3  1  0
  4  3  2  0
  5  4  1  0
  6  5  2  0
  7  8  1  0
  7  5  1  0
  8  2  1  0
  9  8  2  0
 10  7  1  0
 10 11  2  0
 12 11  1  0
 13 12  2  0
 14 15  2  0
 14 13  1  0
 15 10  1  0
 16 19  1  0
 17 22  2  0
 18 17  1  0
 19 18  2  0
 19 20  1  0
 20 21  2  0
 21 22  1  0
 23 16  1  0
 24 23  1  0
 24 25  2  0
 26 25  1  0
 27 26  2  0
 28 27  1  0
 28 24  1  0
  1 29  1  0
  1 30  1  0
  3 31  1  0
  4 32  1  0
 11 33  1  0
 12 34  1  0
 13 35  1  0
 14 36  1  0
 16 37  1  1
 17 38  1  0
 18 39  1  0
 21 40  1  0
 23 41  1  0
 23 42  1  0
 25 43  1  0
 26 44  1  0
 27 45  1  0
M  ISO  8  29   8  30   8  31  14  32  14  33  14  34  14  35  14  36  14
M  ISO  8  37   8  38  14  39  14  40  14  41   8  42   8  43  14  44  14
M  ISO  1  45  14
M  END
>  <minimizedAffinity>  (1) 
-6.54737139

>  <minimizedRMSD>  (1) 
1.08386898

$$$$
