
     RDKit          3D

 52 55  0  0  1  0  0  0  0  0999 V2000
   45.4250   34.5390   40.9620 C   0  0  0  0  0  0  0  0  0  0  0  0
   44.3760   33.6240   40.7160 N   0  0  0  0  0  0  0  0  0  0  0  0
   44.7250   32.3310   40.8600 C   0  0  0  0  0  0  0  0  0  0  0  0
   43.7780   31.3080   40.6310 C   0  0  0  0  0  0  0  0  0  0  0  0
   42.5100   31.7060   40.2620 C   0  0  0  0  0  0  0  0  0  0  0  0
   41.6620   30.8060   40.0560 O   0  0  0  0  0  0  0  0  0  0  0  0
   42.1790   32.9930   40.1240 N   0  0  0  0  0  0  0  0  0  0  0  0
   43.1130   33.9320   40.3520 C   0  0  0  0  0  0  0  0  0  0  0  0
   42.8600   35.1560   40.2390 O   0  0  0  0  0  0  0  0  0  0  0  0
   40.8660   33.4190   39.7390 C   0  0  0  0  0  0  0  0  0  0  0  0
   39.7680   33.6520   40.5290 C   0  0  0  0  0  0  0  0  0  0  0  0
   38.6120   34.0590   39.9000 C   0  0  0  0  0  0  0  0  0  0  0  0
   38.5640   34.2240   38.5440 C   0  0  0  0  0  0  0  0  0  0  0  0
   39.6890   33.9830   37.7520 C   0  0  0  0  0  0  0  0  0  0  0  0
   40.8180   33.5820   38.3940 N   0  0  0  0  0  0  0  0  0  0  0  0
   46.3230   34.2600   42.0880 C   0  0  2  0  0  0  0  0  0  0  0  0
   44.4530   35.9840   44.8360 C   0  0  0  0  0  0  0  0  0  0  0  0
   45.0080   35.6880   43.5750 C   0  0  0  0  0  0  0  0  0  0  0  0
   45.7560   34.5340   43.3980 C   0  0  0  0  0  0  0  0  0  0  0  0
   45.9220   33.7230   44.4850 N   0  0  0  0  0  0  0  0  0  0  0  0
   45.4000   33.9880   45.6990 C   0  0  0  0  0  0  0  0  0  0  0  0
   44.6660   35.1210   45.8710 N   0  0  0  0  0  0  0  0  0  0  0  0
   47.6420   35.0560   42.0080 C   0  0  0  0  0  0  0  0  0  0  0  0
   48.7410   34.2830   41.5300 N   0  0  0  0  0  0  0  0  0  0  0  0
   49.7730   34.3780   42.5590 C   0  0  0  0  0  0  0  0  0  0  0  0
   50.9410   33.5240   42.3360 C   0  0  0  0  0  0  0  0  0  0  0  0
   50.8470   32.4600   41.4180 N   0  0  0  0  0  0  0  0  0  0  0  0
   49.6790   32.3430   40.6410 C   0  0  0  0  0  0  0  0  0  0  0  0
   48.4820   32.8590   41.4350 C   0  0  0  0  0  0  0  0  0  0  0  0
   44.9672   35.5228   41.1428 H   0  0  0  0  0  0  0  0  0  0  0  0
   46.0669   34.4722   40.0712 H   0  0  0  0  0  0  0  0  0  0  0  0
   45.7516   32.0706   41.1571 H   0  0  0  0  0  0  0  0  0  0  0  0
   44.0393   30.2452   40.7416 H   0  0  0  0  0  0  0  0  0  0  0  0
   39.8095   33.5191   41.6202 H   0  0  0  0  0  0  0  0  0  0  0  0
   37.7111   34.2548   40.5000 H   0  0  0  0  0  0  0  0  0  0  0  0
   37.6267   34.5510   38.0701 H   0  0  0  0  0  0  0  0  0  0  0  0
   39.6626   34.1117   36.6599 H   0  0  0  0  0  0  0  0  0  0  0  0
   46.5009   33.1790   41.9891 H   0  0  0  0  0  0  0  0  0  0  0  0
   43.8572   36.8968   44.9836 H   0  0  0  0  0  0  0  0  0  0  0  0
   44.8476   36.3735   42.7298 H   0  0  0  0  0  0  0  0  0  0  0  0
   45.5650   33.2978   46.5395 H   0  0  0  0  0  0  0  0  0  0  0  0
   47.4941   35.9089   41.3293 H   0  0  0  0  0  0  0  0  0  0  0  0
   47.8905   35.3769   43.0304 H   0  0  0  0  0  0  0  0  0  0  0  0
   50.1160   35.4222   42.6047 H   0  0  0  0  0  0  0  0  0  0  0  0
   49.3103   34.0325   43.4953 H   0  0  0  0  0  0  0  0  0  0  0  0
   51.7555   34.1770   41.9894 H   0  0  0  0  0  0  0  0  0  0  0  0
   51.0885   33.0230   43.3041 H   0  0  0  0  0  0  0  0  0  0  0  0
   51.6384   32.5512   40.7651 H   0  0  0  0  0  0  0  0  0  0  0  0
   49.7906   32.9352   39.7208 H   0  0  0  0  0  0  0  0  0  0  0  0
   49.5172   31.2864   40.3816 H   0  0  0  0  0  0  0  0  0  0  0  0
   47.5401   32.6635   40.9016 H   0  0  0  0  0  0  0  0  0  0  0  0
   48.3708   32.3729   42.4155 H   0  0  0  0  0  0  0  0  0  0  0  0
  1 16  1  0
  2  3  1  0
  2  1  1  0
  4  3  2  0
  5  4  1  0
  6  5  2  0
  7  5  1  0
  7  8  1  0
  8  2  1  0
  9  8  2  0
 10  7  1  0
 10 11  2  0
 12 11  1  0
 13 12  2  0
 14 15  2  0
 14 13  1  0
 15 10  1  0
 16 19  1  0
 17 22  2  0
 18 17  1  0
 19 18  2  0
 19 20  1  0
 20 21  2  0
 21 22  1  0
 23 16  1  0
 24 23  1  0
 24 25  1  0
 26 25  1  0
 27 26  1  0
 28 27  1  0
 28 29  1  0
 29 24  1  0
  1 30  1  0
  1 31  1  0
  3 32  1  0
  4 33  1  0
 11 34  1  0
 12 35  1  0
 13 36  1  0
 14 37  1  0
 16 38  1  1
 17 39  1  0
 18 40  1  0
 21 41  1  0
 23 42  1  0
 23 43  1  0
 25 44  1  0
 25 45  1  0
 26 46  1  0
 26 47  1  0
 27 48  1  0
 28 49  1  0
 28 50  1  0
 29 51  1  0
 29 52  1  0
M  ISO  8  30   8  31   8  32  14  33  14  34  14  35  14  36  14  37  14
M  ISO  8  38   8  39  14  40  14  41  14  42   8  43   8  44  13  45  13
M  ISO  7  46  13  47  13  48   5  49  13  50  13  51  13  52  13
M  END
>  <minimizedAffinity>  (1) 
-6.45170736

>  <minimizedRMSD>  (1) 
1.02375305

$$$$
