
     RDKit          3D

 44 47  0  0  1  0  0  0  0  0999 V2000
   45.7550   34.5300   40.9460 C   0  0  0  0  0  0  0  0  0  0  0  0
   44.6970   33.6530   40.6490 N   0  0  0  0  0  0  0  0  0  0  0  0
   45.0470   32.3440   40.6510 C   0  0  0  0  0  0  0  0  0  0  0  0
   44.0840   31.3520   40.3460 C   0  0  0  0  0  0  0  0  0  0  0  0
   42.8150   31.7850   40.0570 C   0  0  0  0  0  0  0  0  0  0  0  0
   41.9560   30.9080   39.7830 O   0  0  0  0  0  0  0  0  0  0  0  0
   42.4800   33.0870   40.0590 N   0  0  0  0  0  0  0  0  0  0  0  0
   43.4250   33.9890   40.3550 C   0  0  0  0  0  0  0  0  0  0  0  0
   43.1770   35.2160   40.3750 O   0  0  0  0  0  0  0  0  0  0  0  0
   41.1570   33.5470   39.7590 C   0  0  0  0  0  0  0  0  0  0  0  0
   40.1020   33.7450   40.6160 C   0  0  0  0  0  0  0  0  0  0  0  0
   38.9260   34.2000   40.0580 C   0  0  0  0  0  0  0  0  0  0  0  0
   38.8160   34.4410   38.7280 C   0  0  0  0  0  0  0  0  0  0  0  0
   39.9000   34.2350   37.8720 C   0  0  0  0  0  0  0  0  0  0  0  0
   41.0510   33.7860   38.4320 N   0  0  0  0  0  0  0  0  0  0  0  0
   46.5840   34.2390   42.1220 C   0  0  2  0  0  0  0  0  0  0  0  0
   44.5020   35.9700   44.7280 C   0  0  0  0  0  0  0  0  0  0  0  0
   45.1350   35.6780   43.5020 C   0  0  0  0  0  0  0  0  0  0  0  0
   45.9240   34.5260   43.3960 C   0  0  0  0  0  0  0  0  0  0  0  0
   46.0320   33.7440   44.5130 N   0  0  0  0  0  0  0  0  0  0  0  0
   45.4370   34.0110   45.6820 C   0  0  0  0  0  0  0  0  0  0  0  0
   44.6700   35.1270   45.7900 N   0  0  0  0  0  0  0  0  0  0  0  0
   47.9090   35.0080   42.1510 C   0  0  0  0  0  0  0  0  0  0  0  0
   48.9650   34.0450   41.9230 N   0  0  0  0  0  0  0  0  0  0  0  0
   49.1330   32.9670   41.1420 C   0  0  0  0  0  0  0  0  0  0  0  0
   50.3670   32.4590   41.3740 N   0  0  0  0  0  0  0  0  0  0  0  0
   50.9800   33.2150   42.3010 C   0  0  0  0  0  0  0  0  0  0  0  0
   50.0940   34.1750   42.6130 N   0  0  0  0  0  0  0  0  0  0  0  0
   45.3196   35.5295   41.0924 H   0  0  0  0  0  0  0  0  0  0  0  0
   46.4430   34.4279   40.0938 H   0  0  0  0  0  0  0  0  0  0  0  0
   46.0802   32.0518   40.8898 H   0  0  0  0  0  0  0  0  0  0  0  0
   44.3418   30.2826   40.3410 H   0  0  0  0  0  0  0  0  0  0  0  0
   40.1909   33.5501   41.6949 H   0  0  0  0  0  0  0  0  0  0  0  0
   38.0553   34.3718   40.7079 H   0  0  0  0  0  0  0  0  0  0  0  0
   37.8614   34.8031   38.3185 H   0  0  0  0  0  0  0  0  0  0  0  0
   39.8239   34.4282   36.7918 H   0  0  0  0  0  0  0  0  0  0  0  0
   46.7660   33.1594   42.0154 H   0  0  0  0  0  0  0  0  0  0  0  0
   43.8775   36.8700   44.8285 H   0  0  0  0  0  0  0  0  0  0  0  0
   45.0103   36.3479   42.6385 H   0  0  0  0  0  0  0  0  0  0  0  0
   45.5671   33.3373   46.5417 H   0  0  0  0  0  0  0  0  0  0  0  0
   47.9187   35.7729   41.3605 H   0  0  0  0  0  0  0  0  0  0  0  0
   48.0452   35.5171   43.1166 H   0  0  0  0  0  0  0  0  0  0  0  0
   48.3941   32.5642   40.4336 H   0  0  0  0  0  0  0  0  0  0  0  0
   51.9898   33.0772   42.7149 H   0  0  0  0  0  0  0  0  0  0  0  0
  1 16  1  0
  2  3  1  0
  2  1  1  0
  4  3  2  0
  5  7  1  0
  5  4  1  0
  6  5  2  0
  7  8  1  0
  8  9  2  0
  8  2  1  0
 10  7  1  0
 10 11  2  0
 12 11  1  0
 13 12  2  0
 14 15  2  0
 14 13  1  0
 15 10  1  0
 16 23  1  0
 16 19  1  0
 17 22  2  0
 18 17  1  0
 19 18  2  0
 19 20  1  0
 20 21  2  0
 21 22  1  0
 24 23  1  0
 24 28  1  0
 25 26  2  0
 25 24  1  0
 26 27  1  0
 27 28  2  0
  1 29  1  0
  1 30  1  0
  3 31  1  0
  4 32  1  0
 11 33  1  0
 12 34  1  0
 13 35  1  0
 14 36  1  0
 16 37  1  1
 17 38  1  0
 18 39  1  0
 21 40  1  0
 23 41  1  0
 23 42  1  0
 25 43  1  0
 27 44  1  0
M  ISO  8  29   8  30   8  31  14  32  14  33  14  34  14  35  14  36  14
M  ISO  8  37   8  38  14  39  14  40  14  41   8  42   8  43  14  44  14
M  END
>  <minimizedAffinity>  (1) 
-6.22869158

>  <minimizedRMSD>  (1) 
0.797123492

$$$$
