
     RDKit          3D

 43 46  0  0  1  0  0  0  0  0999 V2000
   45.8940   34.4330   40.8320 C   0  0  0  0  0  0  0  0  0  0  0  0
   44.7840   33.5780   40.7130 N   0  0  0  0  0  0  0  0  0  0  0  0
   45.0690   32.2680   40.9160 C   0  0  0  0  0  0  0  0  0  0  0  0
   44.0540   31.2920   40.8090 C   0  0  0  0  0  0  0  0  0  0  0  0
   42.7880   31.7460   40.4910 C   0  0  0  0  0  0  0  0  0  0  0  0
   41.8790   30.8860   40.3920 O   0  0  0  0  0  0  0  0  0  0  0  0
   42.5200   33.0370   40.2940 N   0  0  0  0  0  0  0  0  0  0  0  0
   43.5220   33.9260   40.4090 C   0  0  0  0  0  0  0  0  0  0  0  0
   43.3210   35.1490   40.2330 O   0  0  0  0  0  0  0  0  0  0  0  0
   41.2100   33.5160   39.9630 C   0  0  0  0  0  0  0  0  0  0  0  0
   40.1840   33.8790   40.8050 C   0  0  0  0  0  0  0  0  0  0  0  0
   39.0150   34.3090   40.2080 C   0  0  0  0  0  0  0  0  0  0  0  0
   38.8880   34.3690   38.8540 C   0  0  0  0  0  0  0  0  0  0  0  0
   39.9360   34.0000   38.0130 C   0  0  0  0  0  0  0  0  0  0  0  0
   41.0800   33.5780   38.6140 N   0  0  0  0  0  0  0  0  0  0  0  0
   46.7260   34.3010   42.0360 C   0  0  2  0  0  0  0  0  0  0  0  0
   44.5570   36.0480   44.5620 C   0  0  0  0  0  0  0  0  0  0  0  0
   45.2360   35.7560   43.3650 C   0  0  0  0  0  0  0  0  0  0  0  0
   46.0170   34.5980   43.2800 C   0  0  0  0  0  0  0  0  0  0  0  0
   46.0810   33.7940   44.3870 N   0  0  0  0  0  0  0  0  0  0  0  0
   45.4310   34.0710   45.5360 C   0  0  0  0  0  0  0  0  0  0  0  0
   44.6730   35.1960   45.6180 N   0  0  0  0  0  0  0  0  0  0  0  0
   47.9420   35.2600   42.0030 C   0  0  0  0  0  0  0  0  0  0  0  0
   49.1460   34.3930   42.0730 C   0  0  0  0  0  0  0  0  0  0  0  0
   50.3940   34.4720   42.5640 N   0  0  0  0  0  0  0  0  0  0  0  0
   51.0430   33.3820   42.3330 O   0  0  0  0  0  0  0  0  0  0  0  0
   50.2940   32.5220   41.6870 C   0  0  0  0  0  0  0  0  0  0  0  0
   49.1140   33.1450   41.5230 N   0  0  0  0  0  0  0  0  0  0  0  0
   45.5185   35.4665   40.8027 H   0  0  0  0  0  0  0  0  0  0  0  0
   46.5566   34.1494   40.0010 H   0  0  0  0  0  0  0  0  0  0  0  0
   46.0963   31.9639   41.1654 H   0  0  0  0  0  0  0  0  0  0  0  0
   44.2607   30.2238   40.9707 H   0  0  0  0  0  0  0  0  0  0  0  0
   40.2895   33.8292   41.8988 H   0  0  0  0  0  0  0  0  0  0  0  0
   38.1673   34.6098   40.8412 H   0  0  0  0  0  0  0  0  0  0  0  0
   37.9404   34.7152   38.4156 H   0  0  0  0  0  0  0  0  0  0  0  0
   39.8423   34.0478   36.9180 H   0  0  0  0  0  0  0  0  0  0  0  0
   47.0340   33.2451   42.0244 H   0  0  0  0  0  0  0  0  0  0  0  0
   43.9392   36.9545   44.6440 H   0  0  0  0  0  0  0  0  0  0  0  0
   45.1536   36.4331   42.5020 H   0  0  0  0  0  0  0  0  0  0  0  0
   45.5136   33.3929   46.3982 H   0  0  0  0  0  0  0  0  0  0  0  0
   47.9442   35.8432   41.0704 H   0  0  0  0  0  0  0  0  0  0  0  0
   47.9126   35.9784   42.8355 H   0  0  0  0  0  0  0  0  0  0  0  0
   50.5705   31.5113   41.3522 H   0  0  0  0  0  0  0  0  0  0  0  0
  1 16  1  0
  2  1  1  0
  2  3  1  0
  4  3  2  0
  5  4  1  0
  6  5  2  0
  7  8  1  0
  7  5  1  0
  8  2  1  0
  9  8  2  0
 10  7  1  0
 10 11  2  0
 12 11  1  0
 13 12  2  0
 14 15  2  0
 14 13  1  0
 15 10  1  0
 16 19  1  0
 17 22  2  0
 18 17  1  0
 19 18  2  0
 19 20  1  0
 20 21  2  0
 21 22  1  0
 23 16  1  0
 23 24  1  0
 24 25  2  0
 26 25  1  0
 27 26  1  0
 28 27  2  0
 28 24  1  0
  1 29  1  0
  1 30  1  0
  3 31  1  0
  4 32  1  0
 11 33  1  0
 12 34  1  0
 13 35  1  0
 14 36  1  0
 16 37  1  1
 17 38  1  0
 18 39  1  0
 21 40  1  0
 23 41  1  0
 23 42  1  0
 27 43  1  0
M  ISO  8  29   8  30   8  31  14  32  14  33  14  34  14  35  14  36  14
M  ISO  7  37   8  38  14  39  14  40  14  41   8  42   8  43  14
M  END
>  <minimizedAffinity>  (1) 
-6.40761805

>  <minimizedRMSD>  (1) 
1.11635339

$$$$
