
     RDKit          3D

 45 48  0  0  1  0  0  0  0  0999 V2000
   45.6850   34.4070   40.8410 C   0  0  0  0  0  0  0  0  0  0  0  0
   44.5830   33.5250   40.7250 N   0  0  0  0  0  0  0  0  0  0  0  0
   44.8820   32.2390   40.9550 C   0  0  0  0  0  0  0  0  0  0  0  0
   43.8800   31.2450   40.8540 C   0  0  0  0  0  0  0  0  0  0  0  0
   42.6160   31.6760   40.5140 C   0  0  0  0  0  0  0  0  0  0  0  0
   41.7170   30.8020   40.4200 O   0  0  0  0  0  0  0  0  0  0  0  0
   42.3300   32.9640   40.2880 N   0  0  0  0  0  0  0  0  0  0  0  0
   43.3220   33.8660   40.3980 C   0  0  0  0  0  0  0  0  0  0  0  0
   43.1160   35.0920   40.1980 O   0  0  0  0  0  0  0  0  0  0  0  0
   41.0240   33.4210   39.9330 C   0  0  0  0  0  0  0  0  0  0  0  0
   39.9750   33.7660   40.7510 C   0  0  0  0  0  0  0  0  0  0  0  0
   38.8110   34.1800   40.1380 C   0  0  0  0  0  0  0  0  0  0  0  0
   38.7050   34.2440   38.7860 C   0  0  0  0  0  0  0  0  0  0  0  0
   39.7760   33.8910   37.9660 C   0  0  0  0  0  0  0  0  0  0  0  0
   40.9180   33.4850   38.5810 N   0  0  0  0  0  0  0  0  0  0  0  0
   46.5530   34.2670   42.0140 C   0  0  2  0  0  0  0  0  0  0  0  0
   44.5390   36.0720   44.6080 C   0  0  0  0  0  0  0  0  0  0  0  0
   45.1670   35.7390   43.3930 C   0  0  0  0  0  0  0  0  0  0  0  0
   45.9070   34.5720   43.2850 C   0  0  0  0  0  0  0  0  0  0  0  0
   45.9860   33.7850   44.4000 N   0  0  0  0  0  0  0  0  0  0  0  0
   45.3940   34.0820   45.5740 C   0  0  0  0  0  0  0  0  0  0  0  0
   44.6740   35.2180   45.6770 N   0  0  0  0  0  0  0  0  0  0  0  0
   47.8090   35.1540   41.9400 C   0  0  0  0  0  0  0  0  0  0  0  0
   48.9780   34.3100   42.0120 N   0  0  0  0  0  0  0  0  0  0  0  0
   48.9160   33.1230   41.4280 N   0  0  0  0  0  0  0  0  0  0  0  0
   50.0610   32.4340   41.5730 C   0  0  0  0  0  0  0  0  0  0  0  0
   50.9220   33.2290   42.3000 C   0  0  0  0  0  0  0  0  0  0  0  0
   50.2070   34.3800   42.5500 C   0  0  0  0  0  0  0  0  0  0  0  0
   45.2854   35.4318   40.8492 H   0  0  0  0  0  0  0  0  0  0  0  0
   46.3313   34.1559   39.9871 H   0  0  0  0  0  0  0  0  0  0  0  0
   45.9103   31.9551   41.2233 H   0  0  0  0  0  0  0  0  0  0  0  0
   44.0988   30.1827   41.0375 H   0  0  0  0  0  0  0  0  0  0  0  0
   40.0600   33.7142   41.8465 H   0  0  0  0  0  0  0  0  0  0  0  0
   37.9487   34.4649   40.7587 H   0  0  0  0  0  0  0  0  0  0  0  0
   37.7611   34.5790   38.3312 H   0  0  0  0  0  0  0  0  0  0  0  0
   39.7000   33.9390   36.8697 H   0  0  0  0  0  0  0  0  0  0  0  0
   46.8186   33.1999   41.9855 H   0  0  0  0  0  0  0  0  0  0  0  0
   43.9517   36.9975   44.7004 H   0  0  0  0  0  0  0  0  0  0  0  0
   45.0700   36.4080   42.5252 H   0  0  0  0  0  0  0  0  0  0  0  0
   45.4967   33.4070   46.4365 H   0  0  0  0  0  0  0  0  0  0  0  0
   47.8117   35.8623   42.7816 H   0  0  0  0  0  0  0  0  0  0  0  0
   47.8130   35.7192   40.9963 H   0  0  0  0  0  0  0  0  0  0  0  0
   50.2715   31.4264   41.1851 H   0  0  0  0  0  0  0  0  0  0  0  0
   51.9510   32.9960   42.6112 H   0  0  0  0  0  0  0  0  0  0  0  0
   50.5915   35.2419   43.1151 H   0  0  0  0  0  0  0  0  0  0  0  0
  1 16  1  0
  2  1  1  0
  2  3  1  0
  4  3  2  0
  5  4  1  0
  6  5  2  0
  7  8  1  0
  7  5  1  0
  8  2  1  0
  9  8  2  0
 10  7  1  0
 10 11  2  0
 12 11  1  0
 13 12  2  0
 14 15  2  0
 14 13  1  0
 15 10  1  0
 16 19  1  0
 17 22  2  0
 18 17  1  0
 19 18  2  0
 19 20  1  0
 20 21  2  0
 21 22  1  0
 23 24  1  0
 23 16  1  0
 24 28  1  0
 25 26  2  0
 25 24  1  0
 26 27  1  0
 27 28  2  0
  1 29  1  0
  1 30  1  0
  3 31  1  0
  4 32  1  0
 11 33  1  0
 12 34  1  0
 13 35  1  0
 14 36  1  0
 16 37  1  1
 17 38  1  0
 18 39  1  0
 21 40  1  0
 23 41  1  0
 23 42  1  0
 26 43  1  0
 27 44  1  0
 28 45  1  0
M  ISO  8  29   8  30   8  31  14  32  14  33  14  34  14  35  14  36  14
M  ISO  8  37   8  38  14  39  14  40  14  41   8  42   8  43  14  44  14
M  ISO  1  45  14
M  END
>  <minimizedAffinity>  (1) 
-6.3374424

>  <minimizedRMSD>  (1) 
1.10736442

$$$$
