
     RDKit          3D

 40 42  0  0  1  0  0  0  0  0999 V2000
   46.1030   34.5140   41.0090 C   0  0  0  0  0  0  0  0  0  0  0  0
   45.0900   33.6820   40.4910 N   0  0  0  0  0  0  0  0  0  0  0  0
   45.5070   32.4360   40.1680 C   0  0  0  0  0  0  0  0  0  0  0  0
   44.5970   31.5000   39.6260 C   0  0  0  0  0  0  0  0  0  0  0  0
   43.2940   31.9250   39.4520 C   0  0  0  0  0  0  0  0  0  0  0  0
   42.4830   31.0970   38.9720 O   0  0  0  0  0  0  0  0  0  0  0  0
   42.8990   33.1600   39.7770 N   0  0  0  0  0  0  0  0  0  0  0  0
   43.7990   34.0140   40.2880 C   0  0  0  0  0  0  0  0  0  0  0  0
   43.4810   35.1840   40.6090 O   0  0  0  0  0  0  0  0  0  0  0  0
   41.5510   33.6110   39.5980 C   0  0  0  0  0  0  0  0  0  0  0  0
   40.5050   33.5930   40.4860 C   0  0  0  0  0  0  0  0  0  0  0  0
   39.2960   34.0980   40.0480 C   0  0  0  0  0  0  0  0  0  0  0  0
   39.1530   34.5920   38.7880 C   0  0  0  0  0  0  0  0  0  0  0  0
   40.2260   34.6070   37.8890 C   0  0  0  0  0  0  0  0  0  0  0  0
   41.4060   34.1050   38.3400 N   0  0  0  0  0  0  0  0  0  0  0  0
   46.7580   34.0940   42.2560 C   0  0  2  0  0  0  0  0  0  0  0  0
   44.5810   35.9790   44.6510 C   0  0  0  0  0  0  0  0  0  0  0  0
   45.2830   35.6210   43.4820 C   0  0  0  0  0  0  0  0  0  0  0  0
   46.0350   34.4440   43.4680 C   0  0  0  0  0  0  0  0  0  0  0  0
   46.0530   33.6900   44.6040 N   0  0  0  0  0  0  0  0  0  0  0  0
   45.3850   34.0250   45.7270 C   0  0  0  0  0  0  0  0  0  0  0  0
   44.6490   35.1700   45.7470 N   0  0  0  0  0  0  0  0  0  0  0  0
   48.1740   34.7020   42.3990 C   0  0  0  0  0  0  0  0  0  0  0  0
   48.5430   35.4070   41.1970 N   0  0  0  0  0  0  0  0  0  0  0  0
   45.6564   35.5030   41.1889 H   0  0  0  0  0  0  0  0  0  0  0  0
   46.9006   34.4869   40.2520 H   0  0  0  0  0  0  0  0  0  0  0  0
   46.5573   32.1506   40.3277 H   0  0  0  0  0  0  0  0  0  0  0  0
   44.9115   30.4812   39.3555 H   0  0  0  0  0  0  0  0  0  0  0  0
   40.6241   33.1933   41.5038 H   0  0  0  0  0  0  0  0  0  0  0  0
   38.4331   34.1009   40.7302 H   0  0  0  0  0  0  0  0  0  0  0  0
   38.1766   34.9866   38.4702 H   0  0  0  0  0  0  0  0  0  0  0  0
   40.1196   35.0050   36.8690 H   0  0  0  0  0  0  0  0  0  0  0  0
   46.7913   32.9984   42.1636 H   0  0  0  0  0  0  0  0  0  0  0  0
   43.9839   36.9024   44.6790 H   0  0  0  0  0  0  0  0  0  0  0  0
   45.2389   36.2624   42.5895 H   0  0  0  0  0  0  0  0  0  0  0  0
   45.4344   33.3801   46.6168 H   0  0  0  0  0  0  0  0  0  0  0  0
   48.1835   35.4024   43.2472 H   0  0  0  0  0  0  0  0  0  0  0  0
   48.8951   33.8893   42.5711 H   0  0  0  0  0  0  0  0  0  0  0  0
   49.0064   36.2923   41.4468 H   0  0  0  0  0  0  0  0  0  0  0  0
   49.1882   34.8262   40.6427 H   0  0  0  0  0  0  0  0  0  0  0  0
  1 16  1  0
  2  1  1  0
  3  2  1  0
  4  3  2  0
  5  4  1  0
  5  7  1  0
  6  5  2  0
  7  8  1  0
  8  2  1  0
  8  9  2  0
 10  7  1  0
 10 11  2  0
 12 11  1  0
 13 12  2  0
 14 15  2  0
 14 13  1  0
 15 10  1  0
 16 23  1  0
 16 19  1  0
 17 22  2  0
 18 17  1  0
 19 18  2  0
 19 20  1  0
 20 21  2  0
 21 22  1  0
 24 23  1  0
  1 25  1  0
  1 26  1  0
  3 27  1  0
  4 28  1  0
 11 29  1  0
 12 30  1  0
 13 31  1  0
 14 32  1  0
 16 33  1  6
 17 34  1  0
 18 35  1  0
 21 36  1  0
 23 37  1  0
 23 38  1  0
 24 39  1  0
 24 40  1  0
M  ISO  8  25   8  26   8  27  14  28  14  29  14  30  14  31  14  32  14
M  ISO  8  33   8  34  14  35  14  36  14  37   8  38   8  39   5  40   5
M  END
>  <minimizedAffinity>  (1) 
-5.66556406

>  <minimizedRMSD>  (1) 
0.422670662

$$$$
