
     RDKit          3D

 46 49  0  0  1  0  0  0  0  0999 V2000
   46.6500   35.0680   42.3430 C   0  0  0  0  0  0  0  0  0  0  0  0
   45.7830   34.5220   41.3770 N   0  0  0  0  0  0  0  0  0  0  0  0
   46.3910   33.8300   40.3910 C   0  0  0  0  0  0  0  0  0  0  0  0
   45.6370   33.2490   39.3540 C   0  0  0  0  0  0  0  0  0  0  0  0
   44.2760   33.4240   39.4010 C   0  0  0  0  0  0  0  0  0  0  0  0
   43.5890   32.9120   38.4810 O   0  0  0  0  0  0  0  0  0  0  0  0
   43.6700   34.1100   40.3800 N   0  0  0  0  0  0  0  0  0  0  0  0
   44.4400   34.6470   41.3510 C   0  0  0  0  0  0  0  0  0  0  0  0
   43.9240   35.2970   42.2880 O   0  0  0  0  0  0  0  0  0  0  0  0
   42.2550   34.2970   40.4390 C   0  0  0  0  0  0  0  0  0  0  0  0
   41.3130   33.5630   41.1140 C   0  0  0  0  0  0  0  0  0  0  0  0
   39.9970   33.9670   40.9980 C   0  0  0  0  0  0  0  0  0  0  0  0
   39.6520   35.0510   40.2450 C   0  0  0  0  0  0  0  0  0  0  0  0
   40.6310   35.7880   39.5640 C   0  0  0  0  0  0  0  0  0  0  0  0
   41.9150   35.3730   39.6910 N   0  0  0  0  0  0  0  0  0  0  0  0
   47.2150   34.1370   43.3320 C   0  0  2  0  0  0  0  0  0  0  0  0
   50.8220   33.8680   42.3840 C   0  0  0  0  0  0  0  0  0  0  0  0
   49.5800   34.4120   42.7460 C   0  0  0  0  0  0  0  0  0  0  0  0
   48.4930   33.5600   42.9640 C   0  0  0  0  0  0  0  0  0  0  0  0
   48.7020   32.2210   42.8090 N   0  0  0  0  0  0  0  0  0  0  0  0
   49.9010   31.7020   42.4600 C   0  0  0  0  0  0  0  0  0  0  0  0
   50.9520   32.5260   42.2490 N   0  0  0  0  0  0  0  0  0  0  0  0
   46.2660   32.9560   43.6290 C   0  0  0  0  0  0  0  0  0  0  0  0
   45.9490   32.8270   45.0500 C   0  0  0  0  0  0  0  0  0  0  0  0
   45.4700   33.7990   45.9180 C   0  0  0  0  0  0  0  0  0  0  0  0
   45.2090   33.5320   47.2460 C   0  0  0  0  0  0  0  0  0  0  0  0
   45.4350   32.2690   47.6940 N   0  0  0  0  0  0  0  0  0  0  0  0
   45.9030   31.3120   46.8470 C   0  0  0  0  0  0  0  0  0  0  0  0
   46.1540   31.5940   45.5470 N   0  0  0  0  0  0  0  0  0  0  0  0
   46.0909   35.8388   42.8937 H   0  0  0  0  0  0  0  0  0  0  0  0
   47.5143   35.4416   41.7743 H   0  0  0  0  0  0  0  0  0  0  0  0
   47.4854   33.7189   40.3976 H   0  0  0  0  0  0  0  0  0  0  0  0
   46.1162   32.6808   38.5431 H   0  0  0  0  0  0  0  0  0  0  0  0
   41.5935   32.6900   41.7217 H   0  0  0  0  0  0  0  0  0  0  0  0
   39.2118   33.4035   41.5232 H   0  0  0  0  0  0  0  0  0  0  0  0
   38.5958   35.3495   40.1715 H   0  0  0  0  0  0  0  0  0  0  0  0
   40.3686   36.6646   38.9534 H   0  0  0  0  0  0  0  0  0  0  0  0
   47.3562   34.7758   44.2163 H   0  0  0  0  0  0  0  0  0  0  0  0
   51.6852   34.5274   42.2108 H   0  0  0  0  0  0  0  0  0  0  0  0
   49.4626   35.5000   42.8573 H   0  0  0  0  0  0  0  0  0  0  0  0
   50.0207   30.6143   42.3483 H   0  0  0  0  0  0  0  0  0  0  0  0
   45.3296   33.1093   43.0726 H   0  0  0  0  0  0  0  0  0  0  0  0
   46.7787   32.0334   43.3192 H   0  0  0  0  0  0  0  0  0  0  0  0
   45.2929   34.8146   45.5344 H   0  0  0  0  0  0  0  0  0  0  0  0
   44.8307   34.3150   47.9196 H   0  0  0  0  0  0  0  0  0  0  0  0
   46.0800   30.2941   47.2245 H   0  0  0  0  0  0  0  0  0  0  0  0
  1 16  1  0
  2  1  1  0
  3  2  1  0
  4  5  1  0
  4  3  2  0
  5  7  1  0
  6  5  2  0
  7 10  1  0
  7  8  1  0
  8  2  1  0
  8  9  2  0
 10 11  2  0
 12 11  1  0
 13 12  2  0
 14 15  2  0
 14 13  1  0
 15 10  1  0
 16 23  1  0
 17 18  2  0
 18 19  1  0
 19 16  1  0
 20 19  2  0
 21 20  1  0
 22 17  1  0
 22 21  2  0
 23 24  1  0
 24 29  1  0
 24 25  2  0
 25 26  1  0
 26 27  2  0
 28 27  1  0
 29 28  2  0
  1 30  1  0
  1 31  1  0
  3 32  1  0
  4 33  1  0
 11 34  1  0
 12 35  1  0
 13 36  1  0
 14 37  1  0
 16 38  1  1
 17 39  1  0
 18 40  1  0
 21 41  1  0
 23 42  1  0
 23 43  1  0
 25 44  1  0
 26 45  1  0
 28 46  1  0
M  ISO  8  30   8  31   8  32  14  33  14  34  14  35  14  36  14  37  14
M  ISO  8  38   8  39  14  40  14  41  14  42   8  43   8  44  14  45  14
M  ISO  1  46  14
M  END
>  <minimizedAffinity>  (1) 
-6.17945528

>  <minimizedRMSD>  (1) 
4.41856718

$$$$
