
     RDKit          3D

 39 41  0  0  1  0  0  0  0  0999 V2000
   44.9990   33.5860   40.6220 N   0  0  0  0  0  0  0  0  0  0  0  0
   45.3330   32.2750   40.5410 C   0  0  0  0  0  0  0  0  0  0  0  0
   44.3590   31.3110   40.1920 C   0  0  0  0  0  0  0  0  0  0  0  0
   43.0840   31.7770   39.9450 C   0  0  0  0  0  0  0  0  0  0  0  0
   42.2130   30.9270   39.6310 O   0  0  0  0  0  0  0  0  0  0  0  0
   42.7680   33.0720   40.0280 N   0  0  0  0  0  0  0  0  0  0  0  0
   43.7290   33.9480   40.3640 C   0  0  0  0  0  0  0  0  0  0  0  0
   43.4810   35.1710   40.4550 O   0  0  0  0  0  0  0  0  0  0  0  0
   41.4450   33.5640   39.7720 C   0  0  0  0  0  0  0  0  0  0  0  0
   40.3960   33.7200   40.6510 C   0  0  0  0  0  0  0  0  0  0  0  0
   39.2240   34.2220   40.1200 C   0  0  0  0  0  0  0  0  0  0  0  0
   39.1070   34.5430   38.8040 C   0  0  0  0  0  0  0  0  0  0  0  0
   40.1830   34.3760   37.9280 C   0  0  0  0  0  0  0  0  0  0  0  0
   41.3330   33.8830   38.4540 N   0  0  0  0  0  0  0  0  0  0  0  0
   46.0660   34.4330   40.9660 C   0  0  0  0  0  0  0  0  0  0  0  0
   46.7910   34.1380   42.2130 C   0  0  2  0  0  0  0  0  0  0  0  0
   44.5850   36.0040   44.6100 C   0  0  0  0  0  0  0  0  0  0  0  0
   45.2910   35.6610   43.4420 C   0  0  0  0  0  0  0  0  0  0  0  0
   46.0560   34.4880   43.4240 C   0  0  0  0  0  0  0  0  0  0  0  0
   46.0790   33.7260   44.5590 N   0  0  0  0  0  0  0  0  0  0  0  0
   45.4040   34.0520   45.6790 C   0  0  0  0  0  0  0  0  0  0  0  0
   44.6600   35.1890   45.7000 N   0  0  0  0  0  0  0  0  0  0  0  0
   48.1350   34.8960   42.2950 C   0  0  0  0  0  0  0  0  0  0  0  0
   48.5140   35.4200   41.0850 O   0  0  0  0  0  0  0  0  0  0  0  0
   46.3663   31.9594   40.7476 H   0  0  0  0  0  0  0  0  0  0  0  0
   44.6059   30.2414   40.1209 H   0  0  0  0  0  0  0  0  0  0  0  0
   40.4866   33.4594   41.7158 H   0  0  0  0  0  0  0  0  0  0  0  0
   38.3580   34.3667   40.7826 H   0  0  0  0  0  0  0  0  0  0  0  0
   38.1537   34.9390   38.4241 H   0  0  0  0  0  0  0  0  0  0  0  0
   40.1017   34.6323   36.8614 H   0  0  0  0  0  0  0  0  0  0  0  0
   46.7955   34.3953   40.1435 H   0  0  0  0  0  0  0  0  0  0  0  0
   45.6013   35.4153   41.1367 H   0  0  0  0  0  0  0  0  0  0  0  0
   46.9388   33.0488   42.1709 H   0  0  0  0  0  0  0  0  0  0  0  0
   43.9784   36.9210   44.6430 H   0  0  0  0  0  0  0  0  0  0  0  0
   45.2426   36.3070   42.5530 H   0  0  0  0  0  0  0  0  0  0  0  0
   45.4548   33.4045   46.5668 H   0  0  0  0  0  0  0  0  0  0  0  0
   48.0338   35.7174   43.0197 H   0  0  0  0  0  0  0  0  0  0  0  0
   48.9073   34.1772   42.6062 H   0  0  0  0  0  0  0  0  0  0  0  0
   49.0876   36.2130   41.2339 H   0  0  0  0  0  0  0  0  0  0  0  0
  1 15  1  0
  2  1  1  0
  3  2  2  0
  4  6  1  0
  4  3  1  0
  5  4  2  0
  6  7  1  0
  7  8  2  0
  7  1  1  0
  9  6  1  0
  9 10  2  0
 11 10  1  0
 12 11  2  0
 13 14  2  0
 13 12  1  0
 14  9  1  0
 15 16  1  0
 16 23  1  0
 16 19  1  0
 17 22  2  0
 18 17  1  0
 19 18  2  0
 19 20  1  0
 20 21  2  0
 21 22  1  0
 24 23  1  0
  2 25  1  0
  3 26  1  0
 10 27  1  0
 11 28  1  0
 12 29  1  0
 13 30  1  0
 15 31  1  0
 15 32  1  0
 16 33  1  1
 17 34  1  0
 18 35  1  0
 21 36  1  0
 23 37  1  0
 23 38  1  0
 24 39  1  0
M  ISO  8  25  14  26  14  27  14  28  14  29  14  30  14  31   8  32   8
M  ISO  7  33   8  34  14  35  14  36  14  37   8  38   8  39   3
M  END
>  <minimizedAffinity>  (1) 
-5.69171524

>  <minimizedRMSD>  (1) 
0.315985411

$$$$
