
     RDKit          3D

 41 43  0  0  1  0  0  0  0  0999 V2000
   45.7190   33.8220   43.5420 C   0  0  0  0  0  0  0  0  0  0  0  0
   46.8750   33.0270   43.6410 C   0  0  0  0  0  0  0  0  0  0  0  0
   47.3120   32.6350   44.9200 C   0  0  0  0  0  0  0  0  0  0  0  0
   46.6100   33.0350   45.9950 N   0  0  0  0  0  0  0  0  0  0  0  0
   45.5180   33.7870   45.9090 C   0  0  0  0  0  0  0  0  0  0  0  0
   45.0900   34.1660   44.6990 N   0  0  0  0  0  0  0  0  0  0  0  0
   45.1600   34.3270   42.3410 C   0  0  0  0  0  0  0  0  0  0  0  0
   43.8960   33.5260   41.9100 C   0  0  0  0  0  0  0  0  0  0  0  0
   43.3530   34.5060   40.8340 C   0  0  0  0  0  0  0  0  0  0  0  0
   43.7480   35.8630   41.3110 C   0  0  0  0  0  0  0  0  0  0  0  0
   44.5270   35.6780   42.5940 C   0  0  0  0  0  0  0  0  0  0  0  0
   47.5920   32.6130   42.4180 C   0  0  1  0  0  0  0  0  0  0  0  0
   46.7630   31.7650   41.5180 C   0  0  0  0  0  0  0  0  0  0  0  0
   48.3010   33.7600   41.8330 C   0  0  0  0  0  0  0  0  0  0  0  0
   48.5040   33.4740   40.3220 C   0  0  0  0  0  0  0  0  0  0  0  0
   47.9190   34.2940   39.3800 C   0  0  0  0  0  0  0  0  0  0  0  0
   48.1380   33.9820   38.0530 C   0  0  0  0  0  0  0  0  0  0  0  0
   48.9190   32.8860   37.6740 C   0  0  0  0  0  0  0  0  0  0  0  0
   49.4850   32.0930   38.6790 C   0  0  0  0  0  0  0  0  0  0  0  0
   49.2560   32.4180   39.9640 N   0  0  0  0  0  0  0  0  0  0  0  0
   48.2114   32.0128   45.0382 H   0  0  0  0  0  0  0  0  0  0  0  0
   44.9756   34.0925   46.8159 H   0  0  0  0  0  0  0  0  0  0  0  0
   45.9846   34.3051   41.6133 H   0  0  0  0  0  0  0  0  0  0  0  0
   44.1531   32.5449   41.4841 H   0  0  0  0  0  0  0  0  0  0  0  0
   43.1953   33.2709   42.7187 H   0  0  0  0  0  0  0  0  0  0  0  0
   42.2586   34.4271   40.7567 H   0  0  0  0  0  0  0  0  0  0  0  0
   43.7567   34.2863   39.8346 H   0  0  0  0  0  0  0  0  0  0  0  0
   44.3766   36.3592   40.5569 H   0  0  0  0  0  0  0  0  0  0  0  0
   42.8606   36.4905   41.4805 H   0  0  0  0  0  0  0  0  0  0  0  0
   43.8645   35.6579   43.4719 H   0  0  0  0  0  0  0  0  0  0  0  0
   45.2416   36.4842   42.8163 H   0  0  0  0  0  0  0  0  0  0  0  0
   48.3973   31.9069   42.6689 H   0  0  0  0  0  0  0  0  0  0  0  0
   46.1205   31.1078   42.1225 H   0  0  0  0  0  0  0  0  0  0  0  0
   46.1357   32.4082   40.8833 H   0  0  0  0  0  0  0  0  0  0  0  0
   47.4202   31.1525   40.8833 H   0  0  0  0  0  0  0  0  0  0  0  0
   47.7040   34.6747   41.9635 H   0  0  0  0  0  0  0  0  0  0  0  0
   49.2718   33.9046   42.3297 H   0  0  0  0  0  0  0  0  0  0  0  0
   47.3050   35.1584   39.6730 H   0  0  0  0  0  0  0  0  0  0  0  0
   47.6860   34.6125   37.2732 H   0  0  0  0  0  0  0  0  0  0  0  0
   49.0846   32.6526   36.6119 H   0  0  0  0  0  0  0  0  0  0  0  0
   50.1049   31.2211   38.4230 H   0  0  0  0  0  0  0  0  0  0  0  0
  1  2  1  0
  1  6  2  0
  2  3  2  0
  3  4  1  0
  5  4  2  0
  6  5  1  0
  7 11  1  0
  7  1  1  0
  8  7  1  0
  9 10  1  0
  9  8  1  0
 10 11  1  0
 12  2  1  0
 13 12  1  0
 14 12  1  0
 15 14  1  0
 16 15  2  0
 17 16  1  0
 18 17  2  0
 18 19  1  0
 19 20  2  0
 20 15  1  0
  3 21  1  0
  5 22  1  0
  7 23  1  0
  8 24  1  0
  8 25  1  0
  9 26  1  0
  9 27  1  0
 10 28  1  0
 10 29  1  0
 11 30  1  0
 11 31  1  0
 12 32  1  1
 13 33  1  0
 13 34  1  0
 13 35  1  0
 14 36  1  0
 14 37  1  0
 16 38  1  0
 17 39  1  0
 18 40  1  0
 19 41  1  0
M  ISO  8  21  14  22  14  23  13  24  13  25  13  26  13  27  13  28  13
M  ISO  8  29  13  30  13  31  13  32   8  33   8  34   8  35   8  36   8
M  ISO  5  37   8  38  14  39  14  40  14  41  14
M  END
>  <minimizedAffinity>  (1) 
-4.43917799

>  <minimizedRMSD>  (1) 
0.762979984

$$$$
