
     RDKit          3D

 45 47  0  0  1  0  0  0  0  0999 V2000
   45.3740   33.9150   43.2420 C   0  0  0  0  0  0  0  0  0  0  0  0
   46.5110   33.1150   43.4520 C   0  0  0  0  0  0  0  0  0  0  0  0
   46.9830   32.9530   44.7690 C   0  0  0  0  0  0  0  0  0  0  0  0
   46.3330   33.5690   45.7680 N   0  0  0  0  0  0  0  0  0  0  0  0
   45.2590   34.3290   45.5780 C   0  0  0  0  0  0  0  0  0  0  0  0
   44.7980   34.4900   44.3340 N   0  0  0  0  0  0  0  0  0  0  0  0
   44.7870   34.2140   41.9860 C   0  0  0  0  0  0  0  0  0  0  0  0
   43.5690   33.2880   41.6870 C   0  0  0  0  0  0  0  0  0  0  0  0
   42.9570   34.0730   40.4970 C   0  0  0  0  0  0  0  0  0  0  0  0
   43.2960   35.5030   40.7530 C   0  0  0  0  0  0  0  0  0  0  0  0
   44.0760   35.5450   42.0520 C   0  0  0  0  0  0  0  0  0  0  0  0
   47.1680   32.4530   42.3030 C   0  0  1  0  0  0  0  0  0  0  0  0
   46.5540   31.1460   41.9570 C   0  0  0  0  0  0  0  0  0  0  0  0
   47.3950   33.4310   41.2290 C   0  0  0  0  0  0  0  0  0  0  0  0
   48.8800   33.4770   40.9650 N   0  0  0  0  0  0  0  0  0  0  0  0
   49.4740   33.7270   42.2590 C   0  0  0  0  0  0  0  0  0  0  0  0
   50.9400   33.3700   42.3250 C   0  0  0  0  0  0  0  0  0  0  0  0
   51.1370   32.0240   41.9930 O   0  0  0  0  0  0  0  0  0  0  0  0
   50.7090   31.8270   40.7050 C   0  0  0  0  0  0  0  0  0  0  0  0
   49.2400   32.1490   40.5400 C   0  0  0  0  0  0  0  0  0  0  0  0
   47.8680   32.3330   44.9747 H   0  0  0  0  0  0  0  0  0  0  0  0
   44.7593   34.8160   46.4284 H   0  0  0  0  0  0  0  0  0  0  0  0
   45.6109   34.1389   41.2610 H   0  0  0  0  0  0  0  0  0  0  0  0
   43.8825   32.2747   41.3956 H   0  0  0  0  0  0  0  0  0  0  0  0
   42.8914   33.1077   42.5345 H   0  0  0  0  0  0  0  0  0  0  0  0
   41.8661   33.9354   40.4649 H   0  0  0  0  0  0  0  0  0  0  0  0
   43.3502   33.7249   39.5304 H   0  0  0  0  0  0  0  0  0  0  0  0
   43.9094   35.8994   39.9305 H   0  0  0  0  0  0  0  0  0  0  0  0
   42.3860   36.1174   40.8202 H   0  0  0  0  0  0  0  0  0  0  0  0
   43.4093   35.6070   42.9247 H   0  0  0  0  0  0  0  0  0  0  0  0
   44.7396   36.4154   42.1615 H   0  0  0  0  0  0  0  0  0  0  0  0
   48.1806   32.1183   42.5725 H   0  0  0  0  0  0  0  0  0  0  0  0
   46.2996   30.6045   42.8801 H   0  0  0  0  0  0  0  0  0  0  0  0
   45.6408   31.3145   41.3673 H   0  0  0  0  0  0  0  0  0  0  0  0
   47.2667   30.5507   41.3673 H   0  0  0  0  0  0  0  0  0  0  0  0
   46.8610   33.1203   40.3189 H   0  0  0  0  0  0  0  0  0  0  0  0
   47.0225   34.4233   41.5231 H   0  0  0  0  0  0  0  0  0  0  0  0
   49.3647   34.7964   42.4921 H   0  0  0  0  0  0  0  0  0  0  0  0
   48.9510   33.0876   42.9854 H   0  0  0  0  0  0  0  0  0  0  0  0
   51.4977   34.0017   41.6179 H   0  0  0  0  0  0  0  0  0  0  0  0
   51.2989   33.5373   43.3512 H   0  0  0  0  0  0  0  0  0  0  0  0
   51.2921   32.4750   40.0341 H   0  0  0  0  0  0  0  0  0  0  0  0
   50.8537   30.7650   40.4577 H   0  0  0  0  0  0  0  0  0  0  0  0
   48.9802   32.0439   39.4763 H   0  0  0  0  0  0  0  0  0  0  0  0
   48.6866   31.4483   41.1825 H   0  0  0  0  0  0  0  0  0  0  0  0
  1  2  1  0
  1  6  2  0
  2  3  2  0
  3  4  1  0
  5  4  2  0
  6  5  1  0
  7 11  1  0
  7  1  1  0
  8  7  1  0
  9 10  1  0
  9  8  1  0
 10 11  1  0
 12  2  1  0
 13 12  1  0
 14 12  1  0
 15 14  1  0
 15 16  1  0
 16 17  1  0
 18 17  1  0
 19 18  1  0
 20 19  1  0
 20 15  1  0
  3 21  1  0
  5 22  1  0
  7 23  1  0
  8 24  1  0
  8 25  1  0
  9 26  1  0
  9 27  1  0
 10 28  1  0
 10 29  1  0
 11 30  1  0
 11 31  1  0
 12 32  1  1
 13 33  1  0
 13 34  1  0
 13 35  1  0
 14 36  1  0
 14 37  1  0
 16 38  1  0
 16 39  1  0
 17 40  1  0
 17 41  1  0
 19 42  1  0
 19 43  1  0
 20 44  1  0
 20 45  1  0
M  ISO  8  21  14  22  14  23  13  24  13  25  13  26  13  27  13  28  13
M  ISO  8  29  13  30  13  31  13  32   8  33   8  34   8  35   8  36   8
M  ISO  8  37   8  38  13  39  13  40  13  41  13  42  13  43  13  44  13
M  ISO  1  45  13
M  END
>  <minimizedAffinity>  (1) 
-4.34615755

>  <minimizedRMSD>  (1) 
1.98020434

$$$$
