
     RDKit          3D

 20 21  0  0  0  0  0  0  0  0999 V2000
   46.0470   34.9110   43.1460 C   0  0  0  0  0  0  0  0  0  0  0  0
   46.2070   33.8930   44.1060 C   0  0  0  0  0  0  0  0  0  0  0  0
   45.5130   34.0160   45.3170 C   0  0  0  0  0  0  0  0  0  0  0  0
   44.7190   35.1150   45.5030 N   0  0  0  0  0  0  0  0  0  0  0  0
   44.5990   36.0640   44.5520 C   0  0  0  0  0  0  0  0  0  0  0  0
   45.2550   35.9730   43.3750 N   0  0  0  0  0  0  0  0  0  0  0  0
   46.7810   34.7790   41.8670 C   0  0  0  0  0  0  0  0  0  0  0  0
   48.1250   34.2780   41.9960 C   0  0  0  0  0  0  0  0  0  0  0  0
   49.2750   34.9660   42.4860 C   0  0  0  0  0  0  0  0  0  0  0  0
   50.4560   34.2680   42.5120 C   0  0  0  0  0  0  0  0  0  0  0  0
   50.4490   32.9380   42.0580 C   0  0  0  0  0  0  0  0  0  0  0  0
   48.7220   32.6590   41.5770 S   0  0  0  0  0  0  0  0  0  0  0  0
   46.8572   33.0274   43.9110 H   0  0  0  0  0  0  0  0  0  0  0  0
   45.6042   33.2479   46.0991 H   0  0  0  0  0  0  0  0  0  0  0  0
   43.9512   36.9330   44.7396 H   0  0  0  0  0  0  0  0  0  0  0  0
   46.8286   35.7713   41.3947 H   0  0  0  0  0  0  0  0  0  0  0  0
   46.2296   34.0411   41.2658 H   0  0  0  0  0  0  0  0  0  0  0  0
   49.2173   36.0099   42.8278 H   0  0  0  0  0  0  0  0  0  0  0  0
   51.3818   34.7361   42.8777 H   0  0  0  0  0  0  0  0  0  0  0  0
   51.2916   32.2327   42.0064 H   0  0  0  0  0  0  0  0  0  0  0  0
  1  6  1  0
  1  2  2  0
  2  3  1  0
  3  4  2  0
  5  4  1  0
  6  5  2  0
  7  8  1  0
  7  1  1  0
  8  9  2  0
  9 10  1  0
 11 10  2  0
 12  8  1  0
 12 11  1  0
  2 13  1  0
  3 14  1  0
  5 15  1  0
  7 16  1  0
  7 17  1  0
  9 18  1  0
 10 19  1  0
 11 20  1  0
M  ISO  8  13  14  14  14  15  14  16   8  17   8  18  14  19  14  20  14
M  END
>  <minimizedAffinity>  (1) 
-4.29018688

>  <minimizedRMSD>  (1) 
1.60633349

$$$$
