
     RDKit          3D

 20 21  0  0  0  0  0  0  0  0999 V2000
   47.0720   34.8950   42.0150 C   0  0  0  0  0  0  0  0  0  0  0  0
   46.2210   34.9640   43.2280 C   0  0  0  0  0  0  0  0  0  0  0  0
   46.3410   33.9180   44.1600 C   0  0  0  0  0  0  0  0  0  0  0  0
   45.5350   33.9890   45.3020 C   0  0  0  0  0  0  0  0  0  0  0  0
   44.6910   35.0500   45.4460 N   0  0  0  0  0  0  0  0  0  0  0  0
   44.6110   36.0270   44.5260 C   0  0  0  0  0  0  0  0  0  0  0  0
   45.3740   35.9960   43.4070 N   0  0  0  0  0  0  0  0  0  0  0  0
   46.3770   34.2730   40.8660 C   0  0  0  0  0  0  0  0  0  0  0  0
   47.0770   33.6030   39.8650 C   0  0  0  0  0  0  0  0  0  0  0  0
   46.0630   33.1820   38.9980 C   0  0  0  0  0  0  0  0  0  0  0  0
   44.8390   33.5750   39.4520 N   0  0  0  0  0  0  0  0  0  0  0  0
   45.0740   34.2280   40.5780 N   0  0  0  0  0  0  0  0  0  0  0  0
   47.3701   35.9162   41.7354 H   0  0  0  0  0  0  0  0  0  0  0  0
   47.9439   34.2688   42.2553 H   0  0  0  0  0  0  0  0  0  0  0  0
   47.0370   33.0816   43.9988 H   0  0  0  0  0  0  0  0  0  0  0  0
   45.5817   33.2027   46.0698 H   0  0  0  0  0  0  0  0  0  0  0  0
   43.9154   36.8643   44.6842 H   0  0  0  0  0  0  0  0  0  0  0  0
   48.1619   33.4439   39.7777 H   0  0  0  0  0  0  0  0  0  0  0  0
   46.2309   32.6102   38.0734 H   0  0  0  0  0  0  0  0  0  0  0  0
   43.9246   33.4003   39.0113 H   0  0  0  0  0  0  0  0  0  0  0  0
  1  2  1  0
  2  7  1  0
  2  3  2  0
  3  4  1  0
  4  5  2  0
  6  5  1  0
  7  6  2  0
  8  1  1  0
  9  8  1  0
 10 11  1  0
 10  9  2  0
 11 12  1  0
 12  8  2  0
  1 13  1  0
  1 14  1  0
  3 15  1  0
  4 16  1  0
  6 17  1  0
  9 18  1  0
 10 19  1  0
 11 20  1  0
M  ISO  8  13   8  14   8  15  14  16  14  17  14  18  14  19  14  20   9
M  END
>  <minimizedAffinity>  (1) 
-3.88772941

>  <minimizedRMSD>  (1) 
0.281614751

$$$$
