
     RDKit          3D

 19 20  0  0  0  0  0  0  0  0999 V2000
   45.8930   34.8540   43.0520 C   0  0  0  0  0  0  0  0  0  0  0  0
   45.9920   33.8810   44.0500 C   0  0  0  0  0  0  0  0  0  0  0  0
   45.3780   34.1070   45.2860 C   0  0  0  0  0  0  0  0  0  0  0  0
   44.7030   35.2840   45.4590 N   0  0  0  0  0  0  0  0  0  0  0  0
   44.6300   36.2000   44.4670 C   0  0  0  0  0  0  0  0  0  0  0  0
   45.2170   36.0020   43.2650 N   0  0  0  0  0  0  0  0  0  0  0  0
   46.5570   34.5860   41.7480 C   0  0  0  0  0  0  0  0  0  0  0  0
   48.0110   34.2350   41.9430 C   0  0  0  0  0  0  0  0  0  0  0  0
   48.4020   32.9480   41.5940 C   0  0  0  0  0  0  0  0  0  0  0  0
   50.1820   32.9380   41.9730 S   0  0  0  0  0  0  0  0  0  0  0  0
   50.0930   34.7480   42.5630 C   0  0  0  0  0  0  0  0  0  0  0  0
   48.9430   35.0280   42.4110 N   0  0  0  0  0  0  0  0  0  0  0  0
   46.5461   32.9488   43.8657 H   0  0  0  0  0  0  0  0  0  0  0  0
   45.4360   33.3620   46.0933 H   0  0  0  0  0  0  0  0  0  0  0  0
   44.0765   37.1342   44.6431 H   0  0  0  0  0  0  0  0  0  0  0  0
   46.4854   35.4840   41.1167 H   0  0  0  0  0  0  0  0  0  0  0  0
   46.0529   33.7350   41.2667 H   0  0  0  0  0  0  0  0  0  0  0  0
   47.7853   32.1330   41.1873 H   0  0  0  0  0  0  0  0  0  0  0  0
   50.9050   35.3812   42.9499 H   0  0  0  0  0  0  0  0  0  0  0  0
  1  6  1  0
  1  2  2  0
  2  3  1  0
  3  4  2  0
  5  4  1  0
  6  5  2  0
  7  8  1  0
  7  1  1  0
  8 12  1  0
  9  8  2  0
  9 10  1  0
 10 11  1  0
 12 11  2  0
  2 13  1  0
  3 14  1  0
  5 15  1  0
  7 16  1  0
  7 17  1  0
  9 18  1  0
 11 19  1  0
M  ISO  7  13  14  14  14  15  14  16   8  17   8  18  14  19  14
M  END
>  <minimizedAffinity>  (1) 
-3.90905809

>  <minimizedRMSD>  (1) 
1.45406568

$$$$
