
     RDKit          3D

 40 42  0  0  1  0  0  0  0  0999 V2000
   45.5520   33.7950   42.9930 C   0  0  0  0  0  0  0  0  0  0  0  0
   46.7550   33.0690   42.9060 C   0  0  0  0  0  0  0  0  0  0  0  0
   47.4020   32.6980   44.0980 C   0  0  0  0  0  0  0  0  0  0  0  0
   46.8530   33.0530   45.2730 N   0  0  0  0  0  0  0  0  0  0  0  0
   45.7190   33.7410   45.3620 C   0  0  0  0  0  0  0  0  0  0  0  0
   45.0900   34.0980   44.2350 N   0  0  0  0  0  0  0  0  0  0  0  0
   44.7880   34.2740   41.8970 C   0  0  0  0  0  0  0  0  0  0  0  0
   43.4490   33.4930   41.7470 C   0  0  0  0  0  0  0  0  0  0  0  0
   42.7280   34.4500   40.7590 C   0  0  0  0  0  0  0  0  0  0  0  0
   43.2430   35.8110   41.0860 C   0  0  0  0  0  0  0  0  0  0  0  0
   44.2410   35.6480   42.2130 C   0  0  0  0  0  0  0  0  0  0  0  0
   47.2970   32.7030   41.5800 C   0  0  1  0  0  0  0  0  0  0  0  0
   46.4590   31.7070   40.8620 C   0  0  0  0  0  0  0  0  0  0  0  0
   47.7150   33.9190   40.8630 C   0  0  0  0  0  0  0  0  0  0  0  0
   48.3530   33.4770   39.5240 C   0  0  0  0  0  0  0  0  0  0  0  0
   48.0570   34.1390   38.3490 C   0  0  0  0  0  0  0  0  0  0  0  0
   48.6650   33.6810   37.2140 C   0  0  0  0  0  0  0  0  0  0  0  0
   49.5170   32.6290   37.2550 N   0  0  0  0  0  0  0  0  0  0  0  0
   49.8010   31.9880   38.4030 C   0  0  0  0  0  0  0  0  0  0  0  0
   49.2020   32.4370   39.5210 N   0  0  0  0  0  0  0  0  0  0  0  0
   48.3417   32.1268   44.0698 H   0  0  0  0  0  0  0  0  0  0  0  0
   45.3046   34.0123   46.3442 H   0  0  0  0  0  0  0  0  0  0  0  0
   45.4589   34.2057   41.0280 H   0  0  0  0  0  0  0  0  0  0  0  0
   43.6000   32.4918   41.3172 H   0  0  0  0  0  0  0  0  0  0  0  0
   42.9124   33.2840   42.6842 H   0  0  0  0  0  0  0  0  0  0  0  0
   41.6385   34.4048   40.9041 H   0  0  0  0  0  0  0  0  0  0  0  0
   42.9201   34.1790   39.7104 H   0  0  0  0  0  0  0  0  0  0  0  0
   43.7355   36.2500   40.2059 H   0  0  0  0  0  0  0  0  0  0  0  0
   42.4221   36.4805   41.3825 H   0  0  0  0  0  0  0  0  0  0  0  0
   43.7505   35.6737   43.1972 H   0  0  0  0  0  0  0  0  0  0  0  0
   45.0000   36.4419   42.2727 H   0  0  0  0  0  0  0  0  0  0  0  0
   48.2259   32.1232   41.6851 H   0  0  0  0  0  0  0  0  0  0  0  0
   45.9298   31.0780   41.5930 H   0  0  0  0  0  0  0  0  0  0  0  0
   45.7263   32.2312   40.2308 H   0  0  0  0  0  0  0  0  0  0  0  0
   47.1008   31.0747   40.2308 H   0  0  0  0  0  0  0  0  0  0  0  0
   46.8416   34.5590   40.6691 H   0  0  0  0  0  0  0  0  0  0  0  0
   48.4361   34.4928   41.4636 H   0  0  0  0  0  0  0  0  0  0  0  0
   47.3651   34.9939   38.3275 H   0  0  0  0  0  0  0  0  0  0  0  0
   48.4593   34.1743   36.2526 H   0  0  0  0  0  0  0  0  0  0  0  0
   50.4932   31.1334   38.4267 H   0  0  0  0  0  0  0  0  0  0  0  0
  1  6  2  0
  2  1  1  0
  2  3  2  0
  3  4  1  0
  4  5  2  0
  6  5  1  0
  7 11  1  0
  7  1  1  0
  8  7  1  0
  9 10  1  0
  9  8  1  0
 10 11  1  0
 12  2  1  0
 13 12  1  0
 14 12  1  0
 15 14  1  0
 16 15  2  0
 17 18  2  0
 17 16  1  0
 18 19  1  0
 19 20  2  0
 20 15  1  0
  3 21  1  0
  5 22  1  0
  7 23  1  0
  8 24  1  0
  8 25  1  0
  9 26  1  0
  9 27  1  0
 10 28  1  0
 10 29  1  0
 11 30  1  0
 11 31  1  0
 12 32  1  1
 13 33  1  0
 13 34  1  0
 13 35  1  0
 14 36  1  0
 14 37  1  0
 16 38  1  0
 17 39  1  0
 19 40  1  0
M  ISO  8  21  14  22  14  23  13  24  13  25  13  26  13  27  13  28  13
M  ISO  8  29  13  30  13  31  13  32   8  33   8  34   8  35   8  36   8
M  ISO  4  37   8  38  14  39  14  40  14
M  END
>  <minimizedAffinity>  (1) 
-4.30535078

>  <minimizedRMSD>  (1) 
1.07771039

$$$$
