
     RDKit          3D

 29 30  0  0  0  0  0  0  0  0999 V2000
   46.5020   34.6690   41.3880 C   0  0  0  0  0  0  0  0  0  0  0  0
   45.6300   33.8200   40.7600 C   0  0  0  0  0  0  0  0  0  0  0  0
   45.9840   33.0600   39.6640 C   0  0  0  0  0  0  0  0  0  0  0  0
   47.2970   33.2280   39.2500 C   0  0  0  0  0  0  0  0  0  0  0  0
   48.2180   34.0490   39.8220 C   0  0  0  0  0  0  0  0  0  0  0  0
   47.8130   34.7940   40.9230 C   0  0  0  0  0  0  0  0  0  0  0  0
   46.1950   35.5090   42.5600 C   0  0  0  0  0  0  0  0  0  0  0  0
   46.0180   34.7660   43.8180 C   0  0  0  0  0  0  0  0  0  0  0  0
   46.8370   33.6550   44.0600 C   0  0  0  0  0  0  0  0  0  0  0  0
   46.6350   32.9680   45.2790 C   0  0  0  0  0  0  0  0  0  0  0  0
   45.6810   33.3980   46.1460 N   0  0  0  0  0  0  0  0  0  0  0  0
   44.9210   34.4750   45.8610 C   0  0  0  0  0  0  0  0  0  0  0  0
   45.0820   35.1580   44.7090 N   0  0  0  0  0  0  0  0  0  0  0  0
   48.8080   35.6930   41.5550 C   0  0  0  0  0  0  0  0  0  0  0  0
   49.8190   34.9840   42.3820 C   0  0  0  0  0  0  0  0  0  0  0  0
   44.6030   33.7405   41.1460 H   0  0  0  0  0  0  0  0  0  0  0  0
   45.2832   32.3777   39.1606 H   0  0  0  0  0  0  0  0  0  0  0  0
   47.6238   32.6427   38.3778 H   0  0  0  0  0  0  0  0  0  0  0  0
   49.2428   34.1205   39.4288 H   0  0  0  0  0  0  0  0  0  0  0  0
   47.0211   36.2224   42.6964 H   0  0  0  0  0  0  0  0  0  0  0  0
   45.2324   35.9978   42.3491 H   0  0  0  0  0  0  0  0  0  0  0  0
   47.6003   33.3329   43.3364 H   0  0  0  0  0  0  0  0  0  0  0  0
   47.2480   32.0883   45.5248 H   0  0  0  0  0  0  0  0  0  0  0  0
   44.1562   34.8023   46.5807 H   0  0  0  0  0  0  0  0  0  0  0  0
   49.3339   36.2416   40.7597 H   0  0  0  0  0  0  0  0  0  0  0  0
   48.2526   36.3598   42.2310 H   0  0  0  0  0  0  0  0  0  0  0  0
   49.5959   35.1404   43.4477 H   0  0  0  0  0  0  0  0  0  0  0  0
   49.7890   33.9081   42.1552 H   0  0  0  0  0  0  0  0  0  0  0  0
   50.8204   35.3787   42.1552 H   0  0  0  0  0  0  0  0  0  0  0  0
  1  7  1  0
  2  1  2  0
  3  2  1  0
  4  3  2  0
  4  5  1  0
  5  6  2  0
  6  1  1  0
  6 14  1  0
  7  8  1  0
  8  9  2  0
  8 13  1  0
  9 10  1  0
 10 11  2  0
 12 11  1  0
 13 12  2  0
 14 15  1  0
  2 16  1  0
  3 17  1  0
  4 18  1  0
  5 19  1  0
  7 20  1  0
  7 21  1  0
  9 22  1  0
 10 23  1  0
 12 24  1  0
 14 25  1  0
 14 26  1  0
 15 27  1  0
 15 28  1  0
 15 29  1  0
M  ISO  8  16  14  17  14  18  14  19  14  20   8  21   8  22  14  23  14
M  ISO  6  24  14  25   8  26   8  27   8  28   8  29   8
M  END
>  <minimizedAffinity>  (1) 
-4.88761473

>  <minimizedRMSD>  (1) 
1.4981221

$$$$
