
     RDKit          3D

 30 32  0  0  0  0  0  0  0  0999 V2000
   44.8380   34.9510   41.4740 C   0  0  0  0  0  0  0  0  0  0  0  0
   43.5700   35.4680   41.4280 C   0  0  0  0  0  0  0  0  0  0  0  0
   42.6420   35.0810   40.4910 C   0  0  0  0  0  0  0  0  0  0  0  0
   43.0880   34.1230   39.5900 C   0  0  0  0  0  0  0  0  0  0  0  0
   44.3250   33.5650   39.5720 C   0  0  0  0  0  0  0  0  0  0  0  0
   45.2270   33.9870   40.5380 C   0  0  0  0  0  0  0  0  0  0  0  0
   46.5430   33.3990   40.5250 N   0  0  0  0  0  0  0  0  0  0  0  0
   46.9350   32.2390   41.0680 C   0  0  0  0  0  0  0  0  0  0  0  0
   48.2880   32.1430   40.7730 C   0  0  0  0  0  0  0  0  0  0  0  0
   48.6620   33.2300   40.0720 N   0  0  0  0  0  0  0  0  0  0  0  0
   47.5710   34.0310   39.9080 C   0  0  0  0  0  0  0  0  0  0  0  0
   45.8930   35.3080   42.4410 C   0  0  0  0  0  0  0  0  0  0  0  0
   45.6090   34.8970   43.8340 C   0  0  0  0  0  0  0  0  0  0  0  0
   46.2500   33.7320   44.3140 C   0  0  0  0  0  0  0  0  0  0  0  0
   45.9650   33.3610   45.6390 C   0  0  0  0  0  0  0  0  0  0  0  0
   45.1210   34.1030   46.3770 N   0  0  0  0  0  0  0  0  0  0  0  0
   44.5300   35.2150   45.8700 C   0  0  0  0  0  0  0  0  0  0  0  0
   44.7600   35.6350   44.5930 N   0  0  0  0  0  0  0  0  0  0  0  0
   43.2825   36.2249   42.1726 H   0  0  0  0  0  0  0  0  0  0  0  0
   41.6246   35.4979   40.4574 H   0  0  0  0  0  0  0  0  0  0  0  0
   42.3753   33.7865   38.8227 H   0  0  0  0  0  0  0  0  0  0  0  0
   44.6012   32.8090   38.8222 H   0  0  0  0  0  0  0  0  0  0  0  0
   46.3187   31.5190   41.6263 H   0  0  0  0  0  0  0  0  0  0  0  0
   48.9481   31.3129   41.0648 H   0  0  0  0  0  0  0  0  0  0  0  0
   47.5328   34.9958   39.3811 H   0  0  0  0  0  0  0  0  0  0  0  0
   46.8287   34.8247   42.1235 H   0  0  0  0  0  0  0  0  0  0  0  0
   45.9577   36.4061   42.4443 H   0  0  0  0  0  0  0  0  0  0  0  0
   46.9357   33.1468   43.6835 H   0  0  0  0  0  0  0  0  0  0  0  0
   46.4321   32.4642   46.0721 H   0  0  0  0  0  0  0  0  0  0  0  0
   43.8458   35.7941   46.5076 H   0  0  0  0  0  0  0  0  0  0  0  0
  1 12  1  0
  2  1  2  0
  3  2  1  0
  4  3  2  0
  5  4  1  0
  5  6  2  0
  6  1  1  0
  7  6  1  0
  7  8  1  0
  9  8  2  0
 10  9  1  0
 11 10  2  0
 11  7  1  0
 12 13  1  0
 13 14  2  0
 13 18  1  0
 14 15  1  0
 15 16  2  0
 17 16  1  0
 18 17  2  0
  2 19  1  0
  3 20  1  0
  4 21  1  0
  5 22  1  0
  8 23  1  0
  9 24  1  0
 11 25  1  0
 12 26  1  0
 12 27  1  0
 14 28  1  0
 15 29  1  0
 17 30  1  0
M  ISO  8  19  14  20  14  21  14  22  14  23  14  24  14  25  14  26   8
M  ISO  4  27   8  28  14  29  14  30  14
M  END
>  <minimizedAffinity>  (1) 
-4.67797709

>  <minimizedRMSD>  (1) 
3.24724412

$$$$
