
     RDKit          3D

 26 27  0  0  0  0  0  0  0  0999 V2000
   45.9100   34.3090   40.9660 C   0  0  0  0  0  0  0  0  0  0  0  0
   44.5590   34.0900   40.9060 C   0  0  0  0  0  0  0  0  0  0  0  0
   43.9390   33.4130   39.8790 C   0  0  0  0  0  0  0  0  0  0  0  0
   44.8090   32.9630   38.8950 C   0  0  0  0  0  0  0  0  0  0  0  0
   46.1560   33.1370   38.8800 C   0  0  0  0  0  0  0  0  0  0  0  0
   46.7320   33.8280   39.9400 C   0  0  0  0  0  0  0  0  0  0  0  0
   48.2060   34.0300   39.9400 C   0  0  0  0  0  0  0  0  0  0  0  0
   48.7710   33.4830   38.8170 F   0  0  0  0  0  0  0  0  0  0  0  0
   48.5360   35.3840   39.8710 F   0  0  0  0  0  0  0  0  0  0  0  0
   48.8120   33.3980   41.0140 F   0  0  0  0  0  0  0  0  0  0  0  0
   46.6230   35.0230   42.0340 C   0  0  0  0  0  0  0  0  0  0  0  0
   45.9590   34.9840   43.3470 C   0  0  0  0  0  0  0  0  0  0  0  0
   46.2350   33.9140   44.1980 C   0  0  0  0  0  0  0  0  0  0  0  0
   45.5970   33.8790   45.4570 C   0  0  0  0  0  0  0  0  0  0  0  0
   44.7500   34.8850   45.7750 N   0  0  0  0  0  0  0  0  0  0  0  0
   44.5060   35.9040   44.9270 C   0  0  0  0  0  0  0  0  0  0  0  0
   45.1020   35.9680   43.7130 N   0  0  0  0  0  0  0  0  0  0  0  0
   43.9339   34.4767   41.7243 H   0  0  0  0  0  0  0  0  0  0  0  0
   42.8527   33.2441   39.8418 H   0  0  0  0  0  0  0  0  0  0  0  0
   44.3667   32.4152   38.0498 H   0  0  0  0  0  0  0  0  0  0  0  0
   46.7706   32.7443   38.0566 H   0  0  0  0  0  0  0  0  0  0  0  0
   47.6209   34.5726   42.1408 H   0  0  0  0  0  0  0  0  0  0  0  0
   46.6565   36.0805   41.7332 H   0  0  0  0  0  0  0  0  0  0  0  0
   46.9317   33.1181   43.8961 H   0  0  0  0  0  0  0  0  0  0  0  0
   45.7838   33.0550   46.1613 H   0  0  0  0  0  0  0  0  0  0  0  0
   43.8085   36.6997   45.2274 H   0  0  0  0  0  0  0  0  0  0  0  0
  1 11  1  0
  2  1  2  0
  3  2  1  0
  4  3  2  0
  5  4  1  0
  5  6  2  0
  6  7  1  0
  6  1  1  0
  7 10  1  0
  8  7  1  0
  9  7  1  0
 11 12  1  0
 12 17  1  0
 12 13  2  0
 13 14  1  0
 14 15  2  0
 16 15  1  0
 17 16  2  0
  2 18  1  0
  3 19  1  0
  4 20  1  0
  5 21  1  0
 11 22  1  0
 11 23  1  0
 13 24  1  0
 14 25  1  0
 16 26  1  0
M  ISO  8  18  14  19  14  20  14  21  14  22   8  23   8  24  14  25  14
M  ISO  1  26  14
M  END
>  <minimizedAffinity>  (1) 
-4.95968437

>  <minimizedRMSD>  (1) 
1.63092959

$$$$
