
     RDKit          3D

 26 27  0  0  0  0  0  0  0  0999 V2000
   46.6760   35.0100   42.0300 C   0  0  0  0  0  0  0  0  0  0  0  0
   45.9520   34.3360   40.9480 C   0  0  0  0  0  0  0  0  0  0  0  0
   44.5940   34.1970   40.8390 C   0  0  0  0  0  0  0  0  0  0  0  0
   43.9710   33.5520   39.8000 C   0  0  0  0  0  0  0  0  0  0  0  0
   44.8390   33.0400   38.8470 C   0  0  0  0  0  0  0  0  0  0  0  0
   46.1940   33.1300   38.8720 C   0  0  0  0  0  0  0  0  0  0  0  0
   46.7690   33.7940   39.9500 C   0  0  0  0  0  0  0  0  0  0  0  0
   48.2550   33.8830   39.9640 C   0  0  0  0  0  0  0  0  0  0  0  0
   45.9850   34.9860   43.3370 C   0  0  0  0  0  0  0  0  0  0  0  0
   46.2560   33.9000   44.1930 C   0  0  0  0  0  0  0  0  0  0  0  0
   45.6030   33.8720   45.4350 C   0  0  0  0  0  0  0  0  0  0  0  0
   44.7520   34.8810   45.7440 N   0  0  0  0  0  0  0  0  0  0  0  0
   44.5160   35.9080   44.8940 C   0  0  0  0  0  0  0  0  0  0  0  0
   45.1300   35.9730   43.6810 N   0  0  0  0  0  0  0  0  0  0  0  0
   46.8271   36.0604   41.7403 H   0  0  0  0  0  0  0  0  0  0  0  0
   47.6199   34.4613   42.1646 H   0  0  0  0  0  0  0  0  0  0  0  0
   43.9648   34.6281   41.6316 H   0  0  0  0  0  0  0  0  0  0  0  0
   42.8780   33.4500   39.7292 H   0  0  0  0  0  0  0  0  0  0  0  0
   44.3889   32.5129   37.9929 H   0  0  0  0  0  0  0  0  0  0  0  0
   46.8114   32.6953   38.0721 H   0  0  0  0  0  0  0  0  0  0  0  0
   48.6113   33.9043   41.0045 H   0  0  0  0  0  0  0  0  0  0  0  0
   48.6796   33.0087   39.4489 H   0  0  0  0  0  0  0  0  0  0  0  0
   48.5722   34.8018   39.4489 H   0  0  0  0  0  0  0  0  0  0  0  0
   46.9543   33.1028   43.8984 H   0  0  0  0  0  0  0  0  0  0  0  0
   45.7781   33.0485   46.1429 H   0  0  0  0  0  0  0  0  0  0  0  0
   43.8160   36.7036   45.1888 H   0  0  0  0  0  0  0  0  0  0  0  0
  1  9  1  0
  2  1  1  0
  3  2  2  0
  4  3  1  0
  5  6  1  0
  5  4  2  0
  6  7  2  0
  7  8  1  0
  7  2  1  0
  9 14  1  0
  9 10  2  0
 10 11  1  0
 11 12  2  0
 13 12  1  0
 14 13  2  0
  1 15  1  0
  1 16  1  0
  3 17  1  0
  4 18  1  0
  5 19  1  0
  6 20  1  0
  8 21  1  0
  8 22  1  0
  8 23  1  0
 10 24  1  0
 11 25  1  0
 13 26  1  0
M  ISO  8  15   8  16   8  17  14  18  14  19  14  20  14  21   8  22   8
M  ISO  4  23   8  24  14  25  14  26  14
M  END
>  <minimizedAffinity>  (1) 
-4.33451891

>  <minimizedRMSD>  (1) 
1.46232712

$$$$
