
     RDKit          3D

 31 32  0  0  0  0  0  0  0  0999 V2000
   44.3180   35.2740   42.2650 C   0  0  0  0  0  0  0  0  0  0  0  0
   44.7290   34.0530   42.8220 C   0  0  0  0  0  0  0  0  0  0  0  0
   45.1380   34.0600   44.1740 C   0  0  0  0  0  0  0  0  0  0  0  0
   45.1130   35.2360   44.8700 N   0  0  0  0  0  0  0  0  0  0  0  0
   44.7060   36.3720   44.2700 C   0  0  0  0  0  0  0  0  0  0  0  0
   44.3070   36.4260   42.9880 N   0  0  0  0  0  0  0  0  0  0  0  0
   44.6980   37.5730   45.0370 N   0  0  0  0  0  0  0  0  0  0  0  0
   45.2100   38.7900   44.5090 C   0  0  0  0  0  0  0  0  0  0  0  0
   45.1460   38.9710   43.2110 N   0  0  0  0  0  0  0  0  0  0  0  0
   45.7720   39.7640   45.4120 N   0  0  0  0  0  0  0  0  0  0  0  0
   45.4920   39.8210   42.7560 H   0  0  0  0  0  0  0  0  0  0  0  0
   43.8930   35.2570   40.8490 C   0  0  0  0  0  0  0  0  0  0  0  0
   42.4510   35.0880   40.6560 C   0  0  0  0  0  0  0  0  0  0  0  0
   41.4850   35.9700   41.0210 C   0  0  0  0  0  0  0  0  0  0  0  0
   40.1350   35.7640   40.8180 C   0  0  0  0  0  0  0  0  0  0  0  0
   39.8290   34.5500   40.1920 C   0  0  0  0  0  0  0  0  0  0  0  0
   40.7350   33.6230   39.8000 C   0  0  0  0  0  0  0  0  0  0  0  0
   42.0540   33.8980   40.0360 C   0  0  0  0  0  0  0  0  0  0  0  0
   43.2910   32.6720   39.5210 S   0  0  0  0  0  0  0  0  0  0  0  0
   44.7325   33.1267   42.2288 H   0  0  0  0  0  0  0  0  0  0  0  0
   45.4721   33.1315   44.6601 H   0  0  0  0  0  0  0  0  0  0  0  0
   44.3138   37.5593   45.9926 H   0  0  0  0  0  0  0  0  0  0  0  0
   46.1469   40.6504   45.0451 H   0  0  0  0  0  0  0  0  0  0  0  0
   45.7984   39.5732   46.4238 H   0  0  0  0  0  0  0  0  0  0  0  0
   44.1934   36.2092   40.3874 H   0  0  0  0  0  0  0  0  0  0  0  0
   44.3779   34.3858   40.3843 H   0  0  0  0  0  0  0  0  0  0  0  0
   41.7972   36.9056   41.5081 H   0  0  0  0  0  0  0  0  0  0  0  0
   39.3669   36.4905   41.1217 H   0  0  0  0  0  0  0  0  0  0  0  0
   38.7676   34.3315   40.0034 H   0  0  0  0  0  0  0  0  0  0  0  0
   40.4232   32.6877   39.3121 H   0  0  0  0  0  0  0  0  0  0  0  0
   43.8622   32.1059   40.6301 H   0  0  0  0  0  0  0  0  0  0  0  0
  1  2  2  0
  1  6  1  0
  2  3  1  0
  3  4  2  0
  5  4  1  0
  5  7  1  0
  6  5  2  0
  8  7  1  0
  8 10  1  0
  9  8  2  0
 11  9  1  0
 12  1  1  0
 13 12  1  0
 13 14  2  0
 15 14  1  0
 16 15  2  0
 17 18  2  0
 17 16  1  0
 18 13  1  0
 19 18  1  0
  2 20  1  0
  3 21  1  0
  7 22  1  0
 10 23  1  0
 10 24  1  0
 12 25  1  0
 12 26  1  0
 14 27  1  0
 15 28  1  0
 16 29  1  0
 17 30  1  0
 19 31  1  0
M  ISO  8  20  14  21  14  25   8  26   8  27  14  28  14  29  14  30  14
M  ISO  1  31  11
M  END
>  <minimizedAffinity>  (1) 
-5.32381535

>  <minimizedRMSD>  (1) 
3.07167411

$$$$
