
     RDKit          3D

 31 33  0  0  0  0  0  0  0  0999 V2000
   47.9090   35.1180   41.9380 C   0  0  0  0  0  0  0  0  0  0  0  0
   47.9880   34.1040   40.8960 C   0  0  0  0  0  0  0  0  0  0  0  0
   47.0850   33.9180   39.8960 C   0  0  0  0  0  0  0  0  0  0  0  0
   47.2020   32.9370   38.9230 C   0  0  0  0  0  0  0  0  0  0  0  0
   48.3350   32.1410   39.0530 C   0  0  0  0  0  0  0  0  0  0  0  0
   49.2750   32.2690   40.0240 C   0  0  0  0  0  0  0  0  0  0  0  0
   49.0950   33.2570   40.9480 C   0  0  0  0  0  0  0  0  0  0  0  0
   50.3450   33.4400   42.2540 S   0  0  0  0  0  0  0  0  0  0  0  0
   46.8940   34.8500   42.9870 C   0  0  0  0  0  0  0  0  0  0  0  0
   45.7190   35.6450   42.9620 C   0  0  0  0  0  0  0  0  0  0  0  0
   44.7610   35.3830   43.9610 C   0  0  0  0  0  0  0  0  0  0  0  0
   45.0000   34.4100   44.8800 N   0  0  0  0  0  0  0  0  0  0  0  0
   46.1400   33.6900   44.8470 C   0  0  0  0  0  0  0  0  0  0  0  0
   47.0950   33.8900   43.9180 N   0  0  0  0  0  0  0  0  0  0  0  0
   46.3880   32.6290   45.8570 C   0  0  0  0  0  0  0  0  0  0  0  0
   45.8740   31.2300   45.4050 C   0  0  0  0  0  0  0  0  0  0  0  0
   47.3160   31.5210   45.5930 C   0  0  0  0  0  0  0  0  0  0  0  0
   47.6652   36.0796   41.4628 H   0  0  0  0  0  0  0  0  0  0  0  0
   48.8858   35.1212   42.4438 H   0  0  0  0  0  0  0  0  0  0  0  0
   46.2109   34.5847   39.8568 H   0  0  0  0  0  0  0  0  0  0  0  0
   46.4637   32.8004   38.1191 H   0  0  0  0  0  0  0  0  0  0  0  0
   48.4812   31.3437   38.3094 H   0  0  0  0  0  0  0  0  0  0  0  0
   50.1486   31.6017   40.0645 H   0  0  0  0  0  0  0  0  0  0  0  0
   49.7406   33.3515   43.4803 H   0  0  0  0  0  0  0  0  0  0  0  0
   45.5642   36.4252   42.2022 H   0  0  0  0  0  0  0  0  0  0  0  0
   43.8262   35.9616   43.9973 H   0  0  0  0  0  0  0  0  0  0  0  0
   46.2886   33.3216   46.7057 H   0  0  0  0  0  0  0  0  0  0  0  0
   45.4622   31.0885   44.3948 H   0  0  0  0  0  0  0  0  0  0  0  0
   45.1602   30.4872   45.7906 H   0  0  0  0  0  0  0  0  0  0  0  0
   47.8551   31.0571   46.4322 H   0  0  0  0  0  0  0  0  0  0  0  0
   48.1992   31.4130   44.9462 H   0  0  0  0  0  0  0  0  0  0  0  0
  1  9  1  0
  2  7  1  0
  2  1  1  0
  3  2  2  0
  4  5  2  0
  4  3  1  0
  5  6  1  0
  6  7  2  0
  7  8  1  0
  9 14  1  0
 10  9  2  0
 10 11  1  0
 11 12  2  0
 13 12  1  0
 13 15  1  0
 14 13  2  0
 16 17  1  0
 16 15  1  0
 17 15  1  0
  1 18  1  0
  1 19  1  0
  3 20  1  0
  4 21  1  0
  5 22  1  0
  6 23  1  0
  8 24  1  0
 10 25  1  0
 11 26  1  0
 15 27  1  0
 16 28  1  0
 16 29  1  0
 17 30  1  0
 17 31  1  0
M  ISO  8  18   8  19   8  20  14  21  14  22  14  23  14  24  11  25  14
M  ISO  6  26  14  27  13  28  13  29  13  30  13  31  13
M  END
>  <minimizedAffinity>  (1) 
-4.41380787

>  <minimizedRMSD>  (1) 
3.76064539

$$$$
