
     RDKit          3D

 30 31  0  0  0  0  0  0  0  0999 V2000
   48.1170   34.6920   41.2810 C   0  0  0  0  0  0  0  0  0  0  0  0
   48.3630   34.0080   40.0150 C   0  0  0  0  0  0  0  0  0  0  0  0
   48.1990   34.5560   38.7780 C   0  0  0  0  0  0  0  0  0  0  0  0
   48.4440   33.8700   37.5980 C   0  0  0  0  0  0  0  0  0  0  0  0
   48.8780   32.5610   37.7880 C   0  0  0  0  0  0  0  0  0  0  0  0
   49.0640   31.9470   38.9900 C   0  0  0  0  0  0  0  0  0  0  0  0
   48.8020   32.6880   40.1050 C   0  0  0  0  0  0  0  0  0  0  0  0
   49.0400   31.8980   41.7170 S   0  0  0  0  0  0  0  0  0  0  0  0
   46.6960   34.7650   41.6850 C   0  0  0  0  0  0  0  0  0  0  0  0
   45.7390   34.2120   40.7890 C   0  0  0  0  0  0  0  0  0  0  0  0
   44.3970   34.2880   41.1850 C   0  0  0  0  0  0  0  0  0  0  0  0
   44.0670   34.8640   42.3650 N   0  0  0  0  0  0  0  0  0  0  0  0
   45.0280   35.3740   43.1760 C   0  0  0  0  0  0  0  0  0  0  0  0
   46.3430   35.3360   42.8590 N   0  0  0  0  0  0  0  0  0  0  0  0
   44.5240   35.9750   44.4390 C   0  0  0  0  0  0  0  0  0  0  0  0
   44.7200   35.0560   45.6300 C   0  0  0  0  0  0  0  0  0  0  0  0
   48.5005   35.7193   41.1942 H   0  0  0  0  0  0  0  0  0  0  0  0
   48.6272   34.0999   42.0551 H   0  0  0  0  0  0  0  0  0  0  0  0
   47.8538   35.5983   38.7121 H   0  0  0  0  0  0  0  0  0  0  0  0
   48.3079   34.3190   36.6031 H   0  0  0  0  0  0  0  0  0  0  0  0
   49.0900   31.9686   36.8858 H   0  0  0  0  0  0  0  0  0  0  0  0
   49.4086   30.9046   39.0580 H   0  0  0  0  0  0  0  0  0  0  0  0
   48.7683   32.7997   42.7120 H   0  0  0  0  0  0  0  0  0  0  0  0
   46.0367   33.7495   39.8364 H   0  0  0  0  0  0  0  0  0  0  0  0
   43.6094   33.8785   40.5353 H   0  0  0  0  0  0  0  0  0  0  0  0
   45.0646   36.9149   44.6243 H   0  0  0  0  0  0  0  0  0  0  0  0
   43.4443   36.1500   44.3220 H   0  0  0  0  0  0  0  0  0  0  0  0
   44.5975   35.6302   46.5602 H   0  0  0  0  0  0  0  0  0  0  0  0
   43.9739   34.2484   45.5967 H   0  0  0  0  0  0  0  0  0  0  0  0
   45.7307   34.6231   45.5967 H   0  0  0  0  0  0  0  0  0  0  0  0
  1  9  1  0
  2  7  1  0
  2  1  1  0
  3  2  2  0
  4  5  2  0
  4  3  1  0
  5  6  1  0
  6  7  2  0
  7  8  1  0
  9 14  2  0
 10 11  2  0
 10  9  1  0
 11 12  1  0
 12 13  2  0
 13 15  1  0
 14 13  1  0
 15 16  1  0
  1 17  1  0
  1 18  1  0
  3 19  1  0
  4 20  1  0
  5 21  1  0
  6 22  1  0
  8 23  1  0
 10 24  1  0
 11 25  1  0
 15 26  1  0
 15 27  1  0
 16 28  1  0
 16 29  1  0
 16 30  1  0
M  ISO  8  17   8  18   8  19  14  20  14  21  14  22  14  23  11  24  14
M  ISO  6  25  14  26   8  27   8  28   8  29   8  30   8
M  END
>  <minimizedAffinity>  (1) 
-4.43640184

>  <minimizedRMSD>  (1) 
3.20454884

$$$$
