
     RDKit          3D

 32 34  0  0  0  0  0  0  0  0999 V2000
   46.7870   35.0470   42.7830 C   0  0  0  0  0  0  0  0  0  0  0  0
   45.6740   35.9090   42.8280 C   0  0  0  0  0  0  0  0  0  0  0  0
   44.7280   35.6910   43.8290 C   0  0  0  0  0  0  0  0  0  0  0  0
   44.9020   34.6830   44.7050 N   0  0  0  0  0  0  0  0  0  0  0  0
   45.9990   33.8740   44.6180 C   0  0  0  0  0  0  0  0  0  0  0  0
   46.9220   34.0620   43.6680 N   0  0  0  0  0  0  0  0  0  0  0  0
   47.7980   35.2750   41.7160 C   0  0  0  0  0  0  0  0  0  0  0  0
   47.9830   34.1590   40.8000 C   0  0  0  0  0  0  0  0  0  0  0  0
   47.1370   33.8450   39.7910 C   0  0  0  0  0  0  0  0  0  0  0  0
   47.3400   32.7680   38.9260 C   0  0  0  0  0  0  0  0  0  0  0  0
   48.4820   32.0340   39.1800 C   0  0  0  0  0  0  0  0  0  0  0  0
   49.3680   32.2970   40.1740 C   0  0  0  0  0  0  0  0  0  0  0  0
   49.1020   33.3650   40.9760 C   0  0  0  0  0  0  0  0  0  0  0  0
   50.2820   33.7350   42.3190 S   0  0  0  0  0  0  0  0  0  0  0  0
   46.2110   32.7770   45.5530 C   0  0  0  0  0  0  0  0  0  0  0  0
   45.8690   31.5870   45.3260 O   0  0  0  0  0  0  0  0  0  0  0  0
   46.8120   32.9270   46.7970 O   0  0  0  0  0  0  0  0  0  0  0  0
   46.4050   32.1600   47.8850 C   0  0  0  0  0  0  0  0  0  0  0  0
   47.0930   31.1890   48.5490 N   0  0  0  0  0  0  0  0  0  0  0  0
   46.3530   30.7060   49.5190 O   0  0  0  0  0  0  0  0  0  0  0  0
   45.1910   31.3210   49.5310 C   0  0  0  0  0  0  0  0  0  0  0  0
   45.2060   32.2320   48.5170 N   0  0  0  0  0  0  0  0  0  0  0  0
   45.5553   36.7248   42.0997 H   0  0  0  0  0  0  0  0  0  0  0  0
   43.8429   36.3400   43.9029 H   0  0  0  0  0  0  0  0  0  0  0  0
   47.4841   36.1507   41.1290 H   0  0  0  0  0  0  0  0  0  0  0  0
   48.7610   35.4174   42.2281 H   0  0  0  0  0  0  0  0  0  0  0  0
   46.2439   34.4704   39.6451 H   0  0  0  0  0  0  0  0  0  0  0  0
   46.6462   32.5238   38.1081 H   0  0  0  0  0  0  0  0  0  0  0  0
   48.6889   31.1723   38.5283 H   0  0  0  0  0  0  0  0  0  0  0  0
   50.2622   31.6745   40.3252 H   0  0  0  0  0  0  0  0  0  0  0  0
   49.6705   33.5433   43.5299 H   0  0  0  0  0  0  0  0  0  0  0  0
   44.3614   31.1351   50.2291 H   0  0  0  0  0  0  0  0  0  0  0  0
  1  2  2  0
  1  6  1  0
  2  3  1  0
  3  4  2  0
  5  4  1  0
  5 15  1  0
  6  5  2  0
  7  1  1  0
  8 13  1  0
  8  7  1  0
  9  8  2  0
 10 11  2  0
 10  9  1  0
 11 12  1  0
 12 13  2  0
 13 14  1  0
 15 17  1  0
 16 15  2  0
 17 18  1  0
 18 22  1  0
 18 19  2  0
 19 20  1  0
 20 21  1  0
 22 21  2  0
  2 23  1  0
  3 24  1  0
  7 25  1  0
  7 26  1  0
  9 27  1  0
 10 28  1  0
 11 29  1  0
 12 30  1  0
 14 31  1  0
 21 32  1  0
M  ISO  8  23  14  24  14  25   8  26   8  27  14  28  14  29  14  30  14
M  ISO  2  31  11  32  14
M  END
>  <minimizedAffinity>  (1) 
-5.39777803

>  <minimizedRMSD>  (1) 
1.03958809

$$$$
