
     RDKit          3D

 34 36  0  0  0  0  0  0  0  0999 V2000
   46.7760   35.0740   42.7630 C   0  0  0  0  0  0  0  0  0  0  0  0
   45.6740   35.9560   42.7820 C   0  0  0  0  0  0  0  0  0  0  0  0
   44.7030   35.7570   43.7640 C   0  0  0  0  0  0  0  0  0  0  0  0
   44.8430   34.7510   44.6470 N   0  0  0  0  0  0  0  0  0  0  0  0
   45.9230   33.9270   44.5870 C   0  0  0  0  0  0  0  0  0  0  0  0
   46.8740   34.0920   43.6550 N   0  0  0  0  0  0  0  0  0  0  0  0
   47.8110   35.2870   41.7150 C   0  0  0  0  0  0  0  0  0  0  0  0
   47.9860   34.1640   40.8010 C   0  0  0  0  0  0  0  0  0  0  0  0
   47.1480   33.8500   39.7960 C   0  0  0  0  0  0  0  0  0  0  0  0
   47.3470   32.7640   38.9370 C   0  0  0  0  0  0  0  0  0  0  0  0
   48.4860   32.0210   39.1970 C   0  0  0  0  0  0  0  0  0  0  0  0
   49.3750   32.2890   40.2010 C   0  0  0  0  0  0  0  0  0  0  0  0
   49.1000   33.3660   40.9870 C   0  0  0  0  0  0  0  0  0  0  0  0
   50.2810   33.7350   42.3300 S   0  0  0  0  0  0  0  0  0  0  0  0
   46.1070   32.8250   45.5280 C   0  0  0  0  0  0  0  0  0  0  0  0
   45.8480   31.6160   45.2410 O   0  0  0  0  0  0  0  0  0  0  0  0
   46.5810   32.9900   46.8260 O   0  0  0  0  0  0  0  0  0  0  0  0
   46.0990   32.1890   47.8790 C   0  0  0  0  0  0  0  0  0  0  0  0
   46.7980   31.4150   48.7820 C   0  0  0  0  0  0  0  0  0  0  0  0
   45.8510   30.8600   49.5730 N   0  0  0  0  0  0  0  0  0  0  0  0
   44.6530   31.2930   49.1480 C   0  0  0  0  0  0  0  0  0  0  0  0
   44.7640   32.1220   48.0970 N   0  0  0  0  0  0  0  0  0  0  0  0
   45.5840   36.7711   42.0488 H   0  0  0  0  0  0  0  0  0  0  0  0
   43.8266   36.4197   43.8163 H   0  0  0  0  0  0  0  0  0  0  0  0
   47.5251   36.1696   41.1241 H   0  0  0  0  0  0  0  0  0  0  0  0
   48.7683   35.4138   42.2418 H   0  0  0  0  0  0  0  0  0  0  0  0
   46.2598   34.4804   39.6419 H   0  0  0  0  0  0  0  0  0  0  0  0
   46.6531   32.5195   38.1192 H   0  0  0  0  0  0  0  0  0  0  0  0
   48.6901   31.1545   38.5508 H   0  0  0  0  0  0  0  0  0  0  0  0
   50.2667   31.6662   40.3651 H   0  0  0  0  0  0  0  0  0  0  0  0
   49.6696   33.5440   43.5410 H   0  0  0  0  0  0  0  0  0  0  0  0
   47.8877   31.2788   48.8452 H   0  0  0  0  0  0  0  0  0  0  0  0
   43.6956   31.0035   49.6057 H   0  0  0  0  0  0  0  0  0  0  0  0
   44.0106   32.5957   47.5785 H   0  0  0  0  0  0  0  0  0  0  0  0
  1  2  2  0
  1  6  1  0
  2  3  1  0
  3  4  2  0
  5  4  1  0
  5 15  1  0
  6  5  2  0
  7  1  1  0
  8 13  1  0
  8  7  1  0
  9  8  2  0
 10 11  2  0
 10  9  1  0
 11 12  1  0
 12 13  2  0
 13 14  1  0
 15 17  1  0
 16 15  2  0
 17 18  1  0
 18 22  1  0
 18 19  2  0
 19 20  1  0
 21 20  2  0
 22 21  1  0
  2 23  1  0
  3 24  1  0
  7 25  1  0
  7 26  1  0
  9 27  1  0
 10 28  1  0
 11 29  1  0
 12 30  1  0
 14 31  1  0
 19 32  1  0
 21 33  1  0
 22 34  1  0
M  ISO  8  23  14  24  14  25   8  26   8  27  14  28  14  29  14  30  14
M  ISO  4  31  11  32  14  33  14  34   9
M  END
>  <minimizedAffinity>  (1) 
-5.58117437

>  <minimizedRMSD>  (1) 
1.20728016

$$$$
