
     RDKit          3D

 40 42  0  0  0  0  0  0  0  0999 V2000
   46.5180   35.0170   43.0640 C   0  0  0  0  0  0  0  0  0  0  0  0
   45.4370   35.8810   43.3410 C   0  0  0  0  0  0  0  0  0  0  0  0
   44.6590   35.5960   44.4630 C   0  0  0  0  0  0  0  0  0  0  0  0
   44.9470   34.5340   45.2330 N   0  0  0  0  0  0  0  0  0  0  0  0
   46.0110   33.7250   44.9170 C   0  0  0  0  0  0  0  0  0  0  0  0
   46.7720   33.9760   43.8500 N   0  0  0  0  0  0  0  0  0  0  0  0
   47.3540   35.3090   41.8730 C   0  0  0  0  0  0  0  0  0  0  0  0
   47.6120   34.1610   41.0130 C   0  0  0  0  0  0  0  0  0  0  0  0
   46.7370   33.6620   40.1010 C   0  0  0  0  0  0  0  0  0  0  0  0
   47.0100   32.5580   39.2880 C   0  0  0  0  0  0  0  0  0  0  0  0
   48.2690   32.0040   39.4900 C   0  0  0  0  0  0  0  0  0  0  0  0
   49.1930   32.4540   40.3840 C   0  0  0  0  0  0  0  0  0  0  0  0
   48.8390   33.5360   41.1330 C   0  0  0  0  0  0  0  0  0  0  0  0
   50.0620   34.1580   42.3380 S   0  0  0  0  0  0  0  0  0  0  0  0
   46.3530   32.5580   45.7350 C   0  0  0  0  0  0  0  0  0  0  0  0
   45.9160   31.3930   45.4700 O   0  0  0  0  0  0  0  0  0  0  0  0
   47.1730   32.6290   46.8490 O   0  0  0  0  0  0  0  0  0  0  0  0
   46.7140   32.3060   48.1490 C   0  0  0  0  0  0  0  0  0  0  0  0
   47.0240   30.8590   48.4690 C   0  0  0  0  0  0  0  0  0  0  0  0
   45.8000   30.3180   49.1300 C   0  0  0  0  0  0  0  0  0  0  0  0
   44.9030   31.4930   49.3940 C   0  0  0  0  0  0  0  0  0  0  0  0
   45.2190   32.4520   48.2580 C   0  0  0  0  0  0  0  0  0  0  0  0
   45.2167   36.7453   42.6973 H   0  0  0  0  0  0  0  0  0  0  0  0
   43.8068   36.2431   44.7180 H   0  0  0  0  0  0  0  0  0  0  0  0
   46.8416   36.0768   41.2748 H   0  0  0  0  0  0  0  0  0  0  0  0
   48.3323   35.6378   42.2535 H   0  0  0  0  0  0  0  0  0  0  0  0
   45.7589   34.1544   39.9966 H   0  0  0  0  0  0  0  0  0  0  0  0
   46.2925   32.1628   38.5538 H   0  0  0  0  0  0  0  0  0  0  0  0
   48.5411   31.1313   38.8781 H   0  0  0  0  0  0  0  0  0  0  0  0
   50.1741   31.9691   40.4956 H   0  0  0  0  0  0  0  0  0  0  0  0
   49.6081   33.9272   43.6099 H   0  0  0  0  0  0  0  0  0  0  0  0
   47.2203   32.9945   48.8415 H   0  0  0  0  0  0  0  0  0  0  0  0
   47.2399   30.3003   47.5464 H   0  0  0  0  0  0  0  0  0  0  0  0
   47.9082   30.7679   49.1170 H   0  0  0  0  0  0  0  0  0  0  0  0
   45.2975   29.5976   48.4678 H   0  0  0  0  0  0  0  0  0  0  0  0
   46.0513   29.7920   50.0628 H   0  0  0  0  0  0  0  0  0  0  0  0
   43.8453   31.1919   49.3700 H   0  0  0  0  0  0  0  0  0  0  0  0
   45.0670   31.9393   50.3859 H   0  0  0  0  0  0  0  0  0  0  0  0
   44.9334   33.4835   48.5117 H   0  0  0  0  0  0  0  0  0  0  0  0
   44.6780   32.2358   47.3249 H   0  0  0  0  0  0  0  0  0  0  0  0
  1  2  2  0
  1  6  1  0
  2  3  1  0
  3  4  2  0
  5  4  1  0
  5 15  1  0
  6  5  2  0
  7  1  1  0
  8 13  1  0
  8  7  1  0
  9  8  2  0
 10 11  2  0
 10  9  1  0
 11 12  1  0
 12 13  2  0
 13 14  1  0
 15 17  1  0
 16 15  2  0
 17 18  1  0
 18 22  1  0
 18 19  1  0
 19 20  1  0
 20 21  1  0
 22 21  1  0
  2 23  1  0
  3 24  1  0
  7 25  1  0
  7 26  1  0
  9 27  1  0
 10 28  1  0
 11 29  1  0
 12 30  1  0
 14 31  1  0
 18 32  1  0
 19 33  1  0
 19 34  1  0
 20 35  1  0
 20 36  1  0
 21 37  1  0
 21 38  1  0
 22 39  1  0
 22 40  1  0
M  ISO  8  23  14  24  14  25   8  26   8  27  14  28  14  29  14  30  14
M  ISO  8  31  11  32  13  33  13  34  13  35  13  36  13  37  13  38  13
M  ISO  2  39  13  40  13
M  END
>  <minimizedAffinity>  (1) 
-5.58149672

>  <minimizedRMSD>  (1) 
0.91110599

$$$$
