
     RDKit          3D

 39 40  0  0  0  0  0  0  0  0999 V2000
   46.6240   35.4120   42.1400 C   0  0  0  0  0  0  0  0  0  0  0  0
   47.0440   34.3090   41.2780 C   0  0  0  0  0  0  0  0  0  0  0  0
   46.2180   33.5890   40.4880 C   0  0  0  0  0  0  0  0  0  0  0  0
   46.6530   32.5430   39.6790 C   0  0  0  0  0  0  0  0  0  0  0  0
   48.0080   32.2930   39.7440 C   0  0  0  0  0  0  0  0  0  0  0  0
   48.8960   32.9730   40.5120 C   0  0  0  0  0  0  0  0  0  0  0  0
   48.3920   33.9810   41.2740 C   0  0  0  0  0  0  0  0  0  0  0  0
   49.5620   34.9160   42.3200 S   0  0  0  0  0  0  0  0  0  0  0  0
   46.0450   35.0010   43.4360 C   0  0  0  0  0  0  0  0  0  0  0  0
   45.1070   35.8610   44.0430 C   0  0  0  0  0  0  0  0  0  0  0  0
   44.5640   35.4660   45.2700 C   0  0  0  0  0  0  0  0  0  0  0  0
   44.9400   34.3030   45.8280 N   0  0  0  0  0  0  0  0  0  0  0  0
   45.8510   33.5100   45.1970 C   0  0  0  0  0  0  0  0  0  0  0  0
   46.3950   33.8580   44.0160 N   0  0  0  0  0  0  0  0  0  0  0  0
   46.2880   32.2340   45.7720 C   0  0  0  0  0  0  0  0  0  0  0  0
   45.7490   31.1310   45.4950 O   0  0  0  0  0  0  0  0  0  0  0  0
   47.3350   32.1190   46.6740 O   0  0  0  0  0  0  0  0  0  0  0  0
   47.0930   31.6120   47.9870 C   0  0  0  0  0  0  0  0  0  0  0  0
   48.3250   31.8030   48.8530 C   0  0  0  0  0  0  0  0  0  0  0  0
   45.9560   32.3130   48.6420 C   0  0  0  0  0  0  0  0  0  0  0  0
   46.8140   30.1460   47.8690 C   0  0  0  0  0  0  0  0  0  0  0  0
   45.8682   36.0003   41.5989 H   0  0  0  0  0  0  0  0  0  0  0  0
   47.5335   35.9843   42.3752 H   0  0  0  0  0  0  0  0  0  0  0  0
   45.1475   33.8420   40.4838 H   0  0  0  0  0  0  0  0  0  0  0  0
   45.9714   31.9628   39.0397 H   0  0  0  0  0  0  0  0  0  0  0  0
   48.4009   31.4751   39.1221 H   0  0  0  0  0  0  0  0  0  0  0  0
   49.9671   32.7225   40.5182 H   0  0  0  0  0  0  0  0  0  0  0  0
   49.2767   34.6880   43.6404 H   0  0  0  0  0  0  0  0  0  0  0  0
   44.8127   36.8088   43.5685 H   0  0  0  0  0  0  0  0  0  0  0  0
   43.8291   36.1076   45.7782 H   0  0  0  0  0  0  0  0  0  0  0  0
   48.0379   31.7585   49.9139 H   0  0  0  0  0  0  0  0  0  0  0  0
   49.0525   31.0069   48.6363 H   0  0  0  0  0  0  0  0  0  0  0  0
   48.7773   32.7820   48.6363 H   0  0  0  0  0  0  0  0  0  0  0  0
   46.0644   32.2461   49.7346 H   0  0  0  0  0  0  0  0  0  0  0  0
   45.9528   33.3701   48.3379 H   0  0  0  0  0  0  0  0  0  0  0  0
   45.0101   31.8411   48.3379 H   0  0  0  0  0  0  0  0  0  0  0  0
   46.7304   29.7066   48.8740 H   0  0  0  0  0  0  0  0  0  0  0  0
   45.8710   29.9950   47.3232 H   0  0  0  0  0  0  0  0  0  0  0  0
   47.6356   29.6592   47.3232 H   0  0  0  0  0  0  0  0  0  0  0  0
  1  9  1  0
  2  1  1  0
  3  2  2  0
  4  5  2  0
  4  3  1  0
  5  6  1  0
  6  7  2  0
  7  2  1  0
  7  8  1  0
  9 14  1  0
  9 10  2  0
 10 11  1  0
 11 12  2  0
 13 15  1  0
 13 12  1  0
 14 13  2  0
 15 17  1  0
 16 15  2  0
 17 18  1  0
 18 20  1  0
 18 19  1  0
 21 18  1  0
  1 22  1  0
  1 23  1  0
  3 24  1  0
  4 25  1  0
  5 26  1  0
  6 27  1  0
  8 28  1  0
 10 29  1  0
 11 30  1  0
 19 31  1  0
 19 32  1  0
 19 33  1  0
 20 34  1  0
 20 35  1  0
 20 36  1  0
 21 37  1  0
 21 38  1  0
 21 39  1  0
M  ISO  8  22   8  23   8  24  14  25  14  26  14  27  14  28  11  29  14
M  ISO  8  30  14  31   8  32   8  33   8  34   8  35   8  36   8  37   8
M  ISO  2  38   8  39   8
M  END
>  <minimizedAffinity>  (1) 
-5.00183153

>  <minimizedRMSD>  (1) 
0.834091246

$$$$
