
     RDKit          3D

 34 36  0  0  0  0  0  0  0  0999 V2000
   47.1970   35.2590   41.9330 C   0  0  0  0  0  0  0  0  0  0  0  0
   47.3100   34.0870   41.0800 C   0  0  0  0  0  0  0  0  0  0  0  0
   46.3350   33.6380   40.2620 C   0  0  0  0  0  0  0  0  0  0  0  0
   46.4730   32.5060   39.4510 C   0  0  0  0  0  0  0  0  0  0  0  0
   47.7000   31.8730   39.5540 C   0  0  0  0  0  0  0  0  0  0  0  0
   48.7230   32.2710   40.3570 C   0  0  0  0  0  0  0  0  0  0  0  0
   48.5050   33.3870   41.1160 C   0  0  0  0  0  0  0  0  0  0  0  0
   49.8570   33.9490   42.2030 S   0  0  0  0  0  0  0  0  0  0  0  0
   46.3730   35.0700   43.1520 C   0  0  0  0  0  0  0  0  0  0  0  0
   45.2990   35.9580   43.3720 C   0  0  0  0  0  0  0  0  0  0  0  0
   44.5300   35.7700   44.5220 C   0  0  0  0  0  0  0  0  0  0  0  0
   44.8230   34.7700   45.3730 N   0  0  0  0  0  0  0  0  0  0  0  0
   45.8740   33.9400   45.1100 C   0  0  0  0  0  0  0  0  0  0  0  0
   46.6340   34.0900   44.0160 N   0  0  0  0  0  0  0  0  0  0  0  0
   46.2220   32.8430   46.0110 C   0  0  0  0  0  0  0  0  0  0  0  0
   47.1170   31.9880   45.7630 O   0  0  0  0  0  0  0  0  0  0  0  0
   45.6020   32.6280   47.2360 O   0  0  0  0  0  0  0  0  0  0  0  0
   46.0400   31.6130   48.1210 C   0  0  0  0  0  0  0  0  0  0  0  0
   45.0670   30.4760   48.2870 C   0  0  0  0  0  0  0  0  0  0  0  0
   45.2440   31.5200   49.3740 C   0  0  0  0  0  0  0  0  0  0  0  0
   46.7489   36.0703   41.3406 H   0  0  0  0  0  0  0  0  0  0  0  0
   48.2154   35.4844   42.2822 H   0  0  0  0  0  0  0  0  0  0  0  0
   45.3839   34.1897   40.2312 H   0  0  0  0  0  0  0  0  0  0  0  0
   45.6726   32.1486   38.7865 H   0  0  0  0  0  0  0  0  0  0  0  0
   47.8603   30.9765   38.9371 H   0  0  0  0  0  0  0  0  0  0  0  0
   49.6763   31.7234   40.3939 H   0  0  0  0  0  0  0  0  0  0  0  0
   49.4846   33.7942   43.5123 H   0  0  0  0  0  0  0  0  0  0  0  0
   45.0756   36.7690   42.6632 H   0  0  0  0  0  0  0  0  0  0  0  0
   43.6836   36.4403   44.7325 H   0  0  0  0  0  0  0  0  0  0  0  0
   47.1120   31.6856   47.8853 H   0  0  0  0  0  0  0  0  0  0  0  0
   44.1421   30.4484   47.6922 H   0  0  0  0  0  0  0  0  0  0  0  0
   45.1273   29.3788   48.2365 H   0  0  0  0  0  0  0  0  0  0  0  0
   45.7371   31.2507   50.3197 H   0  0  0  0  0  0  0  0  0  0  0  0
   44.5693   32.1974   49.9181 H   0  0  0  0  0  0  0  0  0  0  0  0
  1  9  1  0
  2  7  1  0
  2  1  1  0
  3  2  2  0
  4  5  2  0
  4  3  1  0
  5  6  1  0
  6  7  2  0
  7  8  1  0
  9 10  2  0
  9 14  1  0
 10 11  1  0
 11 12  2  0
 13 12  1  0
 13 15  1  0
 14 13  2  0
 15 17  1  0
 16 15  2  0
 17 18  1  0
 18 19  1  0
 18 20  1  0
 19 20  1  0
  1 21  1  0
  1 22  1  0
  3 23  1  0
  4 24  1  0
  5 25  1  0
  6 26  1  0
  8 27  1  0
 10 28  1  0
 11 29  1  0
 18 30  1  0
 19 31  1  0
 19 32  1  0
 20 33  1  0
 20 34  1  0
M  ISO  8  21   8  22   8  23  14  24  14  25  14  26  14  27  11  28  14
M  ISO  6  29  14  30  13  31  13  32  13  33  13  34  13
M  END
>  <minimizedAffinity>  (1) 
-5.21165085

>  <minimizedRMSD>  (1) 
0.81332612

$$$$
