
     RDKit          3D

 31 32  0  0  0  0  0  0  0  0999 V2000
   46.1740   34.8770   43.4070 C   0  0  0  0  0  0  0  0  0  0  0  0
   45.1390   35.7550   43.8140 C   0  0  0  0  0  0  0  0  0  0  0  0
   44.5370   35.5150   45.0490 C   0  0  0  0  0  0  0  0  0  0  0  0
   44.9480   34.4770   45.8050 N   0  0  0  0  0  0  0  0  0  0  0  0
   45.9450   33.6660   45.3650 C   0  0  0  0  0  0  0  0  0  0  0  0
   46.5520   33.8650   44.1770 N   0  0  0  0  0  0  0  0  0  0  0  0
   46.8120   35.1380   42.0890 C   0  0  0  0  0  0  0  0  0  0  0  0
   47.3270   33.9460   41.4170 C   0  0  0  0  0  0  0  0  0  0  0  0
   46.5690   33.0690   40.7290 C   0  0  0  0  0  0  0  0  0  0  0  0
   47.0880   31.9420   40.0980 C   0  0  0  0  0  0  0  0  0  0  0  0
   48.4540   31.7920   40.2350 C   0  0  0  0  0  0  0  0  0  0  0  0
   49.2810   32.6290   40.9090 C   0  0  0  0  0  0  0  0  0  0  0  0
   48.6920   33.7080   41.4980 C   0  0  0  0  0  0  0  0  0  0  0  0
   49.7570   34.8680   42.4180 S   0  0  0  0  0  0  0  0  0  0  0  0
   46.4220   32.5300   46.1530 C   0  0  0  0  0  0  0  0  0  0  0  0
   46.1850   31.3200   45.8540 O   0  0  0  0  0  0  0  0  0  0  0  0
   47.1850   32.6670   47.3110 O   0  0  0  0  0  0  0  0  0  0  0  0
   46.7590   32.1400   48.5280 C   0  0  0  0  0  0  0  0  0  0  0  0
   47.6210   31.2740   49.2880 N   0  0  0  0  0  0  0  0  0  0  0  0
   45.6180   32.4110   48.9820 O   0  0  0  0  0  0  0  0  0  0  0  0
   44.8218   36.5953   43.1790 H   0  0  0  0  0  0  0  0  0  0  0  0
   43.7290   36.1709   45.4053 H   0  0  0  0  0  0  0  0  0  0  0  0
   46.0641   35.6063   41.4322 H   0  0  0  0  0  0  0  0  0  0  0  0
   47.6793   35.7857   42.2845 H   0  0  0  0  0  0  0  0  0  0  0  0
   45.4865   33.2531   40.6629 H   0  0  0  0  0  0  0  0  0  0  0  0
   46.4630   31.2311   39.5377 H   0  0  0  0  0  0  0  0  0  0  0  0
   48.9122   30.9151   39.7543 H   0  0  0  0  0  0  0  0  0  0  0  0
   50.3639   32.4478   40.9765 H   0  0  0  0  0  0  0  0  0  0  0  0
   49.5830   34.6785   43.7636 H   0  0  0  0  0  0  0  0  0  0  0  0
   47.2998   30.8877   50.1872 H   0  0  0  0  0  0  0  0  0  0  0  0
   48.5592   31.0404   48.9328 H   0  0  0  0  0  0  0  0  0  0  0  0
  1  2  2  0
  1  6  1  0
  2  3  1  0
  3  4  2  0
  5  4  1  0
  5 15  1  0
  6  5  2  0
  7  1  1  0
  8 13  1  0
  8  7  1  0
  9  8  2  0
 10 11  2  0
 10  9  1  0
 11 12  1  0
 12 13  2  0
 13 14  1  0
 15 17  1  0
 16 15  2  0
 17 18  1  0
 18 20  2  0
 18 19  1  0
  2 21  1  0
  3 22  1  0
  7 23  1  0
  7 24  1  0
  9 25  1  0
 10 26  1  0
 11 27  1  0
 12 28  1  0
 14 29  1  0
 19 30  1  0
 19 31  1  0
M  ISO  8  21  14  22  14  23   8  24   8  25  14  26  14  27  14  28  14
M  ISO  1  29  11
M  END
>  <minimizedAffinity>  (1) 
-5.26076317

>  <minimizedRMSD>  (1) 
0.8984254

$$$$
