
     RDKit          3D

 29 30  0  0  0  0  0  0  0  0999 V2000
   47.0780   35.2190   41.9350 C   0  0  0  0  0  0  0  0  0  0  0  0
   47.4280   33.9970   41.2260 C   0  0  0  0  0  0  0  0  0  0  0  0
   46.5840   33.2840   40.4590 C   0  0  0  0  0  0  0  0  0  0  0  0
   46.9460   32.1110   39.7870 C   0  0  0  0  0  0  0  0  0  0  0  0
   48.2590   31.7340   39.9720 C   0  0  0  0  0  0  0  0  0  0  0  0
   49.1670   32.4090   40.7360 C   0  0  0  0  0  0  0  0  0  0  0  0
   48.7320   33.5370   41.3530 C   0  0  0  0  0  0  0  0  0  0  0  0
   49.9270   34.4620   42.3800 S   0  0  0  0  0  0  0  0  0  0  0  0
   46.3100   35.0130   43.1900 C   0  0  0  0  0  0  0  0  0  0  0  0
   45.2700   35.9210   43.4830 C   0  0  0  0  0  0  0  0  0  0  0  0
   44.5520   35.7290   44.6600 C   0  0  0  0  0  0  0  0  0  0  0  0
   44.8620   34.6990   45.4740 N   0  0  0  0  0  0  0  0  0  0  0  0
   45.8800   33.8450   45.1480 C   0  0  0  0  0  0  0  0  0  0  0  0
   46.5920   34.0070   44.0160 N   0  0  0  0  0  0  0  0  0  0  0  0
   46.2500   32.7210   45.9980 C   0  0  0  0  0  0  0  0  0  0  0  0
   45.8930   31.5280   45.7780 O   0  0  0  0  0  0  0  0  0  0  0  0
   47.0390   32.8600   47.1450 O   0  0  0  0  0  0  0  0  0  0  0  0
   46.7800   32.1150   48.3080 C   0  0  0  0  0  0  0  0  0  0  0  0
   45.8110   32.4420   49.0630 O   0  0  0  0  0  0  0  0  0  0  0  0
   46.4725   35.8437   41.2619 H   0  0  0  0  0  0  0  0  0  0  0  0
   48.0280   35.6904   42.2272 H   0  0  0  0  0  0  0  0  0  0  0  0
   45.5497   33.6435   40.3539 H   0  0  0  0  0  0  0  0  0  0  0  0
   46.2427   31.5386   39.1643 H   0  0  0  0  0  0  0  0  0  0  0  0
   48.6012   30.8195   39.4654 H   0  0  0  0  0  0  0  0  0  0  0  0
   50.2027   32.0553   40.8464 H   0  0  0  0  0  0  0  0  0  0  0  0
   49.6516   34.2488   43.7050 H   0  0  0  0  0  0  0  0  0  0  0  0
   45.0345   36.7533   42.8034 H   0  0  0  0  0  0  0  0  0  0  0  0
   43.7343   36.4152   44.9255 H   0  0  0  0  0  0  0  0  0  0  0  0
   47.4130   31.2526   48.5640 H   0  0  0  0  0  0  0  0  0  0  0  0
  1  9  1  0
  2  7  1  0
  2  1  1  0
  3  2  2  0
  4  5  2  0
  4  3  1  0
  5  6  1  0
  6  7  2  0
  7  8  1  0
  9 10  2  0
  9 14  1  0
 10 11  1  0
 11 12  2  0
 13 12  1  0
 13 15  1  0
 14 13  2  0
 15 17  1  0
 16 15  2  0
 17 18  1  0
 18 19  2  0
  1 20  1  0
  1 21  1  0
  3 22  1  0
  4 23  1  0
  5 24  1  0
  6 25  1  0
  8 26  1  0
 10 27  1  0
 11 28  1  0
 18 29  1  0
M  ISO  8  20   8  21   8  22  14  23  14  24  14  25  14  26  11  27  14
M  ISO  2  28  14  29   6
M  END
>  <minimizedAffinity>  (1) 
-4.80273056

>  <minimizedRMSD>  (1) 
0.654848576

$$$$
