
     RDKit          3D

 36 38  0  0  1  0  0  0  0  0999 V2000
   46.4990   31.2410   45.4520 C   0  0  2  0  0  0  0  0  0  0  0  0
   44.7270   35.1280   45.4620 C   0  0  0  0  0  0  0  0  0  0  0  0
   44.4830   36.1290   44.5290 C   0  0  0  0  0  0  0  0  0  0  0  0
   45.1580   36.0660   43.3000 C   0  0  0  0  0  0  0  0  0  0  0  0
   46.0120   35.0390   43.0820 N   0  0  0  0  0  0  0  0  0  0  0  0
   46.2400   34.0650   44.0110 C   0  0  0  0  0  0  0  0  0  0  0  0
   45.5900   34.1300   45.1840 N   0  0  0  0  0  0  0  0  0  0  0  0
   47.1280   32.9920   43.8120 N   0  0  0  0  0  0  0  0  0  0  0  0
   48.0490   33.1710   42.8260 C   0  0  0  0  0  0  0  0  0  0  0  0
   48.8190   31.9880   42.8250 C   0  0  0  0  0  0  0  0  0  0  0  0
   48.3350   31.1570   43.7960 N   0  0  0  0  0  0  0  0  0  0  0  0
   47.3080   31.7940   44.3790 C   0  0  0  0  0  0  0  0  0  0  0  0
   47.2090   31.6440   46.7800 C   0  0  0  0  0  0  0  0  0  0  0  0
   46.4580   29.7490   45.4130 C   0  0  0  0  0  0  0  0  0  0  0  0
   45.1490   29.2110   45.3140 N   0  0  0  0  0  0  0  0  0  0  0  0
   44.3810   29.2390   44.2160 N   0  0  0  0  0  0  0  0  0  0  0  0
   43.2080   28.6300   44.5100 C   0  0  0  0  0  0  0  0  0  0  0  0
   43.2280   28.2020   45.8310 C   0  0  0  0  0  0  0  0  0  0  0  0
   44.4750   28.5860   46.3170 C   0  0  0  0  0  0  0  0  0  0  0  0
   45.0360   28.3760   47.6910 C   0  0  0  0  0  0  0  0  0  0  0  0
   44.9690   29.5760   48.3480 F   0  0  0  0  0  0  0  0  0  0  0  0
   44.3800   27.3550   48.3680 F   0  0  0  0  0  0  0  0  0  0  0  0
   46.3580   27.9880   47.6360 F   0  0  0  0  0  0  0  0  0  0  0  0
   45.4695   31.6176   45.3607 H   0  0  0  0  0  0  0  0  0  0  0  0
   44.2124   35.1502   46.4340 H   0  0  0  0  0  0  0  0  0  0  0  0
   43.7810   36.9472   44.7476 H   0  0  0  0  0  0  0  0  0  0  0  0
   44.9963   36.8351   42.5303 H   0  0  0  0  0  0  0  0  0  0  0  0
   48.1676   34.0474   42.1719 H   0  0  0  0  0  0  0  0  0  0  0  0
   49.6651   31.7717   42.1561 H   0  0  0  0  0  0  0  0  0  0  0  0
   46.6076   31.3027   47.6355 H   0  0  0  0  0  0  0  0  0  0  0  0
   48.2035   31.1758   46.8208 H   0  0  0  0  0  0  0  0  0  0  0  0
   47.3168   32.7379   46.8208 H   0  0  0  0  0  0  0  0  0  0  0  0
   47.0385   29.4095   44.5425 H   0  0  0  0  0  0  0  0  0  0  0  0
   46.8774   29.3937   46.3658 H   0  0  0  0  0  0  0  0  0  0  0  0
   42.3694   28.4952   43.8110 H   0  0  0  0  0  0  0  0  0  0  0  0
   42.4313   27.6740   46.3754 H   0  0  0  0  0  0  0  0  0  0  0  0
  1 13  1  0
  3  2  2  0
  4  3  1  0
  5  4  2  0
  5  6  1  0
  6  7  2  0
  7  2  1  0
  8  6  1  0
  8 12  1  0
  9  8  1  0
 10  9  2  0
 10 11  1  0
 11 12  2  0
 12  1  1  0
 14  1  1  0
 15 14  1  0
 15 19  1  0
 16 17  2  0
 16 15  1  0
 17 18  1  0
 18 19  2  0
 19 20  1  0
 20 21  1  0
 20 22  1  0
 23 20  1  0
  1 24  1  1
  2 25  1  0
  3 26  1  0
  4 27  1  0
  9 28  1  0
 10 29  1  0
 13 30  1  0
 13 31  1  0
 13 32  1  0
 14 33  1  0
 14 34  1  0
 17 35  1  0
 18 36  1  0
M  ISO  8  24   8  25  14  26  14  27  14  28  14  29  14  30   8  31   8
M  ISO  5  32   8  33   8  34   8  35  14  36  14
M  END
>  <minimizedAffinity>  (1) 
-4.90766811

>  <minimizedRMSD>  (1) 
1.57853806

$$$$
