
     RDKit          3D

 29 31  0  0  0  0  0  0  0  0999 V2000
   45.1550   34.1330   42.5660 C   0  0  0  0  0  0  0  0  0  0  0  0
   44.2170   34.9260   41.8460 C   0  0  0  0  0  0  0  0  0  0  0  0
   43.0570   34.2950   41.3800 C   0  0  0  0  0  0  0  0  0  0  0  0
   42.8830   32.9830   41.6310 N   0  0  0  0  0  0  0  0  0  0  0  0
   43.8130   32.2670   42.3260 C   0  0  0  0  0  0  0  0  0  0  0  0
   44.9430   32.8460   42.7900 N   0  0  0  0  0  0  0  0  0  0  0  0
   46.3690   34.8420   43.0360 C   0  0  0  0  0  0  0  0  0  0  0  0
   47.6640   34.0900   43.1620 C   0  0  0  0  0  0  0  0  0  0  0  0
   47.4960   35.1240   42.1290 C   0  0  0  0  0  0  0  0  0  0  0  0
   42.0880   35.0350   40.6580 N   0  0  0  0  0  0  0  0  0  0  0  0
   41.0010   35.8170   41.2130 C   0  0  0  0  0  0  0  0  0  0  0  0
   39.8900   35.6290   40.2260 C   0  0  0  0  0  0  0  0  0  0  0  0
   40.5450   35.2500   38.9280 C   0  0  0  0  0  0  0  0  0  0  0  0
   42.0210   35.1340   39.2120 C   0  0  0  0  0  0  0  0  0  0  0  0
   44.3970   35.9955   41.6624 H   0  0  0  0  0  0  0  0  0  0  0  0
   43.6400   31.1969   42.5127 H   0  0  0  0  0  0  0  0  0  0  0  0
   45.7397   35.4557   43.6974 H   0  0  0  0  0  0  0  0  0  0  0  0
   48.3259   34.2715   44.0216 H   0  0  0  0  0  0  0  0  0  0  0  0
   47.9542   33.0290   43.1655 H   0  0  0  0  0  0  0  0  0  0  0  0
   47.4311   34.8328   41.0702 H   0  0  0  0  0  0  0  0  0  0  0  0
   48.0517   36.0317   41.8509 H   0  0  0  0  0  0  0  0  0  0  0  0
   40.7126   35.4395   42.2051 H   0  0  0  0  0  0  0  0  0  0  0  0
   41.2673   36.8742   41.3596 H   0  0  0  0  0  0  0  0  0  0  0  0
   39.2138   34.8284   40.5604 H   0  0  0  0  0  0  0  0  0  0  0  0
   39.2877   36.5434   40.1201 H   0  0  0  0  0  0  0  0  0  0  0  0
   40.3636   36.0261   38.1698 H   0  0  0  0  0  0  0  0  0  0  0  0
   40.1391   34.3048   38.5384 H   0  0  0  0  0  0  0  0  0  0  0  0
   42.4420   34.2352   38.7377 H   0  0  0  0  0  0  0  0  0  0  0  0
   42.5985   35.9825   38.8163 H   0  0  0  0  0  0  0  0  0  0  0  0
  1  6  1  0
  1  7  1  0
  2  1  2  0
  3  4  2  0
  3  2  1  0
  4  5  1  0
  5  6  2  0
  7  8  1  0
  9  7  1  0
  9  8  1  0
 10 11  1  0
 10  3  1  0
 12 11  1  0
 13 14  1  0
 13 12  1  0
 14 10  1  0
  2 15  1  0
  5 16  1  0
  7 17  1  0
  8 18  1  0
  8 19  1  0
  9 20  1  0
  9 21  1  0
 11 22  1  0
 11 23  1  0
 12 24  1  0
 12 25  1  0
 13 26  1  0
 13 27  1  0
 14 28  1  0
 14 29  1  0
M  ISO  8  15  14  16  14  17  13  18  13  19  13  20  13  21  13  22  13
M  ISO  7  23  13  24  13  25  13  26  13  27  13  28  13  29  13
M  END
>  <minimizedAffinity>  (1) 
-4.33172512

>  <minimizedRMSD>  (1) 
6.8081708

$$$$
