
     RDKit          3D

 24 25  0  0  0  0  0  0  0  0999 V2000
   45.9190   34.0920   43.8710 C   0  0  0  0  0  0  0  0  0  0  0  0
   47.0150   33.9550   42.9930 C   0  0  0  0  0  0  0  0  0  0  0  0
   48.0340   33.0440   43.2900 C   0  0  0  0  0  0  0  0  0  0  0  0
   47.9030   32.3270   44.4390 N   0  0  0  0  0  0  0  0  0  0  0  0
   46.8280   32.4880   45.2640 C   0  0  0  0  0  0  0  0  0  0  0  0
   45.8600   33.3590   44.9720 N   0  0  0  0  0  0  0  0  0  0  0  0
   44.8710   35.0750   43.5060 C   0  0  0  0  0  0  0  0  0  0  0  0
   44.6140   36.2400   44.4390 C   0  0  0  0  0  0  0  0  0  0  0  0
   45.1870   36.4500   43.0980 C   0  0  0  0  0  0  0  0  0  0  0  0
   49.1630   32.8620   42.4440 N   0  0  0  0  0  0  0  0  0  0  0  0
   50.2590   33.7360   42.4830 C   0  0  0  0  0  0  0  0  0  0  0  0
   50.1470   34.8510   43.1420 N   0  0  0  0  0  0  0  0  0  0  0  0
   51.4490   33.3480   41.7880 N   0  0  0  0  0  0  0  0  0  0  0  0
   50.9670   35.5010   43.1690 H   0  0  0  0  0  0  0  0  0  0  0  0
   47.0679   34.5628   42.0777 H   0  0  0  0  0  0  0  0  0  0  0  0
   46.7582   31.8901   46.1847 H   0  0  0  0  0  0  0  0  0  0  0  0
   44.2849   34.2630   43.0508 H   0  0  0  0  0  0  0  0  0  0  0  0
   43.5836   36.5578   44.6562 H   0  0  0  0  0  0  0  0  0  0  0  0
   44.9065   36.5012   45.4667 H   0  0  0  0  0  0  0  0  0  0  0  0
   46.2375   36.7602   42.9973 H   0  0  0  0  0  0  0  0  0  0  0  0
   44.9113   37.0760   42.2365 H   0  0  0  0  0  0  0  0  0  0  0  0
   49.1758   32.0690   41.7868 H   0  0  0  0  0  0  0  0  0  0  0  0
   52.2738   33.9649   41.7949 H   0  0  0  0  0  0  0  0  0  0  0  0
   51.4804   32.4519   41.2811 H   0  0  0  0  0  0  0  0  0  0  0  0
  1  6  2  0
  2  3  2  0
  2  1  1  0
  3  4  1  0
  4  5  2  0
  6  5  1  0
  7  1  1  0
  7  8  1  0
  9  7  1  0
  9  8  1  0
 10 11  1  0
 10  3  1  0
 11 12  2  0
 12 14  1  0
 13 11  1  0
  2 15  1  0
  5 16  1  0
  7 17  1  0
  8 18  1  0
  8 19  1  0
  9 20  1  0
  9 21  1  0
 10 22  1  0
 13 23  1  0
 13 24  1  0
M  ISO  7  15  14  16  14  17  13  18  13  19  13  20  13  21  13
M  END
>  <minimizedAffinity>  (1) 
-4.49755287

>  <minimizedRMSD>  (1) 
1.71491182

$$$$
