
     RDKit          3D

 32 34  0  0  0  0  0  0  0  0999 V2000
   45.4510   34.5560   44.3410 C   0  0  0  0  0  0  0  0  0  0  0  0
   46.5220   34.2060   43.4860 C   0  0  0  0  0  0  0  0  0  0  0  0
   47.4540   33.2430   43.9010 C   0  0  0  0  0  0  0  0  0  0  0  0
   47.2760   32.6920   45.1180 N   0  0  0  0  0  0  0  0  0  0  0  0
   46.2290   33.0540   45.9170 C   0  0  0  0  0  0  0  0  0  0  0  0
   45.3400   33.9700   45.5250 N   0  0  0  0  0  0  0  0  0  0  0  0
   44.4910   35.5830   43.8710 C   0  0  0  0  0  0  0  0  0  0  0  0
   45.0410   36.9100   43.3910 C   0  0  0  0  0  0  0  0  0  0  0  0
   44.3950   35.9700   42.4600 C   0  0  0  0  0  0  0  0  0  0  0  0
   48.5500   32.8510   43.0870 N   0  0  0  0  0  0  0  0  0  0  0  0
   49.4090   33.8580   42.4970 C   0  0  0  0  0  0  0  0  0  0  0  0
   50.8130   33.3000   42.3430 C   0  0  0  0  0  0  0  0  0  0  0  0
   50.7700   32.1780   41.3470 C   0  0  0  0  0  0  0  0  0  0  0  0
   49.5700   31.3020   41.5020 C   0  0  0  0  0  0  0  0  0  0  0  0
   48.8470   31.4650   42.8200 C   0  0  0  0  0  0  0  0  0  0  0  0
   46.6236   34.6860   42.5015 H   0  0  0  0  0  0  0  0  0  0  0  0
   46.1158   32.5812   46.9037 H   0  0  0  0  0  0  0  0  0  0  0  0
   43.7593   35.2368   44.6158 H   0  0  0  0  0  0  0  0  0  0  0  0
   44.5389   37.8492   43.6662 H   0  0  0  0  0  0  0  0  0  0  0  0
   46.0139   37.4209   43.4414 H   0  0  0  0  0  0  0  0  0  0  0  0
   43.4138   36.2184   42.0293 H   0  0  0  0  0  0  0  0  0  0  0  0
   44.6998   35.4981   41.5143 H   0  0  0  0  0  0  0  0  0  0  0  0
   49.0168   34.1412   41.5091 H   0  0  0  0  0  0  0  0  0  0  0  0
   49.4363   34.7437   43.1488 H   0  0  0  0  0  0  0  0  0  0  0  0
   51.4894   34.0897   41.9841 H   0  0  0  0  0  0  0  0  0  0  0  0
   51.1818   32.9317   43.3117 H   0  0  0  0  0  0  0  0  0  0  0  0
   51.6721   31.5617   41.4749 H   0  0  0  0  0  0  0  0  0  0  0  0
   50.7185   32.6304   40.3456 H   0  0  0  0  0  0  0  0  0  0  0  0
   48.8650   31.5367   40.6909 H   0  0  0  0  0  0  0  0  0  0  0  0
   49.9312   30.2636   41.4671 H   0  0  0  0  0  0  0  0  0  0  0  0
   47.9056   30.8971   42.7849 H   0  0  0  0  0  0  0  0  0  0  0  0
   49.4987   31.0888   43.6223 H   0  0  0  0  0  0  0  0  0  0  0  0
  1  6  2  0
  2  3  2  0
  2  1  1  0
  3  4  1  0
  4  5  2  0
  6  5  1  0
  7  1  1  0
  8  7  1  0
  9  8  1  0
  9  7  1  0
 10  3  1  0
 11 10  1  0
 12 11  1  0
 13 14  1  0
 13 12  1  0
 14 15  1  0
 15 10  1  0
  2 16  1  0
  5 17  1  0
  7 18  1  0
  8 19  1  0
  8 20  1  0
  9 21  1  0
  9 22  1  0
 11 23  1  0
 11 24  1  0
 12 25  1  0
 12 26  1  0
 13 27  1  0
 13 28  1  0
 14 29  1  0
 14 30  1  0
 15 31  1  0
 15 32  1  0
M  ISO  8  16  14  17  14  18  13  19  13  20  13  21  13  22  13  23  13
M  ISO  8  24  13  25  13  26  13  27  13  28  13  29  13  30  13  31  13
M  ISO  1  32  13
M  END
>  <minimizedAffinity>  (1) 
-4.32826996

>  <minimizedRMSD>  (1) 
1.71121609

$$$$
