
     RDKit          3D

 27 29  0  0  0  0  0  0  0  0999 V2000
   45.3770   34.6290   44.3610 C   0  0  0  0  0  0  0  0  0  0  0  0
   46.4450   34.2410   43.5360 C   0  0  0  0  0  0  0  0  0  0  0  0
   47.3610   33.2800   43.9620 C   0  0  0  0  0  0  0  0  0  0  0  0
   47.1560   32.7640   45.1910 N   0  0  0  0  0  0  0  0  0  0  0  0
   46.1130   33.1520   45.9840 C   0  0  0  0  0  0  0  0  0  0  0  0
   45.2500   34.0690   45.5580 N   0  0  0  0  0  0  0  0  0  0  0  0
   48.4960   32.8150   43.1760 C   0  0  0  0  0  0  0  0  0  0  0  0
   49.4120   33.7760   42.8120 C   0  0  0  0  0  0  0  0  0  0  0  0
   50.5320   33.4140   42.0560 C   0  0  0  0  0  0  0  0  0  0  0  0
   50.6900   32.0890   41.6910 C   0  0  0  0  0  0  0  0  0  0  0  0
   49.7830   31.1310   42.0500 C   0  0  0  0  0  0  0  0  0  0  0  0
   48.6710   31.5030   42.8030 C   0  0  0  0  0  0  0  0  0  0  0  0
   44.4520   35.6570   43.8380 C   0  0  0  0  0  0  0  0  0  0  0  0
   45.0200   36.9640   43.3450 C   0  0  0  0  0  0  0  0  0  0  0  0
   44.4030   36.0080   42.4110 C   0  0  0  0  0  0  0  0  0  0  0  0
   46.5602   34.7001   42.5431 H   0  0  0  0  0  0  0  0  0  0  0  0
   45.9868   32.7031   46.9803 H   0  0  0  0  0  0  0  0  0  0  0  0
   49.2640   34.8233   43.1141 H   0  0  0  0  0  0  0  0  0  0  0  0
   51.2737   34.1693   41.7571 H   0  0  0  0  0  0  0  0  0  0  0  0
   51.5686   31.7985   41.0962 H   0  0  0  0  0  0  0  0  0  0  0  0
   49.9288   30.0830   41.7492 H   0  0  0  0  0  0  0  0  0  0  0  0
   47.9311   30.7451   43.0999 H   0  0  0  0  0  0  0  0  0  0  0  0
   43.6979   35.3378   44.5724 H   0  0  0  0  0  0  0  0  0  0  0  0
   44.5128   37.9110   43.5815 H   0  0  0  0  0  0  0  0  0  0  0  0
   45.9933   37.4714   43.4167 H   0  0  0  0  0  0  0  0  0  0  0  0
   43.4379   36.2496   41.9417 H   0  0  0  0  0  0  0  0  0  0  0  0
   44.7363   35.5135   41.4867 H   0  0  0  0  0  0  0  0  0  0  0  0
  1  6  2  0
  2  3  2  0
  2  1  1  0
  3  4  1  0
  4  5  2  0
  6  5  1  0
  7  3  1  0
  8  7  2  0
  9  8  1  0
 10 11  1  0
 10  9  2  0
 11 12  2  0
 12  7  1  0
 13  1  1  0
 14 13  1  0
 15 14  1  0
 15 13  1  0
  2 16  1  0
  5 17  1  0
  8 18  1  0
  9 19  1  0
 10 20  1  0
 11 21  1  0
 12 22  1  0
 13 23  1  0
 14 24  1  0
 14 25  1  0
 15 26  1  0
 15 27  1  0
M  ISO  8  16  14  17  14  18  14  19  14  20  14  21  14  22  14  23  13
M  ISO  4  24  13  25  13  26  13  27  13
M  END
>  <minimizedAffinity>  (1) 
-4.29567051

>  <minimizedRMSD>  (1) 
1.58153176

$$$$
