
     RDKit          3D

 29 30  0  0  0  0  0  0  0  0999 V2000
   43.8140   34.7410   41.9530 C   0  0  0  0  0  0  0  0  0  0  0  0
   42.7660   35.3770   41.2420 C   0  0  0  0  0  0  0  0  0  0  0  0
   41.7820   34.5920   40.6190 C   0  0  0  0  0  0  0  0  0  0  0  0
   41.9040   33.2360   40.7400 N   0  0  0  0  0  0  0  0  0  0  0  0
   42.9290   32.6700   41.4330 C   0  0  0  0  0  0  0  0  0  0  0  0
   43.8570   33.4180   42.0230 N   0  0  0  0  0  0  0  0  0  0  0  0
   44.8370   35.6050   42.5880 C   0  0  0  0  0  0  0  0  0  0  0  0
   44.7140   35.8670   44.0780 C   0  0  0  0  0  0  0  0  0  0  0  0
   45.8230   35.0670   43.5320 C   0  0  0  0  0  0  0  0  0  0  0  0
   40.6740   35.2300   39.8700 C   0  0  0  0  0  0  0  0  0  0  0  0
   40.1560   36.4680   40.5860 C   0  0  0  0  0  0  0  0  0  0  0  0
   41.1210   35.6760   38.4860 C   0  0  0  0  0  0  0  0  0  0  0  0
   39.5250   34.2680   39.6450 C   0  0  0  0  0  0  0  0  0  0  0  0
   42.7236   36.4744   41.1787 H   0  0  0  0  0  0  0  0  0  0  0  0
   42.9912   31.5742   41.5066 H   0  0  0  0  0  0  0  0  0  0  0  0
   44.9134   36.2027   41.6677 H   0  0  0  0  0  0  0  0  0  0  0  0
   44.9031   36.8731   44.4805 H   0  0  0  0  0  0  0  0  0  0  0  0
   43.9363   35.7134   44.8406 H   0  0  0  0  0  0  0  0  0  0  0  0
   45.8584   33.9844   43.7234 H   0  0  0  0  0  0  0  0  0  0  0  0
   46.9187   35.1254   43.6095 H   0  0  0  0  0  0  0  0  0  0  0  0
   40.2196   36.3161   41.6736 H   0  0  0  0  0  0  0  0  0  0  0  0
   40.7655   37.3383   40.3011 H   0  0  0  0  0  0  0  0  0  0  0  0
   39.1084   36.6449   40.3011 H   0  0  0  0  0  0  0  0  0  0  0  0
   41.8967   36.4499   38.5829 H   0  0  0  0  0  0  0  0  0  0  0  0
   41.5292   34.8145   37.9372 H   0  0  0  0  0  0  0  0  0  0  0  0
   40.2604   36.0861   37.9372 H   0  0  0  0  0  0  0  0  0  0  0  0
   39.1289   33.9364   40.6162 H   0  0  0  0  0  0  0  0  0  0  0  0
   38.7294   34.7733   39.0778 H   0  0  0  0  0  0  0  0  0  0  0  0
   39.8826   33.3960   39.0778 H   0  0  0  0  0  0  0  0  0  0  0  0
  1  6  1  0
  1  7  1  0
  2  1  2  0
  3  4  2  0
  3  2  1  0
  4  5  1  0
  5  6  2  0
  7  9  1  0
  7  8  1  0
  9  8  1  0
 10 11  1  0
 10  3  1  0
 12 10  1  0
 13 10  1  0
  2 14  1  0
  5 15  1  0
  7 16  1  0
  8 17  1  0
  8 18  1  0
  9 19  1  0
  9 20  1  0
 11 21  1  0
 11 22  1  0
 11 23  1  0
 12 24  1  0
 12 25  1  0
 12 26  1  0
 13 27  1  0
 13 28  1  0
 13 29  1  0
M  ISO  8  14  14  15  14  16  13  17  13  18  13  19  13  20  13  21   8
M  ISO  8  22   8  23   8  24   8  25   8  26   8  27   8  28   8  29   8
M  END
>  <minimizedAffinity>  (1) 
-4.4881835

>  <minimizedRMSD>  (1) 
6.85210466

$$$$
