
     RDKit          3D

 24 26  0  0  0  0  0  0  0  0999 V2000
   45.3880   34.6060   44.3990 C   0  0  0  0  0  0  0  0  0  0  0  0
   46.4530   34.1810   43.5860 C   0  0  0  0  0  0  0  0  0  0  0  0
   47.3560   33.2140   44.0710 C   0  0  0  0  0  0  0  0  0  0  0  0
   47.1370   32.7370   45.3320 N   0  0  0  0  0  0  0  0  0  0  0  0
   46.0880   33.1830   46.0830 C   0  0  0  0  0  0  0  0  0  0  0  0
   45.2190   34.1100   45.6190 N   0  0  0  0  0  0  0  0  0  0  0  0
   44.4710   35.6280   43.8470 C   0  0  0  0  0  0  0  0  0  0  0  0
   45.0750   36.9110   43.3050 C   0  0  0  0  0  0  0  0  0  0  0  0
   44.4060   35.9430   42.4190 C   0  0  0  0  0  0  0  0  0  0  0  0
   48.3980   32.8240   43.2260 N   0  0  0  0  0  0  0  0  0  0  0  0
   49.2370   33.7720   42.8240 N   0  0  0  0  0  0  0  0  0  0  0  0
   50.1830   33.2910   42.0280 C   0  0  0  0  0  0  0  0  0  0  0  0
   49.9060   31.9530   41.9370 C   0  0  0  0  0  0  0  0  0  0  0  0
   48.7950   31.6560   42.6810 C   0  0  0  0  0  0  0  0  0  0  0  0
   46.5808   34.6007   42.5773 H   0  0  0  0  0  0  0  0  0  0  0  0
   45.9451   32.7767   47.0952 H   0  0  0  0  0  0  0  0  0  0  0  0
   43.7149   35.3407   44.5926 H   0  0  0  0  0  0  0  0  0  0  0  0
   44.6032   37.8805   43.5228 H   0  0  0  0  0  0  0  0  0  0  0  0
   46.0643   37.3906   43.3409 H   0  0  0  0  0  0  0  0  0  0  0  0
   43.4390   36.2016   41.9628 H   0  0  0  0  0  0  0  0  0  0  0  0
   44.7054   35.4102   41.5044 H   0  0  0  0  0  0  0  0  0  0  0  0
   51.0051   33.8429   41.5488 H   0  0  0  0  0  0  0  0  0  0  0  0
   50.4889   31.2252   41.3534 H   0  0  0  0  0  0  0  0  0  0  0  0
   48.3244   30.6698   42.8077 H   0  0  0  0  0  0  0  0  0  0  0  0
  1  6  2  0
  2  3  2  0
  2  1  1  0
  3  4  1  0
  4  5  2  0
  6  5  1  0
  7  1  1  0
  8  7  1  0
  9  8  1  0
  9  7  1  0
 10  3  1  0
 11 10  1  0
 12 11  2  0
 13 12  1  0
 13 14  2  0
 14 10  1  0
  2 15  1  0
  5 16  1  0
  7 17  1  0
  8 18  1  0
  8 19  1  0
  9 20  1  0
  9 21  1  0
 12 22  1  0
 13 23  1  0
 14 24  1  0
M  ISO  8  15  14  16  14  17  13  18  13  19  13  20  13  21  13  22  14
M  ISO  2  23  14  24  14
M  END
>  <minimizedAffinity>  (1) 
-3.93239141

>  <minimizedRMSD>  (1) 
1.29263186

$$$$
