
     RDKit          3D

 25 27  0  0  0  0  0  0  0  0999 V2000
   45.3860   34.5920   44.4000 C   0  0  0  0  0  0  0  0  0  0  0  0
   46.4490   34.1420   43.5640 C   0  0  0  0  0  0  0  0  0  0  0  0
   47.3360   33.1740   44.0590 C   0  0  0  0  0  0  0  0  0  0  0  0
   47.1270   32.7210   45.3110 N   0  0  0  0  0  0  0  0  0  0  0  0
   46.0980   33.1750   46.0840 C   0  0  0  0  0  0  0  0  0  0  0  0
   45.2510   34.0940   45.6220 N   0  0  0  0  0  0  0  0  0  0  0  0
   44.4720   35.6200   43.8550 C   0  0  0  0  0  0  0  0  0  0  0  0
   45.0860   36.8980   43.3080 C   0  0  0  0  0  0  0  0  0  0  0  0
   44.4040   35.9330   42.4260 C   0  0  0  0  0  0  0  0  0  0  0  0
   48.4210   32.7150   43.2030 C   0  0  0  0  0  0  0  0  0  0  0  0
   48.4910   31.3950   42.8180 C   0  0  0  0  0  0  0  0  0  0  0  0
   49.5870   31.1010   41.9970 C   0  0  0  0  0  0  0  0  0  0  0  0
   50.4940   32.0160   41.6140 N   0  0  0  0  0  0  0  0  0  0  0  0
   50.3800   33.2740   42.0130 C   0  0  0  0  0  0  0  0  0  0  0  0
   49.3330   33.6240   42.8150 N   0  0  0  0  0  0  0  0  0  0  0  0
   46.5719   34.5465   42.5485 H   0  0  0  0  0  0  0  0  0  0  0  0
   45.9662   32.7773   47.1011 H   0  0  0  0  0  0  0  0  0  0  0  0
   43.7165   35.3412   44.6043 H   0  0  0  0  0  0  0  0  0  0  0  0
   44.6238   37.8721   43.5259 H   0  0  0  0  0  0  0  0  0  0  0  0
   46.0796   37.3689   43.3390 H   0  0  0  0  0  0  0  0  0  0  0  0
   43.4375   36.1993   41.9732 H   0  0  0  0  0  0  0  0  0  0  0  0
   44.6949   35.3957   41.5113 H   0  0  0  0  0  0  0  0  0  0  0  0
   47.7532   30.6399   43.1271 H   0  0  0  0  0  0  0  0  0  0  0  0
   49.7122   30.0658   41.6469 H   0  0  0  0  0  0  0  0  0  0  0  0
   51.1196   34.0265   41.7019 H   0  0  0  0  0  0  0  0  0  0  0  0
  1  6  2  0
  2  3  2  0
  2  1  1  0
  3  4  1  0
  4  5  2  0
  6  5  1  0
  7  1  1  0
  8  7  1  0
  9  8  1  0
  9  7  1  0
 10  3  1  0
 11 10  2  0
 12 11  1  0
 13 12  2  0
 13 14  1  0
 14 15  2  0
 15 10  1  0
  2 16  1  0
  5 17  1  0
  7 18  1  0
  8 19  1  0
  8 20  1  0
  9 21  1  0
  9 22  1  0
 11 23  1  0
 12 24  1  0
 14 25  1  0
M  ISO  8  16  14  17  14  18  13  19  13  20  13  21  13  22  13  23  14
M  ISO  2  24  14  25  14
M  END
>  <minimizedAffinity>  (1) 
-4.04951525

>  <minimizedRMSD>  (1) 
1.13424516

$$$$
