
     RDKit          3D

 26 27  0  0  0  0  0  0  0  0999 V2000
   43.8360   34.3720   41.8640 C   0  0  0  0  0  0  0  0  0  0  0  0
   42.8470   35.1980   41.2820 C   0  0  0  0  0  0  0  0  0  0  0  0
   42.1010   34.7290   40.1940 C   0  0  0  0  0  0  0  0  0  0  0  0
   42.3850   33.4840   39.7620 N   0  0  0  0  0  0  0  0  0  0  0  0
   43.3310   32.7130   40.3300 C   0  0  0  0  0  0  0  0  0  0  0  0
   44.0440   33.1580   41.3680 N   0  0  0  0  0  0  0  0  0  0  0  0
   44.6150   34.9030   43.0090 C   0  0  0  0  0  0  0  0  0  0  0  0
   46.0630   35.2900   42.7570 C   0  0  0  0  0  0  0  0  0  0  0  0
   45.0400   36.3080   43.0560 C   0  0  0  0  0  0  0  0  0  0  0  0
   41.0840   35.6520   39.6400 C   0  0  0  0  0  0  0  0  0  0  0  0
   39.6720   35.2110   39.9580 C   0  0  0  0  0  0  0  0  0  0  0  0
   41.2060   35.7700   38.1400 C   0  0  0  0  0  0  0  0  0  0  0  0
   42.6642   36.2060   41.6828 H   0  0  0  0  0  0  0  0  0  0  0  0
   43.5191   31.7040   39.9344 H   0  0  0  0  0  0  0  0  0  0  0  0
   44.0659   34.2494   43.7028 H   0  0  0  0  0  0  0  0  0  0  0  0
   46.8377   35.0489   43.4998 H   0  0  0  0  0  0  0  0  0  0  0  0
   46.7915   35.1223   41.9501 H   0  0  0  0  0  0  0  0  0  0  0  0
   44.7153   37.0011   42.2659 H   0  0  0  0  0  0  0  0  0  0  0  0
   44.9538   37.1083   43.8058 H   0  0  0  0  0  0  0  0  0  0  0  0
   41.2766   36.6248   40.1161 H   0  0  0  0  0  0  0  0  0  0  0  0
   39.5379   35.1691   41.0490 H   0  0  0  0  0  0  0  0  0  0  0  0
   38.9580   35.9289   39.5281 H   0  0  0  0  0  0  0  0  0  0  0  0
   39.4936   34.2143   39.5281 H   0  0  0  0  0  0  0  0  0  0  0  0
   41.9764   36.5151   37.8923 H   0  0  0  0  0  0  0  0  0  0  0  0
   41.4897   34.7949   37.7174 H   0  0  0  0  0  0  0  0  0  0  0  0
   40.2409   36.0860   37.7174 H   0  0  0  0  0  0  0  0  0  0  0  0
  1  7  1  0
  2  1  2  0
  3  2  1  0
  4  3  2  0
  4  5  1  0
  5  6  2  0
  6  1  1  0
  7  9  1  0
  8  7  1  0
  8  9  1  0
 10 11  1  0
 10  3  1  0
 12 10  1  0
  2 13  1  0
  5 14  1  0
  7 15  1  0
  8 16  1  0
  8 17  1  0
  9 18  1  0
  9 19  1  0
 10 20  1  0
 11 21  1  0
 11 22  1  0
 11 23  1  0
 12 24  1  0
 12 25  1  0
 12 26  1  0
M  ISO  8  13  14  14  14  15  13  16  13  17  13  18  13  19  13  20   8
M  ISO  6  21   8  22   8  23   8  24   8  25   8  26   8
M  END
>  <minimizedAffinity>  (1) 
-3.84402943

>  <minimizedRMSD>  (1) 
6.73383427

$$$$
