
     RDKit          3D

 19 20  0  0  0  0  0  0  0  0999 V2000
   45.4790   34.0600   44.6170 C   0  0  0  0  0  0  0  0  0  0  0  0
   46.3960   33.2900   43.8450 C   0  0  0  0  0  0  0  0  0  0  0  0
   47.1990   32.3430   44.4690 C   0  0  0  0  0  0  0  0  0  0  0  0
   47.0660   32.1960   45.8200 N   0  0  0  0  0  0  0  0  0  0  0  0
   46.1750   32.9540   46.5240 C   0  0  0  0  0  0  0  0  0  0  0  0
   45.4040   33.8640   45.9280 N   0  0  0  0  0  0  0  0  0  0  0  0
   44.6430   35.0670   43.9240 C   0  0  0  0  0  0  0  0  0  0  0  0
   44.8260   36.5270   44.3050 C   0  0  0  0  0  0  0  0  0  0  0  0
   45.2100   36.0270   42.9750 C   0  0  0  0  0  0  0  0  0  0  0  0
   48.1000   31.5900   43.6840 N   0  0  0  0  0  0  0  0  0  0  0  0
   46.4681   33.4447   42.7583 H   0  0  0  0  0  0  0  0  0  0  0  0
   46.0910   32.8102   47.6113 H   0  0  0  0  0  0  0  0  0  0  0  0
   43.8155   34.3444   43.8696 H   0  0  0  0  0  0  0  0  0  0  0  0
   43.9509   37.1837   44.4184 H   0  0  0  0  0  0  0  0  0  0  0  0
   45.3319   37.0701   45.1168 H   0  0  0  0  0  0  0  0  0  0  0  0
   46.2745   35.9609   42.7059 H   0  0  0  0  0  0  0  0  0  0  0  0
   44.9584   36.3231   41.9459 H   0  0  0  0  0  0  0  0  0  0  0  0
   48.7036   30.8833   44.1280 H   0  0  0  0  0  0  0  0  0  0  0  0
   48.1534   31.7476   42.6675 H   0  0  0  0  0  0  0  0  0  0  0  0
  1  6  2  0
  2  3  2  0
  2  1  1  0
  3  4  1  0
  4  5  2  0
  6  5  1  0
  7  8  1  0
  7  1  1  0
  9  7  1  0
  9  8  1  0
 10  3  1  0
  2 11  1  0
  5 12  1  0
  7 13  1  0
  8 14  1  0
  8 15  1  0
  9 16  1  0
  9 17  1  0
 10 18  1  0
 10 19  1  0
M  ISO  7  11  14  12  14  13  13  14  13  15  13  16  13  17  13
M  END
>  <minimizedAffinity>  (1) 
-3.13075018

>  <minimizedRMSD>  (1) 
0.150675505

$$$$
