
     RDKit          3D

 18 19  0  0  0  0  0  0  0  0999 V2000
   45.4870   34.0600   44.6410 C   0  0  0  0  0  0  0  0  0  0  0  0
   46.4160   33.2990   43.8750 C   0  0  0  0  0  0  0  0  0  0  0  0
   47.2180   32.3580   44.5020 C   0  0  0  0  0  0  0  0  0  0  0  0
   47.0770   32.2030   45.8440 N   0  0  0  0  0  0  0  0  0  0  0  0
   46.1760   32.9490   46.5490 C   0  0  0  0  0  0  0  0  0  0  0  0
   45.3900   33.8670   45.9470 N   0  0  0  0  0  0  0  0  0  0  0  0
   44.6590   35.0600   43.9270 C   0  0  0  0  0  0  0  0  0  0  0  0
   44.8220   36.5150   44.2810 C   0  0  0  0  0  0  0  0  0  0  0  0
   45.2630   36.0040   42.9740 C   0  0  0  0  0  0  0  0  0  0  0  0
   48.1010   31.6480   43.7210 O   0  0  0  0  0  0  0  0  0  0  0  0
   46.4968   33.4575   42.7895 H   0  0  0  0  0  0  0  0  0  0  0  0
   46.0885   32.7981   47.6351 H   0  0  0  0  0  0  0  0  0  0  0  0
   43.8283   34.3409   43.8737 H   0  0  0  0  0  0  0  0  0  0  0  0
   43.9401   37.1688   44.3493 H   0  0  0  0  0  0  0  0  0  0  0  0
   45.2947   37.0720   45.1034 H   0  0  0  0  0  0  0  0  0  0  0  0
   46.3376   35.9386   42.7481 H   0  0  0  0  0  0  0  0  0  0  0  0
   45.0540   36.2814   41.9303 H   0  0  0  0  0  0  0  0  0  0  0  0
   48.6900   30.9675   44.1334 H   0  0  0  0  0  0  0  0  0  0  0  0
  1  6  2  0
  2  3  2  0
  2  1  1  0
  3  4  1  0
  4  5  2  0
  6  5  1  0
  7  8  1  0
  7  1  1  0
  9  7  1  0
  9  8  1  0
 10  3  1  0
  2 11  1  0
  5 12  1  0
  7 13  1  0
  8 14  1  0
  8 15  1  0
  9 16  1  0
  9 17  1  0
 10 18  1  0
M  ISO  8  11  14  12  14  13  13  14  13  15  13  16  13  17  13  18   3
M  END
>  <minimizedAffinity>  (1) 
-3.15733814

>  <minimizedRMSD>  (1) 
0.108998798

$$$$
