
     RDKit          3D

 39 41  0  0  1  0  0  0  0  0999 V2000
   45.0460   34.4390   41.9110 C   0  0  0  0  0  0  0  0  0  0  0  0
   43.6990   34.0930   41.7970 C   0  0  0  0  0  0  0  0  0  0  0  0
   43.2300   33.4090   40.6820 C   0  0  0  0  0  0  0  0  0  0  0  0
   44.1500   33.1000   39.7290 N   0  0  0  0  0  0  0  0  0  0  0  0
   45.4550   33.4480   39.8660 C   0  0  0  0  0  0  0  0  0  0  0  0
   45.8990   34.1170   40.9570 N   0  0  0  0  0  0  0  0  0  0  0  0
   41.8710   33.0600   40.5160 N   0  0  0  0  0  0  0  0  0  0  0  0
   41.3250   31.7600   40.8610 C   0  0  0  0  0  0  0  0  0  0  0  0
   40.3860   31.9510   42.0190 C   0  0  0  0  0  0  0  0  0  0  0  0
   39.7050   33.1460   41.8810 O   0  0  0  0  0  0  0  0  0  0  0  0
   39.5770   33.5890   40.5900 C   0  0  0  0  0  0  0  0  0  0  0  0
   40.9390   33.9650   39.9670 C   0  0  1  0  0  0  0  0  0  0  0  0
   45.4430   35.2010   43.1290 C   0  0  0  0  0  0  0  0  0  0  0  0
   45.1220   36.6970   43.1700 C   0  0  0  0  0  0  0  0  0  0  0  0
   44.4730   35.7200   44.0790 C   0  0  0  0  0  0  0  0  0  0  0  0
   41.1650   35.4030   39.9330 C   0  0  0  0  0  0  0  0  0  0  0  0
   40.2310   36.3260   40.6120 C   0  0  0  0  0  0  0  0  0  0  0  0
   41.2100   35.8020   38.4420 C   0  0  0  0  0  0  0  0  0  0  0  0
   42.9990   34.3654   42.6006 H   0  0  0  0  0  0  0  0  0  0  0  0
   46.1685   33.1805   39.0726 H   0  0  0  0  0  0  0  0  0  0  0  0
   40.7798   31.3426   40.0016 H   0  0  0  0  0  0  0  0  0  0  0  0
   42.1319   31.0626   41.1305 H   0  0  0  0  0  0  0  0  0  0  0  0
   39.6646   31.1210   42.0442 H   0  0  0  0  0  0  0  0  0  0  0  0
   40.9643   31.9699   42.9545 H   0  0  0  0  0  0  0  0  0  0  0  0
   39.1183   32.7926   39.9856 H   0  0  0  0  0  0  0  0  0  0  0  0
   38.9494   34.4923   40.6026 H   0  0  0  0  0  0  0  0  0  0  0  0
   41.0321   33.8204   38.8805 H   0  0  0  0  0  0  0  0  0  0  0  0
   46.3315   34.5613   43.2353 H   0  0  0  0  0  0  0  0  0  0  0  0
   45.8599   37.4140   43.5591 H   0  0  0  0  0  0  0  0  0  0  0  0
   44.7813   37.4535   42.4477 H   0  0  0  0  0  0  0  0  0  0  0  0
   43.4066   35.4837   43.9486 H   0  0  0  0  0  0  0  0  0  0  0  0
   44.3663   35.6517   45.1717 H   0  0  0  0  0  0  0  0  0  0  0  0
   42.0864   35.5305   40.5201 H   0  0  0  0  0  0  0  0  0  0  0  0
   40.3382   36.2201   41.7016 H   0  0  0  0  0  0  0  0  0  0  0  0
   40.4612   37.3612   40.3198 H   0  0  0  0  0  0  0  0  0  0  0  0
   39.1986   36.0835   40.3198 H   0  0  0  0  0  0  0  0  0  0  0  0
   41.3329   36.8919   38.3576 H   0  0  0  0  0  0  0  0  0  0  0  0
   42.0571   35.2985   37.9531 H   0  0  0  0  0  0  0  0  0  0  0  0
   40.2721   35.4999   37.9531 H   0  0  0  0  0  0  0  0  0  0  0  0
  1 13  1  0
  2  1  2  0
  3  2  1  0
  4  5  1  0
  4  3  2  0
  5  6  2  0
  6  1  1  0
  7  3  1  0
  7  8  1  0
  8  9  1  0
 10  9  1  0
 11 10  1  0
 12  7  1  0
 12 11  1  0
 13 14  1  0
 13 15  1  0
 14 15  1  0
 16 12  1  0
 16 17  1  0
 18 16  1  0
  2 19  1  0
  5 20  1  0
  8 21  1  0
  8 22  1  0
  9 23  1  0
  9 24  1  0
 11 25  1  0
 11 26  1  0
 12 27  1  6
 13 28  1  0
 14 29  1  0
 14 30  1  0
 15 31  1  0
 15 32  1  0
 16 33  1  0
 17 34  1  0
 17 35  1  0
 17 36  1  0
 18 37  1  0
 18 38  1  0
 18 39  1  0
M  ISO  8  19  14  20  14  21  13  22  13  23  13  24  13  25  13  26  13
M  ISO  8  27  13  28  13  29  13  30  13  31  13  32  13  33   8  34   8
M  ISO  5  35   8  36   8  37   8  38   8  39   8
M  END
>  <minimizedAffinity>  (1) 
-5.30549049

>  <minimizedRMSD>  (1) 
2.59872174

$$$$
