
     RDKit          3D

 43 46  0  0  1  0  0  0  0  0999 V2000
   44.3540   33.1130   42.2410 C   0  0  0  0  0  0  0  0  0  0  0  0
   43.4050   33.8400   41.4940 C   0  0  0  0  0  0  0  0  0  0  0  0
   42.1750   33.2430   41.1880 C   0  0  0  0  0  0  0  0  0  0  0  0
   41.9550   31.9970   41.6250 N   0  0  0  0  0  0  0  0  0  0  0  0
   42.8960   31.3200   42.3450 C   0  0  0  0  0  0  0  0  0  0  0  0
   44.0910   31.8890   42.6460 N   0  0  0  0  0  0  0  0  0  0  0  0
   41.1830   33.9410   40.4460 N   0  0  0  0  0  0  0  0  0  0  0  0
   40.0650   34.6510   41.0240 C   0  0  0  0  0  0  0  0  0  0  0  0
   40.2750   36.1280   40.7370 C   0  0  0  0  0  0  0  0  0  0  0  0
   40.8160   36.2940   39.4890 O   0  0  0  0  0  0  0  0  0  0  0  0
   40.5340   35.2710   38.6030 C   0  0  0  0  0  0  0  0  0  0  0  0
   41.2560   33.9710   39.0130 C   0  0  2  0  0  0  0  0  0  0  0  0
   40.6710   32.8330   38.3720 N   0  0  0  0  0  0  0  0  0  0  0  0
   41.2180   31.6460   38.1010 C   0  0  0  0  0  0  0  0  0  0  0  0
   40.4690   30.6800   37.4700 C   0  0  0  0  0  0  0  0  0  0  0  0
   41.1000   29.3640   37.1770 C   0  0  0  0  0  0  0  0  0  0  0  0
   39.1560   30.9150   37.1090 C   0  0  0  0  0  0  0  0  0  0  0  0
   38.4720   30.0390   36.5340 O   0  0  0  0  0  0  0  0  0  0  0  0
   38.6310   32.1200   37.3930 N   0  0  0  0  0  0  0  0  0  0  0  0
   39.3810   33.0610   38.0160 C   0  0  0  0  0  0  0  0  0  0  0  0
   38.7410   34.1420   38.2130 O   0  0  0  0  0  0  0  0  0  0  0  0
   45.6420   33.7950   42.5360 C   0  0  0  0  0  0  0  0  0  0  0  0
   46.4160   34.3880   41.3630 C   0  0  0  0  0  0  0  0  0  0  0  0
   45.8110   35.2280   42.4270 C   0  0  0  0  0  0  0  0  0  0  0  0
   43.6273   34.8628   41.1557 H   0  0  0  0  0  0  0  0  0  0  0  0
   42.6826   30.2965   42.6870 H   0  0  0  0  0  0  0  0  0  0  0  0
   39.1244   34.3084   40.5681 H   0  0  0  0  0  0  0  0  0  0  0  0
   40.0037   34.4682   42.1070 H   0  0  0  0  0  0  0  0  0  0  0  0
   39.3075   36.6491   40.7862 H   0  0  0  0  0  0  0  0  0  0  0  0
   40.9641   36.5454   41.4860 H   0  0  0  0  0  0  0  0  0  0  0  0
   40.8661   35.5650   37.5964 H   0  0  0  0  0  0  0  0  0  0  0  0
   39.4494   35.0878   38.6124 H   0  0  0  0  0  0  0  0  0  0  0  0
   42.3072   33.9407   38.6903 H   0  0  0  0  0  0  0  0  0  0  0  0
   42.2620   31.4414   38.3807 H   0  0  0  0  0  0  0  0  0  0  0  0
   41.3437   28.8558   38.1216 H   0  0  0  0  0  0  0  0  0  0  0  0
   40.4014   28.7436   36.5964 H   0  0  0  0  0  0  0  0  0  0  0  0
   42.0212   29.5202   36.5964 H   0  0  0  0  0  0  0  0  0  0  0  0
   37.6556   32.3284   37.1361 H   0  0  0  0  0  0  0  0  0  0  0  0
   45.8305   33.0778   43.3485 H   0  0  0  0  0  0  0  0  0  0  0  0
   45.9868   34.3775   40.3502 H   0  0  0  0  0  0  0  0  0  0  0  0
   47.4185   34.2593   40.9290 H   0  0  0  0  0  0  0  0  0  0  0  0
   46.4634   35.7530   43.1402 H   0  0  0  0  0  0  0  0  0  0  0  0
   45.1139   36.0789   42.4215 H   0  0  0  0  0  0  0  0  0  0  0  0
  1 22  1  0
  1  6  1  0
  2  1  2  0
  3  2  1  0
  3  4  2  0
  4  5  1  0
  5  6  2  0
  7  8  1  0
  7  3  1  0
  9  8  1  0
 10  9  1  0
 11 12  1  0
 11 10  1  0
 12  7  1  0
 13 12  1  0
 14 13  1  0
 15 14  2  0
 16 15  1  0
 17 19  1  0
 17 15  1  0
 18 17  2  0
 19 20  1  0
 20 21  2  0
 20 13  1  0
 23 24  1  0
 23 22  1  0
 24 22  1  0
  2 25  1  0
  5 26  1  0
  8 27  1  0
  8 28  1  0
  9 29  1  0
  9 30  1  0
 11 31  1  0
 11 32  1  0
 12 33  1  1
 14 34  1  0
 16 35  1  0
 16 36  1  0
 16 37  1  0
 19 38  1  0
 22 39  1  0
 23 40  1  0
 23 41  1  0
 24 42  1  0
 24 43  1  0
M  ISO  8  25  14  26  14  27  13  28  13  29  13  30  13  31  13  32  13
M  ISO  8  33  13  34  14  35   8  36   8  37   8  38   9  39  13  40  13
M  ISO  3  41  13  42  13  43  13
M  END
>  <minimizedAffinity>  (1) 
-5.46705246

>  <minimizedRMSD>  (1) 
1.59152234

$$$$
