
     RDKit          3D

 44 48  0  0  1  0  0  0  0  0999 V2000
   45.1790   33.9870   42.5290 C   0  0  0  0  0  0  0  0  0  0  0  0
   44.1030   34.4560   41.7650 C   0  0  0  0  0  0  0  0  0  0  0  0
   43.0260   33.5980   41.4820 C   0  0  0  0  0  0  0  0  0  0  0  0
   43.0780   32.3510   41.9610 N   0  0  0  0  0  0  0  0  0  0  0  0
   44.1460   31.9210   42.7070 C   0  0  0  0  0  0  0  0  0  0  0  0
   45.1820   32.7500   42.9790 N   0  0  0  0  0  0  0  0  0  0  0  0
   41.9130   34.0420   40.7190 N   0  0  0  0  0  0  0  0  0  0  0  0
   40.6660   34.4990   41.2590 C   0  0  0  0  0  0  0  0  0  0  0  0
   40.5510   35.9810   40.9180 C   0  0  0  0  0  0  0  0  0  0  0  0
   41.0460   36.2110   39.6590 O   0  0  0  0  0  0  0  0  0  0  0  0
   40.9790   35.1050   38.8280 C   0  0  0  0  0  0  0  0  0  0  0  0
   42.0160   34.0460   39.2640 C   0  0  2  0  0  0  0  0  0  0  0  0
   41.5680   32.7940   38.6670 C   0  0  0  0  0  0  0  0  0  0  0  0
   42.4500   31.7790   38.6890 N   0  0  0  0  0  0  0  0  0  0  0  0
   42.0930   30.5960   38.1480 C   0  0  0  0  0  0  0  0  0  0  0  0
   40.9080   30.3210   37.5700 N   0  0  0  0  0  0  0  0  0  0  0  0
   40.0080   31.3210   37.5370 C   0  0  0  0  0  0  0  0  0  0  0  0
   38.7590   31.1470   36.9690 C   0  0  0  0  0  0  0  0  0  0  0  0
   37.8740   32.2050   36.9630 C   0  0  0  0  0  0  0  0  0  0  0  0
   38.1800   33.4500   37.5050 C   0  0  0  0  0  0  0  0  0  0  0  0
   39.4350   33.5900   38.0630 C   0  0  0  0  0  0  0  0  0  0  0  0
   40.3450   32.5530   38.0870 C   0  0  0  0  0  0  0  0  0  0  0  0
   46.2850   34.9410   42.7960 C   0  0  0  0  0  0  0  0  0  0  0  0
   47.6610   34.3640   43.1180 C   0  0  0  0  0  0  0  0  0  0  0  0
   47.3930   35.1310   41.8760 C   0  0  0  0  0  0  0  0  0  0  0  0
   44.1006   35.4896   41.3886 H   0  0  0  0  0  0  0  0  0  0  0  0
   44.1612   30.8896   43.0892 H   0  0  0  0  0  0  0  0  0  0  0  0
   39.8318   33.9415   40.8082 H   0  0  0  0  0  0  0  0  0  0  0  0
   40.6272   34.3416   42.3470 H   0  0  0  0  0  0  0  0  0  0  0  0
   39.4938   36.2826   40.9548 H   0  0  0  0  0  0  0  0  0  0  0  0
   41.1306   36.5661   41.6472 H   0  0  0  0  0  0  0  0  0  0  0  0
   41.1889   35.4146   37.7935 H   0  0  0  0  0  0  0  0  0  0  0  0
   39.9714   34.6683   38.8924 H   0  0  0  0  0  0  0  0  0  0  0  0
   43.0586   34.2211   38.9602 H   0  0  0  0  0  0  0  0  0  0  0  0
   42.8349   29.7846   38.1819 H   0  0  0  0  0  0  0  0  0  0  0  0
   38.4757   30.1796   36.5287 H   0  0  0  0  0  0  0  0  0  0  0  0
   36.8825   32.0583   36.5098 H   0  0  0  0  0  0  0  0  0  0  0  0
   37.4585   34.2802   37.4895 H   0  0  0  0  0  0  0  0  0  0  0  0
   39.7182   34.5580   38.5020 H   0  0  0  0  0  0  0  0  0  0  0  0
   45.5698   35.6331   43.2645 H   0  0  0  0  0  0  0  0  0  0  0  0
   48.2736   34.8009   43.9204 H   0  0  0  0  0  0  0  0  0  0  0  0
   48.0648   33.3705   43.3628 H   0  0  0  0  0  0  0  0  0  0  0  0
   47.3890   34.6104   40.9070 H   0  0  0  0  0  0  0  0  0  0  0  0
   47.8548   36.0147   41.4114 H   0  0  0  0  0  0  0  0  0  0  0  0
  1 23  1  0
  1  6  1  0
  2  1  2  0
  3  2  1  0
  3  4  2  0
  4  5  1  0
  5  6  2  0
  7  8  1  0
  7  3  1  0
  9  8  1  0
 10  9  1  0
 11 12  1  0
 11 10  1  0
 12  7  1  0
 13 14  2  0
 13 12  1  0
 15 14  1  0
 16 15  2  0
 17 16  1  0
 17 22  2  0
 18 17  1  0
 19 18  2  0
 19 20  1  0
 20 21  2  0
 21 22  1  0
 22 13  1  0
 23 24  1  0
 25 23  1  0
 25 24  1  0
  2 26  1  0
  5 27  1  0
  8 28  1  0
  8 29  1  0
  9 30  1  0
  9 31  1  0
 11 32  1  0
 11 33  1  0
 12 34  1  1
 15 35  1  0
 18 36  1  0
 19 37  1  0
 20 38  1  0
 21 39  1  0
 23 40  1  0
 24 41  1  0
 24 42  1  0
 25 43  1  0
 25 44  1  0
M  ISO  8  26  14  27  14  28  13  29  13  30  13  31  13  32  13  33  13
M  ISO  8  34  13  35  14  36  14  37  14  38  14  39  14  40  13  41  13
M  ISO  3  42  13  43  13  44  13
M  END
>  <minimizedAffinity>  (1) 
-6.07184601

>  <minimizedRMSD>  (1) 
1.9214319

$$$$
