
     RDKit          3D

 46 50  0  0  1  0  0  0  0  0999 V2000
   44.5600   33.7420   42.8390 C   0  0  0  0  0  0  0  0  0  0  0  0
   43.5760   34.1590   41.9290 C   0  0  0  0  0  0  0  0  0  0  0  0
   42.7130   33.2120   41.3480 C   0  0  0  0  0  0  0  0  0  0  0  0
   42.8780   31.9330   41.7000 N   0  0  0  0  0  0  0  0  0  0  0  0
   43.8500   31.5630   42.5910 C   0  0  0  0  0  0  0  0  0  0  0  0
   44.6790   32.4710   43.1500 N   0  0  0  0  0  0  0  0  0  0  0  0
   41.6970   33.6000   40.4310 N   0  0  0  0  0  0  0  0  0  0  0  0
   40.3250   33.8150   40.7730 C   0  0  0  0  0  0  0  0  0  0  0  0
   40.0440   35.2950   40.5580 C   0  0  0  0  0  0  0  0  0  0  0  0
   40.7140   35.7480   39.4510 O   0  0  0  0  0  0  0  0  0  0  0  0
   40.9870   34.7600   38.5130 C   0  0  0  0  0  0  0  0  0  0  0  0
   42.0660   33.8040   39.0320 C   0  0  2  0  0  0  0  0  0  0  0  0
   42.1090   32.5620   38.2670 C   0  0  0  0  0  0  0  0  0  0  0  0
   43.2630   31.9090   37.8930 C   0  0  0  0  0  0  0  0  0  0  0  0
   43.3210   30.7400   37.1620 C   0  0  0  0  0  0  0  0  0  0  0  0
   42.1590   30.1590   36.7600 C   0  0  0  0  0  0  0  0  0  0  0  0
   40.9730   30.7500   37.0950 C   0  0  0  0  0  0  0  0  0  0  0  0
   39.8220   30.1200   36.6660 C   0  0  0  0  0  0  0  0  0  0  0  0
   38.5890   30.6570   36.9670 C   0  0  0  0  0  0  0  0  0  0  0  0
   38.5400   31.8260   37.6990 C   0  0  0  0  0  0  0  0  0  0  0  0
   39.7200   32.4190   38.1060 C   0  0  0  0  0  0  0  0  0  0  0  0
   40.9590   31.9330   37.8370 C   0  0  0  0  0  0  0  0  0  0  0  0
   45.4280   34.7930   43.4000 C   0  0  0  0  0  0  0  0  0  0  0  0
   46.5720   35.3350   42.5470 C   0  0  0  0  0  0  0  0  0  0  0  0
   45.4120   36.1730   42.9450 C   0  0  0  0  0  0  0  0  0  0  0  0
   43.4799   35.2239   41.6707 H   0  0  0  0  0  0  0  0  0  0  0  0
   43.9581   30.5013   42.8577 H   0  0  0  0  0  0  0  0  0  0  0  0
   39.6741   33.2083   40.1263 H   0  0  0  0  0  0  0  0  0  0  0  0
   40.1281   33.5236   41.8153 H   0  0  0  0  0  0  0  0  0  0  0  0
   38.9634   35.4426   40.4144 H   0  0  0  0  0  0  0  0  0  0  0  0
   40.3859   35.8571   41.4396 H   0  0  0  0  0  0  0  0  0  0  0  0
   41.3391   35.2317   37.5837 H   0  0  0  0  0  0  0  0  0  0  0  0
   40.0672   34.1867   38.3252 H   0  0  0  0  0  0  0  0  0  0  0  0
   43.0843   34.2067   38.9282 H   0  0  0  0  0  0  0  0  0  0  0  0
   44.2185   32.3571   38.2032 H   0  0  0  0  0  0  0  0  0  0  0  0
   44.2904   30.2859   36.9088 H   0  0  0  0  0  0  0  0  0  0  0  0
   42.1734   29.2280   36.1744 H   0  0  0  0  0  0  0  0  0  0  0  0
   39.8890   29.1891   36.0838 H   0  0  0  0  0  0  0  0  0  0  0  0
   37.6643   30.1648   36.6313 H   0  0  0  0  0  0  0  0  0  0  0  0
   37.5719   32.2809   37.9557 H   0  0  0  0  0  0  0  0  0  0  0  0
   39.6507   33.3496   38.6885 H   0  0  0  0  0  0  0  0  0  0  0  0
   45.3099   34.3258   44.3889 H   0  0  0  0  0  0  0  0  0  0  0  0
   46.6906   35.0088   41.5032 H   0  0  0  0  0  0  0  0  0  0  0  0
   47.6659   35.4022   42.6409 H   0  0  0  0  0  0  0  0  0  0  0  0
   45.5539   36.9859   43.6723 H   0  0  0  0  0  0  0  0  0  0  0  0
   44.6861   36.7837   42.3882 H   0  0  0  0  0  0  0  0  0  0  0  0
  1  6  1  0
  1 23  1  0
  2  1  2  0
  3  4  2  0
  3  2  1  0
  4  5  1  0
  5  6  2  0
  7  8  1  0
  7  3  1  0
  9  8  1  0
 10  9  1  0
 11 12  1  0
 11 10  1  0
 12  7  1  0
 13 12  1  0
 14 13  2  0
 15 14  1  0
 16 17  1  0
 16 15  2  0
 17 22  2  0
 18 19  2  0
 18 17  1  0
 19 20  1  0
 20 21  2  0
 22 21  1  0
 22 13  1  0
 24 25  1  0
 24 23  1  0
 25 23  1  0
  2 26  1  0
  5 27  1  0
  8 28  1  0
  8 29  1  0
  9 30  1  0
  9 31  1  0
 11 32  1  0
 11 33  1  0
 12 34  1  1
 14 35  1  0
 15 36  1  0
 16 37  1  0
 18 38  1  0
 19 39  1  0
 20 40  1  0
 21 41  1  0
 23 42  1  0
 24 43  1  0
 24 44  1  0
 25 45  1  0
 25 46  1  0
M  ISO  8  26  14  27  14  28  13  29  13  30  13  31  13  32  13  33  13
M  ISO  8  34  13  35  14  36  14  37  14  38  14  39  14  40  14  41  14
M  ISO  5  42  13  43  13  44  13  45  13  46  13
M  END
>  <minimizedAffinity>  (1) 
-5.82428885

>  <minimizedRMSD>  (1) 
0.773512125

$$$$
