
     RDKit          3D

 33 35  0  0  1  0  0  0  0  0999 V2000
   44.4480   33.6870   42.6590 C   0  0  0  0  0  0  0  0  0  0  0  0
   43.4820   34.2700   41.8180 C   0  0  0  0  0  0  0  0  0  0  0  0
   42.5440   33.4540   41.1690 C   0  0  0  0  0  0  0  0  0  0  0  0
   42.6130   32.1270   41.3870 N   0  0  0  0  0  0  0  0  0  0  0  0
   43.5710   31.6030   42.2150 C   0  0  0  0  0  0  0  0  0  0  0  0
   44.4760   32.3840   42.8410 N   0  0  0  0  0  0  0  0  0  0  0  0
   41.5450   33.9990   40.3210 N   0  0  0  0  0  0  0  0  0  0  0  0
   40.1910   34.2870   40.7220 C   0  0  0  0  0  0  0  0  0  0  0  0
   40.0170   35.7920   40.6750 C   0  0  0  0  0  0  0  0  0  0  0  0
   40.6980   36.3170   39.6120 O   0  0  0  0  0  0  0  0  0  0  0  0
   40.8930   35.4430   38.5660 C   0  0  0  0  0  0  0  0  0  0  0  0
   41.8580   34.3040   38.9560 C   0  0  2  0  0  0  0  0  0  0  0  0
   45.4130   34.6070   43.3080 C   0  0  0  0  0  0  0  0  0  0  0  0
   46.5640   35.1480   42.4650 C   0  0  0  0  0  0  0  0  0  0  0  0
   45.4860   36.0230   42.9920 C   0  0  0  0  0  0  0  0  0  0  0  0
   41.5120   33.1020   38.1550 C   0  0  0  0  0  0  0  0  0  0  0  0
   40.2780   32.8290   37.9760 O   0  0  0  0  0  0  0  0  0  0  0  0
   42.3500   32.1850   37.5410 O   0  0  0  0  0  0  0  0  0  0  0  0
   43.4627   35.3599   41.6704 H   0  0  0  0  0  0  0  0  0  0  0  0
   43.6032   30.5150   42.3738 H   0  0  0  0  0  0  0  0  0  0  0  0
   39.4834   33.8046   40.0317 H   0  0  0  0  0  0  0  0  0  0  0  0
   39.9950   33.9039   41.7343 H   0  0  0  0  0  0  0  0  0  0  0  0
   38.9479   36.0304   40.5742 H   0  0  0  0  0  0  0  0  0  0  0  0
   40.4149   36.2266   41.6039 H   0  0  0  0  0  0  0  0  0  0  0  0
   41.3161   35.9942   37.7133 H   0  0  0  0  0  0  0  0  0  0  0  0
   39.9223   34.9986   38.3009 H   0  0  0  0  0  0  0  0  0  0  0  0
   42.9108   34.5815   38.7992 H   0  0  0  0  0  0  0  0  0  0  0  0
   45.2929   34.0535   44.2510 H   0  0  0  0  0  0  0  0  0  0  0  0
   46.6209   34.9212   41.3901 H   0  0  0  0  0  0  0  0  0  0  0  0
   47.6625   35.1261   42.5187 H   0  0  0  0  0  0  0  0  0  0  0  0
   45.7147   36.7459   43.7890 H   0  0  0  0  0  0  0  0  0  0  0  0
   44.7896   36.7377   42.5292 H   0  0  0  0  0  0  0  0  0  0  0  0
   41.9665   31.4253   37.0352 H   0  0  0  0  0  0  0  0  0  0  0  0
  1  6  1  0
  1 13  1  0
  2  1  2  0
  3  4  2  0
  3  2  1  0
  4  5  1  0
  5  6  2  0
  7  8  1  0
  7  3  1  0
  9  8  1  0
 10  9  1  0
 11 12  1  0
 11 10  1  0
 12  7  1  0
 14 15  1  0
 14 13  1  0
 15 13  1  0
 16 12  1  0
 17 16  2  0
 18 16  1  0
  2 19  1  0
  5 20  1  0
  8 21  1  0
  8 22  1  0
  9 23  1  0
  9 24  1  0
 11 25  1  0
 11 26  1  0
 12 27  1  1
 13 28  1  0
 14 29  1  0
 14 30  1  0
 15 31  1  0
 15 32  1  0
 18 33  1  0
M  ISO  8  19  14  20  14  21  13  22  13  23  13  24  13  25  13  26  13
M  ISO  7  27  13  28  13  29  13  30  13  31  13  32  13  33   3
M  END
>  <minimizedAffinity>  (1) 
-4.72921991

>  <minimizedRMSD>  (1) 
0.390242457

$$$$
