
     RDKit          3D

 36 39  0  0  1  0  0  0  0  0999 V2000
   44.5320   33.6330   42.6870 C   0  0  0  0  0  0  0  0  0  0  0  0
   43.5730   34.1360   41.8060 C   0  0  0  0  0  0  0  0  0  0  0  0
   42.6060   33.2680   41.2760 C   0  0  0  0  0  0  0  0  0  0  0  0
   42.6560   31.9820   41.6480 N   0  0  0  0  0  0  0  0  0  0  0  0
   43.6110   31.5260   42.5130 C   0  0  0  0  0  0  0  0  0  0  0  0
   44.5440   32.3620   43.0250 N   0  0  0  0  0  0  0  0  0  0  0  0
   41.6020   33.7410   40.3780 N   0  0  0  0  0  0  0  0  0  0  0  0
   40.2630   34.0800   40.7530 C   0  0  0  0  0  0  0  0  0  0  0  0
   40.1180   35.5850   40.5430 C   0  0  0  0  0  0  0  0  0  0  0  0
   40.7890   35.9680   39.4040 O   0  0  0  0  0  0  0  0  0  0  0  0
   40.9410   34.9600   38.4710 C   0  0  0  0  0  0  0  0  0  0  0  0
   41.9290   33.9010   38.9900 C   0  0  2  0  0  0  0  0  0  0  0  0
   45.5270   34.6000   43.2110 C   0  0  0  0  0  0  0  0  0  0  0  0
   46.6550   35.0510   42.2880 C   0  0  0  0  0  0  0  0  0  0  0  0
   45.6020   35.9840   42.7630 C   0  0  0  0  0  0  0  0  0  0  0  0
   41.8910   32.7020   38.2280 N   0  0  0  0  0  0  0  0  0  0  0  0
   40.8580   31.9250   37.8590 C   0  0  0  0  0  0  0  0  0  0  0  0
   41.3070   30.8890   37.1400 N   0  0  0  0  0  0  0  0  0  0  0  0
   42.6380   31.0110   37.0540 C   0  0  0  0  0  0  0  0  0  0  0  0
   42.9730   32.1220   37.7240 N   0  0  0  0  0  0  0  0  0  0  0  0
   43.5753   35.2009   41.5303 H   0  0  0  0  0  0  0  0  0  0  0  0
   43.6214   30.4634   42.7973 H   0  0  0  0  0  0  0  0  0  0  0  0
   39.5435   33.5378   40.1219 H   0  0  0  0  0  0  0  0  0  0  0  0
   40.0626   33.8047   41.7990 H   0  0  0  0  0  0  0  0  0  0  0  0
   39.0523   35.8375   40.4403 H   0  0  0  0  0  0  0  0  0  0  0  0
   40.5447   36.1132   41.4084 H   0  0  0  0  0  0  0  0  0  0  0  0
   41.3259   35.3876   37.5334 H   0  0  0  0  0  0  0  0  0  0  0  0
   39.9651   34.4844   38.2938 H   0  0  0  0  0  0  0  0  0  0  0  0
   42.9781   34.2132   38.8803 H   0  0  0  0  0  0  0  0  0  0  0  0
   45.4330   34.1346   44.2032 H   0  0  0  0  0  0  0  0  0  0  0  0
   46.6770   34.7261   41.2373 H   0  0  0  0  0  0  0  0  0  0  0  0
   47.7544   35.0223   42.3113 H   0  0  0  0  0  0  0  0  0  0  0  0
   45.8613   36.7744   43.4827 H   0  0  0  0  0  0  0  0  0  0  0  0
   44.8982   36.6614   42.2573 H   0  0  0  0  0  0  0  0  0  0  0  0
   39.8035   32.1122   38.1099 H   0  0  0  0  0  0  0  0  0  0  0  0
   43.3255   30.3288   36.5325 H   0  0  0  0  0  0  0  0  0  0  0  0
  1  6  1  0
  1 13  1  0
  2  1  2  0
  3  4  2  0
  3  2  1  0
  4  5  1  0
  5  6  2  0
  7  8  1  0
  7  3  1  0
  9  8  1  0
 10  9  1  0
 11 12  1  0
 11 10  1  0
 12  7  1  0
 14 15  1  0
 14 13  1  0
 15 13  1  0
 16 12  1  0
 17 16  1  0
 18 17  2  0
 19 18  1  0
 19 20  2  0
 20 16  1  0
  2 21  1  0
  5 22  1  0
  8 23  1  0
  8 24  1  0
  9 25  1  0
  9 26  1  0
 11 27  1  0
 11 28  1  0
 12 29  1  1
 13 30  1  0
 14 31  1  0
 14 32  1  0
 15 33  1  0
 15 34  1  0
 17 35  1  0
 19 36  1  0
M  ISO  8  21  14  22  14  23  13  24  13  25  13  26  13  27  13  28  13
M  ISO  8  29  13  30  13  31  13  32  13  33  13  34  13  35  14  36  14
M  END
>  <minimizedAffinity>  (1) 
-4.72305584

>  <minimizedRMSD>  (1) 
0.419393986

$$$$
