
     RDKit          3D

 43 47  0  0  1  0  0  0  0  0999 V2000
   44.6720   32.8280   42.6800 C   0  0  0  0  0  0  0  0  0  0  0  0
   43.4230   32.9790   42.0680 C   0  0  0  0  0  0  0  0  0  0  0  0
   42.6220   31.8510   41.8550 C   0  0  0  0  0  0  0  0  0  0  0  0
   43.0910   30.6550   42.2490 N   0  0  0  0  0  0  0  0  0  0  0  0
   44.3250   30.5560   42.8450 C   0  0  0  0  0  0  0  0  0  0  0  0
   45.1020   31.6420   43.0550 N   0  0  0  0  0  0  0  0  0  0  0  0
   41.3420   31.9540   41.2460 N   0  0  0  0  0  0  0  0  0  0  0  0
   40.0890   32.0240   41.9640 C   0  0  0  0  0  0  0  0  0  0  0  0
   39.5070   33.4010   41.7110 C   0  0  0  0  0  0  0  0  0  0  0  0
   39.7520   33.7970   40.4200 O   0  0  0  0  0  0  0  0  0  0  0  0
   39.9270   32.7520   39.5340 C   0  0  0  0  0  0  0  0  0  0  0  0
   41.2380   31.9950   39.8170 C   0  0  1  0  0  0  0  0  0  0  0  0
   42.3480   32.5640   39.1310 N   0  0  0  0  0  0  0  0  0  0  0  0
   42.3690   33.8950   38.9100 C   0  0  0  0  0  0  0  0  0  0  0  0
   43.5090   34.1870   38.2530 N   0  0  0  0  0  0  0  0  0  0  0  0
   44.1940   33.0430   38.0640 C   0  0  0  0  0  0  0  0  0  0  0  0
   45.4040   32.7670   37.4580 C   0  0  0  0  0  0  0  0  0  0  0  0
   45.8480   31.4880   37.4210 N   0  0  0  0  0  0  0  0  0  0  0  0
   45.0780   30.5130   37.9870 C   0  0  0  0  0  0  0  0  0  0  0  0
   43.8800   30.7640   38.5910 N   0  0  0  0  0  0  0  0  0  0  0  0
   43.4540   32.0240   38.6210 C   0  0  0  0  0  0  0  0  0  0  0  0
   46.1050   33.8800   36.9060 N   0  0  0  0  0  0  0  0  0  0  0  0
   45.4710   34.0590   42.8720 C   0  0  0  0  0  0  0  0  0  0  0  0
   46.2770   34.6060   41.7050 C   0  0  0  0  0  0  0  0  0  0  0  0
   45.1190   35.3390   42.2760 C   0  0  0  0  0  0  0  0  0  0  0  0
   43.0738   33.9747   41.7572 H   0  0  0  0  0  0  0  0  0  0  0  0
   44.6902   29.5672   43.1595 H   0  0  0  0  0  0  0  0  0  0  0  0
   39.3997   31.2496   41.5965 H   0  0  0  0  0  0  0  0  0  0  0  0
   40.2442   31.8560   43.0400 H   0  0  0  0  0  0  0  0  0  0  0  0
   38.4205   33.3714   41.8805 H   0  0  0  0  0  0  0  0  0  0  0  0
   39.9789   34.1183   42.3986 H   0  0  0  0  0  0  0  0  0  0  0  0
   39.9574   33.1515   38.5096 H   0  0  0  0  0  0  0  0  0  0  0  0
   39.0877   32.0509   39.6524 H   0  0  0  0  0  0  0  0  0  0  0  0
   41.2367   30.9681   39.4226 H   0  0  0  0  0  0  0  0  0  0  0  0
   41.5934   34.6140   39.2124 H   0  0  0  0  0  0  0  0  0  0  0  0
   45.4406   29.4750   37.9547 H   0  0  0  0  0  0  0  0  0  0  0  0
   47.0130   33.7376   36.4410 H   0  0  0  0  0  0  0  0  0  0  0  0
   45.7032   34.8261   36.9724 H   0  0  0  0  0  0  0  0  0  0  0  0
   45.6697   33.7368   43.9048 H   0  0  0  0  0  0  0  0  0  0  0  0
   46.2040   34.1388   40.7118 H   0  0  0  0  0  0  0  0  0  0  0  0
   47.3367   34.8299   41.5130 H   0  0  0  0  0  0  0  0  0  0  0  0
   45.2884   36.2670   42.8417 H   0  0  0  0  0  0  0  0  0  0  0  0
   44.1937   35.7558   41.8516 H   0  0  0  0  0  0  0  0  0  0  0  0
  1 23  1  0
  1  6  1  0
  2  1  2  0
  3  2  1  0
  3  4  2  0
  4  5  1  0
  5  6  2  0
  7  3  1  0
  7  8  1  0
  9  8  1  0
 10  9  1  0
 11 12  1  0
 11 10  1  0
 12  7  1  0
 13 12  1  0
 14 13  1  0
 15 14  2  0
 16 15  1  0
 16 21  2  0
 17 16  1  0
 18 17  2  0
 18 19  1  0
 19 20  2  0
 20 21  1  0
 21 13  1  0
 22 17  1  0
 24 25  1  0
 24 23  1  0
 25 23  1  0
  2 26  1  0
  5 27  1  0
  8 28  1  0
  8 29  1  0
  9 30  1  0
  9 31  1  0
 11 32  1  0
 11 33  1  0
 12 34  1  6
 14 35  1  0
 19 36  1  0
 22 37  1  0
 22 38  1  0
 23 39  1  0
 24 40  1  0
 24 41  1  0
 25 42  1  0
 25 43  1  0
M  ISO  8  26  14  27  14  28  13  29  13  30  13  31  13  32  13  33  13
M  ISO  8  34  13  35  14  36  14  39  13  40  13  41  13  42  13  43  13
M  END
>  <minimizedAffinity>  (1) 
-4.75557804

>  <minimizedRMSD>  (1) 
2.41372609

$$$$
