
     RDKit          3D

 36 39  0  0  1  0  0  0  0  0999 V2000
   44.5500   33.6150   42.7120 C   0  0  0  0  0  0  0  0  0  0  0  0
   43.5680   34.1320   41.8480 C   0  0  0  0  0  0  0  0  0  0  0  0
   42.5770   33.2810   41.3340 C   0  0  0  0  0  0  0  0  0  0  0  0
   42.6240   31.9990   41.7020 N   0  0  0  0  0  0  0  0  0  0  0  0
   43.5920   31.5270   42.5450 C   0  0  0  0  0  0  0  0  0  0  0  0
   44.5500   32.3420   43.0430 N   0  0  0  0  0  0  0  0  0  0  0  0
   41.5620   33.7680   40.4690 N   0  0  0  0  0  0  0  0  0  0  0  0
   40.2320   34.1380   40.8920 C   0  0  0  0  0  0  0  0  0  0  0  0
   40.1150   35.6460   40.6640 C   0  0  0  0  0  0  0  0  0  0  0  0
   40.7640   35.9930   39.4930 O   0  0  0  0  0  0  0  0  0  0  0  0
   40.8850   34.9720   38.5610 C   0  0  0  0  0  0  0  0  0  0  0  0
   41.8610   33.9270   39.0640 C   0  0  2  0  0  0  0  0  0  0  0  0
   45.5640   34.5800   43.1990 C   0  0  0  0  0  0  0  0  0  0  0  0
   46.6710   35.0160   42.2410 C   0  0  0  0  0  0  0  0  0  0  0  0
   45.6390   35.9570   42.7420 C   0  0  0  0  0  0  0  0  0  0  0  0
   41.9380   32.7080   38.2790 C   0  0  0  0  0  0  0  0  0  0  0  0
   43.2790   32.1120   37.7660 C   0  0  0  0  0  0  0  0  0  0  0  0
   42.7660   30.6850   36.9130 S   0  0  0  0  0  0  0  0  0  0  0  0
   40.9270   30.9720   37.2800 C   0  0  0  0  0  0  0  0  0  0  0  0
   40.8900   31.9780   37.9230 N   0  0  0  0  0  0  0  0  0  0  0  0
   43.5765   35.1979   41.5764 H   0  0  0  0  0  0  0  0  0  0  0  0
   43.5916   30.4629   42.8238 H   0  0  0  0  0  0  0  0  0  0  0  0
   39.4793   33.6026   40.2947 H   0  0  0  0  0  0  0  0  0  0  0  0
   40.0603   33.8779   41.9469 H   0  0  0  0  0  0  0  0  0  0  0  0
   39.0531   35.9230   40.5892 H   0  0  0  0  0  0  0  0  0  0  0  0
   40.5776   36.1786   41.5080 H   0  0  0  0  0  0  0  0  0  0  0  0
   41.2527   35.3871   37.6110 H   0  0  0  0  0  0  0  0  0  0  0  0
   39.9014   34.5042   38.4067 H   0  0  0  0  0  0  0  0  0  0  0  0
   42.8995   34.2657   38.9343 H   0  0  0  0  0  0  0  0  0  0  0  0
   45.4916   34.1227   44.1968 H   0  0  0  0  0  0  0  0  0  0  0  0
   46.6606   34.6860   41.1917 H   0  0  0  0  0  0  0  0  0  0  0  0
   47.7703   34.9785   42.2326 H   0  0  0  0  0  0  0  0  0  0  0  0
   45.9248   36.7487   43.4501 H   0  0  0  0  0  0  0  0  0  0  0  0
   44.9263   36.6370   42.2525 H   0  0  0  0  0  0  0  0  0  0  0  0
   44.2996   32.4972   37.9073 H   0  0  0  0  0  0  0  0  0  0  0  0
   40.0776   30.3466   36.9679 H   0  0  0  0  0  0  0  0  0  0  0  0
  1  6  1  0
  1 13  1  0
  2  1  2  0
  3  4  2  0
  3  2  1  0
  4  5  1  0
  5  6  2  0
  7  8  1  0
  7  3  1  0
  9  8  1  0
 10  9  1  0
 11 12  1  0
 11 10  1  0
 12  7  1  0
 14 15  1  0
 14 13  1  0
 15 13  1  0
 16 12  1  0
 17 16  2  0
 18 19  1  0
 18 17  1  0
 19 20  2  0
 20 16  1  0
  2 21  1  0
  5 22  1  0
  8 23  1  0
  8 24  1  0
  9 25  1  0
  9 26  1  0
 11 27  1  0
 11 28  1  0
 12 29  1  1
 13 30  1  0
 14 31  1  0
 14 32  1  0
 15 33  1  0
 15 34  1  0
 17 35  1  0
 19 36  1  0
M  ISO  8  21  14  22  14  23  13  24  13  25  13  26  13  27  13  28  13
M  ISO  8  29  13  30  13  31  13  32  13  33  13  34  13  35  14  36  14
M  END
>  <minimizedAffinity>  (1) 
-4.6713872

>  <minimizedRMSD>  (1) 
0.784328103

$$$$
