
     RDKit          3D

 32 34  0  0  1  0  0  0  0  0999 V2000
   44.3800   33.7320   42.7050 C   0  0  0  0  0  0  0  0  0  0  0  0
   43.4350   34.2390   41.7910 C   0  0  0  0  0  0  0  0  0  0  0  0
   42.5940   33.3550   41.0960 C   0  0  0  0  0  0  0  0  0  0  0  0
   42.7360   32.0390   41.3410 N   0  0  0  0  0  0  0  0  0  0  0  0
   43.6670   31.5920   42.2350 C   0  0  0  0  0  0  0  0  0  0  0  0
   44.4760   32.4310   42.9060 N   0  0  0  0  0  0  0  0  0  0  0  0
   41.6190   33.8260   40.1750 N   0  0  0  0  0  0  0  0  0  0  0  0
   40.2230   34.0240   40.4730 C   0  0  0  0  0  0  0  0  0  0  0  0
   39.9620   35.5230   40.3940 C   0  0  0  0  0  0  0  0  0  0  0  0
   40.6780   36.0720   39.3640 O   0  0  0  0  0  0  0  0  0  0  0  0
   40.9940   35.1900   38.3490 C   0  0  0  0  0  0  0  0  0  0  0  0
   42.0200   34.1420   38.8320 C   0  0  1  0  0  0  0  0  0  0  0  0
   45.2280   34.7200   43.3900 C   0  0  0  0  0  0  0  0  0  0  0  0
   46.4170   35.3130   42.6320 C   0  0  0  0  0  0  0  0  0  0  0  0
   45.2490   36.1320   43.0440 C   0  0  0  0  0  0  0  0  0  0  0  0
   43.3380   34.7440   38.8730 N   0  0  0  0  0  0  0  0  0  0  0  0
   43.3564   35.3232   41.6226 H   0  0  0  0  0  0  0  0  0  0  0  0
   43.7580   30.5101   42.4119 H   0  0  0  0  0  0  0  0  0  0  0  0
   39.6003   33.4924   39.7384 H   0  0  0  0  0  0  0  0  0  0  0  0
   39.9740   33.6330   41.4705 H   0  0  0  0  0  0  0  0  0  0  0  0
   38.8892   35.6970   40.2245 H   0  0  0  0  0  0  0  0  0  0  0  0
   40.2729   35.9927   41.3389 H   0  0  0  0  0  0  0  0  0  0  0  0
   41.4214   35.7504   37.5045 H   0  0  0  0  0  0  0  0  0  0  0  0
   40.0771   34.6680   38.0377 H   0  0  0  0  0  0  0  0  0  0  0  0
   42.0546   33.2599   38.1758 H   0  0  0  0  0  0  0  0  0  0  0  0
   45.0587   34.1795   44.3330 H   0  0  0  0  0  0  0  0  0  0  0  0
   46.5789   35.0685   41.5718 H   0  0  0  0  0  0  0  0  0  0  0  0
   47.5062   35.3579   42.7787 H   0  0  0  0  0  0  0  0  0  0  0  0
   45.3668   36.8834   43.8387 H   0  0  0  0  0  0  0  0  0  0  0  0
   44.5554   36.7943   42.5053 H   0  0  0  0  0  0  0  0  0  0  0  0
   43.6252   34.8752   39.8534 H   0  0  0  0  0  0  0  0  0  0  0  0
   44.0121   34.1273   38.3974 H   0  0  0  0  0  0  0  0  0  0  0  0
  1  6  1  0
  1 13  1  0
  2  1  2  0
  3  4  2  0
  3  2  1  0
  4  5  1  0
  5  6  2  0
  7  8  1  0
  7  3  1  0
  9  8  1  0
 10  9  1  0
 11 12  1  0
 11 10  1  0
 12 16  1  0
 12  7  1  0
 14 15  1  0
 14 13  1  0
 15 13  1  0
  2 17  1  0
  5 18  1  0
  8 19  1  0
  8 20  1  0
  9 21  1  0
  9 22  1  0
 11 23  1  0
 11 24  1  0
 12 25  1  6
 13 26  1  0
 14 27  1  0
 14 28  1  0
 15 29  1  0
 15 30  1  0
 16 31  1  0
 16 32  1  0
M  ISO  8  17  14  18  14  19  13  20  13  21  13  22  13  23  13  24  13
M  ISO  8  25  13  26  13  27  13  28  13  29  13  30  13  31   5  32   5
M  END
>  <minimizedAffinity>  (1) 
-4.64287853

>  <minimizedRMSD>  (1) 
0.0321309827

$$$$
