
     RDKit          3D

 32 34  0  0  1  0  0  0  0  0999 V2000
   44.3860   33.4370   42.5520 C   0  0  0  0  0  0  0  0  0  0  0  0
   43.4220   34.0290   41.7130 C   0  0  0  0  0  0  0  0  0  0  0  0
   42.3760   33.2520   41.2080 C   0  0  0  0  0  0  0  0  0  0  0  0
   42.3380   31.9490   41.5540 N   0  0  0  0  0  0  0  0  0  0  0  0
   43.2950   31.4150   42.3720 C   0  0  0  0  0  0  0  0  0  0  0  0
   44.3070   32.1610   42.8630 N   0  0  0  0  0  0  0  0  0  0  0  0
   41.3720   33.8020   40.3650 N   0  0  0  0  0  0  0  0  0  0  0  0
   40.0780   34.2640   40.8120 C   0  0  0  0  0  0  0  0  0  0  0  0
   40.0430   35.7660   40.6060 C   0  0  0  0  0  0  0  0  0  0  0  0
   40.6960   36.1010   39.4500 O   0  0  0  0  0  0  0  0  0  0  0  0
   40.7260   35.0980   38.4990 C   0  0  0  0  0  0  0  0  0  0  0  0
   41.6190   33.9260   38.9600 C   0  0  1  0  0  0  0  0  0  0  0  0
   45.4710   34.3230   43.0480 C   0  0  0  0  0  0  0  0  0  0  0  0
   46.4810   34.8510   42.0340 C   0  0  0  0  0  0  0  0  0  0  0  0
   45.5230   35.7440   42.7350 C   0  0  0  0  0  0  0  0  0  0  0  0
   43.0040   34.2640   38.5930 C   0  0  0  0  0  0  0  0  0  0  0  0
   43.8260   33.4960   38.0740 O   0  0  0  0  0  0  0  0  0  0  0  0
   43.4920   35.0965   41.4568 H   0  0  0  0  0  0  0  0  0  0  0  0
   43.2385   30.3489   42.6369 H   0  0  0  0  0  0  0  0  0  0  0  0
   39.2824   33.7841   40.2232 H   0  0  0  0  0  0  0  0  0  0  0  0
   39.9170   34.0109   41.8703 H   0  0  0  0  0  0  0  0  0  0  0  0
   38.9967   36.0995   40.5418 H   0  0  0  0  0  0  0  0  0  0  0  0
   40.5425   36.2560   41.4548 H   0  0  0  0  0  0  0  0  0  0  0  0
   41.1246   35.5058   37.5584 H   0  0  0  0  0  0  0  0  0  0  0  0
   39.7024   34.7226   38.3527 H   0  0  0  0  0  0  0  0  0  0  0  0
   41.4139   32.9518   38.4921 H   0  0  0  0  0  0  0  0  0  0  0  0
   45.4962   33.7585   43.9918 H   0  0  0  0  0  0  0  0  0  0  0  0
   46.3577   34.6351   40.9625 H   0  0  0  0  0  0  0  0  0  0  0  0
   47.5729   34.8058   41.9090 H   0  0  0  0  0  0  0  0  0  0  0  0
   45.8941   36.4531   43.4897 H   0  0  0  0  0  0  0  0  0  0  0  0
   44.7773   36.4786   42.3970 H   0  0  0  0  0  0  0  0  0  0  0  0
   43.3394   35.2913   38.7981 H   0  0  0  0  0  0  0  0  0  0  0  0
  1  6  1  0
  1 13  1  0
  2  1  2  0
  3  4  2  0
  3  2  1  0
  4  5  1  0
  5  6  2  0
  7  8  1  0
  7  3  1  0
  9  8  1  0
 10  9  1  0
 11 12  1  0
 11 10  1  0
 12  7  1  0
 14 15  1  0
 14 13  1  0
 15 13  1  0
 16 12  1  0
 17 16  2  0
  2 18  1  0
  5 19  1  0
  8 20  1  0
  8 21  1  0
  9 22  1  0
  9 23  1  0
 11 24  1  0
 11 25  1  0
 12 26  1  6
 13 27  1  0
 14 28  1  0
 14 29  1  0
 15 30  1  0
 15 31  1  0
 16 32  1  0
M  ISO  8  18  14  19  14  20  13  21  13  22  13  23  13  24  13  25  13
M  ISO  7  26  13  27  13  28  13  29  13  30  13  31  13  32   6
M  END
>  <minimizedAffinity>  (1) 
-4.33784866

>  <minimizedRMSD>  (1) 
0.626283884

$$$$
