
     RDKit          3D

 37 40  0  0  1  0  0  0  0  0999 V2000
   44.1790   32.7130   42.2940 C   0  0  0  0  0  0  0  0  0  0  0  0
   43.2300   33.3990   41.5100 C   0  0  0  0  0  0  0  0  0  0  0  0
   41.9850   32.8220   41.2510 C   0  0  0  0  0  0  0  0  0  0  0  0
   41.7470   31.6000   41.7790 N   0  0  0  0  0  0  0  0  0  0  0  0
   42.6920   30.9630   42.5350 C   0  0  0  0  0  0  0  0  0  0  0  0
   43.8930   31.5260   42.7820 N   0  0  0  0  0  0  0  0  0  0  0  0
   41.0050   33.4710   40.4720 N   0  0  0  0  0  0  0  0  0  0  0  0
   39.9050   34.2440   40.9910 C   0  0  0  0  0  0  0  0  0  0  0  0
   40.1350   35.6860   40.6010 C   0  0  0  0  0  0  0  0  0  0  0  0
   40.6680   35.7550   39.3340 O   0  0  0  0  0  0  0  0  0  0  0  0
   40.3910   34.6760   38.5290 C   0  0  0  0  0  0  0  0  0  0  0  0
   41.0580   33.3870   39.0430 C   0  0  1  0  0  0  0  0  0  0  0  0
   45.4730   33.3880   42.5120 C   0  0  0  0  0  0  0  0  0  0  0  0
   46.5720   33.1960   41.4690 C   0  0  0  0  0  0  0  0  0  0  0  0
   45.9300   34.5140   41.7190 C   0  0  0  0  0  0  0  0  0  0  0  0
   42.3290   33.1430   38.4630 N   0  0  0  0  0  0  0  0  0  0  0  0
   42.7430   31.9320   37.9830 C   0  0  0  0  0  0  0  0  0  0  0  0
   44.0060   31.9720   37.4800 C   0  0  0  0  0  0  0  0  0  0  0  0
   44.4110   33.2580   37.6470 N   0  0  0  0  0  0  0  0  0  0  0  0
   43.3820   33.9220   38.2370 C   0  0  0  0  0  0  0  0  0  0  0  0
   43.4705   34.3914   41.1010 H   0  0  0  0  0  0  0  0  0  0  0  0
   42.4680   29.9696   42.9509 H   0  0  0  0  0  0  0  0  0  0  0  0
   38.9585   33.8854   40.5603 H   0  0  0  0  0  0  0  0  0  0  0  0
   39.8454   34.1446   42.0849 H   0  0  0  0  0  0  0  0  0  0  0  0
   39.1768   36.2257   40.6223 H   0  0  0  0  0  0  0  0  0  0  0  0
   40.8385   36.1431   41.3124 H   0  0  0  0  0  0  0  0  0  0  0  0
   40.7594   34.8862   37.5141 H   0  0  0  0  0  0  0  0  0  0  0  0
   39.3021   34.5200   38.5325 H   0  0  0  0  0  0  0  0  0  0  0  0
   40.5241   32.4798   38.7236 H   0  0  0  0  0  0  0  0  0  0  0  0
   45.3491   33.2364   43.5944 H   0  0  0  0  0  0  0  0  0  0  0  0
   46.3672   32.6444   40.5396 H   0  0  0  0  0  0  0  0  0  0  0  0
   47.5997   32.8038   41.4643 H   0  0  0  0  0  0  0  0  0  0  0  0
   46.5084   35.3169   42.1995 H   0  0  0  0  0  0  0  0  0  0  0  0
   45.4234   35.2491   41.0763 H   0  0  0  0  0  0  0  0  0  0  0  0
   42.1223   31.0240   38.0015 H   0  0  0  0  0  0  0  0  0  0  0  0
   44.5758   31.1431   37.0347 H   0  0  0  0  0  0  0  0  0  0  0  0
   43.4170   34.9897   38.4993 H   0  0  0  0  0  0  0  0  0  0  0  0
  1 13  1  0
  1  6  1  0
  2  1  2  0
  3  2  1  0
  3  4  2  0
  4  5  1  0
  5  6  2  0
  7  8  1  0
  7  3  1  0
  9  8  1  0
 10  9  1  0
 11 12  1  0
 11 10  1  0
 12  7  1  0
 14 15  1  0
 14 13  1  0
 15 13  1  0
 16 12  1  0
 17 16  1  0
 18 19  1  0
 18 17  2  0
 19 20  2  0
 20 16  1  0
  2 21  1  0
  5 22  1  0
  8 23  1  0
  8 24  1  0
  9 25  1  0
  9 26  1  0
 11 27  1  0
 11 28  1  0
 12 29  1  6
 13 30  1  0
 14 31  1  0
 14 32  1  0
 15 33  1  0
 15 34  1  0
 17 35  1  0
 18 36  1  0
 20 37  1  0
M  ISO  8  21  14  22  14  23  13  24  13  25  13  26  13  27  13  28  13
M  ISO  8  29  13  30  13  31  13  32  13  33  13  34  13  35  14  36  14
M  ISO  1  37  14
M  END
>  <minimizedAffinity>  (1) 
-4.14202166

>  <minimizedRMSD>  (1) 
1.58632791

$$$$
