
     RDKit          3D

 43 46  0  0  1  0  0  0  0  0999 V2000
   45.9660   31.2140   46.0010 C   0  0  0  0  0  0  0  0  0  0  0  0
   45.9390   32.3320   45.1660 C   0  0  0  0  0  0  0  0  0  0  0  0
   45.5160   32.2340   43.8470 C   0  0  0  0  0  0  0  0  0  0  0  0
   45.1290   31.0050   43.4200 N   0  0  0  0  0  0  0  0  0  0  0  0
   45.1610   29.9230   44.2570 C   0  0  0  0  0  0  0  0  0  0  0  0
   45.5780   30.0320   45.5370 N   0  0  0  0  0  0  0  0  0  0  0  0
   45.4940   33.3460   42.9690 N   0  0  0  0  0  0  0  0  0  0  0  0
   44.3190   34.1580   42.7130 C   0  0  0  0  0  0  0  0  0  0  0  0
   44.6080   35.5300   43.2620 C   0  0  0  0  0  0  0  0  0  0  0  0
   45.9230   35.8600   43.0800 O   0  0  0  0  0  0  0  0  0  0  0  0
   46.5160   35.2200   42.0020 C   0  0  0  0  0  0  0  0  0  0  0  0
   46.6730   33.7120   42.2450 C   0  0  1  0  0  0  0  0  0  0  0  0
   46.4650   31.4100   47.3860 C   0  0  0  0  0  0  0  0  0  0  0  0
   47.9160   31.0160   47.6780 C   0  0  0  0  0  0  0  0  0  0  0  0
   47.4500   32.4240   47.7220 C   0  0  0  0  0  0  0  0  0  0  0  0
   47.9850   33.2930   42.7410 C   0  0  0  0  0  0  0  0  0  0  0  0
   48.4830   32.1600   41.8040 C   0  0  0  0  0  0  0  0  0  0  0  0
   49.8450   31.9030   42.4320 C   0  0  0  0  0  0  0  0  0  0  0  0
   50.3510   33.2980   42.7140 C   0  0  0  0  0  0  0  0  0  0  0  0
   49.1370   34.2400   42.5900 C   0  0  0  0  0  0  0  0  0  0  0  0
   46.2585   33.3082   45.5597 H   0  0  0  0  0  0  0  0  0  0  0  0
   44.8396   28.9414   43.8785 H   0  0  0  0  0  0  0  0  0  0  0  0
   44.1274   34.2159   41.6314 H   0  0  0  0  0  0  0  0  0  0  0  0
   43.4280   33.7228   43.1892 H   0  0  0  0  0  0  0  0  0  0  0  0
   43.9765   36.2662   42.7432 H   0  0  0  0  0  0  0  0  0  0  0  0
   44.3908   35.5307   44.3403 H   0  0  0  0  0  0  0  0  0  0  0  0
   47.5106   35.6580   41.8320 H   0  0  0  0  0  0  0  0  0  0  0  0
   45.8661   35.3575   41.1252 H   0  0  0  0  0  0  0  0  0  0  0  0
   46.7132   33.1187   41.3196 H   0  0  0  0  0  0  0  0  0  0  0  0
   45.4667   31.1710   47.7814 H   0  0  0  0  0  0  0  0  0  0  0  0
   48.1725   30.4854   48.6068 H   0  0  0  0  0  0  0  0  0  0  0  0
   48.7063   30.4597   47.1528 H   0  0  0  0  0  0  0  0  0  0  0  0
   47.7860   33.1304   46.9486 H   0  0  0  0  0  0  0  0  0  0  0  0
   47.4961   33.2170   48.4829 H   0  0  0  0  0  0  0  0  0  0  0  0
   47.7878   33.1009   43.8060 H   0  0  0  0  0  0  0  0  0  0  0  0
   48.5683   32.4971   40.7604 H   0  0  0  0  0  0  0  0  0  0  0  0
   47.8235   31.2823   41.7356 H   0  0  0  0  0  0  0  0  0  0  0  0
   49.7499   31.3206   43.3603 H   0  0  0  0  0  0  0  0  0  0  0  0
   50.5180   31.3170   41.7888 H   0  0  0  0  0  0  0  0  0  0  0  0
   50.7708   33.3515   43.7293 H   0  0  0  0  0  0  0  0  0  0  0  0
   51.1468   33.5814   42.0094 H   0  0  0  0  0  0  0  0  0  0  0  0
   49.1373   34.9981   43.3871 H   0  0  0  0  0  0  0  0  0  0  0  0
   49.1171   34.8136   41.6516 H   0  0  0  0  0  0  0  0  0  0  0  0
  1 13  1  0
  2  1  2  0
  3  2  1  0
  4  3  2  0
  4  5  1  0
  5  6  2  0
  6  1  1  0
  7  3  1  0
  8  7  1  0
  8  9  1  0
 10  9  1  0
 11 12  1  0
 11 10  1  0
 12 16  1  0
 12  7  1  0
 13 14  1  0
 13 15  1  0
 14 15  1  0
 17 18  1  0
 17 16  1  0
 18 19  1  0
 20 19  1  0
 20 16  1  0
  2 21  1  0
  5 22  1  0
  8 23  1  0
  8 24  1  0
  9 25  1  0
  9 26  1  0
 11 27  1  0
 11 28  1  0
 12 29  1  6
 13 30  1  0
 14 31  1  0
 14 32  1  0
 15 33  1  0
 15 34  1  0
 16 35  1  0
 17 36  1  0
 17 37  1  0
 18 38  1  0
 18 39  1  0
 19 40  1  0
 19 41  1  0
 20 42  1  0
 20 43  1  0
M  ISO  8  21  14  22  14  23  13  24  13  25  13  26  13  27  13  28  13
M  ISO  8  29  13  30  13  31  13  32  13  33  13  34  13  35  13  36  13
M  ISO  7  37  13  38  13  39  13  40  13  41  13  42  13  43  13
M  END
>  <minimizedAffinity>  (1) 
-4.32223082

>  <minimizedRMSD>  (1) 
5.44372463

$$$$
