
     RDKit          3D

 37 40  0  0  1  0  0  0  0  0999 V2000
   43.9050   32.5390   42.2490 C   0  0  0  0  0  0  0  0  0  0  0  0
   43.0380   33.2600   41.3990 C   0  0  0  0  0  0  0  0  0  0  0  0
   41.7780   32.7400   41.0950 C   0  0  0  0  0  0  0  0  0  0  0  0
   41.4440   31.5470   41.6410 N   0  0  0  0  0  0  0  0  0  0  0  0
   42.3120   30.8790   42.4590 C   0  0  0  0  0  0  0  0  0  0  0  0
   43.5310   31.3830   42.7530 N   0  0  0  0  0  0  0  0  0  0  0  0
   40.8670   33.4270   40.2580 N   0  0  0  0  0  0  0  0  0  0  0  0
   39.7950   34.2760   40.7220 C   0  0  0  0  0  0  0  0  0  0  0  0
   40.1280   35.6920   40.3040 C   0  0  0  0  0  0  0  0  0  0  0  0
   40.7110   35.6930   39.0640 O   0  0  0  0  0  0  0  0  0  0  0  0
   40.3780   34.6080   38.2710 C   0  0  0  0  0  0  0  0  0  0  0  0
   40.9750   33.3030   38.8380 C   0  0  1  0  0  0  0  0  0  0  0  0
   45.2240   33.1500   42.5290 C   0  0  0  0  0  0  0  0  0  0  0  0
   46.3080   33.0320   41.4640 C   0  0  0  0  0  0  0  0  0  0  0  0
   45.7030   34.3360   41.8420 C   0  0  0  0  0  0  0  0  0  0  0  0
   42.3020   33.0860   38.3440 N   0  0  0  0  0  0  0  0  0  0  0  0
   43.3360   33.9290   38.2540 N   0  0  0  0  0  0  0  0  0  0  0  0
   44.3850   33.2830   37.7260 C   0  0  0  0  0  0  0  0  0  0  0  0
   44.0060   31.9610   37.4670 C   0  0  0  0  0  0  0  0  0  0  0  0
   42.6760   31.8830   37.8760 C   0  0  0  0  0  0  0  0  0  0  0  0
   43.3534   34.2263   40.9785 H   0  0  0  0  0  0  0  0  0  0  0  0
   42.0120   29.9110   42.8869 H   0  0  0  0  0  0  0  0  0  0  0  0
   38.8436   33.9633   40.2671 H   0  0  0  0  0  0  0  0  0  0  0  0
   39.6897   34.2075   41.8148 H   0  0  0  0  0  0  0  0  0  0  0  0
   39.2043   36.2885   40.2720 H   0  0  0  0  0  0  0  0  0  0  0  0
   40.8295   36.1262   41.0316 H   0  0  0  0  0  0  0  0  0  0  0  0
   40.7693   34.7710   37.2560 H   0  0  0  0  0  0  0  0  0  0  0  0
   39.2824   34.5120   38.2515 H   0  0  0  0  0  0  0  0  0  0  0  0
   40.4383   32.3995   38.5129 H   0  0  0  0  0  0  0  0  0  0  0  0
   45.1067   32.8947   43.5925 H   0  0  0  0  0  0  0  0  0  0  0  0
   46.0825   32.5759   40.4887 H   0  0  0  0  0  0  0  0  0  0  0  0
   47.3253   32.6168   41.4129 H   0  0  0  0  0  0  0  0  0  0  0  0
   46.3051   35.0753   42.3905 H   0  0  0  0  0  0  0  0  0  0  0  0
   45.2110   35.1412   41.2767 H   0  0  0  0  0  0  0  0  0  0  0  0
   45.3759   33.7182   37.5295 H   0  0  0  0  0  0  0  0  0  0  0  0
   44.6228   31.1591   37.0352 H   0  0  0  0  0  0  0  0  0  0  0  0
   42.0394   30.9874   37.8244 H   0  0  0  0  0  0  0  0  0  0  0  0
  1 13  1  0
  1  6  1  0
  2  1  2  0
  3  2  1  0
  3  4  2  0
  4  5  1  0
  5  6  2  0
  7  8  1  0
  7  3  1  0
  9  8  1  0
 10  9  1  0
 11 12  1  0
 11 10  1  0
 12  7  1  0
 14 15  1  0
 14 13  1  0
 15 13  1  0
 16 12  1  0
 17 16  1  0
 18 17  2  0
 19 18  1  0
 19 20  2  0
 20 16  1  0
  2 21  1  0
  5 22  1  0
  8 23  1  0
  8 24  1  0
  9 25  1  0
  9 26  1  0
 11 27  1  0
 11 28  1  0
 12 29  1  6
 13 30  1  0
 14 31  1  0
 14 32  1  0
 15 33  1  0
 15 34  1  0
 18 35  1  0
 19 36  1  0
 20 37  1  0
M  ISO  8  21  14  22  14  23  13  24  13  25  13  26  13  27  13  28  13
M  ISO  8  29  13  30  13  31  13  32  13  33  13  34  13  35  14  36  14
M  ISO  1  37  14
M  END
>  <minimizedAffinity>  (1) 
-4.19907284

>  <minimizedRMSD>  (1) 
1.77505279

$$$$
