
     RDKit          3D

 40 43  0  0  1  0  0  0  0  0999 V2000
   45.9490   30.7350   47.3590 C   0  0  2  0  0  0  0  0  0  0  0  0
   44.7530   34.6800   46.2260 C   0  0  0  0  0  0  0  0  0  0  0  0
   44.6040   35.3850   45.0380 C   0  0  0  0  0  0  0  0  0  0  0  0
   45.1950   34.8630   43.8810 C   0  0  0  0  0  0  0  0  0  0  0  0
   45.8810   33.7020   43.9720 N   0  0  0  0  0  0  0  0  0  0  0  0
   46.0210   33.0180   45.1460 C   0  0  0  0  0  0  0  0  0  0  0  0
   45.4510   33.5240   46.2510 N   0  0  0  0  0  0  0  0  0  0  0  0
   46.7350   31.8130   45.2680 N   0  0  0  0  0  0  0  0  0  0  0  0
   47.6210   31.5540   44.2650 C   0  0  0  0  0  0  0  0  0  0  0  0
   48.2120   30.3200   44.6120 C   0  0  0  0  0  0  0  0  0  0  0  0
   47.6660   29.8930   45.7900 N   0  0  0  0  0  0  0  0  0  0  0  0
   46.7710   30.8210   46.1650 C   0  0  0  0  0  0  0  0  0  0  0  0
   46.7490   31.4510   48.4880 C   0  0  0  0  0  0  0  0  0  0  0  0
   45.7370   29.3260   47.8010 C   0  0  0  0  0  0  0  0  0  0  0  0
   44.7560   28.6290   47.0480 N   0  0  0  0  0  0  0  0  0  0  0  0
   44.0310   29.1500   46.0480 N   0  0  0  0  0  0  0  0  0  0  0  0
   43.2100   28.1740   45.5850 C   0  0  0  0  0  0  0  0  0  0  0  0
   43.4120   27.0130   46.2990 C   0  0  0  0  0  0  0  0  0  0  0  0
   44.4060   27.3270   47.2280 C   0  0  0  0  0  0  0  0  0  0  0  0
   44.9500   26.4340   48.1940 N   0  0  0  0  0  0  0  0  0  0  0  0
   46.0180   25.6250   48.3340 C   0  0  0  0  0  0  0  0  0  0  0  0
   45.9620   25.0000   49.5640 C   0  0  0  0  0  0  0  0  0  0  0  0
   44.8510   25.4190   50.1990 N   0  0  0  0  0  0  0  0  0  0  0  0
   44.2530   26.2850   49.3550 C   0  0  0  0  0  0  0  0  0  0  0  0
   44.9656   31.1816   47.1506 H   0  0  0  0  0  0  0  0  0  0  0  0
   44.3000   35.0655   47.1513 H   0  0  0  0  0  0  0  0  0  0  0  0
   44.0373   36.3273   45.0073 H   0  0  0  0  0  0  0  0  0  0  0  0
   45.1029   35.3868   42.9181 H   0  0  0  0  0  0  0  0  0  0  0  0
   47.8298   32.1716   43.3790 H   0  0  0  0  0  0  0  0  0  0  0  0
   48.9824   29.7910   44.0319 H   0  0  0  0  0  0  0  0  0  0  0  0
   46.3773   31.1183   49.4684 H   0  0  0  0  0  0  0  0  0  0  0  0
   47.8163   31.2009   48.3964 H   0  0  0  0  0  0  0  0  0  0  0  0
   46.6183   32.5394   48.3964 H   0  0  0  0  0  0  0  0  0  0  0  0
   46.6915   28.7869   47.7097 H   0  0  0  0  0  0  0  0  0  0  0  0
   45.3735   29.3677   48.8384 H   0  0  0  0  0  0  0  0  0  0  0  0
   42.4900   28.2921   44.7618 H   0  0  0  0  0  0  0  0  0  0  0  0
   42.9010   26.0480   46.1660 H   0  0  0  0  0  0  0  0  0  0  0  0
   46.8112   25.4842   47.5850 H   0  0  0  0  0  0  0  0  0  0  0  0
   46.6981   24.2834   49.9573 H   0  0  0  0  0  0  0  0  0  0  0  0
   43.3123   26.8096   49.5782 H   0  0  0  0  0  0  0  0  0  0  0  0
  1 14  1  0
  1 13  1  0
  2  7  2  0
  3  2  1  0
  4  5  1  0
  4  3  2  0
  5  6  2  0
  6  8  1  0
  6  7  1  0
  8 12  1  0
  9 10  2  0
  9  8  1  0
 10 11  1  0
 11 12  2  0
 12  1  1  0
 15 19  1  0
 15 14  1  0
 16 15  1  0
 17 16  2  0
 17 18  1  0
 18 19  2  0
 19 20  1  0
 20 21  1  0
 20 24  1  0
 21 22  2  0
 22 23  1  0
 24 23  2  0
  1 25  1  6
  2 26  1  0
  3 27  1  0
  4 28  1  0
  9 29  1  0
 10 30  1  0
 13 31  1  0
 13 32  1  0
 13 33  1  0
 14 34  1  0
 14 35  1  0
 17 36  1  0
 18 37  1  0
 21 38  1  0
 22 39  1  0
 24 40  1  0
M  ISO  8  25   8  26  14  27  14  28  14  29  14  30  14  31   8  32   8
M  ISO  8  33   8  34   8  35   8  36  14  37  14  38  14  39  14  40  14
M  END
>  <minimizedAffinity>  (1) 
-4.88691092

>  <minimizedRMSD>  (1) 
1.16007936

$$$$
