
     RDKit          3D

 56 60  0  0  1  0  0  0  0  0999 V2000
   43.2770   33.8770   40.6960 N   0  0  0  0  0  0  0  0  0  0  0  0
   41.9650   34.4330   40.7700 C   0  0  0  0  0  0  0  0  0  0  0  0
   41.8050   35.3490   39.5470 C   0  0  0  0  0  0  0  0  0  0  0  0
   42.4160   34.7940   38.4610 O   0  0  0  0  0  0  0  0  0  0  0  0
   42.5170   33.3930   38.5250 C   0  0  0  0  0  0  0  0  0  0  0  0
   43.4940   32.9920   39.6110 C   0  0  2  0  0  0  0  0  0  0  0  0
   46.6390   34.7640   42.0930 C   0  0  0  0  0  0  0  0  0  0  0  0
   45.6290   34.4800   41.1740 C   0  0  0  0  0  0  0  0  0  0  0  0
   44.3370   34.1600   41.6200 C   0  0  0  0  0  0  0  0  0  0  0  0
   44.1380   34.1410   42.9350 N   0  0  0  0  0  0  0  0  0  0  0  0
   45.1410   34.4220   43.8110 C   0  0  0  0  0  0  0  0  0  0  0  0
   46.3820   34.7300   43.3830 N   0  0  0  0  0  0  0  0  0  0  0  0
   47.9820   35.1000   41.5570 C   0  0  0  0  0  0  0  0  0  0  0  0
   48.9580   33.9460   41.2750 C   0  0  0  0  0  0  0  0  0  0  0  0
   48.3760   34.8010   40.2020 C   0  0  0  0  0  0  0  0  0  0  0  0
   43.3770   31.5290   39.8540 C   0  0  0  0  0  0  0  0  0  0  0  0
   43.9590   31.2900   41.2490 C   0  0  0  0  0  0  0  0  0  0  0  0
   41.9800   31.0200   39.9130 C   0  0  0  0  0  0  0  0  0  0  0  0
   44.1570   30.6760   38.9160 C   0  0  0  0  0  0  0  0  0  0  0  0
   45.4650   31.1800   38.5610 N   0  0  0  0  0  0  0  0  0  0  0  0
   46.6170   31.2430   39.2510 C   0  0  0  0  0  0  0  0  0  0  0  0
   47.6210   31.7690   38.5330 N   0  0  0  0  0  0  0  0  0  0  0  0
   47.1330   32.0730   37.3210 C   0  0  0  0  0  0  0  0  0  0  0  0
   47.7550   32.6310   36.2260 C   0  0  0  0  0  0  0  0  0  0  0  0
   48.9690   32.9510   36.2430 O   0  0  0  0  0  0  0  0  0  0  0  0
   47.0660   32.8430   35.1140 N   0  0  0  0  0  0  0  0  0  0  0  0
   45.7710   32.4860   35.1320 C   0  0  0  0  0  0  0  0  0  0  0  0
   44.9020   32.6580   33.9930 N   0  0  0  0  0  0  0  0  0  0  0  0
   45.1410   31.9410   36.1860 N   0  0  0  0  0  0  0  0  0  0  0  0
   45.7910   31.7050   37.3390 C   0  0  0  0  0  0  0  0  0  0  0  0
   41.2116   33.6319   40.7450 H   0  0  0  0  0  0  0  0  0  0  0  0
   41.8248   34.9938   41.7059 H   0  0  0  0  0  0  0  0  0  0  0  0
   40.7348   35.4849   39.3321 H   0  0  0  0  0  0  0  0  0  0  0  0
   42.2705   36.3219   39.7632 H   0  0  0  0  0  0  0  0  0  0  0  0
   41.5281   32.9666   38.7493 H   0  0  0  0  0  0  0  0  0  0  0  0
   42.8771   33.0128   37.5576 H   0  0  0  0  0  0  0  0  0  0  0  0
   44.5574   33.1061   39.3536 H   0  0  0  0  0  0  0  0  0  0  0  0
   45.8456   34.5069   40.0959 H   0  0  0  0  0  0  0  0  0  0  0  0
   44.9348   34.3973   44.8912 H   0  0  0  0  0  0  0  0  0  0  0  0
   47.9794   36.0251   42.1521 H   0  0  0  0  0  0  0  0  0  0  0  0
   50.0207   34.0347   41.5450 H   0  0  0  0  0  0  0  0  0  0  0  0
   49.0034   32.8698   41.4980 H   0  0  0  0  0  0  0  0  0  0  0  0
   49.0246   35.5046   39.6595 H   0  0  0  0  0  0  0  0  0  0  0  0
   47.8168   34.5849   39.2797 H   0  0  0  0  0  0  0  0  0  0  0  0
   43.2239   31.5919   42.0096 H   0  0  0  0  0  0  0  0  0  0  0  0
   44.1945   30.2224   41.3701 H   0  0  0  0  0  0  0  0  0  0  0  0
   44.8769   31.8840   41.3701 H   0  0  0  0  0  0  0  0  0  0  0  0
   41.6744   30.9087   40.9638 H   0  0  0  0  0  0  0  0  0  0  0  0
   41.3090   31.7314   39.4094 H   0  0  0  0  0  0  0  0  0  0  0  0
   41.9239   30.0437   39.4094 H   0  0  0  0  0  0  0  0  0  0  0  0
   44.2891   29.6895   39.3844 H   0  0  0  0  0  0  0  0  0  0  0  0
   43.5791   30.6474   37.9805 H   0  0  0  0  0  0  0  0  0  0  0  0
   46.7248   30.9007   40.2908 H   0  0  0  0  0  0  0  0  0  0  0  0
   47.5011   33.2601   34.2787 H   0  0  0  0  0  0  0  0  0  0  0  0
   43.9147   32.3702   34.0504 H   0  0  0  0  0  0  0  0  0  0  0  0
   45.2690   33.0686   33.1226 H   0  0  0  0  0  0  0  0  0  0  0  0
  1  2  1  0
  1  9  1  0
  3  2  1  0
  4  5  1  0
  4  3  1  0
  5  6  1  0
  6 16  1  0
  6  1  1  0
  7 12  2  0
  8  9  2  0
  8  7  1  0
  9 10  1  0
 10 11  2  0
 12 11  1  0
 13  7  1  0
 14 13  1  0
 15 14  1  0
 15 13  1  0
 16 18  1  0
 16 17  1  0
 19 16  1  0
 20 19  1  0
 20 21  1  0
 22 21  2  0
 23 30  2  0
 23 22  1  0
 24 25  2  0
 24 23  1  0
 26 27  1  0
 26 24  1  0
 27 29  2  0
 28 27  1  0
 29 30  1  0
 30 20  1  0
  2 31  1  0
  2 32  1  0
  3 33  1  0
  3 34  1  0
  5 35  1  0
  5 36  1  0
  6 37  1  6
  8 38  1  0
 11 39  1  0
 13 40  1  0
 14 41  1  0
 14 42  1  0
 15 43  1  0
 15 44  1  0
 17 45  1  0
 17 46  1  0
 17 47  1  0
 18 48  1  0
 18 49  1  0
 18 50  1  0
 19 51  1  0
 19 52  1  0
 21 53  1  0
 26 54  1  0
 28 55  1  0
 28 56  1  0
M  ISO  8  31  13  32  13  33  13  34  13  35  13  36  13  37  13  38  14
M  ISO  8  39  14  40  13  41  13  42  13  43  13  44  13  45   8  46   8
M  ISO  8  47   8  48   8  49   8  50   8  51   8  52   8  53  14  54   9
M  END
>  <minimizedAffinity>  (1) 
-6.08057308

>  <minimizedRMSD>  (1) 
6.82111883

$$$$
