
     RDKit          3D

 58 62  0  0  1  0  0  0  0  0999 V2000
   43.6050   34.7420   41.9140 N   0  0  0  0  0  0  0  0  0  0  0  0
   44.3490   35.8890   42.3750 C   0  0  0  0  0  0  0  0  0  0  0  0
   44.4950   35.7410   43.8920 C   0  0  0  0  0  0  0  0  0  0  0  0
   44.6920   34.4230   44.2220 O   0  0  0  0  0  0  0  0  0  0  0  0
   45.2740   33.6730   43.1880 C   0  0  0  0  0  0  0  0  0  0  0  0
   44.2950   33.5180   42.0400 C   0  0  2  0  0  0  0  0  0  0  0  0
   40.0730   33.8680   41.0580 C   0  0  0  0  0  0  0  0  0  0  0  0
   41.3600   33.7710   41.6000 C   0  0  0  0  0  0  0  0  0  0  0  0
   42.2980   34.7920   41.3810 C   0  0  0  0  0  0  0  0  0  0  0  0
   41.8830   35.8150   40.6460 N   0  0  0  0  0  0  0  0  0  0  0  0
   40.6330   35.9000   40.1250 C   0  0  0  0  0  0  0  0  0  0  0  0
   39.7380   34.9120   40.3420 N   0  0  0  0  0  0  0  0  0  0  0  0
   39.1380   32.7410   41.3360 C   0  0  0  0  0  0  0  0  0  0  0  0
   38.7440   31.8210   40.1700 C   0  0  0  0  0  0  0  0  0  0  0  0
   39.5450   31.3550   41.3240 C   0  0  0  0  0  0  0  0  0  0  0  0
   44.9890   32.9320   40.8720 C   0  0  0  0  0  0  0  0  0  0  0  0
   45.4790   31.5680   41.2480 C   0  0  0  0  0  0  0  0  0  0  0  0
   44.0630   32.7100   39.6880 C   0  0  0  0  0  0  0  0  0  0  0  0
   46.1150   33.7700   40.3330 C   0  0  0  0  0  0  0  0  0  0  0  0
   47.3500   33.0180   40.0690 C   0  0  0  0  0  0  0  0  0  0  0  0
   47.4780   32.0590   39.0790 C   0  0  0  0  0  0  0  0  0  0  0  0
   48.5920   31.2830   38.8560 C   0  0  0  0  0  0  0  0  0  0  0  0
   49.6940   31.4460   39.6660 C   0  0  0  0  0  0  0  0  0  0  0  0
   49.6300   32.3940   40.6770 C   0  0  0  0  0  0  0  0  0  0  0  0
   50.7570   32.5410   41.4260 C   0  0  0  0  0  0  0  0  0  0  0  0
   50.7950   33.4830   42.4220 C   0  0  0  0  0  0  0  0  0  0  0  0
   49.6760   34.2910   42.6640 C   0  0  0  0  0  0  0  0  0  0  0  0
   48.5880   34.0630   41.8510 C   0  0  0  0  0  0  0  0  0  0  0  0
   48.4780   33.1370   40.8390 C   0  0  0  0  0  0  0  0  0  0  0  0
   45.3407   35.9131   41.8997 H   0  0  0  0  0  0  0  0  0  0  0  0
   43.8312   36.8248   42.1177 H   0  0  0  0  0  0  0  0  0  0  0  0
   45.3561   36.3340   44.2339 H   0  0  0  0  0  0  0  0  0  0  0  0
   43.5758   36.0997   44.3782 H   0  0  0  0  0  0  0  0  0  0  0  0
   46.1769   34.1885   42.8288 H   0  0  0  0  0  0  0  0  0  0  0  0
   45.5387   32.6766   43.5717 H   0  0  0  0  0  0  0  0  0  0  0  0
   43.4927   32.7819   42.1963 H   0  0  0  0  0  0  0  0  0  0  0  0
   41.6372   32.8915   42.1997 H   0  0  0  0  0  0  0  0  0  0  0  0
   40.3477   36.7761   39.5241 H   0  0  0  0  0  0  0  0  0  0  0  0
   38.6276   33.3682   42.0817 H   0  0  0  0  0  0  0  0  0  0  0  0
   39.2098   31.9436   39.1810 H   0  0  0  0  0  0  0  0  0  0  0  0
   37.8073   31.5178   39.6794 H   0  0  0  0  0  0  0  0  0  0  0  0
   39.0979   30.6542   42.0444 H   0  0  0  0  0  0  0  0  0  0  0  0
   40.5182   30.8506   41.4162 H   0  0  0  0  0  0  0  0  0  0  0  0
   45.5109   31.4791   42.3439 H   0  0  0  0  0  0  0  0  0  0  0  0
   44.7978   30.8078   40.8381 H   0  0  0  0  0  0  0  0  0  0  0  0
   46.4883   31.4151   40.8381 H   0  0  0  0  0  0  0  0  0  0  0  0
   43.0537   32.4680   40.0522 H   0  0  0  0  0  0  0  0  0  0  0  0
   44.0231   33.6240   39.0773 H   0  0  0  0  0  0  0  0  0  0  0  0
   44.4419   31.8772   39.0773 H   0  0  0  0  0  0  0  0  0  0  0  0
   45.7827   34.2301   39.3907 H   0  0  0  0  0  0  0  0  0  0  0  0
   46.3558   34.5133   41.1073 H   0  0  0  0  0  0  0  0  0  0  0  0
   46.6156   31.9042   38.4139 H   0  0  0  0  0  0  0  0  0  0  0  0
   48.6024   30.5429   38.0423 H   0  0  0  0  0  0  0  0  0  0  0  0
   50.6002   30.8410   39.5154 H   0  0  0  0  0  0  0  0  0  0  0  0
   51.6344   31.9063   41.2330 H   0  0  0  0  0  0  0  0  0  0  0  0
   51.7033   33.6042   43.0305 H   0  0  0  0  0  0  0  0  0  0  0  0
   49.6672   35.0579   43.4525 H   0  0  0  0  0  0  0  0  0  0  0  0
   47.7051   34.6938   42.0314 H   0  0  0  0  0  0  0  0  0  0  0  0
  1  6  1  0
  1  2  1  0
  2  3  1  0
  3  4  1  0
  5  4  1  0
  6  5  1  0
  7 13  1  0
  7  8  2  0
  9  8  1  0
  9  1  1  0
 10  9  2  0
 11 12  2  0
 11 10  1  0
 12  7  1  0
 14 15  1  0
 14 13  1  0
 15 13  1  0
 16 17  1  0
 16  6  1  0
 18 16  1  0
 19 16  1  0
 20 19  1  0
 20 29  1  0
 21 20  2  0
 22 21  1  0
 22 23  2  0
 23 24  1  0
 24 29  2  0
 24 25  1  0
 25 26  2  0
 26 27  1  0
 28 27  2  0
 29 28  1  0
  2 30  1  0
  2 31  1  0
  3 32  1  0
  3 33  1  0
  5 34  1  0
  5 35  1  0
  6 36  1  1
  8 37  1  0
 11 38  1  0
 13 39  1  0
 14 40  1  0
 14 41  1  0
 15 42  1  0
 15 43  1  0
 17 44  1  0
 17 45  1  0
 17 46  1  0
 18 47  1  0
 18 48  1  0
 18 49  1  0
 19 50  1  0
 19 51  1  0
 21 52  1  0
 22 53  1  0
 23 54  1  0
 25 55  1  0
 26 56  1  0
 27 57  1  0
 28 58  1  0
M  ISO  8  30  13  31  13  32  13  33  13  34  13  35  13  36  13  37  14
M  ISO  8  38  14  39  13  40  13  41  13  42  13  43  13  44   8  45   8
M  ISO  8  46   8  47   8  48   8  49   8  50   8  51   8  52  14  53  14
M  ISO  5  54  14  55  14  56  14  57  14  58  14
M  END
>  <minimizedAffinity>  (1) 
-5.86031055

>  <minimizedRMSD>  (1) 
8.88560963

$$$$
