
     RDKit          3D

 50 53  0  0  1  0  0  0  0  0999 V2000
   41.3930   34.2070   40.7050 N   0  0  0  0  0  0  0  0  0  0  0  0
   40.9300   35.2420   41.5700 C   0  0  0  0  0  0  0  0  0  0  0  0
   40.2370   36.2870   40.6810 C   0  0  0  0  0  0  0  0  0  0  0  0
   39.5450   35.6670   39.6710 O   0  0  0  0  0  0  0  0  0  0  0  0
   39.1510   34.3570   40.0070 C   0  0  0  0  0  0  0  0  0  0  0  0
   40.3740   33.4560   40.0740 C   0  0  2  0  0  0  0  0  0  0  0  0
   45.0810   33.7390   41.1780 C   0  0  0  0  0  0  0  0  0  0  0  0
   43.7460   34.0470   41.4610 C   0  0  0  0  0  0  0  0  0  0  0  0
   42.7650   33.9100   40.4540 C   0  0  0  0  0  0  0  0  0  0  0  0
   43.1790   33.4870   39.2650 N   0  0  0  0  0  0  0  0  0  0  0  0
   44.4900   33.1950   39.0230 C   0  0  0  0  0  0  0  0  0  0  0  0
   45.4300   33.3230   39.9790 N   0  0  0  0  0  0  0  0  0  0  0  0
   46.0600   33.9090   42.2820 C   0  0  0  0  0  0  0  0  0  0  0  0
   47.0440   35.0880   42.2030 C   0  0  0  0  0  0  0  0  0  0  0  0
   45.9810   34.9880   43.2370 C   0  0  0  0  0  0  0  0  0  0  0  0
   39.9750   32.1480   40.6450 C   0  0  0  0  0  0  0  0  0  0  0  0
   40.9050   31.1040   40.0620 C   0  0  0  0  0  0  0  0  0  0  0  0
   40.1290   32.0680   42.1440 C   0  0  0  0  0  0  0  0  0  0  0  0
   38.5770   31.7230   40.3090 C   0  0  0  0  0  0  0  0  0  0  0  0
   38.5300   30.9970   38.9880 C   0  0  0  0  0  0  0  0  0  0  0  0
   38.1290   29.6560   39.0320 C   0  0  0  0  0  0  0  0  0  0  0  0
   38.0110   28.7910   37.9740 C   0  0  0  0  0  0  0  0  0  0  0  0
   38.3280   29.3320   36.7630 N   0  0  0  0  0  0  0  0  0  0  0  0
   38.7170   30.6250   36.6890 C   0  0  0  0  0  0  0  0  0  0  0  0
   38.8170   31.4310   37.7540 N   0  0  0  0  0  0  0  0  0  0  0  0
   40.2165   34.8337   42.3009 H   0  0  0  0  0  0  0  0  0  0  0  0
   41.7637   35.6908   42.1300 H   0  0  0  0  0  0  0  0  0  0  0  0
   39.5376   36.8769   41.2916 H   0  0  0  0  0  0  0  0  0  0  0  0
   40.9999   36.9460   40.2410 H   0  0  0  0  0  0  0  0  0  0  0  0
   38.6490   34.3657   40.9858 H   0  0  0  0  0  0  0  0  0  0  0  0
   38.4594   33.9765   39.2409 H   0  0  0  0  0  0  0  0  0  0  0  0
   40.8076   33.1602   39.1073 H   0  0  0  0  0  0  0  0  0  0  0  0
   43.4611   34.3949   42.4649 H   0  0  0  0  0  0  0  0  0  0  0  0
   44.7862   32.8465   38.0226 H   0  0  0  0  0  0  0  0  0  0  0  0
   46.1178   32.8154   42.3858 H   0  0  0  0  0  0  0  0  0  0  0  0
   48.1013   34.9518   42.4744 H   0  0  0  0  0  0  0  0  0  0  0  0
   47.3459   35.8220   41.4414 H   0  0  0  0  0  0  0  0  0  0  0  0
   45.1261   35.6793   43.2021 H   0  0  0  0  0  0  0  0  0  0  0  0
   45.9867   35.0291   44.3362 H   0  0  0  0  0  0  0  0  0  0  0  0
   41.3956   30.5533   40.8781 H   0  0  0  0  0  0  0  0  0  0  0  0
   40.3267   30.4029   39.4423 H   0  0  0  0  0  0  0  0  0  0  0  0
   41.6680   31.5977   39.4423 H   0  0  0  0  0  0  0  0  0  0  0  0
   39.2522   32.5235   42.6275 H   0  0  0  0  0  0  0  0  0  0  0  0
   40.2095   31.0141   42.4486 H   0  0  0  0  0  0  0  0  0  0  0  0
   41.0376   32.6081   42.4486 H   0  0  0  0  0  0  0  0  0  0  0  0
   38.2056   31.0541   41.0994 H   0  0  0  0  0  0  0  0  0  0  0  0
   37.9480   32.6224   40.2346 H   0  0  0  0  0  0  0  0  0  0  0  0
   37.8813   29.2517   40.0246 H   0  0  0  0  0  0  0  0  0  0  0  0
   37.6872   27.7465   38.0927 H   0  0  0  0  0  0  0  0  0  0  0  0
   38.9649   31.0375   35.6998 H   0  0  0  0  0  0  0  0  0  0  0  0
  1  2  1  0
  3  2  1  0
  4  5  1  0
  4  3  1  0
  5  6  1  0
  6 16  1  0
  6  1  1  0
  7  8  2  0
  7 13  1  0
  9  1  1  0
  9  8  1  0
 10  9  2  0
 11 10  1  0
 11 12  2  0
 12  7  1  0
 13 15  1  0
 14 13  1  0
 14 15  1  0
 16 18  1  0
 17 16  1  0
 19 16  1  0
 20 21  2  0
 20 19  1  0
 22 21  1  0
 23 22  2  0
 24 23  1  0
 24 25  2  0
 25 20  1  0
  2 26  1  0
  2 27  1  0
  3 28  1  0
  3 29  1  0
  5 30  1  0
  5 31  1  0
  6 32  1  6
  8 33  1  0
 11 34  1  0
 13 35  1  0
 14 36  1  0
 14 37  1  0
 15 38  1  0
 15 39  1  0
 17 40  1  0
 17 41  1  0
 17 42  1  0
 18 43  1  0
 18 44  1  0
 18 45  1  0
 19 46  1  0
 19 47  1  0
 21 48  1  0
 22 49  1  0
 24 50  1  0
M  ISO  8  26  13  27  13  28  13  29  13  30  13  31  13  32  13  33  14
M  ISO  8  34  14  35  13  36  13  37  13  38  13  39  13  40   8  41   8
M  ISO  8  42   8  43   8  44   8  45   8  46   8  47   8  48  14  49  14
M  ISO  1  50  14
M  END
>  <minimizedAffinity>  (1) 
-5.030056

>  <minimizedRMSD>  (1) 
2.02526402

$$$$
