
     RDKit          3D

 53 57  0  0  1  0  0  0  0  0999 V2000
   41.4340   33.7110   40.6230 N   0  0  0  0  0  0  0  0  0  0  0  0
   40.2680   34.3650   41.1180 C   0  0  0  0  0  0  0  0  0  0  0  0
   40.2990   35.7990   40.5700 C   0  0  0  0  0  0  0  0  0  0  0  0
   40.7920   35.8070   39.2960 O   0  0  0  0  0  0  0  0  0  0  0  0
   40.5950   34.5910   38.6120 C   0  0  0  0  0  0  0  0  0  0  0  0
   41.4610   33.5090   39.2210 C   0  0  2  0  0  0  0  0  0  0  0  0
   44.5220   33.7100   42.7570 C   0  0  0  0  0  0  0  0  0  0  0  0
   43.4590   34.1830   41.9650 C   0  0  0  0  0  0  0  0  0  0  0  0
   42.5350   33.2680   41.4270 C   0  0  0  0  0  0  0  0  0  0  0  0
   42.7260   31.9790   41.7030 N   0  0  0  0  0  0  0  0  0  0  0  0
   43.7650   31.5530   42.4720 C   0  0  0  0  0  0  0  0  0  0  0  0
   44.6520   32.4230   42.9910 N   0  0  0  0  0  0  0  0  0  0  0  0
   45.4640   34.7210   43.2960 C   0  0  0  0  0  0  0  0  0  0  0  0
   46.6120   35.1990   42.3940 C   0  0  0  0  0  0  0  0  0  0  0  0
   45.4970   36.0850   42.8250 C   0  0  0  0  0  0  0  0  0  0  0  0
   41.0330   32.1890   38.6800 C   0  0  0  0  0  0  0  0  0  0  0  0
   42.0520   31.8240   37.5980 C   0  0  0  0  0  0  0  0  0  0  0  0
   41.0820   31.0750   39.6620 C   0  0  0  0  0  0  0  0  0  0  0  0
   39.7000   32.1880   38.0170 C   0  0  0  0  0  0  0  0  0  0  0  0
   38.9200   30.9880   38.2520 N   0  0  0  0  0  0  0  0  0  0  0  0
   38.1070   30.6270   39.2580 C   0  0  0  0  0  0  0  0  0  0  0  0
   37.5690   29.4010   39.0210 N   0  0  0  0  0  0  0  0  0  0  0  0
   38.0400   28.9510   37.8350 C   0  0  0  0  0  0  0  0  0  0  0  0
   37.7370   27.7540   37.2340 C   0  0  0  0  0  0  0  0  0  0  0  0
   38.3380   27.5340   36.0390 N   0  0  0  0  0  0  0  0  0  0  0  0
   39.1710   28.4790   35.5330 C   0  0  0  0  0  0  0  0  0  0  0  0
   39.4220   29.6270   36.1750 N   0  0  0  0  0  0  0  0  0  0  0  0
   38.8650   29.9380   37.3820 C   0  0  0  0  0  0  0  0  0  0  0  0
   39.3643   33.8449   40.7676 H   0  0  0  0  0  0  0  0  0  0  0  0
   40.2502   34.3625   42.2179 H   0  0  0  0  0  0  0  0  0  0  0  0
   39.2782   36.2089   40.5671 H   0  0  0  0  0  0  0  0  0  0  0  0
   40.9490   36.4137   41.2101 H   0  0  0  0  0  0  0  0  0  0  0  0
   40.8644   34.7206   37.5534 H   0  0  0  0  0  0  0  0  0  0  0  0
   39.5382   34.2971   38.6944 H   0  0  0  0  0  0  0  0  0  0  0  0
   42.5263   33.5441   38.9493 H   0  0  0  0  0  0  0  0  0  0  0  0
   43.3513   35.2598   41.7680 H   0  0  0  0  0  0  0  0  0  0  0  0
   43.8823   30.4780   42.6733 H   0  0  0  0  0  0  0  0  0  0  0  0
   45.3584   34.2717   44.2945 H   0  0  0  0  0  0  0  0  0  0  0  0
   46.6818   34.8569   41.3509 H   0  0  0  0  0  0  0  0  0  0  0  0
   47.7104   35.2195   42.4488 H   0  0  0  0  0  0  0  0  0  0  0  0
   45.6971   36.8987   43.5376 H   0  0  0  0  0  0  0  0  0  0  0  0
   44.7786   36.7182   42.2837 H   0  0  0  0  0  0  0  0  0  0  0  0
   42.9864   31.4893   38.0722 H   0  0  0  0  0  0  0  0  0  0  0  0
   41.6481   31.0146   36.9720 H   0  0  0  0  0  0  0  0  0  0  0  0
   42.2539   32.7057   36.9720 H   0  0  0  0  0  0  0  0  0  0  0  0
   41.0640   31.4849   40.6826 H   0  0  0  0  0  0  0  0  0  0  0  0
   40.2119   30.4182   39.5152 H   0  0  0  0  0  0  0  0  0  0  0  0
   42.0064   30.4972   39.5152 H   0  0  0  0  0  0  0  0  0  0  0  0
   39.8539   32.2926   36.9329 H   0  0  0  0  0  0  0  0  0  0  0  0
   39.1313   33.0244   38.4494 H   0  0  0  0  0  0  0  0  0  0  0  0
   37.9044   31.2382   40.1498 H   0  0  0  0  0  0  0  0  0  0  0  0
   37.0533   27.0235   37.6911 H   0  0  0  0  0  0  0  0  0  0  0  0
   39.6561   28.2955   34.5630 H   0  0  0  0  0  0  0  0  0  0  0  0
  1  2  1  0
  1  9  1  0
  3  2  1  0
  4  3  1  0
  5  6  1  0
  5  4  1  0
  6  1  1  0
  7 12  1  0
  7 13  1  0
  8  7  2  0
  9 10  2  0
  9  8  1  0
 10 11  1  0
 11 12  2  0
 14 15  1  0
 14 13  1  0
 15 13  1  0
 16  6  1  0
 16 18  1  0
 17 16  1  0
 19 20  1  0
 19 16  1  0
 20 21  1  0
 22 21  2  0
 23 22  1  0
 24 23  2  0
 25 24  1  0
 26 25  2  0
 26 27  1  0
 27 28  2  0
 28 23  1  0
 28 20  1  0
  2 29  1  0
  2 30  1  0
  3 31  1  0
  3 32  1  0
  5 33  1  0
  5 34  1  0
  6 35  1  6
  8 36  1  0
 11 37  1  0
 13 38  1  0
 14 39  1  0
 14 40  1  0
 15 41  1  0
 15 42  1  0
 17 43  1  0
 17 44  1  0
 17 45  1  0
 18 46  1  0
 18 47  1  0
 18 48  1  0
 19 49  1  0
 19 50  1  0
 21 51  1  0
 24 52  1  0
 26 53  1  0
M  ISO  8  29  13  30  13  31  13  32  13  33  13  34  13  35  13  36  14
M  ISO  8  37  14  38  13  39  13  40  13  41  13  42  13  43   8  44   8
M  ISO  8  45   8  46   8  47   8  48   8  49   8  50   8  51  14  52  14
M  ISO  1  53  14
M  END
>  <minimizedAffinity>  (1) 
-5.01352882

>  <minimizedRMSD>  (1) 
1.544384

$$$$
