
     RDKit          3D

 49 52  0  0  1  0  0  0  0  0999 V2000
   41.3420   34.0500   40.7860 N   0  0  0  0  0  0  0  0  0  0  0  0
   40.4000   34.8940   41.4880 C   0  0  0  0  0  0  0  0  0  0  0  0
   40.3880   36.2430   40.7700 C   0  0  0  0  0  0  0  0  0  0  0  0
   40.5110   36.0600   39.4050 O   0  0  0  0  0  0  0  0  0  0  0  0
   40.0250   34.8120   38.9900 C   0  0  0  0  0  0  0  0  0  0  0  0
   40.9580   33.7140   39.4650 C   0  0  2  0  0  0  0  0  0  0  0  0
   44.8810   33.9300   41.9820 C   0  0  0  0  0  0  0  0  0  0  0  0
   43.6890   34.4200   41.4230 C   0  0  0  0  0  0  0  0  0  0  0  0
   42.5620   33.5780   41.3410 C   0  0  0  0  0  0  0  0  0  0  0  0
   42.6930   32.3390   41.8070 N   0  0  0  0  0  0  0  0  0  0  0  0
   43.8590   31.8960   42.3410 C   0  0  0  0  0  0  0  0  0  0  0  0
   44.9420   32.6940   42.4240 N   0  0  0  0  0  0  0  0  0  0  0  0
   46.0330   34.8600   42.0410 C   0  0  0  0  0  0  0  0  0  0  0  0
   47.2320   34.4730   42.9260 C   0  0  0  0  0  0  0  0  0  0  0  0
   47.3080   34.5630   41.4340 C   0  0  0  0  0  0  0  0  0  0  0  0
   40.3180   32.4100   39.2330 C   0  0  0  0  0  0  0  0  0  0  0  0
   41.3710   31.4970   38.6070 C   0  0  0  0  0  0  0  0  0  0  0  0
   39.8390   31.7030   40.4650 C   0  0  0  0  0  0  0  0  0  0  0  0
   39.1720   32.4340   38.2650 C   0  0  0  0  0  0  0  0  0  0  0  0
   38.7050   31.0180   38.0160 C   0  0  0  0  0  0  0  0  0  0  0  0
   38.8270   30.5270   36.7220 C   0  0  0  0  0  0  0  0  0  0  0  0
   38.3550   29.2310   36.6870 C   0  0  0  0  0  0  0  0  0  0  0  0
   37.9670   28.9960   37.9610 N   0  0  0  0  0  0  0  0  0  0  0  0
   38.1670   30.0380   38.7620 N   0  0  0  0  0  0  0  0  0  0  0  0
   39.3969   34.4434   41.4623 H   0  0  0  0  0  0  0  0  0  0  0  0
   40.6894   35.0130   42.5425 H   0  0  0  0  0  0  0  0  0  0  0  0
   39.4404   36.7594   40.9832 H   0  0  0  0  0  0  0  0  0  0  0  0
   41.2346   36.8471   41.1283 H   0  0  0  0  0  0  0  0  0  0  0  0
   39.0237   34.6500   39.4156 H   0  0  0  0  0  0  0  0  0  0  0  0
   39.9684   34.7909   37.8917 H   0  0  0  0  0  0  0  0  0  0  0  0
   41.9009   33.6238   38.9057 H   0  0  0  0  0  0  0  0  0  0  0  0
   43.6357   35.4541   41.0518 H   0  0  0  0  0  0  0  0  0  0  0  0
   43.9218   30.8632   42.7143 H   0  0  0  0  0  0  0  0  0  0  0  0
   45.3400   35.7096   41.9515 H   0  0  0  0  0  0  0  0  0  0  0  0
   47.7267   35.2259   43.5572 H   0  0  0  0  0  0  0  0  0  0  0  0
   47.4450   33.7106   43.6899 H   0  0  0  0  0  0  0  0  0  0  0  0
   47.4242   33.6434   40.8417 H   0  0  0  0  0  0  0  0  0  0  0  0
   47.9632   35.1087   40.7390 H   0  0  0  0  0  0  0  0  0  0  0  0
   41.9448   30.9995   39.4028 H   0  0  0  0  0  0  0  0  0  0  0  0
   40.8748   30.7385   37.9837 H   0  0  0  0  0  0  0  0  0  0  0  0
   42.0516   32.0957   37.9837 H   0  0  0  0  0  0  0  0  0  0  0  0
   40.1999   32.2357   41.3572 H   0  0  0  0  0  0  0  0  0  0  0  0
   38.7392   31.6810   40.4709 H   0  0  0  0  0  0  0  0  0  0  0  0
   40.2264   30.6735   40.4709 H   0  0  0  0  0  0  0  0  0  0  0  0
   38.3460   33.0255   38.6867 H   0  0  0  0  0  0  0  0  0  0  0  0
   39.4966   32.8891   37.3176 H   0  0  0  0  0  0  0  0  0  0  0  0
   39.2342   31.0819   35.8639 H   0  0  0  0  0  0  0  0  0  0  0  0
   38.3058   28.5491   35.8253 H   0  0  0  0  0  0  0  0  0  0  0  0
   37.5597   28.1043   38.2772 H   0  0  0  0  0  0  0  0  0  0  0  0
  1  9  1  0
  1  2  1  0
  3  2  1  0
  4  3  1  0
  5  4  1  0
  5  6  1  0
  6  1  1  0
  7 13  1  0
  7 12  1  0
  8  7  2  0
  9  8  1  0
  9 10  2  0
 10 11  1  0
 11 12  2  0
 13 14  1  0
 15 13  1  0
 15 14  1  0
 16  6  1  0
 16 18  1  0
 17 16  1  0
 19 16  1  0
 20 19  1  0
 20 24  2  0
 21 20  1  0
 22 21  2  0
 22 23  1  0
 23 24  1  0
  2 25  1  0
  2 26  1  0
  3 27  1  0
  3 28  1  0
  5 29  1  0
  5 30  1  0
  6 31  1  6
  8 32  1  0
 11 33  1  0
 13 34  1  0
 14 35  1  0
 14 36  1  0
 15 37  1  0
 15 38  1  0
 17 39  1  0
 17 40  1  0
 17 41  1  0
 18 42  1  0
 18 43  1  0
 18 44  1  0
 19 45  1  0
 19 46  1  0
 21 47  1  0
 22 48  1  0
 23 49  1  0
M  ISO  8  25  13  26  13  27  13  28  13  29  13  30  13  31  13  32  14
M  ISO  8  33  14  34  13  35  13  36  13  37  13  38  13  39   8  40   8
M  ISO  8  41   8  42   8  43   8  44   8  45   8  46   8  47  14  48  14
M  ISO  1  49   9
M  END
>  <minimizedAffinity>  (1) 
-4.97073174

>  <minimizedRMSD>  (1) 
1.26012039

$$$$
