
     RDKit          3D

 49 52  0  0  1  0  0  0  0  0999 V2000
   46.0190   33.0840   39.9830 N   0  0  0  0  0  0  0  0  0  0  0  0
   46.7470   32.0080   39.3680 C   0  0  0  0  0  0  0  0  0  0  0  0
   47.2270   32.5180   38.0010 C   0  0  0  0  0  0  0  0  0  0  0  0
   47.6030   33.8290   38.0930 O   0  0  0  0  0  0  0  0  0  0  0  0
   48.0050   34.2070   39.3850 C   0  0  0  0  0  0  0  0  0  0  0  0
   46.8100   34.2060   40.3230 C   0  0  2  0  0  0  0  0  0  0  0  0
   42.3390   33.7100   39.6940 C   0  0  0  0  0  0  0  0  0  0  0  0
   43.7170   33.7420   39.4110 C   0  0  0  0  0  0  0  0  0  0  0  0
   44.6230   33.0770   40.2470 C   0  0  0  0  0  0  0  0  0  0  0  0
   44.1110   32.4340   41.2940 N   0  0  0  0  0  0  0  0  0  0  0  0
   42.7720   32.4180   41.5460 C   0  0  0  0  0  0  0  0  0  0  0  0
   41.9000   33.0590   40.7390 N   0  0  0  0  0  0  0  0  0  0  0  0
   41.4440   34.4370   38.7600 C   0  0  0  0  0  0  0  0  0  0  0  0
   40.8300   35.7690   39.2220 C   0  0  0  0  0  0  0  0  0  0  0  0
   41.8140   35.6680   38.1080 C   0  0  0  0  0  0  0  0  0  0  0  0
   47.2960   34.3590   41.7170 C   0  0  0  0  0  0  0  0  0  0  0  0
   48.3730   35.4220   41.6940 C   0  0  0  0  0  0  0  0  0  0  0  0
   46.2450   34.8540   42.6730 C   0  0  0  0  0  0  0  0  0  0  0  0
   47.9000   33.1330   42.3080 C   0  0  0  0  0  0  0  0  0  0  0  0
   47.1890   32.6440   43.5440 C   0  0  0  0  0  0  0  0  0  0  0  0
   47.2030   33.3170   44.6960 C   0  0  0  0  0  0  0  0  0  0  0  0
   46.5650   32.8920   45.8180 C   0  0  0  0  0  0  0  0  0  0  0  0
   45.8640   31.6010   45.5860 C   0  0  0  0  0  0  0  0  0  0  0  0
   46.2460   31.2200   43.7870 S   0  0  0  0  0  0  0  0  0  0  0  0
   47.6091   31.7295   39.9918 H   0  0  0  0  0  0  0  0  0  0  0  0
   46.1119   31.1170   39.2550 H   0  0  0  0  0  0  0  0  0  0  0  0
   46.4098   32.4245   37.2707 H   0  0  0  0  0  0  0  0  0  0  0  0
   48.0902   31.9184   37.6765 H   0  0  0  0  0  0  0  0  0  0  0  0
   48.7585   33.4959   39.7545 H   0  0  0  0  0  0  0  0  0  0  0  0
   48.4335   35.2194   39.3477 H   0  0  0  0  0  0  0  0  0  0  0  0
   46.1234   35.0595   40.2223 H   0  0  0  0  0  0  0  0  0  0  0  0
   44.0837   34.2907   38.5309 H   0  0  0  0  0  0  0  0  0  0  0  0
   42.3945   31.8725   42.4235 H   0  0  0  0  0  0  0  0  0  0  0  0
   41.0816   33.4688   38.3842 H   0  0  0  0  0  0  0  0  0  0  0  0
   39.7743   35.9988   39.0156 H   0  0  0  0  0  0  0  0  0  0  0  0
   40.7534   36.3243   40.1684 H   0  0  0  0  0  0  0  0  0  0  0  0
   42.8292   36.0687   38.2452 H   0  0  0  0  0  0  0  0  0  0  0  0
   41.8095   36.0019   37.0599 H   0  0  0  0  0  0  0  0  0  0  0  0
   48.6451   35.6906   42.7254 H   0  0  0  0  0  0  0  0  0  0  0  0
   49.2592   35.0348   41.1699 H   0  0  0  0  0  0  0  0  0  0  0  0
   47.9974   36.3132   41.1699 H   0  0  0  0  0  0  0  0  0  0  0  0
   46.5850   34.6938   43.7068 H   0  0  0  0  0  0  0  0  0  0  0  0
   46.0735   35.9276   42.5056 H   0  0  0  0  0  0  0  0  0  0  0  0
   45.3081   34.3025   42.5056 H   0  0  0  0  0  0  0  0  0  0  0  0
   47.8734   32.3338   41.5527 H   0  0  0  0  0  0  0  0  0  0  0  0
   48.9261   33.3921   42.6081 H   0  0  0  0  0  0  0  0  0  0  0  0
   47.7597   34.2647   44.7398 H   0  0  0  0  0  0  0  0  0  0  0  0
   46.5668   33.4336   46.7754 H   0  0  0  0  0  0  0  0  0  0  0  0
   45.2661   31.0115   46.2966 H   0  0  0  0  0  0  0  0  0  0  0  0
  1  9  1  0
  1  6  1  0
  2  1  1  0
  3  4  1  0
  3  2  1  0
  4  5  1  0
  5  6  1  0
  6 16  1  0
  7 12  1  0
  8  7  2  0
  8  9  1  0
  9 10  2  0
 10 11  1  0
 12 11  2  0
 13 14  1  0
 13  7  1  0
 15 13  1  0
 15 14  1  0
 16 19  1  0
 16 18  1  0
 17 16  1  0
 19 20  1  0
 20 24  1  0
 20 21  2  0
 21 22  1  0
 23 22  2  0
 24 23  1  0
  2 25  1  0
  2 26  1  0
  3 27  1  0
  3 28  1  0
  5 29  1  0
  5 30  1  0
  6 31  1  6
  8 32  1  0
 11 33  1  0
 13 34  1  0
 14 35  1  0
 14 36  1  0
 15 37  1  0
 15 38  1  0
 17 39  1  0
 17 40  1  0
 17 41  1  0
 18 42  1  0
 18 43  1  0
 18 44  1  0
 19 45  1  0
 19 46  1  0
 21 47  1  0
 22 48  1  0
 23 49  1  0
M  ISO  8  25  13  26  13  27  13  28  13  29  13  30  13  31  13  32  14
M  ISO  8  33  14  34  13  35  13  36  13  37  13  38  13  39   8  40   8
M  ISO  8  41   8  42   8  43   8  44   8  45   8  46   8  47  14  48  14
M  ISO  1  49  14
M  END
>  <minimizedAffinity>  (1) 
-4.91502428

>  <minimizedRMSD>  (1) 
7.90744638

$$$$
