
     RDKit          3D

 55 59  0  0  1  0  0  0  0  0999 V2000
   41.3810   33.8160   40.8540 N   0  0  0  0  0  0  0  0  0  0  0  0
   40.3700   34.6700   41.4130 C   0  0  0  0  0  0  0  0  0  0  0  0
   40.4470   36.0050   40.6760 C   0  0  0  0  0  0  0  0  0  0  0  0
   40.7310   35.7990   39.3470 O   0  0  0  0  0  0  0  0  0  0  0  0
   40.3040   34.5400   38.8850 C   0  0  0  0  0  0  0  0  0  0  0  0
   41.1530   33.4480   39.5070 C   0  0  2  0  0  0  0  0  0  0  0  0
   44.5950   33.7700   42.7600 C   0  0  0  0  0  0  0  0  0  0  0  0
   43.4710   34.2670   42.0750 C   0  0  0  0  0  0  0  0  0  0  0  0
   42.5310   33.3550   41.5480 C   0  0  0  0  0  0  0  0  0  0  0  0
   42.7740   32.0630   41.7370 N   0  0  0  0  0  0  0  0  0  0  0  0
   43.8670   31.6120   42.4020 C   0  0  0  0  0  0  0  0  0  0  0  0
   44.7670   32.4780   42.9080 N   0  0  0  0  0  0  0  0  0  0  0  0
   45.5550   34.7730   43.2930 C   0  0  0  0  0  0  0  0  0  0  0  0
   46.6880   35.2570   42.3810 C   0  0  0  0  0  0  0  0  0  0  0  0
   45.5850   36.1430   42.8320 C   0  0  0  0  0  0  0  0  0  0  0  0
   40.5270   32.1300   39.2140 C   0  0  0  0  0  0  0  0  0  0  0  0
   41.5570   31.3280   38.4250 C   0  0  0  0  0  0  0  0  0  0  0  0
   40.2370   31.3090   40.4250 C   0  0  0  0  0  0  0  0  0  0  0  0
   39.2990   32.1930   38.3760 C   0  0  0  0  0  0  0  0  0  0  0  0
   38.9400   30.9070   37.8170 N   0  0  0  0  0  0  0  0  0  0  0  0
   39.2840   30.2940   36.6890 C   0  0  0  0  0  0  0  0  0  0  0  0
   38.7270   29.0700   36.5770 N   0  0  0  0  0  0  0  0  0  0  0  0
   37.9670   28.8490   37.6910 C   0  0  0  0  0  0  0  0  0  0  0  0
   37.2290   27.7460   38.0030 C   0  0  0  0  0  0  0  0  0  0  0  0
   36.5820   27.8040   39.1770 N   0  0  0  0  0  0  0  0  0  0  0  0
   36.6860   28.8970   39.9570 C   0  0  0  0  0  0  0  0  0  0  0  0
   37.4260   29.9490   39.5940 N   0  0  0  0  0  0  0  0  0  0  0  0
   38.1190   30.0080   38.4430 C   0  0  0  0  0  0  0  0  0  0  0  0
   37.1530   26.6260   37.1550 N   0  0  0  0  0  0  0  0  0  0  0  0
   39.3765   34.2192   41.2729 H   0  0  0  0  0  0  0  0  0  0  0  0
   40.5310   34.8104   42.4921 H   0  0  0  0  0  0  0  0  0  0  0  0
   39.4817   36.5250   40.7647 H   0  0  0  0  0  0  0  0  0  0  0  0
   41.2455   36.6155   41.1227 H   0  0  0  0  0  0  0  0  0  0  0  0
   39.2510   34.3869   39.1637 H   0  0  0  0  0  0  0  0  0  0  0  0
   40.4079   34.5010   37.7906 H   0  0  0  0  0  0  0  0  0  0  0  0
   42.1611   33.3317   39.0824 H   0  0  0  0  0  0  0  0  0  0  0  0
   43.3267   35.3505   41.9519 H   0  0  0  0  0  0  0  0  0  0  0  0
   44.0199   30.5301   42.5293 H   0  0  0  0  0  0  0  0  0  0  0  0
   45.4656   34.3125   44.2879 H   0  0  0  0  0  0  0  0  0  0  0  0
   46.7424   34.9231   41.3343 H   0  0  0  0  0  0  0  0  0  0  0  0
   47.7871   35.2744   42.4216 H   0  0  0  0  0  0  0  0  0  0  0  0
   45.7977   36.9506   43.5480 H   0  0  0  0  0  0  0  0  0  0  0  0
   44.8617   36.7831   42.3057 H   0  0  0  0  0  0  0  0  0  0  0  0
   42.2279   30.8056   39.1229 H   0  0  0  0  0  0  0  0  0  0  0  0
   41.0412   30.5913   37.7916 H   0  0  0  0  0  0  0  0  0  0  0  0
   42.1448   32.0087   37.7916 H   0  0  0  0  0  0  0  0  0  0  0  0
   40.4462   31.9011   41.3281 H   0  0  0  0  0  0  0  0  0  0  0  0
   39.1786   31.0093   40.4200 H   0  0  0  0  0  0  0  0  0  0  0  0
   40.8724   30.4111   40.4200 H   0  0  0  0  0  0  0  0  0  0  0  0
   38.4658   32.5516   38.9983 H   0  0  0  0  0  0  0  0  0  0  0  0
   39.5024   32.8756   37.5377 H   0  0  0  0  0  0  0  0  0  0  0  0
   39.9485   30.7351   35.9314 H   0  0  0  0  0  0  0  0  0  0  0  0
   36.1487   28.9245   40.9164 H   0  0  0  0  0  0  0  0  0  0  0  0
   36.5840   25.8117   37.4271 H   0  0  0  0  0  0  0  0  0  0  0  0
   37.6663   26.6203   36.2621 H   0  0  0  0  0  0  0  0  0  0  0  0
  1  2  1  0
  1  9  1  0
  3  2  1  0
  4  3  1  0
  5  4  1  0
  5  6  1  0
  6  1  1  0
  7 12  1  0
  7 13  1  0
  8  7  2  0
  9 10  2  0
  9  8  1  0
 10 11  1  0
 11 12  2  0
 14 15  1  0
 14 13  1  0
 15 13  1  0
 16  6  1  0
 16 18  1  0
 17 16  1  0
 19 16  1  0
 20 19  1  0
 20 28  1  0
 21 20  1  0
 22 21  2  0
 22 23  1  0
 23 24  2  0
 23 28  1  0
 24 25  1  0
 25 26  2  0
 27 26  1  0
 28 27  2  0
 29 24  1  0
  2 30  1  0
  2 31  1  0
  3 32  1  0
  3 33  1  0
  5 34  1  0
  5 35  1  0
  6 36  1  6
  8 37  1  0
 11 38  1  0
 13 39  1  0
 14 40  1  0
 14 41  1  0
 15 42  1  0
 15 43  1  0
 17 44  1  0
 17 45  1  0
 17 46  1  0
 18 47  1  0
 18 48  1  0
 18 49  1  0
 19 50  1  0
 19 51  1  0
 21 52  1  0
 26 53  1  0
 29 54  1  0
 29 55  1  0
M  ISO  8  30  13  31  13  32  13  33  13  34  13  35  13  36  13  37  14
M  ISO  8  38  14  39  13  40  13  41  13  42  13  43  13  44   8  45   8
M  ISO  8  46   8  47   8  48   8  49   8  50   8  51   8  52  14  53  14
M  END
>  <minimizedAffinity>  (1) 
-5.04943085

>  <minimizedRMSD>  (1) 
1.34278774

$$$$
