
     RDKit          3D

 48 51  0  0  1  0  0  0  0  0999 V2000
   41.2690   33.8440   40.7810 N   0  0  0  0  0  0  0  0  0  0  0  0
   40.3380   34.8000   41.3090 C   0  0  0  0  0  0  0  0  0  0  0  0
   40.4890   36.0840   40.4800 C   0  0  0  0  0  0  0  0  0  0  0  0
   40.7110   35.7710   39.1670 O   0  0  0  0  0  0  0  0  0  0  0  0
   40.1950   34.5180   38.7930 C   0  0  0  0  0  0  0  0  0  0  0  0
   40.9770   33.4070   39.4660 C   0  0  2  0  0  0  0  0  0  0  0  0
   44.4760   33.6860   42.7070 C   0  0  0  0  0  0  0  0  0  0  0  0
   43.3620   34.2170   42.0190 C   0  0  0  0  0  0  0  0  0  0  0  0
   42.4020   33.3450   41.4740 C   0  0  0  0  0  0  0  0  0  0  0  0
   42.6050   32.0450   41.6420 N   0  0  0  0  0  0  0  0  0  0  0  0
   43.6920   31.5610   42.3130 C   0  0  0  0  0  0  0  0  0  0  0  0
   44.6070   32.3940   42.8320 N   0  0  0  0  0  0  0  0  0  0  0  0
   45.4530   34.6620   43.2570 C   0  0  0  0  0  0  0  0  0  0  0  0
   46.5890   35.1480   42.3410 C   0  0  0  0  0  0  0  0  0  0  0  0
   45.5110   36.0380   42.8260 C   0  0  0  0  0  0  0  0  0  0  0  0
   40.2640   32.1280   39.2660 C   0  0  0  0  0  0  0  0  0  0  0  0
   41.2620   31.1300   38.7280 C   0  0  0  0  0  0  0  0  0  0  0  0
   39.7190   31.5260   40.5410 C   0  0  0  0  0  0  0  0  0  0  0  0
   39.1360   32.1800   38.2800 C   0  0  0  0  0  0  0  0  0  0  0  0
   38.6630   30.8060   37.8770 C   0  0  0  0  0  0  0  0  0  0  0  0
   38.7860   30.4460   36.4250 C   0  0  0  0  0  0  0  0  0  0  0  0
   38.1480   28.8000   36.3430 S   0  0  0  0  0  0  0  0  0  0  0  0
   37.7920   28.7650   38.2100 C   0  0  0  0  0  0  0  0  0  0  0  0
   38.1430   29.8120   38.5650 N   0  0  0  0  0  0  0  0  0  0  0  0
   39.3115   34.4141   41.2230 H   0  0  0  0  0  0  0  0  0  0  0  0
   40.5388   34.9953   42.3727 H   0  0  0  0  0  0  0  0  0  0  0  0
   39.5683   36.6803   40.5615 H   0  0  0  0  0  0  0  0  0  0  0  0
   41.3434   36.6617   40.8624 H   0  0  0  0  0  0  0  0  0  0  0  0
   39.1396   34.4546   39.0963 H   0  0  0  0  0  0  0  0  0  0  0  0
   40.2798   34.4063   37.7020 H   0  0  0  0  0  0  0  0  0  0  0  0
   41.9633   33.1879   39.0309 H   0  0  0  0  0  0  0  0  0  0  0  0
   43.2461   35.3055   41.9102 H   0  0  0  0  0  0  0  0  0  0  0  0
   43.8188   30.4745   42.4293 H   0  0  0  0  0  0  0  0  0  0  0  0
   45.3582   34.1839   44.2431 H   0  0  0  0  0  0  0  0  0  0  0  0
   46.6254   34.8396   41.2857 H   0  0  0  0  0  0  0  0  0  0  0  0
   47.6886   35.1440   42.3686 H   0  0  0  0  0  0  0  0  0  0  0  0
   45.7480   36.8238   43.5584 H   0  0  0  0  0  0  0  0  0  0  0  0
   44.7952   36.7038   42.3217 H   0  0  0  0  0  0  0  0  0  0  0  0
   41.7655   30.6265   39.5665 H   0  0  0  0  0  0  0  0  0  0  0  0
   40.7386   30.3832   38.1129 H   0  0  0  0  0  0  0  0  0  0  0  0
   42.0088   31.6534   38.1129 H   0  0  0  0  0  0  0  0  0  0  0  0
   40.1739   32.0285   41.4074 H   0  0  0  0  0  0  0  0  0  0  0  0
   38.6274   31.6585   40.5717 H   0  0  0  0  0  0  0  0  0  0  0  0
   39.9591   30.4530   40.5717 H   0  0  0  0  0  0  0  0  0  0  0  0
   38.2948   32.7246   38.7336 H   0  0  0  0  0  0  0  0  0  0  0  0
   39.5031   32.6877   37.3758 H   0  0  0  0  0  0  0  0  0  0  0  0
   39.1809   31.0625   35.6040 H   0  0  0  0  0  0  0  0  0  0  0  0
   37.3585   27.9500   38.8082 H   0  0  0  0  0  0  0  0  0  0  0  0
  1  2  1  0
  1  9  1  0
  3  2  1  0
  4  3  1  0
  5  4  1  0
  5  6  1  0
  6  1  1  0
  7 12  1  0
  7 13  1  0
  8  7  2  0
  9 10  2  0
  9  8  1  0
 10 11  1  0
 11 12  2  0
 14 15  1  0
 14 13  1  0
 15 13  1  0
 16  6  1  0
 16 18  1  0
 17 16  1  0
 19 16  1  0
 20 19  1  0
 20 24  1  0
 21 20  2  0
 22 21  1  0
 22 23  1  0
 23 24  2  0
  2 25  1  0
  2 26  1  0
  3 27  1  0
  3 28  1  0
  5 29  1  0
  5 30  1  0
  6 31  1  6
  8 32  1  0
 11 33  1  0
 13 34  1  0
 14 35  1  0
 14 36  1  0
 15 37  1  0
 15 38  1  0
 17 39  1  0
 17 40  1  0
 17 41  1  0
 18 42  1  0
 18 43  1  0
 18 44  1  0
 19 45  1  0
 19 46  1  0
 21 47  1  0
 23 48  1  0
M  ISO  8  25  13  26  13  27  13  28  13  29  13  30  13  31  13  32  14
M  ISO  8  33  14  34  13  35  13  36  13  37  13  38  13  39   8  40   8
M  ISO  8  41   8  42   8  43   8  44   8  45   8  46   8  47  14  48  14
M  END
>  <minimizedAffinity>  (1) 
-4.67569351

>  <minimizedRMSD>  (1) 
1.41216743

$$$$
