
     RDKit          3D

 48 51  0  0  1  0  0  0  0  0999 V2000
   41.2860   33.9100   40.7840 N   0  0  0  0  0  0  0  0  0  0  0  0
   40.2960   34.7690   41.3550 C   0  0  0  0  0  0  0  0  0  0  0  0
   40.4370   36.1350   40.6730 C   0  0  0  0  0  0  0  0  0  0  0  0
   40.7430   35.9700   39.3410 O   0  0  0  0  0  0  0  0  0  0  0  0
   40.2790   34.7460   38.8260 C   0  0  0  0  0  0  0  0  0  0  0  0
   41.0820   33.6010   39.4190 C   0  0  2  0  0  0  0  0  0  0  0  0
   44.5150   33.6610   42.6740 C   0  0  0  0  0  0  0  0  0  0  0  0
   43.4220   34.2160   41.9890 C   0  0  0  0  0  0  0  0  0  0  0  0
   42.4150   33.3770   41.4790 C   0  0  0  0  0  0  0  0  0  0  0  0
   42.5600   32.0700   41.6800 N   0  0  0  0  0  0  0  0  0  0  0  0
   43.6290   31.5600   42.3470 C   0  0  0  0  0  0  0  0  0  0  0  0
   44.5950   32.3580   42.8380 N   0  0  0  0  0  0  0  0  0  0  0  0
   45.5420   34.6020   43.1850 C   0  0  0  0  0  0  0  0  0  0  0  0
   46.6570   35.0530   42.2290 C   0  0  0  0  0  0  0  0  0  0  0  0
   45.6160   35.9800   42.7620 C   0  0  0  0  0  0  0  0  0  0  0  0
   40.4390   32.3180   39.0510 C   0  0  0  0  0  0  0  0  0  0  0  0
   41.4950   31.4270   38.4500 C   0  0  0  0  0  0  0  0  0  0  0  0
   39.8640   31.5690   40.2310 C   0  0  0  0  0  0  0  0  0  0  0  0
   39.3410   32.4420   38.0300 C   0  0  0  0  0  0  0  0  0  0  0  0
   38.8420   31.0760   37.7810 N   0  0  0  0  0  0  0  0  0  0  0  0
   38.8370   30.5570   36.5160 C   0  0  0  0  0  0  0  0  0  0  0  0
   38.3490   29.3140   36.4750 N   0  0  0  0  0  0  0  0  0  0  0  0
   38.0300   29.0280   37.7630 C   0  0  0  0  0  0  0  0  0  0  0  0
   38.3360   30.0920   38.5020 N   0  0  0  0  0  0  0  0  0  0  0  0
   39.2913   34.3591   41.1746 H   0  0  0  0  0  0  0  0  0  0  0  0
   40.4351   34.8581   42.4425 H   0  0  0  0  0  0  0  0  0  0  0  0
   39.4892   36.6860   40.7629 H   0  0  0  0  0  0  0  0  0  0  0  0
   41.2458   36.6989   41.1608 H   0  0  0  0  0  0  0  0  0  0  0  0
   39.2173   34.6199   39.0847 H   0  0  0  0  0  0  0  0  0  0  0  0
   40.3967   34.7441   37.7323 H   0  0  0  0  0  0  0  0  0  0  0  0
   42.0964   33.4693   39.0145 H   0  0  0  0  0  0  0  0  0  0  0  0
   43.3535   35.3052   41.8515 H   0  0  0  0  0  0  0  0  0  0  0  0
   43.7061   30.4719   42.4884 H   0  0  0  0  0  0  0  0  0  0  0  0
   45.4756   34.1209   44.1720 H   0  0  0  0  0  0  0  0  0  0  0  0
   46.6442   34.7472   41.1724 H   0  0  0  0  0  0  0  0  0  0  0  0
   47.7562   35.0150   42.2145 H   0  0  0  0  0  0  0  0  0  0  0  0
   45.9020   36.7546   43.4887 H   0  0  0  0  0  0  0  0  0  0  0  0
   44.8997   36.6689   42.2905 H   0  0  0  0  0  0  0  0  0  0  0  0
   42.0681   30.9434   39.2548 H   0  0  0  0  0  0  0  0  0  0  0  0
   41.0147   30.6571   37.8282 H   0  0  0  0  0  0  0  0  0  0  0  0
   42.1731   32.0300   37.8282 H   0  0  0  0  0  0  0  0  0  0  0  0
   40.2176   32.0296   41.1653 H   0  0  0  0  0  0  0  0  0  0  0  0
   38.7655   31.6130   40.1933 H   0  0  0  0  0  0  0  0  0  0  0  0
   40.1904   30.5192   40.1933 H   0  0  0  0  0  0  0  0  0  0  0  0
   38.5312   33.0771   38.4184 H   0  0  0  0  0  0  0  0  0  0  0  0
   39.7110   32.9047   37.1032 H   0  0  0  0  0  0  0  0  0  0  0  0
   39.1950   31.1024   35.6304 H   0  0  0  0  0  0  0  0  0  0  0  0
   37.5965   28.0861   38.1302 H   0  0  0  0  0  0  0  0  0  0  0  0
  1  2  1  0
  1  9  1  0
  3  2  1  0
  4  3  1  0
  5  4  1  0
  5  6  1  0
  6  1  1  0
  7 12  1  0
  7 13  1  0
  8  7  2  0
  9 10  2  0
  9  8  1  0
 10 11  1  0
 11 12  2  0
 14 15  1  0
 14 13  1  0
 15 13  1  0
 16  6  1  0
 16 18  1  0
 17 16  1  0
 19 16  1  0
 20 19  1  0
 20 24  1  0
 21 20  1  0
 22 21  2  0
 22 23  1  0
 23 24  2  0
  2 25  1  0
  2 26  1  0
  3 27  1  0
  3 28  1  0
  5 29  1  0
  5 30  1  0
  6 31  1  6
  8 32  1  0
 11 33  1  0
 13 34  1  0
 14 35  1  0
 14 36  1  0
 15 37  1  0
 15 38  1  0
 17 39  1  0
 17 40  1  0
 17 41  1  0
 18 42  1  0
 18 43  1  0
 18 44  1  0
 19 45  1  0
 19 46  1  0
 21 47  1  0
 23 48  1  0
M  ISO  8  25  13  26  13  27  13  28  13  29  13  30  13  31  13  32  14
M  ISO  8  33  14  34  13  35  13  36  13  37  13  38  13  39   8  40   8
M  ISO  8  41   8  42   8  43   8  44   8  45   8  46   8  47  14  48  14
M  END
>  <minimizedAffinity>  (1) 
-4.67811441

>  <minimizedRMSD>  (1) 
1.1220299

$$$$
