
     RDKit          3D

 49 52  0  0  1  0  0  0  0  0999 V2000
   41.9330   34.6110   40.3490 N   0  0  0  0  0  0  0  0  0  0  0  0
   41.0820   35.6660   39.9120 C   0  0  0  0  0  0  0  0  0  0  0  0
   41.1550   35.7040   38.3810 C   0  0  0  0  0  0  0  0  0  0  0  0
   41.2460   34.4270   37.8850 O   0  0  0  0  0  0  0  0  0  0  0  0
   40.6700   33.4610   38.7310 C   0  0  0  0  0  0  0  0  0  0  0  0
   41.5070   33.3110   39.9810 C   0  0  2  0  0  0  0  0  0  0  0  0
   45.5450   34.6200   41.3380 C   0  0  0  0  0  0  0  0  0  0  0  0
   44.3840   34.4250   40.5760 C   0  0  0  0  0  0  0  0  0  0  0  0
   43.1330   34.7900   41.1010 C   0  0  0  0  0  0  0  0  0  0  0  0
   43.1130   35.3140   42.3260 N   0  0  0  0  0  0  0  0  0  0  0  0
   44.2640   35.4910   43.0430 C   0  0  0  0  0  0  0  0  0  0  0  0
   45.4650   35.1430   42.5390 N   0  0  0  0  0  0  0  0  0  0  0  0
   46.8350   34.2130   40.7240 C   0  0  0  0  0  0  0  0  0  0  0  0
   47.3400   32.7810   40.9680 C   0  0  0  0  0  0  0  0  0  0  0  0
   46.9140   33.2800   39.6290 C   0  0  0  0  0  0  0  0  0  0  0  0
   40.7750   32.4780   40.9540 C   0  0  0  0  0  0  0  0  0  0  0  0
   41.7890   31.6960   41.7540 C   0  0  0  0  0  0  0  0  0  0  0  0
   39.9790   33.2810   41.9640 C   0  0  0  0  0  0  0  0  0  0  0  0
   39.8090   31.4960   40.3730 C   0  0  0  0  0  0  0  0  0  0  0  0
   38.7810   31.0540   41.4420 C   0  0  0  0  0  0  0  0  0  0  0  0
   38.4600   29.5500   41.3630 C   0  0  0  0  0  0  0  0  0  0  0  0
   37.4640   30.5810   41.0420 C   0  0  0  0  0  0  0  0  0  0  0  0
   40.0481   35.4745   40.2352 H   0  0  0  0  0  0  0  0  0  0  0  0
   41.4003   36.6273   40.3417 H   0  0  0  0  0  0  0  0  0  0  0  0
   40.2488   36.1854   37.9846 H   0  0  0  0  0  0  0  0  0  0  0  0
   42.0440   36.2751   38.0752 H   0  0  0  0  0  0  0  0  0  0  0  0
   39.6535   33.7775   39.0079 H   0  0  0  0  0  0  0  0  0  0  0  0
   40.6271   32.4961   38.2045 H   0  0  0  0  0  0  0  0  0  0  0  0
   42.4435   32.7456   39.8654 H   0  0  0  0  0  0  0  0  0  0  0  0
   44.4527   33.9871   39.5692 H   0  0  0  0  0  0  0  0  0  0  0  0
   44.2087   35.9263   44.0517 H   0  0  0  0  0  0  0  0  0  0  0  0
   47.2150   35.2347   40.8713 H   0  0  0  0  0  0  0  0  0  0  0  0
   48.4024   32.5920   41.1818 H   0  0  0  0  0  0  0  0  0  0  0  0
   47.0707   31.9434   41.6282 H   0  0  0  0  0  0  0  0  0  0  0  0
   45.9872   32.8954   39.1783 H   0  0  0  0  0  0  0  0  0  0  0  0
   47.3979   33.3090   38.6416 H   0  0  0  0  0  0  0  0  0  0  0  0
   41.6001   31.8417   42.8278 H   0  0  0  0  0  0  0  0  0  0  0  0
   41.7043   30.6271   41.5085 H   0  0  0  0  0  0  0  0  0  0  0  0
   42.8013   32.0495   41.5085 H   0  0  0  0  0  0  0  0  0  0  0  0
   40.2729   32.9845   42.9817 H   0  0  0  0  0  0  0  0  0  0  0  0
   40.1811   34.3528   41.8215 H   0  0  0  0  0  0  0  0  0  0  0  0
   38.9054   33.0882   41.8215 H   0  0  0  0  0  0  0  0  0  0  0  0
   39.2780   31.9645   39.5313 H   0  0  0  0  0  0  0  0  0  0  0  0
   40.3641   30.6125   40.0248 H   0  0  0  0  0  0  0  0  0  0  0  0
   39.1090   31.7961   42.1847 H   0  0  0  0  0  0  0  0  0  0  0  0
   38.8951   28.9298   40.5655 H   0  0  0  0  0  0  0  0  0  0  0  0
   38.5170   28.6924   42.0495 H   0  0  0  0  0  0  0  0  0  0  0  0
   37.1375   30.7103   39.9996 H   0  0  0  0  0  0  0  0  0  0  0  0
   36.4451   30.7864   41.4019 H   0  0  0  0  0  0  0  0  0  0  0  0
  1  9  1  0
  2  1  1  0
  3  2  1  0
  4  3  1  0
  4  5  1  0
  5  6  1  0
  6  1  1  0
  6 16  1  0
  7 12  2  0
  8  9  2  0
  8  7  1  0
  9 10  1  0
 10 11  2  0
 12 11  1  0
 13 14  1  0
 13  7  1  0
 15 13  1  0
 15 14  1  0
 16 17  1  0
 16 18  1  0
 19 16  1  0
 19 20  1  0
 21 20  1  0
 22 21  1  0
 22 20  1  0
  2 23  1  0
  2 24  1  0
  3 25  1  0
  3 26  1  0
  5 27  1  0
  5 28  1  0
  6 29  1  6
  8 30  1  0
 11 31  1  0
 13 32  1  0
 14 33  1  0
 14 34  1  0
 15 35  1  0
 15 36  1  0
 17 37  1  0
 17 38  1  0
 17 39  1  0
 18 40  1  0
 18 41  1  0
 18 42  1  0
 19 43  1  0
 19 44  1  0
 20 45  1  0
 21 46  1  0
 21 47  1  0
 22 48  1  0
 22 49  1  0
M  ISO  8  23  13  24  13  25  13  26  13  27  13  28  13  29  13  30  14
M  ISO  8  31  14  32  13  33  13  34  13  35  13  36  13  37   8  38   8
M  ISO  8  39   8  40   8  41   8  42   8  43   8  44   8  45  13  46  13
M  ISO  3  47  13  48  13  49  13
M  END
>  <minimizedAffinity>  (1) 
-4.60928679

>  <minimizedRMSD>  (1) 
2.96576357

$$$$
