
     RDKit          3D

 49 52  0  0  1  0  0  0  0  0999 V2000
   41.5730   34.0700   40.6510 N   0  0  0  0  0  0  0  0  0  0  0  0
   40.4720   34.7060   41.3280 C   0  0  0  0  0  0  0  0  0  0  0  0
   40.3870   36.1380   40.7950 C   0  0  0  0  0  0  0  0  0  0  0  0
   40.6620   36.1540   39.4530 O   0  0  0  0  0  0  0  0  0  0  0  0
   40.3970   34.9420   38.8020 C   0  0  0  0  0  0  0  0  0  0  0  0
   41.3670   33.8790   39.2620 C   0  0  2  0  0  0  0  0  0  0  0  0
   45.1010   34.0310   41.8960 C   0  0  0  0  0  0  0  0  0  0  0  0
   43.9250   34.4730   41.2630 C   0  0  0  0  0  0  0  0  0  0  0  0
   42.7780   33.6550   41.2740 C   0  0  0  0  0  0  0  0  0  0  0  0
   42.8770   32.4830   41.9000 N   0  0  0  0  0  0  0  0  0  0  0  0
   44.0260   32.0870   42.5000 C   0  0  0  0  0  0  0  0  0  0  0  0
   45.1270   32.8660   42.4920 N   0  0  0  0  0  0  0  0  0  0  0  0
   46.2740   34.9400   41.8460 C   0  0  0  0  0  0  0  0  0  0  0  0
   47.5280   34.5530   42.6480 C   0  0  0  0  0  0  0  0  0  0  0  0
   47.4930   34.6040   41.1520 C   0  0  0  0  0  0  0  0  0  0  0  0
   40.9070   32.5470   38.7890 C   0  0  0  0  0  0  0  0  0  0  0  0
   40.8780   31.6340   40.0000 C   0  0  0  0  0  0  0  0  0  0  0  0
   39.5300   32.5310   38.2250 C   0  0  0  0  0  0  0  0  0  0  0  0
   41.8150   31.9000   37.7780 C   0  0  0  0  0  0  0  0  0  0  0  0
   43.2620   32.1980   38.0930 C   0  0  0  0  0  0  0  0  0  0  0  0
   44.0090   31.2220   38.7410 C   0  0  0  0  0  0  0  0  0  0  0  0
   45.2910   31.7390   38.9100 C   0  0  0  0  0  0  0  0  0  0  0  0
   45.1880   32.9910   38.3420 C   0  0  0  0  0  0  0  0  0  0  0  0
   43.9980   33.2610   37.8620 O   0  0  0  0  0  0  0  0  0  0  0  0
   39.5364   34.1678   41.1161 H   0  0  0  0  0  0  0  0  0  0  0  0
   40.6248   34.7007   42.4173 H   0  0  0  0  0  0  0  0  0  0  0  0
   39.3734   36.5304   40.9641 H   0  0  0  0  0  0  0  0  0  0  0  0
   41.1215   36.7645   41.3223 H   0  0  0  0  0  0  0  0  0  0  0  0
   40.5006   35.0828   37.7160 H   0  0  0  0  0  0  0  0  0  0  0  0
   39.3728   34.6216   39.0435 H   0  0  0  0  0  0  0  0  0  0  0  0
   42.3704   33.9508   38.8170 H   0  0  0  0  0  0  0  0  0  0  0  0
   43.9011   35.4521   40.7621 H   0  0  0  0  0  0  0  0  0  0  0  0
   44.0613   31.1099   43.0040 H   0  0  0  0  0  0  0  0  0  0  0  0
   45.5911   35.8004   41.7880 H   0  0  0  0  0  0  0  0  0  0  0  0
   48.0817   35.3119   43.2202 H   0  0  0  0  0  0  0  0  0  0  0  0
   47.7847   33.8062   43.4137 H   0  0  0  0  0  0  0  0  0  0  0  0
   47.5481   33.6679   40.5770 H   0  0  0  0  0  0  0  0  0  0  0  0
   48.1028   35.1193   40.3953 H   0  0  0  0  0  0  0  0  0  0  0  0
   40.8973   32.2409   40.9173 H   0  0  0  0  0  0  0  0  0  0  0  0
   39.9602   31.0280   39.9805 H   0  0  0  0  0  0  0  0  0  0  0  0
   41.7555   30.9710   39.9805 H   0  0  0  0  0  0  0  0  0  0  0  0
   38.7977   32.5225   39.0458 H   0  0  0  0  0  0  0  0  0  0  0  0
   39.3768   33.4274   37.6062 H   0  0  0  0  0  0  0  0  0  0  0  0
   39.3977   31.6313   37.6062 H   0  0  0  0  0  0  0  0  0  0  0  0
   41.5759   32.2883   36.7770 H   0  0  0  0  0  0  0  0  0  0  0  0
   41.6626   30.8111   37.8110 H   0  0  0  0  0  0  0  0  0  0  0  0
   43.6553   30.2304   39.0597 H   0  0  0  0  0  0  0  0  0  0  0  0
   46.1666   31.2667   39.3792 H   0  0  0  0  0  0  0  0  0  0  0  0
   46.0282   33.6994   38.2957 H   0  0  0  0  0  0  0  0  0  0  0  0
  1  9  1  0
  1  2  1  0
  3  2  1  0
  4  3  1  0
  5  6  1  0
  5  4  1  0
  6  1  1  0
  7 12  2  0
  8  9  2  0
  8  7  1  0
  9 10  1  0
 10 11  2  0
 12 11  1  0
 13  7  1  0
 13 14  1  0
 15 13  1  0
 15 14  1  0
 16  6  1  0
 16 17  1  0
 18 16  1  0
 19 20  1  0
 19 16  1  0
 20 21  2  0
 21 22  1  0
 23 22  2  0
 24 20  1  0
 24 23  1  0
  2 25  1  0
  2 26  1  0
  3 27  1  0
  3 28  1  0
  5 29  1  0
  5 30  1  0
  6 31  1  6
  8 32  1  0
 11 33  1  0
 13 34  1  0
 14 35  1  0
 14 36  1  0
 15 37  1  0
 15 38  1  0
 17 39  1  0
 17 40  1  0
 17 41  1  0
 18 42  1  0
 18 43  1  0
 18 44  1  0
 19 45  1  0
 19 46  1  0
 21 47  1  0
 22 48  1  0
 23 49  1  0
M  ISO  8  25  13  26  13  27  13  28  13  29  13  30  13  31  13  32  14
M  ISO  8  33  14  34  13  35  13  36  13  37  13  38  13  39   8  40   8
M  ISO  8  41   8  42   8  43   8  44   8  45   8  46   8  47  14  48  14
M  ISO  1  49  14
M  END
>  <minimizedAffinity>  (1) 
-4.8075428

>  <minimizedRMSD>  (1) 
3.50127125

$$$$
