
     RDKit          3D

 43 45  0  0  1  0  0  0  0  0999 V2000
   41.2720   33.9460   40.7560 N   0  0  0  0  0  0  0  0  0  0  0  0
   40.2540   34.7490   41.3920 C   0  0  0  0  0  0  0  0  0  0  0  0
   40.4340   36.1810   40.8670 C   0  0  0  0  0  0  0  0  0  0  0  0
   40.7680   36.1600   39.5440 O   0  0  0  0  0  0  0  0  0  0  0  0
   40.3510   35.0000   38.8690 C   0  0  0  0  0  0  0  0  0  0  0  0
   41.1210   33.7890   39.3560 C   0  0  2  0  0  0  0  0  0  0  0  0
   44.5180   33.4650   42.5620 C   0  0  0  0  0  0  0  0  0  0  0  0
   43.4580   34.1120   41.8840 C   0  0  0  0  0  0  0  0  0  0  0  0
   42.3650   33.3390   41.4380 C   0  0  0  0  0  0  0  0  0  0  0  0
   42.3910   32.0320   41.6810 N   0  0  0  0  0  0  0  0  0  0  0  0
   43.4320   31.4510   42.3370 C   0  0  0  0  0  0  0  0  0  0  0  0
   44.4790   32.1780   42.7680 N   0  0  0  0  0  0  0  0  0  0  0  0
   45.6460   34.3320   43.0100 C   0  0  0  0  0  0  0  0  0  0  0  0
   46.6520   34.8020   41.9450 C   0  0  0  0  0  0  0  0  0  0  0  0
   45.7380   35.7300   42.6790 C   0  0  0  0  0  0  0  0  0  0  0  0
   40.4670   32.5720   38.8500 C   0  0  0  0  0  0  0  0  0  0  0  0
   41.5610   31.7180   38.2300 C   0  0  0  0  0  0  0  0  0  0  0  0
   39.8160   31.7160   39.9000 C   0  0  0  0  0  0  0  0  0  0  0  0
   39.4400   32.7910   37.7710 C   0  0  0  0  0  0  0  0  0  0  0  0
   38.2410   32.1190   38.1100 O   0  0  0  0  0  0  0  0  0  0  0  0
   39.2544   34.3716   41.1305 H   0  0  0  0  0  0  0  0  0  0  0  0
   40.3470   34.7132   42.4875 H   0  0  0  0  0  0  0  0  0  0  0  0
   39.4929   36.7359   40.9953 H   0  0  0  0  0  0  0  0  0  0  0  0
   41.2398   36.6717   41.4326 H   0  0  0  0  0  0  0  0  0  0  0  0
   40.5246   35.1281   37.7904 H   0  0  0  0  0  0  0  0  0  0  0  0
   39.2808   34.8413   39.0679 H   0  0  0  0  0  0  0  0  0  0  0  0
   42.1444   33.6889   38.9654 H   0  0  0  0  0  0  0  0  0  0  0  0
   43.4854   35.1975   41.7078 H   0  0  0  0  0  0  0  0  0  0  0  0
   43.4173   30.3662   42.5184 H   0  0  0  0  0  0  0  0  0  0  0  0
   45.6761   33.7884   43.9658 H   0  0  0  0  0  0  0  0  0  0  0  0
   46.4851   34.5784   40.8810 H   0  0  0  0  0  0  0  0  0  0  0  0
   47.7362   34.7163   41.7798 H   0  0  0  0  0  0  0  0  0  0  0  0
   46.1572   36.4333   43.4136 H   0  0  0  0  0  0  0  0  0  0  0  0
   45.0037   36.4832   42.3573 H   0  0  0  0  0  0  0  0  0  0  0  0
   42.1583   31.2517   39.0273 H   0  0  0  0  0  0  0  0  0  0  0  0
   41.1055   30.9342   37.6070 H   0  0  0  0  0  0  0  0  0  0  0  0
   42.2108   32.3501   37.6070 H   0  0  0  0  0  0  0  0  0  0  0  0
   40.0958   32.0839   40.8982 H   0  0  0  0  0  0  0  0  0  0  0  0
   38.7230   31.7625   39.7851 H   0  0  0  0  0  0  0  0  0  0  0  0
   40.1528   30.6751   39.7851 H   0  0  0  0  0  0  0  0  0  0  0  0
   39.8222   32.3982   36.8173 H   0  0  0  0  0  0  0  0  0  0  0  0
   39.2387   33.8680   37.6728 H   0  0  0  0  0  0  0  0  0  0  0  0
   38.1565   32.0716   39.0952 H   0  0  0  0  0  0  0  0  0  0  0  0
  1  2  1  0
  1  9  1  0
  3  2  1  0
  4  3  1  0
  5  6  1  0
  5  4  1  0
  6  1  1  0
  7 12  1  0
  7 13  1  0
  8  7  2  0
  9 10  2  0
  9  8  1  0
 10 11  1  0
 11 12  2  0
 14 15  1  0
 14 13  1  0
 15 13  1  0
 16  6  1  0
 16 18  1  0
 17 16  1  0
 19 20  1  0
 19 16  1  0
  2 21  1  0
  2 22  1  0
  3 23  1  0
  3 24  1  0
  5 25  1  0
  5 26  1  0
  6 27  1  6
  8 28  1  0
 11 29  1  0
 13 30  1  0
 14 31  1  0
 14 32  1  0
 15 33  1  0
 15 34  1  0
 17 35  1  0
 17 36  1  0
 17 37  1  0
 18 38  1  0
 18 39  1  0
 18 40  1  0
 19 41  1  0
 19 42  1  0
 20 43  1  0
M  ISO  8  21  13  22  13  23  13  24  13  25  13  26  13  27  13  28  14
M  ISO  8  29  14  30  13  31  13  32  13  33  13  34  13  35   8  36   8
M  ISO  7  37   8  38   8  39   8  40   8  41   8  42   8  43   3
M  END
>  <minimizedAffinity>  (1) 
-4.41642094

>  <minimizedRMSD>  (1) 
0.893085003

$$$$
