
     RDKit          3D

 37 40  0  0  1  0  0  0  0  0999 V2000
   46.9160   34.2230   42.4190 N   0  0  0  0  0  0  0  0  0  0  0  0
   48.2380   33.6790   42.5750 C   0  0  0  0  0  0  0  0  0  0  0  0
   48.7870   32.9620   41.4120 C   0  0  0  0  0  0  0  0  0  0  0  0
   48.1310   33.0860   40.2140 O   0  0  0  0  0  0  0  0  0  0  0  0
   47.3970   34.2260   40.0380 C   0  0  0  0  0  0  0  0  0  0  0  0
   46.3530   34.4330   41.1150 C   0  0  1  0  0  0  0  0  0  0  0  0
   45.2130   33.5480   40.8900 N   0  0  0  0  0  0  0  0  0  0  0  0
   45.3210   32.2420   40.5940 C   0  0  0  0  0  0  0  0  0  0  0  0
   44.0920   31.6770   40.4400 N   0  0  0  0  0  0  0  0  0  0  0  0
   43.1920   32.6500   40.6450 C   0  0  0  0  0  0  0  0  0  0  0  0
   41.8010   32.6390   40.6140 C   0  0  0  0  0  0  0  0  0  0  0  0
   41.1740   31.5840   40.3600 O   0  0  0  0  0  0  0  0  0  0  0  0
   41.1760   33.8180   40.8700 N   0  0  0  0  0  0  0  0  0  0  0  0
   41.8770   34.9440   41.1410 C   0  0  0  0  0  0  0  0  0  0  0  0
   41.2570   36.1920   41.4140 N   0  0  0  0  0  0  0  0  0  0  0  0
   43.2340   34.9350   41.1670 N   0  0  0  0  0  0  0  0  0  0  0  0
   43.8930   33.7950   40.9200 C   0  0  0  0  0  0  0  0  0  0  0  0
   44.5960   36.0080   44.7440 C   0  0  0  0  0  0  0  0  0  0  0  0
   45.3490   35.7620   43.5670 C   0  0  0  0  0  0  0  0  0  0  0  0
   46.1200   34.5720   43.5480 C   0  0  0  0  0  0  0  0  0  0  0  0
   46.0930   33.7500   44.6390 N   0  0  0  0  0  0  0  0  0  0  0  0
   45.3550   34.0390   45.7290 C   0  0  0  0  0  0  0  0  0  0  0  0
   44.6190   35.1530   45.7770 N   0  0  0  0  0  0  0  0  0  0  0  0
   48.9182   34.5115   42.8078 H   0  0  0  0  0  0  0  0  0  0  0  0
   48.1544   32.9261   43.3726 H   0  0  0  0  0  0  0  0  0  0  0  0
   49.8156   33.3215   41.2611 H   0  0  0  0  0  0  0  0  0  0  0  0
   48.6882   31.8977   41.6720 H   0  0  0  0  0  0  0  0  0  0  0  0
   48.0813   35.0872   40.0437 H   0  0  0  0  0  0  0  0  0  0  0  0
   46.8650   34.1287   39.0801 H   0  0  0  0  0  0  0  0  0  0  0  0
   46.0004   35.4738   41.0648 H   0  0  0  0  0  0  0  0  0  0  0  0
   46.2738   31.7021   40.4901 H   0  0  0  0  0  0  0  0  0  0  0  0
   40.1468   33.8559   40.8576 H   0  0  0  0  0  0  0  0  0  0  0  0
   41.8345   37.0210   41.6147 H   0  0  0  0  0  0  0  0  0  0  0  0
   40.2298   36.2683   41.4113 H   0  0  0  0  0  0  0  0  0  0  0  0
   43.9813   36.9178   44.8106 H   0  0  0  0  0  0  0  0  0  0  0  0
   45.3355   36.4572   42.7147 H   0  0  0  0  0  0  0  0  0  0  0  0
   45.3586   33.3511   46.5874 H   0  0  0  0  0  0  0  0  0  0  0  0
  1  2  1  0
  1 20  1  0
  3  2  1  0
  4  3  1  0
  5  4  1  0
  5  6  1  0
  6  1  1  0
  7 17  1  0
  7  6  1  0
  8  7  1  0
  9  8  2  0
  9 10  1  0
 10 17  2  0
 11 10  1  0
 11 13  1  0
 12 11  2  0
 13 14  1  0
 14 16  2  0
 14 15  1  0
 17 16  1  0
 18 23  2  0
 19 18  1  0
 20 19  2  0
 20 21  1  0
 21 22  2  0
 22 23  1  0
  2 24  1  0
  2 25  1  0
  3 26  1  0
  3 27  1  0
  5 28  1  0
  5 29  1  0
  6 30  1  1
  8 31  1  0
 13 32  1  0
 15 33  1  0
 15 34  1  0
 18 35  1  0
 19 36  1  0
 22 37  1  0
M  ISO  8  24  13  25  13  26  13  27  13  28  13  29  13  30  13  31  14
M  ISO  4  32   9  35  14  36  14  37  14
M  END
>  <minimizedAffinity>  (1) 
-5.75405312

>  <minimizedRMSD>  (1) 
1.16801107

$$$$
