
     RDKit          3D

 36 39  0  0  1  0  0  0  0  0999 V2000
   45.9430   34.2150   41.8070 N   0  0  0  0  0  0  0  0  0  0  0  0
   47.2060   34.7290   41.2810 C   0  0  0  0  0  0  0  0  0  0  0  0
   47.8070   33.8730   40.2150 C   0  0  0  0  0  0  0  0  0  0  0  0
   46.9560   33.0830   39.4960 O   0  0  0  0  0  0  0  0  0  0  0  0
   45.6250   33.4070   39.5540 C   0  0  0  0  0  0  0  0  0  0  0  0
   45.1230   33.3700   41.0170 C   0  0  2  0  0  0  0  0  0  0  0  0
   44.4940   35.9990   44.7500 C   0  0  0  0  0  0  0  0  0  0  0  0
   44.8950   35.7170   43.4430 C   0  0  0  0  0  0  0  0  0  0  0  0
   45.5470   34.5320   43.1230 C   0  0  0  0  0  0  0  0  0  0  0  0
   45.7740   33.6590   44.1730 N   0  0  0  0  0  0  0  0  0  0  0  0
   45.3890   33.9310   45.4350 C   0  0  0  0  0  0  0  0  0  0  0  0
   44.7540   35.0860   45.7250 N   0  0  0  0  0  0  0  0  0  0  0  0
   43.7220   33.5290   40.9770 N   0  0  0  0  0  0  0  0  0  0  0  0
   43.1410   34.6330   40.4090 C   0  0  0  0  0  0  0  0  0  0  0  0
   41.7980   34.5080   40.5560 N   0  0  0  0  0  0  0  0  0  0  0  0
   41.5680   33.3570   41.1970 C   0  0  0  0  0  0  0  0  0  0  0  0
   40.3980   32.7520   41.5950 C   0  0  0  0  0  0  0  0  0  0  0  0
   40.3980   31.5560   42.2460 N   0  0  0  0  0  0  0  0  0  0  0  0
   41.6070   30.9770   42.4920 C   0  0  0  0  0  0  0  0  0  0  0  0
   42.7770   31.5240   42.1250 N   0  0  0  0  0  0  0  0  0  0  0  0
   42.7540   32.7050   41.4830 C   0  0  0  0  0  0  0  0  0  0  0  0
   39.1070   33.3070   41.3690 N   0  0  0  0  0  0  0  0  0  0  0  0
   47.0256   35.7298   40.8617 H   0  0  0  0  0  0  0  0  0  0  0  0
   47.9189   34.7461   42.1185 H   0  0  0  0  0  0  0  0  0  0  0  0
   48.3195   34.5391   39.5053 H   0  0  0  0  0  0  0  0  0  0  0  0
   48.4620   33.1703   40.7509 H   0  0  0  0  0  0  0  0  0  0  0  0
   45.4804   34.4186   39.1469 H   0  0  0  0  0  0  0  0  0  0  0  0
   45.0542   32.6758   38.9628 H   0  0  0  0  0  0  0  0  0  0  0  0
   45.2404   32.4194   41.5579 H   0  0  0  0  0  0  0  0  0  0  0  0
   43.9778   36.9410   44.9872 H   0  0  0  0  0  0  0  0  0  0  0  0
   44.6903   36.4494   42.6482 H   0  0  0  0  0  0  0  0  0  0  0  0
   45.5940   33.2054   46.2360 H   0  0  0  0  0  0  0  0  0  0  0  0
   43.6673   35.4677   39.9229 H   0  0  0  0  0  0  0  0  0  0  0  0
   41.6252   30.0114   43.0186 H   0  0  0  0  0  0  0  0  0  0  0  0
   38.2671   32.8054   41.6913 H   0  0  0  0  0  0  0  0  0  0  0  0
   39.0126   34.2103   40.8831 H   0  0  0  0  0  0  0  0  0  0  0  0
  1  9  1  0
  2  1  1  0
  3  2  1  0
  4  5  1  0
  4  3  1  0
  5  6  1  0
  6  1  1  0
  7 12  2  0
  8  7  1  0
  9  8  2  0
  9 10  1  0
 10 11  2  0
 11 12  1  0
 13  6  1  0
 13 21  1  0
 14 15  2  0
 14 13  1  0
 15 16  1  0
 16 21  2  0
 16 17  1  0
 17 18  2  0
 18 19  1  0
 20 19  2  0
 21 20  1  0
 22 17  1  0
  2 23  1  0
  2 24  1  0
  3 25  1  0
  3 26  1  0
  5 27  1  0
  5 28  1  0
  6 29  1  1
  7 30  1  0
  8 31  1  0
 11 32  1  0
 14 33  1  0
 19 34  1  0
 22 35  1  0
 22 36  1  0
M  ISO  8  23  13  24  13  25  13  26  13  27  13  28  13  29  13  30  14
M  ISO  4  31  14  32  14  33  14  34  14
M  END
>  <minimizedAffinity>  (1) 
-5.84450388

>  <minimizedRMSD>  (1) 
3.25898838

$$$$
