
     RDKit          3D

 37 40  0  0  1  0  0  0  0  0999 V2000
   46.9900   34.2490   42.4410 N   0  0  0  0  0  0  0  0  0  0  0  0
   48.3050   33.7140   42.6150 C   0  0  0  0  0  0  0  0  0  0  0  0
   48.8430   32.9540   41.4540 C   0  0  0  0  0  0  0  0  0  0  0  0
   48.2550   33.1450   40.2490 O   0  0  0  0  0  0  0  0  0  0  0  0
   47.5090   34.2800   40.0660 C   0  0  0  0  0  0  0  0  0  0  0  0
   46.4470   34.4830   41.1250 C   0  0  1  0  0  0  0  0  0  0  0  0
   45.2660   33.6400   40.8570 C   0  0  0  0  0  0  0  0  0  0  0  0
   45.4010   32.2680   40.8770 C   0  0  0  0  0  0  0  0  0  0  0  0
   44.1790   31.7440   40.6010 N   0  0  0  0  0  0  0  0  0  0  0  0
   43.2970   32.7550   40.4120 C   0  0  0  0  0  0  0  0  0  0  0  0
   41.9520   32.8350   40.1140 C   0  0  0  0  0  0  0  0  0  0  0  0
   41.3150   34.0550   39.9820 C   0  0  0  0  0  0  0  0  0  0  0  0
   42.0080   35.2510   40.1450 C   0  0  0  0  0  0  0  0  0  0  0  0
   43.3680   35.2030   40.4470 C   0  0  0  0  0  0  0  0  0  0  0  0
   43.9440   33.9580   40.5650 C   0  0  0  0  0  0  0  0  0  0  0  0
   44.5510   35.9450   44.7120 C   0  0  0  0  0  0  0  0  0  0  0  0
   45.3270   35.7070   43.5680 C   0  0  0  0  0  0  0  0  0  0  0  0
   46.1710   34.5700   43.5520 C   0  0  0  0  0  0  0  0  0  0  0  0
   46.1640   33.7790   44.6690 N   0  0  0  0  0  0  0  0  0  0  0  0
   45.4160   34.0250   45.7490 C   0  0  0  0  0  0  0  0  0  0  0  0
   44.6090   35.1110   45.7660 N   0  0  0  0  0  0  0  0  0  0  0  0
   48.9882   34.5518   42.8184 H   0  0  0  0  0  0  0  0  0  0  0  0
   48.2321   32.9927   43.4423 H   0  0  0  0  0  0  0  0  0  0  0  0
   49.9041   33.2238   41.3481 H   0  0  0  0  0  0  0  0  0  0  0  0
   48.6443   31.8995   41.6961 H   0  0  0  0  0  0  0  0  0  0  0  0
   48.1855   35.1472   40.0809 H   0  0  0  0  0  0  0  0  0  0  0  0
   46.9885   34.1727   39.1029 H   0  0  0  0  0  0  0  0  0  0  0  0
   46.1119   35.5300   41.0878 H   0  0  0  0  0  0  0  0  0  0  0  0
   46.3240   31.7045   41.0784 H   0  0  0  0  0  0  0  0  0  0  0  0
   43.9581   30.7395   40.5444 H   0  0  0  0  0  0  0  0  0  0  0  0
   41.3745   31.9086   39.9786 H   0  0  0  0  0  0  0  0  0  0  0  0
   40.2414   34.0809   39.7439 H   0  0  0  0  0  0  0  0  0  0  0  0
   41.4919   36.2165   40.0375 H   0  0  0  0  0  0  0  0  0  0  0  0
   43.9567   36.1218   40.5853 H   0  0  0  0  0  0  0  0  0  0  0  0
   43.8884   36.8223   44.7477 H   0  0  0  0  0  0  0  0  0  0  0  0
   45.2811   36.3869   42.7045 H   0  0  0  0  0  0  0  0  0  0  0  0
   45.4561   33.3502   46.6168 H   0  0  0  0  0  0  0  0  0  0  0  0
  1  2  1  0
  1 18  1  0
  3  2  1  0
  4  3  1  0
  5  4  1  0
  5  6  1  0
  6  1  1  0
  7  8  2  0
  7  6  1  0
  9  8  1  0
 10 15  2  0
 10  9  1  0
 11 10  1  0
 12 11  2  0
 12 13  1  0
 13 14  2  0
 14 15  1  0
 15  7  1  0
 16 21  2  0
 17 16  1  0
 18 17  2  0
 18 19  1  0
 19 20  2  0
 20 21  1  0
  2 22  1  0
  2 23  1  0
  3 24  1  0
  3 25  1  0
  5 26  1  0
  5 27  1  0
  6 28  1  1
  8 29  1  0
  9 30  1  0
 11 31  1  0
 12 32  1  0
 13 33  1  0
 14 34  1  0
 16 35  1  0
 17 36  1  0
 20 37  1  0
M  ISO  8  22  13  23  13  24  13  25  13  26  13  27  13  28  13  29  14
M  ISO  8  30   9  31  14  32  14  33  14  34  14  35  14  36  14  37  14
M  END
>  <minimizedAffinity>  (1) 
-5.4175272

>  <minimizedRMSD>  (1) 
2.48116279

$$$$
