
     RDKit          3D

 30 32  0  0  1  0  0  0  0  0999 V2000
   47.2790   34.3370   42.3160 N   0  0  0  0  0  0  0  0  0  0  0  0
   48.5880   33.8340   42.5950 C   0  0  0  0  0  0  0  0  0  0  0  0
   49.2030   33.0160   41.5270 C   0  0  0  0  0  0  0  0  0  0  0  0
   48.6810   33.1200   40.2820 O   0  0  0  0  0  0  0  0  0  0  0  0
   47.9790   34.2430   39.9870 C   0  0  0  0  0  0  0  0  0  0  0  0
   46.8510   34.5350   40.9490 C   0  0  1  0  0  0  0  0  0  0  0  0
   44.6710   36.0900   44.3430 C   0  0  0  0  0  0  0  0  0  0  0  0
   45.5590   35.7990   43.2950 C   0  0  0  0  0  0  0  0  0  0  0  0
   46.3730   34.6560   43.3560 C   0  0  0  0  0  0  0  0  0  0  0  0
   46.2420   33.8800   44.4650 N   0  0  0  0  0  0  0  0  0  0  0  0
   45.3980   34.1570   45.4620 C   0  0  0  0  0  0  0  0  0  0  0  0
   44.6200   35.2450   45.4090 N   0  0  0  0  0  0  0  0  0  0  0  0
   45.5810   33.8890   40.5970 C   0  0  0  0  0  0  0  0  0  0  0  0
   45.2860   32.5210   40.6540 C   0  0  0  0  0  0  0  0  0  0  0  0
   44.0310   32.3260   40.2550 N   0  0  0  0  0  0  0  0  0  0  0  0
   43.4790   33.4940   39.9370 C   0  0  0  0  0  0  0  0  0  0  0  0
   44.4240   34.4130   40.1500 N   0  0  0  0  0  0  0  0  0  0  0  0
   49.2472   34.6941   42.7836 H   0  0  0  0  0  0  0  0  0  0  0  0
   48.4728   33.1618   43.4581 H   0  0  0  0  0  0  0  0  0  0  0  0
   50.2640   33.2994   41.4643 H   0  0  0  0  0  0  0  0  0  0  0  0
   49.0114   31.9748   41.8255 H   0  0  0  0  0  0  0  0  0  0  0  0
   48.6724   35.0969   39.9980 H   0  0  0  0  0  0  0  0  0  0  0  0
   47.5208   34.0810   39.0002 H   0  0  0  0  0  0  0  0  0  0  0  0
   46.6053   35.6030   40.8536 H   0  0  0  0  0  0  0  0  0  0  0  0
   44.0295   36.9827   44.3034 H   0  0  0  0  0  0  0  0  0  0  0  0
   45.6173   36.4680   42.4238 H   0  0  0  0  0  0  0  0  0  0  0  0
   45.3417   33.4868   46.3324 H   0  0  0  0  0  0  0  0  0  0  0  0
   45.9814   31.7324   40.9773 H   0  0  0  0  0  0  0  0  0  0  0  0
   42.4553   33.6670   39.5736 H   0  0  0  0  0  0  0  0  0  0  0  0
   44.2823   35.4204   39.9888 H   0  0  0  0  0  0  0  0  0  0  0  0
  1  2  1  0
  1  9  1  0
  3  2  1  0
  4  3  1  0
  5  4  1  0
  5  6  1  0
  6  1  1  0
  7 12  2  0
  8  9  2  0
  8  7  1  0
  9 10  1  0
 10 11  2  0
 12 11  1  0
 13 14  2  0
 13  6  1  0
 15 14  1  0
 16 17  1  0
 16 15  2  0
 17 13  1  0
  2 18  1  0
  2 19  1  0
  3 20  1  0
  3 21  1  0
  5 22  1  0
  5 23  1  0
  6 24  1  1
  7 25  1  0
  8 26  1  0
 11 27  1  0
 14 28  1  0
 16 29  1  0
 17 30  1  0
M  ISO  8  18  13  19  13  20  13  21  13  22  13  23  13  24  13  25  14
M  ISO  5  26  14  27  14  28  14  29  14  30   9
M  END
>  <minimizedAffinity>  (1) 
-4.6785965

>  <minimizedRMSD>  (1) 
0.450677305

$$$$
