
     RDKit          3D

 39 41  0  0  1  0  0  0  0  0999 V2000
   45.6570   34.2370   42.2140 C   0  0  0  0  0  0  0  0  0  0  0  0
   47.0580   34.2590   42.3020 C   0  0  0  0  0  0  0  0  0  0  0  0
   47.6520   33.9120   43.5330 C   0  0  0  0  0  0  0  0  0  0  0  0
   46.8690   33.5770   44.5660 N   0  0  0  0  0  0  0  0  0  0  0  0
   45.5250   33.5590   44.4700 C   0  0  0  0  0  0  0  0  0  0  0  0
   44.9510   33.8830   43.3150 N   0  0  0  0  0  0  0  0  0  0  0  0
   44.9050   34.5980   41.0620 C   0  0  0  0  0  0  0  0  0  0  0  0
   44.2760   33.3430   40.3840 C   0  0  0  0  0  0  0  0  0  0  0  0
   43.2550   34.0350   39.4580 C   0  0  0  0  0  0  0  0  0  0  0  0
   42.8730   35.2980   40.1700 C   0  0  0  0  0  0  0  0  0  0  0  0
   43.6380   35.3050   41.4790 C   0  0  0  0  0  0  0  0  0  0  0  0
   47.8840   34.6280   41.1560 C   0  0  1  0  0  0  0  0  0  0  0  0
   48.8360   35.7410   41.4480 C   0  0  0  0  0  0  0  0  0  0  0  0
   48.4910   33.4290   40.5470 C   0  0  0  0  0  0  0  0  0  0  0  0
   47.7690   32.9370   39.3800 N   0  0  0  0  0  0  0  0  0  0  0  0
   47.5450   33.9120   38.5010 N   0  0  0  0  0  0  0  0  0  0  0  0
   46.8780   33.3990   37.4460 C   0  0  0  0  0  0  0  0  0  0  0  0
   46.6710   32.0500   37.6620 C   0  0  0  0  0  0  0  0  0  0  0  0
   47.2480   31.7980   38.8910 C   0  0  0  0  0  0  0  0  0  0  0  0
   48.7465   33.9165   43.6433 H   0  0  0  0  0  0  0  0  0  0  0  0
   44.9094   33.2793   45.3376 H   0  0  0  0  0  0  0  0  0  0  0  0
   45.5985   35.1715   40.4294 H   0  0  0  0  0  0  0  0  0  0  0  0
   45.0212   32.7677   39.8151 H   0  0  0  0  0  0  0  0  0  0  0  0
   43.8509   32.6017   41.0766 H   0  0  0  0  0  0  0  0  0  0  0  0
   42.3733   33.3944   39.3086 H   0  0  0  0  0  0  0  0  0  0  0  0
   43.6736   34.2353   38.4607 H   0  0  0  0  0  0  0  0  0  0  0  0
   43.1491   36.1737   39.5642 H   0  0  0  0  0  0  0  0  0  0  0  0
   41.7878   35.3428   40.3442 H   0  0  0  0  0  0  0  0  0  0  0  0
   43.1035   34.7507   42.2645 H   0  0  0  0  0  0  0  0  0  0  0  0
   43.7925   36.3035   41.9139 H   0  0  0  0  0  0  0  0  0  0  0  0
   47.2289   35.0620   40.3863 H   0  0  0  0  0  0  0  0  0  0  0  0
   48.9379   35.8602   42.5368 H   0  0  0  0  0  0  0  0  0  0  0  0
   49.8182   35.5075   41.0112 H   0  0  0  0  0  0  0  0  0  0  0  0
   48.4531   36.6751   41.0112 H   0  0  0  0  0  0  0  0  0  0  0  0
   49.5182   33.6766   40.2413 H   0  0  0  0  0  0  0  0  0  0  0  0
   48.4601   32.6321   41.3046 H   0  0  0  0  0  0  0  0  0  0  0  0
   46.5524   33.9625   36.5592 H   0  0  0  0  0  0  0  0  0  0  0  0
   46.1596   31.3348   37.0010 H   0  0  0  0  0  0  0  0  0  0  0  0
   47.2769   30.8189   39.3915 H   0  0  0  0  0  0  0  0  0  0  0  0
  1  2  1  0
  1  6  2  0
  2  3  2  0
  3  4  1  0
  5  4  2  0
  6  5  1  0
  7 11  1  0
  7  1  1  0
  8  7  1  0
  9 10  1  0
  9  8  1  0
 10 11  1  0
 12 13  1  0
 12  2  1  0
 14 12  1  0
 15 14  1  0
 16 15  1  0
 17 18  1  0
 17 16  2  0
 18 19  2  0
 19 15  1  0
  3 20  1  0
  5 21  1  0
  7 22  1  0
  8 23  1  0
  8 24  1  0
  9 25  1  0
  9 26  1  0
 10 27  1  0
 10 28  1  0
 11 29  1  0
 11 30  1  0
 12 31  1  6
 13 32  1  0
 13 33  1  0
 13 34  1  0
 14 35  1  0
 14 36  1  0
 17 37  1  0
 18 38  1  0
 19 39  1  0
M  ISO  8  20  14  21  14  22  13  23  13  24  13  25  13  26  13  27  13
M  ISO  8  28  13  29  13  30  13  31   8  32   8  33   8  34   8  35   8
M  ISO  4  36   8  37  14  38  14  39  14
M  END
>  <minimizedAffinity>  (1) 
-4.63634729

>  <minimizedRMSD>  (1) 
3.57676554

$$$$
