
     RDKit          3D

 33 35  0  0  1  0  0  0  0  0999 V2000
   47.2080   34.4210   42.3560 N   0  0  0  0  0  0  0  0  0  0  0  0
   48.5830   34.1260   42.5880 C   0  0  0  0  0  0  0  0  0  0  0  0
   49.2770   33.3560   41.5320 C   0  0  0  0  0  0  0  0  0  0  0  0
   48.6990   33.3400   40.3040 O   0  0  0  0  0  0  0  0  0  0  0  0
   47.8060   34.3180   40.0050 C   0  0  0  0  0  0  0  0  0  0  0  0
   46.6900   34.4610   41.0220 C   0  0  1  0  0  0  0  0  0  0  0  0
   44.5920   36.0100   44.5120 C   0  0  0  0  0  0  0  0  0  0  0  0
   45.4540   35.7990   43.4070 C   0  0  0  0  0  0  0  0  0  0  0  0
   46.3240   34.6820   43.4320 C   0  0  0  0  0  0  0  0  0  0  0  0
   46.2750   33.8700   44.5330 N   0  0  0  0  0  0  0  0  0  0  0  0
   45.4420   34.1080   45.5590 C   0  0  0  0  0  0  0  0  0  0  0  0
   44.6140   35.1560   45.5530 N   0  0  0  0  0  0  0  0  0  0  0  0
   45.5930   33.5640   40.7090 C   0  0  0  0  0  0  0  0  0  0  0  0
   44.3390   34.0190   40.2860 C   0  0  0  0  0  0  0  0  0  0  0  0
   43.2720   33.2220   39.9790 C   0  0  0  0  0  0  0  0  0  0  0  0
   43.4190   31.8520   40.0860 C   0  0  0  0  0  0  0  0  0  0  0  0
   44.6530   31.3560   40.5040 C   0  0  0  0  0  0  0  0  0  0  0  0
   45.7040   32.1960   40.8050 C   0  0  0  0  0  0  0  0  0  0  0  0
   49.1145   35.0813   42.7099 H   0  0  0  0  0  0  0  0  0  0  0  0
   48.5976   33.4803   43.4785 H   0  0  0  0  0  0  0  0  0  0  0  0
   50.2854   33.7807   41.4192 H   0  0  0  0  0  0  0  0  0  0  0  0
   49.2514   32.3111   41.8749 H   0  0  0  0  0  0  0  0  0  0  0  0
   48.3461   35.2745   39.9463 H   0  0  0  0  0  0  0  0  0  0  0  0
   47.3353   34.0405   39.0503 H   0  0  0  0  0  0  0  0  0  0  0  0
   46.2297   35.4582   40.9606 H   0  0  0  0  0  0  0  0  0  0  0  0
   43.9061   36.8699   44.5193 H   0  0  0  0  0  0  0  0  0  0  0  0
   45.4474   36.4875   42.5491 H   0  0  0  0  0  0  0  0  0  0  0  0
   45.4416   33.4259   46.4220 H   0  0  0  0  0  0  0  0  0  0  0  0
   44.2009   35.1063   40.1931 H   0  0  0  0  0  0  0  0  0  0  0  0
   42.3173   33.6613   39.6539 H   0  0  0  0  0  0  0  0  0  0  0  0
   42.5869   31.1730   39.8484 H   0  0  0  0  0  0  0  0  0  0  0  0
   44.7914   30.2686   40.5958 H   0  0  0  0  0  0  0  0  0  0  0  0
   46.6595   31.7596   41.1315 H   0  0  0  0  0  0  0  0  0  0  0  0
  1  2  1  0
  1  9  1  0
  3  2  1  0
  4  3  1  0
  5  4  1  0
  5  6  1  0
  6  1  1  0
  7 12  2  0
  8  9  2  0
  8  7  1  0
  9 10  1  0
 10 11  2  0
 12 11  1  0
 13 18  1  0
 13  6  1  0
 14 13  2  0
 15 16  2  0
 15 14  1  0
 16 17  1  0
 17 18  2  0
  2 19  1  0
  2 20  1  0
  3 21  1  0
  3 22  1  0
  5 23  1  0
  5 24  1  0
  6 25  1  6
  7 26  1  0
  8 27  1  0
 11 28  1  0
 14 29  1  0
 15 30  1  0
 16 31  1  0
 17 32  1  0
 18 33  1  0
M  ISO  8  19  13  20  13  21  13  22  13  23  13  24  13  25  13  26  14
M  ISO  7  27  14  28  14  29  14  30  14  31  14  32  14  33  14
M  END
>  <minimizedAffinity>  (1) 
-4.58316517

>  <minimizedRMSD>  (1) 
0.361670166

$$$$
