
     RDKit          3D

 37 39  0  0  1  0  0  0  0  0999 V2000
   47.2810   34.2800   42.2940 N   0  0  0  0  0  0  0  0  0  0  0  0
   48.6020   33.7900   42.6290 C   0  0  0  0  0  0  0  0  0  0  0  0
   49.2190   32.9540   41.5500 C   0  0  0  0  0  0  0  0  0  0  0  0
   48.7830   33.1750   40.2720 O   0  0  0  0  0  0  0  0  0  0  0  0
   48.1240   34.3350   40.0350 C   0  0  0  0  0  0  0  0  0  0  0  0
   46.8430   34.4260   40.9150 C   0  0  1  0  0  0  0  0  0  0  0  0
   44.6350   36.0380   44.2770 C   0  0  0  0  0  0  0  0  0  0  0  0
   45.5190   35.7510   43.2250 C   0  0  0  0  0  0  0  0  0  0  0  0
   46.3710   34.6360   43.3310 C   0  0  0  0  0  0  0  0  0  0  0  0
   46.2960   33.8730   44.4790 N   0  0  0  0  0  0  0  0  0  0  0  0
   45.4260   34.1960   45.4630 C   0  0  0  0  0  0  0  0  0  0  0  0
   44.6120   35.2570   45.3640 N   0  0  0  0  0  0  0  0  0  0  0  0
   45.9890   33.4340   40.4140 N   0  0  0  0  0  0  0  0  0  0  0  0
   45.9250   33.1510   39.0350 C   0  0  0  0  0  0  0  0  0  0  0  0
   44.4370   32.9110   38.7210 C   0  0  0  0  0  0  0  0  0  0  0  0
   43.8920   31.9860   39.6640 N   0  0  0  0  0  0  0  0  0  0  0  0
   44.8630   31.3180   40.4670 C   0  0  0  0  0  0  0  0  0  0  0  0
   45.7160   32.3000   41.2600 C   0  0  0  0  0  0  0  0  0  0  0  0
   49.2565   34.6537   42.8178 H   0  0  0  0  0  0  0  0  0  0  0  0
   48.4943   33.1475   43.5153 H   0  0  0  0  0  0  0  0  0  0  0  0
   50.3037   33.1359   41.5675 H   0  0  0  0  0  0  0  0  0  0  0  0
   48.9206   31.9207   41.7809 H   0  0  0  0  0  0  0  0  0  0  0  0
   48.7857   35.1815   40.2708 H   0  0  0  0  0  0  0  0  0  0  0  0
   47.8298   34.3661   38.9755 H   0  0  0  0  0  0  0  0  0  0  0  0
   46.2815   35.3715   40.8871 H   0  0  0  0  0  0  0  0  0  0  0  0
   43.9611   36.9047   44.2082 H   0  0  0  0  0  0  0  0  0  0  0  0
   45.5454   36.3893   42.3295 H   0  0  0  0  0  0  0  0  0  0  0  0
   45.3851   33.5721   46.3680 H   0  0  0  0  0  0  0  0  0  0  0  0
   46.3065   34.0021   38.4518 H   0  0  0  0  0  0  0  0  0  0  0  0
   46.5386   32.2762   38.7738 H   0  0  0  0  0  0  0  0  0  0  0  0
   43.8909   33.8637   38.7850 H   0  0  0  0  0  0  0  0  0  0  0  0
   44.3394   32.4985   37.7059 H   0  0  0  0  0  0  0  0  0  0  0  0
   43.2568   32.5015   40.2898 H   0  0  0  0  0  0  0  0  0  0  0  0
   44.3443   30.6492   41.1696 H   0  0  0  0  0  0  0  0  0  0  0  0
   45.5276   30.7515   39.7981 H   0  0  0  0  0  0  0  0  0  0  0  0
   46.6599   31.8197   41.5572 H   0  0  0  0  0  0  0  0  0  0  0  0
   45.1864   32.6196   42.1696 H   0  0  0  0  0  0  0  0  0  0  0  0
  1  2  1  0
  1  9  1  0
  3  2  1  0
  4  3  1  0
  5  4  1  0
  5  6  1  0
  6  1  1  0
  7 12  2  0
  8  9  2  0
  8  7  1  0
  9 10  1  0
 10 11  2  0
 12 11  1  0
 13  6  1  0
 13 18  1  0
 14 13  1  0
 15 14  1  0
 15 16  1  0
 16 17  1  0
 17 18  1  0
  2 19  1  0
  2 20  1  0
  3 21  1  0
  3 22  1  0
  5 23  1  0
  5 24  1  0
  6 25  1  1
  7 26  1  0
  8 27  1  0
 11 28  1  0
 14 29  1  0
 14 30  1  0
 15 31  1  0
 15 32  1  0
 16 33  1  0
 17 34  1  0
 17 35  1  0
 18 36  1  0
 18 37  1  0
M  ISO  8  19  13  20  13  21  13  22  13  23  13  24  13  25  13  26  14
M  ISO  8  27  14  28  14  29  13  30  13  31  13  32  13  33   5  34  13
M  ISO  3  35  13  36  13  37  13
M  END
>  <minimizedAffinity>  (1) 
-4.45611858

>  <minimizedRMSD>  (1) 
0.581552684

$$$$
