
     RDKit          3D

 31 33  0  0  1  0  0  0  0  0999 V2000
   47.1820   34.3240   42.3690 N   0  0  0  0  0  0  0  0  0  0  0  0
   48.5290   33.9070   42.5910 C   0  0  0  0  0  0  0  0  0  0  0  0
   49.1290   33.1300   41.4850 C   0  0  0  0  0  0  0  0  0  0  0  0
   48.5400   33.2090   40.2510 O   0  0  0  0  0  0  0  0  0  0  0  0
   47.7460   34.2890   40.0080 C   0  0  0  0  0  0  0  0  0  0  0  0
   46.6240   34.4560   41.0300 C   0  0  1  0  0  0  0  0  0  0  0  0
   44.6070   35.9960   44.5240 C   0  0  0  0  0  0  0  0  0  0  0  0
   45.4470   35.7490   43.4330 C   0  0  0  0  0  0  0  0  0  0  0  0
   46.2970   34.6400   43.4490 C   0  0  0  0  0  0  0  0  0  0  0  0
   46.2510   33.8480   44.5590 N   0  0  0  0  0  0  0  0  0  0  0  0
   45.4480   34.0810   45.6050 C   0  0  0  0  0  0  0  0  0  0  0  0
   44.6250   35.1570   45.5870 N   0  0  0  0  0  0  0  0  0  0  0  0
   45.5290   33.5120   40.7720 C   0  0  0  0  0  0  0  0  0  0  0  0
   44.3190   33.9880   40.3110 C   0  0  0  0  0  0  0  0  0  0  0  0
   43.2360   33.1480   40.0450 C   0  0  0  0  0  0  0  0  0  0  0  0
   43.3710   31.8250   40.2430 N   0  0  0  0  0  0  0  0  0  0  0  0
   44.5660   31.3610   40.6970 C   0  0  0  0  0  0  0  0  0  0  0  0
   45.6250   32.1740   40.9570 N   0  0  0  0  0  0  0  0  0  0  0  0
   49.1433   34.8055   42.7503 H   0  0  0  0  0  0  0  0  0  0  0  0
   48.5054   33.2365   43.4627 H   0  0  0  0  0  0  0  0  0  0  0  0
   50.1693   33.4695   41.3734 H   0  0  0  0  0  0  0  0  0  0  0  0
   48.9994   32.0796   41.7849 H   0  0  0  0  0  0  0  0  0  0  0  0
   48.3718   35.1935   40.0257 H   0  0  0  0  0  0  0  0  0  0  0  0
   47.2728   34.1314   39.0276 H   0  0  0  0  0  0  0  0  0  0  0  0
   46.1809   35.4589   40.9417 H   0  0  0  0  0  0  0  0  0  0  0  0
   43.9354   36.8671   44.5185 H   0  0  0  0  0  0  0  0  0  0  0  0
   45.4384   36.4254   42.5656 H   0  0  0  0  0  0  0  0  0  0  0  0
   45.4565   33.4041   46.4720 H   0  0  0  0  0  0  0  0  0  0  0  0
   44.2032   35.0695   40.1469 H   0  0  0  0  0  0  0  0  0  0  0  0
   42.2854   33.5628   39.6785 H   0  0  0  0  0  0  0  0  0  0  0  0
   44.6813   30.2795   40.8614 H   0  0  0  0  0  0  0  0  0  0  0  0
  1  2  1  0
  1  9  1  0
  3  2  1  0
  4  3  1  0
  5  4  1  0
  5  6  1  0
  6  1  1  0
  7 12  2  0
  8  9  2  0
  8  7  1  0
  9 10  1  0
 10 11  2  0
 12 11  1  0
 13 18  1  0
 13  6  1  0
 14 13  2  0
 15 16  2  0
 15 14  1  0
 16 17  1  0
 17 18  2  0
  2 19  1  0
  2 20  1  0
  3 21  1  0
  3 22  1  0
  5 23  1  0
  5 24  1  0
  6 25  1  1
  7 26  1  0
  8 27  1  0
 11 28  1  0
 14 29  1  0
 15 30  1  0
 17 31  1  0
M  ISO  8  19  13  20  13  21  13  22  13  23  13  24  13  25  13  26  14
M  ISO  5  27  14  28  14  29  14  30  14  31  14
M  END
>  <minimizedAffinity>  (1) 
-4.48881865

>  <minimizedRMSD>  (1) 
0.935100019

$$$$
