
     RDKit          3D

 33 35  0  0  1  0  0  0  0  0999 V2000
   47.1970   34.3270   42.3540 N   0  0  0  0  0  0  0  0  0  0  0  0
   48.5220   33.8730   42.5770 C   0  0  0  0  0  0  0  0  0  0  0  0
   49.1570   33.1390   41.4640 C   0  0  0  0  0  0  0  0  0  0  0  0
   48.5400   33.1890   40.2380 O   0  0  0  0  0  0  0  0  0  0  0  0
   47.7860   34.3020   39.9980 C   0  0  0  0  0  0  0  0  0  0  0  0
   46.6650   34.5010   41.0090 C   0  0  1  0  0  0  0  0  0  0  0  0
   44.6080   35.9920   44.5040 C   0  0  0  0  0  0  0  0  0  0  0  0
   45.4570   35.7380   43.4230 C   0  0  0  0  0  0  0  0  0  0  0  0
   46.3180   34.6370   43.4180 C   0  0  0  0  0  0  0  0  0  0  0  0
   46.2640   33.8430   44.5340 N   0  0  0  0  0  0  0  0  0  0  0  0
   45.4500   34.0800   45.5760 C   0  0  0  0  0  0  0  0  0  0  0  0
   44.6260   35.1570   45.5520 N   0  0  0  0  0  0  0  0  0  0  0  0
   45.5570   33.5570   40.7710 C   0  0  0  0  0  0  0  0  0  0  0  0
   45.6860   32.1880   40.9940 C   0  0  0  0  0  0  0  0  0  0  0  0
   44.6340   31.2970   40.7670 C   0  0  0  0  0  0  0  0  0  0  0  0
   43.4190   31.7980   40.3020 C   0  0  0  0  0  0  0  0  0  0  0  0
   43.2840   33.1630   40.0770 C   0  0  0  0  0  0  0  0  0  0  0  0
   44.3430   34.0300   40.3100 C   0  0  0  0  0  0  0  0  0  0  0  0
   49.1451   34.7522   42.7976 H   0  0  0  0  0  0  0  0  0  0  0  0
   48.4497   33.1497   43.4026 H   0  0  0  0  0  0  0  0  0  0  0  0
   50.1721   33.5440   41.3388 H   0  0  0  0  0  0  0  0  0  0  0  0
   49.1059   32.0810   41.7606 H   0  0  0  0  0  0  0  0  0  0  0  0
   48.4443   35.1827   40.0290 H   0  0  0  0  0  0  0  0  0  0  0  0
   47.3156   34.1699   39.0125 H   0  0  0  0  0  0  0  0  0  0  0  0
   46.2644   35.5193   40.8970 H   0  0  0  0  0  0  0  0  0  0  0  0
   43.9362   36.8629   44.4946 H   0  0  0  0  0  0  0  0  0  0  0  0
   45.4473   36.4184   42.5587 H   0  0  0  0  0  0  0  0  0  0  0  0
   45.4517   33.4043   46.4440 H   0  0  0  0  0  0  0  0  0  0  0  0
   46.6463   31.7961   41.3603 H   0  0  0  0  0  0  0  0  0  0  0  0
   44.7621   30.2202   40.9518 H   0  0  0  0  0  0  0  0  0  0  0  0
   42.5742   31.1188   40.1147 H   0  0  0  0  0  0  0  0  0  0  0  0
   42.3265   33.5611   39.7099 H   0  0  0  0  0  0  0  0  0  0  0  0
   44.2142   35.1067   40.1254 H   0  0  0  0  0  0  0  0  0  0  0  0
  1  2  1  0
  1  9  1  0
  3  2  1  0
  4  3  1  0
  5  4  1  0
  5  6  1  0
  6  1  1  0
  7 12  2  0
  8  7  1  0
  9  8  2  0
  9 10  1  0
 10 11  2  0
 12 11  1  0
 13 14  2  0
 13  6  1  0
 15 14  1  0
 16 15  2  0
 17 16  1  0
 17 18  2  0
 18 13  1  0
  2 19  1  0
  2 20  1  0
  3 21  1  0
  3 22  1  0
  5 23  1  0
  5 24  1  0
  6 25  1  1
  7 26  1  0
  8 27  1  0
 11 28  1  0
 14 29  1  0
 15 30  1  0
 16 31  1  0
 17 32  1  0
 18 33  1  0
M  ISO  8  19  13  20  13  21  13  22  13  23  13  24  13  25  13  26  14
M  ISO  7  27  14  28  14  29  14  30  14  31  14  32  14  33  14
M  END
>  <minimizedAffinity>  (1) 
-4.51004219

>  <minimizedRMSD>  (1) 
0.861733139

$$$$
