
     RDKit          3D

 30 32  0  0  1  0  0  0  0  0999 V2000
   47.2540   34.3780   42.3100 N   0  0  0  0  0  0  0  0  0  0  0  0
   48.6220   34.0300   42.5820 C   0  0  0  0  0  0  0  0  0  0  0  0
   49.3230   33.2790   41.5260 C   0  0  0  0  0  0  0  0  0  0  0  0
   48.7470   33.2460   40.2890 O   0  0  0  0  0  0  0  0  0  0  0  0
   47.9280   34.3110   39.9800 C   0  0  0  0  0  0  0  0  0  0  0  0
   46.7680   34.4200   40.9580 C   0  0  1  0  0  0  0  0  0  0  0  0
   44.6270   36.0420   44.3890 C   0  0  0  0  0  0  0  0  0  0  0  0
   45.5000   35.7980   43.3070 C   0  0  0  0  0  0  0  0  0  0  0  0
   46.3480   34.6880   43.3590 C   0  0  0  0  0  0  0  0  0  0  0  0
   46.2830   33.8870   44.4720 N   0  0  0  0  0  0  0  0  0  0  0  0
   45.4380   34.1470   45.4870 C   0  0  0  0  0  0  0  0  0  0  0  0
   44.6200   35.2080   45.4520 N   0  0  0  0  0  0  0  0  0  0  0  0
   45.7630   33.4310   40.6610 C   0  0  0  0  0  0  0  0  0  0  0  0
   45.7810   32.0630   40.6450 C   0  0  0  0  0  0  0  0  0  0  0  0
   44.6380   31.3750   40.3150 C   0  0  0  0  0  0  0  0  0  0  0  0
   43.5050   32.1290   40.0080 C   0  0  0  0  0  0  0  0  0  0  0  0
   44.0030   33.8450   40.1720 S   0  0  0  0  0  0  0  0  0  0  0  0
   49.1778   34.9632   42.7559 H   0  0  0  0  0  0  0  0  0  0  0  0
   48.5878   33.3557   43.4504 H   0  0  0  0  0  0  0  0  0  0  0  0
   50.3223   33.7246   41.4126 H   0  0  0  0  0  0  0  0  0  0  0  0
   49.3105   32.2340   41.8693 H   0  0  0  0  0  0  0  0  0  0  0  0
   48.5174   35.2390   40.0187 H   0  0  0  0  0  0  0  0  0  0  0  0
   47.5176   34.1515   38.9720 H   0  0  0  0  0  0  0  0  0  0  0  0
   46.2692   35.3938   40.8447 H   0  0  0  0  0  0  0  0  0  0  0  0
   43.9527   36.9108   44.3668 H   0  0  0  0  0  0  0  0  0  0  0  0
   45.5128   36.4706   42.4367 H   0  0  0  0  0  0  0  0  0  0  0  0
   45.4185   33.4776   46.3596 H   0  0  0  0  0  0  0  0  0  0  0  0
   46.7034   31.5180   40.8944 H   0  0  0  0  0  0  0  0  0  0  0  0
   44.6173   30.2754   40.2938 H   0  0  0  0  0  0  0  0  0  0  0  0
   42.5121   31.7500   39.7242 H   0  0  0  0  0  0  0  0  0  0  0  0
  1  2  1  0
  1  9  1  0
  3  2  1  0
  4  3  1  0
  5  4  1  0
  5  6  1  0
  6  1  1  0
  7 12  2  0
  8  9  2  0
  8  7  1  0
  9 10  1  0
 10 11  2  0
 12 11  1  0
 13  6  1  0
 14 13  2  0
 15 14  1  0
 16 17  1  0
 16 15  2  0
 17 13  1  0
  2 18  1  0
  2 19  1  0
  3 20  1  0
  3 21  1  0
  5 22  1  0
  5 23  1  0
  6 24  1  6
  7 25  1  0
  8 26  1  0
 11 27  1  0
 14 28  1  0
 15 29  1  0
 16 30  1  0
M  ISO  8  18  13  19  13  20  13  21  13  22  13  23  13  24  13  25  14
M  ISO  5  26  14  27  14  28  14  29  14  30  14
M  END
>  <minimizedAffinity>  (1) 
-4.3770833

>  <minimizedRMSD>  (1) 
0.253000498

$$$$
