
     RDKit          3D

 28 30  0  0  1  0  0  0  0  0999 V2000
   47.2820   34.3360   42.2910 N   0  0  0  0  0  0  0  0  0  0  0  0
   48.6070   33.8700   42.5960 C   0  0  0  0  0  0  0  0  0  0  0  0
   49.2920   33.1360   41.5140 C   0  0  0  0  0  0  0  0  0  0  0  0
   48.7620   33.2150   40.2630 O   0  0  0  0  0  0  0  0  0  0  0  0
   48.0200   34.3420   39.9910 C   0  0  0  0  0  0  0  0  0  0  0  0
   46.8280   34.4870   40.9370 C   0  0  1  0  0  0  0  0  0  0  0  0
   44.6510   36.0510   44.3360 C   0  0  0  0  0  0  0  0  0  0  0  0
   45.5240   35.7950   43.2710 C   0  0  0  0  0  0  0  0  0  0  0  0
   46.3690   34.6690   43.3280 C   0  0  0  0  0  0  0  0  0  0  0  0
   46.2710   33.8960   44.4460 N   0  0  0  0  0  0  0  0  0  0  0  0
   45.4350   34.1490   45.4580 C   0  0  0  0  0  0  0  0  0  0  0  0
   44.6220   35.2290   45.4060 N   0  0  0  0  0  0  0  0  0  0  0  0
   45.7960   33.4760   40.6010 C   0  0  0  0  0  0  0  0  0  0  0  0
   45.8380   32.1840   40.9810 N   0  0  0  0  0  0  0  0  0  0  0  0
   44.7800   31.6020   40.5130 O   0  0  0  0  0  0  0  0  0  0  0  0
   44.0570   32.4670   39.8450 C   0  0  0  0  0  0  0  0  0  0  0  0
   44.6850   33.6660   39.8880 N   0  0  0  0  0  0  0  0  0  0  0  0
   49.2222   34.7449   42.8530 H   0  0  0  0  0  0  0  0  0  0  0  0
   48.4896   33.1500   43.4193 H   0  0  0  0  0  0  0  0  0  0  0  0
   50.3223   33.5174   41.4592 H   0  0  0  0  0  0  0  0  0  0  0  0
   49.1943   32.0760   41.7914 H   0  0  0  0  0  0  0  0  0  0  0  0
   48.6660   35.2261   40.0962 H   0  0  0  0  0  0  0  0  0  0  0  0
   47.6305   34.2523   38.9662 H   0  0  0  0  0  0  0  0  0  0  0  0
   46.3757   35.4836   40.8268 H   0  0  0  0  0  0  0  0  0  0  0  0
   43.9858   36.9263   44.3001 H   0  0  0  0  0  0  0  0  0  0  0  0
   45.5496   36.4658   42.3996 H   0  0  0  0  0  0  0  0  0  0  0  0
   45.4082   33.4805   46.3311 H   0  0  0  0  0  0  0  0  0  0  0  0
   43.1045   32.2557   39.3370 H   0  0  0  0  0  0  0  0  0  0  0  0
  1  2  1  0
  1  9  1  0
  3  2  1  0
  4  3  1  0
  5  4  1  0
  5  6  1  0
  6  1  1  0
  7 12  2  0
  8  9  2  0
  8  7  1  0
  9 10  1  0
 10 11  2  0
 12 11  1  0
 13  6  1  0
 13 14  2  0
 15 14  1  0
 16 17  2  0
 16 15  1  0
 17 13  1  0
  2 18  1  0
  2 19  1  0
  3 20  1  0
  3 21  1  0
  5 22  1  0
  5 23  1  0
  6 24  1  1
  7 25  1  0
  8 26  1  0
 11 27  1  0
 16 28  1  0
M  ISO  8  18  13  19  13  20  13  21  13  22  13  23  13  24  13  25  14
M  ISO  3  26  14  27  14  28  14
M  END
>  <minimizedAffinity>  (1) 
-4.33293867

>  <minimizedRMSD>  (1) 
0.601189017

$$$$
