
     RDKit          3D

 29 31  0  0  1  0  0  0  0  0999 V2000
   47.2670   34.3140   42.3220 N   0  0  0  0  0  0  0  0  0  0  0  0
   48.5760   33.8380   42.5860 C   0  0  0  0  0  0  0  0  0  0  0  0
   49.2120   33.0410   41.5080 C   0  0  0  0  0  0  0  0  0  0  0  0
   48.6960   33.1680   40.2590 O   0  0  0  0  0  0  0  0  0  0  0  0
   47.9670   34.2920   39.9850 C   0  0  0  0  0  0  0  0  0  0  0  0
   46.7980   34.4660   40.9540 C   0  0  1  0  0  0  0  0  0  0  0  0
   44.6470   36.0620   44.3440 C   0  0  0  0  0  0  0  0  0  0  0  0
   45.5220   35.7810   43.2850 C   0  0  0  0  0  0  0  0  0  0  0  0
   46.3570   34.6610   43.3510 C   0  0  0  0  0  0  0  0  0  0  0  0
   46.2740   33.8730   44.4820 N   0  0  0  0  0  0  0  0  0  0  0  0
   45.4160   34.1770   45.4810 C   0  0  0  0  0  0  0  0  0  0  0  0
   44.6180   35.2530   45.4120 N   0  0  0  0  0  0  0  0  0  0  0  0
   45.7470   33.5290   40.6600 N   0  0  0  0  0  0  0  0  0  0  0  0
   45.6810   32.1990   40.8090 C   0  0  0  0  0  0  0  0  0  0  0  0
   44.4920   31.7290   40.3990 N   0  0  0  0  0  0  0  0  0  0  0  0
   43.7970   32.7840   39.9830 C   0  0  0  0  0  0  0  0  0  0  0  0
   44.5630   33.8640   40.1460 N   0  0  0  0  0  0  0  0  0  0  0  0
   49.2173   34.7100   42.7819 H   0  0  0  0  0  0  0  0  0  0  0  0
   48.4735   33.1512   43.4391 H   0  0  0  0  0  0  0  0  0  0  0  0
   50.2713   33.3337   41.4603 H   0  0  0  0  0  0  0  0  0  0  0  0
   49.0316   31.9919   41.7853 H   0  0  0  0  0  0  0  0  0  0  0  0
   48.6254   35.1698   40.0615 H   0  0  0  0  0  0  0  0  0  0  0  0
   47.5551   34.1910   38.9700 H   0  0  0  0  0  0  0  0  0  0  0  0
   46.3830   35.4777   40.8349 H   0  0  0  0  0  0  0  0  0  0  0  0
   43.9880   36.9416   44.2984 H   0  0  0  0  0  0  0  0  0  0  0  0
   45.5516   36.4398   42.4046 H   0  0  0  0  0  0  0  0  0  0  0  0
   45.3712   33.5289   46.3687 H   0  0  0  0  0  0  0  0  0  0  0  0
   46.4923   31.5757   41.2131 H   0  0  0  0  0  0  0  0  0  0  0  0
   42.7746   32.7687   39.5775 H   0  0  0  0  0  0  0  0  0  0  0  0
  1  2  1  0
  1  9  1  0
  3  2  1  0
  4  3  1  0
  5  4  1  0
  5  6  1  0
  6  1  1  0
  7 12  2  0
  8  9  2  0
  8  7  1  0
  9 10  1  0
 10 11  2  0
 12 11  1  0
 13 14  1  0
 13  6  1  0
 15 14  2  0
 16 17  2  0
 16 15  1  0
 17 13  1  0
  2 18  1  0
  2 19  1  0
  3 20  1  0
  3 21  1  0
  5 22  1  0
  5 23  1  0
  6 24  1  1
  7 25  1  0
  8 26  1  0
 11 27  1  0
 14 28  1  0
 16 29  1  0
M  ISO  8  18  13  19  13  20  13  21  13  22  13  23  13  24  13  25  14
M  ISO  4  26  14  27  14  28  14  29  14
M  END
>  <minimizedAffinity>  (1) 
-4.35682058

>  <minimizedRMSD>  (1) 
0.703471065

$$$$
