
     RDKit          3D

 32 33  0  0  1  0  0  0  0  0999 V2000
   47.2780   34.4280   42.3100 N   0  0  0  0  0  0  0  0  0  0  0  0
   48.6700   34.1520   42.6100 C   0  0  0  0  0  0  0  0  0  0  0  0
   49.3930   33.3810   41.5790 C   0  0  0  0  0  0  0  0  0  0  0  0
   48.8240   33.2840   40.3540 O   0  0  0  0  0  0  0  0  0  0  0  0
   47.9950   34.3240   40.0010 C   0  0  0  0  0  0  0  0  0  0  0  0
   46.7960   34.4240   40.9650 C   0  0  1  0  0  0  0  0  0  0  0  0
   44.6390   36.1120   44.3520 C   0  0  0  0  0  0  0  0  0  0  0  0
   45.5370   35.8540   43.3050 C   0  0  0  0  0  0  0  0  0  0  0  0
   46.3720   34.7140   43.3550 C   0  0  0  0  0  0  0  0  0  0  0  0
   46.2630   33.8910   44.4590 N   0  0  0  0  0  0  0  0  0  0  0  0
   45.3840   34.1820   45.4430 C   0  0  0  0  0  0  0  0  0  0  0  0
   44.5860   35.2690   45.3960 N   0  0  0  0  0  0  0  0  0  0  0  0
   45.7660   33.4190   40.6070 C   0  0  0  0  0  0  0  0  0  0  0  0
   46.0350   32.5900   39.3940 C   0  0  0  0  0  0  0  0  0  0  0  0
   44.3770   33.9990   40.4670 C   0  0  0  0  0  0  0  0  0  0  0  0
   49.1873   35.1139   42.7412 H   0  0  0  0  0  0  0  0  0  0  0  0
   48.6697   33.5270   43.5152 H   0  0  0  0  0  0  0  0  0  0  0  0
   50.3788   33.8511   41.4476 H   0  0  0  0  0  0  0  0  0  0  0  0
   49.4091   32.3498   41.9617 H   0  0  0  0  0  0  0  0  0  0  0  0
   48.5636   35.2651   40.0347 H   0  0  0  0  0  0  0  0  0  0  0  0
   47.6147   34.1408   38.9852 H   0  0  0  0  0  0  0  0  0  0  0  0
   46.2545   35.3767   40.8688 H   0  0  0  0  0  0  0  0  0  0  0  0
   43.9851   36.9959   44.3179 H   0  0  0  0  0  0  0  0  0  0  0  0
   45.5913   36.5384   42.4456 H   0  0  0  0  0  0  0  0  0  0  0  0
   45.3167   33.5103   46.3115 H   0  0  0  0  0  0  0  0  0  0  0  0
   45.8241   32.7525   41.4801 H   0  0  0  0  0  0  0  0  0  0  0  0
   46.3610   31.5854   39.7014 H   0  0  0  0  0  0  0  0  0  0  0  0
   45.1168   32.5098   38.7937 H   0  0  0  0  0  0  0  0  0  0  0  0
   46.8254   33.0643   38.7937 H   0  0  0  0  0  0  0  0  0  0  0  0
   43.9515   34.1767   41.4657 H   0  0  0  0  0  0  0  0  0  0  0  0
   44.4305   34.9500   39.9167 H   0  0  0  0  0  0  0  0  0  0  0  0
   43.7383   33.2924   39.9167 H   0  0  0  0  0  0  0  0  0  0  0  0
  1  2  1  0
  1  9  1  0
  3  2  1  0
  4  3  1  0
  5  4  1  0
  5  6  1  0
  6  1  1  0
  7 12  2  0
  8  9  2  0
  8  7  1  0
  9 10  1  0
 10 11  2  0
 12 11  1  0
 13  6  1  0
 14 13  1  0
 15 13  1  0
  2 16  1  0
  2 17  1  0
  3 18  1  0
  3 19  1  0
  5 20  1  0
  5 21  1  0
  6 22  1  6
  7 23  1  0
  8 24  1  0
 11 25  1  0
 13 26  1  0
 14 27  1  0
 14 28  1  0
 14 29  1  0
 15 30  1  0
 15 31  1  0
 15 32  1  0
M  ISO  8  16  13  17  13  18  13  19  13  20  13  21  13  22  13  23  14
M  ISO  8  24  14  25  14  26   8  27   8  28   8  29   8  30   8  31   8
M  ISO  1  32   8
M  END
>  <minimizedAffinity>  (1) 
-4.33642197

>  <minimizedRMSD>  (1) 
0.119096488

$$$$
