
     RDKit          3D

 26 27  0  0  1  0  0  0  0  0999 V2000
   47.3170   34.4300   42.2950 N   0  0  0  0  0  0  0  0  0  0  0  0
   48.6520   34.0680   42.6020 C   0  0  0  0  0  0  0  0  0  0  0  0
   49.3800   33.3160   41.5680 C   0  0  0  0  0  0  0  0  0  0  0  0
   48.8340   33.2790   40.3170 O   0  0  0  0  0  0  0  0  0  0  0  0
   47.9970   34.3100   39.9680 C   0  0  0  0  0  0  0  0  0  0  0  0
   46.8470   34.5030   40.9390 C   0  0  1  0  0  0  0  0  0  0  0  0
   44.6500   36.1250   44.3280 C   0  0  0  0  0  0  0  0  0  0  0  0
   45.5560   35.8920   43.2630 C   0  0  0  0  0  0  0  0  0  0  0  0
   46.3750   34.7390   43.3270 C   0  0  0  0  0  0  0  0  0  0  0  0
   46.2400   33.9170   44.4200 N   0  0  0  0  0  0  0  0  0  0  0  0
   45.3670   34.1790   45.4060 C   0  0  0  0  0  0  0  0  0  0  0  0
   44.5810   35.2730   45.3590 N   0  0  0  0  0  0  0  0  0  0  0  0
   45.7150   33.5420   40.6510 C   0  0  0  0  0  0  0  0  0  0  0  0
   45.7410   32.5260   41.5570 F   0  0  0  0  0  0  0  0  0  0  0  0
   44.5340   34.2710   40.8290 F   0  0  0  0  0  0  0  0  0  0  0  0
   45.8440   33.1350   39.3380 F   0  0  0  0  0  0  0  0  0  0  0  0
   49.2127   34.9935   42.7999 H   0  0  0  0  0  0  0  0  0  0  0  0
   48.5795   33.3865   43.4624 H   0  0  0  0  0  0  0  0  0  0  0  0
   50.3811   33.7630   41.4781 H   0  0  0  0  0  0  0  0  0  0  0  0
   49.3620   32.2720   41.9140 H   0  0  0  0  0  0  0  0  0  0  0  0
   48.5839   35.2397   39.9324 H   0  0  0  0  0  0  0  0  0  0  0  0
   47.5599   34.0587   38.9904 H   0  0  0  0  0  0  0  0  0  0  0  0
   46.4299   35.5111   40.7985 H   0  0  0  0  0  0  0  0  0  0  0  0
   43.9992   37.0116   44.3075 H   0  0  0  0  0  0  0  0  0  0  0  0
   45.6208   36.5863   42.4123 H   0  0  0  0  0  0  0  0  0  0  0  0
   45.2924   33.4926   46.2623 H   0  0  0  0  0  0  0  0  0  0  0  0
  1  2  1  0
  1  9  1  0
  3  2  1  0
  4  3  1  0
  5  4  1  0
  5  6  1  0
  6  1  1  0
  7 12  2  0
  8  9  2  0
  8  7  1  0
  9 10  1  0
 10 11  2  0
 12 11  1  0
 13 15  1  0
 13  6  1  0
 13 14  1  0
 16 13  1  0
  2 17  1  0
  2 18  1  0
  3 19  1  0
  3 20  1  0
  5 21  1  0
  5 22  1  0
  6 23  1  6
  7 24  1  0
  8 25  1  0
 11 26  1  0
M  ISO  8  17  13  18  13  19  13  20  13  21  13  22  13  23  13  24  14
M  ISO  2  25  14  26  14
M  END
>  <minimizedAffinity>  (1) 
-4.36563635

>  <minimizedRMSD>  (1) 
0.414947182

$$$$
