
     RDKit          3D

 52 55  0  0  1  0  0  0  0  0999 V2000
   45.6040   34.2820   42.2280 C   0  0  0  0  0  0  0  0  0  0  0  0
   46.9990   34.2400   42.3090 C   0  0  0  0  0  0  0  0  0  0  0  0
   47.5930   33.8960   43.5410 C   0  0  0  0  0  0  0  0  0  0  0  0
   46.8080   33.6210   44.5920 N   0  0  0  0  0  0  0  0  0  0  0  0
   45.4620   33.6630   44.5070 C   0  0  0  0  0  0  0  0  0  0  0  0
   44.8930   33.9860   43.3510 N   0  0  0  0  0  0  0  0  0  0  0  0
   44.8520   34.6570   41.0850 C   0  0  0  0  0  0  0  0  0  0  0  0
   44.3330   33.3820   40.3440 C   0  0  0  0  0  0  0  0  0  0  0  0
   43.3080   34.0560   39.3950 C   0  0  0  0  0  0  0  0  0  0  0  0
   42.8070   35.2350   40.1580 C   0  0  0  0  0  0  0  0  0  0  0  0
   43.5330   35.2370   41.4920 C   0  0  0  0  0  0  0  0  0  0  0  0
   47.8380   34.5630   41.1450 C   0  0  1  0  0  0  0  0  0  0  0  0
   48.8560   35.6020   41.4190 C   0  0  0  0  0  0  0  0  0  0  0  0
   48.3760   33.2740   40.5850 C   0  0  0  0  0  0  0  0  0  0  0  0
   48.5290   33.3280   39.1440 N   0  0  0  0  0  0  0  0  0  0  0  0
   48.0320   34.4290   38.5820 N   0  0  0  0  0  0  0  0  0  0  0  0
   48.2270   34.3730   37.2570 C   0  0  0  0  0  0  0  0  0  0  0  0
   48.8700   33.1990   36.9620 C   0  0  0  0  0  0  0  0  0  0  0  0
   49.0470   32.5620   38.1670 C   0  0  0  0  0  0  0  0  0  0  0  0
   49.6690   31.2770   38.5200 C   0  0  0  0  0  0  0  0  0  0  0  0
   49.9840   30.4590   37.3170 C   0  0  0  0  0  0  0  0  0  0  0  0
   51.3640   30.8930   36.8630 C   0  0  0  0  0  0  0  0  0  0  0  0
   51.9500   31.6750   38.0020 C   0  0  0  0  0  0  0  0  0  0  0  0
   50.9990   31.5470   39.1560 C   0  0  0  0  0  0  0  0  0  0  0  0
   48.6879   33.8539   43.6382 H   0  0  0  0  0  0  0  0  0  0  0  0
   44.8423   33.4321   45.3860 H   0  0  0  0  0  0  0  0  0  0  0  0
   45.5082   35.3225   40.5050 H   0  0  0  0  0  0  0  0  0  0  0  0
   45.1346   32.8714   39.7902 H   0  0  0  0  0  0  0  0  0  0  0  0
   43.9296   32.5891   40.9910 H   0  0  0  0  0  0  0  0  0  0  0  0
   42.4837   33.3662   39.1609 H   0  0  0  0  0  0  0  0  0  0  0  0
   43.7567   34.3423   38.4323 H   0  0  0  0  0  0  0  0  0  0  0  0
   43.0243   36.1622   39.6075 H   0  0  0  0  0  0  0  0  0  0  0  0
   41.7180   35.1774   40.3021 H   0  0  0  0  0  0  0  0  0  0  0  0
   43.0225   34.6046   42.2332 H   0  0  0  0  0  0  0  0  0  0  0  0
   43.5955   36.2215   41.9787 H   0  0  0  0  0  0  0  0  0  0  0  0
   47.2270   35.0445   40.3673 H   0  0  0  0  0  0  0  0  0  0  0  0
   48.9738   35.7222   42.5060 H   0  0  0  0  0  0  0  0  0  0  0  0
   49.8169   35.2994   40.9773 H   0  0  0  0  0  0  0  0  0  0  0  0
   48.5338   36.5565   40.9773 H   0  0  0  0  0  0  0  0  0  0  0  0
   49.3575   33.0723   41.0387 H   0  0  0  0  0  0  0  0  0  0  0  0
   47.6565   32.4758   40.8199 H   0  0  0  0  0  0  0  0  0  0  0  0
   47.9225   35.1397   36.5294 H   0  0  0  0  0  0  0  0  0  0  0  0
   49.1795   32.8415   35.9688 H   0  0  0  0  0  0  0  0  0  0  0  0
   48.9602   30.7482   39.1741 H   0  0  0  0  0  0  0  0  0  0  0  0
   49.9851   29.3891   37.5724 H   0  0  0  0  0  0  0  0  0  0  0  0
   49.2356   30.6054   36.5242 H   0  0  0  0  0  0  0  0  0  0  0  0
   51.9875   30.0139   36.6428 H   0  0  0  0  0  0  0  0  0  0  0  0
   51.3136   31.4968   35.9449 H   0  0  0  0  0  0  0  0  0  0  0  0
   52.9335   31.2651   38.2755 H   0  0  0  0  0  0  0  0  0  0  0  0
   52.0901   32.7299   37.7234 H   0  0  0  0  0  0  0  0  0  0  0  0
   50.9686   32.4789   39.7396 H   0  0  0  0  0  0  0  0  0  0  0  0
   51.2963   30.7523   39.8560 H   0  0  0  0  0  0  0  0  0  0  0  0
  1  2  1  0
  1  6  2  0
  2  3  2  0
  3  4  1  0
  5  4  2  0
  6  5  1  0
  7 11  1  0
  7  1  1  0
  8  7  1  0
  9 10  1  0
  9  8  1  0
 10 11  1  0
 12 13  1  0
 12  2  1  0
 14 12  1  0
 15 14  1  0
 16 15  1  0
 17 16  2  0
 18 17  1  0
 18 19  2  0
 19 20  1  0
 19 15  1  0
 20 24  1  0
 21 20  1  0
 22 21  1  0
 22 23  1  0
 23 24  1  0
  3 25  1  0
  5 26  1  0
  7 27  1  0
  8 28  1  0
  8 29  1  0
  9 30  1  0
  9 31  1  0
 10 32  1  0
 10 33  1  0
 11 34  1  0
 11 35  1  0
 12 36  1  6
 13 37  1  0
 13 38  1  0
 13 39  1  0
 14 40  1  0
 14 41  1  0
 17 42  1  0
 18 43  1  0
 20 44  1  0
 21 45  1  0
 21 46  1  0
 22 47  1  0
 22 48  1  0
 23 49  1  0
 23 50  1  0
 24 51  1  0
 24 52  1  0
M  ISO  8  25  14  26  14  27  13  28  13  29  13  30  13  31  13  32  13
M  ISO  8  33  13  34  13  35  13  36   8  37   8  38   8  39   8  40   8
M  ISO  8  41   8  42  14  43  14  44  13  45  13  46  13  47  13  48  13
M  ISO  4  49  13  50  13  51  13  52  13
M  END
>  <minimizedAffinity>  (1) 
-5.48953056

>  <minimizedRMSD>  (1) 
2.09955764

$$$$
