
     RDKit          3D

 24 25  0  0  1  0  0  0  0  0999 V2000
   46.9470   34.6040   42.0970 N   0  0  0  0  0  0  0  0  0  0  0  0
   48.3460   34.9550   42.0800 C   0  0  0  0  0  0  0  0  0  0  0  0
   49.1890   34.1850   41.1340 C   0  0  0  0  0  0  0  0  0  0  0  0
   48.5530   33.5270   40.1150 O   0  0  0  0  0  0  0  0  0  0  0  0
   47.3130   33.9620   39.7840 C   0  0  0  0  0  0  0  0  0  0  0  0
   46.3410   33.9730   40.9610 C   0  0  2  0  0  0  0  0  0  0  0  0
   44.5600   36.2120   44.4830 C   0  0  0  0  0  0  0  0  0  0  0  0
   45.3410   36.0040   43.3390 C   0  0  0  0  0  0  0  0  0  0  0  0
   46.1420   34.8650   43.2330 C   0  0  0  0  0  0  0  0  0  0  0  0
   46.1300   33.9700   44.2860 N   0  0  0  0  0  0  0  0  0  0  0  0
   45.3570   34.2120   45.3740 C   0  0  0  0  0  0  0  0  0  0  0  0
   44.5890   35.3050   45.4770 N   0  0  0  0  0  0  0  0  0  0  0  0
   45.1720   34.5130   40.5080 O   0  0  0  0  0  0  0  0  0  0  0  0
   48.4245   36.0194   41.8138 H   0  0  0  0  0  0  0  0  0  0  0  0
   48.7276   34.7179   43.0841 H   0  0  0  0  0  0  0  0  0  0  0  0
   49.9011   34.8889   40.6785 H   0  0  0  0  0  0  0  0  0  0  0  0
   49.6411   33.3890   41.7439 H   0  0  0  0  0  0  0  0  0  0  0  0
   47.3960   34.9859   39.3906 H   0  0  0  0  0  0  0  0  0  0  0  0
   46.9113   33.2613   39.0372 H   0  0  0  0  0  0  0  0  0  0  0  0
   46.0950   32.9691   41.3374 H   0  0  0  0  0  0  0  0  0  0  0  0
   43.9286   37.1087   44.5683 H   0  0  0  0  0  0  0  0  0  0  0  0
   45.3233   36.7400   42.5217 H   0  0  0  0  0  0  0  0  0  0  0  0
   45.3608   33.4859   46.2003 H   0  0  0  0  0  0  0  0  0  0  0  0
   44.6082   34.7734   41.2790 H   0  0  0  0  0  0  0  0  0  0  0  0
  1  9  1  0
  2  1  1  0
  3  2  1  0
  4  3  1  0
  5  4  1  0
  5  6  1  0
  6  1  1  0
  7 12  2  0
  8  7  1  0
  9  8  2  0
  9 10  1  0
 10 11  2  0
 11 12  1  0
 13  6  1  0
  2 14  1  0
  2 15  1  0
  3 16  1  0
  3 17  1  0
  5 18  1  0
  5 19  1  0
  6 20  1  1
  7 21  1  0
  8 22  1  0
 11 23  1  0
 13 24  1  0
M  ISO  8  14  13  15  13  16  13  17  13  18  13  19  13  20  13  21  14
M  ISO  3  22  14  23  14  24   3
M  END
>  <minimizedAffinity>  (1) 
-4.23367882

>  <minimizedRMSD>  (1) 
0.63093257

$$$$
