
     RDKit          3D

 24 25  0  0  1  0  0  0  0  0999 V2000
   47.3380   34.3890   42.3150 N   0  0  0  0  0  0  0  0  0  0  0  0
   48.7140   34.1340   42.5830 C   0  0  0  0  0  0  0  0  0  0  0  0
   49.3640   33.2370   41.5770 C   0  0  0  0  0  0  0  0  0  0  0  0
   48.8850   33.2950   40.3110 O   0  0  0  0  0  0  0  0  0  0  0  0
   47.9660   34.2410   39.9760 C   0  0  0  0  0  0  0  0  0  0  0  0
   46.8010   34.3300   40.9620 C   0  0  1  0  0  0  0  0  0  0  0  0
   44.6250   36.0540   44.3030 C   0  0  0  0  0  0  0  0  0  0  0  0
   45.5230   35.8120   43.2590 C   0  0  0  0  0  0  0  0  0  0  0  0
   46.3890   34.7170   43.3330 C   0  0  0  0  0  0  0  0  0  0  0  0
   46.3180   33.9100   44.4530 N   0  0  0  0  0  0  0  0  0  0  0  0
   45.4400   34.1680   45.4500 C   0  0  0  0  0  0  0  0  0  0  0  0
   44.6080   35.2190   45.3790 N   0  0  0  0  0  0  0  0  0  0  0  0
   45.7630   32.8740   40.8280 S   0  0  0  0  0  0  0  0  0  0  0  0
   49.2505   35.0942   42.5908 H   0  0  0  0  0  0  0  0  0  0  0  0
   48.7636   33.6192   43.5539 H   0  0  0  0  0  0  0  0  0  0  0  0
   50.4326   33.4954   41.5413 H   0  0  0  0  0  0  0  0  0  0  0  0
   49.1500   32.2142   41.9206 H   0  0  0  0  0  0  0  0  0  0  0  0
   48.4687   35.2188   39.9407 H   0  0  0  0  0  0  0  0  0  0  0  0
   47.5455   33.9550   39.0006 H   0  0  0  0  0  0  0  0  0  0  0  0
   46.2049   35.2264   40.7361 H   0  0  0  0  0  0  0  0  0  0  0  0
   43.9379   36.9117   44.2558 H   0  0  0  0  0  0  0  0  0  0  0  0
   45.5479   36.4791   42.3847 H   0  0  0  0  0  0  0  0  0  0  0  0
   45.4077   33.5082   46.3296 H   0  0  0  0  0  0  0  0  0  0  0  0
   45.4426   32.4246   42.0819 H   0  0  0  0  0  0  0  0  0  0  0  0
  1  2  1  0
  1  9  1  0
  3  2  1  0
  4  3  1  0
  5  4  1  0
  5  6  1  0
  6  1  1  0
  7 12  2  0
  8  9  2  0
  8  7  1  0
  9 10  1  0
 10 11  2  0
 12 11  1  0
 13  6  1  0
  2 14  1  0
  2 15  1  0
  3 16  1  0
  3 17  1  0
  5 18  1  0
  5 19  1  0
  6 20  1  6
  7 21  1  0
  8 22  1  0
 11 23  1  0
 13 24  1  0
M  ISO  8  14  13  15  13  16  13  17  13  18  13  19  13  20  13  21  14
M  ISO  3  22  14  23  14  24  11
M  END
>  <minimizedAffinity>  (1) 
-4.0946064

>  <minimizedRMSD>  (1) 
0.0730761662

$$$$
