
     RDKit          3D

 42 44  0  0  1  0  0  0  0  0999 V2000
   45.6760   34.4810   41.7690 N   0  0  0  0  0  0  0  0  0  0  0  0
   44.7670   34.9060   42.8070 C   0  0  0  0  0  0  0  0  0  0  0  0
   43.4440   35.3740   42.3200 C   0  0  0  0  0  0  0  0  0  0  0  0
   43.0500   34.9650   41.0880 O   0  0  0  0  0  0  0  0  0  0  0  0
   43.6690   33.8650   40.5790 C   0  0  0  0  0  0  0  0  0  0  0  0
   45.1970   34.0520   40.4830 C   0  0  2  0  0  0  0  0  0  0  0  0
   49.0800   33.5850   43.0450 C   0  0  0  0  0  0  0  0  0  0  0  0
   47.7080   33.5730   42.8420 C   0  0  0  0  0  0  0  0  0  0  0  0
   47.0770   34.4720   41.9950 C   0  0  0  0  0  0  0  0  0  0  0  0
   47.8830   35.3970   41.3490 N   0  0  0  0  0  0  0  0  0  0  0  0
   49.2240   35.3900   41.5650 C   0  0  0  0  0  0  0  0  0  0  0  0
   49.8020   34.4980   42.3970 N   0  0  0  0  0  0  0  0  0  0  0  0
   45.7620   32.7890   39.9810 C   0  0  0  0  0  0  0  0  0  0  0  0
   45.8930   32.5200   38.7930 O   0  0  0  0  0  0  0  0  0  0  0  0
   49.6830   33.5470   37.4290 N   0  0  0  0  0  0  0  0  0  0  0  0
   49.4830   32.3500   38.1780 C   0  0  0  0  0  0  0  0  0  0  0  0
   48.2380   32.4410   39.0230 C   0  0  0  0  0  0  0  0  0  0  0  0
   47.0550   32.5200   38.0790 C   0  0  0  0  0  0  0  0  0  0  0  0
   47.2310   33.7550   37.2340 C   0  0  0  0  0  0  0  0  0  0  0  0
   48.5590   34.4150   37.3420 C   0  0  0  0  0  0  0  0  0  0  0  0
   44.6013   34.0567   43.4862 H   0  0  0  0  0  0  0  0  0  0  0  0
   45.2395   35.7684   43.2998 H   0  0  0  0  0  0  0  0  0  0  0  0
   42.6870   35.0288   43.0396 H   0  0  0  0  0  0  0  0  0  0  0  0
   43.5472   36.4657   42.2333 H   0  0  0  0  0  0  0  0  0  0  0  0
   43.4571   33.0050   41.2313 H   0  0  0  0  0  0  0  0  0  0  0  0
   43.2833   33.6991   39.5623 H   0  0  0  0  0  0  0  0  0  0  0  0
   45.5113   34.8340   39.7761 H   0  0  0  0  0  0  0  0  0  0  0  0
   49.5582   32.8614   43.7216 H   0  0  0  0  0  0  0  0  0  0  0  0
   47.0994   32.8248   43.3709 H   0  0  0  0  0  0  0  0  0  0  0  0
   49.8544   36.1294   41.0493 H   0  0  0  0  0  0  0  0  0  0  0  0
   46.7705   32.7207   40.4148 H   0  0  0  0  0  0  0  0  0  0  0  0
   44.9733   32.0786   40.2698 H   0  0  0  0  0  0  0  0  0  0  0  0
   50.4537   34.0703   37.8684 H   0  0  0  0  0  0  0  0  0  0  0  0
   49.3844   31.5033   37.4828 H   0  0  0  0  0  0  0  0  0  0  0  0
   50.3471   32.2051   38.8430 H   0  0  0  0  0  0  0  0  0  0  0  0
   48.1508   31.5495   39.6614 H   0  0  0  0  0  0  0  0  0  0  0  0
   48.2747   33.3262   39.6750 H   0  0  0  0  0  0  0  0  0  0  0  0
   47.0034   31.6464   37.4125 H   0  0  0  0  0  0  0  0  0  0  0  0
   46.4638   34.4841   37.5338 H   0  0  0  0  0  0  0  0  0  0  0  0
   47.1400   33.4240   36.1889 H   0  0  0  0  0  0  0  0  0  0  0  0
   48.6923   35.0498   36.4536 H   0  0  0  0  0  0  0  0  0  0  0  0
   48.5381   34.9683   38.2925 H   0  0  0  0  0  0  0  0  0  0  0  0
  1  9  1  0
  1  2  1  0
  3  2  1  0
  4  3  1  0
  5  4  1  0
  6  5  1  0
  6  1  1  0
  8  7  2  0
  9  8  1  0
 10 11  1  0
 10  9  2  0
 11 12  2  0
 12  7  1  0
 13  6  1  0
 14 13  1  0
 15 16  1  0
 16 17  1  0
 18 14  1  0
 18 17  1  0
 19 20  1  0
 19 18  1  0
 20 15  1  0
  2 21  1  0
  2 22  1  0
  3 23  1  0
  3 24  1  0
  5 25  1  0
  5 26  1  0
  6 27  1  6
  7 28  1  0
  8 29  1  0
 11 30  1  0
 13 31  1  0
 13 32  1  0
 15 33  1  0
 16 34  1  0
 16 35  1  0
 17 36  1  0
 17 37  1  0
 18 38  1  0
 19 39  1  0
 19 40  1  0
 20 41  1  0
 20 42  1  0
M  ISO  8  21  13  22  13  23  13  24  13  25  13  26  13  27  13  28  14
M  ISO  8  29  14  30  14  31   8  32   8  33   5  34  13  35  13  36  13
M  ISO  6  37  13  38  13  39  13  40  13  41  13  42  13
M  END
>  <minimizedAffinity>  (1) 
-4.53642607

>  <minimizedRMSD>  (1) 
5.07801723

$$$$
