
     RDKit          3D

 34 36  0  0  1  0  0  0  0  0999 V2000
   44.8080   33.4680   40.3640 N   0  0  0  0  0  0  0  0  0  0  0  0
   43.4760   33.1830   39.9060 C   0  0  0  0  0  0  0  0  0  0  0  0
   43.2480   33.3090   38.4460 C   0  0  0  0  0  0  0  0  0  0  0  0
   44.3320   33.3010   37.6420 O   0  0  0  0  0  0  0  0  0  0  0  0
   45.4550   32.7090   38.1570 C   0  0  0  0  0  0  0  0  0  0  0  0
   45.9120   33.3880   39.4520 C   0  0  2  0  0  0  0  0  0  0  0  0
   45.2460   33.2970   44.0680 C   0  0  0  0  0  0  0  0  0  0  0  0
   44.9900   32.9260   42.7540 C   0  0  0  0  0  0  0  0  0  0  0  0
   45.0630   33.8280   41.7070 C   0  0  0  0  0  0  0  0  0  0  0  0
   45.4040   35.1460   42.0150 N   0  0  0  0  0  0  0  0  0  0  0  0
   45.6510   35.4870   43.3090 C   0  0  0  0  0  0  0  0  0  0  0  0
   45.5690   34.5630   44.3090 N   0  0  0  0  0  0  0  0  0  0  0  0
   47.1320   32.7340   39.9380 C   0  0  0  0  0  0  0  0  0  0  0  0
   48.1920   33.3020   40.1190 O   0  0  0  0  0  0  0  0  0  0  0  0
   49.6590   34.7740   42.9830 N   0  0  0  0  0  0  0  0  0  0  0  0
   49.3040   33.6360   42.4040 N   0  0  0  0  0  0  0  0  0  0  0  0
   48.7580   33.9320   41.2130 C   0  0  0  0  0  0  0  0  0  0  0  0
   48.7910   35.3170   41.0780 C   0  0  0  0  0  0  0  0  0  0  0  0
   49.3710   35.8590   42.2170 C   0  0  0  0  0  0  0  0  0  0  0  0
   43.2346   32.1498   40.1961 H   0  0  0  0  0  0  0  0  0  0  0  0
   42.8335   33.9443   40.3725 H   0  0  0  0  0  0  0  0  0  0  0  0
   42.6047   32.4709   38.1397 H   0  0  0  0  0  0  0  0  0  0  0  0
   42.8111   34.3102   38.3165 H   0  0  0  0  0  0  0  0  0  0  0  0
   45.2358   31.6518   38.3673 H   0  0  0  0  0  0  0  0  0  0  0  0
   46.2628   32.8051   37.4166 H   0  0  0  0  0  0  0  0  0  0  0  0
   46.2094   34.4359   39.2988 H   0  0  0  0  0  0  0  0  0  0  0  0
   45.1831   32.5637   44.8855 H   0  0  0  0  0  0  0  0  0  0  0  0
   44.7205   31.8815   42.5388 H   0  0  0  0  0  0  0  0  0  0  0  0
   45.9213   36.5251   43.5526 H   0  0  0  0  0  0  0  0  0  0  0  0
   46.8639   32.2915   40.9087 H   0  0  0  0  0  0  0  0  0  0  0  0
   47.3837   32.1030   39.0729 H   0  0  0  0  0  0  0  0  0  0  0  0
   50.1037   34.8299   43.9104 H   0  0  0  0  0  0  0  0  0  0  0  0
   48.4196   35.8868   40.2135 H   0  0  0  0  0  0  0  0  0  0  0  0
   49.5546   36.9191   42.4460 H   0  0  0  0  0  0  0  0  0  0  0  0
  1  9  1  0
  2  1  1  0
  3  2  1  0
  4  5  1  0
  4  3  1  0
  5  6  1  0
  6 13  1  0
  6  1  1  0
  7 12  2  0
  8  7  1  0
  9 10  1  0
  9  8  2  0
 10 11  2  0
 11 12  1  0
 13 14  1  0
 14 17  1  0
 16 15  1  0
 17 16  2  0
 18 17  1  0
 18 19  2  0
 19 15  1  0
  2 20  1  0
  2 21  1  0
  3 22  1  0
  3 23  1  0
  5 24  1  0
  5 25  1  0
  6 26  1  6
  7 27  1  0
  8 28  1  0
 11 29  1  0
 13 30  1  0
 13 31  1  0
 15 32  1  0
 18 33  1  0
 19 34  1  0
M  ISO  8  20  13  21  13  22  13  23  13  24  13  25  13  26  13  27  14
M  ISO  7  28  14  29  14  30   8  31   8  32   9  33  14  34  14
M  END
>  <minimizedAffinity>  (1) 
-4.44587326

>  <minimizedRMSD>  (1) 
3.30911016

$$$$
