
     RDKit          3D

 52 56  0  0  1  0  0  0  0  0999 V2000
   47.7580   34.7060   41.1780 C   0  0  1  0  0  0  0  0  0  0  0  0
   45.5540   34.3190   42.2930 C   0  0  0  0  0  0  0  0  0  0  0  0
   46.9500   34.3120   42.3400 C   0  0  0  0  0  0  0  0  0  0  0  0
   47.5750   33.9300   43.5440 C   0  0  0  0  0  0  0  0  0  0  0  0
   46.8260   33.5890   44.5990 N   0  0  0  0  0  0  0  0  0  0  0  0
   45.4760   33.5980   44.5430 C   0  0  0  0  0  0  0  0  0  0  0  0
   44.8760   33.9560   43.4130 N   0  0  0  0  0  0  0  0  0  0  0  0
   44.7690   34.7230   41.1780 C   0  0  0  0  0  0  0  0  0  0  0  0
   44.0550   33.4870   40.5470 C   0  0  0  0  0  0  0  0  0  0  0  0
   43.0510   34.2320   39.6320 C   0  0  0  0  0  0  0  0  0  0  0  0
   42.7430   35.4940   40.3640 C   0  0  0  0  0  0  0  0  0  0  0  0
   43.5620   35.4780   41.6400 C   0  0  0  0  0  0  0  0  0  0  0  0
   48.8300   35.6740   41.4990 C   0  0  0  0  0  0  0  0  0  0  0  0
   48.2220   33.4570   40.4820 C   0  0  0  0  0  0  0  0  0  0  0  0
   47.9610   33.5040   39.0510 N   0  0  0  0  0  0  0  0  0  0  0  0
   48.4780   34.5470   38.4350 N   0  0  0  0  0  0  0  0  0  0  0  0
   48.1830   34.4920   37.1310 C   0  0  0  0  0  0  0  0  0  0  0  0
   47.4410   33.3590   36.9080 C   0  0  0  0  0  0  0  0  0  0  0  0
   47.3190   32.7560   38.1340 C   0  0  0  0  0  0  0  0  0  0  0  0
   46.6790   31.5660   38.5810 N   0  0  0  0  0  0  0  0  0  0  0  0
   47.0640   30.5740   39.3970 C   0  0  0  0  0  0  0  0  0  0  0  0
   46.0880   29.6480   39.5140 N   0  0  0  0  0  0  0  0  0  0  0  0
   45.0810   30.0990   38.7430 C   0  0  0  0  0  0  0  0  0  0  0  0
   43.8470   29.5230   38.5150 C   0  0  0  0  0  0  0  0  0  0  0  0
   42.9930   30.1630   37.6960 N   0  0  0  0  0  0  0  0  0  0  0  0
   43.3270   31.3440   37.1060 C   0  0  0  0  0  0  0  0  0  0  0  0
   44.5300   31.9030   37.3310 N   0  0  0  0  0  0  0  0  0  0  0  0
   45.4130   31.3020   38.1390 C   0  0  0  0  0  0  0  0  0  0  0  0
   43.3790   28.3030   39.0630 N   0  0  0  0  0  0  0  0  0  0  0  0
   47.1352   35.2794   40.4756 H   0  0  0  0  0  0  0  0  0  0  0  0
   48.6725   33.9123   43.6160 H   0  0  0  0  0  0  0  0  0  0  0  0
   44.8807   33.3122   45.4227 H   0  0  0  0  0  0  0  0  0  0  0  0
   45.4539   35.2729   40.5158 H   0  0  0  0  0  0  0  0  0  0  0  0
   44.7500   32.8580   39.9714 H   0  0  0  0  0  0  0  0  0  0  0  0
   43.6099   32.7800   41.2626 H   0  0  0  0  0  0  0  0  0  0  0  0
   42.1391   33.6340   39.4876 H   0  0  0  0  0  0  0  0  0  0  0  0
   43.4602   34.4201   38.6284 H   0  0  0  0  0  0  0  0  0  0  0  0
   43.0181   36.3639   39.7495 H   0  0  0  0  0  0  0  0  0  0  0  0
   41.6685   35.5653   40.5883 H   0  0  0  0  0  0  0  0  0  0  0  0
   43.0392   34.9511   42.4518 H   0  0  0  0  0  0  0  0  0  0  0  0
   43.7754   36.4716   42.0609 H   0  0  0  0  0  0  0  0  0  0  0  0
   48.9287   35.7631   42.5909 H   0  0  0  0  0  0  0  0  0  0  0  0
   49.7811   35.3227   41.0724 H   0  0  0  0  0  0  0  0  0  0  0  0
   48.5772   36.6559   41.0724 H   0  0  0  0  0  0  0  0  0  0  0  0
   49.3041   33.3416   40.6425 H   0  0  0  0  0  0  0  0  0  0  0  0
   47.6657   32.6061   40.9021 H   0  0  0  0  0  0  0  0  0  0  0  0
   48.4831   35.2272   36.3698 H   0  0  0  0  0  0  0  0  0  0  0  0
   47.0310   33.0088   35.9492 H   0  0  0  0  0  0  0  0  0  0  0  0
   48.0401   30.5217   39.9015 H   0  0  0  0  0  0  0  0  0  0  0  0
   42.6081   31.8446   36.4407 H   0  0  0  0  0  0  0  0  0  0  0  0
   42.4367   27.9605   38.8272 H   0  0  0  0  0  0  0  0  0  0  0  0
   43.9811   27.7587   39.6971 H   0  0  0  0  0  0  0  0  0  0  0  0
  1 13  1  0
  1  3  1  0
  2  3  1  0
  2  7  2  0
  3  4  2  0
  4  5  1  0
  6  5  2  0
  7  6  1  0
  8 12  1  0
  8  2  1  0
  9  8  1  0
 10 11  1  0
 10  9  1  0
 11 12  1  0
 14  1  1  0
 15 14  1  0
 16 15  1  0
 17 16  2  0
 18 17  1  0
 18 19  2  0
 19 20  1  0
 19 15  1  0
 20 21  1  0
 21 22  2  0
 23 22  1  0
 24 23  2  0
 24 29  1  0
 25 24  1  0
 26 27  1  0
 26 25  2  0
 27 28  2  0
 28 20  1  0
 28 23  1  0
  1 30  1  6
  4 31  1  0
  6 32  1  0
  8 33  1  0
  9 34  1  0
  9 35  1  0
 10 36  1  0
 10 37  1  0
 11 38  1  0
 11 39  1  0
 12 40  1  0
 12 41  1  0
 13 42  1  0
 13 43  1  0
 13 44  1  0
 14 45  1  0
 14 46  1  0
 17 47  1  0
 18 48  1  0
 21 49  1  0
 26 50  1  0
 29 51  1  0
 29 52  1  0
M  ISO  8  30   8  31  14  32  14  33  13  34  13  35  13  36  13  37  13
M  ISO  8  38  13  39  13  40  13  41  13  42   8  43   8  44   8  45   8
M  ISO  5  46   8  47  14  48  14  49  14  50  14
M  END
>  <minimizedAffinity>  (1) 
-5.3762455

>  <minimizedRMSD>  (1) 
2.8191669

$$$$
