
     RDKit          3D

 38 41  0  0  1  0  0  0  0  0999 V2000
   44.3380   34.3860   41.6280 N   0  0  0  0  0  0  0  0  0  0  0  0
   43.3590   35.2350   42.2670 C   0  0  0  0  0  0  0  0  0  0  0  0
   42.1930   35.5920   41.4390 C   0  0  0  0  0  0  0  0  0  0  0  0
   41.8950   34.7730   40.4140 O   0  0  0  0  0  0  0  0  0  0  0  0
   42.4380   33.5260   40.3950 C   0  0  0  0  0  0  0  0  0  0  0  0
   43.9570   33.5460   40.5270 C   0  0  2  0  0  0  0  0  0  0  0  0
   47.4000   33.7880   43.6840 C   0  0  0  0  0  0  0  0  0  0  0  0
   46.0530   33.7880   43.2930 C   0  0  0  0  0  0  0  0  0  0  0  0
   45.6860   34.3640   42.0660 C   0  0  0  0  0  0  0  0  0  0  0  0
   46.6800   34.9250   41.2630 N   0  0  0  0  0  0  0  0  0  0  0  0
   47.9770   34.8990   41.6900 C   0  0  0  0  0  0  0  0  0  0  0  0
   48.3120   34.3350   42.8870 N   0  0  0  0  0  0  0  0  0  0  0  0
   44.4530   32.1520   40.5680 C   0  0  0  0  0  0  0  0  0  0  0  0
   45.1580   31.6410   39.7540 O   0  0  0  0  0  0  0  0  0  0  0  0
   44.2030   31.2530   35.3490 N   0  0  0  0  0  0  0  0  0  0  0  0
   43.1640   31.0300   36.1500 C   0  0  0  0  0  0  0  0  0  0  0  0
   43.5140   31.1590   37.4310 N   0  0  0  0  0  0  0  0  0  0  0  0
   44.8280   31.4820   37.5250 C   0  0  0  0  0  0  0  0  0  0  0  0
   45.7570   31.7430   38.5500 C   0  0  0  0  0  0  0  0  0  0  0  0
   46.9820   32.0250   38.0970 N   0  0  0  0  0  0  0  0  0  0  0  0
   47.3840   32.0780   36.8380 C   0  0  0  0  0  0  0  0  0  0  0  0
   46.4860   31.8260   35.8700 N   0  0  0  0  0  0  0  0  0  0  0  0
   45.2070   31.5260   36.1810 C   0  0  0  0  0  0  0  0  0  0  0  0
   42.9916   34.7138   43.1633 H   0  0  0  0  0  0  0  0  0  0  0  0
   43.8758   36.1811   42.4855 H   0  0  0  0  0  0  0  0  0  0  0  0
   41.3151   35.6274   42.1008 H   0  0  0  0  0  0  0  0  0  0  0  0
   42.4604   36.5500   40.9691 H   0  0  0  0  0  0  0  0  0  0  0  0
   42.0193   32.9466   41.2310 H   0  0  0  0  0  0  0  0  0  0  0  0
   42.1939   33.0710   39.4237 H   0  0  0  0  0  0  0  0  0  0  0  0
   44.4455   34.0027   39.6536 H   0  0  0  0  0  0  0  0  0  0  0  0
   47.6991   33.3389   44.6426 H   0  0  0  0  0  0  0  0  0  0  0  0
   45.2882   33.3392   43.9440 H   0  0  0  0  0  0  0  0  0  0  0  0
   48.7637   35.3393   41.0597 H   0  0  0  0  0  0  0  0  0  0  0  0
   44.9988   32.0663   41.5192 H   0  0  0  0  0  0  0  0  0  0  0  0
   43.5153   31.6098   40.3760 H   0  0  0  0  0  0  0  0  0  0  0  0
   44.2258   31.2217   34.3197 H   0  0  0  0  0  0  0  0  0  0  0  0
   42.1523   30.7737   35.8026 H   0  0  0  0  0  0  0  0  0  0  0  0
   48.4273   32.3222   36.5893 H   0  0  0  0  0  0  0  0  0  0  0  0
  1  9  1  0
  1  2  1  0
  3  2  1  0
  4  3  1  0
  5  4  1  0
  5  6  1  0
  6 13  1  0
  6  1  1  0
  8  7  2  0
  9  8  1  0
 10 11  1  0
 10  9  2  0
 11 12  2  0
 12  7  1  0
 14 13  1  0
 15 16  1  0
 15 23  1  0
 16 17  2  0
 17 18  1  0
 18 19  2  0
 19 14  1  0
 20 19  1  0
 21 20  2  0
 22 23  2  0
 22 21  1  0
 23 18  1  0
  2 24  1  0
  2 25  1  0
  3 26  1  0
  3 27  1  0
  5 28  1  0
  5 29  1  0
  6 30  1  6
  7 31  1  0
  8 32  1  0
 11 33  1  0
 13 34  1  0
 13 35  1  0
 15 36  1  0
 16 37  1  0
 21 38  1  0
M  ISO  8  24  13  25  13  26  13  27  13  28  13  29  13  30  13  31  14
M  ISO  7  32  14  33  14  34   8  35   8  36   9  37  14  38  14
M  END
>  <minimizedAffinity>  (1) 
-3.93493915

>  <minimizedRMSD>  (1) 
6.9341507

$$$$
