
     RDKit          3D

 53 57  0  0  1  0  0  0  0  0999 V2000
   47.8480   34.5670   41.1420 C   0  0  1  0  0  0  0  0  0  0  0  0
   45.6050   34.2820   42.2100 C   0  0  0  0  0  0  0  0  0  0  0  0
   47.0000   34.2450   42.2990 C   0  0  0  0  0  0  0  0  0  0  0  0
   47.5880   33.9070   43.5380 C   0  0  0  0  0  0  0  0  0  0  0  0
   46.7960   33.6330   44.5830 N   0  0  0  0  0  0  0  0  0  0  0  0
   45.4490   33.6700   44.4910 C   0  0  0  0  0  0  0  0  0  0  0  0
   44.8930   33.9870   43.3260 N   0  0  0  0  0  0  0  0  0  0  0  0
   44.8650   34.6540   41.0580 C   0  0  0  0  0  0  0  0  0  0  0  0
   44.3390   33.3790   40.3190 C   0  0  0  0  0  0  0  0  0  0  0  0
   43.3320   34.0230   39.3660 C   0  0  0  0  0  0  0  0  0  0  0  0
   42.8200   35.2140   40.1270 C   0  0  0  0  0  0  0  0  0  0  0  0
   43.5460   35.2450   41.4550 C   0  0  0  0  0  0  0  0  0  0  0  0
   48.8420   35.6330   41.4170 C   0  0  0  0  0  0  0  0  0  0  0  0
   48.4260   33.2890   40.6070 C   0  0  0  0  0  0  0  0  0  0  0  0
   48.5380   33.3130   39.1410 N   0  0  0  0  0  0  0  0  0  0  0  0
   47.8990   34.3150   38.5790 N   0  0  0  0  0  0  0  0  0  0  0  0
   48.0590   34.2490   37.2500 C   0  0  0  0  0  0  0  0  0  0  0  0
   48.8330   33.1520   36.9760 C   0  0  0  0  0  0  0  0  0  0  0  0
   49.1440   32.5520   38.1800 C   0  0  0  0  0  0  0  0  0  0  0  0
   49.9050   31.4200   38.5950 C   0  0  0  0  0  0  0  0  0  0  0  0
   51.2570   31.5720   38.8220 N   0  0  0  0  0  0  0  0  0  0  0  0
   52.0570   30.5960   39.2070 C   0  0  0  0  0  0  0  0  0  0  0  0
   51.6440   29.3330   39.4240 N   0  0  0  0  0  0  0  0  0  0  0  0
   50.3350   29.0860   39.2290 C   0  0  0  0  0  0  0  0  0  0  0  0
   49.7700   27.8370   39.4130 C   0  0  0  0  0  0  0  0  0  0  0  0
   48.4210   27.5750   39.2120 C   0  0  0  0  0  0  0  0  0  0  0  0
   47.5870   28.6220   38.8040 C   0  0  0  0  0  0  0  0  0  0  0  0
   48.1730   29.8540   38.6270 C   0  0  0  0  0  0  0  0  0  0  0  0
   49.5130   30.1170   38.8260 C   0  0  0  0  0  0  0  0  0  0  0  0
   47.2329   35.0191   40.3500 H   0  0  0  0  0  0  0  0  0  0  0  0
   48.6823   33.8693   43.6434 H   0  0  0  0  0  0  0  0  0  0  0  0
   44.8224   33.4416   45.3658 H   0  0  0  0  0  0  0  0  0  0  0  0
   45.5315   35.3091   40.4779 H   0  0  0  0  0  0  0  0  0  0  0  0
   45.1428   32.8613   39.7751 H   0  0  0  0  0  0  0  0  0  0  0  0
   43.9238   32.6003   40.9757 H   0  0  0  0  0  0  0  0  0  0  0  0
   42.5132   33.3263   39.1335 H   0  0  0  0  0  0  0  0  0  0  0  0
   43.7804   34.2990   38.4002 H   0  0  0  0  0  0  0  0  0  0  0  0
   43.0247   36.1368   39.5643 H   0  0  0  0  0  0  0  0  0  0  0  0
   41.7329   35.1415   40.2788 H   0  0  0  0  0  0  0  0  0  0  0  0
   43.0363   34.6298   42.2111 H   0  0  0  0  0  0  0  0  0  0  0  0
   43.6103   36.2400   41.9195 H   0  0  0  0  0  0  0  0  0  0  0  0
   48.9566   35.7559   42.5041 H   0  0  0  0  0  0  0  0  0  0  0  0
   49.8102   35.3543   40.9754 H   0  0  0  0  0  0  0  0  0  0  0  0
   48.4964   36.5794   40.9754 H   0  0  0  0  0  0  0  0  0  0  0  0
   49.4272   33.1428   41.0384 H   0  0  0  0  0  0  0  0  0  0  0  0
   47.7520   32.4655   40.8854 H   0  0  0  0  0  0  0  0  0  0  0  0
   47.6433   34.9501   36.5113 H   0  0  0  0  0  0  0  0  0  0  0  0
   49.1489   32.8115   35.9789 H   0  0  0  0  0  0  0  0  0  0  0  0
   53.1216   30.8272   39.3593 H   0  0  0  0  0  0  0  0  0  0  0  0
   50.4211   27.0106   39.7343 H   0  0  0  0  0  0  0  0  0  0  0  0
   48.0162   26.5645   39.3704 H   0  0  0  0  0  0  0  0  0  0  0  0
   46.5116   28.4669   38.6326 H   0  0  0  0  0  0  0  0  0  0  0  0
   47.5297   30.6861   38.3049 H   0  0  0  0  0  0  0  0  0  0  0  0
  1 13  1  0
  1  3  1  0
  2  3  1  0
  2  7  2  0
  3  4  2  0
  4  5  1  0
  6  5  2  0
  7  6  1  0
  8 12  1  0
  8  2  1  0
  9  8  1  0
 10 11  1  0
 10  9  1  0
 11 12  1  0
 14  1  1  0
 15 14  1  0
 16 15  1  0
 17 16  2  0
 18 17  1  0
 18 19  2  0
 19 20  1  0
 19 15  1  0
 20 21  2  0
 20 29  1  0
 21 22  1  0
 22 23  2  0
 24 25  2  0
 24 23  1  0
 26 25  1  0
 27 26  2  0
 28 27  1  0
 28 29  2  0
 29 24  1  0
  1 30  1  6
  4 31  1  0
  6 32  1  0
  8 33  1  0
  9 34  1  0
  9 35  1  0
 10 36  1  0
 10 37  1  0
 11 38  1  0
 11 39  1  0
 12 40  1  0
 12 41  1  0
 13 42  1  0
 13 43  1  0
 13 44  1  0
 14 45  1  0
 14 46  1  0
 17 47  1  0
 18 48  1  0
 22 49  1  0
 25 50  1  0
 26 51  1  0
 27 52  1  0
 28 53  1  0
M  ISO  8  30   8  31  14  32  14  33  13  34  13  35  13  36  13  37  13
M  ISO  8  38  13  39  13  40  13  41  13  42   8  43   8  44   8  45   8
M  ISO  8  46   8  47  14  48  14  49  14  50  14  51  14  52  14  53  14
M  END
>  <minimizedAffinity>  (1) 
-5.33919525

>  <minimizedRMSD>  (1) 
2.62098145

$$$$
