
     RDKit          3D

 49 52  0  0  1  0  0  0  0  0999 V2000
   45.9230   33.7000   40.3760 C   0  0  0  0  0  0  0  0  0  0  0  0
   43.7140   33.8370   41.4610 N   0  0  0  0  0  0  0  0  0  0  0  0
   42.4260   33.2120   41.3550 C   0  0  0  0  0  0  0  0  0  0  0  0
   41.7540   33.3810   40.0440 C   0  0  0  0  0  0  0  0  0  0  0  0
   42.5220   33.7480   38.9880 O   0  0  0  0  0  0  0  0  0  0  0  0
   43.8420   33.4690   39.0980 C   0  0  0  0  0  0  0  0  0  0  0  0
   44.5150   34.1420   40.2860 C   0  0  2  0  0  0  0  0  0  0  0  0
   45.4790   33.5960   44.7670 C   0  0  0  0  0  0  0  0  0  0  0  0
   44.9540   33.2700   43.5280 C   0  0  0  0  0  0  0  0  0  0  0  0
   44.2520   34.1780   42.7330 C   0  0  0  0  0  0  0  0  0  0  0  0
   44.0930   35.4500   43.2340 N   0  0  0  0  0  0  0  0  0  0  0  0
   44.6130   35.7610   44.4570 C   0  0  0  0  0  0  0  0  0  0  0  0
   45.2890   34.8500   45.2000 N   0  0  0  0  0  0  0  0  0  0  0  0
   46.8300   34.5470   40.5140 O   0  0  0  0  0  0  0  0  0  0  0  0
   48.8810   35.5040   40.6550 N   0  0  0  0  0  0  0  0  0  0  0  0
   49.4320   35.4840   41.9830 C   0  0  0  0  0  0  0  0  0  0  0  0
   48.5480   34.5000   42.7360 C   0  0  0  0  0  0  0  0  0  0  0  0
   48.5040   33.4180   41.6440 C   0  0  0  0  0  0  0  0  0  0  0  0
   48.1680   34.2360   40.4470 C   0  0  1  0  0  0  0  0  0  0  0  0
   48.4630   33.6800   39.1720 N   0  0  0  0  0  0  0  0  0  0  0  0
   48.2310   34.2740   37.9800 C   0  0  0  0  0  0  0  0  0  0  0  0
   48.5260   33.7150   36.7630 C   0  0  0  0  0  0  0  0  0  0  0  0
   49.1000   32.4530   36.7980 C   0  0  0  0  0  0  0  0  0  0  0  0
   49.3800   31.9210   35.6930 O   0  0  0  0  0  0  0  0  0  0  0  0
   49.3300   31.8670   37.9940 N   0  0  0  0  0  0  0  0  0  0  0  0
   49.0230   32.4560   39.1710 C   0  0  0  0  0  0  0  0  0  0  0  0
   49.3120   31.7500   40.1800 O   0  0  0  0  0  0  0  0  0  0  0  0
   46.1427   33.1451   39.4520 H   0  0  0  0  0  0  0  0  0  0  0  0
   45.9542   33.1355   41.3196 H   0  0  0  0  0  0  0  0  0  0  0  0
   42.5534   32.1346   41.5369 H   0  0  0  0  0  0  0  0  0  0  0  0
   41.7820   33.7068   42.0969 H   0  0  0  0  0  0  0  0  0  0  0  0
   41.2820   32.4205   39.7898 H   0  0  0  0  0  0  0  0  0  0  0  0
   41.0609   34.2223   40.1915 H   0  0  0  0  0  0  0  0  0  0  0  0
   43.9588   32.3804   39.2041 H   0  0  0  0  0  0  0  0  0  0  0  0
   44.3284   33.8581   38.1914 H   0  0  0  0  0  0  0  0  0  0  0  0
   44.5617   35.2363   40.1843 H   0  0  0  0  0  0  0  0  0  0  0  0
   46.0282   32.8578   45.3698 H   0  0  0  0  0  0  0  0  0  0  0  0
   45.0969   32.2462   43.1519 H   0  0  0  0  0  0  0  0  0  0  0  0
   44.4800   36.7793   44.8511 H   0  0  0  0  0  0  0  0  0  0  0  0
   48.2270   36.2939   40.5586 H   0  0  0  0  0  0  0  0  0  0  0  0
   50.4762   35.1383   41.9675 H   0  0  0  0  0  0  0  0  0  0  0  0
   49.4475   36.4803   42.4491 H   0  0  0  0  0  0  0  0  0  0  0  0
   49.0138   34.1414   43.6657 H   0  0  0  0  0  0  0  0  0  0  0  0
   47.5795   34.8802   43.0929 H   0  0  0  0  0  0  0  0  0  0  0  0
   49.4773   32.9180   41.5313 H   0  0  0  0  0  0  0  0  0  0  0  0
   47.7985   32.5986   41.8458 H   0  0  0  0  0  0  0  0  0  0  0  0
   47.7741   35.2746   37.9867 H   0  0  0  0  0  0  0  0  0  0  0  0
   48.3198   34.2360   35.8164 H   0  0  0  0  0  0  0  0  0  0  0  0
   49.7581   30.9303   38.0091 H   0  0  0  0  0  0  0  0  0  0  0  0
  1 14  1  0
  2 10  1  0
  3  2  1  0
  4  3  1  0
  5  6  1  0
  5  4  1  0
  6  7  1  0
  7  1  1  0
  7  2  1  0
  8 13  2  0
  9  8  1  0
 10 11  1  0
 10  9  2  0
 11 12  2  0
 12 13  1  0
 15 16  1  0
 16 17  1  0
 18 17  1  0
 19 14  1  6
 19 15  1  0
 19 18  1  0
 20 19  1  0
 21 20  1  0
 22 23  1  0
 22 21  2  0
 23 25  1  0
 24 23  2  0
 25 26  1  0
 26 20  1  0
 26 27  2  0
  1 28  1  0
  1 29  1  0
  3 30  1  0
  3 31  1  0
  4 32  1  0
  4 33  1  0
  6 34  1  0
  6 35  1  0
  7 36  1  6
  8 37  1  0
  9 38  1  0
 12 39  1  0
 15 40  1  0
 16 41  1  0
 16 42  1  0
 17 43  1  0
 17 44  1  0
 18 45  1  0
 18 46  1  0
 21 47  1  0
 22 48  1  0
 25 49  1  0
M  ISO  8  28   8  29   8  30  13  31  13  32  13  33  13  34  13  35  13
M  ISO  8  36  13  37  14  38  14  39  14  40   5  41  13  42  13  43  13
M  ISO  6  44  13  45  13  46  13  47  14  48  14  49   9
M  END
>  <minimizedAffinity>  (1) 
-5.89121437

>  <minimizedRMSD>  (1) 
0.817081094

$$$$
