
     RDKit          3D

 47 50  0  0  1  0  0  0  0  0999 V2000
   45.8610   33.7080   40.3520 C   0  0  0  0  0  0  0  0  0  0  0  0
   43.6640   33.8900   41.4530 N   0  0  0  0  0  0  0  0  0  0  0  0
   42.3590   33.3010   41.3530 C   0  0  0  0  0  0  0  0  0  0  0  0
   41.6880   33.4700   40.0520 C   0  0  0  0  0  0  0  0  0  0  0  0
   42.4520   33.8220   38.9870 O   0  0  0  0  0  0  0  0  0  0  0  0
   43.7650   33.5470   39.0880 C   0  0  0  0  0  0  0  0  0  0  0  0
   44.4640   34.1900   40.2780 C   0  0  2  0  0  0  0  0  0  0  0  0
   45.4600   33.5850   44.7380 C   0  0  0  0  0  0  0  0  0  0  0  0
   44.9210   33.2720   43.4980 C   0  0  0  0  0  0  0  0  0  0  0  0
   44.2220   34.2030   42.7250 C   0  0  0  0  0  0  0  0  0  0  0  0
   44.0880   35.4660   43.2530 N   0  0  0  0  0  0  0  0  0  0  0  0
   44.6240   35.7560   44.4730 C   0  0  0  0  0  0  0  0  0  0  0  0
   45.2950   34.8230   45.1910 N   0  0  0  0  0  0  0  0  0  0  0  0
   46.7790   34.5230   40.5890 O   0  0  0  0  0  0  0  0  0  0  0  0
   48.8390   35.4800   40.6690 N   0  0  0  0  0  0  0  0  0  0  0  0
   49.4370   35.4590   41.9740 C   0  0  0  0  0  0  0  0  0  0  0  0
   48.5840   34.4620   42.7610 C   0  0  0  0  0  0  0  0  0  0  0  0
   48.4890   33.3910   41.6730 C   0  0  0  0  0  0  0  0  0  0  0  0
   48.1140   34.2130   40.4830 C   0  0  1  0  0  0  0  0  0  0  0  0
   48.4960   33.5830   39.2100 C   0  0  0  0  0  0  0  0  0  0  0  0
   49.0110   32.3340   38.9720 C   0  0  0  0  0  0  0  0  0  0  0  0
   49.3150   31.9050   37.7010 C   0  0  0  0  0  0  0  0  0  0  0  0
   49.1050   32.7240   36.6700 N   0  0  0  0  0  0  0  0  0  0  0  0
   48.5960   33.9580   36.8980 C   0  0  0  0  0  0  0  0  0  0  0  0
   48.2890   34.4010   38.1440 N   0  0  0  0  0  0  0  0  0  0  0  0
   46.0903   33.2396   39.3835 H   0  0  0  0  0  0  0  0  0  0  0  0
   45.8627   33.0510   41.2342 H   0  0  0  0  0  0  0  0  0  0  0  0
   42.4575   32.2227   41.5467 H   0  0  0  0  0  0  0  0  0  0  0  0
   41.7319   33.8264   42.0883 H   0  0  0  0  0  0  0  0  0  0  0  0
   41.2032   32.5137   39.8062 H   0  0  0  0  0  0  0  0  0  0  0  0
   41.0086   34.3225   40.1994 H   0  0  0  0  0  0  0  0  0  0  0  0
   43.8804   32.4563   39.1722 H   0  0  0  0  0  0  0  0  0  0  0  0
   44.2386   33.9663   38.1880 H   0  0  0  0  0  0  0  0  0  0  0  0
   44.5392   35.2839   40.1895 H   0  0  0  0  0  0  0  0  0  0  0  0
   46.0059   32.8328   45.3264 H   0  0  0  0  0  0  0  0  0  0  0  0
   45.0490   32.2513   43.1084 H   0  0  0  0  0  0  0  0  0  0  0  0
   44.5091   36.7701   44.8834 H   0  0  0  0  0  0  0  0  0  0  0  0
   48.1841   36.2717   40.5969 H   0  0  0  0  0  0  0  0  0  0  0  0
   50.4821   35.1203   41.9189 H   0  0  0  0  0  0  0  0  0  0  0  0
   49.4622   36.4540   42.4423 H   0  0  0  0  0  0  0  0  0  0  0  0
   49.0918   34.0974   43.6661 H   0  0  0  0  0  0  0  0  0  0  0  0
   47.6319   34.8400   43.1617 H   0  0  0  0  0  0  0  0  0  0  0  0
   49.4530   32.8827   41.5234 H   0  0  0  0  0  0  0  0  0  0  0  0
   47.7816   32.5799   41.9006 H   0  0  0  0  0  0  0  0  0  0  0  0
   49.1857   31.6568   39.8211 H   0  0  0  0  0  0  0  0  0  0  0  0
   49.7265   30.8981   37.5370 H   0  0  0  0  0  0  0  0  0  0  0  0
   48.4249   34.6266   36.0414 H   0  0  0  0  0  0  0  0  0  0  0  0
  1 14  1  0
  2 10  1  0
  3  2  1  0
  4  3  1  0
  5  6  1  0
  5  4  1  0
  6  7  1  0
  7  1  1  0
  7  2  1  0
  8 13  2  0
  9  8  1  0
 10 11  1  0
 10  9  2  0
 11 12  2  0
 12 13  1  0
 15 16  1  0
 16 17  1  0
 18 17  1  0
 19 14  1  6
 19 15  1  0
 19 18  1  0
 20 19  1  0
 21 20  2  0
 22 21  1  0
 23 24  1  0
 23 22  2  0
 24 25  2  0
 25 20  1  0
  1 26  1  0
  1 27  1  0
  3 28  1  0
  3 29  1  0
  4 30  1  0
  4 31  1  0
  6 32  1  0
  6 33  1  0
  7 34  1  6
  8 35  1  0
  9 36  1  0
 12 37  1  0
 15 38  1  0
 16 39  1  0
 16 40  1  0
 17 41  1  0
 17 42  1  0
 18 43  1  0
 18 44  1  0
 21 45  1  0
 22 46  1  0
 24 47  1  0
M  ISO  8  26   8  27   8  28  13  29  13  30  13  31  13  32  13  33  13
M  ISO  8  34  13  35  14  36  14  37  14  38   5  39  13  40  13  41  13
M  ISO  6  42  13  43  13  44  13  45  14  46  14  47  14
M  END
>  <minimizedAffinity>  (1) 
-5.56347132

>  <minimizedRMSD>  (1) 
1.04415452

$$$$
