
     RDKit          3D

 52 55  0  0  1  0  0  0  0  0999 V2000
   45.7590   33.7350   40.3760 C   0  0  0  0  0  0  0  0  0  0  0  0
   43.5890   33.9580   41.5270 N   0  0  0  0  0  0  0  0  0  0  0  0
   42.2720   33.4020   41.4360 C   0  0  0  0  0  0  0  0  0  0  0  0
   41.5730   33.6500   40.1530 C   0  0  0  0  0  0  0  0  0  0  0  0
   42.3250   33.9910   39.0900 O   0  0  0  0  0  0  0  0  0  0  0  0
   43.6370   33.6750   39.1470 C   0  0  0  0  0  0  0  0  0  0  0  0
   44.3740   34.2590   40.3410 C   0  0  2  0  0  0  0  0  0  0  0  0
   45.4820   33.5600   44.7420 C   0  0  0  0  0  0  0  0  0  0  0  0
   44.9090   33.2840   43.5080 C   0  0  0  0  0  0  0  0  0  0  0  0
   44.1820   34.2340   42.7870 C   0  0  0  0  0  0  0  0  0  0  0  0
   44.0580   35.4770   43.3650 N   0  0  0  0  0  0  0  0  0  0  0  0
   44.6250   35.7340   44.5770 C   0  0  0  0  0  0  0  0  0  0  0  0
   45.3230   34.7810   45.2410 N   0  0  0  0  0  0  0  0  0  0  0  0
   46.7020   34.5190   40.6190 O   0  0  0  0  0  0  0  0  0  0  0  0
   48.7710   35.4520   40.5640 N   0  0  0  0  0  0  0  0  0  0  0  0
   49.4380   35.4590   41.8370 C   0  0  0  0  0  0  0  0  0  0  0  0
   48.6160   34.5020   42.6970 C   0  0  0  0  0  0  0  0  0  0  0  0
   48.4540   33.4030   41.6490 C   0  0  0  0  0  0  0  0  0  0  0  0
   48.0240   34.1880   40.4560 C   0  0  1  0  0  0  0  0  0  0  0  0
   48.8800   32.6200   36.5840 C   0  0  0  0  0  0  0  0  0  0  0  0
   48.4980   33.9110   36.8070 C   0  0  0  0  0  0  0  0  0  0  0  0
   48.2310   34.3660   38.1040 C   0  0  0  0  0  0  0  0  0  0  0  0
   48.3500   33.5080   39.1950 C   0  0  0  0  0  0  0  0  0  0  0  0
   48.7340   32.2100   38.9590 C   0  0  0  0  0  0  0  0  0  0  0  0
   48.9960   31.7630   37.6840 C   0  0  0  0  0  0  0  0  0  0  0  0
   49.2440   31.9200   35.0250 S   0  0  0  0  0  0  0  0  0  0  0  0
   48.1070   31.0610   34.5510 O   0  0  0  0  0  0  0  0  0  0  0  0
   50.4430   31.0150   35.1370 O   0  0  0  0  0  0  0  0  0  0  0  0
   45.9584   33.2881   39.3909 H   0  0  0  0  0  0  0  0  0  0  0  0
   45.7583   33.0517   41.2380 H   0  0  0  0  0  0  0  0  0  0  0  0
   42.3509   32.3139   41.5765 H   0  0  0  0  0  0  0  0  0  0  0  0
   41.6740   33.9013   42.2126 H   0  0  0  0  0  0  0  0  0  0  0  0
   41.0301   32.7300   39.8907 H   0  0  0  0  0  0  0  0  0  0  0  0
   40.9427   34.5311   40.3438 H   0  0  0  0  0  0  0  0  0  0  0  0
   43.7250   32.5794   39.1910 H   0  0  0  0  0  0  0  0  0  0  0  0
   44.1026   34.1079   38.2493 H   0  0  0  0  0  0  0  0  0  0  0  0
   44.4780   35.3523   40.2787 H   0  0  0  0  0  0  0  0  0  0  0  0
   46.0493   32.7926   45.2890 H   0  0  0  0  0  0  0  0  0  0  0  0
   45.0324   32.2777   43.0813 H   0  0  0  0  0  0  0  0  0  0  0  0
   44.5142   36.7328   45.0244 H   0  0  0  0  0  0  0  0  0  0  0  0
   48.1217   36.2493   40.5040 H   0  0  0  0  0  0  0  0  0  0  0  0
   50.4735   35.1016   41.7367 H   0  0  0  0  0  0  0  0  0  0  0  0
   49.5024   36.4669   42.2729 H   0  0  0  0  0  0  0  0  0  0  0  0
   49.1648   34.1581   43.5861 H   0  0  0  0  0  0  0  0  0  0  0  0
   47.6910   34.9047   43.1353 H   0  0  0  0  0  0  0  0  0  0  0  0
   49.4044   32.8807   41.4647 H   0  0  0  0  0  0  0  0  0  0  0  0
   47.7512   32.6080   41.9389 H   0  0  0  0  0  0  0  0  0  0  0  0
   48.3986   34.6026   35.9574 H   0  0  0  0  0  0  0  0  0  0  0  0
   47.9245   35.4104   38.2629 H   0  0  0  0  0  0  0  0  0  0  0  0
   48.8339   31.5147   39.8055 H   0  0  0  0  0  0  0  0  0  0  0  0
   49.3008   30.7177   37.5275 H   0  0  0  0  0  0  0  0  0  0  0  0
   49.4707   32.9530   34.1541 H   0  0  0  0  0  0  0  0  0  0  0  0
  1 14  1  0
  2 10  1  0
  3  2  1  0
  4  3  1  0
  5  6  1  0
  5  4  1  0
  6  7  1  0
  7  1  1  0
  7  2  1  0
  8 13  2  0
  9  8  1  0
 10 11  1  0
 10  9  2  0
 11 12  2  0
 12 13  1  0
 15 16  1  0
 16 17  1  0
 18 17  1  0
 19 15  1  0
 19 14  1  1
 19 18  1  0
 20 21  2  0
 20 25  1  0
 21 22  1  0
 22 23  2  0
 23 19  1  0
 24 23  1  0
 25 24  2  0
 26 28  2  0
 26 20  1  0
 27 26  2  0
  1 29  1  0
  1 30  1  0
  3 31  1  0
  3 32  1  0
  4 33  1  0
  4 34  1  0
  6 35  1  0
  6 36  1  0
  7 37  1  6
  8 38  1  0
  9 39  1  0
 12 40  1  0
 15 41  1  0
 16 42  1  0
 16 43  1  0
 17 44  1  0
 17 45  1  0
 18 46  1  0
 18 47  1  0
 21 48  1  0
 22 49  1  0
 24 50  1  0
 25 51  1  0
 26 52  1  0
M  ISO  8  29   8  30   8  31  13  32  13  33  13  34  13  35  13  36  13
M  ISO  8  37  13  38  14  39  14  40  14  41   5  42  13  43  13  44  13
M  ISO  8  45  13  46  13  47  13  48  14  49  14  50  14  51  14  52  11
M  END
>  <minimizedAffinity>  (1) 
-5.76261234

>  <minimizedRMSD>  (1) 
1.21772373

$$$$
