
     RDKit          3D

 46 49  0  0  1  0  0  0  0  0999 V2000
   43.7110   33.8460   41.4550 N   0  0  0  0  0  0  0  0  0  0  0  0
   42.4270   33.2190   41.3380 C   0  0  0  0  0  0  0  0  0  0  0  0
   41.7510   33.4300   40.0410 C   0  0  0  0  0  0  0  0  0  0  0  0
   42.5250   33.7730   38.9760 O   0  0  0  0  0  0  0  0  0  0  0  0
   43.8440   33.4810   39.0940 C   0  0  0  0  0  0  0  0  0  0  0  0
   44.5150   34.1570   40.2840 C   0  0  2  0  0  0  0  0  0  0  0  0
   45.4750   33.6040   44.7620 C   0  0  0  0  0  0  0  0  0  0  0  0
   44.9530   33.2710   43.5190 C   0  0  0  0  0  0  0  0  0  0  0  0
   44.2520   34.1860   42.7300 C   0  0  0  0  0  0  0  0  0  0  0  0
   44.0920   35.4560   43.2380 N   0  0  0  0  0  0  0  0  0  0  0  0
   44.6100   35.7700   44.4590 C   0  0  0  0  0  0  0  0  0  0  0  0
   45.2880   34.8510   45.1980 N   0  0  0  0  0  0  0  0  0  0  0  0
   45.9240   33.7150   40.3760 C   0  0  0  0  0  0  0  0  0  0  0  0
   46.8170   34.5570   40.6170 O   0  0  0  0  0  0  0  0  0  0  0  0
   48.8390   35.5800   40.7430 N   0  0  0  0  0  0  0  0  0  0  0  0
   49.4950   35.4260   42.0120 C   0  0  0  0  0  0  0  0  0  0  0  0
   48.7020   34.3260   42.7110 C   0  0  0  0  0  0  0  0  0  0  0  0
   48.6010   33.3810   41.5160 C   0  0  0  0  0  0  0  0  0  0  0  0
   48.1560   34.3150   40.4400 C   0  0  1  0  0  0  0  0  0  0  0  0
   48.4320   33.8640   39.1000 C   0  0  0  0  0  0  0  0  0  0  0  0
   48.3370   34.4260   37.8210 C   0  0  0  0  0  0  0  0  0  0  0  0
   48.7120   33.6270   36.7730 C   0  0  0  0  0  0  0  0  0  0  0  0
   49.1570   32.3490   36.9430 C   0  0  0  0  0  0  0  0  0  0  0  0
   49.0700   32.1500   38.8260 S   0  0  0  0  0  0  0  0  0  0  0  0
   42.5601   32.1367   41.4826 H   0  0  0  0  0  0  0  0  0  0  0  0
   41.7849   33.6827   42.1013 H   0  0  0  0  0  0  0  0  0  0  0  0
   41.2331   32.4943   39.7837 H   0  0  0  0  0  0  0  0  0  0  0  0
   41.0987   34.3005   40.2042 H   0  0  0  0  0  0  0  0  0  0  0  0
   43.9502   32.3920   39.2074 H   0  0  0  0  0  0  0  0  0  0  0  0
   44.3400   33.8578   38.1873 H   0  0  0  0  0  0  0  0  0  0  0  0
   44.5617   35.2515   40.1847 H   0  0  0  0  0  0  0  0  0  0  0  0
   46.0232   32.8658   45.3658 H   0  0  0  0  0  0  0  0  0  0  0  0
   45.0970   32.2479   43.1414 H   0  0  0  0  0  0  0  0  0  0  0  0
   44.4770   36.7876   44.8550 H   0  0  0  0  0  0  0  0  0  0  0  0
   45.9715   32.9600   41.1746 H   0  0  0  0  0  0  0  0  0  0  0  0
   46.1564   33.3750   39.3560 H   0  0  0  0  0  0  0  0  0  0  0  0
   48.1528   36.3465   40.7930 H   0  0  0  0  0  0  0  0  0  0  0  0
   50.5439   35.1242   41.8751 H   0  0  0  0  0  0  0  0  0  0  0  0
   49.5190   36.3612   42.5906 H   0  0  0  0  0  0  0  0  0  0  0  0
   49.2519   33.8815   43.5537 H   0  0  0  0  0  0  0  0  0  0  0  0
   47.7547   34.6260   43.1827 H   0  0  0  0  0  0  0  0  0  0  0  0
   49.5745   32.9275   41.2781 H   0  0  0  0  0  0  0  0  0  0  0  0
   47.9291   32.5247   41.6749 H   0  0  0  0  0  0  0  0  0  0  0  0
   47.9801   35.4548   37.6658 H   0  0  0  0  0  0  0  0  0  0  0  0
   48.6517   34.0330   35.7525 H   0  0  0  0  0  0  0  0  0  0  0  0
   49.4821   31.6222   36.1841 H   0  0  0  0  0  0  0  0  0  0  0  0
  1  9  1  0
  2  1  1  0
  3  2  1  0
  4  5  1  0
  4  3  1  0
  5  6  1  0
  6 13  1  0
  6  1  1  0
  7 12  2  0
  8  7  1  0
  9 10  1  0
  9  8  2  0
 10 11  2  0
 11 12  1  0
 13 14  1  0
 15 16  1  0
 16 17  1  0
 18 17  1  0
 19 14  1  6
 19 15  1  0
 19 18  1  0
 20 19  1  0
 21 20  2  0
 22 23  2  0
 22 21  1  0
 23 24  1  0
 24 20  1  0
  2 25  1  0
  2 26  1  0
  3 27  1  0
  3 28  1  0
  5 29  1  0
  5 30  1  0
  6 31  1  6
  7 32  1  0
  8 33  1  0
 11 34  1  0
 13 35  1  0
 13 36  1  0
 15 37  1  0
 16 38  1  0
 16 39  1  0
 17 40  1  0
 17 41  1  0
 18 42  1  0
 18 43  1  0
 21 44  1  0
 22 45  1  0
 23 46  1  0
M  ISO  8  25  13  26  13  27  13  28  13  29  13  30  13  31  13  32  14
M  ISO  8  33  14  34  14  35   8  36   8  37   5  38  13  39  13  40  13
M  ISO  6  41  13  42  13  43  13  44  14  45  14  46  14
M  END
>  <minimizedAffinity>  (1) 
-5.5512805

>  <minimizedRMSD>  (1) 
0.847376347

$$$$
