
     RDKit          3D

 49 52  0  0  1  0  0  0  0  0999 V2000
   45.8680   33.7440   40.3760 C   0  0  0  0  0  0  0  0  0  0  0  0
   43.6720   33.9020   41.4850 N   0  0  0  0  0  0  0  0  0  0  0  0
   42.3720   33.3010   41.3850 C   0  0  0  0  0  0  0  0  0  0  0  0
   41.6950   33.4890   40.0790 C   0  0  0  0  0  0  0  0  0  0  0  0
   42.4550   33.8780   39.0290 O   0  0  0  0  0  0  0  0  0  0  0  0
   43.7720   33.5570   39.1180 C   0  0  0  0  0  0  0  0  0  0  0  0
   44.4670   34.2140   40.3080 C   0  0  2  0  0  0  0  0  0  0  0  0
   45.4760   33.5910   44.7650 C   0  0  0  0  0  0  0  0  0  0  0  0
   44.9400   33.2790   43.5230 C   0  0  0  0  0  0  0  0  0  0  0  0
   44.2310   34.2110   42.7600 C   0  0  0  0  0  0  0  0  0  0  0  0
   44.0790   35.4720   43.2900 N   0  0  0  0  0  0  0  0  0  0  0  0
   44.6140   35.7540   44.5110 C   0  0  0  0  0  0  0  0  0  0  0  0
   45.2980   34.8230   45.2240 N   0  0  0  0  0  0  0  0  0  0  0  0
   46.7870   34.5630   40.5960 O   0  0  0  0  0  0  0  0  0  0  0  0
   48.8480   35.5100   40.6890 N   0  0  0  0  0  0  0  0  0  0  0  0
   49.4520   35.4490   41.9910 C   0  0  0  0  0  0  0  0  0  0  0  0
   48.5990   34.4390   42.7530 C   0  0  0  0  0  0  0  0  0  0  0  0
   48.5010   33.3970   41.6390 C   0  0  0  0  0  0  0  0  0  0  0  0
   48.1190   34.2500   40.4720 C   0  0  1  0  0  0  0  0  0  0  0  0
   48.4540   33.6730   39.1620 C   0  0  0  0  0  0  0  0  0  0  0  0
   48.2670   34.3050   37.9500 C   0  0  0  0  0  0  0  0  0  0  0  0
   48.5830   33.7590   36.7290 C   0  0  0  0  0  0  0  0  0  0  0  0
   49.1220   32.4940   36.7060 C   0  0  0  0  0  0  0  0  0  0  0  0
   49.3250   31.8260   37.9070 C   0  0  0  0  0  0  0  0  0  0  0  0
   48.9910   32.4150   39.1300 C   0  0  0  0  0  0  0  0  0  0  0  0
   46.0912   33.2661   39.4107 H   0  0  0  0  0  0  0  0  0  0  0  0
   45.8791   33.1013   41.2687 H   0  0  0  0  0  0  0  0  0  0  0  0
   42.4808   32.2206   41.5609 H   0  0  0  0  0  0  0  0  0  0  0  0
   41.7419   33.8033   42.1338 H   0  0  0  0  0  0  0  0  0  0  0  0
   41.2278   32.5303   39.8096 H   0  0  0  0  0  0  0  0  0  0  0  0
   40.9981   34.3240   40.2436 H   0  0  0  0  0  0  0  0  0  0  0  0
   43.8606   32.4653   39.2193 H   0  0  0  0  0  0  0  0  0  0  0  0
   44.2630   33.9259   38.2054 H   0  0  0  0  0  0  0  0  0  0  0  0
   44.5294   35.3088   40.2217 H   0  0  0  0  0  0  0  0  0  0  0  0
   46.0300   32.8415   45.3493 H   0  0  0  0  0  0  0  0  0  0  0  0
   45.0781   32.2627   43.1255 H   0  0  0  0  0  0  0  0  0  0  0  0
   44.4883   36.7632   44.9303 H   0  0  0  0  0  0  0  0  0  0  0  0
   48.1949   36.3052   40.6426 H   0  0  0  0  0  0  0  0  0  0  0  0
   50.4946   35.1053   41.9216 H   0  0  0  0  0  0  0  0  0  0  0  0
   49.4853   36.4307   42.4862 H   0  0  0  0  0  0  0  0  0  0  0  0
   49.1064   34.0508   43.6485 H   0  0  0  0  0  0  0  0  0  0  0  0
   47.6486   34.8095   43.1646 H   0  0  0  0  0  0  0  0  0  0  0  0
   49.4651   32.8944   41.4719 H   0  0  0  0  0  0  0  0  0  0  0  0
   47.7963   32.5788   41.8485 H   0  0  0  0  0  0  0  0  0  0  0  0
   47.8348   35.3165   37.9617 H   0  0  0  0  0  0  0  0  0  0  0  0
   48.4098   34.3175   35.7973 H   0  0  0  0  0  0  0  0  0  0  0  0
   49.3885   32.0181   35.7507 H   0  0  0  0  0  0  0  0  0  0  0  0
   49.7568   30.8143   37.8954 H   0  0  0  0  0  0  0  0  0  0  0  0
   49.1602   31.8662   40.0682 H   0  0  0  0  0  0  0  0  0  0  0  0
  1 14  1  0
  2 10  1  0
  3  2  1  0
  4  3  1  0
  5  6  1  0
  5  4  1  0
  6  7  1  0
  7  1  1  0
  7  2  1  0
  8 13  2  0
  9  8  1  0
 10 11  1  0
 10  9  2  0
 11 12  2  0
 12 13  1  0
 15 16  1  0
 16 17  1  0
 18 17  1  0
 19 14  1  6
 19 15  1  0
 19 18  1  0
 20 19  1  0
 21 20  2  0
 22 21  1  0
 23 22  2  0
 23 24  1  0
 24 25  2  0
 25 20  1  0
  1 26  1  0
  1 27  1  0
  3 28  1  0
  3 29  1  0
  4 30  1  0
  4 31  1  0
  6 32  1  0
  6 33  1  0
  7 34  1  6
  8 35  1  0
  9 36  1  0
 12 37  1  0
 15 38  1  0
 16 39  1  0
 16 40  1  0
 17 41  1  0
 17 42  1  0
 18 43  1  0
 18 44  1  0
 21 45  1  0
 22 46  1  0
 23 47  1  0
 24 48  1  0
 25 49  1  0
M  ISO  8  26   8  27   8  28  13  29  13  30  13  31  13  32  13  33  13
M  ISO  8  34  13  35  14  36  14  37  14  38   5  39  13  40  13  41  13
M  ISO  8  42  13  43  13  44  13  45  14  46  14  47  14  48  14  49  14
M  END
>  <minimizedAffinity>  (1) 
-5.68168259

>  <minimizedRMSD>  (1) 
0.799639285

$$$$
