
     RDKit          3D

 48 51  0  0  1  0  0  0  0  0999 V2000
   45.8500   33.7430   40.3630 C   0  0  0  0  0  0  0  0  0  0  0  0
   43.6610   33.8930   41.4840 N   0  0  0  0  0  0  0  0  0  0  0  0
   42.3630   33.2940   41.3800 C   0  0  0  0  0  0  0  0  0  0  0  0
   41.6700   33.5210   40.0940 C   0  0  0  0  0  0  0  0  0  0  0  0
   42.4320   33.8670   39.0290 O   0  0  0  0  0  0  0  0  0  0  0  0
   43.7470   33.5880   39.1120 C   0  0  0  0  0  0  0  0  0  0  0  0
   44.4510   34.2160   40.3070 C   0  0  2  0  0  0  0  0  0  0  0  0
   45.4930   33.5530   44.7450 C   0  0  0  0  0  0  0  0  0  0  0  0
   44.9440   33.2580   43.5050 C   0  0  0  0  0  0  0  0  0  0  0  0
   44.2300   34.1940   42.7540 C   0  0  0  0  0  0  0  0  0  0  0  0
   44.0900   35.4480   43.3040 N   0  0  0  0  0  0  0  0  0  0  0  0
   44.6350   35.7270   44.5210 C   0  0  0  0  0  0  0  0  0  0  0  0
   45.3240   34.7830   45.2200 N   0  0  0  0  0  0  0  0  0  0  0  0
   46.7650   34.5580   40.6160 O   0  0  0  0  0  0  0  0  0  0  0  0
   48.8100   35.5370   40.6820 N   0  0  0  0  0  0  0  0  0  0  0  0
   49.4390   35.4680   41.9720 C   0  0  0  0  0  0  0  0  0  0  0  0
   48.6280   34.4200   42.7310 C   0  0  0  0  0  0  0  0  0  0  0  0
   48.5180   33.4030   41.6000 C   0  0  0  0  0  0  0  0  0  0  0  0
   48.0980   34.2700   40.4570 C   0  0  1  0  0  0  0  0  0  0  0  0
   48.4500   33.7250   39.1410 C   0  0  0  0  0  0  0  0  0  0  0  0
   48.2800   34.3000   37.9000 C   0  0  0  0  0  0  0  0  0  0  0  0
   48.6660   33.6520   36.7430 C   0  0  0  0  0  0  0  0  0  0  0  0
   49.2360   32.3970   36.8510 C   0  0  0  0  0  0  0  0  0  0  0  0
   49.4010   31.8350   38.0940 C   0  0  0  0  0  0  0  0  0  0  0  0
   49.0090   32.5010   39.2120 N   0  0  0  0  0  0  0  0  0  0  0  0
   46.0778   33.3001   39.3822 H   0  0  0  0  0  0  0  0  0  0  0  0
   45.8598   33.0654   41.2295 H   0  0  0  0  0  0  0  0  0  0  0  0
   42.4761   32.2088   41.5195 H   0  0  0  0  0  0  0  0  0  0  0  0
   41.7418   33.7719   42.1519 H   0  0  0  0  0  0  0  0  0  0  0  0
   41.1427   32.5912   39.8345 H   0  0  0  0  0  0  0  0  0  0  0  0
   41.0230   34.3925   40.2726 H   0  0  0  0  0  0  0  0  0  0  0  0
   43.8631   32.4962   39.1795 H   0  0  0  0  0  0  0  0  0  0  0  0
   44.2150   34.0153   38.2129 H   0  0  0  0  0  0  0  0  0  0  0  0
   44.5189   35.3116   40.2352 H   0  0  0  0  0  0  0  0  0  0  0  0
   46.0492   32.7946   45.3155 H   0  0  0  0  0  0  0  0  0  0  0  0
   45.0768   32.2451   43.0970 H   0  0  0  0  0  0  0  0  0  0  0  0
   44.5162   36.7341   44.9472 H   0  0  0  0  0  0  0  0  0  0  0  0
   48.1432   36.3217   40.6595 H   0  0  0  0  0  0  0  0  0  0  0  0
   50.4892   35.1547   41.8773 H   0  0  0  0  0  0  0  0  0  0  0  0
   49.4539   36.4409   42.4851 H   0  0  0  0  0  0  0  0  0  0  0  0
   49.1684   34.0216   43.6023 H   0  0  0  0  0  0  0  0  0  0  0  0
   47.6816   34.7615   43.1757 H   0  0  0  0  0  0  0  0  0  0  0  0
   49.4847   32.9172   41.4014 H   0  0  0  0  0  0  0  0  0  0  0  0
   47.8274   32.5729   41.8098 H   0  0  0  0  0  0  0  0  0  0  0  0
   47.8258   35.2994   37.8293 H   0  0  0  0  0  0  0  0  0  0  0  0
   48.5234   34.1231   35.7593 H   0  0  0  0  0  0  0  0  0  0  0  0
   49.5547   31.8531   35.9496 H   0  0  0  0  0  0  0  0  0  0  0  0
   49.8545   30.8370   38.1850 H   0  0  0  0  0  0  0  0  0  0  0  0
  1 14  1  0
  2 10  1  0
  3  2  1  0
  4  3  1  0
  5  6  1  0
  5  4  1  0
  6  7  1  0
  7  1  1  0
  7  2  1  0
  8 13  2  0
  9  8  1  0
 10 11  1  0
 10  9  2  0
 11 12  2  0
 12 13  1  0
 15 16  1  0
 16 17  1  0
 18 17  1  0
 19 14  1  6
 19 15  1  0
 19 18  1  0
 20 25  1  0
 20 19  1  0
 21 20  2  0
 22 23  2  0
 22 21  1  0
 23 24  1  0
 24 25  2  0
  1 26  1  0
  1 27  1  0
  3 28  1  0
  3 29  1  0
  4 30  1  0
  4 31  1  0
  6 32  1  0
  6 33  1  0
  7 34  1  6
  8 35  1  0
  9 36  1  0
 12 37  1  0
 15 38  1  0
 16 39  1  0
 16 40  1  0
 17 41  1  0
 17 42  1  0
 18 43  1  0
 18 44  1  0
 21 45  1  0
 22 46  1  0
 23 47  1  0
 24 48  1  0
M  ISO  8  26   8  27   8  28  13  29  13  30  13  31  13  32  13  33  13
M  ISO  8  34  13  35  14  36  14  37  14  38   5  39  13  40  13  41  13
M  ISO  7  42  13  43  13  44  13  45  14  46  14  47  14  48  14
M  END
>  <minimizedAffinity>  (1) 
-5.66112661

>  <minimizedRMSD>  (1) 
0.976489246

$$$$
