
     RDKit          3D

 52 55  0  0  1  0  0  0  0  0999 V2000
   43.6300   33.7930   41.4000 N   0  0  0  0  0  0  0  0  0  0  0  0
   42.3380   33.1790   41.3150 C   0  0  0  0  0  0  0  0  0  0  0  0
   41.6150   33.4040   40.0480 C   0  0  0  0  0  0  0  0  0  0  0  0
   42.3560   33.7310   38.9600 O   0  0  0  0  0  0  0  0  0  0  0  0
   43.6740   33.4480   39.0270 C   0  0  0  0  0  0  0  0  0  0  0  0
   44.3950   34.0970   40.2010 C   0  0  2  0  0  0  0  0  0  0  0  0
   45.4560   33.5110   44.6620 C   0  0  0  0  0  0  0  0  0  0  0  0
   44.8860   33.1810   43.4350 C   0  0  0  0  0  0  0  0  0  0  0  0
   44.2170   34.1280   42.6570 C   0  0  0  0  0  0  0  0  0  0  0  0
   44.1320   35.4140   43.1400 N   0  0  0  0  0  0  0  0  0  0  0  0
   44.6980   35.7150   44.3470 C   0  0  0  0  0  0  0  0  0  0  0  0
   45.3450   34.7730   45.0850 N   0  0  0  0  0  0  0  0  0  0  0  0
   45.8030   33.6350   40.2350 C   0  0  0  0  0  0  0  0  0  0  0  0
   46.7110   34.4560   40.4630 O   0  0  0  0  0  0  0  0  0  0  0  0
   48.7620   35.4430   40.5230 N   0  0  0  0  0  0  0  0  0  0  0  0
   49.3270   35.5020   41.8400 C   0  0  0  0  0  0  0  0  0  0  0  0
   48.4640   34.5320   42.6550 C   0  0  0  0  0  0  0  0  0  0  0  0
   48.3970   33.4130   41.6290 C   0  0  0  0  0  0  0  0  0  0  0  0
   48.0430   34.1770   40.3890 C   0  0  1  0  0  0  0  0  0  0  0  0
   48.3950   33.6190   39.1680 N   0  0  0  0  0  0  0  0  0  0  0  0
   49.1160   32.4100   39.1510 C   0  0  0  0  0  0  0  0  0  0  0  0
   48.6570   31.6470   37.9020 C   0  0  0  0  0  0  0  0  0  0  0  0
   48.6620   32.4370   36.7680 O   0  0  0  0  0  0  0  0  0  0  0  0
   47.9120   33.5850   36.8720 C   0  0  0  0  0  0  0  0  0  0  0  0
   48.4500   34.4260   38.0120 C   0  0  0  0  0  0  0  0  0  0  0  0
   42.4680   32.0944   41.4441 H   0  0  0  0  0  0  0  0  0  0  0  0
   41.7268   33.6462   42.1012 H   0  0  0  0  0  0  0  0  0  0  0  0
   41.0687   32.4793   39.8103 H   0  0  0  0  0  0  0  0  0  0  0  0
   40.9831   34.2847   40.2352 H   0  0  0  0  0  0  0  0  0  0  0  0
   43.7883   32.3573   39.1127 H   0  0  0  0  0  0  0  0  0  0  0  0
   44.1306   33.8549   38.1127 H   0  0  0  0  0  0  0  0  0  0  0  0
   44.4523   35.1919   40.1126 H   0  0  0  0  0  0  0  0  0  0  0  0
   45.9816   32.7554   45.2644 H   0  0  0  0  0  0  0  0  0  0  0  0
   44.9649   32.1467   43.0689 H   0  0  0  0  0  0  0  0  0  0  0  0
   44.6287   36.7435   44.7309 H   0  0  0  0  0  0  0  0  0  0  0  0
   45.8675   32.8615   41.0144 H   0  0  0  0  0  0  0  0  0  0  0  0
   45.9960   33.3160   39.2001 H   0  0  0  0  0  0  0  0  0  0  0  0
   48.1108   36.2295   40.3877 H   0  0  0  0  0  0  0  0  0  0  0  0
   50.3779   35.1771   41.8300 H   0  0  0  0  0  0  0  0  0  0  0  0
   49.3286   36.5204   42.2558 H   0  0  0  0  0  0  0  0  0  0  0  0
   48.9557   34.2163   43.5870 H   0  0  0  0  0  0  0  0  0  0  0  0
   47.5000   34.9218   43.0139 H   0  0  0  0  0  0  0  0  0  0  0  0
   49.3658   32.9024   41.5253 H   0  0  0  0  0  0  0  0  0  0  0  0
   47.6895   32.6097   41.8822 H   0  0  0  0  0  0  0  0  0  0  0  0
   50.1959   32.6122   39.0973 H   0  0  0  0  0  0  0  0  0  0  0  0
   48.9332   31.8248   40.0643 H   0  0  0  0  0  0  0  0  0  0  0  0
   49.3332   30.7944   37.7410 H   0  0  0  0  0  0  0  0  0  0  0  0
   47.6223   31.3155   38.0741 H   0  0  0  0  0  0  0  0  0  0  0  0
   47.9761   34.1535   35.9325 H   0  0  0  0  0  0  0  0  0  0  0  0
   46.8610   33.3252   37.0665 H   0  0  0  0  0  0  0  0  0  0  0  0
   49.4886   34.7245   37.8064 H   0  0  0  0  0  0  0  0  0  0  0  0
   47.8592   35.3449   38.1408 H   0  0  0  0  0  0  0  0  0  0  0  0
  1  9  1  0
  2  1  1  0
  3  2  1  0
  4  5  1  0
  4  3  1  0
  5  6  1  0
  6 13  1  0
  6  1  1  0
  7 12  2  0
  8  7  1  0
  9 10  1  0
  9  8  2  0
 10 11  2  0
 11 12  1  0
 13 14  1  0
 15 16  1  0
 16 17  1  0
 18 17  1  0
 19 14  1  6
 19 15  1  0
 19 18  1  0
 20 19  1  0
 21 20  1  0
 22 21  1  0
 23 24  1  0
 23 22  1  0
 24 25  1  0
 25 20  1  0
  2 26  1  0
  2 27  1  0
  3 28  1  0
  3 29  1  0
  5 30  1  0
  5 31  1  0
  6 32  1  6
  7 33  1  0
  8 34  1  0
 11 35  1  0
 13 36  1  0
 13 37  1  0
 15 38  1  0
 16 39  1  0
 16 40  1  0
 17 41  1  0
 17 42  1  0
 18 43  1  0
 18 44  1  0
 21 45  1  0
 21 46  1  0
 22 47  1  0
 22 48  1  0
 24 49  1  0
 24 50  1  0
 25 51  1  0
 25 52  1  0
M  ISO  8  26  13  27  13  28  13  29  13  30  13  31  13  32  13  33  14
M  ISO  8  34  14  35  14  36   8  37   8  38   5  39  13  40  13  41  13
M  ISO  8  42  13  43  13  44  13  45  13  46  13  47  13  48  13  49  13
M  ISO  3  50  13  51  13  52  13
M  END
>  <minimizedAffinity>  (1) 
-5.42820024

>  <minimizedRMSD>  (1) 
0.945458114

$$$$
