
     RDKit          3D

 46 49  0  0  1  0  0  0  0  0999 V2000
   43.7180   33.7160   41.4160 N   0  0  0  0  0  0  0  0  0  0  0  0
   42.4360   33.0690   41.3440 C   0  0  0  0  0  0  0  0  0  0  0  0
   41.7510   33.1940   40.0380 C   0  0  0  0  0  0  0  0  0  0  0  0
   42.4910   33.5410   38.9650 O   0  0  0  0  0  0  0  0  0  0  0  0
   43.8170   33.2920   39.0650 C   0  0  0  0  0  0  0  0  0  0  0  0
   44.4890   34.0260   40.2230 C   0  0  2  0  0  0  0  0  0  0  0  0
   45.4840   33.5290   44.7260 C   0  0  0  0  0  0  0  0  0  0  0  0
   44.9480   33.1700   43.4970 C   0  0  0  0  0  0  0  0  0  0  0  0
   44.2720   34.0740   42.6740 C   0  0  0  0  0  0  0  0  0  0  0  0
   44.1560   35.3630   43.1400 N   0  0  0  0  0  0  0  0  0  0  0  0
   44.6840   35.7090   44.3480 C   0  0  0  0  0  0  0  0  0  0  0  0
   45.3350   34.7950   45.1180 N   0  0  0  0  0  0  0  0  0  0  0  0
   45.9110   33.6290   40.2940 C   0  0  0  0  0  0  0  0  0  0  0  0
   46.7900   34.5090   40.4210 O   0  0  0  0  0  0  0  0  0  0  0  0
   48.8120   35.5260   40.5830 N   0  0  0  0  0  0  0  0  0  0  0  0
   49.3730   35.4740   41.9040 C   0  0  0  0  0  0  0  0  0  0  0  0
   48.5480   34.4100   42.6260 C   0  0  0  0  0  0  0  0  0  0  0  0
   48.5140   33.3890   41.4950 C   0  0  0  0  0  0  0  0  0  0  0  0
   48.1360   34.2460   40.3300 C   0  0  1  0  0  0  0  0  0  0  0  0
   48.4830   33.7240   39.0460 N   0  0  0  0  0  0  0  0  0  0  0  0
   48.9760   32.5180   38.7400 C   0  0  0  0  0  0  0  0  0  0  0  0
   49.1480   32.4870   37.3720 C   0  0  0  0  0  0  0  0  0  0  0  0
   48.7610   33.6630   36.8920 N   0  0  0  0  0  0  0  0  0  0  0  0
   48.3500   34.4310   37.9190 C   0  0  0  0  0  0  0  0  0  0  0  0
   42.5803   31.9989   41.5538 H   0  0  0  0  0  0  0  0  0  0  0  0
   41.7929   33.5725   42.0808 H   0  0  0  0  0  0  0  0  0  0  0  0
   41.2898   32.2203   39.8161 H   0  0  0  0  0  0  0  0  0  0  0  0
   41.0531   34.0335   40.1733 H   0  0  0  0  0  0  0  0  0  0  0  0
   43.9583   32.2107   39.2093 H   0  0  0  0  0  0  0  0  0  0  0  0
   44.2849   33.6538   38.1376 H   0  0  0  0  0  0  0  0  0  0  0  0
   44.4985   35.1188   40.0979 H   0  0  0  0  0  0  0  0  0  0  0  0
   46.0123   32.7962   45.3536 H   0  0  0  0  0  0  0  0  0  0  0  0
   45.0602   32.1300   43.1568 H   0  0  0  0  0  0  0  0  0  0  0  0
   44.5823   36.7440   44.7064 H   0  0  0  0  0  0  0  0  0  0  0  0
   46.0112   32.9502   41.1538 H   0  0  0  0  0  0  0  0  0  0  0  0
   46.1111   33.2055   39.2987 H   0  0  0  0  0  0  0  0  0  0  0  0
   48.1336   36.2986   40.5208 H   0  0  0  0  0  0  0  0  0  0  0  0
   50.4335   35.1843   41.8653 H   0  0  0  0  0  0  0  0  0  0  0  0
   49.3377   36.4485   42.4130 H   0  0  0  0  0  0  0  0  0  0  0  0
   49.0538   34.0248   43.5237 H   0  0  0  0  0  0  0  0  0  0  0  0
   47.5742   34.7324   43.0231 H   0  0  0  0  0  0  0  0  0  0  0  0
   49.4983   32.9209   41.3467 H   0  0  0  0  0  0  0  0  0  0  0  0
   47.8295   32.5464   41.6723 H   0  0  0  0  0  0  0  0  0  0  0  0
   49.2014   31.7052   39.4461 H   0  0  0  0  0  0  0  0  0  0  0  0
   49.5355   31.6413   36.7849 H   0  0  0  0  0  0  0  0  0  0  0  0
   47.9708   35.4608   37.8438 H   0  0  0  0  0  0  0  0  0  0  0  0
  1  9  1  0
  2  1  1  0
  3  2  1  0
  4  5  1  0
  4  3  1  0
  5  6  1  0
  6 13  1  0
  6  1  1  0
  7 12  2  0
  8  7  1  0
  9 10  1  0
  9  8  2  0
 10 11  2  0
 11 12  1  0
 13 14  1  0
 15 16  1  0
 16 17  1  0
 18 17  1  0
 19 14  1  6
 19 15  1  0
 19 18  1  0
 20 19  1  0
 21 20  1  0
 22 21  2  0
 23 22  1  0
 23 24  2  0
 24 20  1  0
  2 25  1  0
  2 26  1  0
  3 27  1  0
  3 28  1  0
  5 29  1  0
  5 30  1  0
  6 31  1  6
  7 32  1  0
  8 33  1  0
 11 34  1  0
 13 35  1  0
 13 36  1  0
 15 37  1  0
 16 38  1  0
 16 39  1  0
 17 40  1  0
 17 41  1  0
 18 42  1  0
 18 43  1  0
 21 44  1  0
 22 45  1  0
 24 46  1  0
M  ISO  8  25  13  26  13  27  13  28  13  29  13  30  13  31  13  32  14
M  ISO  8  33  14  34  14  35   8  36   8  37   5  38  13  39  13  40  13
M  ISO  6  41  13  42  13  43  13  44  14  45  14  46  14
M  END
>  <minimizedAffinity>  (1) 
-5.38965607

>  <minimizedRMSD>  (1) 
0.652352631

$$$$
