
     RDKit          3D

 53 57  0  0  1  0  0  0  0  0999 V2000
   47.6880   34.7030   41.2420 C   0  0  1  0  0  0  0  0  0  0  0  0
   45.5960   33.9110   42.3600 C   0  0  0  0  0  0  0  0  0  0  0  0
   46.9790   34.1370   42.3990 C   0  0  0  0  0  0  0  0  0  0  0  0
   47.6810   33.8230   43.5850 C   0  0  0  0  0  0  0  0  0  0  0  0
   47.0030   33.3220   44.6280 N   0  0  0  0  0  0  0  0  0  0  0  0
   45.6690   33.1060   44.5820 C   0  0  0  0  0  0  0  0  0  0  0  0
   45.0030   33.4000   43.4680 N   0  0  0  0  0  0  0  0  0  0  0  0
   44.7470   34.2220   41.2670 C   0  0  0  0  0  0  0  0  0  0  0  0
   43.5040   33.2780   41.2560 C   0  0  0  0  0  0  0  0  0  0  0  0
   42.6180   34.0030   40.2530 C   0  0  0  0  0  0  0  0  0  0  0  0
   42.9770   35.4590   40.4260 C   0  0  0  0  0  0  0  0  0  0  0  0
   44.0350   35.5180   41.5140 C   0  0  0  0  0  0  0  0  0  0  0  0
   48.6340   35.7710   41.5990 C   0  0  0  0  0  0  0  0  0  0  0  0
   48.3090   33.5660   40.4570 C   0  0  0  0  0  0  0  0  0  0  0  0
   47.8530   33.5070   39.1010 N   0  0  0  0  0  0  0  0  0  0  0  0
   48.4510   34.4150   38.3220 N   0  0  0  0  0  0  0  0  0  0  0  0
   47.9750   34.2940   37.0660 C   0  0  0  0  0  0  0  0  0  0  0  0
   47.0410   33.2690   37.0610 C   0  0  0  0  0  0  0  0  0  0  0  0
   47.0040   32.8140   38.3450 C   0  0  0  0  0  0  0  0  0  0  0  0
   46.1740   31.7630   38.8490 C   0  0  0  0  0  0  0  0  0  0  0  0
   46.3840   30.7970   39.7940 C   0  0  0  0  0  0  0  0  0  0  0  0
   45.3440   29.9790   40.0190 N   0  0  0  0  0  0  0  0  0  0  0  0
   44.3380   30.3850   39.1910 C   0  0  0  0  0  0  0  0  0  0  0  0
   43.0710   29.8630   39.0550 C   0  0  0  0  0  0  0  0  0  0  0  0
   42.2570   30.4770   38.1390 C   0  0  0  0  0  0  0  0  0  0  0  0
   42.6820   31.5540   37.3970 C   0  0  0  0  0  0  0  0  0  0  0  0
   43.9610   31.9900   37.6130 C   0  0  0  0  0  0  0  0  0  0  0  0
   44.8780   31.4730   38.4930 C   0  0  0  0  0  0  0  0  0  0  0  0
   46.9653   35.2212   40.5946 H   0  0  0  0  0  0  0  0  0  0  0  0
   48.7667   33.9870   43.6514 H   0  0  0  0  0  0  0  0  0  0  0  0
   45.1411   32.6926   45.4541 H   0  0  0  0  0  0  0  0  0  0  0  0
   45.3921   34.1832   40.3769 H   0  0  0  0  0  0  0  0  0  0  0  0
   43.7647   32.2664   40.9115 H   0  0  0  0  0  0  0  0  0  0  0  0
   43.0433   33.1132   42.2412 H   0  0  0  0  0  0  0  0  0  0  0  0
   41.5546   33.8340   40.4782 H   0  0  0  0  0  0  0  0  0  0  0  0
   42.7726   33.6506   39.2225 H   0  0  0  0  0  0  0  0  0  0  0  0
   43.3766   35.8659   39.4854 H   0  0  0  0  0  0  0  0  0  0  0  0
   42.0940   36.0560   40.6981 H   0  0  0  0  0  0  0  0  0  0  0  0
   43.5854   35.5504   42.5174 H   0  0  0  0  0  0  0  0  0  0  0  0
   44.6783   36.4097   41.4823 H   0  0  0  0  0  0  0  0  0  0  0  0
   48.7029   35.8488   42.6941 H   0  0  0  0  0  0  0  0  0  0  0  0
   49.6256   35.5360   41.1850 H   0  0  0  0  0  0  0  0  0  0  0  0
   48.2810   36.7270   41.1850 H   0  0  0  0  0  0  0  0  0  0  0  0
   49.4011   33.6977   40.4540 H   0  0  0  0  0  0  0  0  0  0  0  0
   48.0096   32.6271   40.9457 H   0  0  0  0  0  0  0  0  0  0  0  0
   48.2746   34.9010   36.1989 H   0  0  0  0  0  0  0  0  0  0  0  0
   46.4559   32.9021   36.2048 H   0  0  0  0  0  0  0  0  0  0  0  0
   47.3383   30.6974   40.3319 H   0  0  0  0  0  0  0  0  0  0  0  0
   45.3114   29.1961   40.6875 H   0  0  0  0  0  0  0  0  0  0  0  0
   42.7312   29.0014   39.6484 H   0  0  0  0  0  0  0  0  0  0  0  0
   41.2349   30.0975   37.9933 H   0  0  0  0  0  0  0  0  0  0  0  0
   42.0239   32.0427   36.6634 H   0  0  0  0  0  0  0  0  0  0  0  0
   44.2909   32.8516   37.0140 H   0  0  0  0  0  0  0  0  0  0  0  0
  1 13  1  0
  1  3  1  0
  2  3  1  0
  2  7  2  0
  3  4  2  0
  4  5  1  0
  6  5  2  0
  7  6  1  0
  8 12  1  0
  8  2  1  0
  9  8  1  0
 10 11  1  0
 10  9  1  0
 11 12  1  0
 14  1  1  0
 15 14  1  0
 16 15  1  0
 17 16  2  0
 18 17  1  0
 18 19  2  0
 19 20  1  0
 19 15  1  0
 20 21  2  0
 21 22  1  0
 23 22  1  0
 24 23  2  0
 25 24  1  0
 26 27  1  0
 26 25  2  0
 27 28  2  0
 28 20  1  0
 28 23  1  0
  1 29  1  6
  4 30  1  0
  6 31  1  0
  8 32  1  0
  9 33  1  0
  9 34  1  0
 10 35  1  0
 10 36  1  0
 11 37  1  0
 11 38  1  0
 12 39  1  0
 12 40  1  0
 13 41  1  0
 13 42  1  0
 13 43  1  0
 14 44  1  0
 14 45  1  0
 17 46  1  0
 18 47  1  0
 21 48  1  0
 22 49  1  0
 24 50  1  0
 25 51  1  0
 26 52  1  0
 27 53  1  0
M  ISO  8  29   8  30  14  31  14  32  13  33  13  34  13  35  13  36  13
M  ISO  8  37  13  38  13  39  13  40  13  41   8  42   8  43   8  44   8
M  ISO  8  45   8  46  14  47  14  48  14  49   9  50  14  51  14  52  14
M  ISO  1  53  14
M  END
>  <minimizedAffinity>  (1) 
-5.12941599

>  <minimizedRMSD>  (1) 
2.06406331

$$$$
