
     RDKit          3D

 46 49  0  0  1  0  0  0  0  0999 V2000
   45.8660   33.4980   40.2380 C   0  0  0  0  0  0  0  0  0  0  0  0
   43.6880   33.7860   41.3310 N   0  0  0  0  0  0  0  0  0  0  0  0
   42.3550   33.2490   41.2550 C   0  0  0  0  0  0  0  0  0  0  0  0
   41.6900   33.4240   39.9440 C   0  0  0  0  0  0  0  0  0  0  0  0
   42.4660   33.7390   38.8720 O   0  0  0  0  0  0  0  0  0  0  0  0
   43.7650   33.3820   38.9750 C   0  0  0  0  0  0  0  0  0  0  0  0
   44.4970   34.0210   40.1520 C   0  0  2  0  0  0  0  0  0  0  0  0
   45.4270   33.5140   44.6450 C   0  0  0  0  0  0  0  0  0  0  0  0
   44.8800   33.1900   43.4170 C   0  0  0  0  0  0  0  0  0  0  0  0
   44.2560   34.1070   42.5980 C   0  0  0  0  0  0  0  0  0  0  0  0
   44.2010   35.3970   43.0740 N   0  0  0  0  0  0  0  0  0  0  0  0
   44.7390   35.7130   44.2820 C   0  0  0  0  0  0  0  0  0  0  0  0
   45.3380   34.7770   45.0430 N   0  0  0  0  0  0  0  0  0  0  0  0
   46.8380   34.2140   39.9130 O   0  0  0  0  0  0  0  0  0  0  0  0
   48.8290   35.2900   40.1640 N   0  0  0  0  0  0  0  0  0  0  0  0
   49.0380   35.8220   41.4810 C   0  0  0  0  0  0  0  0  0  0  0  0
   47.9630   35.1490   42.3360 C   0  0  0  0  0  0  0  0  0  0  0  0
   48.1200   33.7330   41.7870 C   0  0  0  0  0  0  0  0  0  0  0  0
   48.1290   34.0070   40.3250 C   0  0  1  0  0  0  0  0  0  0  0  0
   48.8330   32.9650   39.6050 N   0  0  0  0  0  0  0  0  0  0  0  0
   48.8090   33.0240   38.2930 N   0  0  0  0  0  0  0  0  0  0  0  0
   49.4970   32.0020   37.7690 C   0  0  0  0  0  0  0  0  0  0  0  0
   49.9590   31.2880   38.8510 C   0  0  0  0  0  0  0  0  0  0  0  0
   49.5360   31.9020   40.0230 C   0  0  0  0  0  0  0  0  0  0  0  0
   46.0266   33.2044   41.2859 H   0  0  0  0  0  0  0  0  0  0  0  0
   45.8770   32.7036   39.4772 H   0  0  0  0  0  0  0  0  0  0  0  0
   42.4070   32.1718   41.4714 H   0  0  0  0  0  0  0  0  0  0  0  0
   41.7529   33.8094   41.9854 H   0  0  0  0  0  0  0  0  0  0  0  0
   41.1754   32.4805   39.7095 H   0  0  0  0  0  0  0  0  0  0  0  0
   41.0400   34.3009   40.0802 H   0  0  0  0  0  0  0  0  0  0  0  0
   43.8145   32.2891   39.0899 H   0  0  0  0  0  0  0  0  0  0  0  0
   44.2642   33.7370   38.0613 H   0  0  0  0  0  0  0  0  0  0  0  0
   44.6192   35.1079   40.0348 H   0  0  0  0  0  0  0  0  0  0  0  0
   45.9179   32.7528   45.2692 H   0  0  0  0  0  0  0  0  0  0  0  0
   44.9461   32.1464   43.0758 H   0  0  0  0  0  0  0  0  0  0  0  0
   44.6841   36.7503   44.6438 H   0  0  0  0  0  0  0  0  0  0  0  0
   49.7337   35.1429   39.6942 H   0  0  0  0  0  0  0  0  0  0  0  0
   50.0433   35.5685   41.8485 H   0  0  0  0  0  0  0  0  0  0  0  0
   48.9689   36.9195   41.5065 H   0  0  0  0  0  0  0  0  0  0  0  0
   48.1874   35.2074   43.4113 H   0  0  0  0  0  0  0  0  0  0  0  0
   46.9540   35.5831   42.2771 H   0  0  0  0  0  0  0  0  0  0  0  0
   49.0614   33.2710   42.1191 H   0  0  0  0  0  0  0  0  0  0  0  0
   47.3440   33.0259   42.1155 H   0  0  0  0  0  0  0  0  0  0  0  0
   49.6582   31.7808   36.7036 H   0  0  0  0  0  0  0  0  0  0  0  0
   50.5682   30.3737   38.7963 H   0  0  0  0  0  0  0  0  0  0  0  0
   49.7329   31.5878   41.0586 H   0  0  0  0  0  0  0  0  0  0  0  0
  2 10  1  0
  3  2  1  0
  4  3  1  0
  5  6  1  0
  5  4  1  0
  6  7  1  0
  7  1  1  0
  7  2  1  0
  8 13  2  0
  9  8  1  0
 10 11  1  0
 10  9  2  0
 11 12  2  0
 12 13  1  0
 14  1  1  0
 15 19  1  0
 15 16  1  0
 16 17  1  0
 18 17  1  0
 19 14  1  6
 19 18  1  0
 20 24  1  0
 20 19  1  0
 21 20  1  0
 22 21  2  0
 22 23  1  0
 23 24  2  0
  1 25  1  0
  1 26  1  0
  3 27  1  0
  3 28  1  0
  4 29  1  0
  4 30  1  0
  6 31  1  0
  6 32  1  0
  7 33  1  6
  8 34  1  0
  9 35  1  0
 12 36  1  0
 15 37  1  0
 16 38  1  0
 16 39  1  0
 17 40  1  0
 17 41  1  0
 18 42  1  0
 18 43  1  0
 22 44  1  0
 23 45  1  0
 24 46  1  0
M  ISO  8  25   8  26   8  27  13  28  13  29  13  30  13  31  13  32  13
M  ISO  8  33  13  34  14  35  14  36  14  37   5  38  13  39  13  40  13
M  ISO  6  41  13  42  13  43  13  44  14  45  14  46  14
M  END
>  <minimizedAffinity>  (1) 
-5.16437244

>  <minimizedRMSD>  (1) 
0.620487988

$$$$
