
     RDKit          3D

 54 57  0  0  1  0  0  0  0  0999 V2000
   46.0090   33.7050   40.4580 C   0  0  0  0  0  0  0  0  0  0  0  0
   43.7940   33.7680   41.5200 N   0  0  0  0  0  0  0  0  0  0  0  0
   42.5220   33.1020   41.4040 C   0  0  0  0  0  0  0  0  0  0  0  0
   41.8620   33.2560   40.0810 C   0  0  0  0  0  0  0  0  0  0  0  0
   42.6280   33.6280   39.0280 O   0  0  0  0  0  0  0  0  0  0  0  0
   43.9520   33.4060   39.1580 C   0  0  0  0  0  0  0  0  0  0  0  0
   44.5980   34.0940   40.3550 C   0  0  2  0  0  0  0  0  0  0  0  0
   45.4880   33.6270   44.8620 C   0  0  0  0  0  0  0  0  0  0  0  0
   44.9940   33.2680   43.6220 C   0  0  0  0  0  0  0  0  0  0  0  0
   44.3070   34.1300   42.7970 C   0  0  0  0  0  0  0  0  0  0  0  0
   44.1290   35.4070   43.2810 N   0  0  0  0  0  0  0  0  0  0  0  0
   44.6140   35.7590   44.4980 C   0  0  0  0  0  0  0  0  0  0  0  0
   45.2800   34.8760   45.2650 N   0  0  0  0  0  0  0  0  0  0  0  0
   46.9100   34.4890   40.0870 O   0  0  0  0  0  0  0  0  0  0  0  0
   48.9070   35.5050   40.4880 N   0  0  0  0  0  0  0  0  0  0  0  0
   49.2870   35.4900   41.8730 C   0  0  0  0  0  0  0  0  0  0  0  0
   48.3600   34.4520   42.5050 C   0  0  0  0  0  0  0  0  0  0  0  0
   48.4650   33.3860   41.4110 C   0  0  0  0  0  0  0  0  0  0  0  0
   48.2510   34.2270   40.2020 C   0  0  1  0  0  0  0  0  0  0  0  0
   48.6830   33.6660   38.9590 N   0  0  0  0  0  0  0  0  0  0  0  0
   48.6960   32.2470   38.9980 C   0  0  0  0  0  0  0  0  0  0  0  0
   47.7010   31.6220   38.0450 C   0  0  0  0  0  0  0  0  0  0  0  0
   47.9430   32.0910   36.6420 C   0  0  0  0  0  0  0  0  0  0  0  0
   48.6640   33.4150   36.6220 C   0  0  0  0  0  0  0  0  0  0  0  0
   48.1840   34.2820   37.7850 C   0  0  0  0  0  0  0  0  0  0  0  0
   46.1992   33.4849   41.5188 H   0  0  0  0  0  0  0  0  0  0  0  0
   46.0910   32.8748   39.7410 H   0  0  0  0  0  0  0  0  0  0  0  0
   42.6787   32.0286   41.5865 H   0  0  0  0  0  0  0  0  0  0  0  0
   41.8552   33.5720   42.1419 H   0  0  0  0  0  0  0  0  0  0  0  0
   41.4063   32.2873   39.8280 H   0  0  0  0  0  0  0  0  0  0  0  0
   41.1605   34.0919   40.2195 H   0  0  0  0  0  0  0  0  0  0  0  0
   44.1095   32.3221   39.2595 H   0  0  0  0  0  0  0  0  0  0  0  0
   44.4279   33.8300   38.2615 H   0  0  0  0  0  0  0  0  0  0  0  0
   44.6162   35.1892   40.2538 H   0  0  0  0  0  0  0  0  0  0  0  0
   46.0321   32.9068   45.4907 H   0  0  0  0  0  0  0  0  0  0  0  0
   45.1588   32.2371   43.2753 H   0  0  0  0  0  0  0  0  0  0  0  0
   44.4602   36.7846   44.8646 H   0  0  0  0  0  0  0  0  0  0  0  0
   48.2560   36.2830   40.3096 H   0  0  0  0  0  0  0  0  0  0  0  0
   50.3400   35.1925   41.9854 H   0  0  0  0  0  0  0  0  0  0  0  0
   49.1962   36.4792   42.3455 H   0  0  0  0  0  0  0  0  0  0  0  0
   48.7348   34.0931   43.4749 H   0  0  0  0  0  0  0  0  0  0  0  0
   47.3444   34.7953   42.7512 H   0  0  0  0  0  0  0  0  0  0  0  0
   49.4548   32.9062   41.4034 H   0  0  0  0  0  0  0  0  0  0  0  0
   47.7642   32.5449   41.5178 H   0  0  0  0  0  0  0  0  0  0  0  0
   49.7044   31.8979   38.7311 H   0  0  0  0  0  0  0  0  0  0  0  0
   48.4132   31.9425   40.0165 H   0  0  0  0  0  0  0  0  0  0  0  0
   47.8039   30.5275   38.0825 H   0  0  0  0  0  0  0  0  0  0  0  0
   46.6865   31.9210   38.3473 H   0  0  0  0  0  0  0  0  0  0  0  0
   48.5533   31.3430   36.1147 H   0  0  0  0  0  0  0  0  0  0  0  0
   46.9692   32.2192   36.1467 H   0  0  0  0  0  0  0  0  0  0  0  0
   49.7463   33.2431   36.7168 H   0  0  0  0  0  0  0  0  0  0  0  0
   48.4528   33.9299   35.6732 H   0  0  0  0  0  0  0  0  0  0  0  0
   48.5810   35.3035   37.6903 H   0  0  0  0  0  0  0  0  0  0  0  0
   47.0870   34.3607   37.8047 H   0  0  0  0  0  0  0  0  0  0  0  0
  2 10  1  0
  3  2  1  0
  4  3  1  0
  5  6  1  0
  5  4  1  0
  6  7  1  0
  7  1  1  0
  7  2  1  0
  8 13  2  0
  9  8  1  0
 10 11  1  0
 10  9  2  0
 11 12  2  0
 12 13  1  0
 14  1  1  0
 15 16  1  0
 16 17  1  0
 18 17  1  0
 19 14  1  6
 19 15  1  0
 19 18  1  0
 20 21  1  0
 20 19  1  0
 22 21  1  0
 23 22  1  0
 24 23  1  0
 24 25  1  0
 25 20  1  0
  1 26  1  0
  1 27  1  0
  3 28  1  0
  3 29  1  0
  4 30  1  0
  4 31  1  0
  6 32  1  0
  6 33  1  0
  7 34  1  6
  8 35  1  0
  9 36  1  0
 12 37  1  0
 15 38  1  0
 16 39  1  0
 16 40  1  0
 17 41  1  0
 17 42  1  0
 18 43  1  0
 18 44  1  0
 21 45  1  0
 21 46  1  0
 22 47  1  0
 22 48  1  0
 23 49  1  0
 23 50  1  0
 24 51  1  0
 24 52  1  0
 25 53  1  0
 25 54  1  0
M  ISO  8  26   8  27   8  28  13  29  13  30  13  31  13  32  13  33  13
M  ISO  8  34  13  35  14  36  14  37  14  38   5  39  13  40  13  41  13
M  ISO  8  42  13  43  13  44  13  45  13  46  13  47  13  48  13  49  13
M  ISO  5  50  13  51  13  52  13  53  13  54  13
M  END
>  <minimizedAffinity>  (1) 
-5.34521723

>  <minimizedRMSD>  (1) 
1.08082104

$$$$
