
     RDKit          3D

 40 42  0  0  1  0  0  0  0  0999 V2000
   43.8540   33.4880   41.0550 N   0  0  0  0  0  0  0  0  0  0  0  0
   42.6180   32.7520   40.9760 C   0  0  0  0  0  0  0  0  0  0  0  0
   41.9690   32.7840   39.6380 C   0  0  0  0  0  0  0  0  0  0  0  0
   42.7400   33.0840   38.5680 O   0  0  0  0  0  0  0  0  0  0  0  0
   44.0700   32.9350   38.7350 C   0  0  0  0  0  0  0  0  0  0  0  0
   44.6700   33.7400   39.8800 C   0  0  2  0  0  0  0  0  0  0  0  0
   45.3580   33.6930   44.4810 C   0  0  0  0  0  0  0  0  0  0  0  0
   44.9030   33.1980   43.2720 C   0  0  0  0  0  0  0  0  0  0  0  0
   44.3210   33.9960   42.2960 C   0  0  0  0  0  0  0  0  0  0  0  0
   44.2130   35.3350   42.5940 N   0  0  0  0  0  0  0  0  0  0  0  0
   44.6630   35.8090   43.7860 C   0  0  0  0  0  0  0  0  0  0  0  0
   45.2220   34.9960   44.7020 N   0  0  0  0  0  0  0  0  0  0  0  0
   46.0910   33.4090   40.0430 C   0  0  0  0  0  0  0  0  0  0  0  0
   46.9630   34.3020   39.9940 O   0  0  0  0  0  0  0  0  0  0  0  0
   48.9030   35.4580   40.2650 N   0  0  0  0  0  0  0  0  0  0  0  0
   49.1500   35.8560   41.6230 C   0  0  0  0  0  0  0  0  0  0  0  0
   48.1620   35.0250   42.4450 C   0  0  0  0  0  0  0  0  0  0  0  0
   48.3690   33.6840   41.7330 C   0  0  0  0  0  0  0  0  0  0  0  0
   48.2830   34.1280   40.3100 C   0  0  1  0  0  0  0  0  0  0  0  0
   48.9260   33.2950   39.4040 O   0  0  0  0  0  0  0  0  0  0  0  0
   42.8252   31.7027   41.2330 H   0  0  0  0  0  0  0  0  0  0  0  0
   41.9197   33.2346   41.6756 H   0  0  0  0  0  0  0  0  0  0  0  0
   41.5350   31.7889   39.4605 H   0  0  0  0  0  0  0  0  0  0  0  0
   41.2488   33.6131   39.7004 H   0  0  0  0  0  0  0  0  0  0  0  0
   44.2729   31.8704   38.9235 H   0  0  0  0  0  0  0  0  0  0  0  0
   44.5392   33.3133   37.8148 H   0  0  0  0  0  0  0  0  0  0  0  0
   44.6558   34.8223   39.6839 H   0  0  0  0  0  0  0  0  0  0  0  0
   45.8156   33.0320   45.2318 H   0  0  0  0  0  0  0  0  0  0  0  0
   45.0072   32.1209   43.0744 H   0  0  0  0  0  0  0  0  0  0  0  0
   44.5681   36.8823   44.0074 H   0  0  0  0  0  0  0  0  0  0  0  0
   46.1905   32.9262   41.0264 H   0  0  0  0  0  0  0  0  0  0  0  0
   46.3067   32.8060   39.1487 H   0  0  0  0  0  0  0  0  0  0  0  0
   49.7895   35.4169   39.7422 H   0  0  0  0  0  0  0  0  0  0  0  0
   50.1864   35.6291   41.9134 H   0  0  0  0  0  0  0  0  0  0  0  0
   49.0186   36.9375   41.7750 H   0  0  0  0  0  0  0  0  0  0  0  0
   48.4394   34.9795   43.5085 H   0  0  0  0  0  0  0  0  0  0  0  0
   47.1281   35.3989   42.4800 H   0  0  0  0  0  0  0  0  0  0  0  0
   49.3511   33.2462   41.9651 H   0  0  0  0  0  0  0  0  0  0  0  0
   47.6561   32.8953   42.0154 H   0  0  0  0  0  0  0  0  0  0  0  0
   49.4509   32.6150   39.8960 H   0  0  0  0  0  0  0  0  0  0  0  0
  1  9  1  0
  2  1  1  0
  3  2  1  0
  4  5  1  0
  4  3  1  0
  5  6  1  0
  6 13  1  0
  6  1  1  0
  7 12  2  0
  8  7  1  0
  9 10  1  0
  9  8  2  0
 10 11  2  0
 11 12  1  0
 14 13  1  0
 19 14  1  6
 15 19  1  0
 15 16  1  0
 16 17  1  0
 18 17  1  0
 19 20  1  0
 19 18  1  0
  2 21  1  0
  2 22  1  0
  3 23  1  0
  3 24  1  0
  5 25  1  0
  5 26  1  0
  6 27  1  6
  7 28  1  0
  8 29  1  0
 11 30  1  0
 13 31  1  0
 13 32  1  0
 15 33  1  0
 16 34  1  0
 16 35  1  0
 17 36  1  0
 17 37  1  0
 18 38  1  0
 18 39  1  0
 20 40  1  0
M  ISO  8  21  13  22  13  23  13  24  13  25  13  26  13  27  13  28  14
M  ISO  8  29  14  30  14  31   8  32   8  33   5  34  13  35  13  36  13
M  ISO  4  37  13  38  13  39  13  40   3
M  END
>  <minimizedAffinity>  (1) 
-4.86941147

>  <minimizedRMSD>  (1) 
0.169251904

$$$$
