
     RDKit          3D

 46 49  0  0  1  0  0  0  0  0999 V2000
   43.7190   33.7780   41.3450 N   0  0  0  0  0  0  0  0  0  0  0  0
   42.3880   33.2340   41.2400 C   0  0  0  0  0  0  0  0  0  0  0  0
   41.7280   33.4790   39.9360 C   0  0  0  0  0  0  0  0  0  0  0  0
   42.5210   33.7270   38.8690 O   0  0  0  0  0  0  0  0  0  0  0  0
   43.8150   33.3660   38.9900 C   0  0  0  0  0  0  0  0  0  0  0  0
   44.5400   34.0110   40.1680 C   0  0  2  0  0  0  0  0  0  0  0  0
   45.4320   33.5140   44.6640 C   0  0  0  0  0  0  0  0  0  0  0  0
   44.8940   33.1890   43.4330 C   0  0  0  0  0  0  0  0  0  0  0  0
   44.2730   34.1060   42.6110 C   0  0  0  0  0  0  0  0  0  0  0  0
   44.2120   35.3970   43.0880 N   0  0  0  0  0  0  0  0  0  0  0  0
   44.7430   35.7110   44.3000 C   0  0  0  0  0  0  0  0  0  0  0  0
   45.3390   34.7760   45.0640 N   0  0  0  0  0  0  0  0  0  0  0  0
   45.9070   33.4870   40.2670 C   0  0  0  0  0  0  0  0  0  0  0  0
   46.8820   34.1900   39.9250 O   0  0  0  0  0  0  0  0  0  0  0  0
   48.8500   35.3050   40.1860 N   0  0  0  0  0  0  0  0  0  0  0  0
   49.0120   35.8910   41.4870 C   0  0  0  0  0  0  0  0  0  0  0  0
   47.9270   35.2270   42.3370 C   0  0  0  0  0  0  0  0  0  0  0  0
   48.1240   33.7890   41.8450 C   0  0  0  0  0  0  0  0  0  0  0  0
   48.1630   34.0210   40.3760 C   0  0  1  0  0  0  0  0  0  0  0  0
   48.8620   32.9430   39.6340 C   0  0  0  0  0  0  0  0  0  0  0  0
   48.8350   32.6860   38.2790 C   0  0  0  0  0  0  0  0  0  0  0  0
   49.6540   31.5740   38.1030 C   0  0  0  0  0  0  0  0  0  0  0  0
   50.1210   31.2340   39.3590 C   0  0  0  0  0  0  0  0  0  0  0  0
   49.6440   32.0510   40.2400 O   0  0  0  0  0  0  0  0  0  0  0  0
   42.4472   32.1468   41.3968 H   0  0  0  0  0  0  0  0  0  0  0  0
   41.7792   33.7443   42.0009 H   0  0  0  0  0  0  0  0  0  0  0  0
   41.1268   32.5888   39.6992 H   0  0  0  0  0  0  0  0  0  0  0  0
   41.1580   34.4084   40.0820 H   0  0  0  0  0  0  0  0  0  0  0  0
   43.8576   32.2740   39.1155 H   0  0  0  0  0  0  0  0  0  0  0  0
   44.3249   33.7121   38.0788 H   0  0  0  0  0  0  0  0  0  0  0  0
   44.6649   35.0971   40.0464 H   0  0  0  0  0  0  0  0  0  0  0  0
   45.9203   32.7530   45.2904 H   0  0  0  0  0  0  0  0  0  0  0  0
   44.9647   32.1458   43.0915 H   0  0  0  0  0  0  0  0  0  0  0  0
   44.6845   36.7478   44.6628 H   0  0  0  0  0  0  0  0  0  0  0  0
   46.0662   33.2191   41.3219 H   0  0  0  0  0  0  0  0  0  0  0  0
   45.9151   32.6750   39.5249 H   0  0  0  0  0  0  0  0  0  0  0  0
   49.7704   35.1525   39.7496 H   0  0  0  0  0  0  0  0  0  0  0  0
   50.0116   35.6731   41.8910 H   0  0  0  0  0  0  0  0  0  0  0  0
   48.9206   36.9870   41.4692 H   0  0  0  0  0  0  0  0  0  0  0  0
   48.1209   35.3292   43.4149 H   0  0  0  0  0  0  0  0  0  0  0  0
   46.9122   35.6387   42.2336 H   0  0  0  0  0  0  0  0  0  0  0  0
   49.0653   33.3564   42.2150 H   0  0  0  0  0  0  0  0  0  0  0  0
   47.3572   33.0755   42.1809 H   0  0  0  0  0  0  0  0  0  0  0  0
   48.2848   33.2403   37.5043 H   0  0  0  0  0  0  0  0  0  0  0  0
   49.8836   31.0672   37.1541 H   0  0  0  0  0  0  0  0  0  0  0  0
   50.7972   30.3940   39.5762 H   0  0  0  0  0  0  0  0  0  0  0  0
  1  9  1  0
  2  1  1  0
  3  2  1  0
  4  5  1  0
  4  3  1  0
  5  6  1  0
  6 13  1  0
  6  1  1  0
  7 12  2  0
  8  7  1  0
  9 10  1  0
  9  8  2  0
 10 11  2  0
 11 12  1  0
 14 13  1  0
 15 19  1  0
 15 16  1  0
 16 17  1  0
 18 17  1  0
 19 14  1  6
 19 18  1  0
 20 24  1  0
 20 19  1  0
 21 20  2  0
 22 21  1  0
 22 23  2  0
 23 24  1  0
  2 25  1  0
  2 26  1  0
  3 27  1  0
  3 28  1  0
  5 29  1  0
  5 30  1  0
  6 31  1  6
  7 32  1  0
  8 33  1  0
 11 34  1  0
 13 35  1  0
 13 36  1  0
 15 37  1  0
 16 38  1  0
 16 39  1  0
 17 40  1  0
 17 41  1  0
 18 42  1  0
 18 43  1  0
 21 44  1  0
 22 45  1  0
 23 46  1  0
M  ISO  8  25  13  26  13  27  13  28  13  29  13  30  13  31  13  32  14
M  ISO  8  33  14  34  14  35   8  36   8  37   5  38  13  39  13  40  13
M  ISO  6  41  13  42  13  43  13  44  14  45  14  46  14
M  END
>  <minimizedAffinity>  (1) 
-5.12941217

>  <minimizedRMSD>  (1) 
0.6669451

$$$$
