
     RDKit          3D

 41 43  0  0  1  0  0  0  0  0999 V2000
   43.8200   33.5030   41.0440 N   0  0  0  0  0  0  0  0  0  0  0  0
   42.5810   32.7860   40.9600 C   0  0  0  0  0  0  0  0  0  0  0  0
   41.9300   32.8110   39.6290 C   0  0  0  0  0  0  0  0  0  0  0  0
   42.7150   33.0860   38.5560 O   0  0  0  0  0  0  0  0  0  0  0  0
   44.0400   32.9210   38.7340 C   0  0  0  0  0  0  0  0  0  0  0  0
   44.6380   33.7420   39.8660 C   0  0  2  0  0  0  0  0  0  0  0  0
   45.3510   33.6800   44.4680 C   0  0  0  0  0  0  0  0  0  0  0  0
   44.8850   33.1890   43.2540 C   0  0  0  0  0  0  0  0  0  0  0  0
   44.2990   34.0080   42.2870 C   0  0  0  0  0  0  0  0  0  0  0  0
   44.1960   35.3470   42.5830 N   0  0  0  0  0  0  0  0  0  0  0  0
   44.6540   35.8180   43.7770 C   0  0  0  0  0  0  0  0  0  0  0  0
   45.2200   34.9890   44.6950 N   0  0  0  0  0  0  0  0  0  0  0  0
   46.0650   33.3910   40.0360 C   0  0  0  0  0  0  0  0  0  0  0  0
   46.9260   34.2970   40.0070 O   0  0  0  0  0  0  0  0  0  0  0  0
   48.8790   35.4230   40.2430 N   0  0  0  0  0  0  0  0  0  0  0  0
   49.1450   35.8290   41.5980 C   0  0  0  0  0  0  0  0  0  0  0  0
   48.1360   35.0460   42.4300 C   0  0  0  0  0  0  0  0  0  0  0  0
   48.3350   33.6960   41.7390 C   0  0  0  0  0  0  0  0  0  0  0  0
   48.2520   34.0920   40.2990 C   0  0  1  0  0  0  0  0  0  0  0  0
   48.9450   33.2150   39.3870 N   0  0  0  0  0  0  0  0  0  0  0  0
   42.7760   31.7362   41.2244 H   0  0  0  0  0  0  0  0  0  0  0  0
   41.8879   33.2897   41.6499 H   0  0  0  0  0  0  0  0  0  0  0  0
   41.4791   31.8215   39.4633 H   0  0  0  0  0  0  0  0  0  0  0  0
   41.2178   33.6478   39.6792 H   0  0  0  0  0  0  0  0  0  0  0  0
   44.2271   31.8580   38.9462 H   0  0  0  0  0  0  0  0  0  0  0  0
   44.5228   33.2702   37.8093 H   0  0  0  0  0  0  0  0  0  0  0  0
   44.6279   34.8222   39.6585 H   0  0  0  0  0  0  0  0  0  0  0  0
   45.8106   33.0148   45.2139 H   0  0  0  0  0  0  0  0  0  0  0  0
   44.9817   32.1130   43.0470 H   0  0  0  0  0  0  0  0  0  0  0  0
   44.5641   36.8908   44.0031 H   0  0  0  0  0  0  0  0  0  0  0  0
   46.1583   32.8908   41.0113 H   0  0  0  0  0  0  0  0  0  0  0  0
   46.2924   32.7872   39.1451 H   0  0  0  0  0  0  0  0  0  0  0  0
   49.7592   35.3757   39.7101 H   0  0  0  0  0  0  0  0  0  0  0  0
   50.1740   35.5697   41.8877 H   0  0  0  0  0  0  0  0  0  0  0  0
   49.0515   36.9161   41.7373 H   0  0  0  0  0  0  0  0  0  0  0  0
   48.4025   35.0164   43.4968 H   0  0  0  0  0  0  0  0  0  0  0  0
   47.1090   35.4391   42.4576 H   0  0  0  0  0  0  0  0  0  0  0  0
   49.3153   33.2597   41.9813 H   0  0  0  0  0  0  0  0  0  0  0  0
   47.6100   32.9246   42.0377 H   0  0  0  0  0  0  0  0  0  0  0  0
   49.4906   32.5246   39.9224 H   0  0  0  0  0  0  0  0  0  0  0  0
   48.2598   32.7257   38.7937 H   0  0  0  0  0  0  0  0  0  0  0  0
  1  9  1  0
  2  1  1  0
  3  2  1  0
  4  5  1  0
  4  3  1  0
  5  6  1  0
  6 13  1  0
  6  1  1  0
  7 12  2  0
  8  7  1  0
  9 10  1  0
  9  8  2  0
 10 11  2  0
 11 12  1  0
 14 13  1  0
 15 19  1  0
 15 16  1  0
 16 17  1  0
 18 17  1  0
 19 14  1  6
 19 18  1  0
 20 19  1  0
  2 21  1  0
  2 22  1  0
  3 23  1  0
  3 24  1  0
  5 25  1  0
  5 26  1  0
  6 27  1  6
  7 28  1  0
  8 29  1  0
 11 30  1  0
 13 31  1  0
 13 32  1  0
 15 33  1  0
 16 34  1  0
 16 35  1  0
 17 36  1  0
 17 37  1  0
 18 38  1  0
 18 39  1  0
 20 40  1  0
 20 41  1  0
M  ISO  8  21  13  22  13  23  13  24  13  25  13  26  13  27  13  28  14
M  ISO  8  29  14  30  14  31   8  32   8  33   5  34  13  35  13  36  13
M  ISO  5  37  13  38  13  39  13  40   5  41   5
M  END
>  <minimizedAffinity>  (1) 
-4.86463547

>  <minimizedRMSD>  (1) 
0.15667446

$$$$
