
     RDKit          3D

 45 47  0  0  1  0  0  0  0  0999 V2000
   43.6330   33.7830   41.3950 N   0  0  0  0  0  0  0  0  0  0  0  0
   42.3510   33.1440   41.3290 C   0  0  0  0  0  0  0  0  0  0  0  0
   41.6310   33.3180   40.0470 C   0  0  0  0  0  0  0  0  0  0  0  0
   42.3550   33.7000   38.9690 O   0  0  0  0  0  0  0  0  0  0  0  0
   43.6820   33.4580   39.0240 C   0  0  0  0  0  0  0  0  0  0  0  0
   44.3950   34.1050   40.1980 C   0  0  2  0  0  0  0  0  0  0  0  0
   45.4610   33.5270   44.6660 C   0  0  0  0  0  0  0  0  0  0  0  0
   44.8970   33.1950   43.4430 C   0  0  0  0  0  0  0  0  0  0  0  0
   44.2150   34.1240   42.6520 C   0  0  0  0  0  0  0  0  0  0  0  0
   44.1220   35.4060   43.1420 N   0  0  0  0  0  0  0  0  0  0  0  0
   44.6860   35.7040   44.3480 C   0  0  0  0  0  0  0  0  0  0  0  0
   45.3350   34.7830   45.0830 N   0  0  0  0  0  0  0  0  0  0  0  0
   45.8040   33.6510   40.2400 C   0  0  0  0  0  0  0  0  0  0  0  0
   46.7090   34.4770   40.4880 O   0  0  0  0  0  0  0  0  0  0  0  0
   48.7530   35.4700   40.5420 N   0  0  0  0  0  0  0  0  0  0  0  0
   49.3590   35.4760   41.8430 C   0  0  0  0  0  0  0  0  0  0  0  0
   48.5290   34.4790   42.6510 C   0  0  0  0  0  0  0  0  0  0  0  0
   48.4470   33.3920   41.5800 C   0  0  0  0  0  0  0  0  0  0  0  0
   48.0480   34.1850   40.3840 C   0  0  1  0  0  0  0  0  0  0  0  0
   48.4700   33.5090   39.1230 C   0  0  0  0  0  0  0  0  0  0  0  0
   48.4530   34.4580   37.9560 C   0  0  0  0  0  0  0  0  0  0  0  0
   42.4978   32.0665   41.4946 H   0  0  0  0  0  0  0  0  0  0  0  0
   41.7284   33.6231   42.0990 H   0  0  0  0  0  0  0  0  0  0  0  0
   41.1582   32.3556   39.8017 H   0  0  0  0  0  0  0  0  0  0  0  0
   40.9367   34.1519   40.2272 H   0  0  0  0  0  0  0  0  0  0  0  0
   43.8298   32.3700   39.0903 H   0  0  0  0  0  0  0  0  0  0  0  0
   44.1168   33.8982   38.1145 H   0  0  0  0  0  0  0  0  0  0  0  0
   44.4431   35.2003   40.1087 H   0  0  0  0  0  0  0  0  0  0  0  0
   45.9938   32.7774   45.2696 H   0  0  0  0  0  0  0  0  0  0  0  0
   44.9901   32.1603   43.0815 H   0  0  0  0  0  0  0  0  0  0  0  0
   44.6074   36.7317   44.7322 H   0  0  0  0  0  0  0  0  0  0  0  0
   45.8653   32.8681   41.0103 H   0  0  0  0  0  0  0  0  0  0  0  0
   46.0087   33.3465   39.2030 H   0  0  0  0  0  0  0  0  0  0  0  0
   48.0844   36.2494   40.4625 H   0  0  0  0  0  0  0  0  0  0  0  0
   50.4088   35.1526   41.7853 H   0  0  0  0  0  0  0  0  0  0  0  0
   49.3705   36.4781   42.2965 H   0  0  0  0  0  0  0  0  0  0  0  0
   49.0484   34.1372   43.5584 H   0  0  0  0  0  0  0  0  0  0  0  0
   47.5733   34.8464   43.0531 H   0  0  0  0  0  0  0  0  0  0  0  0
   49.4198   32.9007   41.4304 H   0  0  0  0  0  0  0  0  0  0  0  0
   47.7570   32.5712   41.8252 H   0  0  0  0  0  0  0  0  0  0  0  0
   49.4903   33.1184   39.2511 H   0  0  0  0  0  0  0  0  0  0  0  0
   47.7616   32.6936   38.9149 H   0  0  0  0  0  0  0  0  0  0  0  0
   48.4344   35.4938   38.3259 H   0  0  0  0  0  0  0  0  0  0  0  0
   49.3541   34.3032   37.3443 H   0  0  0  0  0  0  0  0  0  0  0  0
   47.5581   34.2710   37.3443 H   0  0  0  0  0  0  0  0  0  0  0  0
  1  9  1  0
  2  1  1  0
  3  2  1  0
  4  5  1  0
  4  3  1  0
  5  6  1  0
  6 13  1  0
  6  1  1  0
  7 12  2  0
  8  7  1  0
  9 10  1  0
  9  8  2  0
 10 11  2  0
 11 12  1  0
 13 14  1  0
 15 16  1  0
 16 17  1  0
 18 17  1  0
 19 20  1  0
 19 14  1  6
 19 15  1  0
 19 18  1  0
 21 20  1  0
  2 22  1  0
  2 23  1  0
  3 24  1  0
  3 25  1  0
  5 26  1  0
  5 27  1  0
  6 28  1  6
  7 29  1  0
  8 30  1  0
 11 31  1  0
 13 32  1  0
 13 33  1  0
 15 34  1  0
 16 35  1  0
 16 36  1  0
 17 37  1  0
 17 38  1  0
 18 39  1  0
 18 40  1  0
 20 41  1  0
 20 42  1  0
 21 43  1  0
 21 44  1  0
 21 45  1  0
M  ISO  8  22  13  23  13  24  13  25  13  26  13  27  13  28  13  29  14
M  ISO  8  30  14  31  14  32   8  33   8  34   5  35  13  36  13  37  13
M  ISO  8  38  13  39  13  40  13  41   8  42   8  43   8  44   8  45   8
M  END
>  <minimizedAffinity>  (1) 
-4.88154459

>  <minimizedRMSD>  (1) 
0.653665245

$$$$
