
     RDKit          3D

 51 53  0  0  1  0  0  0  0  0999 V2000
   43.5290   33.9810   41.3230 N   0  0  0  0  0  0  0  0  0  0  0  0
   42.1510   33.5950   41.2360 C   0  0  0  0  0  0  0  0  0  0  0  0
   41.4930   33.8990   39.9500 C   0  0  0  0  0  0  0  0  0  0  0  0
   42.2940   34.0640   38.8690 O   0  0  0  0  0  0  0  0  0  0  0  0
   43.5450   33.5810   38.9610 C   0  0  0  0  0  0  0  0  0  0  0  0
   44.3480   34.1340   40.1460 C   0  0  2  0  0  0  0  0  0  0  0  0
   45.3560   33.4920   44.5650 C   0  0  0  0  0  0  0  0  0  0  0  0
   44.7620   33.2210   43.3340 C   0  0  0  0  0  0  0  0  0  0  0  0
   44.1490   34.2230   42.5780 C   0  0  0  0  0  0  0  0  0  0  0  0
   44.1650   35.4890   43.1160 N   0  0  0  0  0  0  0  0  0  0  0  0
   44.7480   35.7310   44.3170 C   0  0  0  0  0  0  0  0  0  0  0  0
   45.3300   34.7460   45.0190 N   0  0  0  0  0  0  0  0  0  0  0  0
   45.6450   33.3920   40.2170 C   0  0  0  0  0  0  0  0  0  0  0  0
   46.6880   33.9290   39.8510 O   0  0  0  0  0  0  0  0  0  0  0  0
   48.7270   34.9500   39.9610 N   0  0  0  0  0  0  0  0  0  0  0  0
   48.9480   35.6740   41.1740 C   0  0  0  0  0  0  0  0  0  0  0  0
   47.7890   35.2630   42.0790 C   0  0  0  0  0  0  0  0  0  0  0  0
   47.8520   33.7720   41.8120 C   0  0  0  0  0  0  0  0  0  0  0  0
   47.9500   33.7510   40.2970 C   0  0  1  0  0  0  0  0  0  0  0  0
   48.6950   32.5610   39.7910 C   0  0  0  0  0  0  0  0  0  0  0  0
   47.8400   31.2910   39.8600 C   0  0  0  0  0  0  0  0  0  0  0  0
   49.1080   32.6470   38.3290 C   0  0  0  0  0  0  0  0  0  0  0  0
   49.9180   32.3350   40.6420 C   0  0  0  0  0  0  0  0  0  0  0  0
   42.0908   32.5091   41.4007 H   0  0  0  0  0  0  0  0  0  0  0  0
   41.6201   34.1851   41.9975 H   0  0  0  0  0  0  0  0  0  0  0  0
   40.8028   33.0718   39.7275 H   0  0  0  0  0  0  0  0  0  0  0  0
   41.0140   34.8777   40.1005 H   0  0  0  0  0  0  0  0  0  0  0  0
   43.4857   32.4875   39.0649 H   0  0  0  0  0  0  0  0  0  0  0  0
   44.0726   33.8947   38.0482 H   0  0  0  0  0  0  0  0  0  0  0  0
   44.5965   35.2008   40.0446 H   0  0  0  0  0  0  0  0  0  0  0  0
   45.8346   32.6914   45.1481 H   0  0  0  0  0  0  0  0  0  0  0  0
   44.7762   32.1912   42.9475 H   0  0  0  0  0  0  0  0  0  0  0  0
   44.7436   36.7533   44.7229 H   0  0  0  0  0  0  0  0  0  0  0  0
   45.7888   33.1071   41.2697 H   0  0  0  0  0  0  0  0  0  0  0  0
   45.5101   32.5836   39.4833 H   0  0  0  0  0  0  0  0  0  0  0  0
   49.6290   34.6789   39.5441 H   0  0  0  0  0  0  0  0  0  0  0  0
   49.9117   35.3938   41.6244 H   0  0  0  0  0  0  0  0  0  0  0  0
   48.9877   36.7612   41.0117 H   0  0  0  0  0  0  0  0  0  0  0  0
   47.9747   35.5079   43.1352 H   0  0  0  0  0  0  0  0  0  0  0  0
   46.8228   35.7530   41.8883 H   0  0  0  0  0  0  0  0  0  0  0  0
   48.7364   33.3151   42.2801 H   0  0  0  0  0  0  0  0  0  0  0  0
   47.0030   33.2029   42.2187 H   0  0  0  0  0  0  0  0  0  0  0  0
   47.6615   31.0259   40.9125 H   0  0  0  0  0  0  0  0  0  0  0  0
   46.8774   31.4694   39.3585 H   0  0  0  0  0  0  0  0  0  0  0  0
   48.3674   30.4662   39.3585 H   0  0  0  0  0  0  0  0  0  0  0  0
   50.1830   32.8709   38.2642 H   0  0  0  0  0  0  0  0  0  0  0  0
   48.9029   31.6869   37.8329 H   0  0  0  0  0  0  0  0  0  0  0  0
   48.5367   33.4454   37.8329 H   0  0  0  0  0  0  0  0  0  0  0  0
   49.6397   32.3864   41.7050 H   0  0  0  0  0  0  0  0  0  0  0  0
   50.3403   31.3436   40.4211 H   0  0  0  0  0  0  0  0  0  0  0  0
   50.6667   33.1100   40.4211 H   0  0  0  0  0  0  0  0  0  0  0  0
  1  9  1  0
  2  1  1  0
  3  2  1  0
  4  5  1  0
  4  3  1  0
  5  6  1  0
  6 13  1  0
  6  1  1  0
  7 12  2  0
  8  7  1  0
  9 10  1  0
  9  8  2  0
 10 11  2  0
 11 12  1  0
 14 13  1  0
 15 19  1  0
 15 16  1  0
 16 17  1  0
 18 17  1  0
 19 14  1  6
 19 18  1  0
 20 21  1  0
 20 19  1  0
 20 23  1  0
 22 20  1  0
  2 24  1  0
  2 25  1  0
  3 26  1  0
  3 27  1  0
  5 28  1  0
  5 29  1  0
  6 30  1  6
  7 31  1  0
  8 32  1  0
 11 33  1  0
 13 34  1  0
 13 35  1  0
 15 36  1  0
 16 37  1  0
 16 38  1  0
 17 39  1  0
 17 40  1  0
 18 41  1  0
 18 42  1  0
 21 43  1  0
 21 44  1  0
 21 45  1  0
 22 46  1  0
 22 47  1  0
 22 48  1  0
 23 49  1  0
 23 50  1  0
 23 51  1  0
M  ISO  8  24  13  25  13  26  13  27  13  28  13  29  13  30  13  31  14
M  ISO  8  32  14  33  14  34   8  35   8  36   5  37  13  38  13  39  13
M  ISO  8  40  13  41  13  42  13  43   8  44   8  45   8  46   8  47   8
M  ISO  4  48   8  49   8  50   8  51   8
M  END
>  <minimizedAffinity>  (1) 
-4.90285301

>  <minimizedRMSD>  (1) 
0.690738857

$$$$
