
     RDKit          3D

 33 35  0  0  0  0  0  0  0  0999 V2000
   45.3120   34.5850   45.0270 C   0  0  0  0  0  0  0  0  0  0  0  0
   45.9930   34.1480   43.8620 C   0  0  0  0  0  0  0  0  0  0  0  0
   46.7260   32.9810   43.9660 C   0  0  0  0  0  0  0  0  0  0  0  0
   46.7780   32.3010   45.1300 N   0  0  0  0  0  0  0  0  0  0  0  0
   46.1030   32.7600   46.2320 C   0  0  0  0  0  0  0  0  0  0  0  0
   45.3840   33.8870   46.1710 N   0  0  0  0  0  0  0  0  0  0  0  0
   47.4410   32.4060   42.9040 N   0  0  0  0  0  0  0  0  0  0  0  0
   46.8060   31.5150   42.0810 C   0  0  0  0  0  0  0  0  0  0  0  0
   47.6440   31.0520   41.1180 N   0  0  0  0  0  0  0  0  0  0  0  0
   48.8370   31.6360   41.3010 C   0  0  0  0  0  0  0  0  0  0  0  0
   50.1060   31.6360   40.7190 C   0  0  0  0  0  0  0  0  0  0  0  0
   51.0880   32.4030   41.2290 N   0  0  0  0  0  0  0  0  0  0  0  0
   50.9140   33.2040   42.3090 C   0  0  0  0  0  0  0  0  0  0  0  0
   49.6810   33.2120   42.8840 N   0  0  0  0  0  0  0  0  0  0  0  0
   48.6810   32.4430   42.3820 C   0  0  0  0  0  0  0  0  0  0  0  0
   45.8800   34.9480   42.6270 C   0  0  0  0  0  0  0  0  0  0  0  0
   47.2300   35.3300   42.1140 C   0  0  0  0  0  0  0  0  0  0  0  0
   45.1170   36.2280   42.9890 C   0  0  0  0  0  0  0  0  0  0  0  0
   45.0190   34.2320   41.6210 C   0  0  0  0  0  0  0  0  0  0  0  0
   44.7164   35.5091   44.9923 H   0  0  0  0  0  0  0  0  0  0  0  0
   46.1531   32.1963   47.1753 H   0  0  0  0  0  0  0  0  0  0  0  0
   45.7534   31.2133   42.1862 H   0  0  0  0  0  0  0  0  0  0  0  0
   50.3046   31.0062   39.8393 H   0  0  0  0  0  0  0  0  0  0  0  0
   51.7347   33.8211   42.7035 H   0  0  0  0  0  0  0  0  0  0  0  0
   47.9040   35.5207   42.9621 H   0  0  0  0  0  0  0  0  0  0  0  0
   47.6346   34.5111   41.5011 H   0  0  0  0  0  0  0  0  0  0  0  0
   47.1455   36.2395   41.5011 H   0  0  0  0  0  0  0  0  0  0  0  0
   45.0599   36.3238   44.0833 H   0  0  0  0  0  0  0  0  0  0  0  0
   45.6434   37.0991   42.5717 H   0  0  0  0  0  0  0  0  0  0  0  0
   44.1004   36.1793   42.5717 H   0  0  0  0  0  0  0  0  0  0  0  0
   44.2764   33.6144   42.1475 H   0  0  0  0  0  0  0  0  0  0  0  0
   44.5015   34.9697   40.9902 H   0  0  0  0  0  0  0  0  0  0  0  0
   45.6500   33.5886   40.9902 H   0  0  0  0  0  0  0  0  0  0  0  0
  1  6  2  0
  2  3  2  0
  2  1  1  0
  3  4  1  0
  4  5  2  0
  6  5  1  0
  7  3  1  0
  8  7  1  0
  9 10  1  0
  9  8  2  0
 10 15  2  0
 11 12  2  0
 11 10  1  0
 12 13  1  0
 13 14  2  0
 15 14  1  0
 15  7  1  0
 16 18  1  0
 16  2  1  0
 17 16  1  0
 19 16  1  0
  1 20  1  0
  5 21  1  0
  8 22  1  0
 11 23  1  0
 13 24  1  0
 17 25  1  0
 17 26  1  0
 17 27  1  0
 18 28  1  0
 18 29  1  0
 18 30  1  0
 19 31  1  0
 19 32  1  0
 19 33  1  0
M  ISO  8  20  14  21  14  22  14  23  14  24  14  25   8  26   8  27   8
M  ISO  6  28   8  29   8  30   8  31   8  32   8  33   8
M  END
>  <minimizedAffinity>  (1) 
-4.61373186

>  <minimizedRMSD>  (1) 
1.32161355

$$$$
