
     RDKit          3D

 40 42  0  0  1  0  0  0  0  0999 V2000
   43.6200   33.5580   41.1300 N   0  0  0  0  0  0  0  0  0  0  0  0
   42.3300   32.9120   41.1170 C   0  0  0  0  0  0  0  0  0  0  0  0
   41.6360   32.9650   39.8110 C   0  0  0  0  0  0  0  0  0  0  0  0
   42.3830   33.1670   38.7040 O   0  0  0  0  0  0  0  0  0  0  0  0
   43.7030   32.9180   38.8350 C   0  0  0  0  0  0  0  0  0  0  0  0
   44.3950   33.7470   39.9160 C   0  0  2  0  0  0  0  0  0  0  0  0
   45.3210   33.7010   44.4680 C   0  0  0  0  0  0  0  0  0  0  0  0
   44.7880   33.2270   43.2830 C   0  0  0  0  0  0  0  0  0  0  0  0
   44.1740   34.0300   42.3510 C   0  0  0  0  0  0  0  0  0  0  0  0
   44.1150   35.3700   42.6660 N   0  0  0  0  0  0  0  0  0  0  0  0
   44.6370   35.8360   43.8280 C   0  0  0  0  0  0  0  0  0  0  0  0
   45.2280   35.0050   44.7050 N   0  0  0  0  0  0  0  0  0  0  0  0
   45.8030   33.3410   40.0250 C   0  0  0  0  0  0  0  0  0  0  0  0
   46.7100   34.2010   40.0270 O   0  0  0  0  0  0  0  0  0  0  0  0
   48.7490   35.2090   40.1110 N   0  0  0  0  0  0  0  0  0  0  0  0
   49.0710   35.7580   41.3980 C   0  0  0  0  0  0  0  0  0  0  0  0
   48.0310   35.1480   42.3380 C   0  0  0  0  0  0  0  0  0  0  0  0
   48.1010   33.7090   41.8170 C   0  0  0  0  0  0  0  0  0  0  0  0
   48.0170   33.9580   40.3490 C   0  0  1  0  0  0  0  0  0  0  0  0
   48.7480   32.6230   39.3600 S   0  0  0  0  0  0  0  0  0  0  0  0
   42.4708   31.8557   41.3898 H   0  0  0  0  0  0  0  0  0  0  0  0
   41.6972   33.4574   41.8326 H   0  0  0  0  0  0  0  0  0  0  0  0
   41.1104   32.0075   39.6807 H   0  0  0  0  0  0  0  0  0  0  0  0
   40.9949   33.8565   39.8764 H   0  0  0  0  0  0  0  0  0  0  0  0
   43.8299   31.8538   39.0829 H   0  0  0  0  0  0  0  0  0  0  0  0
   44.1719   33.1930   37.8787 H   0  0  0  0  0  0  0  0  0  0  0  0
   44.4270   34.8223   39.6866 H   0  0  0  0  0  0  0  0  0  0  0  0
   45.8040   33.0235   45.1875 H   0  0  0  0  0  0  0  0  0  0  0  0
   44.8592   32.1492   43.0749 H   0  0  0  0  0  0  0  0  0  0  0  0
   44.5760   36.9102   44.0566 H   0  0  0  0  0  0  0  0  0  0  0  0
   45.8979   32.7797   40.9662 H   0  0  0  0  0  0  0  0  0  0  0  0
   45.9785   32.7963   39.0856 H   0  0  0  0  0  0  0  0  0  0  0  0
   49.6118   35.0188   39.5816 H   0  0  0  0  0  0  0  0  0  0  0  0
   50.0881   35.4693   41.7017 H   0  0  0  0  0  0  0  0  0  0  0  0
   49.0499   36.8578   41.4037 H   0  0  0  0  0  0  0  0  0  0  0  0
   48.3270   35.2246   43.3947 H   0  0  0  0  0  0  0  0  0  0  0  0
   47.0366   35.6183   42.3323 H   0  0  0  0  0  0  0  0  0  0  0  0
   49.0467   33.2204   42.0943 H   0  0  0  0  0  0  0  0  0  0  0  0
   47.3292   33.0346   42.2165 H   0  0  0  0  0  0  0  0  0  0  0  0
   49.2699   31.6698   40.1943 H   0  0  0  0  0  0  0  0  0  0  0  0
  1  9  1  0
  2  1  1  0
  3  2  1  0
  4  5  1  0
  4  3  1  0
  5  6  1  0
  6 13  1  0
  6  1  1  0
  7 12  2  0
  8  7  1  0
  9 10  1  0
  9  8  2  0
 10 11  2  0
 11 12  1  0
 13 14  1  0
 19 14  1  6
 15 19  1  0
 15 16  1  0
 16 17  1  0
 18 17  1  0
 19 20  1  0
 19 18  1  0
  2 21  1  0
  2 22  1  0
  3 23  1  0
  3 24  1  0
  5 25  1  0
  5 26  1  0
  6 27  1  6
  7 28  1  0
  8 29  1  0
 11 30  1  0
 13 31  1  0
 13 32  1  0
 15 33  1  0
 16 34  1  0
 16 35  1  0
 17 36  1  0
 17 37  1  0
 18 38  1  0
 18 39  1  0
 20 40  1  0
M  ISO  8  21  13  22  13  23  13  24  13  25  13  26  13  27  13  28  14
M  ISO  8  29  14  30  14  31   8  32   8  33   5  34  13  35  13  36  13
M  ISO  4  37  13  38  13  39  13  40  11
M  END
>  <minimizedAffinity>  (1) 
-4.67336512

>  <minimizedRMSD>  (1) 
0.213009641

$$$$
