
     RDKit          3D

 36 38  0  0  0  0  0  0  0  0999 V2000
   45.3220   34.1650   45.6510 C   0  0  0  0  0  0  0  0  0  0  0  0
   45.5570   34.0120   44.2670 C   0  0  0  0  0  0  0  0  0  0  0  0
   46.1310   32.8210   43.8640 C   0  0  0  0  0  0  0  0  0  0  0  0
   46.4470   31.8610   44.7640 N   0  0  0  0  0  0  0  0  0  0  0  0
   46.1940   32.0660   46.0950 C   0  0  0  0  0  0  0  0  0  0  0  0
   45.6400   33.2040   46.5210 N   0  0  0  0  0  0  0  0  0  0  0  0
   46.4360   32.4640   42.5290 N   0  0  0  0  0  0  0  0  0  0  0  0
   45.7840   31.9740   41.4310 C   0  0  0  0  0  0  0  0  0  0  0  0
   46.6240   31.8500   40.4040 N   0  0  0  0  0  0  0  0  0  0  0  0
   47.8420   32.2570   40.8120 C   0  0  0  0  0  0  0  0  0  0  0  0
   49.0090   32.2980   40.0730 C   0  0  0  0  0  0  0  0  0  0  0  0
   49.0220   31.9300   38.8690 O   0  0  0  0  0  0  0  0  0  0  0  0
   50.1290   32.7440   40.6710 N   0  0  0  0  0  0  0  0  0  0  0  0
   50.0160   33.1150   41.9570 C   0  0  0  0  0  0  0  0  0  0  0  0
   51.2130   33.5930   42.6030 N   0  0  0  0  0  0  0  0  0  0  0  0
   48.8930   33.0830   42.6950 N   0  0  0  0  0  0  0  0  0  0  0  0
   47.7370   32.6470   42.1530 C   0  0  0  0  0  0  0  0  0  0  0  0
   45.1830   35.1050   43.3520 C   0  0  0  0  0  0  0  0  0  0  0  0
   46.3630   35.5730   42.5490 C   0  0  0  0  0  0  0  0  0  0  0  0
   44.7150   36.2830   44.2230 C   0  0  0  0  0  0  0  0  0  0  0  0
   44.0120   34.7030   42.5150 C   0  0  0  0  0  0  0  0  0  0  0  0
   44.8671   35.0961   46.0200 H   0  0  0  0  0  0  0  0  0  0  0  0
   46.4508   31.2822   46.8228 H   0  0  0  0  0  0  0  0  0  0  0  0
   44.7147   31.7178   41.4000 H   0  0  0  0  0  0  0  0  0  0  0  0
   51.0265   32.7981   40.1685 H   0  0  0  0  0  0  0  0  0  0  0  0
   51.1826   33.8904   43.5887 H   0  0  0  0  0  0  0  0  0  0  0  0
   52.0986   33.6371   42.0789 H   0  0  0  0  0  0  0  0  0  0  0  0
   47.1664   35.8916   43.2294 H   0  0  0  0  0  0  0  0  0  0  0  0
   46.7245   34.7502   41.9148 H   0  0  0  0  0  0  0  0  0  0  0  0
   46.0622   36.4199   41.9148 H   0  0  0  0  0  0  0  0  0  0  0  0
   44.8203   36.0180   45.2854 H   0  0  0  0  0  0  0  0  0  0  0  0
   45.3297   37.1684   44.0033 H   0  0  0  0  0  0  0  0  0  0  0  0
   43.6603   36.5052   44.0033 H   0  0  0  0  0  0  0  0  0  0  0  0
   43.1753   34.4158   43.1688 H   0  0  0  0  0  0  0  0  0  0  0  0
   43.7078   35.5481   41.8801 H   0  0  0  0  0  0  0  0  0  0  0  0
   44.2910   33.8492   41.8801 H   0  0  0  0  0  0  0  0  0  0  0  0
  1  6  2  0
  2  1  1  0
  3  2  2  0
  3  4  1  0
  4  5  2  0
  5  6  1  0
  7  3  1  0
  8  7  1  0
  9 10  1  0
  9  8  2  0
 10 17  2  0
 11 13  1  0
 11 10  1  0
 12 11  2  0
 13 14  1  0
 14 15  1  0
 14 16  2  0
 17  7  1  0
 17 16  1  0
 18 20  1  0
 18  2  1  0
 19 18  1  0
 21 18  1  0
  1 22  1  0
  5 23  1  0
  8 24  1  0
 13 25  1  0
 15 26  1  0
 15 27  1  0
 19 28  1  0
 19 29  1  0
 19 30  1  0
 20 31  1  0
 20 32  1  0
 20 33  1  0
 21 34  1  0
 21 35  1  0
 21 36  1  0
M  ISO  8  22  14  23  14  24  14  25   9  28   8  29   8  30   8  31   8
M  ISO  5  32   8  33   8  34   8  35   8  36   8
M  END
>  <minimizedAffinity>  (1) 
-5.44951868

>  <minimizedRMSD>  (1) 
2.56184149

$$$$
