
     RDKit          3D

 30 31  0  0  0  0  0  0  0  0999 V2000
   45.3020   34.4390   45.0000 C   0  0  0  0  0  0  0  0  0  0  0  0
   46.1700   34.2010   43.9080 C   0  0  0  0  0  0  0  0  0  0  0  0
   47.1250   33.2120   44.0650 C   0  0  0  0  0  0  0  0  0  0  0  0
   47.2010   32.5140   45.2330 N   0  0  0  0  0  0  0  0  0  0  0  0
   46.3410   32.7840   46.2490 C   0  0  0  0  0  0  0  0  0  0  0  0
   45.4110   33.7280   46.1340 N   0  0  0  0  0  0  0  0  0  0  0  0
   48.0790   32.8160   43.0540 C   0  0  0  0  0  0  0  0  0  0  0  0
   47.6410   31.7550   42.2510 C   0  0  0  0  0  0  0  0  0  0  0  0
   48.3800   31.2110   41.2060 C   0  0  0  0  0  0  0  0  0  0  0  0
   49.5920   31.7530   40.9640 N   0  0  0  0  0  0  0  0  0  0  0  0
   50.0070   32.7750   41.7410 C   0  0  0  0  0  0  0  0  0  0  0  0
   49.2950   33.2830   42.7320 N   0  0  0  0  0  0  0  0  0  0  0  0
   46.0100   35.0050   42.6810 C   0  0  0  0  0  0  0  0  0  0  0  0
   47.3260   35.4720   42.1560 C   0  0  0  0  0  0  0  0  0  0  0  0
   45.1560   36.2260   43.0380 C   0  0  0  0  0  0  0  0  0  0  0  0
   45.2050   34.2260   41.6630 C   0  0  0  0  0  0  0  0  0  0  0  0
   44.5280   35.2164   44.9189 H   0  0  0  0  0  0  0  0  0  0  0  0
   46.4150   32.2109   47.1850 H   0  0  0  0  0  0  0  0  0  0  0  0
   46.6503   31.3251   42.4601 H   0  0  0  0  0  0  0  0  0  0  0  0
   47.9937   30.3758   40.6033 H   0  0  0  0  0  0  0  0  0  0  0  0
   50.9962   33.2112   41.5378 H   0  0  0  0  0  0  0  0  0  0  0  0
   47.9934   35.7088   42.9977 H   0  0  0  0  0  0  0  0  0  0  0  0
   47.7778   34.6793   41.5416 H   0  0  0  0  0  0  0  0  0  0  0  0
   47.1771   36.3722   41.5416 H   0  0  0  0  0  0  0  0  0  0  0  0
   45.0901   36.3202   44.1320 H   0  0  0  0  0  0  0  0  0  0  0  0
   45.6184   37.1320   42.6192 H   0  0  0  0  0  0  0  0  0  0  0  0
   44.1464   36.1024   42.6192 H   0  0  0  0  0  0  0  0  0  0  0  0
   44.5088   33.5523   42.1839 H   0  0  0  0  0  0  0  0  0  0  0  0
   44.6360   34.9252   41.0326 H   0  0  0  0  0  0  0  0  0  0  0  0
   45.8852   33.6344   41.0326 H   0  0  0  0  0  0  0  0  0  0  0  0
  1  6  2  0
  2  3  2  0
  2  1  1  0
  3  4  1  0
  4  5  2  0
  6  5  1  0
  7  3  1  0
  8  7  2  0
  9  8  1  0
 10  9  2  0
 10 11  1  0
 11 12  2  0
 12  7  1  0
 13 15  1  0
 13  2  1  0
 14 13  1  0
 16 13  1  0
  1 17  1  0
  5 18  1  0
  8 19  1  0
  9 20  1  0
 11 21  1  0
 14 22  1  0
 14 23  1  0
 14 24  1  0
 15 25  1  0
 15 26  1  0
 15 27  1  0
 16 28  1  0
 16 29  1  0
 16 30  1  0
M  ISO  8  17  14  18  14  19  14  20  14  21  14  22   8  23   8  24   8
M  ISO  6  25   8  26   8  27   8  28   8  29   8  30   8
M  END
>  <minimizedAffinity>  (1) 
-4.22642612

>  <minimizedRMSD>  (1) 
0.563084722

$$$$
