
     RDKit          3D

 46 49  0  0  1  0  0  0  0  0999 V2000
   45.6100   34.1890   42.2190 C   0  0  0  0  0  0  0  0  0  0  0  0
   47.0020   34.2800   42.3130 C   0  0  0  0  0  0  0  0  0  0  0  0
   47.6140   33.9300   43.5390 C   0  0  0  0  0  0  0  0  0  0  0  0
   46.8550   33.5270   44.5600 N   0  0  0  0  0  0  0  0  0  0  0  0
   45.5100   33.4410   44.4590 C   0  0  0  0  0  0  0  0  0  0  0  0
   44.9210   33.7680   43.3110 N   0  0  0  0  0  0  0  0  0  0  0  0
   44.8380   34.5520   41.0840 C   0  0  0  0  0  0  0  0  0  0  0  0
   44.0090   33.3340   40.5760 C   0  0  0  0  0  0  0  0  0  0  0  0
   43.0570   34.0490   39.6120 C   0  0  0  0  0  0  0  0  0  0  0  0
   42.8570   35.4040   40.2350 C   0  0  0  0  0  0  0  0  0  0  0  0
   43.7080   35.4470   41.4900 C   0  0  0  0  0  0  0  0  0  0  0  0
   47.8160   34.7410   41.1770 C   0  0  1  0  0  0  0  0  0  0  0  0
   48.8490   35.7240   41.5500 C   0  0  0  0  0  0  0  0  0  0  0  0
   48.3410   33.5310   40.4440 C   0  0  0  0  0  0  0  0  0  0  0  0
   47.9400   33.4860   39.0670 N   0  0  0  0  0  0  0  0  0  0  0  0
   48.4590   34.4780   38.3450 N   0  0  0  0  0  0  0  0  0  0  0  0
   48.0430   34.3790   37.0760 C   0  0  0  0  0  0  0  0  0  0  0  0
   47.2280   33.2870   36.9760 C   0  0  0  0  0  0  0  0  0  0  0  0
   47.1880   32.7500   38.2490 C   0  0  0  0  0  0  0  0  0  0  0  0
   46.4650   31.5880   38.6980 C   0  0  0  0  0  0  0  0  0  0  0  0
   45.4040   31.1110   37.9110 C   0  0  0  0  0  0  0  0  0  0  0  0
   44.7990   30.0480   38.4210 N   0  0  0  0  0  0  0  0  0  0  0  0
   45.4400   29.7780   39.5770 C   0  0  0  0  0  0  0  0  0  0  0  0
   46.3880   30.7020   39.6770 N   0  0  0  0  0  0  0  0  0  0  0  0
   48.7068   33.9895   43.6501 H   0  0  0  0  0  0  0  0  0  0  0  0
   44.9085   33.1044   45.3163 H   0  0  0  0  0  0  0  0  0  0  0  0
   45.5548   34.9762   40.3655 H   0  0  0  0  0  0  0  0  0  0  0  0
   44.6401   32.5979   40.0566 H   0  0  0  0  0  0  0  0  0  0  0  0
   43.5168   32.7454   41.3642 H   0  0  0  0  0  0  0  0  0  0  0  0
   42.1015   33.5096   39.5344 H   0  0  0  0  0  0  0  0  0  0  0  0
   43.4568   34.1085   38.5890 H   0  0  0  0  0  0  0  0  0  0  0  0
   43.1752   36.1915   39.5360 H   0  0  0  0  0  0  0  0  0  0  0  0
   41.7967   35.5725   40.4746 H   0  0  0  0  0  0  0  0  0  0  0  0
   43.1673   35.0487   42.3612 H   0  0  0  0  0  0  0  0  0  0  0  0
   44.0125   36.4566   41.8031 H   0  0  0  0  0  0  0  0  0  0  0  0
   47.1811   35.3152   40.4862 H   0  0  0  0  0  0  0  0  0  0  0  0
   48.9158   35.7876   42.6461 H   0  0  0  0  0  0  0  0  0  0  0  0
   49.8202   35.4084   41.1411 H   0  0  0  0  0  0  0  0  0  0  0  0
   48.5819   36.7096   41.1411 H   0  0  0  0  0  0  0  0  0  0  0  0
   49.4400   33.5454   40.4877 H   0  0  0  0  0  0  0  0  0  0  0  0
   47.9194   32.6423   40.9364 H   0  0  0  0  0  0  0  0  0  0  0  0
   48.3114   35.0600   36.2549 H   0  0  0  0  0  0  0  0  0  0  0  0
   46.7147   32.9155   36.0768 H   0  0  0  0  0  0  0  0  0  0  0  0
   45.1035   31.5761   36.9606 H   0  0  0  0  0  0  0  0  0  0  0  0
   45.2233   28.9652   40.2858 H   0  0  0  0  0  0  0  0  0  0  0  0
   47.0333   30.7277   40.4794 H   0  0  0  0  0  0  0  0  0  0  0  0
  1  2  1  0
  1  6  2  0
  2  3  2  0
  3  4  1  0
  5  4  2  0
  6  5  1  0
  7 11  1  0
  7  1  1  0
  8  7  1  0
  9 10  1  0
  9  8  1  0
 10 11  1  0
 12 13  1  0
 12  2  1  0
 14 12  1  0
 15 14  1  0
 16 15  1  0
 17 16  2  0
 18 17  1  0
 18 19  2  0
 19 20  1  0
 19 15  1  0
 20 24  1  0
 21 22  1  0
 21 20  2  0
 22 23  2  0
 23 24  1  0
  3 25  1  0
  5 26  1  0
  7 27  1  0
  8 28  1  0
  8 29  1  0
  9 30  1  0
  9 31  1  0
 10 32  1  0
 10 33  1  0
 11 34  1  0
 11 35  1  0
 12 36  1  6
 13 37  1  0
 13 38  1  0
 13 39  1  0
 14 40  1  0
 14 41  1  0
 17 42  1  0
 18 43  1  0
 21 44  1  0
 23 45  1  0
 24 46  1  0
M  ISO  8  25  14  26  14  27  13  28  13  29  13  30  13  31  13  32  13
M  ISO  8  33  13  34  13  35  13  36   8  37   8  38   8  39   8  40   8
M  ISO  6  41   8  42  14  43  14  44  14  45  14  46   9
M  END
>  <minimizedAffinity>  (1) 
-5.02288961

>  <minimizedRMSD>  (1) 
1.24989808

$$$$
