
     RDKit          3D

 38 39  0  0  0  0  0  0  0  0999 V2000
   45.2180   34.5300   44.9990 C   0  0  0  0  0  0  0  0  0  0  0  0
   46.0920   34.1650   43.9610 C   0  0  0  0  0  0  0  0  0  0  0  0
   47.0040   33.1620   44.2330 C   0  0  0  0  0  0  0  0  0  0  0  0
   47.0350   32.5730   45.4560 N   0  0  0  0  0  0  0  0  0  0  0  0
   46.1590   32.9700   46.4320 C   0  0  0  0  0  0  0  0  0  0  0  0
   45.2700   33.9310   46.2010 N   0  0  0  0  0  0  0  0  0  0  0  0
   47.9910   32.5740   43.3600 C   0  0  0  0  0  0  0  0  0  0  0  0
   47.3610   32.0420   42.1030 C   0  0  0  0  0  0  0  0  0  0  0  0
   48.3240   30.9780   41.5740 C   0  0  0  0  0  0  0  0  0  0  0  0
   49.6950   31.5840   41.5770 C   0  0  0  0  0  0  0  0  0  0  0  0
   49.7480   33.0700   41.6530 C   0  0  0  0  0  0  0  0  0  0  0  0
   48.9930   33.6430   42.8290 C   0  0  0  0  0  0  0  0  0  0  0  0
   46.0130   34.8420   42.6580 C   0  0  0  0  0  0  0  0  0  0  0  0
   47.2810   35.5520   42.3130 C   0  0  0  0  0  0  0  0  0  0  0  0
   44.9230   35.9360   42.8130 C   0  0  0  0  0  0  0  0  0  0  0  0
   45.4760   33.9320   41.6040 C   0  0  0  0  0  0  0  0  0  0  0  0
   44.4756   35.3227   44.8241 H   0  0  0  0  0  0  0  0  0  0  0  0
   46.1918   32.4871   47.4198 H   0  0  0  0  0  0  0  0  0  0  0  0
   48.4768   31.7932   43.9637 H   0  0  0  0  0  0  0  0  0  0  0  0
   46.3806   31.5953   42.3250 H   0  0  0  0  0  0  0  0  0  0  0  0
   47.1930   32.8399   41.3646 H   0  0  0  0  0  0  0  0  0  0  0  0
   48.0416   30.6886   40.5510 H   0  0  0  0  0  0  0  0  0  0  0  0
   48.2935   30.0753   42.2019 H   0  0  0  0  0  0  0  0  0  0  0  0
   50.2393   31.1824   42.4444 H   0  0  0  0  0  0  0  0  0  0  0  0
   50.1401   31.3191   40.6066 H   0  0  0  0  0  0  0  0  0  0  0  0
   50.8013   33.3767   41.7333 H   0  0  0  0  0  0  0  0  0  0  0  0
   49.2677   33.4568   40.7421 H   0  0  0  0  0  0  0  0  0  0  0  0
   49.7016   33.9121   43.6262 H   0  0  0  0  0  0  0  0  0  0  0  0
   48.4437   34.5427   42.5146 H   0  0  0  0  0  0  0  0  0  0  0  0
   47.8013   35.8433   43.2374 H   0  0  0  0  0  0  0  0  0  0  0  0
   47.9266   34.8841   41.7238 H   0  0  0  0  0  0  0  0  0  0  0  0
   47.0490   36.4514   41.7238 H   0  0  0  0  0  0  0  0  0  0  0  0
   44.7386   36.1211   43.8815 H   0  0  0  0  0  0  0  0  0  0  0  0
   45.2652   36.8651   42.3337 H   0  0  0  0  0  0  0  0  0  0  0  0
   43.9927   35.5972   42.3337 H   0  0  0  0  0  0  0  0  0  0  0  0
   44.9718   33.0777   42.0793 H   0  0  0  0  0  0  0  0  0  0  0  0
   44.7567   34.4803   40.9779 H   0  0  0  0  0  0  0  0  0  0  0  0
   46.3037   33.5674   40.9779 H   0  0  0  0  0  0  0  0  0  0  0  0
  1  6  2  0
  2  3  2  0
  2  1  1  0
  3  4  1  0
  4  5  2  0
  6  5  1  0
  7  3  1  0
  8  7  1  0
  9 10  1  0
  9  8  1  0
 10 11  1  0
 11 12  1  0
 12  7  1  0
 13 15  1  0
 13  2  1  0
 14 13  1  0
 16 13  1  0
  1 17  1  0
  5 18  1  0
  7 19  1  0
  8 20  1  0
  8 21  1  0
  9 22  1  0
  9 23  1  0
 10 24  1  0
 10 25  1  0
 11 26  1  0
 11 27  1  0
 12 28  1  0
 12 29  1  0
 14 30  1  0
 14 31  1  0
 14 32  1  0
 15 33  1  0
 15 34  1  0
 15 35  1  0
 16 36  1  0
 16 37  1  0
 16 38  1  0
M  ISO  8  17  14  18  14  19  13  20  13  21  13  22  13  23  13  24  13
M  ISO  8  25  13  26  13  27  13  28  13  29  13  30   8  31   8  32   8
M  ISO  6  33   8  34   8  35   8  36   8  37   8  38   8
M  END
>  <minimizedAffinity>  (1) 
-4.21981716

>  <minimizedRMSD>  (1) 
0.328172147

$$$$
