
     RDKit          3D

 37 38  0  0  0  0  0  0  0  0999 V2000
   45.3380   34.5090   44.9770 C   0  0  0  0  0  0  0  0  0  0  0  0
   46.1550   34.1410   43.8940 C   0  0  0  0  0  0  0  0  0  0  0  0
   47.0190   33.0830   44.0990 C   0  0  0  0  0  0  0  0  0  0  0  0
   47.0710   32.4380   45.2860 N   0  0  0  0  0  0  0  0  0  0  0  0
   46.2490   32.8420   46.3090 C   0  0  0  0  0  0  0  0  0  0  0  0
   45.4060   33.8570   46.1450 N   0  0  0  0  0  0  0  0  0  0  0  0
   47.8900   32.5510   43.1400 N   0  0  0  0  0  0  0  0  0  0  0  0
   49.2330   32.8730   42.6300 C   0  0  0  0  0  0  0  0  0  0  0  0
   49.0370   33.3870   41.1970 C   0  0  0  0  0  0  0  0  0  0  0  0
   48.7490   32.1690   40.3790 C   0  0  0  0  0  0  0  0  0  0  0  0
   47.5340   31.5140   40.9290 C   0  0  0  0  0  0  0  0  0  0  0  0
   47.4310   31.3750   42.3880 C   0  0  0  0  0  0  0  0  0  0  0  0
   46.0540   34.8860   42.6120 C   0  0  0  0  0  0  0  0  0  0  0  0
   47.3690   35.4560   42.2060 C   0  0  0  0  0  0  0  0  0  0  0  0
   45.1080   36.0740   42.8840 C   0  0  0  0  0  0  0  0  0  0  0  0
   45.3760   34.0500   41.5870 C   0  0  0  0  0  0  0  0  0  0  0  0
   44.6322   35.3450   44.8636 H   0  0  0  0  0  0  0  0  0  0  0  0
   46.2884   32.3194   47.2762 H   0  0  0  0  0  0  0  0  0  0  0  0
   49.7009   33.6497   43.2527 H   0  0  0  0  0  0  0  0  0  0  0  0
   49.8914   31.9921   42.6526 H   0  0  0  0  0  0  0  0  0  0  0  0
   48.1926   34.0905   41.1517 H   0  0  0  0  0  0  0  0  0  0  0  0
   49.9213   33.9287   40.8302 H   0  0  0  0  0  0  0  0  0  0  0  0
   49.6014   31.4757   40.4315 H   0  0  0  0  0  0  0  0  0  0  0  0
   48.5858   32.4485   39.3277 H   0  0  0  0  0  0  0  0  0  0  0  0
   46.6653   32.0994   40.5932 H   0  0  0  0  0  0  0  0  0  0  0  0
   47.5835   30.4806   40.5554 H   0  0  0  0  0  0  0  0  0  0  0  0
   46.3767   31.1924   42.6434 H   0  0  0  0  0  0  0  0  0  0  0  0
   48.0897   30.5413   42.6729 H   0  0  0  0  0  0  0  0  0  0  0  0
   47.9520   35.7087   43.1039 H   0  0  0  0  0  0  0  0  0  0  0  0
   47.9202   34.7160   41.6071 H   0  0  0  0  0  0  0  0  0  0  0  0
   47.2058   36.3642   41.6071 H   0  0  0  0  0  0  0  0  0  0  0  0
   44.9971   36.2133   43.9695 H   0  0  0  0  0  0  0  0  0  0  0  0
   45.5288   36.9873   42.4382 H   0  0  0  0  0  0  0  0  0  0  0  0
   44.1236   35.8684   42.4382 H   0  0  0  0  0  0  0  0  0  0  0  0
   44.7583   33.2883   42.0852 H   0  0  0  0  0  0  0  0  0  0  0  0
   44.7364   34.6872   40.9586 H   0  0  0  0  0  0  0  0  0  0  0  0
   46.1316   33.5558   40.9586 H   0  0  0  0  0  0  0  0  0  0  0  0
  1  6  2  0
  2  3  2  0
  2  1  1  0
  3  4  1  0
  4  5  2  0
  6  5  1  0
  7  3  1  0
  8  7  1  0
  9  8  1  0
 10 11  1  0
 10  9  1  0
 11 12  1  0
 12  7  1  0
 13 15  1  0
 13  2  1  0
 14 13  1  0
 16 13  1  0
  1 17  1  0
  5 18  1  0
  8 19  1  0
  8 20  1  0
  9 21  1  0
  9 22  1  0
 10 23  1  0
 10 24  1  0
 11 25  1  0
 11 26  1  0
 12 27  1  0
 12 28  1  0
 14 29  1  0
 14 30  1  0
 14 31  1  0
 15 32  1  0
 15 33  1  0
 15 34  1  0
 16 35  1  0
 16 36  1  0
 16 37  1  0
M  ISO  8  17  14  18  14  19  13  20  13  21  13  22  13  23  13  24  13
M  ISO  8  25  13  26  13  27  13  28  13  29   8  30   8  31   8  32   8
M  ISO  5  33   8  34   8  35   8  36   8  37   8
M  END
>  <minimizedAffinity>  (1) 
-4.12165403

>  <minimizedRMSD>  (1) 
0.376574636

$$$$
