
     RDKit          3D

 35 37  0  0  0  0  0  0  0  0999 V2000
   45.5770   34.3030   44.9180 C   0  0  0  0  0  0  0  0  0  0  0  0
   46.0500   34.0000   43.6270 C   0  0  0  0  0  0  0  0  0  0  0  0
   46.6400   32.7580   43.4530 C   0  0  0  0  0  0  0  0  0  0  0  0
   46.7460   31.8980   44.4850 N   0  0  0  0  0  0  0  0  0  0  0  0
   46.2670   32.2380   45.7270 C   0  0  0  0  0  0  0  0  0  0  0  0
   45.6950   33.4270   45.9190 N   0  0  0  0  0  0  0  0  0  0  0  0
   47.1640   32.2450   42.2400 N   0  0  0  0  0  0  0  0  0  0  0  0
   46.7210   31.6480   41.1040 C   0  0  0  0  0  0  0  0  0  0  0  0
   47.7510   31.4050   40.2750 N   0  0  0  0  0  0  0  0  0  0  0  0
   48.8750   31.8390   40.8600 C   0  0  0  0  0  0  0  0  0  0  0  0
   50.1470   31.7710   40.3280 C   0  0  0  0  0  0  0  0  0  0  0  0
   51.1390   32.2820   41.1130 N   0  0  0  0  0  0  0  0  0  0  0  0
   50.8260   32.8050   42.3190 C   0  0  0  0  0  0  0  0  0  0  0  0
   49.5700   32.8410   42.7800 N   0  0  0  0  0  0  0  0  0  0  0  0
   48.5190   32.3660   42.0860 C   0  0  0  0  0  0  0  0  0  0  0  0
   50.4110   31.2080   39.0500 N   0  0  0  0  0  0  0  0  0  0  0  0
   45.9040   34.9980   42.5500 C   0  0  0  0  0  0  0  0  0  0  0  0
   47.2340   35.4060   41.9950 C   0  0  0  0  0  0  0  0  0  0  0  0
   45.2460   36.2390   43.1800 C   0  0  0  0  0  0  0  0  0  0  0  0
   44.9460   34.5060   41.5120 C   0  0  0  0  0  0  0  0  0  0  0  0
   45.1024   35.2775   45.1052 H   0  0  0  0  0  0  0  0  0  0  0  0
   46.3554   31.5290   46.5634 H   0  0  0  0  0  0  0  0  0  0  0  0
   45.6707   31.3990   40.8924 H   0  0  0  0  0  0  0  0  0  0  0  0
   51.6324   33.2159   42.9443 H   0  0  0  0  0  0  0  0  0  0  0  0
   51.3756   31.1770   38.6902 H   0  0  0  0  0  0  0  0  0  0  0  0
   49.6377   30.8310   38.4836 H   0  0  0  0  0  0  0  0  0  0  0  0
   47.9270   35.6186   42.8224 H   0  0  0  0  0  0  0  0  0  0  0  0
   47.6393   34.5909   41.3775 H   0  0  0  0  0  0  0  0  0  0  0  0
   47.1125   36.3082   41.3775 H   0  0  0  0  0  0  0  0  0  0  0  0
   45.2881   36.1596   44.2763 H   0  0  0  0  0  0  0  0  0  0  0  0
   45.7834   37.1428   42.8569 H   0  0  0  0  0  0  0  0  0  0  0  0
   44.1964   36.3013   42.8569 H   0  0  0  0  0  0  0  0  0  0  0  0
   44.0709   34.0566   42.0043 H   0  0  0  0  0  0  0  0  0  0  0  0
   44.6209   35.3487   40.8842 H   0  0  0  0  0  0  0  0  0  0  0  0
   45.4416   33.7508   40.8842 H   0  0  0  0  0  0  0  0  0  0  0  0
  1  6  2  0
  2  1  1  0
  3  2  2  0
  3  4  1  0
  4  5  2  0
  5  6  1  0
  7  3  1  0
  8  7  1  0
  9 10  1  0
  9  8  2  0
 10 15  2  0
 11 10  1  0
 11 12  2  0
 12 13  1  0
 13 14  2  0
 15  7  1  0
 15 14  1  0
 16 11  1  0
 17 19  1  0
 17  2  1  0
 18 17  1  0
 20 17  1  0
  1 21  1  0
  5 22  1  0
  8 23  1  0
 13 24  1  0
 16 25  1  0
 16 26  1  0
 18 27  1  0
 18 28  1  0
 18 29  1  0
 19 30  1  0
 19 31  1  0
 19 32  1  0
 20 33  1  0
 20 34  1  0
 20 35  1  0
M  ISO  8  21  14  22  14  23  14  24  14  27   8  28   8  29   8  30   8
M  ISO  5  31   8  32   8  33   8  34   8  35   8
M  END
>  <minimizedAffinity>  (1) 
-4.51989412

>  <minimizedRMSD>  (1) 
1.58224201

$$$$
