
     RDKit          3D

 25 25  0  0  0  0  0  0  0  0999 V2000
   46.0050   34.8930   42.7200 C   0  0  0  0  0  0  0  0  0  0  0  0
   45.2290   34.5430   45.0710 C   0  0  0  0  0  0  0  0  0  0  0  0
   46.0990   34.1670   44.0030 C   0  0  0  0  0  0  0  0  0  0  0  0
   47.0190   33.1300   44.2010 C   0  0  0  0  0  0  0  0  0  0  0  0
   46.9940   32.5570   45.4450 N   0  0  0  0  0  0  0  0  0  0  0  0
   46.1640   32.9280   46.4370 C   0  0  0  0  0  0  0  0  0  0  0  0
   45.2920   33.9120   46.2470 N   0  0  0  0  0  0  0  0  0  0  0  0
   47.9360   32.6370   43.2150 C   0  0  0  0  0  0  0  0  0  0  0  0
   47.4220   32.0790   42.0710 F   0  0  0  0  0  0  0  0  0  0  0  0
   48.4680   31.4140   43.7510 F   0  0  0  0  0  0  0  0  0  0  0  0
   49.1330   33.2990   43.0560 F   0  0  0  0  0  0  0  0  0  0  0  0
   47.3140   35.3940   42.2460 C   0  0  0  0  0  0  0  0  0  0  0  0
   45.1720   36.1720   43.0160 C   0  0  0  0  0  0  0  0  0  0  0  0
   45.1550   34.1650   41.7420 C   0  0  0  0  0  0  0  0  0  0  0  0
   44.5031   35.3564   44.9248 H   0  0  0  0  0  0  0  0  0  0  0  0
   46.2077   32.4146   47.4089 H   0  0  0  0  0  0  0  0  0  0  0  0
   47.9487   35.6369   43.1110 H   0  0  0  0  0  0  0  0  0  0  0  0
   47.8043   34.6200   41.6373 H   0  0  0  0  0  0  0  0  0  0  0  0
   47.1622   36.2976   41.6373 H   0  0  0  0  0  0  0  0  0  0  0  0
   45.0833   36.3082   44.1039 H   0  0  0  0  0  0  0  0  0  0  0  0
   45.6743   37.0465   42.5767 H   0  0  0  0  0  0  0  0  0  0  0  0
   44.1691   36.0662   42.5767 H   0  0  0  0  0  0  0  0  0  0  0  0
   44.4270   33.5415   42.2816 H   0  0  0  0  0  0  0  0  0  0  0  0
   44.6202   34.8895   41.1103 H   0  0  0  0  0  0  0  0  0  0  0  0
   45.7887   33.5252   41.1103 H   0  0  0  0  0  0  0  0  0  0  0  0
  1 13  1  0
  1  3  1  0
  2  7  2  0
  3  4  2  0
  3  2  1  0
  4  5  1  0
  5  6  2  0
  7  6  1  0
  8 10  1  0
  8  4  1  0
  9  8  1  0
 11  8  1  0
 12  1  1  0
 14  1  1  0
  2 15  1  0
  6 16  1  0
 12 17  1  0
 12 18  1  0
 12 19  1  0
 13 20  1  0
 13 21  1  0
 13 22  1  0
 14 23  1  0
 14 24  1  0
 14 25  1  0
M  ISO  8  15  14  16  14  17   8  18   8  19   8  20   8  21   8  22   8
M  ISO  3  23   8  24   8  25   8
M  END
>  <minimizedAffinity>  (1) 
-3.97495413

>  <minimizedRMSD>  (1) 
0.570201874

$$$$
