
     RDKit          3D

 35 36  0  0  0  0  0  0  0  0999 V2000
   45.3180   34.4610   45.0450 C   0  0  0  0  0  0  0  0  0  0  0  0
   46.1110   34.1790   43.9290 C   0  0  0  0  0  0  0  0  0  0  0  0
   47.0080   33.1430   44.0520 C   0  0  0  0  0  0  0  0  0  0  0  0
   47.1130   32.4330   45.2070 N   0  0  0  0  0  0  0  0  0  0  0  0
   46.3080   32.7550   46.2720 C   0  0  0  0  0  0  0  0  0  0  0  0
   45.4360   33.7500   46.1750 N   0  0  0  0  0  0  0  0  0  0  0  0
   47.9530   32.6200   43.1440 N   0  0  0  0  0  0  0  0  0  0  0  0
   49.2730   32.7990   42.5760 C   0  0  0  0  0  0  0  0  0  0  0  0
   49.2560   32.2120   41.1810 C   0  0  0  0  0  0  0  0  0  0  0  0
   49.1940   30.8190   41.2180 O   0  0  0  0  0  0  0  0  0  0  0  0
   48.4600   30.4320   42.3500 C   0  0  0  0  0  0  0  0  0  0  0  0
   47.3490   31.4420   42.5450 C   0  0  0  0  0  0  0  0  0  0  0  0
   45.9500   34.9670   42.6970 C   0  0  0  0  0  0  0  0  0  0  0  0
   47.2620   35.4560   42.1750 C   0  0  0  0  0  0  0  0  0  0  0  0
   45.1090   36.2080   43.0730 C   0  0  0  0  0  0  0  0  0  0  0  0
   45.1300   34.2170   41.6840 C   0  0  0  0  0  0  0  0  0  0  0  0
   44.5852   35.2798   44.9950 H   0  0  0  0  0  0  0  0  0  0  0  0
   46.3866   32.1853   47.2097 H   0  0  0  0  0  0  0  0  0  0  0  0
   49.5187   33.8702   42.5290 H   0  0  0  0  0  0  0  0  0  0  0  0
   50.0309   32.2979   43.1961 H   0  0  0  0  0  0  0  0  0  0  0  0
   50.1719   32.5160   40.6531 H   0  0  0  0  0  0  0  0  0  0  0  0
   48.3632   32.5855   40.6580 H   0  0  0  0  0  0  0  0  0  0  0  0
   48.0328   29.4302   42.1952 H   0  0  0  0  0  0  0  0  0  0  0  0
   49.1094   30.3972   43.2372 H   0  0  0  0  0  0  0  0  0  0  0  0
   46.8969   31.6995   41.5758 H   0  0  0  0  0  0  0  0  0  0  0  0
   46.5544   31.0356   43.1880 H   0  0  0  0  0  0  0  0  0  0  0  0
   47.9234   35.7025   43.0187 H   0  0  0  0  0  0  0  0  0  0  0  0
   47.7279   34.6711   41.5610 H   0  0  0  0  0  0  0  0  0  0  0  0
   47.1005   36.3543   41.5610 H   0  0  0  0  0  0  0  0  0  0  0  0
   45.0510   36.2936   44.1681 H   0  0  0  0  0  0  0  0  0  0  0  0
   45.5822   37.1107   42.6592 H   0  0  0  0  0  0  0  0  0  0  0  0
   44.0952   36.1030   42.6592 H   0  0  0  0  0  0  0  0  0  0  0  0
   44.4145   33.5626   42.2034 H   0  0  0  0  0  0  0  0  0  0  0  0
   44.5817   34.9326   41.0538 H   0  0  0  0  0  0  0  0  0  0  0  0
   45.7940   33.6071   41.0538 H   0  0  0  0  0  0  0  0  0  0  0  0
  1  6  2  0
  2  3  2  0
  2  1  1  0
  3  4  1  0
  4  5  2  0
  6  5  1  0
  7  3  1  0
  8  7  1  0
  9 10  1  0
  9  8  1  0
 10 11  1  0
 11 12  1  0
 12  7  1  0
 13 15  1  0
 13  2  1  0
 14 13  1  0
 16 13  1  0
  1 17  1  0
  5 18  1  0
  8 19  1  0
  8 20  1  0
  9 21  1  0
  9 22  1  0
 11 23  1  0
 11 24  1  0
 12 25  1  0
 12 26  1  0
 14 27  1  0
 14 28  1  0
 14 29  1  0
 15 30  1  0
 15 31  1  0
 15 32  1  0
 16 33  1  0
 16 34  1  0
 16 35  1  0
M  ISO  8  17  14  18  14  19  13  20  13  21  13  22  13  23  13  24  13
M  ISO  8  25  13  26  13  27   8  28   8  29   8  30   8  31   8  32   8
M  ISO  3  33   8  34   8  35   8
M  END
>  <minimizedAffinity>  (1) 
-4.0331502

>  <minimizedRMSD>  (1) 
0.75866133

$$$$
