
     RDKit          3D

 29 30  0  0  0  0  0  0  0  0999 V2000
   45.2560   34.4740   45.0160 C   0  0  0  0  0  0  0  0  0  0  0  0
   46.1240   34.1690   43.9450 C   0  0  0  0  0  0  0  0  0  0  0  0
   47.0720   33.1830   44.1360 C   0  0  0  0  0  0  0  0  0  0  0  0
   47.0950   32.5760   45.3710 N   0  0  0  0  0  0  0  0  0  0  0  0
   46.2590   32.8850   46.3730 C   0  0  0  0  0  0  0  0  0  0  0  0
   45.3510   33.8260   46.1880 N   0  0  0  0  0  0  0  0  0  0  0  0
   47.9720   32.6240   43.1080 C   0  0  0  0  0  0  0  0  0  0  0  0
   49.1400   32.8290   42.5500 C   0  0  0  0  0  0  0  0  0  0  0  0
   49.6300   32.1180   41.5430 C   0  0  0  0  0  0  0  0  0  0  0  0
   48.8160   31.1060   41.0850 C   0  0  0  0  0  0  0  0  0  0  0  0
   47.2640   31.1780   42.1580 S   0  0  0  0  0  0  0  0  0  0  0  0
   46.0130   34.9470   42.6820 C   0  0  0  0  0  0  0  0  0  0  0  0
   47.3490   35.4330   42.2230 C   0  0  0  0  0  0  0  0  0  0  0  0
   45.1660   36.2070   43.0190 C   0  0  0  0  0  0  0  0  0  0  0  0
   45.2090   34.1860   41.6960 C   0  0  0  0  0  0  0  0  0  0  0  0
   44.4908   35.2539   44.8883 H   0  0  0  0  0  0  0  0  0  0  0  0
   46.3287   32.3609   47.3376 H   0  0  0  0  0  0  0  0  0  0  0  0
   49.7579   33.6489   42.9448 H   0  0  0  0  0  0  0  0  0  0  0  0
   50.6178   32.3225   41.1043 H   0  0  0  0  0  0  0  0  0  0  0  0
   49.0260   30.4029   40.2656 H   0  0  0  0  0  0  0  0  0  0  0  0
   47.9764   35.6612   43.0973 H   0  0  0  0  0  0  0  0  0  0  0  0
   47.8342   34.6538   41.6169 H   0  0  0  0  0  0  0  0  0  0  0  0
   47.2202   36.3419   41.6169 H   0  0  0  0  0  0  0  0  0  0  0  0
   45.0917   36.3176   44.1109 H   0  0  0  0  0  0  0  0  0  0  0  0
   45.6490   37.0984   42.5922 H   0  0  0  0  0  0  0  0  0  0  0  0
   44.1582   36.0963   42.5922 H   0  0  0  0  0  0  0  0  0  0  0  0
   44.5092   33.5236   42.2266 H   0  0  0  0  0  0  0  0  0  0  0  0
   44.6432   34.8871   41.0649 H   0  0  0  0  0  0  0  0  0  0  0  0
   45.8780   33.5826   41.0649 H   0  0  0  0  0  0  0  0  0  0  0  0
  1  6  2  0
  2  3  2  0
  2  1  1  0
  3  4  1  0
  4  5  2  0
  6  5  1  0
  7  3  1  0
  8  7  2  0
  9  8  1  0
 10  9  2  0
 10 11  1  0
 11  7  1  0
 12 14  1  0
 12  2  1  0
 13 12  1  0
 15 12  1  0
  1 16  1  0
  5 17  1  0
  8 18  1  0
  9 19  1  0
 10 20  1  0
 13 21  1  0
 13 22  1  0
 13 23  1  0
 14 24  1  0
 14 25  1  0
 14 26  1  0
 15 27  1  0
 15 28  1  0
 15 29  1  0
M  ISO  8  16  14  17  14  18  14  19  14  20  14  21   8  22   8  23   8
M  ISO  6  24   8  25   8  26   8  27   8  28   8  29   8
M  END
>  <minimizedAffinity>  (1) 
-4.03210926

>  <minimizedRMSD>  (1) 
0.19152002

$$$$
