
     RDKit          3D

 29 30  0  0  0  0  0  0  0  0999 V2000
   45.2600   34.4740   45.0400 C   0  0  0  0  0  0  0  0  0  0  0  0
   46.0930   34.1710   43.9280 C   0  0  0  0  0  0  0  0  0  0  0  0
   47.0290   33.1750   44.0720 C   0  0  0  0  0  0  0  0  0  0  0  0
   47.0900   32.5450   45.2980 N   0  0  0  0  0  0  0  0  0  0  0  0
   46.2900   32.8560   46.3240 C   0  0  0  0  0  0  0  0  0  0  0  0
   45.3830   33.8100   46.2010 N   0  0  0  0  0  0  0  0  0  0  0  0
   47.8780   32.6130   43.0520 C   0  0  0  0  0  0  0  0  0  0  0  0
   47.8190   31.7560   41.9860 C   0  0  0  0  0  0  0  0  0  0  0  0
   49.0080   31.5700   41.3330 C   0  0  0  0  0  0  0  0  0  0  0  0
   49.8300   32.3790   42.0750 C   0  0  0  0  0  0  0  0  0  0  0  0
   49.1540   32.9210   43.0020 O   0  0  0  0  0  0  0  0  0  0  0  0
   45.9360   34.9770   42.6910 C   0  0  0  0  0  0  0  0  0  0  0  0
   47.2580   35.4520   42.1790 C   0  0  0  0  0  0  0  0  0  0  0  0
   45.1220   36.2450   43.0730 C   0  0  0  0  0  0  0  0  0  0  0  0
   45.0700   34.2530   41.7260 C   0  0  0  0  0  0  0  0  0  0  0  0
   44.5019   35.2657   44.9477 H   0  0  0  0  0  0  0  0  0  0  0  0
   46.3874   32.3144   47.2764 H   0  0  0  0  0  0  0  0  0  0  0  0
   46.8889   31.2559   41.6781 H   0  0  0  0  0  0  0  0  0  0  0  0
   49.2394   30.9457   40.4574 H   0  0  0  0  0  0  0  0  0  0  0  0
   50.9042   32.5334   41.8952 H   0  0  0  0  0  0  0  0  0  0  0  0
   47.9164   35.6886   43.0278 H   0  0  0  0  0  0  0  0  0  0  0  0
   47.7188   34.6632   41.5662 H   0  0  0  0  0  0  0  0  0  0  0  0
   47.1114   36.3537   41.5662 H   0  0  0  0  0  0  0  0  0  0  0  0
   45.0677   36.3296   44.1684 H   0  0  0  0  0  0  0  0  0  0  0  0
   45.6170   37.1365   42.6605 H   0  0  0  0  0  0  0  0  0  0  0  0
   44.1053   36.1661   42.6605 H   0  0  0  0  0  0  0  0  0  0  0  0
   44.3392   33.6420   42.2760 H   0  0  0  0  0  0  0  0  0  0  0  0
   44.5386   34.9794   41.0936 H   0  0  0  0  0  0  0  0  0  0  0  0
   45.6908   33.6013   41.0936 H   0  0  0  0  0  0  0  0  0  0  0  0
  1  6  2  0
  2  3  2  0
  2  1  1  0
  3  4  1  0
  4  5  2  0
  6  5  1  0
  7  3  1  0
  8  7  2  0
  9  8  1  0
  9 10  2  0
 10 11  1  0
 11  7  1  0
 12 14  1  0
 12  2  1  0
 13 12  1  0
 15 12  1  0
  1 16  1  0
  5 17  1  0
  8 18  1  0
  9 19  1  0
 10 20  1  0
 13 21  1  0
 13 22  1  0
 13 23  1  0
 14 24  1  0
 14 25  1  0
 14 26  1  0
 15 27  1  0
 15 28  1  0
 15 29  1  0
M  ISO  8  16  14  17  14  18  14  19  14  20  14  21   8  22   8  23   8
M  ISO  6  24   8  25   8  26   8  27   8  28   8  29   8
M  END
>  <minimizedAffinity>  (1) 
-4.00032568

>  <minimizedRMSD>  (1) 
0.407633096

$$$$
