
     RDKit          3D

 35 36  0  0  0  0  0  0  0  0999 V2000
   45.2490   34.5370   44.9960 C   0  0  0  0  0  0  0  0  0  0  0  0
   46.1190   34.1550   43.9620 C   0  0  0  0  0  0  0  0  0  0  0  0
   47.0090   33.1360   44.2250 C   0  0  0  0  0  0  0  0  0  0  0  0
   47.0260   32.5380   45.4430 N   0  0  0  0  0  0  0  0  0  0  0  0
   46.1550   32.9460   46.4250 C   0  0  0  0  0  0  0  0  0  0  0  0
   45.2880   33.9260   46.1950 N   0  0  0  0  0  0  0  0  0  0  0  0
   48.0090   32.5540   43.3860 C   0  0  0  0  0  0  0  0  0  0  0  0
   47.3690   32.0130   42.1220 C   0  0  0  0  0  0  0  0  0  0  0  0
   48.6130   31.6570   41.3250 C   0  0  0  0  0  0  0  0  0  0  0  0
   49.5280   32.8370   41.5870 C   0  0  0  0  0  0  0  0  0  0  0  0
   48.9320   33.6180   42.7430 C   0  0  0  0  0  0  0  0  0  0  0  0
   46.0450   34.8260   42.6590 C   0  0  0  0  0  0  0  0  0  0  0  0
   47.3100   35.5030   42.2870 C   0  0  0  0  0  0  0  0  0  0  0  0
   44.9660   35.9230   42.8080 C   0  0  0  0  0  0  0  0  0  0  0  0
   45.4630   33.9220   41.6070 C   0  0  0  0  0  0  0  0  0  0  0  0
   44.5252   35.3472   44.8238 H   0  0  0  0  0  0  0  0  0  0  0  0
   46.1760   32.4568   47.4100 H   0  0  0  0  0  0  0  0  0  0  0  0
   48.5244   31.8306   44.0349 H   0  0  0  0  0  0  0  0  0  0  0  0
   46.7481   31.1281   42.3258 H   0  0  0  0  0  0  0  0  0  0  0  0
   46.6804   32.7075   41.6186 H   0  0  0  0  0  0  0  0  0  0  0  0
   48.3838   31.5635   40.2532 H   0  0  0  0  0  0  0  0  0  0  0  0
   49.0538   30.6913   41.6134 H   0  0  0  0  0  0  0  0  0  0  0  0
   50.5350   32.4818   41.8514 H   0  0  0  0  0  0  0  0  0  0  0  0
   49.6154   33.4700   40.6916 H   0  0  0  0  0  0  0  0  0  0  0  0
   49.7094   33.9537   43.4452 H   0  0  0  0  0  0  0  0  0  0  0  0
   48.4140   34.5408   42.4429 H   0  0  0  0  0  0  0  0  0  0  0  0
   47.8524   35.7933   43.1989 H   0  0  0  0  0  0  0  0  0  0  0  0
   47.9320   34.8172   41.6930 H   0  0  0  0  0  0  0  0  0  0  0  0
   47.0844   36.4009   41.6930 H   0  0  0  0  0  0  0  0  0  0  0  0
   44.7802   36.1119   43.8756 H   0  0  0  0  0  0  0  0  0  0  0  0
   45.3153   36.8486   42.3272 H   0  0  0  0  0  0  0  0  0  0  0  0
   44.0347   35.5890   42.3272 H   0  0  0  0  0  0  0  0  0  0  0  0
   44.9285   33.0918   42.0918 H   0  0  0  0  0  0  0  0  0  0  0  0
   44.7623   34.4928   40.9799 H   0  0  0  0  0  0  0  0  0  0  0  0
   46.2726   33.5204   40.9799 H   0  0  0  0  0  0  0  0  0  0  0  0
  1  6  2  0
  2  3  2  0
  2  1  1  0
  3  4  1  0
  4  5  2  0
  6  5  1  0
  7  3  1  0
  8  7  1  0
  9 10  1  0
  9  8  1  0
 10 11  1  0
 11  7  1  0
 12 14  1  0
 12  2  1  0
 13 12  1  0
 15 12  1  0
  1 16  1  0
  5 17  1  0
  7 18  1  0
  8 19  1  0
  8 20  1  0
  9 21  1  0
  9 22  1  0
 10 23  1  0
 10 24  1  0
 11 25  1  0
 11 26  1  0
 13 27  1  0
 13 28  1  0
 13 29  1  0
 14 30  1  0
 14 31  1  0
 14 32  1  0
 15 33  1  0
 15 34  1  0
 15 35  1  0
M  ISO  8  16  14  17  14  18  13  19  13  20  13  21  13  22  13  23  13
M  ISO  8  24  13  25  13  26  13  27   8  28   8  29   8  30   8  31   8
M  ISO  4  32   8  33   8  34   8  35   8
M  END
>  <minimizedAffinity>  (1) 
-4.11622858

>  <minimizedRMSD>  (1) 
0.321523547

$$$$
