
     RDKit          3D

 34 34  0  0  0  0  0  0  0  0999 V2000
   45.9700   34.8850   42.6740 C   0  0  0  0  0  0  0  0  0  0  0  0
   45.2740   34.5000   45.0310 C   0  0  0  0  0  0  0  0  0  0  0  0
   46.0760   34.1100   43.9130 C   0  0  0  0  0  0  0  0  0  0  0  0
   46.9940   33.0540   44.0140 C   0  0  0  0  0  0  0  0  0  0  0  0
   47.0030   32.4960   45.2830 N   0  0  0  0  0  0  0  0  0  0  0  0
   46.2630   32.8620   46.3170 C   0  0  0  0  0  0  0  0  0  0  0  0
   45.4040   33.8520   46.1970 N   0  0  0  0  0  0  0  0  0  0  0  0
   47.8510   32.5020   43.0210 C   0  0  0  0  0  0  0  0  0  0  0  0
   48.1650   33.5790   41.9730 C   0  0  0  0  0  0  0  0  0  0  0  0
   48.8560   31.5310   42.9880 C   0  0  0  0  0  0  0  0  0  0  0  0
   46.8090   31.6870   42.1250 C   0  0  0  0  0  0  0  0  0  0  0  0
   47.2880   35.4300   42.2140 C   0  0  0  0  0  0  0  0  0  0  0  0
   45.2170   36.2020   43.0530 C   0  0  0  0  0  0  0  0  0  0  0  0
   45.0660   34.2680   41.7070 C   0  0  0  0  0  0  0  0  0  0  0  0
   44.5548   35.3267   44.9346 H   0  0  0  0  0  0  0  0  0  0  0  0
   46.3659   32.3379   47.2787 H   0  0  0  0  0  0  0  0  0  0  0  0
   48.4382   34.5159   42.4805 H   0  0  0  0  0  0  0  0  0  0  0  0
   49.0032   33.2450   41.3438 H   0  0  0  0  0  0  0  0  0  0  0  0
   47.2787   33.7478   41.3438 H   0  0  0  0  0  0  0  0  0  0  0  0
   49.1372   31.2593   44.0161 H   0  0  0  0  0  0  0  0  0  0  0  0
   48.4868   30.6389   42.4609 H   0  0  0  0  0  0  0  0  0  0  0  0
   49.7349   31.9307   42.4609 H   0  0  0  0  0  0  0  0  0  0  0  0
   46.1118   31.1417   42.7780 H   0  0  0  0  0  0  0  0  0  0  0  0
   46.2456   32.3866   41.4900 H   0  0  0  0  0  0  0  0  0  0  0  0
   47.3523   30.9717   41.4900 H   0  0  0  0  0  0  0  0  0  0  0  0
   47.9047   35.6850   43.0885 H   0  0  0  0  0  0  0  0  0  0  0  0
   47.8066   34.6725   41.6079 H   0  0  0  0  0  0  0  0  0  0  0  0
   47.1202   36.3325   41.6079 H   0  0  0  0  0  0  0  0  0  0  0  0
   45.1652   36.2926   44.1480 H   0  0  0  0  0  0  0  0  0  0  0  0
   45.7577   37.0657   42.6388 H   0  0  0  0  0  0  0  0  0  0  0  0
   44.1983   36.1741   42.6388 H   0  0  0  0  0  0  0  0  0  0  0  0
   44.2719   33.7260   42.2414 H   0  0  0  0  0  0  0  0  0  0  0  0
   44.6163   35.0485   41.0756 H   0  0  0  0  0  0  0  0  0  0  0  0
   45.6289   33.5648   41.0756 H   0  0  0  0  0  0  0  0  0  0  0  0
  1 13  1  0
  1  3  1  0
  2  7  2  0
  3  4  2  0
  3  2  1  0
  4  5  1  0
  5  6  2  0
  7  6  1  0
  8  4  1  0
  9  8  1  0
 10  8  1  0
 11  8  1  0
 12  1  1  0
 14  1  1  0
  2 15  1  0
  6 16  1  0
  9 17  1  0
  9 18  1  0
  9 19  1  0
 10 20  1  0
 10 21  1  0
 10 22  1  0
 11 23  1  0
 11 24  1  0
 11 25  1  0
 12 26  1  0
 12 27  1  0
 12 28  1  0
 13 29  1  0
 13 30  1  0
 13 31  1  0
 14 32  1  0
 14 33  1  0
 14 34  1  0
M  ISO  8  15  14  16  14  17   8  18   8  19   8  20   8  21   8  22   8
M  ISO  8  23   8  24   8  25   8  26   8  27   8  28   8  29   8  30   8
M  ISO  4  31   8  32   8  33   8  34   8
M  END
>  <minimizedAffinity>  (1) 
-3.89006567

>  <minimizedRMSD>  (1) 
0.537420392

$$$$
