
     RDKit          3D

 46 49  0  0  1  0  0  0  0  0999 V2000
   47.8280   34.7410   41.1780 C   0  0  1  0  0  0  0  0  0  0  0  0
   45.6200   34.2170   42.2250 C   0  0  0  0  0  0  0  0  0  0  0  0
   47.0110   34.2930   42.3150 C   0  0  0  0  0  0  0  0  0  0  0  0
   47.6280   33.9370   43.5370 C   0  0  0  0  0  0  0  0  0  0  0  0
   46.8640   33.5420   44.5640 N   0  0  0  0  0  0  0  0  0  0  0  0
   45.5200   33.4710   44.4680 C   0  0  0  0  0  0  0  0  0  0  0  0
   44.9310   33.8030   43.3230 N   0  0  0  0  0  0  0  0  0  0  0  0
   44.8460   34.5880   41.0970 C   0  0  0  0  0  0  0  0  0  0  0  0
   44.0500   33.3630   40.5540 C   0  0  0  0  0  0  0  0  0  0  0  0
   43.0810   34.0590   39.6070 C   0  0  0  0  0  0  0  0  0  0  0  0
   42.8580   35.4130   40.2430 C   0  0  0  0  0  0  0  0  0  0  0  0
   43.6830   35.4350   41.5140 C   0  0  0  0  0  0  0  0  0  0  0  0
   48.8500   35.7470   41.5370 C   0  0  0  0  0  0  0  0  0  0  0  0
   48.3580   33.5260   40.4690 C   0  0  0  0  0  0  0  0  0  0  0  0
   47.9750   33.5010   39.0690 N   0  0  0  0  0  0  0  0  0  0  0  0
   48.4640   34.5050   38.3530 N   0  0  0  0  0  0  0  0  0  0  0  0
   48.0560   34.3900   37.0810 C   0  0  0  0  0  0  0  0  0  0  0  0
   47.2770   33.2690   36.9820 C   0  0  0  0  0  0  0  0  0  0  0  0
   47.2440   32.7300   38.2450 C   0  0  0  0  0  0  0  0  0  0  0  0
   46.6190   31.5790   38.8090 N   0  0  0  0  0  0  0  0  0  0  0  0
   45.4790   30.9470   38.5810 N   0  0  0  0  0  0  0  0  0  0  0  0
   45.3600   29.8900   39.4060 C   0  0  0  0  0  0  0  0  0  0  0  0
   46.5080   29.8610   40.2050 C   0  0  0  0  0  0  0  0  0  0  0  0
   47.2890   30.9430   39.8050 C   0  0  0  0  0  0  0  0  0  0  0  0
   47.1961   35.3009   40.4729 H   0  0  0  0  0  0  0  0  0  0  0  0
   48.7219   33.9839   43.6427 H   0  0  0  0  0  0  0  0  0  0  0  0
   44.9179   33.1420   45.3278 H   0  0  0  0  0  0  0  0  0  0  0  0
   45.5586   35.0518   40.3991 H   0  0  0  0  0  0  0  0  0  0  0  0
   44.7041   32.6581   40.0198 H   0  0  0  0  0  0  0  0  0  0  0  0
   43.5705   32.7477   41.3296 H   0  0  0  0  0  0  0  0  0  0  0  0
   42.1361   33.5006   39.5344 H   0  0  0  0  0  0  0  0  0  0  0  0
   43.4703   34.1319   38.5808 H   0  0  0  0  0  0  0  0  0  0  0  0
   43.1884   36.2113   39.5621 H   0  0  0  0  0  0  0  0  0  0  0  0
   41.7923   35.5795   40.4587 H   0  0  0  0  0  0  0  0  0  0  0  0
   43.1385   34.9897   42.3597 H   0  0  0  0  0  0  0  0  0  0  0  0
   43.9516   36.4407   41.8696 H   0  0  0  0  0  0  0  0  0  0  0  0
   48.9240   35.8198   42.6321 H   0  0  0  0  0  0  0  0  0  0  0  0
   49.8233   35.4448   41.1230 H   0  0  0  0  0  0  0  0  0  0  0  0
   48.5632   36.7249   41.1230 H   0  0  0  0  0  0  0  0  0  0  0  0
   49.4559   33.5265   40.5365 H   0  0  0  0  0  0  0  0  0  0  0  0
   47.9291   32.6366   40.9537 H   0  0  0  0  0  0  0  0  0  0  0  0
   48.3044   35.0776   36.2591 H   0  0  0  0  0  0  0  0  0  0  0  0
   46.7812   32.8810   36.0800 H   0  0  0  0  0  0  0  0  0  0  0  0
   44.5187   29.1824   39.4446 H   0  0  0  0  0  0  0  0  0  0  0  0
   46.7463   29.1301   40.9917 H   0  0  0  0  0  0  0  0  0  0  0  0
   48.2671   31.2293   40.2190 H   0  0  0  0  0  0  0  0  0  0  0  0
  1 13  1  0
  1  3  1  0
  2  3  1  0
  2  7  2  0
  3  4  2  0
  4  5  1  0
  6  5  2  0
  7  6  1  0
  8 12  1  0
  8  2  1  0
  9  8  1  0
 10 11  1  0
 10  9  1  0
 11 12  1  0
 14  1  1  0
 15 14  1  0
 16 15  1  0
 17 16  2  0
 18 17  1  0
 18 19  2  0
 19 20  1  0
 19 15  1  0
 20 24  1  0
 21 20  1  0
 21 22  2  0
 22 23  1  0
 24 23  2  0
  1 25  1  6
  4 26  1  0
  6 27  1  0
  8 28  1  0
  9 29  1  0
  9 30  1  0
 10 31  1  0
 10 32  1  0
 11 33  1  0
 11 34  1  0
 12 35  1  0
 12 36  1  0
 13 37  1  0
 13 38  1  0
 13 39  1  0
 14 40  1  0
 14 41  1  0
 17 42  1  0
 18 43  1  0
 22 44  1  0
 23 45  1  0
 24 46  1  0
M  ISO  8  25   8  26  14  27  14  28  13  29  13  30  13  31  13  32  13
M  ISO  8  33  13  34  13  35  13  36  13  37   8  38   8  39   8  40   8
M  ISO  6  41   8  42  14  43  14  44  14  45  14  46  14
M  END
>  <minimizedAffinity>  (1) 
-5.02040291

>  <minimizedRMSD>  (1) 
1.11429942

$$$$
