
     RDKit          3D

 29 30  0  0  0  0  0  0  0  0999 V2000
   45.2830   34.4920   45.0530 C   0  0  0  0  0  0  0  0  0  0  0  0
   46.0830   34.1800   43.9420 C   0  0  0  0  0  0  0  0  0  0  0  0
   46.9870   33.1490   44.1080 C   0  0  0  0  0  0  0  0  0  0  0  0
   47.0670   32.4940   45.3040 N   0  0  0  0  0  0  0  0  0  0  0  0
   46.2720   32.8390   46.3370 C   0  0  0  0  0  0  0  0  0  0  0  0
   45.3920   33.8270   46.2090 N   0  0  0  0  0  0  0  0  0  0  0  0
   47.8810   32.6360   43.1470 N   0  0  0  0  0  0  0  0  0  0  0  0
   49.1170   32.9080   42.7100 C   0  0  0  0  0  0  0  0  0  0  0  0
   49.5450   32.0850   41.6930 C   0  0  0  0  0  0  0  0  0  0  0  0
   48.5160   31.2490   41.4810 N   0  0  0  0  0  0  0  0  0  0  0  0
   47.5360   31.5770   42.3420 C   0  0  0  0  0  0  0  0  0  0  0  0
   45.9270   34.9500   42.6920 C   0  0  0  0  0  0  0  0  0  0  0  0
   47.2460   35.4250   42.1750 C   0  0  0  0  0  0  0  0  0  0  0  0
   45.0630   36.1790   43.0340 C   0  0  0  0  0  0  0  0  0  0  0  0
   45.1320   34.1630   41.6910 C   0  0  0  0  0  0  0  0  0  0  0  0
   44.5467   35.3051   44.9708 H   0  0  0  0  0  0  0  0  0  0  0  0
   46.3522   32.2992   47.2921 H   0  0  0  0  0  0  0  0  0  0  0  0
   49.7352   33.7169   43.1265 H   0  0  0  0  0  0  0  0  0  0  0  0
   50.5130   32.1073   41.1710 H   0  0  0  0  0  0  0  0  0  0  0  0
   46.5683   31.0567   42.3957 H   0  0  0  0  0  0  0  0  0  0  0  0
   47.9073   35.6631   43.0212 H   0  0  0  0  0  0  0  0  0  0  0  0
   47.7052   34.6358   41.5616 H   0  0  0  0  0  0  0  0  0  0  0  0
   47.0966   36.3258   41.5616 H   0  0  0  0  0  0  0  0  0  0  0  0
   44.9898   36.2832   44.1266 H   0  0  0  0  0  0  0  0  0  0  0  0
   45.5259   37.0822   42.6098 H   0  0  0  0  0  0  0  0  0  0  0  0
   44.0564   36.0491   42.6098 H   0  0  0  0  0  0  0  0  0  0  0  0
   44.4463   33.4842   42.2193 H   0  0  0  0  0  0  0  0  0  0  0  0
   44.5517   34.8523   41.0601 H   0  0  0  0  0  0  0  0  0  0  0  0
   45.8154   33.5757   41.0601 H   0  0  0  0  0  0  0  0  0  0  0  0
  1  6  2  0
  2  3  2  0
  2  1  1  0
  3  4  1  0
  4  5  2  0
  6  5  1  0
  7  3  1  0
  8  7  1  0
  9  8  2  0
 10  9  1  0
 10 11  2  0
 11  7  1  0
 12 14  1  0
 12  2  1  0
 13 12  1  0
 15 12  1  0
  1 16  1  0
  5 17  1  0
  8 18  1  0
  9 19  1  0
 11 20  1  0
 13 21  1  0
 13 22  1  0
 13 23  1  0
 14 24  1  0
 14 25  1  0
 14 26  1  0
 15 27  1  0
 15 28  1  0
 15 29  1  0
M  ISO  8  16  14  17  14  18  14  19  14  20  14  21   8  22   8  23   8
M  ISO  6  24   8  25   8  26   8  27   8  28   8  29   8
M  END
>  <minimizedAffinity>  (1) 
-3.93504739

>  <minimizedRMSD>  (1) 
0.25373742

$$$$
