
     RDKit          3D

 28 29  0  0  0  0  0  0  0  0999 V2000
   45.2720   34.5290   45.0520 C   0  0  0  0  0  0  0  0  0  0  0  0
   46.0960   34.1730   43.9650 C   0  0  0  0  0  0  0  0  0  0  0  0
   46.9770   33.1240   44.1650 C   0  0  0  0  0  0  0  0  0  0  0  0
   47.0350   32.4820   45.3480 N   0  0  0  0  0  0  0  0  0  0  0  0
   46.2160   32.8560   46.3840 C   0  0  0  0  0  0  0  0  0  0  0  0
   45.3560   33.8630   46.2220 N   0  0  0  0  0  0  0  0  0  0  0  0
   47.8540   32.6590   43.1540 N   0  0  0  0  0  0  0  0  0  0  0  0
   49.0820   32.8720   42.6040 C   0  0  0  0  0  0  0  0  0  0  0  0
   49.2810   31.9860   41.6120 N   0  0  0  0  0  0  0  0  0  0  0  0
   48.1990   31.2170   41.5280 C   0  0  0  0  0  0  0  0  0  0  0  0
   47.3330   31.6290   42.4680 N   0  0  0  0  0  0  0  0  0  0  0  0
   45.9710   34.9350   42.7050 C   0  0  0  0  0  0  0  0  0  0  0  0
   47.3320   35.4000   42.2370 C   0  0  0  0  0  0  0  0  0  0  0  0
   45.1360   36.1870   43.0160 C   0  0  0  0  0  0  0  0  0  0  0  0
   45.2210   34.1530   41.6900 C   0  0  0  0  0  0  0  0  0  0  0  0
   44.5550   35.3563   44.9452 H   0  0  0  0  0  0  0  0  0  0  0  0
   46.2686   32.3262   47.3465 H   0  0  0  0  0  0  0  0  0  0  0  0
   49.7970   33.6456   42.9209 H   0  0  0  0  0  0  0  0  0  0  0  0
   48.0419   30.3925   40.8170 H   0  0  0  0  0  0  0  0  0  0  0  0
   47.9656   35.6165   43.1097 H   0  0  0  0  0  0  0  0  0  0  0  0
   47.8005   34.6109   41.6304 H   0  0  0  0  0  0  0  0  0  0  0  0
   47.2197   36.3108   41.6304 H   0  0  0  0  0  0  0  0  0  0  0  0
   45.0532   36.3111   44.1058 H   0  0  0  0  0  0  0  0  0  0  0  0
   45.6257   37.0714   42.5824 H   0  0  0  0  0  0  0  0  0  0  0  0
   44.1313   36.0747   42.5824 H   0  0  0  0  0  0  0  0  0  0  0  0
   44.5450   33.4482   42.1962 H   0  0  0  0  0  0  0  0  0  0  0  0
   44.6329   34.8374   41.0609 H   0  0  0  0  0  0  0  0  0  0  0  0
   45.9294   33.5940   41.0609 H   0  0  0  0  0  0  0  0  0  0  0  0
  1  6  2  0
  2  3  2  0
  2  1  1  0
  3  4  1  0
  4  5  2  0
  6  5  1  0
  7  3  1  0
  8  7  1  0
  9  8  2  0
 10  9  1  0
 10 11  2  0
 11  7  1  0
 12 14  1  0
 12  2  1  0
 13 12  1  0
 15 12  1  0
  1 16  1  0
  5 17  1  0
  8 18  1  0
 10 19  1  0
 13 20  1  0
 13 21  1  0
 13 22  1  0
 14 23  1  0
 14 24  1  0
 14 25  1  0
 15 26  1  0
 15 27  1  0
 15 28  1  0
M  ISO  8  16  14  17  14  18  14  19  14  20   8  21   8  22   8  23   8
M  ISO  5  24   8  25   8  26   8  27   8  28   8
M  END
>  <minimizedAffinity>  (1) 
-3.97250748

>  <minimizedRMSD>  (1) 
0.193552494

$$$$
