
     RDKit          3D

 29 30  0  0  0  0  0  0  0  0999 V2000
   45.9490   34.9210   42.7120 C   0  0  0  0  0  0  0  0  0  0  0  0
   45.2420   34.5280   45.0630 C   0  0  0  0  0  0  0  0  0  0  0  0
   46.0760   34.1760   43.9770 C   0  0  0  0  0  0  0  0  0  0  0  0
   46.9760   33.1360   44.1760 C   0  0  0  0  0  0  0  0  0  0  0  0
   47.0170   32.5140   45.3840 N   0  0  0  0  0  0  0  0  0  0  0  0
   46.2020   32.8820   46.3960 C   0  0  0  0  0  0  0  0  0  0  0  0
   45.3280   33.8720   46.2390 N   0  0  0  0  0  0  0  0  0  0  0  0
   47.8680   32.7150   43.0930 C   0  0  0  0  0  0  0  0  0  0  0  0
   47.6390   31.6130   42.1600 C   0  0  0  0  0  0  0  0  0  0  0  0
   48.4160   31.2690   43.3500 C   0  0  0  0  0  0  0  0  0  0  0  0
   47.2930   35.2980   42.1660 C   0  0  0  0  0  0  0  0  0  0  0  0
   45.2020   36.2260   43.0350 C   0  0  0  0  0  0  0  0  0  0  0  0
   45.0820   34.1770   41.7460 C   0  0  0  0  0  0  0  0  0  0  0  0
   44.5151   35.3455   44.9480 H   0  0  0  0  0  0  0  0  0  0  0  0
   46.2617   32.3571   47.3608 H   0  0  0  0  0  0  0  0  0  0  0  0
   48.1785   33.7516   42.8951 H   0  0  0  0  0  0  0  0  0  0  0  0
   46.6225   31.2079   42.0479 H   0  0  0  0  0  0  0  0  0  0  0  0
   47.8274   31.4931   41.0829 H   0  0  0  0  0  0  0  0  0  0  0  0
   49.4929   31.0596   43.2702 H   0  0  0  0  0  0  0  0  0  0  0  0
   48.3406   30.5256   44.1572 H   0  0  0  0  0  0  0  0  0  0  0  0
   47.9855   35.4923   42.9983 H   0  0  0  0  0  0  0  0  0  0  0  0
   47.6825   34.4744   41.5495 H   0  0  0  0  0  0  0  0  0  0  0  0
   47.1973   36.2040   41.5495 H   0  0  0  0  0  0  0  0  0  0  0  0
   45.1321   36.3481   44.1260 H   0  0  0  0  0  0  0  0  0  0  0  0
   45.7493   37.0778   42.6050 H   0  0  0  0  0  0  0  0  0  0  0  0
   44.1903   36.1855   42.6050 H   0  0  0  0  0  0  0  0  0  0  0  0
   44.3614   33.5586   42.3012 H   0  0  0  0  0  0  0  0  0  0  0  0
   44.5387   34.8943   41.1133 H   0  0  0  0  0  0  0  0  0  0  0  0
   45.7085   33.5311   41.1133 H   0  0  0  0  0  0  0  0  0  0  0  0
  1 12  1  0
  1  3  1  0
  2  7  2  0
  3  4  2  0
  3  2  1  0
  4  5  1  0
  5  6  2  0
  7  6  1  0
  8 10  1  0
  8  4  1  0
  9  8  1  0
  9 10  1  0
 11  1  1  0
 13  1  1  0
  2 14  1  0
  6 15  1  0
  8 16  1  0
  9 17  1  0
  9 18  1  0
 10 19  1  0
 10 20  1  0
 11 21  1  0
 11 22  1  0
 11 23  1  0
 12 24  1  0
 12 25  1  0
 12 26  1  0
 13 27  1  0
 13 28  1  0
 13 29  1  0
M  ISO  8  14  14  15  14  16  13  17  13  18  13  19  13  20  13  21   8
M  ISO  8  22   8  23   8  24   8  25   8  26   8  27   8  28   8  29   8
M  END
>  <minimizedAffinity>  (1) 
-3.78733897

>  <minimizedRMSD>  (1) 
0.232544392

$$$$
