
     RDKit          3D

 26 26  0  0  0  0  0  0  0  0999 V2000
   46.0320   34.8890   42.6900 C   0  0  0  0  0  0  0  0  0  0  0  0
   45.2780   34.5110   45.0290 C   0  0  0  0  0  0  0  0  0  0  0  0
   46.1170   34.1660   43.9680 C   0  0  0  0  0  0  0  0  0  0  0  0
   46.9840   33.1400   44.2490 C   0  0  0  0  0  0  0  0  0  0  0  0
   47.0250   32.5200   45.4410 N   0  0  0  0  0  0  0  0  0  0  0  0
   46.1780   32.9080   46.4330 C   0  0  0  0  0  0  0  0  0  0  0  0
   45.3260   33.8870   46.2090 N   0  0  0  0  0  0  0  0  0  0  0  0
   47.9030   32.6430   43.2790 C   0  0  0  0  0  0  0  0  0  0  0  0
   48.6990   32.1550   42.4730 O   0  0  0  0  0  0  0  0  0  0  0  0
   47.3900   35.3310   42.2410 C   0  0  0  0  0  0  0  0  0  0  0  0
   45.1350   36.1130   42.9280 C   0  0  0  0  0  0  0  0  0  0  0  0
   45.3120   34.0360   41.6780 C   0  0  0  0  0  0  0  0  0  0  0  0
   44.5519   35.3253   44.8884 H   0  0  0  0  0  0  0  0  0  0  0  0
   46.2047   32.4086   47.4127 H   0  0  0  0  0  0  0  0  0  0  0  0
   47.2084   32.8979   42.4650 H   0  0  0  0  0  0  0  0  0  0  0  0
   48.7433   33.0056   43.8893 H   0  0  0  0  0  0  0  0  0  0  0  0
   49.4319   31.7057   42.9639 H   0  0  0  0  0  0  0  0  0  0  0  0
   48.0184   35.5355   43.1204 H   0  0  0  0  0  0  0  0  0  0  0  0
   47.8527   34.5371   41.6364 H   0  0  0  0  0  0  0  0  0  0  0  0
   47.2968   36.2452   41.6364 H   0  0  0  0  0  0  0  0  0  0  0  0
   45.0159   36.2756   44.0094 H   0  0  0  0  0  0  0  0  0  0  0  0
   45.5978   37.0009   42.4725 H   0  0  0  0  0  0  0  0  0  0  0  0
   44.1489   35.9391   42.4725 H   0  0  0  0  0  0  0  0  0  0  0  0
   44.6875   33.2961   42.2001 H   0  0  0  0  0  0  0  0  0  0  0  0
   44.6751   34.6739   41.0476 H   0  0  0  0  0  0  0  0  0  0  0  0
   46.0478   33.5152   41.0476 H   0  0  0  0  0  0  0  0  0  0  0  0
  1 11  1  0
  1  3  1  0
  2  7  2  0
  3  4  2  0
  3  2  1  0
  4  5  1  0
  5  6  2  0
  7  6  1  0
  8  4  1  0
  9  8  1  0
 10  1  1  0
 12  1  1  0
  2 13  1  0
  6 14  1  0
  8 15  1  0
  8 16  1  0
  9 17  1  0
 10 18  1  0
 10 19  1  0
 10 20  1  0
 11 21  1  0
 11 22  1  0
 11 23  1  0
 12 24  1  0
 12 25  1  0
 12 26  1  0
M  ISO  8  13  14  14  14  15   8  16   8  17   3  18   8  19   8  20   8
M  ISO  6  21   8  22   8  23   8  24   8  25   8  26   8
M  END
>  <minimizedAffinity>  (1) 
-3.57850385

>  <minimizedRMSD>  (1) 
0.136837021

$$$$
