
     RDKit          3D

 23 23  0  0  0  0  0  0  0  0999 V2000
   45.9700   34.9160   42.7390 C   0  0  0  0  0  0  0  0  0  0  0  0
   45.2410   34.5300   45.0680 C   0  0  0  0  0  0  0  0  0  0  0  0
   46.0980   34.1680   44.0080 C   0  0  0  0  0  0  0  0  0  0  0  0
   47.0090   33.1260   44.2400 C   0  0  0  0  0  0  0  0  0  0  0  0
   47.0200   32.5260   45.4550 N   0  0  0  0  0  0  0  0  0  0  0  0
   46.1840   32.8980   46.4490 C   0  0  0  0  0  0  0  0  0  0  0  0
   45.2960   33.8950   46.2600 N   0  0  0  0  0  0  0  0  0  0  0  0
   47.8450   32.7820   43.1920 O   0  0  0  0  0  0  0  0  0  0  0  0
   47.3510   35.2770   42.2290 C   0  0  0  0  0  0  0  0  0  0  0  0
   45.2030   36.2000   43.0290 C   0  0  0  0  0  0  0  0  0  0  0  0
   45.2020   34.1150   41.7410 C   0  0  0  0  0  0  0  0  0  0  0  0
   44.5150   35.3434   44.9221 H   0  0  0  0  0  0  0  0  0  0  0  0
   46.2281   32.3835   47.4202 H   0  0  0  0  0  0  0  0  0  0  0  0
   48.5057   32.0534   43.3045 H   0  0  0  0  0  0  0  0  0  0  0  0
   48.0227   35.4526   43.0823 H   0  0  0  0  0  0  0  0  0  0  0  0
   47.7434   34.4513   41.6173 H   0  0  0  0  0  0  0  0  0  0  0  0
   47.2891   36.1891   41.6173 H   0  0  0  0  0  0  0  0  0  0  0  0
   45.1196   36.3395   44.1169 H   0  0  0  0  0  0  0  0  0  0  0  0
   45.7388   37.0544   42.5897 H   0  0  0  0  0  0  0  0  0  0  0  0
   44.1967   36.1332   42.5897 H   0  0  0  0  0  0  0  0  0  0  0  0
   44.5334   33.4176   42.2669 H   0  0  0  0  0  0  0  0  0  0  0  0
   44.6050   34.7901   41.1103 H   0  0  0  0  0  0  0  0  0  0  0  0
   45.9016   33.5469   41.1103 H   0  0  0  0  0  0  0  0  0  0  0  0
  1 10  1  0
  1  3  1  0
  2  7  2  0
  3  4  2  0
  3  2  1  0
  4  5  1  0
  5  6  2  0
  7  6  1  0
  8  4  1  0
  9  1  1  0
 11  1  1  0
  2 12  1  0
  6 13  1  0
  8 14  1  0
  9 15  1  0
  9 16  1  0
  9 17  1  0
 10 18  1  0
 10 19  1  0
 10 20  1  0
 11 21  1  0
 11 22  1  0
 11 23  1  0
M  ISO  8  12  14  13  14  14   3  15   8  16   8  17   8  18   8  19   8
M  ISO  4  20   8  21   8  22   8  23   8
M  END
>  <minimizedAffinity>  (1) 
-3.63650489

>  <minimizedRMSD>  (1) 
0.0709547475

$$$$
