
     RDKit          3D

 38 39  0  0  0  0  0  0  0  0999 V2000
   46.0690   34.9200   42.5800 C   0  0  0  0  0  0  0  0  0  0  0  0
   45.2160   34.6720   44.9000 C   0  0  0  0  0  0  0  0  0  0  0  0
   46.1190   34.2430   43.8680 C   0  0  0  0  0  0  0  0  0  0  0  0
   46.9560   33.2230   44.1540 C   0  0  0  0  0  0  0  0  0  0  0  0
   46.8510   32.6970   45.4210 N   0  0  0  0  0  0  0  0  0  0  0  0
   46.0160   33.0970   46.3680 C   0  0  0  0  0  0  0  0  0  0  0  0
   45.1990   34.0870   46.1060 N   0  0  0  0  0  0  0  0  0  0  0  0
   47.9160   32.6400   43.2970 C   0  0  0  0  0  0  0  0  0  0  0  0
   48.8730   33.6860   42.8190 C   0  0  0  0  0  0  0  0  0  0  0  0
   47.2860   32.0390   42.0810 C   0  0  0  0  0  0  0  0  0  0  0  0
   47.3410   35.4630   42.0910 C   0  0  0  0  0  0  0  0  0  0  0  0
   45.2310   36.2100   42.8720 C   0  0  0  0  0  0  0  0  0  0  0  0
   45.3270   34.2390   41.5510 C   0  0  0  0  0  0  0  0  0  0  0  0
   43.8790   34.6470   41.3810 C   0  0  0  0  0  0  0  0  0  0  0  0
   43.3800   34.8560   40.0880 C   0  0  0  0  0  0  0  0  0  0  0  0
   42.0500   35.2160   40.1760 C   0  0  0  0  0  0  0  0  0  0  0  0
   41.8080   35.2070   41.5300 C   0  0  0  0  0  0  0  0  0  0  0  0
   42.8950   34.8740   42.1640 O   0  0  0  0  0  0  0  0  0  0  0  0
   44.5219   35.5005   44.6955 H   0  0  0  0  0  0  0  0  0  0  0  0
   46.0086   32.6084   47.3535 H   0  0  0  0  0  0  0  0  0  0  0  0
   48.4249   31.8564   43.8775 H   0  0  0  0  0  0  0  0  0  0  0  0
   49.3312   34.1868   43.6846 H   0  0  0  0  0  0  0  0  0  0  0  0
   49.6584   33.2139   42.2105 H   0  0  0  0  0  0  0  0  0  0  0  0
   48.3331   34.4264   42.2105 H   0  0  0  0  0  0  0  0  0  0  0  0
   46.5214   31.3096   42.3866 H   0  0  0  0  0  0  0  0  0  0  0  0
   46.8167   32.8325   41.4810 H   0  0  0  0  0  0  0  0  0  0  0  0
   48.0566   31.5328   41.4810 H   0  0  0  0  0  0  0  0  0  0  0  0
   47.9769   35.7345   42.9466 H   0  0  0  0  0  0  0  0  0  0  0  0
   47.8526   34.7048   41.4799 H   0  0  0  0  0  0  0  0  0  0  0  0
   47.1473   36.3569   41.4799 H   0  0  0  0  0  0  0  0  0  0  0  0
   45.1401   36.3499   43.9593 H   0  0  0  0  0  0  0  0  0  0  0  0
   45.7353   37.0825   42.4309 H   0  0  0  0  0  0  0  0  0  0  0  0
   44.2289   36.1039   42.4309 H   0  0  0  0  0  0  0  0  0  0  0  0
   45.8396   34.4189   40.5945 H   0  0  0  0  0  0  0  0  0  0  0  0
   45.2980   33.1843   41.8620 H   0  0  0  0  0  0  0  0  0  0  0  0
   43.9541   34.7505   39.1557 H   0  0  0  0  0  0  0  0  0  0  0  0
   41.3518   35.4530   39.3597 H   0  0  0  0  0  0  0  0  0  0  0  0
   40.8443   35.4446   42.0041 H   0  0  0  0  0  0  0  0  0  0  0  0
  1 12  1  0
  1  3  1  0
  2  7  2  0
  3  4  2  0
  3  2  1  0
  4  5  1  0
  5  6  2  0
  7  6  1  0
  8  4  1  0
  9  8  1  0
 10  8  1  0
 11  1  1  0
 13  1  1  0
 14 13  1  0
 14 18  1  0
 15 16  1  0
 15 14  2  0
 16 17  2  0
 17 18  1  0
  2 19  1  0
  6 20  1  0
  8 21  1  0
  9 22  1  0
  9 23  1  0
  9 24  1  0
 10 25  1  0
 10 26  1  0
 10 27  1  0
 11 28  1  0
 11 29  1  0
 11 30  1  0
 12 31  1  0
 12 32  1  0
 12 33  1  0
 13 34  1  0
 13 35  1  0
 15 36  1  0
 16 37  1  0
 17 38  1  0
M  ISO  8  19  14  20  14  21   8  22   8  23   8  24   8  25   8  26   8
M  ISO  8  27   8  28   8  29   8  30   8  31   8  32   8  33   8  34   8
M  ISO  4  35   8  36  14  37  14  38  14
M  END
>  <minimizedAffinity>  (1) 
-4.67647314

>  <minimizedRMSD>  (1) 
1.06286645

$$$$
