
     RDKit          3D

 38 38  0  0  0  0  0  0  0  0999 V2000
   46.0570   34.9190   42.7260 C   0  0  0  0  0  0  0  0  0  0  0  0
   45.2760   34.5450   45.0560 C   0  0  0  0  0  0  0  0  0  0  0  0
   46.1450   34.1800   43.9800 C   0  0  0  0  0  0  0  0  0  0  0  0
   46.9960   33.1550   44.1930 C   0  0  0  0  0  0  0  0  0  0  0  0
   46.9390   32.5650   45.4290 N   0  0  0  0  0  0  0  0  0  0  0  0
   46.1280   32.9090   46.4250 C   0  0  0  0  0  0  0  0  0  0  0  0
   45.2920   33.9100   46.2280 N   0  0  0  0  0  0  0  0  0  0  0  0
   47.9340   32.6170   43.2780 C   0  0  0  0  0  0  0  0  0  0  0  0
   48.8590   33.6880   42.8030 C   0  0  0  0  0  0  0  0  0  0  0  0
   47.2600   32.0510   42.0680 C   0  0  0  0  0  0  0  0  0  0  0  0
   47.3190   35.4710   42.2170 C   0  0  0  0  0  0  0  0  0  0  0  0
   45.2490   36.1990   43.1120 C   0  0  0  0  0  0  0  0  0  0  0  0
   45.2680   34.2910   41.7000 C   0  0  0  0  0  0  0  0  0  0  0  0
   43.8200   34.3470   41.8000 N   0  0  0  0  0  0  0  0  0  0  0  0
   42.7940   35.1410   41.2410 C   0  0  0  0  0  0  0  0  0  0  0  0
   43.1490   35.1990   39.9690 N   0  0  0  0  0  0  0  0  0  0  0  0
   41.8180   35.5590   42.1810 N   0  0  0  0  0  0  0  0  0  0  0  0
   42.5720   35.7240   39.3060 H   0  0  0  0  0  0  0  0  0  0  0  0
   44.5713   35.3772   44.9116 H   0  0  0  0  0  0  0  0  0  0  0  0
   46.1536   32.3740   47.3858 H   0  0  0  0  0  0  0  0  0  0  0  0
   48.4787   31.8226   43.8094 H   0  0  0  0  0  0  0  0  0  0  0  0
   49.3019   34.2008   43.6695 H   0  0  0  0  0  0  0  0  0  0  0  0
   49.6581   33.2391   42.1947 H   0  0  0  0  0  0  0  0  0  0  0  0
   48.2986   34.4133   42.1947 H   0  0  0  0  0  0  0  0  0  0  0  0
   46.4526   31.3729   42.3815 H   0  0  0  0  0  0  0  0  0  0  0  0
   46.8384   32.8698   41.4665 H   0  0  0  0  0  0  0  0  0  0  0  0
   47.9935   31.4942   41.4665 H   0  0  0  0  0  0  0  0  0  0  0  0
   47.9635   35.7529   43.0627 H   0  0  0  0  0  0  0  0  0  0  0  0
   47.8294   34.7139   41.6035 H   0  0  0  0  0  0  0  0  0  0  0  0
   47.1095   36.3597   41.6035 H   0  0  0  0  0  0  0  0  0  0  0  0
   45.1961   36.2827   44.2075 H   0  0  0  0  0  0  0  0  0  0  0  0
   45.7504   37.0872   42.7001 H   0  0  0  0  0  0  0  0  0  0  0  0
   44.2315   36.1284   42.7001 H   0  0  0  0  0  0  0  0  0  0  0  0
   45.5501   33.2280   41.6800 H   0  0  0  0  0  0  0  0  0  0  0  0
   45.4955   34.8732   40.7948 H   0  0  0  0  0  0  0  0  0  0  0  0
   43.4486   33.6284   42.4377 H   0  0  0  0  0  0  0  0  0  0  0  0
   41.0261   36.1428   41.8761 H   0  0  0  0  0  0  0  0  0  0  0  0
   41.9010   35.2788   43.1687 H   0  0  0  0  0  0  0  0  0  0  0  0
  1 12  1  0
  1  3  1  0
  2  7  2  0
  3  4  2  0
  3  2  1  0
  4  5  1  0
  5  6  2  0
  7  6  1  0
  8  4  1  0
  9  8  1  0
 10  8  1  0
 11  1  1  0
 13 14  1  0
 13  1  1  0
 15 14  1  0
 15 17  1  0
 16 15  2  0
 18 16  1  0
  2 19  1  0
  6 20  1  0
  8 21  1  0
  9 22  1  0
  9 23  1  0
  9 24  1  0
 10 25  1  0
 10 26  1  0
 10 27  1  0
 11 28  1  0
 11 29  1  0
 11 30  1  0
 12 31  1  0
 12 32  1  0
 12 33  1  0
 13 34  1  0
 13 35  1  0
 14 36  1  0
 17 37  1  0
 17 38  1  0
M  ISO  8  19  14  20  14  21   8  22   8  23   8  24   8  25   8  26   8
M  ISO  8  27   8  28   8  29   8  30   8  31   8  32   8  33   8  34   8
M  ISO  1  35   8
M  END
>  <minimizedAffinity>  (1) 
-4.93575001

>  <minimizedRMSD>  (1) 
0.606007814

$$$$
