
     RDKit          3D

 46 47  0  0  0  0  0  0  0  0999 V2000
   44.5250   33.9920   40.9870 C   0  0  0  0  0  0  0  0  0  0  0  0
   46.8590   33.9750   40.0120 C   0  0  0  0  0  0  0  0  0  0  0  0
   45.9630   34.3070   41.0880 C   0  0  0  0  0  0  0  0  0  0  0  0
   46.5010   34.9150   42.1670 C   0  0  0  0  0  0  0  0  0  0  0  0
   47.8540   35.1550   42.1230 N   0  0  0  0  0  0  0  0  0  0  0  0
   48.6680   34.8420   41.1230 C   0  0  0  0  0  0  0  0  0  0  0  0
   48.1620   34.2520   40.0690 N   0  0  0  0  0  0  0  0  0  0  0  0
   45.8210   35.3330   43.3280 C   0  0  0  0  0  0  0  0  0  0  0  0
   45.1800   34.1790   44.0190 C   0  0  0  0  0  0  0  0  0  0  0  0
   44.7130   36.2870   43.0300 C   0  0  0  0  0  0  0  0  0  0  0  0
   44.0530   32.9630   41.8890 C   0  0  0  0  0  0  0  0  0  0  0  0
   44.4670   33.2680   39.5690 C   0  0  0  0  0  0  0  0  0  0  0  0
   43.7020   35.1390   40.7420 C   0  0  0  0  0  0  0  0  0  0  0  0
   42.2750   34.9690   40.5000 N   0  0  0  0  0  0  0  0  0  0  0  0
   41.2900   35.3700   41.3770 C   0  0  0  0  0  0  0  0  0  0  0  0
   40.0570   35.9560   40.6570 C   0  0  0  0  0  0  0  0  0  0  0  0
   39.4990   34.9610   39.6760 C   0  0  0  0  0  0  0  0  0  0  0  0
   40.6410   34.5530   38.7800 C   0  0  0  0  0  0  0  0  0  0  0  0
   41.9040   35.2600   39.1440 C   0  0  0  0  0  0  0  0  0  0  0  0
   46.4573   33.4783   39.1165 H   0  0  0  0  0  0  0  0  0  0  0  0
   49.7422   35.0726   41.1780 H   0  0  0  0  0  0  0  0  0  0  0  0
   46.5893   35.8138   43.9514 H   0  0  0  0  0  0  0  0  0  0  0  0
   45.2558   34.3155   45.1079 H   0  0  0  0  0  0  0  0  0  0  0  0
   44.1203   34.1209   43.7296 H   0  0  0  0  0  0  0  0  0  0  0  0
   45.6906   33.2487   43.7296 H   0  0  0  0  0  0  0  0  0  0  0  0
   44.2838   36.6566   43.9730 H   0  0  0  0  0  0  0  0  0  0  0  0
   45.1052   37.1345   42.4487 H   0  0  0  0  0  0  0  0  0  0  0  0
   43.9332   35.7732   42.4487 H   0  0  0  0  0  0  0  0  0  0  0  0
   44.2029   33.2898   42.9286 H   0  0  0  0  0  0  0  0  0  0  0  0
   42.9824   32.7831   41.7119 H   0  0  0  0  0  0  0  0  0  0  0  0
   44.6151   32.0342   41.7119 H   0  0  0  0  0  0  0  0  0  0  0  0
   44.3799   32.1813   39.7155 H   0  0  0  0  0  0  0  0  0  0  0  0
   43.5952   33.6331   39.0063 H   0  0  0  0  0  0  0  0  0  0  0  0
   45.3858   33.4897   39.0063 H   0  0  0  0  0  0  0  0  0  0  0  0
   43.8001   35.7946   41.6198 H   0  0  0  0  0  0  0  0  0  0  0  0
   44.0791   35.5228   39.7826 H   0  0  0  0  0  0  0  0  0  0  0  0
   40.9712   34.5003   41.9704 H   0  0  0  0  0  0  0  0  0  0  0  0
   41.7123   36.1621   42.0128 H   0  0  0  0  0  0  0  0  0  0  0  0
   39.2857   36.2021   41.4017 H   0  0  0  0  0  0  0  0  0  0  0  0
   40.3599   36.8622   40.1120 H   0  0  0  0  0  0  0  0  0  0  0  0
   39.1025   34.0841   40.2088 H   0  0  0  0  0  0  0  0  0  0  0  0
   38.6742   35.3976   39.0937 H   0  0  0  0  0  0  0  0  0  0  0  0
   40.3827   34.7967   37.7389 H   0  0  0  0  0  0  0  0  0  0  0  0
   40.8044   33.4720   38.9012 H   0  0  0  0  0  0  0  0  0  0  0  0
   42.7092   34.9309   38.4707 H   0  0  0  0  0  0  0  0  0  0  0  0
   41.7439   36.3438   39.0457 H   0  0  0  0  0  0  0  0  0  0  0  0
  1  3  1  0
  1 11  1  0
  2  7  2  0
  2  3  1  0
  3  4  2  0
  4  8  1  0
  5  4  1  0
  6  5  2  0
  7  6  1  0
  8  9  1  0
 10  8  1  0
 12  1  1  0
 13  1  1  0
 14 13  1  0
 14 15  1  0
 16 15  1  0
 17 16  1  0
 18 19  1  0
 18 17  1  0
 19 14  1  0
  2 20  1  0
  6 21  1  0
  8 22  1  0
  9 23  1  0
  9 24  1  0
  9 25  1  0
 10 26  1  0
 10 27  1  0
 10 28  1  0
 11 29  1  0
 11 30  1  0
 11 31  1  0
 12 32  1  0
 12 33  1  0
 12 34  1  0
 13 35  1  0
 13 36  1  0
 15 37  1  0
 15 38  1  0
 16 39  1  0
 16 40  1  0
 17 41  1  0
 17 42  1  0
 18 43  1  0
 18 44  1  0
 19 45  1  0
 19 46  1  0
M  ISO  8  20  14  21  14  22   8  23   8  24   8  25   8  26   8  27   8
M  ISO  8  28   8  29   8  30   8  31   8  32   8  33   8  34   8  35   8
M  ISO  8  36   8  37  13  38  13  39  13  40  13  41  13  42  13  43  13
M  ISO  3  44  13  45  13  46  13
M  END
>  <minimizedAffinity>  (1) 
-5.31095982

>  <minimizedRMSD>  (1) 
4.41858339

$$$$
