
     RDKit          3D

 37 38  0  0  0  0  0  0  0  0999 V2000
   45.2270   34.6620   44.8930 C   0  0  0  0  0  0  0  0  0  0  0  0
   46.1400   34.2320   43.8670 C   0  0  0  0  0  0  0  0  0  0  0  0
   46.9790   33.2220   44.1660 C   0  0  0  0  0  0  0  0  0  0  0  0
   46.8730   32.7020   45.4330 N   0  0  0  0  0  0  0  0  0  0  0  0
   46.0270   33.1050   46.3750 C   0  0  0  0  0  0  0  0  0  0  0  0
   45.2020   34.0880   46.1020 N   0  0  0  0  0  0  0  0  0  0  0  0
   47.9440   32.6450   43.3200 C   0  0  0  0  0  0  0  0  0  0  0  0
   48.8920   33.6820   42.8200 C   0  0  0  0  0  0  0  0  0  0  0  0
   47.3370   32.0120   42.1120 C   0  0  0  0  0  0  0  0  0  0  0  0
   46.1040   34.8900   42.5760 C   0  0  0  0  0  0  0  0  0  0  0  0
   47.3650   35.4720   42.1080 C   0  0  0  0  0  0  0  0  0  0  0  0
   45.2050   36.1580   42.8580 C   0  0  0  0  0  0  0  0  0  0  0  0
   45.3620   34.2120   41.5480 C   0  0  0  0  0  0  0  0  0  0  0  0
   43.9670   34.6690   41.3430 N   0  0  0  0  0  0  0  0  0  0  0  0
   42.8710   35.0320   42.0260 C   0  0  0  0  0  0  0  0  0  0  0  0
   41.8770   35.3280   41.1720 N   0  0  0  0  0  0  0  0  0  0  0  0
   42.3360   35.1550   39.9210 C   0  0  0  0  0  0  0  0  0  0  0  0
   43.5990   34.7580   40.0700 N   0  0  0  0  0  0  0  0  0  0  0  0
   44.5302   35.4854   44.6777 H   0  0  0  0  0  0  0  0  0  0  0  0
   46.0185   32.6240   47.3642 H   0  0  0  0  0  0  0  0  0  0  0  0
   48.4547   31.8832   43.9274 H   0  0  0  0  0  0  0  0  0  0  0  0
   49.3597   34.1936   43.6741 H   0  0  0  0  0  0  0  0  0  0  0  0
   49.6707   33.2026   42.2085 H   0  0  0  0  0  0  0  0  0  0  0  0
   48.3449   34.4146   42.2085 H   0  0  0  0  0  0  0  0  0  0  0  0
   46.6070   31.2508   42.4246 H   0  0  0  0  0  0  0  0  0  0  0  0
   46.8301   32.7810   41.5106 H   0  0  0  0  0  0  0  0  0  0  0  0
   48.1266   31.5378   41.5106 H   0  0  0  0  0  0  0  0  0  0  0  0
   47.9812   35.7564   42.9737 H   0  0  0  0  0  0  0  0  0  0  0  0
   47.9065   34.7327   41.4995 H   0  0  0  0  0  0  0  0  0  0  0  0
   47.1538   36.3637   41.4995 H   0  0  0  0  0  0  0  0  0  0  0  0
   45.1034   36.3013   43.9439 H   0  0  0  0  0  0  0  0  0  0  0  0
   45.6755   37.0473   42.4132 H   0  0  0  0  0  0  0  0  0  0  0  0
   44.2101   36.0084   42.4132 H   0  0  0  0  0  0  0  0  0  0  0  0
   45.9025   34.3457   40.5993 H   0  0  0  0  0  0  0  0  0  0  0  0
   45.2851   33.1660   41.8795 H   0  0  0  0  0  0  0  0  0  0  0  0
   42.7971   35.0802   43.1225 H   0  0  0  0  0  0  0  0  0  0  0  0
   41.7884   35.3078   38.9793 H   0  0  0  0  0  0  0  0  0  0  0  0
  1  6  2  0
  2  3  2  0
  2  1  1  0
  3  4  1  0
  4  5  2  0
  6  5  1  0
  7  3  1  0
  8  7  1  0
  9  7  1  0
 10 12  1  0
 10  2  1  0
 11 10  1  0
 13 10  1  0
 14 13  1  0
 14 15  1  0
 16 15  2  0
 17 18  2  0
 17 16  1  0
 18 14  1  0
  1 19  1  0
  5 20  1  0
  7 21  1  0
  8 22  1  0
  8 23  1  0
  8 24  1  0
  9 25  1  0
  9 26  1  0
  9 27  1  0
 11 28  1  0
 11 29  1  0
 11 30  1  0
 12 31  1  0
 12 32  1  0
 12 33  1  0
 13 34  1  0
 13 35  1  0
 15 36  1  0
 17 37  1  0
M  ISO  8  19  14  20  14  21   8  22   8  23   8  24   8  25   8  26   8
M  ISO  8  27   8  28   8  29   8  30   8  31   8  32   8  33   8  34   8
M  ISO  3  35   8  36  14  37  14
M  END
>  <minimizedAffinity>  (1) 
-4.49433184

>  <minimizedRMSD>  (1) 
1.0498414

$$$$
