
     RDKit          3D

 45 46  0  0  0  0  0  0  0  0999 V2000
   45.9910   34.2310   42.3480 C   0  0  0  0  0  0  0  0  0  0  0  0
   45.2220   34.3970   44.7480 C   0  0  0  0  0  0  0  0  0  0  0  0
   46.1090   33.8270   43.7640 C   0  0  0  0  0  0  0  0  0  0  0  0
   47.0270   32.9400   44.2020 C   0  0  0  0  0  0  0  0  0  0  0  0
   47.0170   32.6750   45.5520 N   0  0  0  0  0  0  0  0  0  0  0  0
   46.1940   33.2070   46.4470 C   0  0  0  0  0  0  0  0  0  0  0  0
   45.2950   34.0720   46.0330 N   0  0  0  0  0  0  0  0  0  0  0  0
   47.9770   32.2590   43.4210 C   0  0  0  0  0  0  0  0  0  0  0  0
   48.8980   33.2280   42.7590 C   0  0  0  0  0  0  0  0  0  0  0  0
   47.3510   31.4570   42.3280 C   0  0  0  0  0  0  0  0  0  0  0  0
   47.0850   35.0240   41.8260 C   0  0  0  0  0  0  0  0  0  0  0  0
   44.8000   35.2900   42.4450 C   0  0  0  0  0  0  0  0  0  0  0  0
   45.4360   33.2180   41.5130 C   0  0  0  0  0  0  0  0  0  0  0  0
   45.1390   33.5310   40.1190 N   0  0  0  0  0  0  0  0  0  0  0  0
   45.9960   33.2180   39.0790 C   0  0  0  0  0  0  0  0  0  0  0  0
   45.2100   32.7860   37.7980 C   0  0  0  0  0  0  0  0  0  0  0  0
   44.2630   33.8080   37.4620 N   0  0  0  0  0  0  0  0  0  0  0  0
   43.3530   33.9290   38.5880 C   0  0  0  0  0  0  0  0  0  0  0  0
   43.7890   33.1340   39.7720 C   0  0  0  0  0  0  0  0  0  0  0  0
   44.4619   35.1231   44.4239 H   0  0  0  0  0  0  0  0  0  0  0  0
   46.2625   32.9308   47.5095 H   0  0  0  0  0  0  0  0  0  0  0  0
   48.5107   31.5920   44.1140 H   0  0  0  0  0  0  0  0  0  0  0  0
   49.4414   33.7997   43.5257 H   0  0  0  0  0  0  0  0  0  0  0  0
   49.6168   32.6806   42.1316 H   0  0  0  0  0  0  0  0  0  0  0  0
   48.3148   33.9181   42.1316 H   0  0  0  0  0  0  0  0  0  0  0  0
   46.7302   30.6617   42.7662 H   0  0  0  0  0  0  0  0  0  0  0  0
   46.7228   32.1119   41.7063 H   0  0  0  0  0  0  0  0  0  0  0  0
   48.1388   31.0066   41.7063 H   0  0  0  0  0  0  0  0  0  0  0  0
   47.6645   35.4441   42.6613 H   0  0  0  0  0  0  0  0  0  0  0  0
   47.7377   34.3879   41.2102 H   0  0  0  0  0  0  0  0  0  0  0  0
   46.6835   35.8423   41.2102 H   0  0  0  0  0  0  0  0  0  0  0  0
   44.5736   35.4913   43.5025 H   0  0  0  0  0  0  0  0  0  0  0  0
   45.0998   36.2253   41.9497 H   0  0  0  0  0  0  0  0  0  0  0  0
   43.9062   34.8829   41.9497 H   0  0  0  0  0  0  0  0  0  0  0  0
   46.1467   32.3784   41.5099 H   0  0  0  0  0  0  0  0  0  0  0  0
   44.4474   33.0256   41.9553 H   0  0  0  0  0  0  0  0  0  0  0  0
   46.6077   34.1010   38.8421 H   0  0  0  0  0  0  0  0  0  0  0  0
   46.6291   32.3760   39.3954 H   0  0  0  0  0  0  0  0  0  0  0  0
   45.9133   32.6468   36.9637 H   0  0  0  0  0  0  0  0  0  0  0  0
   44.6823   31.8398   37.9885 H   0  0  0  0  0  0  0  0  0  0  0  0
   44.7489   34.7020   37.3020 H   0  0  0  0  0  0  0  0  0  0  0  0
   43.2927   34.9881   38.8788 H   0  0  0  0  0  0  0  0  0  0  0  0
   42.3763   33.5373   38.2678 H   0  0  0  0  0  0  0  0  0  0  0  0
   43.1151   33.3296   40.6191 H   0  0  0  0  0  0  0  0  0  0  0  0
   43.7601   32.0598   39.5368 H   0  0  0  0  0  0  0  0  0  0  0  0
  1 12  1  0
  1  3  1  0
  2  7  2  0
  3  4  2  0
  3  2  1  0
  4  5  1  0
  5  6  2  0
  7  6  1  0
  8  4  1  0
  9  8  1  0
 10  8  1  0
 11  1  1  0
 13  1  1  0
 14 13  1  0
 15 14  1  0
 16 15  1  0
 17 16  1  0
 17 18  1  0
 18 19  1  0
 19 14  1  0
  2 20  1  0
  6 21  1  0
  8 22  1  0
  9 23  1  0
  9 24  1  0
  9 25  1  0
 10 26  1  0
 10 27  1  0
 10 28  1  0
 11 29  1  0
 11 30  1  0
 11 31  1  0
 12 32  1  0
 12 33  1  0
 12 34  1  0
 13 35  1  0
 13 36  1  0
 15 37  1  0
 15 38  1  0
 16 39  1  0
 16 40  1  0
 17 41  1  0
 18 42  1  0
 18 43  1  0
 19 44  1  0
 19 45  1  0
M  ISO  8  20  14  21  14  22   8  23   8  24   8  25   8  26   8  27   8
M  ISO  8  28   8  29   8  30   8  31   8  32   8  33   8  34   8  35   8
M  ISO  8  36   8  37  13  38  13  39  13  40  13  41   5  42  13  43  13
M  ISO  2  44  13  45  13
M  END
>  <minimizedAffinity>  (1) 
-4.38350105

>  <minimizedRMSD>  (1) 
0.983634472

$$$$
