
     RDKit          3D

 47 48  0  0  0  0  0  0  0  0999 V2000
   46.2090   34.3940   42.3840 C   0  0  0  0  0  0  0  0  0  0  0  0
   45.2890   34.4770   44.7600 C   0  0  0  0  0  0  0  0  0  0  0  0
   46.2030   33.9560   43.8000 C   0  0  0  0  0  0  0  0  0  0  0  0
   47.0720   32.9890   44.2400 C   0  0  0  0  0  0  0  0  0  0  0  0
   46.9690   32.6200   45.5640 N   0  0  0  0  0  0  0  0  0  0  0  0
   46.1000   33.1280   46.4340 C   0  0  0  0  0  0  0  0  0  0  0  0
   45.2660   34.0570   46.0160 N   0  0  0  0  0  0  0  0  0  0  0  0
   48.0750   32.3350   43.4880 C   0  0  0  0  0  0  0  0  0  0  0  0
   48.8990   33.3320   42.7410 C   0  0  0  0  0  0  0  0  0  0  0  0
   47.5110   31.4090   42.4720 C   0  0  0  0  0  0  0  0  0  0  0  0
   47.3830   35.1190   41.9720 C   0  0  0  0  0  0  0  0  0  0  0  0
   45.1060   35.5560   42.4610 C   0  0  0  0  0  0  0  0  0  0  0  0
   45.5690   33.4740   41.5060 C   0  0  0  0  0  0  0  0  0  0  0  0
   45.6470   33.5060   39.9920 C   0  0  0  0  0  0  0  0  0  0  0  0
   44.1570   33.2510   39.5150 C   0  0  0  0  0  0  0  0  0  0  0  0
   44.1580   32.8670   38.0800 C   0  0  0  0  0  0  0  0  0  0  0  0
   45.3590   33.3250   37.2930 C   0  0  0  0  0  0  0  0  0  0  0  0
   46.6780   32.9090   37.9000 C   0  0  0  0  0  0  0  0  0  0  0  0
   46.3240   32.3840   39.2940 C   0  0  0  0  0  0  0  0  0  0  0  0
   44.5773   35.2554   44.4475 H   0  0  0  0  0  0  0  0  0  0  0  0
   46.0789   32.7802   47.4774 H   0  0  0  0  0  0  0  0  0  0  0  0
   48.6749   31.7691   44.2160 H   0  0  0  0  0  0  0  0  0  0  0  0
   49.4317   33.9765   43.4557 H   0  0  0  0  0  0  0  0  0  0  0  0
   49.6284   32.8047   42.1086 H   0  0  0  0  0  0  0  0  0  0  0  0
   48.2438   33.9490   42.1086 H   0  0  0  0  0  0  0  0  0  0  0  0
   47.0029   30.5749   42.9780 H   0  0  0  0  0  0  0  0  0  0  0  0
   46.7892   31.9505   41.8429 H   0  0  0  0  0  0  0  0  0  0  0  0
   48.3233   31.0161   41.8429 H   0  0  0  0  0  0  0  0  0  0  0  0
   47.9344   35.4595   42.8608 H   0  0  0  0  0  0  0  0  0  0  0  0
   48.0276   34.4615   41.3702 H   0  0  0  0  0  0  0  0  0  0  0  0
   47.0838   35.9898   41.3702 H   0  0  0  0  0  0  0  0  0  0  0  0
   44.8881   35.7855   43.5145 H   0  0  0  0  0  0  0  0  0  0  0  0
   45.4881   36.4580   41.9607 H   0  0  0  0  0  0  0  0  0  0  0  0
   44.1853   35.2214   41.9607 H   0  0  0  0  0  0  0  0  0  0  0  0
   45.9474   32.4828   41.7964 H   0  0  0  0  0  0  0  0  0  0  0  0
   44.5183   33.7647   41.6525 H   0  0  0  0  0  0  0  0  0  0  0  0
   46.1808   34.4407   39.7653 H   0  0  0  0  0  0  0  0  0  0  0  0
   43.7142   32.4400   40.1118 H   0  0  0  0  0  0  0  0  0  0  0  0
   43.5656   34.1687   39.6497 H   0  0  0  0  0  0  0  0  0  0  0  0
   44.1114   31.7695   38.0216 H   0  0  0  0  0  0  0  0  0  0  0  0
   43.2889   33.3688   37.6296 H   0  0  0  0  0  0  0  0  0  0  0  0
   45.3359   34.4231   37.2319 H   0  0  0  0  0  0  0  0  0  0  0  0
   45.2959   32.8479   36.3039 H   0  0  0  0  0  0  0  0  0  0  0  0
   47.1490   32.1186   37.2972 H   0  0  0  0  0  0  0  0  0  0  0  0
   47.3949   33.7422   37.9418 H   0  0  0  0  0  0  0  0  0  0  0  0
   45.6493   31.5186   39.2169 H   0  0  0  0  0  0  0  0  0  0  0  0
   47.2193   32.0508   39.8393 H   0  0  0  0  0  0  0  0  0  0  0  0
  1 12  1  0
  1  3  1  0
  2  7  2  0
  3  4  2  0
  3  2  1  0
  4  5  1  0
  5  6  2  0
  7  6  1  0
  8  4  1  0
  9  8  1  0
 10  8  1  0
 11  1  1  0
 13  1  1  0
 14 13  1  0
 15 14  1  0
 16 15  1  0
 17 18  1  0
 17 16  1  0
 18 19  1  0
 19 14  1  0
  2 20  1  0
  6 21  1  0
  8 22  1  0
  9 23  1  0
  9 24  1  0
  9 25  1  0
 10 26  1  0
 10 27  1  0
 10 28  1  0
 11 29  1  0
 11 30  1  0
 11 31  1  0
 12 32  1  0
 12 33  1  0
 12 34  1  0
 13 35  1  0
 13 36  1  0
 14 37  1  0
 15 38  1  0
 15 39  1  0
 16 40  1  0
 16 41  1  0
 17 42  1  0
 17 43  1  0
 18 44  1  0
 18 45  1  0
 19 46  1  0
 19 47  1  0
M  ISO  8  20  14  21  14  22   8  23   8  24   8  25   8  26   8  27   8
M  ISO  8  28   8  29   8  30   8  31   8  32   8  33   8  34   8  35   8
M  ISO  8  36   8  37  13  38  13  39  13  40  13  41  13  42  13  43  13
M  ISO  4  44  13  45  13  46  13  47  13
M  END
>  <minimizedAffinity>  (1) 
-4.19441605

>  <minimizedRMSD>  (1) 
1.14416718

$$$$
