
     RDKit          3D

 34 36  0  0  0  0  0  0  0  0999 V2000
   44.6650   35.7390   44.2410 C   0  0  0  0  0  0  0  0  0  0  0  0
   45.4890   35.6480   43.0980 C   0  0  0  0  0  0  0  0  0  0  0  0
   46.4760   34.6390   43.1060 C   0  0  0  0  0  0  0  0  0  0  0  0
   46.5530   33.8450   44.1960 N   0  0  0  0  0  0  0  0  0  0  0  0
   45.7470   33.9620   45.2710 C   0  0  0  0  0  0  0  0  0  0  0  0
   44.7980   34.9230   45.2790 N   0  0  0  0  0  0  0  0  0  0  0  0
   45.8630   33.1030   46.4000 N   0  0  0  0  0  0  0  0  0  0  0  0
   45.1880   33.3280   47.5370 C   0  0  0  0  0  0  0  0  0  0  0  0
   45.3660   32.4340   48.5850 C   0  0  0  0  0  0  0  0  0  0  0  0
   46.2100   31.3270   48.5000 C   0  0  0  0  0  0  0  0  0  0  0  0
   46.3190   30.4800   49.6270 N   0  0  0  0  0  0  0  0  0  0  0  0
   46.8690   31.1480   47.3260 N   0  0  0  0  0  0  0  0  0  0  0  0
   46.6900   32.0250   46.3070 C   0  0  0  0  0  0  0  0  0  0  0  0
   47.3570   31.7480   45.2730 O   0  0  0  0  0  0  0  0  0  0  0  0
   47.4050   34.4330   41.9820 C   0  0  0  0  0  0  0  0  0  0  0  0
   46.7770   34.3370   40.6450 C   0  0  0  0  0  0  0  0  0  0  0  0
   48.0350   34.3110   39.7720 C   0  0  0  0  0  0  0  0  0  0  0  0
   48.8450   35.4360   40.3910 C   0  0  0  0  0  0  0  0  0  0  0  0
   48.3800   35.5850   41.8150 C   0  0  0  0  0  0  0  0  0  0  0  0
   43.8850   36.5140   44.2721 H   0  0  0  0  0  0  0  0  0  0  0  0
   45.3677   36.3299   42.2434 H   0  0  0  0  0  0  0  0  0  0  0  0
   44.5152   34.1926   47.6363 H   0  0  0  0  0  0  0  0  0  0  0  0
   44.8175   32.6066   49.5227 H   0  0  0  0  0  0  0  0  0  0  0  0
   46.9346   29.6549   49.5935 H   0  0  0  0  0  0  0  0  0  0  0  0
   45.7828   30.6881   50.4814 H   0  0  0  0  0  0  0  0  0  0  0  0
   47.8765   33.4811   42.2674 H   0  0  0  0  0  0  0  0  0  0  0  0
   46.1836   33.4172   40.5361 H   0  0  0  0  0  0  0  0  0  0  0  0
   46.0603   35.1369   40.4074 H   0  0  0  0  0  0  0  0  0  0  0  0
   47.7986   34.5170   38.7176 H   0  0  0  0  0  0  0  0  0  0  0  0
   48.5515   33.3400   39.7522 H   0  0  0  0  0  0  0  0  0  0  0  0
   49.9161   35.1866   40.3680 H   0  0  0  0  0  0  0  0  0  0  0  0
   48.7033   36.3733   39.8329 H   0  0  0  0  0  0  0  0  0  0  0  0
   49.2222   35.4943   42.5168 H   0  0  0  0  0  0  0  0  0  0  0  0
   47.9286   36.5666   42.0217 H   0  0  0  0  0  0  0  0  0  0  0  0
  1  6  2  0
  2  3  2  0
  2  1  1  0
  3  4  1  0
  4  5  2  0
  5  6  1  0
  5  7  1  0
  7  8  1  0
  8  9  2  0
 10  9  1  0
 10 11  1  0
 12 10  2  0
 13  7  1  0
 13 12  1  0
 14 13  2  0
 15  3  1  0
 16 15  1  0
 17 18  1  0
 17 16  1  0
 18 19  1  0
 19 15  1  0
  1 20  1  0
  2 21  1  0
  8 22  1  0
  9 23  1  0
 11 24  1  0
 11 25  1  0
 15 26  1  0
 16 27  1  0
 16 28  1  0
 17 29  1  0
 17 30  1  0
 18 31  1  0
 18 32  1  0
 19 33  1  0
 19 34  1  0
M  ISO  8  20  14  21  14  22  14  23  14  26  13  27  13  28  13  29  13
M  ISO  5  30  13  31  13  32  13  33  13  34  13
M  END
>  <minimizedAffinity>  (1) 
-6.77077675

>  <minimizedRMSD>  (1) 
0.448939413

$$$$
