
     RDKit          3D

 36 38  0  0  0  0  0  0  0  0999 V2000
   44.5880   35.8610   44.1500 C   0  0  0  0  0  0  0  0  0  0  0  0
   45.4510   35.7090   43.0460 C   0  0  0  0  0  0  0  0  0  0  0  0
   46.4310   34.6980   43.1090 C   0  0  0  0  0  0  0  0  0  0  0  0
   46.4740   33.9400   44.2330 N   0  0  0  0  0  0  0  0  0  0  0  0
   45.6370   34.1040   45.2770 C   0  0  0  0  0  0  0  0  0  0  0  0
   44.6840   35.0800   45.2260 N   0  0  0  0  0  0  0  0  0  0  0  0
   45.8440   33.2090   46.3610 N   0  0  0  0  0  0  0  0  0  0  0  0
   46.7910   32.2510   46.1700 C   0  0  0  0  0  0  0  0  0  0  0  0
   47.0430   31.3410   47.1960 C   0  0  0  0  0  0  0  0  0  0  0  0
   48.0650   30.2910   47.0180 C   0  0  0  0  0  0  0  0  0  0  0  0
   46.3180   31.4590   48.3500 C   0  0  0  0  0  0  0  0  0  0  0  0
   46.5460   30.6360   49.2760 O   0  0  0  0  0  0  0  0  0  0  0  0
   45.3840   32.4080   48.5310 N   0  0  0  0  0  0  0  0  0  0  0  0
   45.1660   33.2690   47.5220 C   0  0  0  0  0  0  0  0  0  0  0  0
   44.3130   34.2160   47.5530 O   0  0  0  0  0  0  0  0  0  0  0  0
   47.3870   34.4460   42.0220 C   0  0  0  0  0  0  0  0  0  0  0  0
   46.7860   34.2970   40.6770 C   0  0  0  0  0  0  0  0  0  0  0  0
   48.0540   34.2690   39.8190 C   0  0  0  0  0  0  0  0  0  0  0  0
   48.8760   35.3750   40.4410 C   0  0  0  0  0  0  0  0  0  0  0  0
   48.3740   35.5860   41.8520 C   0  0  0  0  0  0  0  0  0  0  0  0
   43.8158   36.6439   44.1230 H   0  0  0  0  0  0  0  0  0  0  0  0
   45.3624   36.3590   42.1630 H   0  0  0  0  0  0  0  0  0  0  0  0
   47.3479   32.1953   45.2230 H   0  0  0  0  0  0  0  0  0  0  0  0
   48.4061   29.9405   48.0033 H   0  0  0  0  0  0  0  0  0  0  0  0
   47.6317   29.4485   46.4590 H   0  0  0  0  0  0  0  0  0  0  0  0
   48.9189   30.7014   46.4590 H   0  0  0  0  0  0  0  0  0  0  0  0
   44.8539   32.4734   49.4117 H   0  0  0  0  0  0  0  0  0  0  0  0
   47.8528   33.5029   42.3439 H   0  0  0  0  0  0  0  0  0  0  0  0
   46.2123   33.3627   40.5877 H   0  0  0  0  0  0  0  0  0  0  0  0
   46.0606   35.0780   40.4052 H   0  0  0  0  0  0  0  0  0  0  0  0
   47.8280   34.4834   38.7640 H   0  0  0  0  0  0  0  0  0  0  0  0
   48.5603   33.2925   39.8059 H   0  0  0  0  0  0  0  0  0  0  0  0
   49.9374   35.0868   40.4605 H   0  0  0  0  0  0  0  0  0  0  0  0
   48.7791   36.3015   39.8560 H   0  0  0  0  0  0  0  0  0  0  0  0
   49.1945   35.5137   42.5811 H   0  0  0  0  0  0  0  0  0  0  0  0
   47.9302   36.5790   42.0162 H   0  0  0  0  0  0  0  0  0  0  0  0
  1  6  2  0
  2  3  2  0
  2  1  1  0
  3  4  1  0
  4  5  2  0
  5  7  1  0
  6  5  1  0
  7 14  1  0
  8  7  1  0
  8  9  2  0
  9 11  1  0
 10  9  1  0
 11 13  1  0
 11 12  2  0
 14 15  2  0
 14 13  1  0
 16  3  1  0
 17 16  1  0
 18 19  1  0
 18 17  1  0
 19 20  1  0
 20 16  1  0
  1 21  1  0
  2 22  1  0
  8 23  1  0
 10 24  1  0
 10 25  1  0
 10 26  1  0
 13 27  1  0
 16 28  1  0
 17 29  1  0
 17 30  1  0
 18 31  1  0
 18 32  1  0
 19 33  1  0
 19 34  1  0
 20 35  1  0
 20 36  1  0
M  ISO  8  21  14  22  14  23  14  24   8  25   8  26   8  27   9  28  13
M  ISO  8  29  13  30  13  31  13  32  13  33  13  34  13  35  13  36  13
M  END
>  <minimizedAffinity>  (1) 
-6.82256031

>  <minimizedRMSD>  (1) 
0.364889503

$$$$
