
     RDKit          3D

 32 32  0  0  0  0  0  0  0  0999 V2000
   45.2880   34.5040   45.0300 C   0  0  0  0  0  0  0  0  0  0  0  0
   46.1570   34.0840   43.9680 C   0  0  0  0  0  0  0  0  0  0  0  0
   47.0160   33.0760   44.2280 C   0  0  0  0  0  0  0  0  0  0  0  0
   46.9670   32.5540   45.4990 N   0  0  0  0  0  0  0  0  0  0  0  0
   46.1590   32.9480   46.4770 C   0  0  0  0  0  0  0  0  0  0  0  0
   45.3190   33.9270   46.2370 N   0  0  0  0  0  0  0  0  0  0  0  0
   47.9480   32.4960   43.3370 C   0  0  0  0  0  0  0  0  0  0  0  0
   48.8700   33.5460   42.8040 C   0  0  0  0  0  0  0  0  0  0  0  0
   47.2690   31.8710   42.1540 C   0  0  0  0  0  0  0  0  0  0  0  0
   46.0850   34.7500   42.6660 C   0  0  0  0  0  0  0  0  0  0  0  0
   47.2850   35.4030   42.2000 C   0  0  0  0  0  0  0  0  0  0  0  0
   45.0900   35.9500   42.9920 C   0  0  0  0  0  0  0  0  0  0  0  0
   45.3540   34.0210   41.6620 C   0  0  0  0  0  0  0  0  0  0  0  0
   43.9480   33.9420   41.9210 O   0  0  0  0  0  0  0  0  0  0  0  0
   44.5767   35.3229   44.8468 H   0  0  0  0  0  0  0  0  0  0  0  0
   46.1933   32.4650   47.4647 H   0  0  0  0  0  0  0  0  0  0  0  0
   48.4944   31.7284   43.9048 H   0  0  0  0  0  0  0  0  0  0  0  0
   49.3399   34.0812   43.6423 H   0  0  0  0  0  0  0  0  0  0  0  0
   49.6490   33.0720   42.1888 H   0  0  0  0  0  0  0  0  0  0  0  0
   48.2992   34.2572   42.1888 H   0  0  0  0  0  0  0  0  0  0  0  0
   46.5014   31.1645   42.5028 H   0  0  0  0  0  0  0  0  0  0  0  0
   46.7956   32.6560   41.5459 H   0  0  0  0  0  0  0  0  0  0  0  0
   48.0121   31.3343   41.5459 H   0  0  0  0  0  0  0  0  0  0  0  0
   47.8839   35.7289   43.0632 H   0  0  0  0  0  0  0  0  0  0  0  0
   47.8721   34.7000   41.5908 H   0  0  0  0  0  0  0  0  0  0  0  0
   47.0135   36.2778   41.5908 H   0  0  0  0  0  0  0  0  0  0  0  0
   44.9964   36.0629   44.0822 H   0  0  0  0  0  0  0  0  0  0  0  0
   45.4846   36.8813   42.5595 H   0  0  0  0  0  0  0  0  0  0  0  0
   44.1018   35.7347   42.5595 H   0  0  0  0  0  0  0  0  0  0  0  0
   45.7565   32.9985   41.6126 H   0  0  0  0  0  0  0  0  0  0  0  0
   45.4774   34.5654   40.7142 H   0  0  0  0  0  0  0  0  0  0  0  0
   43.7925   33.9333   42.8987 H   0  0  0  0  0  0  0  0  0  0  0  0
  1  6  2  0
  2  3  2  0
  2  1  1  0
  3  4  1  0
  4  5  2  0
  6  5  1  0
  7  3  1  0
  8  7  1  0
  9  7  1  0
 10 12  1  0
 10  2  1  0
 11 10  1  0
 13 14  1  0
 13 10  1  0
  1 15  1  0
  5 16  1  0
  7 17  1  0
  8 18  1  0
  8 19  1  0
  8 20  1  0
  9 21  1  0
  9 22  1  0
  9 23  1  0
 11 24  1  0
 11 25  1  0
 11 26  1  0
 12 27  1  0
 12 28  1  0
 12 29  1  0
 13 30  1  0
 13 31  1  0
 14 32  1  0
M  ISO  8  15  14  16  14  17   8  18   8  19   8  20   8  21   8  22   8
M  ISO  8  23   8  24   8  25   8  26   8  27   8  28   8  29   8  30   8
M  ISO  2  31   8  32   3
M  END
>  <minimizedAffinity>  (1) 
-3.7819891

>  <minimizedRMSD>  (1) 
0.0851897076

$$$$
