
     RDKit          3D

 37 40  0  0  0  0  0  0  0  0999 V2000
   44.6000   35.9900   44.3830 C   0  0  0  0  0  0  0  0  0  0  0  0
   45.4010   35.7800   43.2460 C   0  0  0  0  0  0  0  0  0  0  0  0
   46.2830   34.6800   43.2430 C   0  0  0  0  0  0  0  0  0  0  0  0
   46.3060   33.8920   44.3370 N   0  0  0  0  0  0  0  0  0  0  0  0
   45.5220   34.1220   45.4160 C   0  0  0  0  0  0  0  0  0  0  0  0
   44.6730   35.1660   45.4390 N   0  0  0  0  0  0  0  0  0  0  0  0
   47.1610   34.3750   42.1070 C   0  0  0  0  0  0  0  0  0  0  0  0
   46.4950   34.3050   40.7850 C   0  0  0  0  0  0  0  0  0  0  0  0
   47.7030   34.1620   39.8670 C   0  0  0  0  0  0  0  0  0  0  0  0
   48.6480   35.1900   40.4590 C   0  0  0  0  0  0  0  0  0  0  0  0
   48.2140   35.4470   41.8790 C   0  0  0  0  0  0  0  0  0  0  0  0
   45.6320   33.2020   46.5430 C   0  0  0  0  0  0  0  0  0  0  0  0
   44.9960   33.3750   47.7490 C   0  0  0  0  0  0  0  0  0  0  0  0
   45.3070   32.3520   48.5690 N   0  0  0  0  0  0  0  0  0  0  0  0
   46.1300   31.5510   47.8750 C   0  0  0  0  0  0  0  0  0  0  0  0
   46.7470   30.3670   48.2320 C   0  0  0  0  0  0  0  0  0  0  0  0
   47.5660   29.7030   47.3410 C   0  0  0  0  0  0  0  0  0  0  0  0
   47.8050   30.1940   46.0530 C   0  0  0  0  0  0  0  0  0  0  0  0
   47.1770   31.3780   45.7240 C   0  0  0  0  0  0  0  0  0  0  0  0
   46.3650   32.0350   46.6060 C   0  0  0  0  0  0  0  0  0  0  0  0
   43.9042   36.8416   44.4066 H   0  0  0  0  0  0  0  0  0  0  0  0
   45.3408   36.4569   42.3810 H   0  0  0  0  0  0  0  0  0  0  0  0
   47.5619   33.3965   42.4100 H   0  0  0  0  0  0  0  0  0  0  0  0
   45.8264   33.4344   40.7136 H   0  0  0  0  0  0  0  0  0  0  0  0
   45.8458   35.1627   40.5549 H   0  0  0  0  0  0  0  0  0  0  0  0
   47.4475   34.4028   38.8245 H   0  0  0  0  0  0  0  0  0  0  0  0
   48.1161   33.1436   39.8207 H   0  0  0  0  0  0  0  0  0  0  0  0
   49.6778   34.8035   40.4461 H   0  0  0  0  0  0  0  0  0  0  0  0
   48.6208   36.1207   39.8733 H   0  0  0  0  0  0  0  0  0  0  0  0
   49.0555   35.3311   42.5779 H   0  0  0  0  0  0  0  0  0  0  0  0
   47.8391   36.4682   42.0423 H   0  0  0  0  0  0  0  0  0  0  0  0
   44.3361   34.2171   48.0049 H   0  0  0  0  0  0  0  0  0  0  0  0
   44.9787   32.2127   49.5353 H   0  0  0  0  0  0  0  0  0  0  0  0
   46.5838   29.9494   49.2365 H   0  0  0  0  0  0  0  0  0  0  0  0
   48.0437   28.7623   47.6522 H   0  0  0  0  0  0  0  0  0  0  0  0
   48.4572   29.6657   45.3420 H   0  0  0  0  0  0  0  0  0  0  0  0
   47.3344   31.8056   44.7228 H   0  0  0  0  0  0  0  0  0  0  0  0
  1  6  2  0
  2  1  1  0
  3  2  2  0
  3  4  1  0
  4  5  2  0
  5  6  1  0
  5 12  1  0
  7  3  1  0
  8  7  1  0
  9 10  1  0
  9  8  1  0
 10 11  1  0
 11  7  1  0
 12 20  1  0
 12 13  2  0
 13 14  1  0
 15 16  2  0
 15 14  1  0
 17 16  1  0
 18 17  2  0
 19 18  1  0
 19 20  2  0
 20 15  1  0
  1 21  1  0
  2 22  1  0
  7 23  1  0
  8 24  1  0
  8 25  1  0
  9 26  1  0
  9 27  1  0
 10 28  1  0
 10 29  1  0
 11 30  1  0
 11 31  1  0
 13 32  1  0
 14 33  1  0
 16 34  1  0
 17 35  1  0
 18 36  1  0
 19 37  1  0
M  ISO  8  21  14  22  14  23  13  24  13  25  13  26  13  27  13  28  13
M  ISO  8  29  13  30  13  31  13  32  14  33   9  34  14  35  14  36  14
M  ISO  1  37  14
M  END
>  <minimizedAffinity>  (1) 
-6.56859446

>  <minimizedRMSD>  (1) 
0.427507192

$$$$
