
     RDKit          3D

 36 39  0  0  0  0  0  0  0  0999 V2000
   44.6840   36.1930   43.9480 C   0  0  0  0  0  0  0  0  0  0  0  0
   45.5150   35.9180   42.8460 C   0  0  0  0  0  0  0  0  0  0  0  0
   46.3650   34.7960   42.9060 C   0  0  0  0  0  0  0  0  0  0  0  0
   46.3370   34.0350   44.0310 N   0  0  0  0  0  0  0  0  0  0  0  0
   45.5220   34.3280   45.0810 C   0  0  0  0  0  0  0  0  0  0  0  0
   44.6950   35.4120   45.0330 N   0  0  0  0  0  0  0  0  0  0  0  0
   45.5250   33.5010   46.2420 N   0  0  0  0  0  0  0  0  0  0  0  0
   44.8250   33.7420   47.3620 C   0  0  0  0  0  0  0  0  0  0  0  0
   45.0680   32.7570   48.2480 N   0  0  0  0  0  0  0  0  0  0  0  0
   45.9310   31.9060   47.6540 C   0  0  0  0  0  0  0  0  0  0  0  0
   46.5110   30.7420   48.0910 C   0  0  0  0  0  0  0  0  0  0  0  0
   47.3520   30.0780   47.2740 N   0  0  0  0  0  0  0  0  0  0  0  0
   47.6430   30.5290   46.0300 C   0  0  0  0  0  0  0  0  0  0  0  0
   47.0790   31.6780   45.5800 N   0  0  0  0  0  0  0  0  0  0  0  0
   46.2310   32.3630   46.3810 C   0  0  0  0  0  0  0  0  0  0  0  0
   47.2620   34.4360   41.8080 C   0  0  0  0  0  0  0  0  0  0  0  0
   46.6180   34.2180   40.4920 C   0  0  0  0  0  0  0  0  0  0  0  0
   47.8430   34.0690   39.5990 C   0  0  0  0  0  0  0  0  0  0  0  0
   48.7460   35.1600   40.1210 C   0  0  0  0  0  0  0  0  0  0  0  0
   48.2930   35.5150   41.5180 C   0  0  0  0  0  0  0  0  0  0  0  0
   46.2320   30.2380   49.3860 N   0  0  0  0  0  0  0  0  0  0  0  0
   44.0143   37.0650   43.9161 H   0  0  0  0  0  0  0  0  0  0  0  0
   45.5012   36.5653   41.9567 H   0  0  0  0  0  0  0  0  0  0  0  0
   44.1614   34.6033   47.5288 H   0  0  0  0  0  0  0  0  0  0  0  0
   48.3346   29.9652   45.3867 H   0  0  0  0  0  0  0  0  0  0  0  0
   47.6911   33.4977   42.1893 H   0  0  0  0  0  0  0  0  0  0  0  0
   46.0009   33.3074   40.4887 H   0  0  0  0  0  0  0  0  0  0  0  0
   45.9241   35.0147   40.1858 H   0  0  0  0  0  0  0  0  0  0  0  0
   47.5889   34.2324   38.5413 H   0  0  0  0  0  0  0  0  0  0  0  0
   48.2949   33.0666   39.6295 H   0  0  0  0  0  0  0  0  0  0  0  0
   49.7862   34.8032   40.1456 H   0  0  0  0  0  0  0  0  0  0  0  0
   48.6942   36.0432   39.4673 H   0  0  0  0  0  0  0  0  0  0  0  0
   49.1289   35.4694   42.2315 H   0  0  0  0  0  0  0  0  0  0  0  0
   47.8973   36.5376   41.6063 H   0  0  0  0  0  0  0  0  0  0  0  0
   46.6728   29.3632   49.7042 H   0  0  0  0  0  0  0  0  0  0  0  0
   45.5884   30.7466   50.0089 H   0  0  0  0  0  0  0  0  0  0  0  0
  1  6  2  0
  2  3  2  0
  2  1  1  0
  3  4  1  0
  4  5  2  0
  5  7  1  0
  6  5  1  0
  7 15  1  0
  7  8  1  0
  8  9  2  0
 10 11  2  0
 10  9  1  0
 11 21  1  0
 12 11  1  0
 13 12  2  0
 14 13  1  0
 14 15  2  0
 15 10  1  0
 16  3  1  0
 17 16  1  0
 18 19  1  0
 18 17  1  0
 19 20  1  0
 20 16  1  0
  1 22  1  0
  2 23  1  0
  8 24  1  0
 13 25  1  0
 16 26  1  0
 17 27  1  0
 17 28  1  0
 18 29  1  0
 18 30  1  0
 19 31  1  0
 19 32  1  0
 20 33  1  0
 20 34  1  0
 21 35  1  0
 21 36  1  0
M  ISO  8  22  14  23  14  24  14  25  14  26  13  27  13  28  13  29  13
M  ISO  5  30  13  31  13  32  13  33  13  34  13
M  END
>  <minimizedAffinity>  (1) 
-6.52808714

>  <minimizedRMSD>  (1) 
0.455760062

$$$$
