
     RDKit          3D

 35 37  0  0  0  0  0  0  0  0999 V2000
   44.6560   35.6380   44.6430 C   0  0  0  0  0  0  0  0  0  0  0  0
   45.3920   35.5170   43.4520 C   0  0  0  0  0  0  0  0  0  0  0  0
   46.3490   34.4830   43.3670 C   0  0  0  0  0  0  0  0  0  0  0  0
   46.4970   33.6740   44.4410 N   0  0  0  0  0  0  0  0  0  0  0  0
   45.7720   33.8220   45.5670 C   0  0  0  0  0  0  0  0  0  0  0  0
   44.8530   34.8010   45.6720 N   0  0  0  0  0  0  0  0  0  0  0  0
   45.9800   32.9350   46.6590 N   0  0  0  0  0  0  0  0  0  0  0  0
   45.1030   32.7560   47.8000 C   0  0  0  0  0  0  0  0  0  0  0  0
   45.9600   32.1310   48.8840 C   0  0  0  0  0  0  0  0  0  0  0  0
   47.3720   32.1960   48.3290 C   0  0  0  0  0  0  0  0  0  0  0  0
   47.1090   32.0410   46.8380 C   0  0  0  0  0  0  0  0  0  0  0  0
   47.1700   34.2700   42.1770 C   0  0  0  0  0  0  0  0  0  0  0  0
   46.4530   34.2880   40.8800 C   0  0  0  0  0  0  0  0  0  0  0  0
   47.6170   34.2250   39.9060 C   0  0  0  0  0  0  0  0  0  0  0  0
   48.5710   35.2370   40.5220 C   0  0  0  0  0  0  0  0  0  0  0  0
   48.2200   35.3500   41.9790 C   0  0  0  0  0  0  0  0  0  0  0  0
   43.9033   36.4351   44.7330 H   0  0  0  0  0  0  0  0  0  0  0  0
   45.2273   36.2072   42.6115 H   0  0  0  0  0  0  0  0  0  0  0  0
   44.7078   33.7261   48.1356 H   0  0  0  0  0  0  0  0  0  0  0  0
   44.2383   32.1231   47.5514 H   0  0  0  0  0  0  0  0  0  0  0  0
   45.8825   32.7030   49.8204 H   0  0  0  0  0  0  0  0  0  0  0  0
   45.6498   31.1036   49.1253 H   0  0  0  0  0  0  0  0  0  0  0  0
   47.8508   33.1600   48.5561 H   0  0  0  0  0  0  0  0  0  0  0  0
   48.0575   31.4445   48.7478 H   0  0  0  0  0  0  0  0  0  0  0  0
   46.8476   31.0041   46.5800 H   0  0  0  0  0  0  0  0  0  0  0  0
   47.9745   32.2717   46.1995 H   0  0  0  0  0  0  0  0  0  0  0  0
   47.5772   33.2720   42.3965 H   0  0  0  0  0  0  0  0  0  0  0  0
   45.7890   33.4176   40.7731 H   0  0  0  0  0  0  0  0  0  0  0  0
   45.7901   35.1545   40.7397 H   0  0  0  0  0  0  0  0  0  0  0  0
   47.3114   34.5238   38.8924 H   0  0  0  0  0  0  0  0  0  0  0  0
   48.0453   33.2199   39.7779 H   0  0  0  0  0  0  0  0  0  0  0  0
   49.6096   34.8922   40.4103 H   0  0  0  0  0  0  0  0  0  0  0  0
   48.4809   36.2127   40.0221 H   0  0  0  0  0  0  0  0  0  0  0  0
   49.1006   35.1625   42.6110 H   0  0  0  0  0  0  0  0  0  0  0  0
   47.8607   36.3521   42.2561 H   0  0  0  0  0  0  0  0  0  0  0  0
  1  6  2  0
  2  1  1  0
  3  2  2  0
  3  4  1  0
  4  5  2  0
  5  6  1  0
  5  7  1  0
  7 11  1  0
  7  8  1  0
  8  9  1  0
 10  9  1  0
 11 10  1  0
 12  3  1  0
 13 12  1  0
 14 15  1  0
 14 13  1  0
 15 16  1  0
 16 12  1  0
  1 17  1  0
  2 18  1  0
  8 19  1  0
  8 20  1  0
  9 21  1  0
  9 22  1  0
 10 23  1  0
 10 24  1  0
 11 25  1  0
 11 26  1  0
 12 27  1  0
 13 28  1  0
 13 29  1  0
 14 30  1  0
 14 31  1  0
 15 32  1  0
 15 33  1  0
 16 34  1  0
 16 35  1  0
M  ISO  8  17  14  18  14  19  13  20  13  21  13  22  13  23  13  24  13
M  ISO  8  25  13  26  13  27  13  28  13  29  13  30  13  31  13  32  13
M  ISO  3  33  13  34  13  35  13
M  END
>  <minimizedAffinity>  (1) 
-6.28623009

>  <minimizedRMSD>  (1) 
0.409369349

$$$$
