
     RDKit          3D

 37 39  0  0  0  0  0  0  0  0999 V2000
   44.6340   35.4490   45.1290 C   0  0  0  0  0  0  0  0  0  0  0  0
   45.2980   35.3580   43.8870 C   0  0  0  0  0  0  0  0  0  0  0  0
   46.1970   34.2890   43.6990 C   0  0  0  0  0  0  0  0  0  0  0  0
   46.3660   33.4150   44.7300 N   0  0  0  0  0  0  0  0  0  0  0  0
   45.7130   33.5380   45.9030 C   0  0  0  0  0  0  0  0  0  0  0  0
   44.8490   34.5490   46.1070 N   0  0  0  0  0  0  0  0  0  0  0  0
   45.9730   32.5620   46.9040 N   0  0  0  0  0  0  0  0  0  0  0  0
   47.2840   31.9410   46.9370 C   0  0  0  0  0  0  0  0  0  0  0  0
   47.8050   32.1870   48.3470 C   0  0  0  0  0  0  0  0  0  0  0  0
   46.9480   31.4260   49.2370 N   0  0  0  0  0  0  0  0  0  0  0  0
   45.6240   31.9900   49.2650 C   0  0  0  0  0  0  0  0  0  0  0  0
   45.0200   32.1480   47.8900 C   0  0  0  0  0  0  0  0  0  0  0  0
   46.9370   34.0990   42.4580 C   0  0  0  0  0  0  0  0  0  0  0  0
   46.1990   34.3590   41.2000 C   0  0  0  0  0  0  0  0  0  0  0  0
   47.3140   34.2300   40.1800 C   0  0  0  0  0  0  0  0  0  0  0  0
   48.4190   35.0280   40.8550 C   0  0  0  0  0  0  0  0  0  0  0  0
   48.1240   35.0380   42.3300 C   0  0  0  0  0  0  0  0  0  0  0  0
   43.9257   36.2727   45.3017 H   0  0  0  0  0  0  0  0  0  0  0  0
   45.1198   36.0970   43.0920 H   0  0  0  0  0  0  0  0  0  0  0  0
   47.2053   30.8622   46.7373 H   0  0  0  0  0  0  0  0  0  0  0  0
   47.9558   32.3563   46.1714 H   0  0  0  0  0  0  0  0  0  0  0  0
   48.8460   31.8423   48.4338 H   0  0  0  0  0  0  0  0  0  0  0  0
   47.7903   33.2581   48.5972 H   0  0  0  0  0  0  0  0  0  0  0  0
   46.8948   30.4521   48.9059 H   0  0  0  0  0  0  0  0  0  0  0  0
   44.9746   31.3303   49.8593 H   0  0  0  0  0  0  0  0  0  0  0  0
   45.7038   32.9944   49.7064 H   0  0  0  0  0  0  0  0  0  0  0  0
   44.2205   32.9017   47.9429 H   0  0  0  0  0  0  0  0  0  0  0  0
   44.6367   31.1634   47.5840 H   0  0  0  0  0  0  0  0  0  0  0  0
   47.1957   33.0340   42.5523 H   0  0  0  0  0  0  0  0  0  0  0  0
   45.4096   33.6115   41.0326 H   0  0  0  0  0  0  0  0  0  0  0  0
   45.6701   35.3232   41.1749 H   0  0  0  0  0  0  0  0  0  0  0  0
   47.0300   34.6712   39.2132 H   0  0  0  0  0  0  0  0  0  0  0  0
   47.5878   33.1928   39.9364 H   0  0  0  0  0  0  0  0  0  0  0  0
   49.3938   34.5536   40.6690 H   0  0  0  0  0  0  0  0  0  0  0  0
   48.4583   36.0531   40.4580 H   0  0  0  0  0  0  0  0  0  0  0  0
   48.9841   34.6659   42.9060 H   0  0  0  0  0  0  0  0  0  0  0  0
   47.9183   36.0458   42.7200 H   0  0  0  0  0  0  0  0  0  0  0  0
  1  6  2  0
  2  1  1  0
  3  2  2  0
  3  4  1  0
  4  5  2  0
  5  6  1  0
  5  7  1  0
  7  8  1  0
  7 12  1  0
  8  9  1  0
  9 10  1  0
 10 11  1  0
 12 11  1  0
 13  3  1  0
 14 13  1  0
 15 16  1  0
 15 14  1  0
 16 17  1  0
 17 13  1  0
  1 18  1  0
  2 19  1  0
  8 20  1  0
  8 21  1  0
  9 22  1  0
  9 23  1  0
 10 24  1  0
 11 25  1  0
 11 26  1  0
 12 27  1  0
 12 28  1  0
 13 29  1  0
 14 30  1  0
 14 31  1  0
 15 32  1  0
 15 33  1  0
 16 34  1  0
 16 35  1  0
 17 36  1  0
 17 37  1  0
M  ISO  8  18  14  19  14  20  13  21  13  22  13  23  13  24   5  25  13
M  ISO  8  26  13  27  13  28  13  29  13  30  13  31  13  32  13  33  13
M  ISO  4  34  13  35  13  36  13  37  13
M  END
>  <minimizedAffinity>  (1) 
-6.31757402

>  <minimizedRMSD>  (1) 
0.735493064

$$$$
