
     RDKit          3D

 33 35  0  0  0  0  0  0  0  0999 V2000
   44.5660   35.5160   44.9580 C   0  0  0  0  0  0  0  0  0  0  0  0
   45.2490   35.4120   43.7230 C   0  0  0  0  0  0  0  0  0  0  0  0
   46.2120   34.3880   43.6090 C   0  0  0  0  0  0  0  0  0  0  0  0
   46.4090   33.5870   44.6830 N   0  0  0  0  0  0  0  0  0  0  0  0
   45.7390   33.7160   45.8480 C   0  0  0  0  0  0  0  0  0  0  0  0
   44.8170   34.6880   45.9750 N   0  0  0  0  0  0  0  0  0  0  0  0
   46.9950   34.1670   42.3890 C   0  0  0  0  0  0  0  0  0  0  0  0
   46.2540   34.3260   41.1170 C   0  0  0  0  0  0  0  0  0  0  0  0
   47.3960   34.2250   40.1110 C   0  0  0  0  0  0  0  0  0  0  0  0
   48.4540   35.0920   40.7710 C   0  0  0  0  0  0  0  0  0  0  0  0
   48.1140   35.1830   42.2300 C   0  0  0  0  0  0  0  0  0  0  0  0
   46.0140   32.8120   46.9550 C   0  0  0  0  0  0  0  0  0  0  0  0
   45.0570   32.6130   47.9280 C   0  0  0  0  0  0  0  0  0  0  0  0
   45.3610   31.7400   48.9700 C   0  0  0  0  0  0  0  0  0  0  0  0
   46.5830   31.1000   49.0180 C   0  0  0  0  0  0  0  0  0  0  0  0
   47.5540   31.2930   48.0440 C   0  0  0  0  0  0  0  0  0  0  0  0
   47.2290   32.1630   47.0230 C   0  0  0  0  0  0  0  0  0  0  0  0
   43.8064   36.3016   45.0838 H   0  0  0  0  0  0  0  0  0  0  0  0
   45.0384   36.0986   42.8898 H   0  0  0  0  0  0  0  0  0  0  0  0
   47.3289   33.1293   42.5365 H   0  0  0  0  0  0  0  0  0  0  0  0
   45.5160   33.5229   40.9746 H   0  0  0  0  0  0  0  0  0  0  0  0
   45.6624   35.2506   41.0453 H   0  0  0  0  0  0  0  0  0  0  0  0
   47.1035   34.6247   39.1288 H   0  0  0  0  0  0  0  0  0  0  0  0
   47.7232   33.1954   39.9039 H   0  0  0  0  0  0  0  0  0  0  0  0
   49.4468   34.6356   40.6441 H   0  0  0  0  0  0  0  0  0  0  0  0
   48.4763   36.0925   40.3144 H   0  0  0  0  0  0  0  0  0  0  0  0
   48.9799   34.9173   42.8542 H   0  0  0  0  0  0  0  0  0  0  0  0
   47.8243   36.1969   42.5433 H   0  0  0  0  0  0  0  0  0  0  0  0
   44.0855   33.1269   47.8827 H   0  0  0  0  0  0  0  0  0  0  0  0
   44.6199   31.5589   49.7624 H   0  0  0  0  0  0  0  0  0  0  0  0
   46.7942   30.4161   49.8533 H   0  0  0  0  0  0  0  0  0  0  0  0
   48.5270   30.7815   48.0840 H   0  0  0  0  0  0  0  0  0  0  0  0
   47.9697   32.3463   46.2307 H   0  0  0  0  0  0  0  0  0  0  0  0
  1  6  2  0
  2  1  1  0
  3  2  2  0
  3  4  1  0
  4  5  2  0
  5  6  1  0
  5 12  1  0
  7  3  1  0
  8  7  1  0
  9 10  1  0
  9  8  1  0
 10 11  1  0
 11  7  1  0
 12 17  1  0
 12 13  2  0
 13 14  1  0
 14 15  2  0
 16 15  1  0
 17 16  2  0
  1 18  1  0
  2 19  1  0
  7 20  1  0
  8 21  1  0
  8 22  1  0
  9 23  1  0
  9 24  1  0
 10 25  1  0
 10 26  1  0
 11 27  1  0
 11 28  1  0
 13 29  1  0
 14 30  1  0
 15 31  1  0
 16 32  1  0
 17 33  1  0
M  ISO  8  18  14  19  14  20  13  21  13  22  13  23  13  24  13  25  13
M  ISO  8  26  13  27  13  28  13  29  14  30  14  31  14  32  14  33  14
M  END
>  <minimizedAffinity>  (1) 
-6.30480242

>  <minimizedRMSD>  (1) 
0.786360323

$$$$
