
     RDKit          3D

 46 49  0  0  1  0  0  0  0  0999 V2000
   45.6250   34.1810   42.2270 C   0  0  0  0  0  0  0  0  0  0  0  0
   47.0160   34.2760   42.3180 C   0  0  0  0  0  0  0  0  0  0  0  0
   47.6420   33.9190   43.5330 C   0  0  0  0  0  0  0  0  0  0  0  0
   46.8870   33.5010   44.5570 N   0  0  0  0  0  0  0  0  0  0  0  0
   45.5430   33.4080   44.4640 C   0  0  0  0  0  0  0  0  0  0  0  0
   44.9450   33.7420   43.3250 N   0  0  0  0  0  0  0  0  0  0  0  0
   44.8410   34.5510   41.1060 C   0  0  0  0  0  0  0  0  0  0  0  0
   43.9530   33.3520   40.6500 C   0  0  0  0  0  0  0  0  0  0  0  0
   43.0040   34.0970   39.6840 C   0  0  0  0  0  0  0  0  0  0  0  0
   42.8810   35.4650   40.2680 C   0  0  0  0  0  0  0  0  0  0  0  0
   43.7490   35.4900   41.5140 C   0  0  0  0  0  0  0  0  0  0  0  0
   47.8220   34.7490   41.1820 C   0  0  1  0  0  0  0  0  0  0  0  0
   48.8260   35.7680   41.5530 C   0  0  0  0  0  0  0  0  0  0  0  0
   48.3700   33.5460   40.4670 C   0  0  0  0  0  0  0  0  0  0  0  0
   47.9380   33.4870   39.0790 N   0  0  0  0  0  0  0  0  0  0  0  0
   48.4290   34.4550   38.3200 N   0  0  0  0  0  0  0  0  0  0  0  0
   47.9720   34.3200   37.0680 C   0  0  0  0  0  0  0  0  0  0  0  0
   47.1570   33.2170   37.0280 C   0  0  0  0  0  0  0  0  0  0  0  0
   47.1600   32.7220   38.3030 C   0  0  0  0  0  0  0  0  0  0  0  0
   46.5250   31.6090   38.9150 N   0  0  0  0  0  0  0  0  0  0  0  0
   45.4800   30.9490   38.4050 C   0  0  0  0  0  0  0  0  0  0  0  0
   45.1000   29.9180   39.2430 C   0  0  0  0  0  0  0  0  0  0  0  0
   45.9340   29.9610   40.2780 N   0  0  0  0  0  0  0  0  0  0  0  0
   46.7800   30.9760   40.0670 C   0  0  0  0  0  0  0  0  0  0  0  0
   48.7352   33.9835   43.6366 H   0  0  0  0  0  0  0  0  0  0  0  0
   44.9494   33.0595   45.3220 H   0  0  0  0  0  0  0  0  0  0  0  0
   45.5568   34.9373   40.3654 H   0  0  0  0  0  0  0  0  0  0  0  0
   44.5404   32.5782   40.1340 H   0  0  0  0  0  0  0  0  0  0  0  0
   43.4580   32.7983   41.4614 H   0  0  0  0  0  0  0  0  0  0  0  0
   42.0228   33.6015   39.6427 H   0  0  0  0  0  0  0  0  0  0  0  0
   43.3841   34.1138   38.6519 H   0  0  0  0  0  0  0  0  0  0  0  0
   43.2322   36.2176   39.5467 H   0  0  0  0  0  0  0  0  0  0  0  0
   41.8338   35.6973   40.5118 H   0  0  0  0  0  0  0  0  0  0  0  0
   43.2044   35.1207   42.3955 H   0  0  0  0  0  0  0  0  0  0  0  0
   44.0936   36.4912   41.8121 H   0  0  0  0  0  0  0  0  0  0  0  0
   47.1846   35.3047   40.4785 H   0  0  0  0  0  0  0  0  0  0  0  0
   48.8924   35.8354   42.6489 H   0  0  0  0  0  0  0  0  0  0  0  0
   49.8062   35.4832   41.1431 H   0  0  0  0  0  0  0  0  0  0  0  0
   48.5267   36.7439   41.1431 H   0  0  0  0  0  0  0  0  0  0  0  0
   49.4689   33.5878   40.4944 H   0  0  0  0  0  0  0  0  0  0  0  0
   47.9904   32.6483   40.9770 H   0  0  0  0  0  0  0  0  0  0  0  0
   48.2089   34.9789   36.2196 H   0  0  0  0  0  0  0  0  0  0  0  0
   46.6170   32.8167   36.1573 H   0  0  0  0  0  0  0  0  0  0  0  0
   44.9906   31.1929   37.4506 H   0  0  0  0  0  0  0  0  0  0  0  0
   44.2757   29.2067   39.0860 H   0  0  0  0  0  0  0  0  0  0  0  0
   47.5887   31.2569   40.7577 H   0  0  0  0  0  0  0  0  0  0  0  0
  1  2  1  0
  1  6  2  0
  2  3  2  0
  3  4  1  0
  5  4  2  0
  6  5  1  0
  7 11  1  0
  7  1  1  0
  8  7  1  0
  9 10  1  0
  9  8  1  0
 10 11  1  0
 12 13  1  0
 12  2  1  0
 14 12  1  0
 15 14  1  0
 16 15  1  0
 17 16  2  0
 18 17  1  0
 18 19  2  0
 19 20  1  0
 19 15  1  0
 20 24  1  0
 21 20  1  0
 21 22  2  0
 22 23  1  0
 24 23  2  0
  3 25  1  0
  5 26  1  0
  7 27  1  0
  8 28  1  0
  8 29  1  0
  9 30  1  0
  9 31  1  0
 10 32  1  0
 10 33  1  0
 11 34  1  0
 11 35  1  0
 12 36  1  6
 13 37  1  0
 13 38  1  0
 13 39  1  0
 14 40  1  0
 14 41  1  0
 17 42  1  0
 18 43  1  0
 21 44  1  0
 22 45  1  0
 24 46  1  0
M  ISO  8  25  14  26  14  27  13  28  13  29  13  30  13  31  13  32  13
M  ISO  8  33  13  34  13  35  13  36   8  37   8  38   8  39   8  40   8
M  ISO  6  41   8  42  14  43  14  44  14  45  14  46  14
M  END
>  <minimizedAffinity>  (1) 
-4.97551203

>  <minimizedRMSD>  (1) 
1.13451791

$$$$
