
     RDKit          3D

 28 30  0  0  0  0  0  0  0  0999 V2000
   44.5630   35.7410   44.5660 C   0  0  0  0  0  0  0  0  0  0  0  0
   45.3070   35.5820   43.3730 C   0  0  0  0  0  0  0  0  0  0  0  0
   46.2820   34.5650   43.3460 C   0  0  0  0  0  0  0  0  0  0  0  0
   46.4400   33.8100   44.4620 N   0  0  0  0  0  0  0  0  0  0  0  0
   45.7080   33.9950   45.5810 C   0  0  0  0  0  0  0  0  0  0  0  0
   44.7690   34.9560   45.6400 N   0  0  0  0  0  0  0  0  0  0  0  0
   47.1120   34.3110   42.1690 C   0  0  0  0  0  0  0  0  0  0  0  0
   46.4010   34.2810   40.8700 C   0  0  0  0  0  0  0  0  0  0  0  0
   47.5910   34.1890   39.9130 C   0  0  0  0  0  0  0  0  0  0  0  0
   48.5560   35.1730   40.5150 C   0  0  0  0  0  0  0  0  0  0  0  0
   48.1710   35.3790   41.9560 C   0  0  0  0  0  0  0  0  0  0  0  0
   45.9420   33.1380   46.7380 C   0  0  0  0  0  0  0  0  0  0  0  0
   47.0550   32.4530   47.0480 N   0  0  0  0  0  0  0  0  0  0  0  0
   46.8870   31.7990   48.1610 O   0  0  0  0  0  0  0  0  0  0  0  0
   45.6650   32.0270   48.6230 C   0  0  0  0  0  0  0  0  0  0  0  0
   45.0680   32.8660   47.7360 N   0  0  0  0  0  0  0  0  0  0  0  0
   43.7955   36.5273   44.6172 H   0  0  0  0  0  0  0  0  0  0  0  0
   45.1310   36.2276   42.5000 H   0  0  0  0  0  0  0  0  0  0  0  0
   47.5180   33.3187   42.4151 H   0  0  0  0  0  0  0  0  0  0  0  0
   45.7420   33.4043   40.7863 H   0  0  0  0  0  0  0  0  0  0  0  0
   45.7297   35.1339   40.6913 H   0  0  0  0  0  0  0  0  0  0  0  0
   47.3060   34.4828   38.8920 H   0  0  0  0  0  0  0  0  0  0  0  0
   48.0002   33.1730   39.8119 H   0  0  0  0  0  0  0  0  0  0  0  0
   49.5801   34.7760   40.4552 H   0  0  0  0  0  0  0  0  0  0  0  0
   48.5194   36.1273   39.9692 H   0  0  0  0  0  0  0  0  0  0  0  0
   49.0316   35.2243   42.6235 H   0  0  0  0  0  0  0  0  0  0  0  0
   47.8170   36.3974   42.1741 H   0  0  0  0  0  0  0  0  0  0  0  0
   45.2219   31.6177   49.5429 H   0  0  0  0  0  0  0  0  0  0  0  0
  1  6  2  0
  2  1  1  0
  3  2  2  0
  3  4  1  0
  4  5  2  0
  5  6  1  0
  5 12  1  0
  7  3  1  0
  8  7  1  0
  9 10  1  0
  9  8  1  0
 10 11  1  0
 11  7  1  0
 12 13  2  0
 12 16  1  0
 13 14  1  0
 14 15  1  0
 16 15  2  0
  1 17  1  0
  2 18  1  0
  7 19  1  0
  8 20  1  0
  8 21  1  0
  9 22  1  0
  9 23  1  0
 10 24  1  0
 10 25  1  0
 11 26  1  0
 11 27  1  0
 15 28  1  0
M  ISO  8  17  14  18  14  19  13  20  13  21  13  22  13  23  13  24  13
M  ISO  4  25  13  26  13  27  13  28  14
M  END
>  <minimizedAffinity>  (1) 
-5.80226231

>  <minimizedRMSD>  (1) 
0.688215256

$$$$
