
     RDKit          3D

 29 31  0  0  0  0  0  0  0  0999 V2000
   47.0630   34.3070   42.2080 C   0  0  0  0  0  0  0  0  0  0  0  0
   46.3460   34.3170   40.9110 C   0  0  0  0  0  0  0  0  0  0  0  0
   47.5300   34.1410   39.9610 C   0  0  0  0  0  0  0  0  0  0  0  0
   48.5110   35.1460   40.5420 C   0  0  0  0  0  0  0  0  0  0  0  0
   48.1450   35.3510   41.9960 C   0  0  0  0  0  0  0  0  0  0  0  0
   44.5290   35.7690   44.6060 C   0  0  0  0  0  0  0  0  0  0  0  0
   45.2810   35.5750   43.4300 C   0  0  0  0  0  0  0  0  0  0  0  0
   46.2500   34.5600   43.3960 C   0  0  0  0  0  0  0  0  0  0  0  0
   46.4140   33.8130   44.5020 N   0  0  0  0  0  0  0  0  0  0  0  0
   45.6720   34.0180   45.6320 C   0  0  0  0  0  0  0  0  0  0  0  0
   44.7270   35.0040   45.6720 N   0  0  0  0  0  0  0  0  0  0  0  0
   45.9830   33.1240   46.7190 N   0  0  0  0  0  0  0  0  0  0  0  0
   47.0630   32.3890   47.0500 C   0  0  0  0  0  0  0  0  0  0  0  0
   46.7930   31.7350   48.1820 N   0  0  0  0  0  0  0  0  0  0  0  0
   45.5540   32.0350   48.5910 C   0  0  0  0  0  0  0  0  0  0  0  0
   45.0730   32.8910   47.6740 N   0  0  0  0  0  0  0  0  0  0  0  0
   47.4426   33.3015   42.4421 H   0  0  0  0  0  0  0  0  0  0  0  0
   45.6305   33.4852   40.8322 H   0  0  0  0  0  0  0  0  0  0  0  0
   45.7286   35.2085   40.7264 H   0  0  0  0  0  0  0  0  0  0  0  0
   47.2588   34.3920   38.9249 H   0  0  0  0  0  0  0  0  0  0  0  0
   47.9148   33.1124   39.8975 H   0  0  0  0  0  0  0  0  0  0  0  0
   49.5371   34.7573   40.4643 H   0  0  0  0  0  0  0  0  0  0  0  0
   48.4618   36.0975   39.9923 H   0  0  0  0  0  0  0  0  0  0  0  0
   49.0080   35.1693   42.6534 H   0  0  0  0  0  0  0  0  0  0  0  0
   47.8195   36.3758   42.2279 H   0  0  0  0  0  0  0  0  0  0  0  0
   43.7692   36.5637   44.6406 H   0  0  0  0  0  0  0  0  0  0  0  0
   45.1106   36.2115   42.5492 H   0  0  0  0  0  0  0  0  0  0  0  0
   48.0051   32.3369   46.4846 H   0  0  0  0  0  0  0  0  0  0  0  0
   45.0390   31.6601   49.4878 H   0  0  0  0  0  0  0  0  0  0  0  0
  1  8  1  0
  2  1  1  0
  3  4  1  0
  3  2  1  0
  4  5  1  0
  5  1  1  0
  6 11  2  0
  7  6  1  0
  8  7  2  0
  8  9  1  0
  9 10  2  0
 10 11  1  0
 10 12  1  0
 12 13  1  0
 12 16  1  0
 13 14  2  0
 14 15  1  0
 16 15  2  0
  1 17  1  0
  2 18  1  0
  2 19  1  0
  3 20  1  0
  3 21  1  0
  4 22  1  0
  4 23  1  0
  5 24  1  0
  5 25  1  0
  6 26  1  0
  7 27  1  0
 13 28  1  0
 15 29  1  0
M  ISO  8  17  13  18  13  19  13  20  13  21  13  22  13  23  13  24  13
M  ISO  5  25  13  26  14  27  14  28  14  29  14
M  END
>  <minimizedAffinity>  (1) 
-6.12794542

>  <minimizedRMSD>  (1) 
0.312905192

$$$$
