
     RDKit          3D

 32 33  0  0  0  0  0  0  0  0999 V2000
   47.3810   34.2960   42.1540 C   0  0  0  0  0  0  0  0  0  0  0  0
   46.6650   34.2760   40.8590 C   0  0  0  0  0  0  0  0  0  0  0  0
   47.8560   34.3270   39.8950 C   0  0  0  0  0  0  0  0  0  0  0  0
   48.7050   35.4030   40.5250 C   0  0  0  0  0  0  0  0  0  0  0  0
   48.3630   35.4440   41.9950 C   0  0  0  0  0  0  0  0  0  0  0  0
   44.7360   35.4300   44.6170 C   0  0  0  0  0  0  0  0  0  0  0  0
   45.4960   35.3610   43.4360 C   0  0  0  0  0  0  0  0  0  0  0  0
   46.5470   34.4250   43.3480 C   0  0  0  0  0  0  0  0  0  0  0  0
   46.7660   33.6350   44.4220 N   0  0  0  0  0  0  0  0  0  0  0  0
   46.0100   33.7290   45.5520 C   0  0  0  0  0  0  0  0  0  0  0  0
   44.9990   34.6290   45.6410 N   0  0  0  0  0  0  0  0  0  0  0  0
   46.3380   32.8110   46.6750 C   0  0  0  0  0  0  0  0  0  0  0  0
   46.6800   31.4080   46.1980 C   0  0  0  0  0  0  0  0  0  0  0  0
   45.2190   32.7940   47.6800 C   0  0  0  0  0  0  0  0  0  0  0  0
   47.8585   33.3236   42.3450 H   0  0  0  0  0  0  0  0  0  0  0  0
   46.0764   33.3554   40.7322 H   0  0  0  0  0  0  0  0  0  0  0  0
   45.9265   35.0802   40.7256 H   0  0  0  0  0  0  0  0  0  0  0  0
   47.5396   34.6075   38.8795 H   0  0  0  0  0  0  0  0  0  0  0  0
   48.3726   33.3642   39.7681 H   0  0  0  0  0  0  0  0  0  0  0  0
   49.7711   35.1662   40.3933 H   0  0  0  0  0  0  0  0  0  0  0  0
   48.5106   36.3775   40.0533 H   0  0  0  0  0  0  0  0  0  0  0  0
   49.2589   35.2854   42.6132 H   0  0  0  0  0  0  0  0  0  0  0  0
   47.9509   36.4122   42.3156 H   0  0  0  0  0  0  0  0  0  0  0  0
   43.9137   36.1567   44.6926 H   0  0  0  0  0  0  0  0  0  0  0  0
   45.2734   36.0291   42.5910 H   0  0  0  0  0  0  0  0  0  0  0  0
   47.2432   33.1984   47.1654 H   0  0  0  0  0  0  0  0  0  0  0  0
   46.8395   30.7537   47.0678 H   0  0  0  0  0  0  0  0  0  0  0  0
   45.8513   31.0150   45.5906 H   0  0  0  0  0  0  0  0  0  0  0  0
   47.5965   31.4405   45.5906 H   0  0  0  0  0  0  0  0  0  0  0  0
   45.6391   32.8004   48.6966 H   0  0  0  0  0  0  0  0  0  0  0  0
   44.5862   33.6826   47.5392 H   0  0  0  0  0  0  0  0  0  0  0  0
   44.6134   31.8866   47.5392 H   0  0  0  0  0  0  0  0  0  0  0  0
  1  8  1  0
  2  1  1  0
  3  4  1  0
  3  2  1  0
  4  5  1  0
  5  1  1  0
  6 11  2  0
  7  6  1  0
  8  7  2  0
  8  9  1  0
  9 10  2  0
 10 11  1  0
 10 12  1  0
 12 14  1  0
 13 12  1  0
  1 15  1  0
  2 16  1  0
  2 17  1  0
  3 18  1  0
  3 19  1  0
  4 20  1  0
  4 21  1  0
  5 22  1  0
  5 23  1  0
  6 24  1  0
  7 25  1  0
 12 26  1  0
 13 27  1  0
 13 28  1  0
 13 29  1  0
 14 30  1  0
 14 31  1  0
 14 32  1  0
M  ISO  8  15  13  16  13  17  13  18  13  19  13  20  13  21  13  22  13
M  ISO  8  23  13  24  14  25  14  26   8  27   8  28   8  29   8  30   8
M  ISO  2  31   8  32   8
M  END
>  <minimizedAffinity>  (1) 
-5.14089584

>  <minimizedRMSD>  (1) 
0.670777261

$$$$
