
     RDKit          3D

 48 51  0  0  1  0  0  0  0  0999 V2000
   45.7950   31.0720   47.3500 C   0  0  2  0  0  0  0  0  0  0  0  0
   44.7050   34.9410   45.9010 C   0  0  0  0  0  0  0  0  0  0  0  0
   44.6080   35.5630   44.6620 C   0  0  0  0  0  0  0  0  0  0  0  0
   45.2250   34.9490   43.5680 C   0  0  0  0  0  0  0  0  0  0  0  0
   45.8840   33.7900   43.7610 N   0  0  0  0  0  0  0  0  0  0  0  0
   45.9750   33.1860   44.9850 C   0  0  0  0  0  0  0  0  0  0  0  0
   45.3800   33.7800   46.0320 N   0  0  0  0  0  0  0  0  0  0  0  0
   46.6650   31.9740   45.2150 N   0  0  0  0  0  0  0  0  0  0  0  0
   47.5740   31.6350   44.2580 C   0  0  0  0  0  0  0  0  0  0  0  0
   48.1260   30.4210   44.7150 C   0  0  0  0  0  0  0  0  0  0  0  0
   47.5380   30.0910   45.9000 N   0  0  0  0  0  0  0  0  0  0  0  0
   46.6570   31.0440   46.1850 C   0  0  0  0  0  0  0  0  0  0  0  0
   46.5350   31.9150   48.4280 C   0  0  0  0  0  0  0  0  0  0  0  0
   45.6000   29.7060   47.9260 C   0  0  0  0  0  0  0  0  0  0  0  0
   44.8250   28.8370   47.1120 N   0  0  0  0  0  0  0  0  0  0  0  0
   43.9010   29.2340   46.2340 N   0  0  0  0  0  0  0  0  0  0  0  0
   43.3700   28.1200   45.6570 C   0  0  0  0  0  0  0  0  0  0  0  0
   43.9720   26.9990   46.1830 C   0  0  0  0  0  0  0  0  0  0  0  0
   44.9050   27.4810   47.1190 C   0  0  0  0  0  0  0  0  0  0  0  0
   45.7490   26.6190   47.8760 N   0  0  0  0  0  0  0  0  0  0  0  0
   45.3050   25.7380   48.9420 C   0  0  0  0  0  0  0  0  0  0  0  0
   45.5870   24.2840   48.6380 C   0  0  0  0  0  0  0  0  0  0  0  0
   47.0050   23.9960   48.2680 C   0  0  0  0  0  0  0  0  0  0  0  0
   47.4820   25.0140   47.2850 C   0  0  0  0  0  0  0  0  0  0  0  0
   47.2020   26.4500   47.7140 C   0  0  0  0  0  0  0  0  0  0  0  0
   44.8144   31.4799   47.0637 H   0  0  0  0  0  0  0  0  0  0  0  0
   44.2284   35.3982   46.7807 H   0  0  0  0  0  0  0  0  0  0  0  0
   44.0618   36.5107   44.5455 H   0  0  0  0  0  0  0  0  0  0  0  0
   45.1733   35.4040   42.5678 H   0  0  0  0  0  0  0  0  0  0  0  0
   47.8210   32.1842   43.3375 H   0  0  0  0  0  0  0  0  0  0  0  0
   48.9029   29.8365   44.2005 H   0  0  0  0  0  0  0  0  0  0  0  0
   46.2353   31.5736   49.4298 H   0  0  0  0  0  0  0  0  0  0  0  0
   47.6214   31.7912   48.3082 H   0  0  0  0  0  0  0  0  0  0  0  0
   46.2715   32.9762   48.3082 H   0  0  0  0  0  0  0  0  0  0  0  0
   46.5897   29.2492   48.0738 H   0  0  0  0  0  0  0  0  0  0  0  0
   45.0461   29.8356   48.8675 H   0  0  0  0  0  0  0  0  0  0  0  0
   42.5820   28.1166   44.8895 H   0  0  0  0  0  0  0  0  0  0  0  0
   43.7669   25.9493   45.9259 H   0  0  0  0  0  0  0  0  0  0  0  0
   45.8278   26.0135   49.8698 H   0  0  0  0  0  0  0  0  0  0  0  0
   44.2162   25.8558   49.0451 H   0  0  0  0  0  0  0  0  0  0  0  0
   45.3367   23.6910   49.5300 H   0  0  0  0  0  0  0  0  0  0  0  0
   44.9741   24.0211   47.7632 H   0  0  0  0  0  0  0  0  0  0  0  0
   47.6339   24.0347   49.1697 H   0  0  0  0  0  0  0  0  0  0  0  0
   47.0692   22.9945   47.8175 H   0  0  0  0  0  0  0  0  0  0  0  0
   46.9784   24.8330   46.3239 H   0  0  0  0  0  0  0  0  0  0  0  0
   48.5740   24.9053   47.2101 H   0  0  0  0  0  0  0  0  0  0  0  0
   47.7074   26.6563   48.6690 H   0  0  0  0  0  0  0  0  0  0  0  0
   47.5781   27.1489   46.9524 H   0  0  0  0  0  0  0  0  0  0  0  0
  1 14  1  0
  1 13  1  0
  2  7  2  0
  3  2  1  0
  4  5  1  0
  4  3  2  0
  5  6  2  0
  6  8  1  0
  6  7  1  0
  8 12  1  0
  9 10  2  0
  9  8  1  0
 10 11  1  0
 11 12  2  0
 12  1  1  0
 15 19  1  0
 15 14  1  0
 16 15  1  0
 17 18  1  0
 17 16  2  0
 18 19  2  0
 19 20  1  0
 20 21  1  0
 22 21  1  0
 23 22  1  0
 24 25  1  0
 24 23  1  0
 25 20  1  0
  1 26  1  6
  2 27  1  0
  3 28  1  0
  4 29  1  0
  9 30  1  0
 10 31  1  0
 13 32  1  0
 13 33  1  0
 13 34  1  0
 14 35  1  0
 14 36  1  0
 17 37  1  0
 18 38  1  0
 21 39  1  0
 21 40  1  0
 22 41  1  0
 22 42  1  0
 23 43  1  0
 23 44  1  0
 24 45  1  0
 24 46  1  0
 25 47  1  0
 25 48  1  0
M  ISO  8  26   8  27  14  28  14  29  14  30  14  31  14  32   8  33   8
M  ISO  8  34   8  35   8  36   8  37  14  38  14  39  13  40  13  41  13
M  ISO  7  42  13  43  13  44  13  45  13  46  13  47  13  48  13
M  END
>  <minimizedAffinity>  (1) 
-4.76838493

>  <minimizedRMSD>  (1) 
0.864486396

$$$$
