
     RDKit          3D

 24 25  0  0  0  0  0  0  0  0999 V2000
   47.1020   34.3220   42.1790 C   0  0  0  0  0  0  0  0  0  0  0  0
   46.4030   34.2790   40.8830 C   0  0  0  0  0  0  0  0  0  0  0  0
   47.5790   34.2070   39.9170 C   0  0  0  0  0  0  0  0  0  0  0  0
   48.5500   35.1910   40.5290 C   0  0  0  0  0  0  0  0  0  0  0  0
   48.1720   35.3820   41.9790 C   0  0  0  0  0  0  0  0  0  0  0  0
   44.5910   35.7960   44.5910 C   0  0  0  0  0  0  0  0  0  0  0  0
   45.3630   35.6050   43.4360 C   0  0  0  0  0  0  0  0  0  0  0  0
   46.2780   34.5530   43.3640 C   0  0  0  0  0  0  0  0  0  0  0  0
   46.3770   33.7510   44.4400 N   0  0  0  0  0  0  0  0  0  0  0  0
   45.6270   33.9390   45.5580 C   0  0  0  0  0  0  0  0  0  0  0  0
   44.7420   34.9530   45.6310 N   0  0  0  0  0  0  0  0  0  0  0  0
   45.9130   32.7570   46.8770 S   0  0  0  0  0  0  0  0  0  0  0  0
   47.5041   33.3270   42.4206 H   0  0  0  0  0  0  0  0  0  0  0  0
   45.7589   33.3911   40.8013 H   0  0  0  0  0  0  0  0  0  0  0  0
   45.7243   35.1266   40.7069 H   0  0  0  0  0  0  0  0  0  0  0  0
   47.2830   34.5155   38.9035 H   0  0  0  0  0  0  0  0  0  0  0  0
   47.9915   33.1945   39.7955 H   0  0  0  0  0  0  0  0  0  0  0  0
   49.5744   34.7964   40.4595 H   0  0  0  0  0  0  0  0  0  0  0  0
   48.5078   36.1513   39.9942 H   0  0  0  0  0  0  0  0  0  0  0  0
   49.0331   35.2082   42.6410 H   0  0  0  0  0  0  0  0  0  0  0  0
   47.8308   36.4010   42.2139 H   0  0  0  0  0  0  0  0  0  0  0  0
   43.8701   36.6250   44.6472 H   0  0  0  0  0  0  0  0  0  0  0  0
   45.2469   36.2881   42.5817 H   0  0  0  0  0  0  0  0  0  0  0  0
   45.7625   33.3791   48.0883 H   0  0  0  0  0  0  0  0  0  0  0  0
  1  8  1  0
  2  1  1  0
  3  4  1  0
  3  2  1  0
  4  5  1  0
  5  1  1  0
  6 11  2  0
  7  6  1  0
  8  7  2  0
  8  9  1  0
  9 10  2  0
 10 11  1  0
 10 12  1  0
  1 13  1  0
  2 14  1  0
  2 15  1  0
  3 16  1  0
  3 17  1  0
  4 18  1  0
  4 19  1  0
  5 20  1  0
  5 21  1  0
  6 22  1  0
  7 23  1  0
 12 24  1  0
M  ISO  8  13  13  14  13  15  13  16  13  17  13  18  13  19  13  20  13
M  ISO  4  21  13  22  14  23  14  24  11
M  END
>  <minimizedAffinity>  (1) 
-4.83167791

>  <minimizedRMSD>  (1) 
0.173777103

$$$$
