
     RDKit          3D

 48 50  0  0  1  0  0  0  0  0999 V2000
   45.6110   34.2170   42.2130 C   0  0  0  0  0  0  0  0  0  0  0  0
   47.0040   34.2830   42.3020 C   0  0  0  0  0  0  0  0  0  0  0  0
   47.6200   33.9340   43.5270 C   0  0  0  0  0  0  0  0  0  0  0  0
   46.8520   33.5530   44.5570 N   0  0  0  0  0  0  0  0  0  0  0  0
   45.5060   33.4910   44.4620 C   0  0  0  0  0  0  0  0  0  0  0  0
   44.9200   33.8180   43.3150 N   0  0  0  0  0  0  0  0  0  0  0  0
   44.8380   34.5830   41.0790 C   0  0  0  0  0  0  0  0  0  0  0  0
   44.0920   33.3320   40.5150 C   0  0  0  0  0  0  0  0  0  0  0  0
   43.1100   34.0560   39.5570 C   0  0  0  0  0  0  0  0  0  0  0  0
   42.8340   35.3620   40.2170 C   0  0  0  0  0  0  0  0  0  0  0  0
   43.6490   35.3870   41.4970 C   0  0  0  0  0  0  0  0  0  0  0  0
   47.8240   34.7160   41.1590 C   0  0  1  0  0  0  0  0  0  0  0  0
   48.8570   35.7090   41.5150 C   0  0  0  0  0  0  0  0  0  0  0  0
   48.3390   33.4870   40.4630 C   0  0  0  0  0  0  0  0  0  0  0  0
   47.9760   33.4540   39.0580 N   0  0  0  0  0  0  0  0  0  0  0  0
   48.4090   34.5010   38.3690 N   0  0  0  0  0  0  0  0  0  0  0  0
   48.0280   34.3900   37.0890 C   0  0  0  0  0  0  0  0  0  0  0  0
   47.3240   33.2220   36.9550 C   0  0  0  0  0  0  0  0  0  0  0  0
   47.3140   32.6620   38.2080 C   0  0  0  0  0  0  0  0  0  0  0  0
   46.7220   31.4120   38.7320 C   0  0  0  0  0  0  0  0  0  0  0  0
   45.4510   30.9970   38.0720 C   0  0  0  0  0  0  0  0  0  0  0  0
   47.7510   30.3250   38.8120 C   0  0  0  0  0  0  0  0  0  0  0  0
   48.7142   33.9748   43.6325 H   0  0  0  0  0  0  0  0  0  0  0  0
   44.9017   33.1734   45.3245 H   0  0  0  0  0  0  0  0  0  0  0  0
   45.5367   35.0823   40.3916 H   0  0  0  0  0  0  0  0  0  0  0  0
   44.7704   32.6537   39.9768 H   0  0  0  0  0  0  0  0  0  0  0  0
   43.6274   32.6763   41.2662 H   0  0  0  0  0  0  0  0  0  0  0  0
   42.1825   33.4761   39.4410 H   0  0  0  0  0  0  0  0  0  0  0  0
   43.5281   34.1796   38.5471 H   0  0  0  0  0  0  0  0  0  0  0  0
   43.1364   36.1902   39.5592 H   0  0  0  0  0  0  0  0  0  0  0  0
   41.7610   35.4779   40.4298 H   0  0  0  0  0  0  0  0  0  0  0  0
   43.1106   34.9124   42.3305 H   0  0  0  0  0  0  0  0  0  0  0  0
   43.8852   36.3944   41.8703 H   0  0  0  0  0  0  0  0  0  0  0  0
   47.2020   35.2791   40.4477 H   0  0  0  0  0  0  0  0  0  0  0  0
   48.9333   35.7823   42.6099 H   0  0  0  0  0  0  0  0  0  0  0  0
   49.8261   35.3948   41.1002 H   0  0  0  0  0  0  0  0  0  0  0  0
   48.5813   36.6898   41.1002 H   0  0  0  0  0  0  0  0  0  0  0  0
   49.4358   33.4679   40.5451 H   0  0  0  0  0  0  0  0  0  0  0  0
   47.8834   32.6111   40.9479 H   0  0  0  0  0  0  0  0  0  0  0  0
   48.2429   35.1106   36.2861 H   0  0  0  0  0  0  0  0  0  0  0  0
   46.8654   32.8196   36.0397 H   0  0  0  0  0  0  0  0  0  0  0  0
   46.3980   31.6310   39.7601 H   0  0  0  0  0  0  0  0  0  0  0  0
   44.7021   30.7525   38.8397 H   0  0  0  0  0  0  0  0  0  0  0  0
   45.0779   31.8200   37.4447 H   0  0  0  0  0  0  0  0  0  0  0  0
   45.6354   30.1124   37.4447 H   0  0  0  0  0  0  0  0  0  0  0  0
   47.9647   30.0993   39.8672 H   0  0  0  0  0  0  0  0  0  0  0  0
   47.3695   29.4216   38.3138 H   0  0  0  0  0  0  0  0  0  0  0  0
   48.6740   30.6564   38.3138 H   0  0  0  0  0  0  0  0  0  0  0  0
  1  2  1  0
  1  6  2  0
  2  3  2  0
  3  4  1  0
  5  4  2  0
  6  5  1  0
  7 11  1  0
  7  1  1  0
  8  7  1  0
  9 10  1  0
  9  8  1  0
 10 11  1  0
 12 13  1  0
 12  2  1  0
 14 12  1  0
 15 14  1  0
 16 15  1  0
 17 16  2  0
 18 17  1  0
 18 19  2  0
 19 20  1  0
 19 15  1  0
 20 22  1  0
 21 20  1  0
  3 23  1  0
  5 24  1  0
  7 25  1  0
  8 26  1  0
  8 27  1  0
  9 28  1  0
  9 29  1  0
 10 30  1  0
 10 31  1  0
 11 32  1  0
 11 33  1  0
 12 34  1  6
 13 35  1  0
 13 36  1  0
 13 37  1  0
 14 38  1  0
 14 39  1  0
 17 40  1  0
 18 41  1  0
 20 42  1  0
 21 43  1  0
 21 44  1  0
 21 45  1  0
 22 46  1  0
 22 47  1  0
 22 48  1  0
M  ISO  8  23  14  24  14  25  13  26  13  27  13  28  13  29  13  30  13
M  ISO  8  31  13  32  13  33  13  34   8  35   8  36   8  37   8  38   8
M  ISO  8  39   8  40  14  41  14  42   8  43   8  44   8  45   8  46   8
M  ISO  2  47   8  48   8
M  END
>  <minimizedAffinity>  (1) 
-4.96931314

>  <minimizedRMSD>  (1) 
1.15152419

$$$$
