
     RDKit          3D

 39 41  0  0  0  0  0  0  0  0999 V2000
   44.8980   34.9750   44.6800 C   0  0  0  0  0  0  0  0  0  0  0  0
   45.5930   35.0420   43.4540 C   0  0  0  0  0  0  0  0  0  0  0  0
   46.7690   34.2570   43.3310 C   0  0  0  0  0  0  0  0  0  0  0  0
   47.1170   33.5150   44.4030 N   0  0  0  0  0  0  0  0  0  0  0  0
   46.4490   33.4610   45.5600 C   0  0  0  0  0  0  0  0  0  0  0  0
   45.3400   34.1920   45.6950 N   0  0  0  0  0  0  0  0  0  0  0  0
   47.5900   34.2370   42.1140 C   0  0  0  0  0  0  0  0  0  0  0  0
   46.8460   34.2870   40.8490 C   0  0  0  0  0  0  0  0  0  0  0  0
   47.9870   34.4620   39.8630 C   0  0  0  0  0  0  0  0  0  0  0  0
   48.8300   35.5180   40.5510 C   0  0  0  0  0  0  0  0  0  0  0  0
   48.4820   35.4760   42.0190 C   0  0  0  0  0  0  0  0  0  0  0  0
   46.9010   32.6160   46.6620 C   0  0  0  0  0  0  0  0  0  0  0  0
   45.7850   31.9740   47.4090 C   0  0  0  0  0  0  0  0  0  0  0  0
   46.0080   32.2490   48.8950 C   0  0  0  0  0  0  0  0  0  0  0  0
   45.0080   31.2760   49.4990 C   0  0  0  0  0  0  0  0  0  0  0  0
   45.0130   30.0740   48.5530 C   0  0  0  0  0  0  0  0  0  0  0  0
   45.9100   30.4550   47.4040 C   0  0  0  0  0  0  0  0  0  0  0  0
   43.9816   35.5683   44.8148 H   0  0  0  0  0  0  0  0  0  0  0  0
   45.2383   35.6761   42.6281 H   0  0  0  0  0  0  0  0  0  0  0  0
   48.1271   33.2828   42.2193 H   0  0  0  0  0  0  0  0  0  0  0  0
   46.2915   33.3546   40.6670 H   0  0  0  0  0  0  0  0  0  0  0  0
   46.0752   35.0703   40.8015 H   0  0  0  0  0  0  0  0  0  0  0  0
   47.6225   34.8136   38.8865 H   0  0  0  0  0  0  0  0  0  0  0  0
   48.5309   33.5321   39.6405 H   0  0  0  0  0  0  0  0  0  0  0  0
   49.8986   35.2986   40.4101 H   0  0  0  0  0  0  0  0  0  0  0  0
   48.6305   36.5143   40.1295 H   0  0  0  0  0  0  0  0  0  0  0  0
   49.3843   35.3643   42.6381 H   0  0  0  0  0  0  0  0  0  0  0  0
   47.9960   36.3943   42.3803 H   0  0  0  0  0  0  0  0  0  0  0  0
   47.5475   31.8255   46.2531 H   0  0  0  0  0  0  0  0  0  0  0  0
   47.4364   33.2647   47.3710 H   0  0  0  0  0  0  0  0  0  0  0  0
   44.8500   32.3425   46.9618 H   0  0  0  0  0  0  0  0  0  0  0  0
   47.0386   32.0179   49.2024 H   0  0  0  0  0  0  0  0  0  0  0  0
   45.8724   33.2981   49.1965 H   0  0  0  0  0  0  0  0  0  0  0  0
   45.3217   30.9752   50.5095 H   0  0  0  0  0  0  0  0  0  0  0  0
   44.0067   31.7197   49.6017 H   0  0  0  0  0  0  0  0  0  0  0  0
   45.4066   29.1846   49.0668 H   0  0  0  0  0  0  0  0  0  0  0  0
   43.9979   29.8281   48.2079 H   0  0  0  0  0  0  0  0  0  0  0  0
   45.5527   30.0259   46.4563 H   0  0  0  0  0  0  0  0  0  0  0  0
   46.9431   30.0905   47.5026 H   0  0  0  0  0  0  0  0  0  0  0  0
  1  6  2  0
  2  1  1  0
  3  2  2  0
  3  4  1  0
  4  5  2  0
  5  6  1  0
  5 12  1  0
  7  3  1  0
  8  7  1  0
  9 10  1  0
  9  8  1  0
 10 11  1  0
 11  7  1  0
 12 13  1  0
 13 14  1  0
 14 15  1  0
 16 15  1  0
 17 13  1  0
 17 16  1  0
  1 18  1  0
  2 19  1  0
  7 20  1  0
  8 21  1  0
  8 22  1  0
  9 23  1  0
  9 24  1  0
 10 25  1  0
 10 26  1  0
 11 27  1  0
 11 28  1  0
 12 29  1  0
 12 30  1  0
 13 31  1  0
 14 32  1  0
 14 33  1  0
 15 34  1  0
 15 35  1  0
 16 36  1  0
 16 37  1  0
 17 38  1  0
 17 39  1  0
M  ISO  8  18  14  19  14  20  13  21  13  22  13  23  13  24  13  25  13
M  ISO  8  26  13  27  13  28  13  29   8  30   8  31  13  32  13  33  13
M  ISO  6  34  13  35  13  36  13  37  13  38  13  39  13
M  END
>  <minimizedAffinity>  (1) 
-5.98319197

>  <minimizedRMSD>  (1) 
1.97131896

$$$$
