
     RDKit          3D

 33 34  0  0  0  0  0  0  0  0999 V2000
   44.6050   35.9270   44.4300 C   0  0  0  0  0  0  0  0  0  0  0  0
   45.4080   35.7140   43.2820 C   0  0  0  0  0  0  0  0  0  0  0  0
   46.3200   34.6260   43.2830 C   0  0  0  0  0  0  0  0  0  0  0  0
   46.3650   33.8590   44.3860 N   0  0  0  0  0  0  0  0  0  0  0  0
   45.5880   34.0760   45.4810 C   0  0  0  0  0  0  0  0  0  0  0  0
   44.7160   35.1070   45.4960 N   0  0  0  0  0  0  0  0  0  0  0  0
   47.1730   34.3480   42.1320 C   0  0  0  0  0  0  0  0  0  0  0  0
   46.5020   34.2840   40.8270 C   0  0  0  0  0  0  0  0  0  0  0  0
   47.6920   34.1840   39.8940 C   0  0  0  0  0  0  0  0  0  0  0  0
   48.6220   35.2240   40.4770 C   0  0  0  0  0  0  0  0  0  0  0  0
   48.2390   35.4220   41.9280 C   0  0  0  0  0  0  0  0  0  0  0  0
   45.6890   33.1830   46.6330 C   0  0  0  0  0  0  0  0  0  0  0  0
   46.9900   33.0400   47.2030 N   0  0  0  0  0  0  0  0  0  0  0  0
   47.4260   31.8600   47.8490 C   0  0  0  0  0  0  0  0  0  0  0  0
   46.8390   30.7570   47.6060 N   0  0  0  0  0  0  0  0  0  0  0  0
   48.5290   31.9110   48.7760 N   0  0  0  0  0  0  0  0  0  0  0  0
   47.1590   29.8840   48.0810 H   0  0  0  0  0  0  0  0  0  0  0  0
   43.8898   36.7624   44.4522 H   0  0  0  0  0  0  0  0  0  0  0  0
   45.3264   36.3776   42.4085 H   0  0  0  0  0  0  0  0  0  0  0  0
   47.5720   33.3595   42.4033 H   0  0  0  0  0  0  0  0  0  0  0  0
   45.8527   33.3995   40.7497 H   0  0  0  0  0  0  0  0  0  0  0  0
   45.8331   35.1322   40.6192 H   0  0  0  0  0  0  0  0  0  0  0  0
   47.4126   34.4302   38.8589 H   0  0  0  0  0  0  0  0  0  0  0  0
   48.1292   33.1765   39.8319 H   0  0  0  0  0  0  0  0  0  0  0  0
   49.6633   34.8760   40.4085 H   0  0  0  0  0  0  0  0  0  0  0  0
   48.5369   36.1707   39.9234 H   0  0  0  0  0  0  0  0  0  0  0  0
   49.1001   35.2601   42.5931 H   0  0  0  0  0  0  0  0  0  0  0  0
   47.8889   36.4395   42.1565 H   0  0  0  0  0  0  0  0  0  0  0  0
   45.0190   33.5673   47.4162 H   0  0  0  0  0  0  0  0  0  0  0  0
   45.4185   32.1847   46.2584 H   0  0  0  0  0  0  0  0  0  0  0  0
   47.6425   33.8345   47.1407 H   0  0  0  0  0  0  0  0  0  0  0  0
   48.8465   31.0515   49.2465 H   0  0  0  0  0  0  0  0  0  0  0  0
   48.9995   32.8069   48.9678 H   0  0  0  0  0  0  0  0  0  0  0  0
  1  6  2  0
  2  3  2  0
  2  1  1  0
  3  4  1  0
  4  5  2  0
  5  6  1  0
  5 12  1  0
  7  3  1  0
  8  7  1  0
  9 10  1  0
  9  8  1  0
 10 11  1  0
 11  7  1  0
 12 13  1  0
 13 14  1  0
 14 16  1  0
 15 14  2  0
 15 17  1  0
  1 18  1  0
  2 19  1  0
  7 20  1  0
  8 21  1  0
  8 22  1  0
  9 23  1  0
  9 24  1  0
 10 25  1  0
 10 26  1  0
 11 27  1  0
 11 28  1  0
 12 29  1  0
 12 30  1  0
 13 31  1  0
 16 32  1  0
 16 33  1  0
M  ISO  8  18  14  19  14  20  13  21  13  22  13  23  13  24  13  25  13
M  ISO  5  26  13  27  13  28  13  29   8  30   8
M  END
>  <minimizedAffinity>  (1) 
-5.81166887

>  <minimizedRMSD>  (1) 
0.887022734

$$$$
