
     RDKit          3D

 33 35  0  0  0  0  0  0  0  0999 V2000
   47.2980   34.2080   42.2520 C   0  0  0  0  0  0  0  0  0  0  0  0
   46.5650   34.2330   40.9830 C   0  0  0  0  0  0  0  0  0  0  0  0
   47.6900   34.3300   39.9830 C   0  0  0  0  0  0  0  0  0  0  0  0
   48.6420   35.2940   40.6450 C   0  0  0  0  0  0  0  0  0  0  0  0
   48.2740   35.3770   42.1020 C   0  0  0  0  0  0  0  0  0  0  0  0
   44.7420   35.3230   44.8130 C   0  0  0  0  0  0  0  0  0  0  0  0
   45.4480   35.2860   43.5910 C   0  0  0  0  0  0  0  0  0  0  0  0
   46.4950   34.3360   43.4710 C   0  0  0  0  0  0  0  0  0  0  0  0
   46.7220   33.5480   44.5390 N   0  0  0  0  0  0  0  0  0  0  0  0
   46.0370   33.5980   45.6970 C   0  0  0  0  0  0  0  0  0  0  0  0
   45.0480   34.4880   45.8290 N   0  0  0  0  0  0  0  0  0  0  0  0
   46.3630   32.7020   46.8060 C   0  0  0  0  0  0  0  0  0  0  0  0
   45.3110   32.6170   47.8580 C   0  0  0  0  0  0  0  0  0  0  0  0
   44.8640   31.2720   48.2970 C   0  0  0  0  0  0  0  0  0  0  0  0
   45.8050   32.0570   49.1780 C   0  0  0  0  0  0  0  0  0  0  0  0
   47.7636   33.2227   42.4017 H   0  0  0  0  0  0  0  0  0  0  0  0
   45.9793   33.3130   40.8399 H   0  0  0  0  0  0  0  0  0  0  0  0
   45.8290   35.0470   40.9080 H   0  0  0  0  0  0  0  0  0  0  0  0
   47.3320   34.7245   39.0206 H   0  0  0  0  0  0  0  0  0  0  0  0
   48.1480   33.3582   39.7466 H   0  0  0  0  0  0  0  0  0  0  0  0
   49.6751   34.9310   40.5401 H   0  0  0  0  0  0  0  0  0  0  0  0
   48.5733   36.2859   40.1744 H   0  0  0  0  0  0  0  0  0  0  0  0
   49.1567   35.2455   42.7451 H   0  0  0  0  0  0  0  0  0  0  0  0
   47.8506   36.3483   42.3974 H   0  0  0  0  0  0  0  0  0  0  0  0
   43.9246   36.0481   44.9402 H   0  0  0  0  0  0  0  0  0  0  0  0
   45.1963   35.9668   42.7645 H   0  0  0  0  0  0  0  0  0  0  0  0
   46.5235   31.6933   46.3976 H   0  0  0  0  0  0  0  0  0  0  0  0
   47.2594   33.1158   47.2910 H   0  0  0  0  0  0  0  0  0  0  0  0
   44.7730   33.5146   47.5190 H   0  0  0  0  0  0  0  0  0  0  0  0
   43.8212   31.1170   48.6109 H   0  0  0  0  0  0  0  0  0  0  0  0
   44.8822   30.2675   47.8491 H   0  0  0  0  0  0  0  0  0  0  0  0
   46.8531   31.7415   49.2879 H   0  0  0  0  0  0  0  0  0  0  0  0
   45.8023   32.3953   50.2247 H   0  0  0  0  0  0  0  0  0  0  0  0
  1  8  1  0
  2  1  1  0
  3  4  1  0
  3  2  1  0
  4  5  1  0
  5  1  1  0
  6 11  2  0
  7  6  1  0
  8  7  2  0
  8  9  1  0
  9 10  2  0
 10 11  1  0
 10 12  1  0
 12 13  1  0
 13 14  1  0
 13 15  1  0
 14 15  1  0
  1 16  1  0
  2 17  1  0
  2 18  1  0
  3 19  1  0
  3 20  1  0
  4 21  1  0
  4 22  1  0
  5 23  1  0
  5 24  1  0
  6 25  1  0
  7 26  1  0
 12 27  1  0
 12 28  1  0
 13 29  1  0
 14 30  1  0
 14 31  1  0
 15 32  1  0
 15 33  1  0
M  ISO  8  16  13  17  13  18  13  19  13  20  13  21  13  22  13  23  13
M  ISO  8  24  13  25  14  26  14  27   8  28   8  29  13  30  13  31  13
M  ISO  2  32  13  33  13
M  END
>  <minimizedAffinity>  (1) 
-5.51314211

>  <minimizedRMSD>  (1) 
1.57340765

$$$$
