
     RDKit          3D

 35 37  0  0  0  0  0  0  0  0999 V2000
   44.8440   35.1260   44.5470 C   0  0  0  0  0  0  0  0  0  0  0  0
   45.5870   35.1520   43.3440 C   0  0  0  0  0  0  0  0  0  0  0  0
   46.7450   34.3330   43.2700 C   0  0  0  0  0  0  0  0  0  0  0  0
   47.0330   33.5990   44.3570 N   0  0  0  0  0  0  0  0  0  0  0  0
   46.3140   33.5880   45.4930 C   0  0  0  0  0  0  0  0  0  0  0  0
   45.2160   34.3590   45.5760 N   0  0  0  0  0  0  0  0  0  0  0  0
   47.5860   34.2910   42.0700 C   0  0  0  0  0  0  0  0  0  0  0  0
   46.8810   34.2540   40.7810 C   0  0  0  0  0  0  0  0  0  0  0  0
   48.0420   34.4450   39.8160 C   0  0  0  0  0  0  0  0  0  0  0  0
   48.8550   35.5130   40.4880 C   0  0  0  0  0  0  0  0  0  0  0  0
   48.4470   35.5520   41.9430 C   0  0  0  0  0  0  0  0  0  0  0  0
   46.7450   32.7330   46.6230 C   0  0  0  0  0  0  0  0  0  0  0  0
   46.0300   31.4320   46.5630 C   0  0  0  0  0  0  0  0  0  0  0  0
   45.5660   30.9070   47.7670 C   0  0  0  0  0  0  0  0  0  0  0  0
   44.8800   29.6900   47.8220 C   0  0  0  0  0  0  0  0  0  0  0  0
   44.6860   29.0300   46.6130 C   0  0  0  0  0  0  0  0  0  0  0  0
   45.1560   29.5660   45.4130 C   0  0  0  0  0  0  0  0  0  0  0  0
   45.8100   30.7430   45.4210 N   0  0  0  0  0  0  0  0  0  0  0  0
   43.9422   35.7494   44.6374 H   0  0  0  0  0  0  0  0  0  0  0  0
   45.2795   35.7830   42.4971 H   0  0  0  0  0  0  0  0  0  0  0  0
   48.1422   33.3556   42.2300 H   0  0  0  0  0  0  0  0  0  0  0  0
   46.3773   33.2890   40.6225 H   0  0  0  0  0  0  0  0  0  0  0  0
   46.0773   34.9981   40.6798 H   0  0  0  0  0  0  0  0  0  0  0  0
   47.6874   34.7778   38.8293 H   0  0  0  0  0  0  0  0  0  0  0  0
   48.6073   33.5211   39.6238 H   0  0  0  0  0  0  0  0  0  0  0  0
   49.9261   35.2766   40.4052 H   0  0  0  0  0  0  0  0  0  0  0  0
   48.6792   36.4888   40.0117 H   0  0  0  0  0  0  0  0  0  0  0  0
   49.3243   35.5046   42.6049 H   0  0  0  0  0  0  0  0  0  0  0  0
   47.9235   36.4757   42.2308 H   0  0  0  0  0  0  0  0  0  0  0  0
   47.8291   32.5585   46.5576 H   0  0  0  0  0  0  0  0  0  0  0  0
   46.5102   33.2360   47.5727 H   0  0  0  0  0  0  0  0  0  0  0  0
   45.7439   31.4643   48.6985 H   0  0  0  0  0  0  0  0  0  0  0  0
   44.5126   29.2757   48.7725 H   0  0  0  0  0  0  0  0  0  0  0  0
   44.1525   28.0681   46.6025 H   0  0  0  0  0  0  0  0  0  0  0  0
   44.9931   29.0300   44.4663 H   0  0  0  0  0  0  0  0  0  0  0  0
  1  6  2  0
  2  1  1  0
  3  2  2  0
  3  4  1  0
  4  5  2  0
  5  6  1  0
  5 12  1  0
  7  3  1  0
  8  7  1  0
  9 10  1  0
  9  8  1  0
 10 11  1  0
 11  7  1  0
 13 12  1  0
 13 14  2  0
 14 15  1  0
 16 15  2  0
 17 18  2  0
 17 16  1  0
 18 13  1  0
  1 19  1  0
  2 20  1  0
  7 21  1  0
  8 22  1  0
  8 23  1  0
  9 24  1  0
  9 25  1  0
 10 26  1  0
 10 27  1  0
 11 28  1  0
 11 29  1  0
 12 30  1  0
 12 31  1  0
 14 32  1  0
 15 33  1  0
 16 34  1  0
 17 35  1  0
M  ISO  8  19  14  20  14  21  13  22  13  23  13  24  13  25  13  26  13
M  ISO  8  27  13  28  13  29  13  30   8  31   8  32  14  33  14  34  14
M  ISO  1  35  14
M  END
>  <minimizedAffinity>  (1) 
-5.61107588

>  <minimizedRMSD>  (1) 
1.17148197

$$$$
