
     RDKit          3D

 37 40  0  0  0  0  0  0  0  0999 V2000
   44.7270   35.7060   44.2880 C   0  0  0  0  0  0  0  0  0  0  0  0
   45.5670   35.6130   43.1600 C   0  0  0  0  0  0  0  0  0  0  0  0
   46.5700   34.6070   43.1330 C   0  0  0  0  0  0  0  0  0  0  0  0
   46.6450   33.8030   44.2060 N   0  0  0  0  0  0  0  0  0  0  0  0
   45.8360   33.8980   45.2840 C   0  0  0  0  0  0  0  0  0  0  0  0
   44.8780   34.8570   45.3130 N   0  0  0  0  0  0  0  0  0  0  0  0
   47.4830   34.4480   42.0010 C   0  0  0  0  0  0  0  0  0  0  0  0
   46.8560   34.3440   40.6750 C   0  0  0  0  0  0  0  0  0  0  0  0
   48.0800   34.4110   39.7760 C   0  0  0  0  0  0  0  0  0  0  0  0
   48.8960   35.4970   40.4160 C   0  0  0  0  0  0  0  0  0  0  0  0
   48.4030   35.6640   41.8440 C   0  0  0  0  0  0  0  0  0  0  0  0
   45.9830   32.9770   46.4220 C   0  0  0  0  0  0  0  0  0  0  0  0
   45.8570   31.5900   46.0430 N   0  0  0  0  0  0  0  0  0  0  0  0
   45.9930   30.9510   44.8660 C   0  0  0  0  0  0  0  0  0  0  0  0
   45.7680   29.6170   45.0400 N   0  0  0  0  0  0  0  0  0  0  0  0
   45.4820   29.3840   46.3410 C   0  0  0  0  0  0  0  0  0  0  0  0
   45.1790   28.2400   47.0570 C   0  0  0  0  0  0  0  0  0  0  0  0
   44.9320   28.3130   48.3840 N   0  0  0  0  0  0  0  0  0  0  0  0
   44.9940   29.5350   48.9680 C   0  0  0  0  0  0  0  0  0  0  0  0
   45.2900   30.6480   48.2710 N   0  0  0  0  0  0  0  0  0  0  0  0
   45.5420   30.6240   46.9520 C   0  0  0  0  0  0  0  0  0  0  0  0
   43.9448   36.4784   44.3267 H   0  0  0  0  0  0  0  0  0  0  0  0
   45.4481   36.3073   42.3151 H   0  0  0  0  0  0  0  0  0  0  0  0
   47.9920   33.5083   42.2615 H   0  0  0  0  0  0  0  0  0  0  0  0
   46.3172   33.3925   40.5553 H   0  0  0  0  0  0  0  0  0  0  0  0
   46.0963   35.1123   40.4686 H   0  0  0  0  0  0  0  0  0  0  0  0
   47.8020   34.6777   38.7457 H   0  0  0  0  0  0  0  0  0  0  0  0
   48.6146   33.4533   39.6919 H   0  0  0  0  0  0  0  0  0  0  0  0
   49.9594   35.2155   40.4172 H   0  0  0  0  0  0  0  0  0  0  0  0
   48.7888   36.4392   39.8585 H   0  0  0  0  0  0  0  0  0  0  0  0
   49.2359   35.6317   42.5618 H   0  0  0  0  0  0  0  0  0  0  0  0
   47.9061   36.6267   42.0345 H   0  0  0  0  0  0  0  0  0  0  0  0
   46.9757   33.1293   46.8706 H   0  0  0  0  0  0  0  0  0  0  0  0
   45.1736   33.1994   47.1329 H   0  0  0  0  0  0  0  0  0  0  0  0
   46.2469   31.4315   43.9096 H   0  0  0  0  0  0  0  0  0  0  0  0
   45.1389   27.2674   46.5448 H   0  0  0  0  0  0  0  0  0  0  0  0
   44.7959   29.6198   50.0467 H   0  0  0  0  0  0  0  0  0  0  0  0
  1  6  2  0
  2  1  1  0
  3  2  2  0
  3  4  1  0
  4  5  2  0
  5  6  1  0
  5 12  1  0
  7  3  1  0
  8  7  1  0
  9 10  1  0
  9  8  1  0
 10 11  1  0
 11  7  1  0
 13 12  1  0
 13 21  1  0
 14 15  2  0
 14 13  1  0
 15 16  1  0
 16 21  2  0
 16 17  1  0
 17 18  2  0
 18 19  1  0
 20 19  2  0
 21 20  1  0
  1 22  1  0
  2 23  1  0
  7 24  1  0
  8 25  1  0
  8 26  1  0
  9 27  1  0
  9 28  1  0
 10 29  1  0
 10 30  1  0
 11 31  1  0
 11 32  1  0
 12 33  1  0
 12 34  1  0
 14 35  1  0
 17 36  1  0
 19 37  1  0
M  ISO  8  22  14  23  14  24  13  25  13  26  13  27  13  28  13  29  13
M  ISO  8  30  13  31  13  32  13  33   8  34   8  35  14  36  14  37  14
M  END
>  <minimizedAffinity>  (1) 
-5.5693779

>  <minimizedRMSD>  (1) 
1.32476962

$$$$
