
     RDKit          3D

 33 35  0  0  0  0  0  0  0  0999 V2000
   44.8520   35.0290   44.7570 C   0  0  0  0  0  0  0  0  0  0  0  0
   45.5670   35.0820   43.5360 C   0  0  0  0  0  0  0  0  0  0  0  0
   46.7250   34.2700   43.4200 C   0  0  0  0  0  0  0  0  0  0  0  0
   47.0480   33.5120   44.4910 N   0  0  0  0  0  0  0  0  0  0  0  0
   46.3650   33.4680   45.6430 C   0  0  0  0  0  0  0  0  0  0  0  0
   45.2720   34.2270   45.7660 N   0  0  0  0  0  0  0  0  0  0  0  0
   47.5550   34.2370   42.2160 C   0  0  0  0  0  0  0  0  0  0  0  0
   46.8340   34.2850   40.9400 C   0  0  0  0  0  0  0  0  0  0  0  0
   47.9800   34.4620   39.9620 C   0  0  0  0  0  0  0  0  0  0  0  0
   48.8300   35.5000   40.6660 C   0  0  0  0  0  0  0  0  0  0  0  0
   48.4470   35.4770   42.1160 C   0  0  0  0  0  0  0  0  0  0  0  0
   46.7740   32.6130   46.7540 C   0  0  0  0  0  0  0  0  0  0  0  0
   45.9290   31.3710   46.7890 C   0  0  0  0  0  0  0  0  0  0  0  0
   45.2660   30.6620   47.7690 C   0  0  0  0  0  0  0  0  0  0  0  0
   44.6530   29.5780   47.1360 C   0  0  0  0  0  0  0  0  0  0  0  0
   44.9580   29.6620   45.8140 N   0  0  0  0  0  0  0  0  0  0  0  0
   45.7150   30.7260   45.6080 N   0  0  0  0  0  0  0  0  0  0  0  0
   43.9489   35.6432   44.8878 H   0  0  0  0  0  0  0  0  0  0  0  0
   45.2374   35.7280   42.7089 H   0  0  0  0  0  0  0  0  0  0  0  0
   48.0821   33.2796   42.3403 H   0  0  0  0  0  0  0  0  0  0  0  0
   46.2840   33.3511   40.7521 H   0  0  0  0  0  0  0  0  0  0  0  0
   46.0664   35.0709   40.8839 H   0  0  0  0  0  0  0  0  0  0  0  0
   47.6229   34.8298   38.9887 H   0  0  0  0  0  0  0  0  0  0  0  0
   48.5160   33.5298   39.7301 H   0  0  0  0  0  0  0  0  0  0  0  0
   49.8961   35.2533   40.5538 H   0  0  0  0  0  0  0  0  0  0  0  0
   48.6650   36.4982   40.2342 H   0  0  0  0  0  0  0  0  0  0  0  0
   49.3347   35.3784   42.7580 H   0  0  0  0  0  0  0  0  0  0  0  0
   47.9469   36.3990   42.4473 H   0  0  0  0  0  0  0  0  0  0  0  0
   47.8296   32.3312   46.6266 H   0  0  0  0  0  0  0  0  0  0  0  0
   46.6443   33.1630   47.6978 H   0  0  0  0  0  0  0  0  0  0  0  0
   45.2274   30.9034   48.8415 H   0  0  0  0  0  0  0  0  0  0  0  0
   44.0390   28.8023   47.6169 H   0  0  0  0  0  0  0  0  0  0  0  0
   44.6482   29.0009   45.0874 H   0  0  0  0  0  0  0  0  0  0  0  0
  1  6  2  0
  2  1  1  0
  3  2  2  0
  3  4  1  0
  4  5  2  0
  5  6  1  0
  5 12  1  0
  7  3  1  0
  8  7  1  0
  9 10  1  0
  9  8  1  0
 10 11  1  0
 11  7  1  0
 12 13  1  0
 13 14  1  0
 15 14  2  0
 16 15  1  0
 17 16  1  0
 17 13  2  0
  1 18  1  0
  2 19  1  0
  7 20  1  0
  8 21  1  0
  8 22  1  0
  9 23  1  0
  9 24  1  0
 10 25  1  0
 10 26  1  0
 11 27  1  0
 11 28  1  0
 12 29  1  0
 12 30  1  0
 14 31  1  0
 15 32  1  0
 16 33  1  0
M  ISO  8  18  14  19  14  20  13  21  13  22  13  23  13  24  13  25  13
M  ISO  8  26  13  27  13  28  13  29   8  30   8  31  14  32  14  33   9
M  END
>  <minimizedAffinity>  (1) 
-5.38353825

>  <minimizedRMSD>  (1) 
0.997145057

$$$$
