
     RDKit          3D

 27 28  0  0  0  0  0  0  0  0999 V2000
   47.2040   34.3210   42.0980 C   0  0  0  0  0  0  0  0  0  0  0  0
   46.5230   34.2720   40.7970 C   0  0  0  0  0  0  0  0  0  0  0  0
   47.7110   34.2270   39.8520 C   0  0  0  0  0  0  0  0  0  0  0  0
   48.6520   35.2120   40.4650 C   0  0  0  0  0  0  0  0  0  0  0  0
   48.2090   35.4530   41.8840 C   0  0  0  0  0  0  0  0  0  0  0  0
   44.6280   35.7700   44.4670 C   0  0  0  0  0  0  0  0  0  0  0  0
   45.3940   35.6200   43.2920 C   0  0  0  0  0  0  0  0  0  0  0  0
   46.3510   34.5720   43.2640 C   0  0  0  0  0  0  0  0  0  0  0  0
   46.4470   33.8100   44.3650 N   0  0  0  0  0  0  0  0  0  0  0  0
   45.7100   33.9640   45.4840 C   0  0  0  0  0  0  0  0  0  0  0  0
   44.7920   34.9620   45.5190 N   0  0  0  0  0  0  0  0  0  0  0  0
   45.8950   33.0720   46.6390 C   0  0  0  0  0  0  0  0  0  0  0  0
   47.1610   33.2210   47.1990 O   0  0  0  0  0  0  0  0  0  0  0  0
   47.6361   33.3425   42.3546 H   0  0  0  0  0  0  0  0  0  0  0  0
   45.8966   33.3728   40.7021 H   0  0  0  0  0  0  0  0  0  0  0  0
   45.8296   35.1064   40.6155 H   0  0  0  0  0  0  0  0  0  0  0  0
   47.4220   34.5332   38.8358 H   0  0  0  0  0  0  0  0  0  0  0  0
   48.1424   33.2215   39.7389 H   0  0  0  0  0  0  0  0  0  0  0  0
   49.6748   34.8073   40.4563 H   0  0  0  0  0  0  0  0  0  0  0  0
   48.6458   36.1535   39.8962 H   0  0  0  0  0  0  0  0  0  0  0  0
   49.0532   35.3762   42.5851 H   0  0  0  0  0  0  0  0  0  0  0  0
   47.7911   36.4561   42.0545 H   0  0  0  0  0  0  0  0  0  0  0  0
   43.8769   36.5720   44.5188 H   0  0  0  0  0  0  0  0  0  0  0  0
   45.2550   36.2896   42.4304 H   0  0  0  0  0  0  0  0  0  0  0  0
   45.1370   33.3099   47.3998 H   0  0  0  0  0  0  0  0  0  0  0  0
   45.7895   32.0329   46.2940 H   0  0  0  0  0  0  0  0  0  0  0  0
   47.0882   33.2124   48.1863 H   0  0  0  0  0  0  0  0  0  0  0  0
  1  8  1  0
  2  1  1  0
  3  4  1  0
  3  2  1  0
  4  5  1  0
  5  1  1  0
  6 11  2  0
  7  6  1  0
  8  7  2  0
  8  9  1  0
  9 10  2  0
 10 11  1  0
 10 12  1  0
 12 13  1  0
  1 14  1  0
  2 15  1  0
  2 16  1  0
  3 17  1  0
  3 18  1  0
  4 19  1  0
  4 20  1  0
  5 21  1  0
  5 22  1  0
  6 23  1  0
  7 24  1  0
 12 25  1  0
 12 26  1  0
 13 27  1  0
M  ISO  8  14  13  15  13  16  13  17  13  18  13  19  13  20  13  21  13
M  ISO  6  22  13  23  14  24  14  25   8  26   8  27   3
M  END
>  <minimizedAffinity>  (1) 
-5.34037733

>  <minimizedRMSD>  (1) 
0.24500823

$$$$
