
     RDKit          3D

 40 43  0  0  0  0  0  0  0  0999 V2000
   45.9650   35.1820   42.3690 C   0  0  0  0  0  0  0  0  0  0  0  0
   47.1220   34.7960   41.6610 C   0  0  0  0  0  0  0  0  0  0  0  0
   48.0440   33.9240   42.2970 C   0  0  0  0  0  0  0  0  0  0  0  0
   47.7390   33.5270   43.5420 N   0  0  0  0  0  0  0  0  0  0  0  0
   46.6360   33.8970   44.2140 C   0  0  0  0  0  0  0  0  0  0  0  0
   45.7540   34.7260   43.6150 N   0  0  0  0  0  0  0  0  0  0  0  0
   49.2750   33.4760   41.6340 C   0  0  0  0  0  0  0  0  0  0  0  0
   50.2820   32.8310   42.4850 C   0  0  0  0  0  0  0  0  0  0  0  0
   51.2570   32.3130   41.4480 C   0  0  0  0  0  0  0  0  0  0  0  0
   50.3270   31.7570   40.3870 C   0  0  0  0  0  0  0  0  0  0  0  0
   48.9920   32.4130   40.5770 C   0  0  0  0  0  0  0  0  0  0  0  0
   46.3970   33.4050   45.5790 C   0  0  0  0  0  0  0  0  0  0  0  0
   46.1920   31.9780   45.5030 N   0  0  0  0  0  0  0  0  0  0  0  0
   45.6320   31.1500   44.6340 C   0  0  0  0  0  0  0  0  0  0  0  0
   45.7140   29.8750   45.0640 N   0  0  0  0  0  0  0  0  0  0  0  0
   46.3550   29.8710   46.2690 C   0  0  0  0  0  0  0  0  0  0  0  0
   46.6850   28.8400   47.1160 C   0  0  0  0  0  0  0  0  0  0  0  0
   46.4010   27.6330   46.8450 O   0  0  0  0  0  0  0  0  0  0  0  0
   47.3350   29.1230   48.2760 N   0  0  0  0  0  0  0  0  0  0  0  0
   47.6190   30.4140   48.5260 C   0  0  0  0  0  0  0  0  0  0  0  0
   48.2990   30.7050   49.7420 N   0  0  0  0  0  0  0  0  0  0  0  0
   47.2940   31.4110   47.7010 N   0  0  0  0  0  0  0  0  0  0  0  0
   46.6450   31.1970   46.5260 C   0  0  0  0  0  0  0  0  0  0  0  0
   45.2342   35.8575   41.9003 H   0  0  0  0  0  0  0  0  0  0  0  0
   47.3056   35.1620   40.6401 H   0  0  0  0  0  0  0  0  0  0  0  0
   49.6626   34.4294   41.2457 H   0  0  0  0  0  0  0  0  0  0  0  0
   50.7603   33.5541   43.1620 H   0  0  0  0  0  0  0  0  0  0  0  0
   49.8786   32.0550   43.1521 H   0  0  0  0  0  0  0  0  0  0  0  0
   51.8811   33.1248   41.0462 H   0  0  0  0  0  0  0  0  0  0  0  0
   51.9709   31.5745   41.8417 H   0  0  0  0  0  0  0  0  0  0  0  0
   50.2312   30.6674   40.5038 H   0  0  0  0  0  0  0  0  0  0  0  0
   50.7203   31.9584   39.3797 H   0  0  0  0  0  0  0  0  0  0  0  0
   48.6405   32.8711   39.6407 H   0  0  0  0  0  0  0  0  0  0  0  0
   48.2024   31.7074   40.8746 H   0  0  0  0  0  0  0  0  0  0  0  0
   47.2678   33.6248   46.2141 H   0  0  0  0  0  0  0  0  0  0  0  0
   45.5161   33.8974   46.0167 H   0  0  0  0  0  0  0  0  0  0  0  0
   45.1632   31.4609   43.6887 H   0  0  0  0  0  0  0  0  0  0  0  0
   47.5995   28.3787   48.9371 H   0  0  0  0  0  0  0  0  0  0  0  0
   48.5384   31.6786   49.9779 H   0  0  0  0  0  0  0  0  0  0  0  0
   48.5517   29.9420   50.3861 H   0  0  0  0  0  0  0  0  0  0  0  0
  1  6  2  0
  2  3  2  0
  2  1  1  0
  3  4  1  0
  4  5  2  0
  5 12  1  0
  6  5  1  0
  7  3  1  0
  7  8  1  0
  9  8  1  0
 10 11  1  0
 10  9  1  0
 11  7  1  0
 13 12  1  0
 13 23  1  0
 14 15  2  0
 14 13  1  0
 15 16  1  0
 16 23  2  0
 16 17  1  0
 17 19  1  0
 18 17  2  0
 19 20  1  0
 20 21  1  0
 22 20  2  0
 23 22  1  0
  1 24  1  0
  2 25  1  0
  7 26  1  0
  8 27  1  0
  8 28  1  0
  9 29  1  0
  9 30  1  0
 10 31  1  0
 10 32  1  0
 11 33  1  0
 11 34  1  0
 12 35  1  0
 12 36  1  0
 14 37  1  0
 19 38  1  0
 21 39  1  0
 21 40  1  0
M  ISO  8  24  14  25  14  26  13  27  13  28  13  29  13  30  13  31  13
M  ISO  7  32  13  33  13  34  13  35   8  36   8  37  14  38   9
M  END
>  <minimizedAffinity>  (1) 
-5.47557402

>  <minimizedRMSD>  (1) 
3.85961962

$$$$
