
     RDKit          3D

 31 33  0  0  0  0  0  0  0  0999 V2000
   45.1820   34.4910   45.0500 C   0  0  0  0  0  0  0  0  0  0  0  0
   45.8050   34.6740   43.7980 C   0  0  0  0  0  0  0  0  0  0  0  0
   46.9550   33.9040   43.4860 C   0  0  0  0  0  0  0  0  0  0  0  0
   47.3630   33.0480   44.4330 N   0  0  0  0  0  0  0  0  0  0  0  0
   46.7610   32.8800   45.6290 C   0  0  0  0  0  0  0  0  0  0  0  0
   45.6730   33.6060   45.9270 N   0  0  0  0  0  0  0  0  0  0  0  0
   47.6540   34.0410   42.2120 C   0  0  0  0  0  0  0  0  0  0  0  0
   46.8120   34.2140   41.0220 C   0  0  0  0  0  0  0  0  0  0  0  0
   47.8450   34.5290   39.9710 C   0  0  0  0  0  0  0  0  0  0  0  0
   48.7930   35.4510   40.6960 C   0  0  0  0  0  0  0  0  0  0  0  0
   48.5400   35.2860   42.1720 C   0  0  0  0  0  0  0  0  0  0  0  0
   47.3150   31.9080   46.5940 C   0  0  0  0  0  0  0  0  0  0  0  0
   46.2950   31.5090   47.5990 C   0  0  0  0  0  0  0  0  0  0  0  0
   45.2470   30.6670   47.5490 N   0  0  0  0  0  0  0  0  0  0  0  0
   44.6350   30.6430   48.6970 O   0  0  0  0  0  0  0  0  0  0  0  0
   45.2780   31.4610   49.4860 C   0  0  0  0  0  0  0  0  0  0  0  0
   46.3210   32.0300   48.8580 N   0  0  0  0  0  0  0  0  0  0  0  0
   44.2882   35.0782   45.3075 H   0  0  0  0  0  0  0  0  0  0  0  0
   45.4060   35.4014   43.0757 H   0  0  0  0  0  0  0  0  0  0  0  0
   48.1940   33.0835   42.1708 H   0  0  0  0  0  0  0  0  0  0  0  0
   46.2610   33.2928   40.7814 H   0  0  0  0  0  0  0  0  0  0  0  0
   46.0319   34.9819   41.1305 H   0  0  0  0  0  0  0  0  0  0  0  0
   47.3885   35.0316   39.1055 H   0  0  0  0  0  0  0  0  0  0  0  0
   48.3368   33.6336   39.5631 H   0  0  0  0  0  0  0  0  0  0  0  0
   49.8332   35.1820   40.4603 H   0  0  0  0  0  0  0  0  0  0  0  0
   48.6318   36.4947   40.3882 H   0  0  0  0  0  0  0  0  0  0  0  0
   49.4790   35.1248   42.7218 H   0  0  0  0  0  0  0  0  0  0  0  0
   48.0819   36.1686   42.6423 H   0  0  0  0  0  0  0  0  0  0  0  0
   47.6516   31.0135   46.0494 H   0  0  0  0  0  0  0  0  0  0  0  0
   48.1573   32.3806   47.1205 H   0  0  0  0  0  0  0  0  0  0  0  0
   45.0011   31.6592   50.5320 H   0  0  0  0  0  0  0  0  0  0  0  0
  1  6  2  0
  2  1  1  0
  3  2  2  0
  3  4  1  0
  4  5  2  0
  5  6  1  0
  5 12  1  0
  7  3  1  0
  8  7  1  0
  9 10  1  0
  9  8  1  0
 10 11  1  0
 11  7  1  0
 12 13  1  0
 13 17  1  0
 14 13  2  0
 14 15  1  0
 15 16  1  0
 17 16  2  0
  1 18  1  0
  2 19  1  0
  7 20  1  0
  8 21  1  0
  8 22  1  0
  9 23  1  0
  9 24  1  0
 10 25  1  0
 10 26  1  0
 11 27  1  0
 11 28  1  0
 12 29  1  0
 12 30  1  0
 16 31  1  0
M  ISO  8  18  14  19  14  20  13  21  13  22  13  23  13  24  13  25  13
M  ISO  6  26  13  27  13  28  13  29   8  30   8  31  14
M  END
>  <minimizedAffinity>  (1) 
-5.21066999

>  <minimizedRMSD>  (1) 
2.29456544

$$$$
