
     RDKit          3D

 39 41  0  0  0  0  0  0  0  0999 V2000
   48.4010   35.6190   41.6540 C   0  0  0  0  0  0  0  0  0  0  0  0
   48.6120   34.9970   40.4080 C   0  0  0  0  0  0  0  0  0  0  0  0
   47.6080   34.1140   39.9300 C   0  0  0  0  0  0  0  0  0  0  0  0
   46.5120   33.9320   40.7140 N   0  0  0  0  0  0  0  0  0  0  0  0
   46.3400   34.5480   41.9110 C   0  0  0  0  0  0  0  0  0  0  0  0
   47.2810   35.3830   42.3710 N   0  0  0  0  0  0  0  0  0  0  0  0
   47.7220   33.4240   38.6510 C   0  0  0  0  0  0  0  0  0  0  0  0
   46.4630   33.1310   37.9570 C   0  0  0  0  0  0  0  0  0  0  0  0
   46.9890   32.6100   36.6280 C   0  0  0  0  0  0  0  0  0  0  0  0
   48.0900   33.5980   36.3210 C   0  0  0  0  0  0  0  0  0  0  0  0
   48.5070   34.2410   37.6280 C   0  0  0  0  0  0  0  0  0  0  0  0
   45.1320   34.3180   42.6990 C   0  0  0  0  0  0  0  0  0  0  0  0
   46.0930   32.6100   46.4860 C   0  0  0  0  0  0  0  0  0  0  0  0
   45.4580   33.8460   46.4640 C   0  0  0  0  0  0  0  0  0  0  0  0
   45.1280   34.4350   45.2450 C   0  0  0  0  0  0  0  0  0  0  0  0
   45.4360   33.7840   44.0670 C   0  0  0  0  0  0  0  0  0  0  0  0
   46.0680   32.5580   44.1280 C   0  0  0  0  0  0  0  0  0  0  0  0
   46.4170   31.9280   45.3080 C   0  0  0  0  0  0  0  0  0  0  0  0
   46.5230   31.8390   48.0040 S   0  0  0  0  0  0  0  0  0  0  0  0
   47.9310   32.1340   48.3950 O   0  0  0  0  0  0  0  0  0  0  0  0
   45.6470   32.3060   49.1230 O   0  0  0  0  0  0  0  0  0  0  0  0
   49.1612   36.3086   42.0498 H   0  0  0  0  0  0  0  0  0  0  0  0
   49.5245   35.1890   39.8245 H   0  0  0  0  0  0  0  0  0  0  0  0
   48.2106   32.4877   38.9587 H   0  0  0  0  0  0  0  0  0  0  0  0
   45.8756   32.3674   38.4879 H   0  0  0  0  0  0  0  0  0  0  0  0
   45.7776   33.9873   37.8730 H   0  0  0  0  0  0  0  0  0  0  0  0
   47.3842   31.5882   36.7268 H   0  0  0  0  0  0  0  0  0  0  0  0
   46.2221   32.5402   35.8425 H   0  0  0  0  0  0  0  0  0  0  0  0
   48.9468   33.0763   35.8696 H   0  0  0  0  0  0  0  0  0  0  0  0
   47.7375   34.3605   35.6109 H   0  0  0  0  0  0  0  0  0  0  0  0
   49.5910   34.1488   37.7904 H   0  0  0  0  0  0  0  0  0  0  0  0
   48.3041   35.3211   37.6744 H   0  0  0  0  0  0  0  0  0  0  0  0
   44.5915   35.2703   42.8034 H   0  0  0  0  0  0  0  0  0  0  0  0
   44.5255   33.5665   42.1723 H   0  0  0  0  0  0  0  0  0  0  0  0
   45.2164   34.3583   47.4069 H   0  0  0  0  0  0  0  0  0  0  0  0
   44.6250   35.4130   45.2214 H   0  0  0  0  0  0  0  0  0  0  0  0
   46.3082   32.0523   43.1811 H   0  0  0  0  0  0  0  0  0  0  0  0
   46.9192   30.9494   45.3201 H   0  0  0  0  0  0  0  0  0  0  0  0
   46.3615   30.4943   47.7973 H   0  0  0  0  0  0  0  0  0  0  0  0
  1  6  2  0
  2  1  1  0
  3  2  2  0
  3  4  1  0
  4  5  2  0
  5  6  1  0
  5 12  1  0
  7  3  1  0
  8  7  1  0
  9  8  1  0
 10  9  1  0
 10 11  1  0
 11  7  1  0
 12 16  1  0
 13 19  1  0
 14 13  2  0
 15 14  1  0
 16 17  1  0
 16 15  2  0
 17 18  2  0
 18 13  1  0
 19 20  2  0
 19 21  2  0
  1 22  1  0
  2 23  1  0
  7 24  1  0
  8 25  1  0
  8 26  1  0
  9 27  1  0
  9 28  1  0
 10 29  1  0
 10 30  1  0
 11 31  1  0
 11 32  1  0
 12 33  1  0
 12 34  1  0
 14 35  1  0
 15 36  1  0
 17 37  1  0
 18 38  1  0
 19 39  1  0
M  ISO  8  22  14  23  14  24  13  25  13  26  13  27  13  28  13  29  13
M  ISO  8  30  13  31  13  32  13  33   8  34   8  35  14  36  14  37  14
M  ISO  2  38  14  39  11
M  END
>  <minimizedAffinity>  (1) 
-5.18668556

>  <minimizedRMSD>  (1) 
4.38652182

$$$$
