
     RDKit          3D

 34 36  0  0  0  0  0  0  0  0999 V2000
   44.8410   35.5320   44.4160 C   0  0  0  0  0  0  0  0  0  0  0  0
   45.8200   35.0410   43.5230 C   0  0  0  0  0  0  0  0  0  0  0  0
   46.6030   33.9420   43.9640 C   0  0  0  0  0  0  0  0  0  0  0  0
   46.3450   33.4570   45.2050 N   0  0  0  0  0  0  0  0  0  0  0  0
   45.4120   33.9370   46.0370 C   0  0  0  0  0  0  0  0  0  0  0  0
   44.6590   34.9860   45.6270 N   0  0  0  0  0  0  0  0  0  0  0  0
   47.6600   33.3340   43.1380 C   0  0  0  0  0  0  0  0  0  0  0  0
   47.2270   32.8460   41.8210 C   0  0  0  0  0  0  0  0  0  0  0  0
   48.5610   32.5260   41.1830 C   0  0  0  0  0  0  0  0  0  0  0  0
   49.3910   33.7300   41.5690 C   0  0  0  0  0  0  0  0  0  0  0  0
   48.7420   34.3550   42.7880 C   0  0  0  0  0  0  0  0  0  0  0  0
   45.1980   33.3550   47.3600 C   0  0  0  0  0  0  0  0  0  0  0  0
   46.0210   32.1470   47.5520 C   0  0  0  0  0  0  0  0  0  0  0  0
   47.2490   32.3200   48.1570 C   0  0  0  0  0  0  0  0  0  0  0  0
   48.0300   31.1800   48.3390 C   0  0  0  0  0  0  0  0  0  0  0  0
   47.5790   29.9650   47.9320 N   0  0  0  0  0  0  0  0  0  0  0  0
   46.3570   29.8440   47.3390 C   0  0  0  0  0  0  0  0  0  0  0  0
   45.5860   30.9310   47.1530 N   0  0  0  0  0  0  0  0  0  0  0  0
   44.2135   36.3822   44.1104 H   0  0  0  0  0  0  0  0  0  0  0  0
   45.9688   35.4905   42.5301 H   0  0  0  0  0  0  0  0  0  0  0  0
   47.9996   32.4984   43.7676 H   0  0  0  0  0  0  0  0  0  0  0  0
   46.5954   31.9498   41.9093 H   0  0  0  0  0  0  0  0  0  0  0  0
   46.6099   33.5575   41.2526 H   0  0  0  0  0  0  0  0  0  0  0  0
   48.4703   32.4367   40.0904 H   0  0  0  0  0  0  0  0  0  0  0  0
   48.9907   31.5677   41.5103 H   0  0  0  0  0  0  0  0  0  0  0  0
   50.4182   33.4176   41.8083 H   0  0  0  0  0  0  0  0  0  0  0  0
   49.4376   34.4519   40.7403 H   0  0  0  0  0  0  0  0  0  0  0  0
   49.4641   34.4684   43.6101 H   0  0  0  0  0  0  0  0  0  0  0  0
   48.3517   35.3678   42.6096 H   0  0  0  0  0  0  0  0  0  0  0  0
   45.4666   34.0973   48.1260 H   0  0  0  0  0  0  0  0  0  0  0  0
   44.1388   33.0717   47.4481 H   0  0  0  0  0  0  0  0  0  0  0  0
   47.5958   33.3124   48.4809 H   0  0  0  0  0  0  0  0  0  0  0  0
   49.0179   31.2647   48.8153 H   0  0  0  0  0  0  0  0  0  0  0  0
   46.0009   28.8559   47.0121 H   0  0  0  0  0  0  0  0  0  0  0  0
  1  6  2  0
  2  3  2  0
  2  1  1  0
  3  4  1  0
  4  5  2  0
  5 12  1  0
  6  5  1  0
  7  3  1  0
  8  7  1  0
  9 10  1  0
  9  8  1  0
 10 11  1  0
 11  7  1  0
 12 13  1  0
 13 14  2  0
 14 15  1  0
 16 15  2  0
 17 16  1  0
 18 17  2  0
 18 13  1  0
  1 19  1  0
  2 20  1  0
  7 21  1  0
  8 22  1  0
  8 23  1  0
  9 24  1  0
  9 25  1  0
 10 26  1  0
 10 27  1  0
 11 28  1  0
 11 29  1  0
 12 30  1  0
 12 31  1  0
 14 32  1  0
 15 33  1  0
 17 34  1  0
M  ISO  8  19  14  20  14  21  13  22  13  23  13  24  13  25  13  26  13
M  ISO  8  27  13  28  13  29  13  30   8  31   8  32  14  33  14  34  14
M  END
>  <minimizedAffinity>  (1) 
-4.83582973

>  <minimizedRMSD>  (1) 
2.34649062

$$$$
