
     RDKit          3D

 40 43  0  0  0  0  0  0  0  0999 V2000
   47.2350   33.6470   38.8730 C   0  0  0  0  0  0  0  0  0  0  0  0
   48.5270   33.0790   38.8860 C   0  0  0  0  0  0  0  0  0  0  0  0
   48.7860   32.0410   39.8180 C   0  0  0  0  0  0  0  0  0  0  0  0
   47.7690   31.6750   40.6250 N   0  0  0  0  0  0  0  0  0  0  0  0
   46.5480   32.2300   40.5950 C   0  0  0  0  0  0  0  0  0  0  0  0
   46.2910   33.2090   39.7210 N   0  0  0  0  0  0  0  0  0  0  0  0
   50.0910   31.3880   39.9240 C   0  0  0  0  0  0  0  0  0  0  0  0
   50.9650   31.4770   38.7470 C   0  0  0  0  0  0  0  0  0  0  0  0
   52.2460   30.8740   39.2990 C   0  0  0  0  0  0  0  0  0  0  0  0
   52.3370   31.5490   40.6400 C   0  0  0  0  0  0  0  0  0  0  0  0
   50.9540   32.0310   41.0080 C   0  0  0  0  0  0  0  0  0  0  0  0
   45.4930   31.7640   41.4890 C   0  0  0  0  0  0  0  0  0  0  0  0
   45.4560   32.3480   42.8270 C   0  0  0  0  0  0  0  0  0  0  0  0
   45.7310   31.6960   44.0360 C   0  0  0  0  0  0  0  0  0  0  0  0
   45.6200   32.4860   45.1140 N   0  0  0  0  0  0  0  0  0  0  0  0
   45.2620   33.7040   44.6480 C   0  0  0  0  0  0  0  0  0  0  0  0
   45.0080   34.8970   45.2960 C   0  0  0  0  0  0  0  0  0  0  0  0
   44.6580   35.9980   44.5630 C   0  0  0  0  0  0  0  0  0  0  0  0
   44.5450   35.9670   43.1810 C   0  0  0  0  0  0  0  0  0  0  0  0
   44.8050   34.7530   42.5390 C   0  0  0  0  0  0  0  0  0  0  0  0
   45.1570   33.6370   43.2560 C   0  0  0  0  0  0  0  0  0  0  0  0
   47.0000   34.4539   38.1633 H   0  0  0  0  0  0  0  0  0  0  0  0
   49.3082   33.4299   38.1956 H   0  0  0  0  0  0  0  0  0  0  0  0
   49.7900   30.3462   40.1083 H   0  0  0  0  0  0  0  0  0  0  0  0
   51.1122   32.5199   38.4297 H   0  0  0  0  0  0  0  0  0  0  0  0
   50.5742   30.9746   37.8499 H   0  0  0  0  0  0  0  0  0  0  0  0
   52.1646   29.7819   39.4028 H   0  0  0  0  0  0  0  0  0  0  0  0
   53.1272   31.0255   38.6583 H   0  0  0  0  0  0  0  0  0  0  0  0
   52.6977   30.8348   41.3949 H   0  0  0  0  0  0  0  0  0  0  0  0
   53.0403   32.3938   40.5984 H   0  0  0  0  0  0  0  0  0  0  0  0
   50.8906   33.1285   40.9699 H   0  0  0  0  0  0  0  0  0  0  0  0
   50.6504   31.7642   42.0311 H   0  0  0  0  0  0  0  0  0  0  0  0
   44.5286   31.9790   41.0056 H   0  0  0  0  0  0  0  0  0  0  0  0
   45.7022   30.6958   41.6477 H   0  0  0  0  0  0  0  0  0  0  0  0
   46.0120   30.6342   44.0956 H   0  0  0  0  0  0  0  0  0  0  0  0
   45.7757   32.2194   46.0966 H   0  0  0  0  0  0  0  0  0  0  0  0
   45.0864   34.9614   46.3913 H   0  0  0  0  0  0  0  0  0  0  0  0
   44.4588   36.9431   45.0894 H   0  0  0  0  0  0  0  0  0  0  0  0
   44.2614   36.8643   42.6115 H   0  0  0  0  0  0  0  0  0  0  0  0
   44.7264   34.6912   41.4436 H   0  0  0  0  0  0  0  0  0  0  0  0
  1  2  2  0
  1  6  1  0
  2  3  1  0
  3  7  1  0
  3  4  2  0
  5  4  1  0
  5 12  1  0
  6  5  2  0
  7 11  1  0
  8  9  1  0
  8  7  1  0
  9 10  1  0
 10 11  1  0
 12 13  1  0
 13 21  1  0
 13 14  2  0
 14 15  1  0
 16 15  1  0
 16 17  2  0
 18 17  1  0
 19 18  2  0
 20 19  1  0
 20 21  2  0
 21 16  1  0
  1 22  1  0
  2 23  1  0
  7 24  1  0
  8 25  1  0
  8 26  1  0
  9 27  1  0
  9 28  1  0
 10 29  1  0
 10 30  1  0
 11 31  1  0
 11 32  1  0
 12 33  1  0
 12 34  1  0
 14 35  1  0
 15 36  1  0
 17 37  1  0
 18 38  1  0
 19 39  1  0
 20 40  1  0
M  ISO  8  22  14  23  14  24  13  25  13  26  13  27  13  28  13  29  13
M  ISO  8  30  13  31  13  32  13  33   8  34   8  35  14  36   9  37  14
M  ISO  3  38  14  39  14  40  14
M  END
>  <minimizedAffinity>  (1) 
-4.52480316

>  <minimizedRMSD>  (1) 
6.09075165

$$$$
