
     RDKit          3D

 43 46  0  0  0  0  0  0  0  0999 V2000
   45.2180   34.3730   45.0660 C   0  0  0  0  0  0  0  0  0  0  0  0
   45.8580   34.6250   43.8280 C   0  0  0  0  0  0  0  0  0  0  0  0
   47.0080   33.8430   43.5070 C   0  0  0  0  0  0  0  0  0  0  0  0
   47.4040   32.9170   44.4040 N   0  0  0  0  0  0  0  0  0  0  0  0
   46.7740   32.6920   45.5840 C   0  0  0  0  0  0  0  0  0  0  0  0
   45.6910   33.4150   45.9090 N   0  0  0  0  0  0  0  0  0  0  0  0
   47.7300   34.0310   42.2430 C   0  0  0  0  0  0  0  0  0  0  0  0
   46.8800   34.3030   41.0620 C   0  0  0  0  0  0  0  0  0  0  0  0
   47.9680   34.6040   40.0320 C   0  0  0  0  0  0  0  0  0  0  0  0
   48.8850   35.5040   40.8090 C   0  0  0  0  0  0  0  0  0  0  0  0
   48.6860   35.2000   42.2890 C   0  0  0  0  0  0  0  0  0  0  0  0
   47.2690   31.6640   46.4980 C   0  0  0  0  0  0  0  0  0  0  0  0
   46.4190   31.4120   47.6280 N   0  0  0  0  0  0  0  0  0  0  0  0
   46.2050   32.1280   48.7310 C   0  0  0  0  0  0  0  0  0  0  0  0
   45.2920   31.4840   49.5530 C   0  0  0  0  0  0  0  0  0  0  0  0
   44.9450   30.3460   48.9290 N   0  0  0  0  0  0  0  0  0  0  0  0
   45.6280   30.3090   47.7700 C   0  0  0  0  0  0  0  0  0  0  0  0
   45.4470   29.1970   46.8990 N   0  0  0  0  0  0  0  0  0  0  0  0
   44.2260   28.9260   46.3590 C   0  0  0  0  0  0  0  0  0  0  0  0
   44.0580   27.8430   45.5140 C   0  0  0  0  0  0  0  0  0  0  0  0
   45.1140   27.0130   45.1960 C   0  0  0  0  0  0  0  0  0  0  0  0
   44.9390   26.0400   44.4290 O   0  0  0  0  0  0  0  0  0  0  0  0
   46.3290   27.3040   45.7500 N   0  0  0  0  0  0  0  0  0  0  0  0
   46.4490   28.3610   46.5620 C   0  0  0  0  0  0  0  0  0  0  0  0
   47.5790   28.6420   47.0850 O   0  0  0  0  0  0  0  0  0  0  0  0
   44.3300   34.9573   45.3489 H   0  0  0  0  0  0  0  0  0  0  0  0
   45.4823   35.3956   43.1387 H   0  0  0  0  0  0  0  0  0  0  0  0
   48.2369   33.0609   42.1333 H   0  0  0  0  0  0  0  0  0  0  0  0
   46.2782   33.4268   40.7790 H   0  0  0  0  0  0  0  0  0  0  0  0
   46.1308   35.0970   41.1973 H   0  0  0  0  0  0  0  0  0  0  0  0
   47.5548   35.1171   39.1511 H   0  0  0  0  0  0  0  0  0  0  0  0
   48.4604   33.7069   39.6286 H   0  0  0  0  0  0  0  0  0  0  0  0
   49.9297   35.3111   40.5239 H   0  0  0  0  0  0  0  0  0  0  0  0
   48.6591   36.5597   40.5983 H   0  0  0  0  0  0  0  0  0  0  0  0
   48.2438   36.0575   42.8174 H   0  0  0  0  0  0  0  0  0  0  0  0
   49.6210   34.9877   42.8281 H   0  0  0  0  0  0  0  0  0  0  0  0
   47.3774   30.7260   45.9337 H   0  0  0  0  0  0  0  0  0  0  0  0
   48.2224   32.0365   46.9008 H   0  0  0  0  0  0  0  0  0  0  0  0
   46.6839   33.0920   48.9574 H   0  0  0  0  0  0  0  0  0  0  0  0
   44.9233   31.8369   50.5275 H   0  0  0  0  0  0  0  0  0  0  0  0
   43.3680   29.5722   46.5962 H   0  0  0  0  0  0  0  0  0  0  0  0
   43.0645   27.6399   45.0879 H   0  0  0  0  0  0  0  0  0  0  0  0
   47.1473   26.7134   45.5438 H   0  0  0  0  0  0  0  0  0  0  0  0
  1  6  2  0
  2  1  1  0
  3  2  2  0
  3  4  1  0
  4  5  2  0
  5  6  1  0
  5 12  1  0
  7 11  1  0
  7  3  1  0
  8  7  1  0
  9 10  1  0
  9  8  1  0
 10 11  1  0
 12 13  1  0
 13 17  1  0
 13 14  1  0
 14 15  2  0
 16 15  1  0
 17 16  2  0
 18 17  1  0
 19 18  1  0
 20 19  2  0
 21 20  1  0
 21 23  1  0
 22 21  2  0
 23 24  1  0
 24 18  1  0
 24 25  2  0
  1 26  1  0
  2 27  1  0
  7 28  1  0
  8 29  1  0
  8 30  1  0
  9 31  1  0
  9 32  1  0
 10 33  1  0
 10 34  1  0
 11 35  1  0
 11 36  1  0
 12 37  1  0
 12 38  1  0
 14 39  1  0
 15 40  1  0
 19 41  1  0
 20 42  1  0
 23 43  1  0
M  ISO  8  26  14  27  14  28  13  29  13  30  13  31  13  32  13  33  13
M  ISO  8  34  13  35  13  36  13  37   8  38   8  39  14  40  14  41  14
M  ISO  2  42  14  43   9
M  END
>  <minimizedAffinity>  (1) 
-6.20091724

>  <minimizedRMSD>  (1) 
3.2235918

$$$$
