
     RDKit          3D

 46 49  0  0  1  0  0  0  0  0999 V2000
   45.6190   34.1900   42.2130 C   0  0  0  0  0  0  0  0  0  0  0  0
   47.0100   34.2810   42.3060 C   0  0  0  0  0  0  0  0  0  0  0  0
   47.6280   33.9280   43.5300 C   0  0  0  0  0  0  0  0  0  0  0  0
   46.8630   33.5200   44.5520 N   0  0  0  0  0  0  0  0  0  0  0  0
   45.5210   33.4360   44.4520 C   0  0  0  0  0  0  0  0  0  0  0  0
   44.9320   33.7650   43.3070 N   0  0  0  0  0  0  0  0  0  0  0  0
   44.8430   34.5570   41.0810 C   0  0  0  0  0  0  0  0  0  0  0  0
   44.0130   33.3400   40.5740 C   0  0  0  0  0  0  0  0  0  0  0  0
   43.0470   34.0460   39.6210 C   0  0  0  0  0  0  0  0  0  0  0  0
   42.8630   35.4140   40.2340 C   0  0  0  0  0  0  0  0  0  0  0  0
   43.7110   35.4450   41.4900 C   0  0  0  0  0  0  0  0  0  0  0  0
   47.8260   34.7410   41.1730 C   0  0  1  0  0  0  0  0  0  0  0  0
   48.8530   35.7350   41.5460 C   0  0  0  0  0  0  0  0  0  0  0  0
   48.3450   33.5250   40.4500 C   0  0  0  0  0  0  0  0  0  0  0  0
   47.9200   33.4880   39.0630 N   0  0  0  0  0  0  0  0  0  0  0  0
   48.4300   34.4630   38.3130 N   0  0  0  0  0  0  0  0  0  0  0  0
   47.9730   34.3390   37.0580 C   0  0  0  0  0  0  0  0  0  0  0  0
   47.1430   33.2480   37.0060 C   0  0  0  0  0  0  0  0  0  0  0  0
   47.1370   32.7430   38.2740 C   0  0  0  0  0  0  0  0  0  0  0  0
   46.4470   31.5880   38.8610 C   0  0  0  0  0  0  0  0  0  0  0  0
   46.8100   30.2300   38.1910 C   0  0  0  0  0  0  0  0  0  0  0  0
   45.4350   30.8350   38.0580 C   0  0  0  0  0  0  0  0  0  0  0  0
   48.7208   33.9878   43.6406 H   0  0  0  0  0  0  0  0  0  0  0  0
   44.9199   33.0987   45.3093 H   0  0  0  0  0  0  0  0  0  0  0  0
   45.5585   34.9861   40.3641 H   0  0  0  0  0  0  0  0  0  0  0  0
   44.6433   32.6088   40.0467 H   0  0  0  0  0  0  0  0  0  0  0  0
   43.5292   32.7503   41.3666 H   0  0  0  0  0  0  0  0  0  0  0  0
   42.0883   33.5093   39.5677 H   0  0  0  0  0  0  0  0  0  0  0  0
   43.4275   34.0919   38.5899 H   0  0  0  0  0  0  0  0  0  0  0  0
   43.1966   36.1922   39.5318 H   0  0  0  0  0  0  0  0  0  0  0  0
   41.8048   35.6051   40.4657 H   0  0  0  0  0  0  0  0  0  0  0  0
   43.1684   35.0375   42.3558 H   0  0  0  0  0  0  0  0  0  0  0  0
   44.0137   36.4522   41.8123 H   0  0  0  0  0  0  0  0  0  0  0  0
   47.2020   35.3164   40.4733 H   0  0  0  0  0  0  0  0  0  0  0  0
   48.9198   35.7996   42.6421 H   0  0  0  0  0  0  0  0  0  0  0  0
   49.8267   35.4274   41.1368 H   0  0  0  0  0  0  0  0  0  0  0  0
   48.5774   36.7182   41.1368 H   0  0  0  0  0  0  0  0  0  0  0  0
   49.4444   33.5357   40.4833 H   0  0  0  0  0  0  0  0  0  0  0  0
   47.9375   32.6348   40.9515 H   0  0  0  0  0  0  0  0  0  0  0  0
   48.2214   34.9996   36.2143 H   0  0  0  0  0  0  0  0  0  0  0  0
   46.5993   32.8630   36.1307 H   0  0  0  0  0  0  0  0  0  0  0  0
   46.4275   32.0230   39.8711 H   0  0  0  0  0  0  0  0  0  0  0  0
   47.4896   30.2024   37.3265 H   0  0  0  0  0  0  0  0  0  0  0  0
   47.2166   29.2670   38.5334 H   0  0  0  0  0  0  0  0  0  0  0  0
   45.1083   31.2325   37.0857 H   0  0  0  0  0  0  0  0  0  0  0  0
   44.4176   30.4697   38.2618 H   0  0  0  0  0  0  0  0  0  0  0  0
  1  2  1  0
  1  6  2  0
  2  3  2  0
  3  4  1  0
  5  4  2  0
  6  5  1  0
  7 11  1  0
  7  1  1  0
  8  7  1  0
  9 10  1  0
  9  8  1  0
 10 11  1  0
 12 13  1  0
 12  2  1  0
 14 12  1  0
 15 14  1  0
 16 15  1  0
 17 16  2  0
 18 17  1  0
 18 19  2  0
 19 20  1  0
 19 15  1  0
 21 20  1  0
 22 21  1  0
 22 20  1  0
  3 23  1  0
  5 24  1  0
  7 25  1  0
  8 26  1  0
  8 27  1  0
  9 28  1  0
  9 29  1  0
 10 30  1  0
 10 31  1  0
 11 32  1  0
 11 33  1  0
 12 34  1  6
 13 35  1  0
 13 36  1  0
 13 37  1  0
 14 38  1  0
 14 39  1  0
 17 40  1  0
 18 41  1  0
 20 42  1  0
 21 43  1  0
 21 44  1  0
 22 45  1  0
 22 46  1  0
M  ISO  8  23  14  24  14  25  13  26  13  27  13  28  13  29  13  30  13
M  ISO  8  31  13  32  13  33  13  34   8  35   8  36   8  37   8  38   8
M  ISO  8  39   8  40  14  41  14  42  13  43  13  44  13  45  13  46  13
M  END
>  <minimizedAffinity>  (1) 
-4.9465766

>  <minimizedRMSD>  (1) 
0.876032293

$$$$
