
     RDKit          3D

 33 35  0  0  0  0  0  0  0  0999 V2000
   45.1340   35.0270   44.4780 C   0  0  0  0  0  0  0  0  0  0  0  0
   45.9490   35.1980   43.3340 C   0  0  0  0  0  0  0  0  0  0  0  0
   46.7570   34.1050   42.9270 C   0  0  0  0  0  0  0  0  0  0  0  0
   46.6900   32.9690   43.6690 N   0  0  0  0  0  0  0  0  0  0  0  0
   45.8990   32.8310   44.7610 C   0  0  0  0  0  0  0  0  0  0  0  0
   45.1300   33.8560   45.1590 N   0  0  0  0  0  0  0  0  0  0  0  0
   47.6320   34.1720   41.7620 C   0  0  0  0  0  0  0  0  0  0  0  0
   46.9670   34.1760   40.4540 C   0  0  0  0  0  0  0  0  0  0  0  0
   48.1400   34.4610   39.5330 C   0  0  0  0  0  0  0  0  0  0  0  0
   48.8740   35.5350   40.2840 C   0  0  0  0  0  0  0  0  0  0  0  0
   48.4570   35.4570   41.7420 C   0  0  0  0  0  0  0  0  0  0  0  0
   45.8680   31.5680   45.4950 C   0  0  0  0  0  0  0  0  0  0  0  0
   46.2370   31.6860   46.8890 N   0  0  0  0  0  0  0  0  0  0  0  0
   47.4330   31.8030   47.4910 C   0  0  0  0  0  0  0  0  0  0  0  0
   47.2650   31.8850   48.8590 C   0  0  0  0  0  0  0  0  0  0  0  0
   45.9440   31.8180   49.0960 N   0  0  0  0  0  0  0  0  0  0  0  0
   45.3420   31.6990   47.9050 C   0  0  0  0  0  0  0  0  0  0  0  0
   44.4956   35.8555   44.8187 H   0  0  0  0  0  0  0  0  0  0  0  0
   45.9559   36.1473   42.7783 H   0  0  0  0  0  0  0  0  0  0  0  0
   48.2230   33.2523   41.8839 H   0  0  0  0  0  0  0  0  0  0  0  0
   46.5066   33.2020   40.2320 H   0  0  0  0  0  0  0  0  0  0  0  0
   46.1387   34.8948   40.3688 H   0  0  0  0  0  0  0  0  0  0  0  0
   47.7988   34.8217   38.5514 H   0  0  0  0  0  0  0  0  0  0  0  0
   48.7546   33.5761   39.3113 H   0  0  0  0  0  0  0  0  0  0  0  0
   49.9590   35.3763   40.1971 H   0  0  0  0  0  0  0  0  0  0  0  0
   48.6315   36.5247   39.8697 H   0  0  0  0  0  0  0  0  0  0  0  0
   49.3313   35.3821   42.4053 H   0  0  0  0  0  0  0  0  0  0  0  0
   47.9105   36.3431   42.0973 H   0  0  0  0  0  0  0  0  0  0  0  0
   44.8471   31.1620   45.4410 H   0  0  0  0  0  0  0  0  0  0  0  0
   46.6125   30.9091   45.0243 H   0  0  0  0  0  0  0  0  0  0  0  0
   48.4019   31.8295   46.9710 H   0  0  0  0  0  0  0  0  0  0  0  0
   48.0609   31.9859   49.6115 H   0  0  0  0  0  0  0  0  0  0  0  0
   44.2532   31.6213   47.7691 H   0  0  0  0  0  0  0  0  0  0  0  0
  1  6  2  0
  2  1  1  0
  3  2  2  0
  3  4  1  0
  4  5  2  0
  5  6  1  0
  5 12  1  0
  7  3  1  0
  8  7  1  0
  9 10  1  0
  9  8  1  0
 10 11  1  0
 11  7  1  0
 12 13  1  0
 13 14  1  0
 13 17  1  0
 14 15  2  0
 15 16  1  0
 17 16  2  0
  1 18  1  0
  2 19  1  0
  7 20  1  0
  8 21  1  0
  8 22  1  0
  9 23  1  0
  9 24  1  0
 10 25  1  0
 10 26  1  0
 11 27  1  0
 11 28  1  0
 12 29  1  0
 12 30  1  0
 14 31  1  0
 15 32  1  0
 17 33  1  0
M  ISO  8  18  14  19  14  20  13  21  13  22  13  23  13  24  13  25  13
M  ISO  8  26  13  27  13  28  13  29   8  30   8  31  14  32  14  33  14
M  END
>  <minimizedAffinity>  (1) 
-4.68346977

>  <minimizedRMSD>  (1) 
1.55487967

$$$$
