
     RDKit          3D

 46 50  0  0  0  0  0  0  0  0999 V2000
   45.1180   34.5310   45.1180 C   0  0  0  0  0  0  0  0  0  0  0  0
   45.7300   34.7120   43.8530 C   0  0  0  0  0  0  0  0  0  0  0  0
   46.8980   33.9380   43.5720 C   0  0  0  0  0  0  0  0  0  0  0  0
   47.3390   33.0880   44.5250 N   0  0  0  0  0  0  0  0  0  0  0  0
   46.7320   32.9360   45.7270 C   0  0  0  0  0  0  0  0  0  0  0  0
   45.6330   33.6480   46.0220 N   0  0  0  0  0  0  0  0  0  0  0  0
   47.5970   34.0490   42.2870 C   0  0  0  0  0  0  0  0  0  0  0  0
   46.7260   34.2700   41.1090 C   0  0  0  0  0  0  0  0  0  0  0  0
   47.7860   34.5070   40.0430 C   0  0  0  0  0  0  0  0  0  0  0  0
   48.7540   35.4160   40.7530 C   0  0  0  0  0  0  0  0  0  0  0  0
   48.5600   35.2160   42.2540 C   0  0  0  0  0  0  0  0  0  0  0  0
   47.2710   31.9900   46.7070 C   0  0  0  0  0  0  0  0  0  0  0  0
   46.3510   31.6140   47.7430 N   0  0  0  0  0  0  0  0  0  0  0  0
   46.0640   32.1960   48.9080 C   0  0  0  0  0  0  0  0  0  0  0  0
   45.1020   31.4680   49.5890 C   0  0  0  0  0  0  0  0  0  0  0  0
   44.8030   30.4230   48.8150 N   0  0  0  0  0  0  0  0  0  0  0  0
   45.5570   30.5140   47.7040 C   0  0  0  0  0  0  0  0  0  0  0  0
   45.4270   29.5050   46.7000 N   0  0  0  0  0  0  0  0  0  0  0  0
   44.4330   28.6480   46.3810 C   0  0  0  0  0  0  0  0  0  0  0  0
   44.8100   27.8870   45.3370 N   0  0  0  0  0  0  0  0  0  0  0  0
   46.0370   28.2100   44.9420 C   0  0  0  0  0  0  0  0  0  0  0  0
   46.9180   27.7940   43.9650 C   0  0  0  0  0  0  0  0  0  0  0  0
   48.1420   28.3820   43.8570 N   0  0  0  0  0  0  0  0  0  0  0  0
   48.4980   29.3650   44.6970 C   0  0  0  0  0  0  0  0  0  0  0  0
   47.6460   29.7700   45.6460 N   0  0  0  0  0  0  0  0  0  0  0  0
   46.4140   29.2220   45.8010 C   0  0  0  0  0  0  0  0  0  0  0  0
   46.4750   26.7400   43.1000 N   0  0  0  0  0  0  0  0  0  0  0  0
   44.2177   35.1087   45.3742 H   0  0  0  0  0  0  0  0  0  0  0  0
   45.3223   35.4201   43.1165 H   0  0  0  0  0  0  0  0  0  0  0  0
   48.0933   33.0697   42.2185 H   0  0  0  0  0  0  0  0  0  0  0  0
   46.1103   33.3866   40.8842 H   0  0  0  0  0  0  0  0  0  0  0  0
   45.9896   35.0795   41.2205 H   0  0  0  0  0  0  0  0  0  0  0  0
   47.3571   34.9960   39.1559 H   0  0  0  0  0  0  0  0  0  0  0  0
   48.2456   33.5822   39.6642 H   0  0  0  0  0  0  0  0  0  0  0  0
   49.7856   35.1590   40.4707 H   0  0  0  0  0  0  0  0  0  0  0  0
   48.5721   36.4651   40.4766 H   0  0  0  0  0  0  0  0  0  0  0  0
   49.5091   34.9667   42.7511 H   0  0  0  0  0  0  0  0  0  0  0  0
   48.1951   36.1106   42.7798 H   0  0  0  0  0  0  0  0  0  0  0  0
   47.5766   31.0787   46.1721 H   0  0  0  0  0  0  0  0  0  0  0  0
   48.1093   32.4999   47.2043 H   0  0  0  0  0  0  0  0  0  0  0  0
   46.5261   33.1237   49.2765 H   0  0  0  0  0  0  0  0  0  0  0  0
   44.6703   31.7045   50.5727 H   0  0  0  0  0  0  0  0  0  0  0  0
   43.4632   28.5821   46.8960 H   0  0  0  0  0  0  0  0  0  0  0  0
   49.4875   29.8369   44.6061 H   0  0  0  0  0  0  0  0  0  0  0  0
   47.0937   26.3919   42.3538 H   0  0  0  0  0  0  0  0  0  0  0  0
   45.5380   26.3309   43.2248 H   0  0  0  0  0  0  0  0  0  0  0  0
  1  6  2  0
  2  1  1  0
  3  2  2  0
  3  4  1  0
  4  5  2  0
  5  6  1  0
  5 12  1  0
  7  3  1  0
  8  7  1  0
  9 10  1  0
  9  8  1  0
 10 11  1  0
 11  7  1  0
 12 13  1  0
 13 14  1  0
 14 15  2  0
 16 15  1  0
 17 13  1  0
 17 16  2  0
 18 17  1  0
 19 18  1  0
 20 19  2  0
 21 20  1  0
 21 26  2  0
 22 21  1  0
 23 22  2  0
 23 24  1  0
 24 25  2  0
 25 26  1  0
 26 18  1  0
 27 22  1  0
  1 28  1  0
  2 29  1  0
  7 30  1  0
  8 31  1  0
  8 32  1  0
  9 33  1  0
  9 34  1  0
 10 35  1  0
 10 36  1  0
 11 37  1  0
 11 38  1  0
 12 39  1  0
 12 40  1  0
 14 41  1  0
 15 42  1  0
 19 43  1  0
 24 44  1  0
 27 45  1  0
 27 46  1  0
M  ISO  8  28  14  29  14  30  13  31  13  32  13  33  13  34  13  35  13
M  ISO  8  36  13  37  13  38  13  39   8  40   8  41  14  42  14  43  14
M  ISO  1  44  14
M  END
>  <minimizedAffinity>  (1) 
-6.11449957

>  <minimizedRMSD>  (1) 
3.5790267

$$$$
