
     RDKit          3D

 43 46  0  0  0  0  0  0  0  0999 V2000
   45.2180   34.3800   45.0770 C   0  0  0  0  0  0  0  0  0  0  0  0
   45.8940   34.6590   43.8650 C   0  0  0  0  0  0  0  0  0  0  0  0
   46.9920   33.8190   43.5100 C   0  0  0  0  0  0  0  0  0  0  0  0
   47.3140   32.8140   44.3500 N   0  0  0  0  0  0  0  0  0  0  0  0
   46.6460   32.5670   45.5090 C   0  0  0  0  0  0  0  0  0  0  0  0
   45.6170   33.3410   45.8590 N   0  0  0  0  0  0  0  0  0  0  0  0
   47.7440   34.0330   42.2680 C   0  0  0  0  0  0  0  0  0  0  0  0
   46.9200   34.2860   41.0640 C   0  0  0  0  0  0  0  0  0  0  0  0
   48.0190   34.6380   40.0690 C   0  0  0  0  0  0  0  0  0  0  0  0
   48.9170   35.5200   40.8710 C   0  0  0  0  0  0  0  0  0  0  0  0
   48.6630   35.2320   42.3450 C   0  0  0  0  0  0  0  0  0  0  0  0
   47.0610   31.4510   46.3600 C   0  0  0  0  0  0  0  0  0  0  0  0
   46.3520   31.3560   47.6060 N   0  0  0  0  0  0  0  0  0  0  0  0
   46.2750   32.2100   48.6270 C   0  0  0  0  0  0  0  0  0  0  0  0
   45.4650   31.6880   49.6250 C   0  0  0  0  0  0  0  0  0  0  0  0
   45.0420   30.4880   49.1950 N   0  0  0  0  0  0  0  0  0  0  0  0
   45.5820   30.2950   47.9740 C   0  0  0  0  0  0  0  0  0  0  0  0
   45.3340   29.0690   47.1850 C   0  0  0  0  0  0  0  0  0  0  0  0
   46.1610   27.9720   47.3060 C   0  0  0  0  0  0  0  0  0  0  0  0
   45.8640   26.8660   46.5370 C   0  0  0  0  0  0  0  0  0  0  0  0
   44.8030   26.7910   45.6640 C   0  0  0  0  0  0  0  0  0  0  0  0
   44.0410   27.9390   45.6190 C   0  0  0  0  0  0  0  0  0  0  0  0
   44.2300   29.0900   46.3250 C   0  0  0  0  0  0  0  0  0  0  0  0
   44.3677   35.0051   45.3873 H   0  0  0  0  0  0  0  0  0  0  0  0
   45.5840   35.4939   43.2194 H   0  0  0  0  0  0  0  0  0  0  0  0
   48.2824   33.0788   42.1699 H   0  0  0  0  0  0  0  0  0  0  0  0
   46.3600   33.3908   40.7557 H   0  0  0  0  0  0  0  0  0  0  0  0
   46.1394   35.0514   41.1861 H   0  0  0  0  0  0  0  0  0  0  0  0
   47.6102   35.1735   39.1995 H   0  0  0  0  0  0  0  0  0  0  0  0
   48.5299   33.7571   39.6530 H   0  0  0  0  0  0  0  0  0  0  0  0
   49.9676   35.3068   40.6243 H   0  0  0  0  0  0  0  0  0  0  0  0
   48.7143   36.5777   40.6471 H   0  0  0  0  0  0  0  0  0  0  0  0
   48.1723   36.0823   42.8412 H   0  0  0  0  0  0  0  0  0  0  0  0
   49.5777   35.0572   42.9304 H   0  0  0  0  0  0  0  0  0  0  0  0
   46.9023   30.5162   45.8023 H   0  0  0  0  0  0  0  0  0  0  0  0
   48.1169   31.6268   46.6135 H   0  0  0  0  0  0  0  0  0  0  0  0
   46.7801   33.1862   48.6715 H   0  0  0  0  0  0  0  0  0  0  0  0
   45.2168   32.1654   50.5844 H   0  0  0  0  0  0  0  0  0  0  0  0
   47.0234   27.9787   47.9888 H   0  0  0  0  0  0  0  0  0  0  0  0
   46.5182   25.9863   46.6276 H   0  0  0  0  0  0  0  0  0  0  0  0
   44.5835   25.8990   45.0589 H   0  0  0  0  0  0  0  0  0  0  0  0
   43.1805   27.9247   44.9339 H   0  0  0  0  0  0  0  0  0  0  0  0
   43.5689   29.9636   46.2267 H   0  0  0  0  0  0  0  0  0  0  0  0
  1  6  2  0
  2  1  1  0
  3  2  2  0
  3  4  1  0
  4  5  2  0
  5  6  1  0
  5 12  1  0
  7 11  1  0
  7  3  1  0
  8  7  1  0
  9 10  1  0
  9  8  1  0
 10 11  1  0
 12 13  1  0
 13 17  1  0
 13 14  1  0
 14 15  2  0
 16 15  1  0
 17 16  2  0
 18 19  2  0
 18 17  1  0
 20 19  1  0
 21 20  2  0
 22 21  1  0
 22 23  2  0
 23 18  1  0
  1 24  1  0
  2 25  1  0
  7 26  1  0
  8 27  1  0
  8 28  1  0
  9 29  1  0
  9 30  1  0
 10 31  1  0
 10 32  1  0
 11 33  1  0
 11 34  1  0
 12 35  1  0
 12 36  1  0
 14 37  1  0
 15 38  1  0
 19 39  1  0
 20 40  1  0
 21 41  1  0
 22 42  1  0
 23 43  1  0
M  ISO  8  24  14  25  14  26  13  27  13  28  13  29  13  30  13  31  13
M  ISO  8  32  13  33  13  34  13  35   8  36   8  37  14  38  14  39  14
M  ISO  4  40  14  41  14  42  14  43  14
M  END
>  <minimizedAffinity>  (1) 
-5.8910017

>  <minimizedRMSD>  (1) 
2.69954824

$$$$
