
     RDKit          3D

 40 43  0  0  0  0  0  0  0  0999 V2000
   45.5200   34.0630   45.1160 C   0  0  0  0  0  0  0  0  0  0  0  0
   46.2500   34.4990   43.9800 C   0  0  0  0  0  0  0  0  0  0  0  0
   47.0010   33.5160   43.2680 C   0  0  0  0  0  0  0  0  0  0  0  0
   46.9690   32.2440   43.7170 N   0  0  0  0  0  0  0  0  0  0  0  0
   46.2580   31.8560   44.8110 C   0  0  0  0  0  0  0  0  0  0  0  0
   45.5470   32.7540   45.4960 N   0  0  0  0  0  0  0  0  0  0  0  0
   47.7830   33.8720   42.0760 C   0  0  0  0  0  0  0  0  0  0  0  0
   46.9840   34.1910   40.8710 C   0  0  0  0  0  0  0  0  0  0  0  0
   48.0970   34.6680   39.9430 C   0  0  0  0  0  0  0  0  0  0  0  0
   48.8950   35.5490   40.8550 C   0  0  0  0  0  0  0  0  0  0  0  0
   48.6370   35.1010   42.2900 C   0  0  0  0  0  0  0  0  0  0  0  0
   46.2700   30.4550   45.2330 C   0  0  0  0  0  0  0  0  0  0  0  0
   47.4540   30.0510   45.9370 N   0  0  0  0  0  0  0  0  0  0  0  0
   48.5910   29.5180   45.4860 C   0  0  0  0  0  0  0  0  0  0  0  0
   49.4610   29.2910   46.5430 C   0  0  0  0  0  0  0  0  0  0  0  0
   48.8230   29.7020   47.6650 N   0  0  0  0  0  0  0  0  0  0  0  0
   47.6180   30.1550   47.2770 C   0  0  0  0  0  0  0  0  0  0  0  0
   46.5970   30.7020   48.2000 C   0  0  0  0  0  0  0  0  0  0  0  0
   45.3920   30.1640   48.6670 C   0  0  0  0  0  0  0  0  0  0  0  0
   44.8970   31.1530   49.4960 C   0  0  0  0  0  0  0  0  0  0  0  0
   45.7480   32.2130   49.5270 N   0  0  0  0  0  0  0  0  0  0  0  0
   46.7920   31.9410   48.7340 N   0  0  0  0  0  0  0  0  0  0  0  0
   44.9276   34.7870   45.6947 H   0  0  0  0  0  0  0  0  0  0  0  0
   46.2376   35.5517   43.6611 H   0  0  0  0  0  0  0  0  0  0  0  0
   48.3727   32.9576   41.9144 H   0  0  0  0  0  0  0  0  0  0  0  0
   46.4713   33.3030   40.4728 H   0  0  0  0  0  0  0  0  0  0  0  0
   46.1686   34.9120   41.0299 H   0  0  0  0  0  0  0  0  0  0  0  0
   47.6934   35.2339   39.0904 H   0  0  0  0  0  0  0  0  0  0  0  0
   48.6786   33.8532   39.4871 H   0  0  0  0  0  0  0  0  0  0  0  0
   49.9658   35.4550   40.6217 H   0  0  0  0  0  0  0  0  0  0  0  0
   48.5996   36.6005   40.7246 H   0  0  0  0  0  0  0  0  0  0  0  0
   48.0965   35.8711   42.8599 H   0  0  0  0  0  0  0  0  0  0  0  0
   49.5517   34.9145   42.8718 H   0  0  0  0  0  0  0  0  0  0  0  0
   45.4055   30.2883   45.8925 H   0  0  0  0  0  0  0  0  0  0  0  0
   46.2348   29.8530   44.3130 H   0  0  0  0  0  0  0  0  0  0  0  0
   48.8070   29.2918   44.4314 H   0  0  0  0  0  0  0  0  0  0  0  0
   50.4717   28.8611   46.4817 H   0  0  0  0  0  0  0  0  0  0  0  0
   44.9454   29.1869   48.4305 H   0  0  0  0  0  0  0  0  0  0  0  0
   43.9496   31.0913   50.0515 H   0  0  0  0  0  0  0  0  0  0  0  0
   45.6125   33.0785   50.0687 H   0  0  0  0  0  0  0  0  0  0  0  0
  1  6  2  0
  2  1  1  0
  3  4  1  0
  3  2  2  0
  4  5  2  0
  5 12  1  0
  5  6  1  0
  7 11  1  0
  7  3  1  0
  8  7  1  0
  9 10  1  0
  9  8  1  0
 10 11  1  0
 12 13  1  0
 13 17  1  0
 14 13  1  0
 14 15  2  0
 15 16  1  0
 17 16  2  0
 17 18  1  0
 18 19  1  0
 18 22  2  0
 19 20  2  0
 20 21  1  0
 22 21  1  0
  1 23  1  0
  2 24  1  0
  7 25  1  0
  8 26  1  0
  8 27  1  0
  9 28  1  0
  9 29  1  0
 10 30  1  0
 10 31  1  0
 11 32  1  0
 11 33  1  0
 12 34  1  0
 12 35  1  0
 14 36  1  0
 15 37  1  0
 19 38  1  0
 20 39  1  0
 21 40  1  0
M  ISO  8  23  14  24  14  25  13  26  13  27  13  28  13  29  13  30  13
M  ISO  8  31  13  32  13  33  13  34   8  35   8  36  14  37  14  38  14
M  ISO  2  39  14  40   9
M  END
>  <minimizedAffinity>  (1) 
-5.46278238

>  <minimizedRMSD>  (1) 
2.41648555

$$$$
