
     RDKit          3D

 36 38  0  0  0  0  0  0  0  0999 V2000
   45.2850   34.3710   45.4450 C   0  0  0  0  0  0  0  0  0  0  0  0
   46.0110   34.6620   44.2630 C   0  0  0  0  0  0  0  0  0  0  0  0
   46.8270   33.6290   43.7120 C   0  0  0  0  0  0  0  0  0  0  0  0
   46.8370   32.4560   44.3720 N   0  0  0  0  0  0  0  0  0  0  0  0
   46.1460   32.1820   45.4930 C   0  0  0  0  0  0  0  0  0  0  0  0
   45.3690   33.1500   46.0260 N   0  0  0  0  0  0  0  0  0  0  0  0
   47.5980   33.8410   42.5060 C   0  0  0  0  0  0  0  0  0  0  0  0
   46.8390   34.3280   41.3290 C   0  0  0  0  0  0  0  0  0  0  0  0
   47.9940   34.5730   40.3570 C   0  0  0  0  0  0  0  0  0  0  0  0
   48.9840   35.2680   41.2430 C   0  0  0  0  0  0  0  0  0  0  0  0
   48.7000   34.8590   42.6730 C   0  0  0  0  0  0  0  0  0  0  0  0
   46.2270   30.8670   46.1260 C   0  0  0  0  0  0  0  0  0  0  0  0
   47.1890   30.7760   47.1870 N   0  0  0  0  0  0  0  0  0  0  0  0
   48.4430   30.2680   47.1350 C   0  0  0  0  0  0  0  0  0  0  0  0
   49.0420   30.3640   48.3760 C   0  0  0  0  0  0  0  0  0  0  0  0
   48.1470   30.9370   49.1960 N   0  0  0  0  0  0  0  0  0  0  0  0
   47.0530   31.1690   48.4550 C   0  0  0  0  0  0  0  0  0  0  0  0
   45.8540   31.7890   49.0070 C   0  0  0  0  0  0  0  0  0  0  0  0
   44.9670   31.2180   49.6640 O   0  0  0  0  0  0  0  0  0  0  0  0
   45.5520   33.1350   48.8610 O   0  0  0  0  0  0  0  0  0  0  0  0
   44.6463   35.1450   45.8956 H   0  0  0  0  0  0  0  0  0  0  0  0
   45.9476   35.6513   43.7862 H   0  0  0  0  0  0  0  0  0  0  0  0
   47.9724   32.8222   42.3272 H   0  0  0  0  0  0  0  0  0  0  0  0
   46.1398   33.5680   40.9501 H   0  0  0  0  0  0  0  0  0  0  0  0
   46.1972   35.2011   41.5182 H   0  0  0  0  0  0  0  0  0  0  0  0
   47.6850   35.2143   39.5184 H   0  0  0  0  0  0  0  0  0  0  0  0
   48.3809   33.6608   39.8793 H   0  0  0  0  0  0  0  0  0  0  0  0
   50.0062   34.9708   40.9657 H   0  0  0  0  0  0  0  0  0  0  0  0
   48.8955   36.3589   41.1328 H   0  0  0  0  0  0  0  0  0  0  0  0
   48.3618   35.7169   43.2726 H   0  0  0  0  0  0  0  0  0  0  0  0
   49.5821   34.4692   43.2022 H   0  0  0  0  0  0  0  0  0  0  0  0
   45.2368   30.6223   46.5380 H   0  0  0  0  0  0  0  0  0  0  0  0
   46.5538   30.1637   45.3459 H   0  0  0  0  0  0  0  0  0  0  0  0
   48.9149   29.8419   46.2374 H   0  0  0  0  0  0  0  0  0  0  0  0
   50.0573   30.0342   48.6413 H   0  0  0  0  0  0  0  0  0  0  0  0
   44.7225   33.5021   49.2577 H   0  0  0  0  0  0  0  0  0  0  0  0
  1  6  2  0
  2  1  1  0
  3  2  2  0
  3  4  1  0
  4  5  2  0
  5  6  1  0
  5 12  1  0
  7 11  1  0
  7  3  1  0
  8  7  1  0
  9 10  1  0
  9  8  1  0
 10 11  1  0
 12 13  1  0
 13 17  1  0
 14 13  1  0
 14 15  2  0
 15 16  1  0
 17 18  1  0
 17 16  2  0
 18 19  2  0
 20 18  1  0
  1 21  1  0
  2 22  1  0
  7 23  1  0
  8 24  1  0
  8 25  1  0
  9 26  1  0
  9 27  1  0
 10 28  1  0
 10 29  1  0
 11 30  1  0
 11 31  1  0
 12 32  1  0
 12 33  1  0
 14 34  1  0
 15 35  1  0
 20 36  1  0
M  ISO  8  21  14  22  14  23  13  24  13  25  13  26  13  27  13  28  13
M  ISO  8  29  13  30  13  31  13  32   8  33   8  34  14  35  14  36   3
M  END
>  <minimizedAffinity>  (1) 
-5.34130573

>  <minimizedRMSD>  (1) 
1.60953486

$$$$
