
     RDKit          3D

 40 43  0  0  0  0  0  0  0  0999 V2000
   45.1240   34.9460   44.5930 C   0  0  0  0  0  0  0  0  0  0  0  0
   45.9340   35.1290   43.4490 C   0  0  0  0  0  0  0  0  0  0  0  0
   46.7680   34.0520   43.0280 C   0  0  0  0  0  0  0  0  0  0  0  0
   46.7380   32.9080   43.7520 N   0  0  0  0  0  0  0  0  0  0  0  0
   45.9430   32.7610   44.8530 C   0  0  0  0  0  0  0  0  0  0  0  0
   45.1520   33.7680   45.2620 N   0  0  0  0  0  0  0  0  0  0  0  0
   47.6180   34.1860   41.8540 C   0  0  0  0  0  0  0  0  0  0  0  0
   46.9300   34.1600   40.5480 C   0  0  0  0  0  0  0  0  0  0  0  0
   48.0960   34.4680   39.6200 C   0  0  0  0  0  0  0  0  0  0  0  0
   48.8530   35.5120   40.3730 C   0  0  0  0  0  0  0  0  0  0  0  0
   48.4200   35.4590   41.8320 C   0  0  0  0  0  0  0  0  0  0  0  0
   45.9600   31.4920   45.5840 C   0  0  0  0  0  0  0  0  0  0  0  0
   46.6660   31.5300   46.8340 N   0  0  0  0  0  0  0  0  0  0  0  0
   47.3170   32.5270   47.4360 C   0  0  0  0  0  0  0  0  0  0  0  0
   47.8490   32.0930   48.6410 C   0  0  0  0  0  0  0  0  0  0  0  0
   47.5070   30.7920   48.7680 N   0  0  0  0  0  0  0  0  0  0  0  0
   46.8040   30.4800   47.6810 C   0  0  0  0  0  0  0  0  0  0  0  0
   46.2920   29.0970   47.5470 C   0  0  0  0  0  0  0  0  0  0  0  0
   45.0760   28.6110   47.8150 C   0  0  0  0  0  0  0  0  0  0  0  0
   44.8040   27.2820   47.6200 C   0  0  0  0  0  0  0  0  0  0  0  0
   45.8880   26.5070   47.1280 C   0  0  0  0  0  0  0  0  0  0  0  0
   47.2550   27.7750   46.9780 S   0  0  0  0  0  0  0  0  0  0  0  0
   44.4708   35.7601   44.9402 H   0  0  0  0  0  0  0  0  0  0  0  0
   45.9211   36.0801   42.8965 H   0  0  0  0  0  0  0  0  0  0  0  0
   48.2468   33.2905   41.9667 H   0  0  0  0  0  0  0  0  0  0  0  0
   46.4926   33.1728   40.3381 H   0  0  0  0  0  0  0  0  0  0  0  0
   46.0785   34.8511   40.4624 H   0  0  0  0  0  0  0  0  0  0  0  0
   47.7413   34.8558   38.6537 H   0  0  0  0  0  0  0  0  0  0  0  0
   48.7020   33.5834   39.3746 H   0  0  0  0  0  0  0  0  0  0  0  0
   49.9326   35.3149   40.2982 H   0  0  0  0  0  0  0  0  0  0  0  0
   48.6457   36.5071   39.9525 H   0  0  0  0  0  0  0  0  0  0  0  0
   49.2862   35.4012   42.5075 H   0  0  0  0  0  0  0  0  0  0  0  0
   47.8661   36.3470   42.1706 H   0  0  0  0  0  0  0  0  0  0  0  0
   44.9193   31.1992   45.7868 H   0  0  0  0  0  0  0  0  0  0  0  0
   46.4949   30.7728   44.9463 H   0  0  0  0  0  0  0  0  0  0  0  0
   47.4173   33.5462   47.0345 H   0  0  0  0  0  0  0  0  0  0  0  0
   48.4351   32.6912   49.3542 H   0  0  0  0  0  0  0  0  0  0  0  0
   44.2900   29.2808   48.1938 H   0  0  0  0  0  0  0  0  0  0  0  0
   43.8160   26.8462   47.8297 H   0  0  0  0  0  0  0  0  0  0  0  0
   45.9164   25.4325   46.8942 H   0  0  0  0  0  0  0  0  0  0  0  0
  1  6  2  0
  2  1  1  0
  3  2  2  0
  3  4  1  0
  4  5  2  0
  5  6  1  0
  5 12  1  0
  7  3  1  0
  8  7  1  0
  9 10  1  0
  9  8  1  0
 10 11  1  0
 11  7  1  0
 12 13  1  0
 13 14  1  0
 13 17  1  0
 14 15  2  0
 15 16  1  0
 17 16  2  0
 18 17  1  0
 18 19  2  0
 20 19  1  0
 21 20  2  0
 22 21  1  0
 22 18  1  0
  1 23  1  0
  2 24  1  0
  7 25  1  0
  8 26  1  0
  8 27  1  0
  9 28  1  0
  9 29  1  0
 10 30  1  0
 10 31  1  0
 11 32  1  0
 11 33  1  0
 12 34  1  0
 12 35  1  0
 14 36  1  0
 15 37  1  0
 19 38  1  0
 20 39  1  0
 21 40  1  0
M  ISO  8  23  14  24  14  25  13  26  13  27  13  28  13  29  13  30  13
M  ISO  8  31  13  32  13  33  13  34   8  35   8  36  14  37  14  38  14
M  ISO  2  39  14  40  14
M  END
>  <minimizedAffinity>  (1) 
-5.28058147

>  <minimizedRMSD>  (1) 
2.53024554

$$$$
