
     RDKit          3D

 43 46  0  0  0  0  0  0  0  0999 V2000
   45.1190   34.8370   44.6340 C   0  0  0  0  0  0  0  0  0  0  0  0
   45.9210   35.0520   43.4850 C   0  0  0  0  0  0  0  0  0  0  0  0
   46.7800   33.9860   43.0750 C   0  0  0  0  0  0  0  0  0  0  0  0
   46.7730   32.8470   43.8070 N   0  0  0  0  0  0  0  0  0  0  0  0
   45.9960   32.6690   44.9010 C   0  0  0  0  0  0  0  0  0  0  0  0
   45.1790   33.6540   45.3080 N   0  0  0  0  0  0  0  0  0  0  0  0
   47.6450   34.1070   41.8940 C   0  0  0  0  0  0  0  0  0  0  0  0
   46.9300   34.1970   40.6000 C   0  0  0  0  0  0  0  0  0  0  0  0
   48.1140   34.4940   39.6800 C   0  0  0  0  0  0  0  0  0  0  0  0
   48.8640   35.5290   40.4710 C   0  0  0  0  0  0  0  0  0  0  0  0
   48.4910   35.3610   41.9290 C   0  0  0  0  0  0  0  0  0  0  0  0
   46.0420   31.4060   45.6410 C   0  0  0  0  0  0  0  0  0  0  0  0
   46.7310   31.4720   46.8990 N   0  0  0  0  0  0  0  0  0  0  0  0
   47.3800   32.4830   47.4770 C   0  0  0  0  0  0  0  0  0  0  0  0
   47.8920   32.0760   48.7020 C   0  0  0  0  0  0  0  0  0  0  0  0
   47.5400   30.7850   48.8600 N   0  0  0  0  0  0  0  0  0  0  0  0
   46.8490   30.4450   47.7750 C   0  0  0  0  0  0  0  0  0  0  0  0
   46.2930   29.1040   47.5840 C   0  0  0  0  0  0  0  0  0  0  0  0
   45.0020   28.6660   47.8080 C   0  0  0  0  0  0  0  0  0  0  0  0
   44.7020   27.3410   47.5560 C   0  0  0  0  0  0  0  0  0  0  0  0
   45.6470   26.4470   47.0910 C   0  0  0  0  0  0  0  0  0  0  0  0
   46.9550   26.8840   46.8630 C   0  0  0  0  0  0  0  0  0  0  0  0
   47.2570   28.2130   47.1150 C   0  0  0  0  0  0  0  0  0  0  0  0
   44.4431   35.6311   44.9842 H   0  0  0  0  0  0  0  0  0  0  0  0
   45.8836   36.0016   42.9310 H   0  0  0  0  0  0  0  0  0  0  0  0
   48.2339   33.1795   41.9474 H   0  0  0  0  0  0  0  0  0  0  0  0
   46.4338   33.2508   40.3383 H   0  0  0  0  0  0  0  0  0  0  0  0
   46.1133   34.9331   40.5657 H   0  0  0  0  0  0  0  0  0  0  0  0
   47.7787   34.8947   38.7120 H   0  0  0  0  0  0  0  0  0  0  0  0
   48.7132   33.6078   39.4239 H   0  0  0  0  0  0  0  0  0  0  0  0
   49.9470   35.3846   40.3433 H   0  0  0  0  0  0  0  0  0  0  0  0
   48.6042   36.5397   40.1230 H   0  0  0  0  0  0  0  0  0  0  0  0
   47.9138   36.2226   42.2959 H   0  0  0  0  0  0  0  0  0  0  0  0
   49.3571   35.2934   42.6037 H   0  0  0  0  0  0  0  0  0  0  0  0
   45.0080   31.0838   45.8333 H   0  0  0  0  0  0  0  0  0  0  0  0
   46.6063   30.6995   45.0146 H   0  0  0  0  0  0  0  0  0  0  0  0
   47.4930   33.4894   47.0476 H   0  0  0  0  0  0  0  0  0  0  0  0
   48.4726   32.6890   49.4070 H   0  0  0  0  0  0  0  0  0  0  0  0
   44.2302   29.3566   48.1787 H   0  0  0  0  0  0  0  0  0  0  0  0
   43.6758   26.9859   47.7316 H   0  0  0  0  0  0  0  0  0  0  0  0
   45.3721   25.3989   46.9015 H   0  0  0  0  0  0  0  0  0  0  0  0
   47.7249   26.1909   46.4931 H   0  0  0  0  0  0  0  0  0  0  0  0
   48.2816   28.5732   46.9408 H   0  0  0  0  0  0  0  0  0  0  0  0
  1  6  2  0
  2  1  1  0
  3  2  2  0
  3  4  1  0
  4  5  2  0
  5  6  1  0
  5 12  1  0
  7 11  1  0
  7  3  1  0
  8  7  1  0
  9 10  1  0
  9  8  1  0
 10 11  1  0
 12 13  1  0
 13 14  1  0
 13 17  1  0
 14 15  2  0
 15 16  1  0
 17 16  2  0
 18 17  1  0
 18 19  2  0
 20 19  1  0
 21 20  2  0
 22 21  1  0
 22 23  2  0
 23 18  1  0
  1 24  1  0
  2 25  1  0
  7 26  1  0
  8 27  1  0
  8 28  1  0
  9 29  1  0
  9 30  1  0
 10 31  1  0
 10 32  1  0
 11 33  1  0
 11 34  1  0
 12 35  1  0
 12 36  1  0
 14 37  1  0
 15 38  1  0
 19 39  1  0
 20 40  1  0
 21 41  1  0
 22 42  1  0
 23 43  1  0
M  ISO  8  24  14  25  14  26  13  27  13  28  13  29  13  30  13  31  13
M  ISO  8  32  13  33  13  34  13  35   8  36   8  37  14  38  14  39  14
M  ISO  4  40  14  41  14  42  14  43  14
M  END
>  <minimizedAffinity>  (1) 
-5.35049009

>  <minimizedRMSD>  (1) 
2.72708011

$$$$
