
     RDKit          3D

 35 37  0  0  0  0  0  0  0  0999 V2000
   45.1390   34.9530   44.5150 C   0  0  0  0  0  0  0  0  0  0  0  0
   45.9520   35.1470   43.3730 C   0  0  0  0  0  0  0  0  0  0  0  0
   46.7770   34.0570   42.9550 C   0  0  0  0  0  0  0  0  0  0  0  0
   46.7240   32.9080   43.6820 N   0  0  0  0  0  0  0  0  0  0  0  0
   45.9310   32.7570   44.7750 C   0  0  0  0  0  0  0  0  0  0  0  0
   45.1520   33.7700   45.1800 N   0  0  0  0  0  0  0  0  0  0  0  0
   47.6450   34.1550   41.7840 C   0  0  0  0  0  0  0  0  0  0  0  0
   46.9500   34.1790   40.4760 C   0  0  0  0  0  0  0  0  0  0  0  0
   48.1410   34.4520   39.5600 C   0  0  0  0  0  0  0  0  0  0  0  0
   48.8550   35.5470   40.3190 C   0  0  0  0  0  0  0  0  0  0  0  0
   48.4630   35.4280   41.7850 C   0  0  0  0  0  0  0  0  0  0  0  0
   45.9220   31.4930   45.5070 C   0  0  0  0  0  0  0  0  0  0  0  0
   46.4300   31.5710   46.8460 N   0  0  0  0  0  0  0  0  0  0  0  0
   47.3900   32.3350   47.3700 C   0  0  0  0  0  0  0  0  0  0  0  0
   47.5300   32.0510   48.7210 C   0  0  0  0  0  0  0  0  0  0  0  0
   46.6400   31.1020   49.0160 N   0  0  0  0  0  0  0  0  0  0  0  0
   45.9860   30.8250   47.8730 C   0  0  0  0  0  0  0  0  0  0  0  0
   44.9330   29.8130   47.8590 C   0  0  0  0  0  0  0  0  0  0  0  0
   45.0990   28.5760   47.7060 O   0  0  0  0  0  0  0  0  0  0  0  0
   44.4904   35.7687   44.8670 H   0  0  0  0  0  0  0  0  0  0  0  0
   45.9492   36.1018   42.8269 H   0  0  0  0  0  0  0  0  0  0  0  0
   48.2496   33.2408   41.8774 H   0  0  0  0  0  0  0  0  0  0  0  0
   46.4705   33.2154   40.2488 H   0  0  0  0  0  0  0  0  0  0  0  0
   46.1252   34.9026   40.3983 H   0  0  0  0  0  0  0  0  0  0  0  0
   47.8148   34.7969   38.5677 H   0  0  0  0  0  0  0  0  0  0  0  0
   48.7625   33.5680   39.3544 H   0  0  0  0  0  0  0  0  0  0  0  0
   49.9433   35.4284   40.2117 H   0  0  0  0  0  0  0  0  0  0  0  0
   48.5735   36.5346   39.9247 H   0  0  0  0  0  0  0  0  0  0  0  0
   47.8621   36.2900   42.1102 H   0  0  0  0  0  0  0  0  0  0  0  0
   49.3195   35.4068   42.4749 H   0  0  0  0  0  0  0  0  0  0  0  0
   44.8838   31.1325   45.5551 H   0  0  0  0  0  0  0  0  0  0  0  0
   46.5919   30.8132   44.9602 H   0  0  0  0  0  0  0  0  0  0  0  0
   47.9814   33.0780   46.8148 H   0  0  0  0  0  0  0  0  0  0  0  0
   48.2408   32.5199   49.4174 H   0  0  0  0  0  0  0  0  0  0  0  0
   43.8998   30.1653   47.9948 H   0  0  0  0  0  0  0  0  0  0  0  0
  1  6  2  0
  2  1  1  0
  3  2  2  0
  3  4  1  0
  4  5  2  0
  5  6  1  0
  5 12  1  0
  7 11  1  0
  7  3  1  0
  8  7  1  0
  9 10  1  0
  9  8  1  0
 10 11  1  0
 12 13  1  0
 13 14  1  0
 13 17  1  0
 14 15  2  0
 15 16  1  0
 17 16  2  0
 18 17  1  0
 19 18  2  0
  1 20  1  0
  2 21  1  0
  7 22  1  0
  8 23  1  0
  8 24  1  0
  9 25  1  0
  9 26  1  0
 10 27  1  0
 10 28  1  0
 11 29  1  0
 11 30  1  0
 12 31  1  0
 12 32  1  0
 14 33  1  0
 15 34  1  0
 18 35  1  0
M  ISO  8  20  14  21  14  22  13  23  13  24  13  25  13  26  13  27  13
M  ISO  8  28  13  29  13  30  13  31   8  32   8  33  14  34  14  35   6
M  END
>  <minimizedAffinity>  (1) 
-4.81703091

>  <minimizedRMSD>  (1) 
0.87799114

$$$$
