
     RDKit          3D

 40 43  0  0  0  0  0  0  0  0999 V2000
   45.3940   34.4100   44.7060 C   0  0  0  0  0  0  0  0  0  0  0  0
   46.1920   34.7610   43.5900 C   0  0  0  0  0  0  0  0  0  0  0  0
   46.8980   33.7180   42.9170 C   0  0  0  0  0  0  0  0  0  0  0  0
   46.7500   32.4680   43.4010 N   0  0  0  0  0  0  0  0  0  0  0  0
   45.9830   32.1490   44.4710 C   0  0  0  0  0  0  0  0  0  0  0  0
   45.3120   33.1170   45.1150 N   0  0  0  0  0  0  0  0  0  0  0  0
   47.7400   33.9870   41.7500 C   0  0  0  0  0  0  0  0  0  0  0  0
   47.0130   34.1260   40.4670 C   0  0  0  0  0  0  0  0  0  0  0  0
   48.1530   34.5700   39.5600 C   0  0  0  0  0  0  0  0  0  0  0  0
   48.8900   35.5510   40.4280 C   0  0  0  0  0  0  0  0  0  0  0  0
   48.5010   35.2870   41.8780 C   0  0  0  0  0  0  0  0  0  0  0  0
   45.8830   30.7580   44.9170 C   0  0  0  0  0  0  0  0  0  0  0  0
   46.8440   30.3870   45.9170 N   0  0  0  0  0  0  0  0  0  0  0  0
   48.0960   29.9430   45.7880 C   0  0  0  0  0  0  0  0  0  0  0  0
   48.6570   29.7080   47.0330 C   0  0  0  0  0  0  0  0  0  0  0  0
   47.7120   30.0220   47.9480 N   0  0  0  0  0  0  0  0  0  0  0  0
   46.6330   30.4260   47.2590 C   0  0  0  0  0  0  0  0  0  0  0  0
   45.3820   30.8550   47.9460 C   0  0  0  0  0  0  0  0  0  0  0  0
   45.2900   32.2860   48.4730 C   0  0  0  0  0  0  0  0  0  0  0  0
   45.4120   31.1410   49.4100 C   0  0  0  0  0  0  0  0  0  0  0  0
   44.8365   35.1898   45.2456 H   0  0  0  0  0  0  0  0  0  0  0  0
   46.2658   35.8051   43.2519 H   0  0  0  0  0  0  0  0  0  0  0  0
   48.3889   33.0989   41.7320 H   0  0  0  0  0  0  0  0  0  0  0  0
   46.5793   33.1700   40.1385 H   0  0  0  0  0  0  0  0  0  0  0  0
   46.1520   34.8100   40.4955 H   0  0  0  0  0  0  0  0  0  0  0  0
   47.7716   35.0530   38.6483 H   0  0  0  0  0  0  0  0  0  0  0  0
   48.7804   33.7400   39.2030 H   0  0  0  0  0  0  0  0  0  0  0  0
   49.9747   35.4178   40.3029 H   0  0  0  0  0  0  0  0  0  0  0  0
   48.6283   36.5813   40.1451 H   0  0  0  0  0  0  0  0  0  0  0  0
   47.8626   36.0896   42.2759 H   0  0  0  0  0  0  0  0  0  0  0  0
   49.3536   35.2429   42.5717 H   0  0  0  0  0  0  0  0  0  0  0  0
   44.8764   30.6008   45.3317 H   0  0  0  0  0  0  0  0  0  0  0  0
   46.0861   30.1300   44.0370 H   0  0  0  0  0  0  0  0  0  0  0  0
   48.6102   29.7857   44.8284 H   0  0  0  0  0  0  0  0  0  0  0  0
   49.6727   29.3382   47.2372 H   0  0  0  0  0  0  0  0  0  0  0  0
   44.7744   30.2161   47.2883 H   0  0  0  0  0  0  0  0  0  0  0  0
   46.1329   32.9795   48.3365 H   0  0  0  0  0  0  0  0  0  0  0  0
   44.5855   33.1214   48.3473 H   0  0  0  0  0  0  0  0  0  0  0  0
   44.5549   30.8573   50.0385 H   0  0  0  0  0  0  0  0  0  0  0  0
   46.1038   30.8885   50.2271 H   0  0  0  0  0  0  0  0  0  0  0  0
  1  6  2  0
  2  1  1  0
  3  4  1  0
  3  2  2  0
  4  5  2  0
  5 12  1  0
  5  6  1  0
  7 11  1  0
  7  3  1  0
  8  7  1  0
  9 10  1  0
  9  8  1  0
 10 11  1  0
 12 13  1  0
 13 17  1  0
 14 13  1  0
 14 15  2  0
 15 16  1  0
 17 18  1  0
 17 16  2  0
 18 19  1  0
 18 20  1  0
 19 20  1  0
  1 21  1  0
  2 22  1  0
  7 23  1  0
  8 24  1  0
  8 25  1  0
  9 26  1  0
  9 27  1  0
 10 28  1  0
 10 29  1  0
 11 30  1  0
 11 31  1  0
 12 32  1  0
 12 33  1  0
 14 34  1  0
 15 35  1  0
 18 36  1  0
 19 37  1  0
 19 38  1  0
 20 39  1  0
 20 40  1  0
M  ISO  8  21  14  22  14  23  13  24  13  25  13  26  13  27  13  28  13
M  ISO  8  29  13  30  13  31  13  32   8  33   8  34  14  35  14  36  13
M  ISO  4  37  13  38  13  39  13  40  13
M  END
>  <minimizedAffinity>  (1) 
-4.92174149

>  <minimizedRMSD>  (1) 
1.58376956

$$$$
