
     RDKit          3D

 40 43  0  0  0  0  0  0  0  0999 V2000
   45.8220   33.5170   45.1680 C   0  0  0  0  0  0  0  0  0  0  0  0
   46.4650   34.1000   44.0560 C   0  0  0  0  0  0  0  0  0  0  0  0
   47.2990   33.2830   43.2740 C   0  0  0  0  0  0  0  0  0  0  0  0
   47.3990   32.0060   43.6740 N   0  0  0  0  0  0  0  0  0  0  0  0
   46.7900   31.4420   44.7330 C   0  0  0  0  0  0  0  0  0  0  0  0
   45.9910   32.2200   45.4840 N   0  0  0  0  0  0  0  0  0  0  0  0
   48.0000   33.7860   42.1080 C   0  0  0  0  0  0  0  0  0  0  0  0
   47.1660   34.0460   40.9140 C   0  0  0  0  0  0  0  0  0  0  0  0
   48.1940   34.7050   40.0010 C   0  0  0  0  0  0  0  0  0  0  0  0
   48.9400   35.6000   40.9390 C   0  0  0  0  0  0  0  0  0  0  0  0
   48.7070   35.0940   42.3500 C   0  0  0  0  0  0  0  0  0  0  0  0
   47.0280   30.0220   45.0370 C   0  0  0  0  0  0  0  0  0  0  0  0
   47.9890   29.8060   46.0660 N   0  0  0  0  0  0  0  0  0  0  0  0
   49.2550   29.3430   45.9020 C   0  0  0  0  0  0  0  0  0  0  0  0
   49.9090   29.2370   47.1020 C   0  0  0  0  0  0  0  0  0  0  0  0
   49.0380   29.6420   48.0300 N   0  0  0  0  0  0  0  0  0  0  0  0
   47.8940   29.9800   47.3930 C   0  0  0  0  0  0  0  0  0  0  0  0
   46.7860   30.4680   48.1950 C   0  0  0  0  0  0  0  0  0  0  0  0
   45.4890   30.0810   48.3550 C   0  0  0  0  0  0  0  0  0  0  0  0
   44.8090   30.8630   49.2120 N   0  0  0  0  0  0  0  0  0  0  0  0
   45.6660   31.8030   49.6460 C   0  0  0  0  0  0  0  0  0  0  0  0
   46.8300   31.5390   49.0220 N   0  0  0  0  0  0  0  0  0  0  0  0
   45.1650   34.1392   45.7934 H   0  0  0  0  0  0  0  0  0  0  0  0
   46.3180   35.1617   43.8086 H   0  0  0  0  0  0  0  0  0  0  0  0
   48.6914   32.9515   41.9195 H   0  0  0  0  0  0  0  0  0  0  0  0
   46.7748   33.1139   40.4802 H   0  0  0  0  0  0  0  0  0  0  0  0
   46.2657   34.6489   41.1039 H   0  0  0  0  0  0  0  0  0  0  0  0
   48.8626   33.9564   39.5508 H   0  0  0  0  0  0  0  0  0  0  0  0
   47.7444   35.2401   39.1516 H   0  0  0  0  0  0  0  0  0  0  0  0
   50.0146   35.5741   40.7052 H   0  0  0  0  0  0  0  0  0  0  0  0
   48.5876   36.6374   40.8407 H   0  0  0  0  0  0  0  0  0  0  0  0
   48.0752   35.7885   42.9232 H   0  0  0  0  0  0  0  0  0  0  0  0
   49.6296   34.9939   42.9405 H   0  0  0  0  0  0  0  0  0  0  0  0
   46.0756   29.5708   45.3521 H   0  0  0  0  0  0  0  0  0  0  0  0
   47.4304   29.5624   44.1222 H   0  0  0  0  0  0  0  0  0  0  0  0
   49.6995   29.0856   44.9293 H   0  0  0  0  0  0  0  0  0  0  0  0
   50.9396   28.8897   47.2668 H   0  0  0  0  0  0  0  0  0  0  0  0
   45.0445   29.2185   47.8369 H   0  0  0  0  0  0  0  0  0  0  0  0
   45.4605   32.6150   50.3590 H   0  0  0  0  0  0  0  0  0  0  0  0
   47.6803   32.1032   49.1619 H   0  0  0  0  0  0  0  0  0  0  0  0
  1  6  2  0
  2  1  1  0
  3  4  1  0
  3  2  2  0
  4  5  2  0
  5 12  1  0
  5  6  1  0
  7 11  1  0
  7  3  1  0
  8  7  1  0
  9  8  1  0
  9 10  1  0
 10 11  1  0
 12 13  1  0
 13 17  1  0
 14 13  1  0
 14 15  2  0
 15 16  1  0
 17 16  2  0
 17 18  1  0
 18 19  2  0
 18 22  1  0
 19 20  1  0
 20 21  2  0
 22 21  1  0
  1 23  1  0
  2 24  1  0
  7 25  1  0
  8 26  1  0
  8 27  1  0
  9 28  1  0
  9 29  1  0
 10 30  1  0
 10 31  1  0
 11 32  1  0
 11 33  1  0
 12 34  1  0
 12 35  1  0
 14 36  1  0
 15 37  1  0
 19 38  1  0
 21 39  1  0
 22 40  1  0
M  ISO  8  23  14  24  14  25  13  26  13  27  13  28  13  29  13  30  13
M  ISO  8  31  13  32  13  33  13  34   8  35   8  36  14  37  14  38  14
M  ISO  2  39  14  40   9
M  END
>  <minimizedAffinity>  (1) 
-5.14015245

>  <minimizedRMSD>  (1) 
2.56234813

$$$$
