
     RDKit          3D

 39 41  0  0  0  0  0  0  0  0999 V2000
   45.1450   34.9430   44.5230 C   0  0  0  0  0  0  0  0  0  0  0  0
   45.9610   35.1460   43.3840 C   0  0  0  0  0  0  0  0  0  0  0  0
   46.7830   34.0580   42.9570 C   0  0  0  0  0  0  0  0  0  0  0  0
   46.7280   32.9020   43.6690 N   0  0  0  0  0  0  0  0  0  0  0  0
   45.9320   32.7420   44.7560 C   0  0  0  0  0  0  0  0  0  0  0  0
   45.1480   33.7590   45.1760 N   0  0  0  0  0  0  0  0  0  0  0  0
   47.6570   34.1660   41.7860 C   0  0  0  0  0  0  0  0  0  0  0  0
   46.9600   34.1720   40.4780 C   0  0  0  0  0  0  0  0  0  0  0  0
   48.1400   34.4790   39.5610 C   0  0  0  0  0  0  0  0  0  0  0  0
   48.8670   35.5510   40.3190 C   0  0  0  0  0  0  0  0  0  0  0  0
   48.4580   35.4470   41.7830 C   0  0  0  0  0  0  0  0  0  0  0  0
   45.9220   31.4630   45.4750 C   0  0  0  0  0  0  0  0  0  0  0  0
   46.4150   31.5370   46.8230 N   0  0  0  0  0  0  0  0  0  0  0  0
   47.3630   32.3080   47.3590 C   0  0  0  0  0  0  0  0  0  0  0  0
   47.5090   32.0360   48.7070 C   0  0  0  0  0  0  0  0  0  0  0  0
   46.6270   31.0770   48.9980 N   0  0  0  0  0  0  0  0  0  0  0  0
   45.9680   30.7770   47.8590 C   0  0  0  0  0  0  0  0  0  0  0  0
   44.8840   29.7330   47.7700 C   0  0  0  0  0  0  0  0  0  0  0  0
   45.5000   28.3440   47.5850 C   0  0  0  0  0  0  0  0  0  0  0  0
   44.5002   35.7590   44.8814 H   0  0  0  0  0  0  0  0  0  0  0  0
   45.9622   36.1062   42.8474 H   0  0  0  0  0  0  0  0  0  0  0  0
   48.2789   33.2641   41.8848 H   0  0  0  0  0  0  0  0  0  0  0  0
   46.5074   33.1956   40.2504 H   0  0  0  0  0  0  0  0  0  0  0  0
   46.1154   34.8727   40.4023 H   0  0  0  0  0  0  0  0  0  0  0  0
   47.7982   34.8460   38.5820 H   0  0  0  0  0  0  0  0  0  0  0  0
   48.7625   33.6002   39.3367 H   0  0  0  0  0  0  0  0  0  0  0  0
   49.9531   35.4059   40.2229 H   0  0  0  0  0  0  0  0  0  0  0  0
   48.6124   36.5436   39.9191 H   0  0  0  0  0  0  0  0  0  0  0  0
   49.3366   35.3723   42.4406 H   0  0  0  0  0  0  0  0  0  0  0  0
   47.9041   36.3213   42.1554 H   0  0  0  0  0  0  0  0  0  0  0  0
   44.8862   31.0942   45.5070 H   0  0  0  0  0  0  0  0  0  0  0  0
   46.5995   30.7900   44.9290 H   0  0  0  0  0  0  0  0  0  0  0  0
   47.9479   33.0569   46.8049 H   0  0  0  0  0  0  0  0  0  0  0  0
   48.2134   32.5155   49.4027 H   0  0  0  0  0  0  0  0  0  0  0  0
   44.2900   29.7464   48.6957 H   0  0  0  0  0  0  0  0  0  0  0  0
   44.2403   29.9574   46.9067 H   0  0  0  0  0  0  0  0  0  0  0  0
   45.6984   27.8967   48.5702 H   0  0  0  0  0  0  0  0  0  0  0  0
   44.8011   27.7044   47.0259 H   0  0  0  0  0  0  0  0  0  0  0  0
   46.4432   28.4327   47.0259 H   0  0  0  0  0  0  0  0  0  0  0  0
  1  6  2  0
  2  1  1  0
  3  2  2  0
  3  4  1  0
  4  5  2  0
  5  6  1  0
  5 12  1  0
  7  3  1  0
  8  7  1  0
  9 10  1  0
  9  8  1  0
 10 11  1  0
 11  7  1  0
 12 13  1  0
 13 14  1  0
 13 17  1  0
 14 15  2  0
 15 16  1  0
 17 16  2  0
 18 17  1  0
 19 18  1  0
  1 20  1  0
  2 21  1  0
  7 22  1  0
  8 23  1  0
  8 24  1  0
  9 25  1  0
  9 26  1  0
 10 27  1  0
 10 28  1  0
 11 29  1  0
 11 30  1  0
 12 31  1  0
 12 32  1  0
 14 33  1  0
 15 34  1  0
 18 35  1  0
 18 36  1  0
 19 37  1  0
 19 38  1  0
 19 39  1  0
M  ISO  8  20  14  21  14  22  13  23  13  24  13  25  13  26  13  27  13
M  ISO  8  28  13  29  13  30  13  31   8  32   8  33  14  34  14  35   8
M  ISO  4  36   8  37   8  38   8  39   8
M  END
>  <minimizedAffinity>  (1) 
-4.90912533

>  <minimizedRMSD>  (1) 
0.898291826

$$$$
