
     RDKit          3D

 40 43  0  0  0  0  0  0  0  0999 V2000
   45.6120   33.9480   44.9450 C   0  0  0  0  0  0  0  0  0  0  0  0
   46.3400   34.4210   43.8240 C   0  0  0  0  0  0  0  0  0  0  0  0
   47.0970   33.4740   43.0700 C   0  0  0  0  0  0  0  0  0  0  0  0
   47.0560   32.1940   43.4900 N   0  0  0  0  0  0  0  0  0  0  0  0
   46.3570   31.7620   44.5610 C   0  0  0  0  0  0  0  0  0  0  0  0
   45.6410   32.6340   45.2800 N   0  0  0  0  0  0  0  0  0  0  0  0
   47.8710   33.8730   41.8990 C   0  0  0  0  0  0  0  0  0  0  0  0
   47.0870   34.0900   40.6620 C   0  0  0  0  0  0  0  0  0  0  0  0
   48.1680   34.6490   39.7560 C   0  0  0  0  0  0  0  0  0  0  0  0
   48.8860   35.6000   40.6650 C   0  0  0  0  0  0  0  0  0  0  0  0
   48.5990   35.1830   42.1060 C   0  0  0  0  0  0  0  0  0  0  0  0
   46.3780   30.3380   44.9290 C   0  0  0  0  0  0  0  0  0  0  0  0
   47.5240   29.9490   45.7040 N   0  0  0  0  0  0  0  0  0  0  0  0
   48.6910   29.4290   45.3180 C   0  0  0  0  0  0  0  0  0  0  0  0
   49.5160   29.2050   46.3980 C   0  0  0  0  0  0  0  0  0  0  0  0
   48.8240   29.6050   47.4910 N   0  0  0  0  0  0  0  0  0  0  0  0
   47.6450   30.0420   47.0550 C   0  0  0  0  0  0  0  0  0  0  0  0
   46.6110   30.5650   47.9750 C   0  0  0  0  0  0  0  0  0  0  0  0
   45.4490   30.1200   48.5720 C   0  0  0  0  0  0  0  0  0  0  0  0
   44.9610   31.1520   49.3430 C   0  0  0  0  0  0  0  0  0  0  0  0
   45.8330   32.1870   49.1930 C   0  0  0  0  0  0  0  0  0  0  0  0
   46.7950   31.8180   48.3860 O   0  0  0  0  0  0  0  0  0  0  0  0
   45.0192   34.6520   45.5475 H   0  0  0  0  0  0  0  0  0  0  0  0
   46.3221   35.4846   43.5439 H   0  0  0  0  0  0  0  0  0  0  0  0
   48.5451   33.0122   41.7782 H   0  0  0  0  0  0  0  0  0  0  0  0
   46.6737   33.1486   40.2708 H   0  0  0  0  0  0  0  0  0  0  0  0
   46.2045   34.7357   40.7814 H   0  0  0  0  0  0  0  0  0  0  0  0
   48.8399   33.8541   39.4000 H   0  0  0  0  0  0  0  0  0  0  0  0
   47.7767   35.1224   38.8434 H   0  0  0  0  0  0  0  0  0  0  0  0
   49.9680   35.5558   40.4720 H   0  0  0  0  0  0  0  0  0  0  0  0
   48.5418   36.6299   40.4894 H   0  0  0  0  0  0  0  0  0  0  0  0
   47.9633   35.9198   42.6189 H   0  0  0  0  0  0  0  0  0  0  0  0
   49.4958   35.1038   42.7381 H   0  0  0  0  0  0  0  0  0  0  0  0
   45.4737   30.1196   45.5160 H   0  0  0  0  0  0  0  0  0  0  0  0
   46.4224   29.7682   43.9892 H   0  0  0  0  0  0  0  0  0  0  0  0
   48.9589   29.2083   44.2742 H   0  0  0  0  0  0  0  0  0  0  0  0
   50.5326   28.7855   46.3768 H   0  0  0  0  0  0  0  0  0  0  0  0
   44.9960   29.1246   48.4539 H   0  0  0  0  0  0  0  0  0  0  0  0
   44.0487   31.1420   49.9574 H   0  0  0  0  0  0  0  0  0  0  0  0
   45.7434   33.1731   49.6722 H   0  0  0  0  0  0  0  0  0  0  0  0
  1  6  2  0
  2  1  1  0
  3  4  1  0
  3  2  2  0
  4  5  2  0
  5 12  1  0
  5  6  1  0
  7 11  1  0
  7  3  1  0
  8  7  1  0
  9  8  1  0
  9 10  1  0
 10 11  1  0
 12 13  1  0
 13 17  1  0
 14 13  1  0
 14 15  2  0
 15 16  1  0
 17 16  2  0
 17 18  1  0
 18 22  1  0
 18 19  2  0
 19 20  1  0
 21 20  2  0
 22 21  1  0
  1 23  1  0
  2 24  1  0
  7 25  1  0
  8 26  1  0
  8 27  1  0
  9 28  1  0
  9 29  1  0
 10 30  1  0
 10 31  1  0
 11 32  1  0
 11 33  1  0
 12 34  1  0
 12 35  1  0
 14 36  1  0
 15 37  1  0
 19 38  1  0
 20 39  1  0
 21 40  1  0
M  ISO  8  23  14  24  14  25  13  26  13  27  13  28  13  29  13  30  13
M  ISO  8  31  13  32  13  33  13  34   8  35   8  36  14  37  14  38  14
M  ISO  2  39  14  40  14
M  END
>  <minimizedAffinity>  (1) 
-5.22491121

>  <minimizedRMSD>  (1) 
2.45047188

$$$$
