
     RDKit          3D

 38 41  0  0  0  0  0  0  0  0999 V2000
   45.4810   34.1900   44.8790 C   0  0  0  0  0  0  0  0  0  0  0  0
   46.2310   34.5890   43.7450 C   0  0  0  0  0  0  0  0  0  0  0  0
   46.9700   33.5970   43.0470 C   0  0  0  0  0  0  0  0  0  0  0  0
   46.8940   32.3410   43.5290 N   0  0  0  0  0  0  0  0  0  0  0  0
   46.1800   31.9660   44.6070 C   0  0  0  0  0  0  0  0  0  0  0  0
   45.4770   32.8940   45.2760 N   0  0  0  0  0  0  0  0  0  0  0  0
   47.7560   33.9260   41.8770 C   0  0  0  0  0  0  0  0  0  0  0  0
   47.0020   34.1170   40.6170 C   0  0  0  0  0  0  0  0  0  0  0  0
   48.1090   34.5930   39.6960 C   0  0  0  0  0  0  0  0  0  0  0  0
   48.8660   35.5360   40.5710 C   0  0  0  0  0  0  0  0  0  0  0  0
   48.5440   35.2090   42.0290 C   0  0  0  0  0  0  0  0  0  0  0  0
   46.1620   30.5680   45.0460 C   0  0  0  0  0  0  0  0  0  0  0  0
   47.3630   30.1370   45.7060 N   0  0  0  0  0  0  0  0  0  0  0  0
   48.4400   29.5190   45.2170 C   0  0  0  0  0  0  0  0  0  0  0  0
   49.3660   29.2910   46.2210 C   0  0  0  0  0  0  0  0  0  0  0  0
   48.8380   29.7840   47.3540 N   0  0  0  0  0  0  0  0  0  0  0  0
   47.6310   30.2890   47.0180 C   0  0  0  0  0  0  0  0  0  0  0  0
   46.7250   30.9300   47.9970 C   0  0  0  0  0  0  0  0  0  0  0  0
   46.7510   32.1970   48.4510 N   0  0  0  0  0  0  0  0  0  0  0  0
   45.7720   32.3690   49.3110 O   0  0  0  0  0  0  0  0  0  0  0  0
   45.1260   31.2520   49.4190 C   0  0  0  0  0  0  0  0  0  0  0  0
   45.6850   30.3530   48.6260 N   0  0  0  0  0  0  0  0  0  0  0  0
   44.8990   34.9359   45.4401 H   0  0  0  0  0  0  0  0  0  0  0  0
   46.2407   35.6381   43.4143 H   0  0  0  0  0  0  0  0  0  0  0  0
   48.3911   33.0305   41.8079 H   0  0  0  0  0  0  0  0  0  0  0  0
   46.5579   33.1747   40.2636 H   0  0  0  0  0  0  0  0  0  0  0  0
   46.1470   34.8045   40.6964 H   0  0  0  0  0  0  0  0  0  0  0  0
   47.7000   35.1085   38.8145 H   0  0  0  0  0  0  0  0  0  0  0  0
   48.7254   33.7776   39.2895 H   0  0  0  0  0  0  0  0  0  0  0  0
   49.9456   35.4205   40.3945 H   0  0  0  0  0  0  0  0  0  0  0  0
   48.5783   36.5734   40.3449 H   0  0  0  0  0  0  0  0  0  0  0  0
   47.9390   36.0005   42.4952 H   0  0  0  0  0  0  0  0  0  0  0  0
   49.4283   35.1209   42.6772 H   0  0  0  0  0  0  0  0  0  0  0  0
   45.3208   30.4371   45.7427 H   0  0  0  0  0  0  0  0  0  0  0  0
   46.0662   29.9552   44.1375 H   0  0  0  0  0  0  0  0  0  0  0  0
   48.5735   29.2310   44.1638 H   0  0  0  0  0  0  0  0  0  0  0  0
   50.3448   28.8010   46.1121 H   0  0  0  0  0  0  0  0  0  0  0  0
   44.2533   31.0787   50.0658 H   0  0  0  0  0  0  0  0  0  0  0  0
  1  6  2  0
  2  1  1  0
  3  4  1  0
  3  2  2  0
  4  5  2  0
  5 12  1  0
  5  6  1  0
  7 11  1  0
  7  3  1  0
  8  7  1  0
  9 10  1  0
  9  8  1  0
 10 11  1  0
 12 13  1  0
 13 17  1  0
 14 13  1  0
 14 15  2  0
 15 16  1  0
 17 16  2  0
 17 18  1  0
 18 19  2  0
 18 22  1  0
 19 20  1  0
 20 21  1  0
 22 21  2  0
  1 23  1  0
  2 24  1  0
  7 25  1  0
  8 26  1  0
  8 27  1  0
  9 28  1  0
  9 29  1  0
 10 30  1  0
 10 31  1  0
 11 32  1  0
 11 33  1  0
 12 34  1  0
 12 35  1  0
 14 36  1  0
 15 37  1  0
 21 38  1  0
M  ISO  8  23  14  24  14  25  13  26  13  27  13  28  13  29  13  30  13
M  ISO  8  31  13  32  13  33  13  34   8  35   8  36  14  37  14  38  14
M  END
>  <minimizedAffinity>  (1) 
-5.14051533

>  <minimizedRMSD>  (1) 
2.41654968

$$$$
