
     RDKit          3D

 34 36  0  0  0  0  0  0  0  0999 V2000
   45.3040   34.2940   45.6540 C   0  0  0  0  0  0  0  0  0  0  0  0
   45.9650   34.5760   44.4340 C   0  0  0  0  0  0  0  0  0  0  0  0
   46.7390   33.5270   43.8470 C   0  0  0  0  0  0  0  0  0  0  0  0
   46.7780   32.3500   44.5020 N   0  0  0  0  0  0  0  0  0  0  0  0
   46.1370   32.1080   45.6660 C   0  0  0  0  0  0  0  0  0  0  0  0
   45.4100   33.0720   46.2320 N   0  0  0  0  0  0  0  0  0  0  0  0
   47.4550   33.7180   42.5810 C   0  0  0  0  0  0  0  0  0  0  0  0
   46.6620   34.3600   41.5040 C   0  0  0  0  0  0  0  0  0  0  0  0
   47.7600   34.5290   40.4600 C   0  0  0  0  0  0  0  0  0  0  0  0
   48.8890   35.0670   41.2890 C   0  0  0  0  0  0  0  0  0  0  0  0
   48.6640   34.6130   42.7290 C   0  0  0  0  0  0  0  0  0  0  0  0
   46.2390   30.7870   46.3020 C   0  0  0  0  0  0  0  0  0  0  0  0
   47.2190   30.7040   47.3490 N   0  0  0  0  0  0  0  0  0  0  0  0
   48.5250   30.4410   47.2920 C   0  0  0  0  0  0  0  0  0  0  0  0
   49.0710   30.4680   48.5690 C   0  0  0  0  0  0  0  0  0  0  0  0
   48.0650   30.7540   49.4140 N   0  0  0  0  0  0  0  0  0  0  0  0
   46.9500   30.8940   48.6640 C   0  0  0  0  0  0  0  0  0  0  0  0
   45.3090   31.2860   49.3220 S   0  0  0  0  0  0  0  0  0  0  0  0
   44.6982   35.0743   46.1379 H   0  0  0  0  0  0  0  0  0  0  0  0
   45.8861   35.5638   43.9564 H   0  0  0  0  0  0  0  0  0  0  0  0
   47.7125   32.6837   42.3093 H   0  0  0  0  0  0  0  0  0  0  0  0
   45.8507   33.7089   41.1463 H   0  0  0  0  0  0  0  0  0  0  0  0
   46.1389   35.2841   41.7912 H   0  0  0  0  0  0  0  0  0  0  0  0
   47.4624   35.2421   39.6771 H   0  0  0  0  0  0  0  0  0  0  0  0
   48.0060   33.6042   39.9175 H   0  0  0  0  0  0  0  0  0  0  0  0
   49.8470   34.6742   40.9176 H   0  0  0  0  0  0  0  0  0  0  0  0
   48.9204   36.1650   41.2314 H   0  0  0  0  0  0  0  0  0  0  0  0
   48.4530   35.4662   43.3904 H   0  0  0  0  0  0  0  0  0  0  0  0
   49.5347   34.1170   43.1827 H   0  0  0  0  0  0  0  0  0  0  0  0
   45.2573   30.5348   46.7295 H   0  0  0  0  0  0  0  0  0  0  0  0
   46.5594   30.0859   45.5173 H   0  0  0  0  0  0  0  0  0  0  0  0
   49.0872   30.2333   46.3696 H   0  0  0  0  0  0  0  0  0  0  0  0
   50.1229   30.2899   48.8371 H   0  0  0  0  0  0  0  0  0  0  0  0
   45.3517   31.2758   50.6913 H   0  0  0  0  0  0  0  0  0  0  0  0
  1  6  2  0
  2  1  1  0
  3  2  2  0
  3  4  1  0
  4  5  2  0
  5  6  1  0
  5 12  1  0
  7 11  1  0
  7  3  1  0
  8  7  1  0
  9 10  1  0
  9  8  1  0
 10 11  1  0
 12 13  1  0
 13 17  1  0
 14 13  1  0
 14 15  2  0
 15 16  1  0
 17 18  1  0
 17 16  2  0
  1 19  1  0
  2 20  1  0
  7 21  1  0
  8 22  1  0
  8 23  1  0
  9 24  1  0
  9 25  1  0
 10 26  1  0
 10 27  1  0
 11 28  1  0
 11 29  1  0
 12 30  1  0
 12 31  1  0
 14 32  1  0
 15 33  1  0
 18 34  1  0
M  ISO  8  19  14  20  14  21  13  22  13  23  13  24  13  25  13  26  13
M  ISO  8  27  13  28  13  29  13  30   8  31   8  32  14  33  14  34  11
M  END
>  <minimizedAffinity>  (1) 
-4.60379362

>  <minimizedRMSD>  (1) 
1.538486

$$$$
