
     RDKit          3D

 43 46  0  0  0  0  0  0  0  0999 V2000
   45.1900   34.4340   45.0480 C   0  0  0  0  0  0  0  0  0  0  0  0
   45.8130   34.6550   43.7930 C   0  0  0  0  0  0  0  0  0  0  0  0
   46.9760   33.8670   43.4880 C   0  0  0  0  0  0  0  0  0  0  0  0
   47.3850   32.9820   44.4110 N   0  0  0  0  0  0  0  0  0  0  0  0
   46.7730   32.7900   45.6020 C   0  0  0  0  0  0  0  0  0  0  0  0
   45.6890   33.5130   45.9080 N   0  0  0  0  0  0  0  0  0  0  0  0
   47.6860   34.0340   42.2080 C   0  0  0  0  0  0  0  0  0  0  0  0
   46.8230   34.2560   41.0370 C   0  0  0  0  0  0  0  0  0  0  0  0
   47.8980   34.5600   39.9930 C   0  0  0  0  0  0  0  0  0  0  0  0
   48.8220   35.4660   40.7330 C   0  0  0  0  0  0  0  0  0  0  0  0
   48.6160   35.2390   42.2280 C   0  0  0  0  0  0  0  0  0  0  0  0
   47.2960   31.7990   46.5500 C   0  0  0  0  0  0  0  0  0  0  0  0
   46.4080   31.4920   47.6370 N   0  0  0  0  0  0  0  0  0  0  0  0
   46.1810   32.1490   48.7880 C   0  0  0  0  0  0  0  0  0  0  0  0
   45.2300   31.4660   49.5330 C   0  0  0  0  0  0  0  0  0  0  0  0
   44.8730   30.3730   48.8230 N   0  0  0  0  0  0  0  0  0  0  0  0
   45.5940   30.4000   47.6760 C   0  0  0  0  0  0  0  0  0  0  0  0
   45.4940   29.1630   46.3720 S   0  0  0  0  0  0  0  0  0  0  0  0
   44.4830   27.7760   46.8460 C   0  0  0  0  0  0  0  0  0  0  0  0
   43.3970   27.3220   46.0970 C   0  0  0  0  0  0  0  0  0  0  0  0
   42.6500   26.2330   46.5280 C   0  0  0  0  0  0  0  0  0  0  0  0
   43.0520   25.6440   47.7210 C   0  0  0  0  0  0  0  0  0  0  0  0
   44.1420   26.1230   48.4420 C   0  0  0  0  0  0  0  0  0  0  0  0
   44.8560   27.1900   48.0010 N   0  0  0  0  0  0  0  0  0  0  0  0
   44.2969   35.0134   45.3248 H   0  0  0  0  0  0  0  0  0  0  0  0
   45.4224   35.3985   43.0826 H   0  0  0  0  0  0  0  0  0  0  0  0
   48.2153   33.0749   42.1083 H   0  0  0  0  0  0  0  0  0  0  0  0
   46.2410   33.3589   40.7790 H   0  0  0  0  0  0  0  0  0  0  0  0
   46.0537   35.0325   41.1600 H   0  0  0  0  0  0  0  0  0  0  0  0
   47.4676   35.0630   39.1145 H   0  0  0  0  0  0  0  0  0  0  0  0
   48.3911   33.6598   39.5975 H   0  0  0  0  0  0  0  0  0  0  0  0
   49.8634   35.2382   40.4617 H   0  0  0  0  0  0  0  0  0  0  0  0
   48.6131   36.5148   40.4755 H   0  0  0  0  0  0  0  0  0  0  0  0
   48.1423   36.1081   42.7079 H   0  0  0  0  0  0  0  0  0  0  0  0
   49.5446   35.0882   42.7980 H   0  0  0  0  0  0  0  0  0  0  0  0
   47.4994   30.8691   45.9986 H   0  0  0  0  0  0  0  0  0  0  0  0
   48.1999   32.2384   46.9972 H   0  0  0  0  0  0  0  0  0  0  0  0
   46.6735   33.0843   49.0924 H   0  0  0  0  0  0  0  0  0  0  0  0
   44.8393   31.7598   50.5184 H   0  0  0  0  0  0  0  0  0  0  0  0
   43.1304   27.8300   45.1585 H   0  0  0  0  0  0  0  0  0  0  0  0
   41.7881   25.8576   45.9568 H   0  0  0  0  0  0  0  0  0  0  0  0
   42.4945   24.7771   48.1052 H   0  0  0  0  0  0  0  0  0  0  0  0
   44.4289   25.6299   49.3825 H   0  0  0  0  0  0  0  0  0  0  0  0
  1  6  2  0
  2  1  1  0
  3  2  2  0
  3  4  1  0
  4  5  2  0
  5  6  1  0
  5 12  1  0
  7 11  1  0
  7  3  1  0
  8  7  1  0
  9 10  1  0
  9  8  1  0
 10 11  1  0
 12 13  1  0
 13 17  1  0
 13 14  1  0
 14 15  2  0
 16 15  1  0
 17 16  2  0
 18 19  1  0
 18 17  1  0
 19 24  2  0
 20 21  2  0
 20 19  1  0
 21 22  1  0
 22 23  2  0
 24 23  1  0
  1 25  1  0
  2 26  1  0
  7 27  1  0
  8 28  1  0
  8 29  1  0
  9 30  1  0
  9 31  1  0
 10 32  1  0
 10 33  1  0
 11 34  1  0
 11 35  1  0
 12 36  1  0
 12 37  1  0
 14 38  1  0
 15 39  1  0
 20 40  1  0
 21 41  1  0
 22 42  1  0
 23 43  1  0
M  ISO  8  25  14  26  14  27  13  28  13  29  13  30  13  31  13  32  13
M  ISO  8  33  13  34  13  35  13  36   8  37   8  38  14  39  14  40  14
M  ISO  3  41  14  42  14  43  14
M  END
>  <minimizedAffinity>  (1) 
-6.2361846

>  <minimizedRMSD>  (1) 
2.39228392

$$$$
