
     RDKit          3D

 41 43  0  0  1  0  0  0  0  0999 V2000
   45.6260   34.2180   42.2140 C   0  0  0  0  0  0  0  0  0  0  0  0
   47.0160   34.2890   42.3050 C   0  0  0  0  0  0  0  0  0  0  0  0
   47.6330   33.9300   43.5290 C   0  0  0  0  0  0  0  0  0  0  0  0
   46.8670   33.5360   44.5520 N   0  0  0  0  0  0  0  0  0  0  0  0
   45.5260   33.4700   44.4550 C   0  0  0  0  0  0  0  0  0  0  0  0
   44.9360   33.8040   43.3130 N   0  0  0  0  0  0  0  0  0  0  0  0
   44.8520   34.5900   41.0840 C   0  0  0  0  0  0  0  0  0  0  0  0
   44.0980   33.3480   40.5180 C   0  0  0  0  0  0  0  0  0  0  0  0
   43.1170   34.0610   39.5580 C   0  0  0  0  0  0  0  0  0  0  0  0
   42.8500   35.3790   40.2230 C   0  0  0  0  0  0  0  0  0  0  0  0
   43.6630   35.3950   41.5060 C   0  0  0  0  0  0  0  0  0  0  0  0
   47.8360   34.7340   41.1680 C   0  0  1  0  0  0  0  0  0  0  0  0
   48.8560   35.7390   41.5280 C   0  0  0  0  0  0  0  0  0  0  0  0
   48.3650   33.5100   40.4660 C   0  0  0  0  0  0  0  0  0  0  0  0
   47.9710   33.4620   39.0730 N   0  0  0  0  0  0  0  0  0  0  0  0
   48.4080   34.4910   38.3470 N   0  0  0  0  0  0  0  0  0  0  0  0
   47.9850   34.3500   37.0810 C   0  0  0  0  0  0  0  0  0  0  0  0
   47.2550   33.1920   36.9960 C   0  0  0  0  0  0  0  0  0  0  0  0
   47.2730   32.6710   38.2530 C   0  0  0  0  0  0  0  0  0  0  0  0
   46.6790   31.4710   38.7670 C   0  0  0  0  0  0  0  0  0  0  0  0
   45.6270   30.8920   38.4140 O   0  0  0  0  0  0  0  0  0  0  0  0
   48.7268   33.9748   43.6363 H   0  0  0  0  0  0  0  0  0  0  0  0
   44.9235   33.1420   45.3149 H   0  0  0  0  0  0  0  0  0  0  0  0
   45.5536   35.0887   40.3991 H   0  0  0  0  0  0  0  0  0  0  0  0
   44.7746   32.6664   39.9816 H   0  0  0  0  0  0  0  0  0  0  0  0
   43.6274   32.7015   41.2733 H   0  0  0  0  0  0  0  0  0  0  0  0
   42.1875   33.4829   39.4489 H   0  0  0  0  0  0  0  0  0  0  0  0
   43.5259   34.1745   38.5432 H   0  0  0  0  0  0  0  0  0  0  0  0
   43.1620   36.2046   39.5665 H   0  0  0  0  0  0  0  0  0  0  0  0
   41.7777   35.5053   40.4332 H   0  0  0  0  0  0  0  0  0  0  0  0
   43.1221   34.9165   42.3358 H   0  0  0  0  0  0  0  0  0  0  0  0
   43.9005   36.3995   41.8863 H   0  0  0  0  0  0  0  0  0  0  0  0
   47.2110   35.2942   40.4570 H   0  0  0  0  0  0  0  0  0  0  0  0
   48.9292   35.8111   42.6232 H   0  0  0  0  0  0  0  0  0  0  0  0
   49.8297   35.4375   41.1145 H   0  0  0  0  0  0  0  0  0  0  0  0
   48.5690   36.7171   41.1145 H   0  0  0  0  0  0  0  0  0  0  0  0
   49.4635   33.5166   40.5229 H   0  0  0  0  0  0  0  0  0  0  0  0
   47.9422   32.6261   40.9660 H   0  0  0  0  0  0  0  0  0  0  0  0
   48.1890   35.0447   36.2529 H   0  0  0  0  0  0  0  0  0  0  0  0
   46.7621   32.7750   36.1054 H   0  0  0  0  0  0  0  0  0  0  0  0
   47.2272   30.9900   39.5905 H   0  0  0  0  0  0  0  0  0  0  0  0
  1  2  1  0
  1  6  2  0
  2  3  2  0
  3  4  1  0
  5  4  2  0
  6  5  1  0
  7 11  1  0
  7  1  1  0
  8  7  1  0
  9 10  1  0
  9  8  1  0
 10 11  1  0
 12 13  1  0
 12  2  1  0
 14 12  1  0
 15 14  1  0
 16 15  1  0
 17 16  2  0
 18 17  1  0
 18 19  2  0
 19 20  1  0
 19 15  1  0
 21 20  2  0
  3 22  1  0
  5 23  1  0
  7 24  1  0
  8 25  1  0
  8 26  1  0
  9 27  1  0
  9 28  1  0
 10 29  1  0
 10 30  1  0
 11 31  1  0
 11 32  1  0
 12 33  1  6
 13 34  1  0
 13 35  1  0
 13 36  1  0
 14 37  1  0
 14 38  1  0
 17 39  1  0
 18 40  1  0
 20 41  1  0
M  ISO  8  22  14  23  14  24  13  25  13  26  13  27  13  28  13  29  13
M  ISO  8  30  13  31  13  32  13  33   8  34   8  35   8  36   8  37   8
M  ISO  4  38   8  39  14  40  14  41   6
M  END
>  <minimizedAffinity>  (1) 
-4.89962769

>  <minimizedRMSD>  (1) 
0.803303599

$$$$
