
     RDKit          3D

 41 44  0  0  0  0  0  0  0  0999 V2000
   45.2450   34.3680   45.0360 C   0  0  0  0  0  0  0  0  0  0  0  0
   45.8810   34.6350   43.8010 C   0  0  0  0  0  0  0  0  0  0  0  0
   47.0200   33.8280   43.4570 C   0  0  0  0  0  0  0  0  0  0  0  0
   47.3950   32.8770   44.3430 N   0  0  0  0  0  0  0  0  0  0  0  0
   46.7640   32.6470   45.5170 C   0  0  0  0  0  0  0  0  0  0  0  0
   45.7000   33.3880   45.8550 N   0  0  0  0  0  0  0  0  0  0  0  0
   47.7500   34.0300   42.1970 C   0  0  0  0  0  0  0  0  0  0  0  0
   46.9010   34.3100   41.0290 C   0  0  0  0  0  0  0  0  0  0  0  0
   48.0000   34.6180   40.0070 C   0  0  0  0  0  0  0  0  0  0  0  0
   48.8960   35.5180   40.7910 C   0  0  0  0  0  0  0  0  0  0  0  0
   48.7030   35.2130   42.2790 C   0  0  0  0  0  0  0  0  0  0  0  0
   47.2410   31.5910   46.4190 C   0  0  0  0  0  0  0  0  0  0  0  0
   46.4080   31.3720   47.5710 N   0  0  0  0  0  0  0  0  0  0  0  0
   46.3190   32.0610   48.7100 C   0  0  0  0  0  0  0  0  0  0  0  0
   45.3690   31.4750   49.5420 C   0  0  0  0  0  0  0  0  0  0  0  0
   44.8790   30.4090   48.8840 N   0  0  0  0  0  0  0  0  0  0  0  0
   45.5140   30.3550   47.6920 C   0  0  0  0  0  0  0  0  0  0  0  0
   45.2240   29.1070   46.4210 S   0  0  0  0  0  0  0  0  0  0  0  0
   43.9130   25.9090   48.3450 N   0  0  0  0  0  0  0  0  0  0  0  0
   44.7070   26.9510   48.2910 N   0  0  0  0  0  0  0  0  0  0  0  0
   44.5020   27.6320   47.1260 C   0  0  0  0  0  0  0  0  0  0  0  0
   43.5070   26.9290   46.4420 C   0  0  0  0  0  0  0  0  0  0  0  0
   43.1530   25.8420   47.2400 C   0  0  0  0  0  0  0  0  0  0  0  0
   44.3699   34.9632   45.3358 H   0  0  0  0  0  0  0  0  0  0  0  0
   45.5186   35.4283   43.1307 H   0  0  0  0  0  0  0  0  0  0  0  0
   48.2676   33.0689   42.0618 H   0  0  0  0  0  0  0  0  0  0  0  0
   46.2987   33.4370   40.7374 H   0  0  0  0  0  0  0  0  0  0  0  0
   46.1478   35.0995   41.1682 H   0  0  0  0  0  0  0  0  0  0  0  0
   47.5931   35.1287   39.1218 H   0  0  0  0  0  0  0  0  0  0  0  0
   48.5021   33.7247   39.6072 H   0  0  0  0  0  0  0  0  0  0  0  0
   49.9436   35.3385   40.5075 H   0  0  0  0  0  0  0  0  0  0  0  0
   48.6498   36.5701   40.5852 H   0  0  0  0  0  0  0  0  0  0  0  0
   48.2514   36.0623   42.8126 H   0  0  0  0  0  0  0  0  0  0  0  0
   49.6335   35.0152   42.8313 H   0  0  0  0  0  0  0  0  0  0  0  0
   47.2952   30.6511   45.8500 H   0  0  0  0  0  0  0  0  0  0  0  0
   48.2199   31.9203   46.7976 H   0  0  0  0  0  0  0  0  0  0  0  0
   46.9077   32.9573   48.9549 H   0  0  0  0  0  0  0  0  0  0  0  0
   45.0754   31.8179   50.5451 H   0  0  0  0  0  0  0  0  0  0  0  0
   43.8773   25.2369   49.1247 H   0  0  0  0  0  0  0  0  0  0  0  0
   43.0831   27.1848   45.4597 H   0  0  0  0  0  0  0  0  0  0  0  0
   42.3970   25.0771   47.0090 H   0  0  0  0  0  0  0  0  0  0  0  0
  1  6  2  0
  2  1  1  0
  3  2  2  0
  3  4  1  0
  4  5  2  0
  5  6  1  0
  5 12  1  0
  7 11  1  0
  7  3  1  0
  8  7  1  0
  9 10  1  0
  9  8  1  0
 10 11  1  0
 12 13  1  0
 13 17  1  0
 13 14  1  0
 14 15  2  0
 16 15  1  0
 17 16  2  0
 18 21  1  0
 18 17  1  0
 20 19  1  0
 21 20  2  0
 22 21  1  0
 22 23  2  0
 23 19  1  0
  1 24  1  0
  2 25  1  0
  7 26  1  0
  8 27  1  0
  8 28  1  0
  9 29  1  0
  9 30  1  0
 10 31  1  0
 10 32  1  0
 11 33  1  0
 11 34  1  0
 12 35  1  0
 12 36  1  0
 14 37  1  0
 15 38  1  0
 19 39  1  0
 22 40  1  0
 23 41  1  0
M  ISO  8  24  14  25  14  26  13  27  13  28  13  29  13  30  13  31  13
M  ISO  8  32  13  33  13  34  13  35   8  36   8  37  14  38  14  39   9
M  ISO  2  40  14  41  14
M  END
>  <minimizedAffinity>  (1) 
-5.89056635

>  <minimizedRMSD>  (1) 
2.29763079

$$$$
