
     RDKit          3D

 49 52  0  0  0  0  0  0  0  0999 V2000
   45.0670   34.5420   45.1140 C   0  0  0  0  0  0  0  0  0  0  0  0
   45.6670   34.6970   43.8420 C   0  0  0  0  0  0  0  0  0  0  0  0
   46.8570   33.9400   43.5800 C   0  0  0  0  0  0  0  0  0  0  0  0
   47.2940   33.1520   44.5660 N   0  0  0  0  0  0  0  0  0  0  0  0
   46.7150   33.0150   45.7660 C   0  0  0  0  0  0  0  0  0  0  0  0
   45.5990   33.7140   46.0350 N   0  0  0  0  0  0  0  0  0  0  0  0
   47.5570   34.0350   42.2880 C   0  0  0  0  0  0  0  0  0  0  0  0
   46.6900   34.2660   41.1210 C   0  0  0  0  0  0  0  0  0  0  0  0
   47.7430   34.4740   40.0520 C   0  0  0  0  0  0  0  0  0  0  0  0
   48.7220   35.3640   40.7500 C   0  0  0  0  0  0  0  0  0  0  0  0
   48.5260   35.2110   42.2580 C   0  0  0  0  0  0  0  0  0  0  0  0
   47.2970   32.1060   46.7790 C   0  0  0  0  0  0  0  0  0  0  0  0
   46.3640   31.6220   47.7380 N   0  0  0  0  0  0  0  0  0  0  0  0
   46.0340   32.1250   48.9400 C   0  0  0  0  0  0  0  0  0  0  0  0
   45.0510   31.3310   49.5410 C   0  0  0  0  0  0  0  0  0  0  0  0
   44.7840   30.3250   48.6760 N   0  0  0  0  0  0  0  0  0  0  0  0
   45.5900   30.5230   47.5980 C   0  0  0  0  0  0  0  0  0  0  0  0
   45.6370   29.4320   46.1710 S   0  0  0  0  0  0  0  0  0  0  0  0
   41.9960   26.6690   45.7240 N   0  0  0  0  0  0  0  0  0  0  0  0
   42.9950   26.3570   46.6880 C   0  0  0  0  0  0  0  0  0  0  0  0
   44.3710   26.9550   46.3630 C   0  0  0  0  0  0  0  0  0  0  0  0
   44.1560   28.4280   46.1850 C   0  0  0  0  0  0  0  0  0  0  0  0
   43.3250   28.5990   44.9320 C   0  0  0  0  0  0  0  0  0  0  0  0
   41.9510   28.0170   45.2650 C   0  0  0  0  0  0  0  0  0  0  0  0
   44.1533   35.1053   45.3547 H   0  0  0  0  0  0  0  0  0  0  0  0
   45.2385   35.3704   43.0851 H   0  0  0  0  0  0  0  0  0  0  0  0
   48.0447   33.0518   42.2141 H   0  0  0  0  0  0  0  0  0  0  0  0
   46.0547   33.3944   40.9049 H   0  0  0  0  0  0  0  0  0  0  0  0
   45.9716   35.0916   41.2322 H   0  0  0  0  0  0  0  0  0  0  0  0
   47.3192   34.9649   39.1635 H   0  0  0  0  0  0  0  0  0  0  0  0
   48.1834   33.5392   39.6750 H   0  0  0  0  0  0  0  0  0  0  0  0
   49.7474   35.0735   40.4776 H   0  0  0  0  0  0  0  0  0  0  0  0
   48.5589   36.4104   40.4527 H   0  0  0  0  0  0  0  0  0  0  0  0
   49.4705   34.9734   42.7693 H   0  0  0  0  0  0  0  0  0  0  0  0
   48.1679   36.1162   42.7702 H   0  0  0  0  0  0  0  0  0  0  0  0
   47.7329   31.2419   46.2562 H   0  0  0  0  0  0  0  0  0  0  0  0
   48.0440   32.6917   47.3348 H   0  0  0  0  0  0  0  0  0  0  0  0
   46.4730   33.0295   49.3864 H   0  0  0  0  0  0  0  0  0  0  0  0
   44.5860   31.4929   50.5246 H   0  0  0  0  0  0  0  0  0  0  0  0
   42.1530   26.0650   44.9046 H   0  0  0  0  0  0  0  0  0  0  0  0
   42.6692   26.7448   47.6644 H   0  0  0  0  0  0  0  0  0  0  0  0
   43.1110   25.2631   46.6897 H   0  0  0  0  0  0  0  0  0  0  0  0
   45.0723   26.7693   47.1898 H   0  0  0  0  0  0  0  0  0  0  0  0
   44.8017   26.5008   45.4585 H   0  0  0  0  0  0  0  0  0  0  0  0
   43.6329   28.8103   47.0740 H   0  0  0  0  0  0  0  0  0  0  0  0
   43.7798   28.0528   44.0925 H   0  0  0  0  0  0  0  0  0  0  0  0
   43.2568   29.6547   44.6307 H   0  0  0  0  0  0  0  0  0  0  0  0
   41.4926   28.6361   46.0502 H   0  0  0  0  0  0  0  0  0  0  0  0
   41.3662   28.0200   44.3333 H   0  0  0  0  0  0  0  0  0  0  0  0
  1  6  2  0
  2  1  1  0
  3  2  2  0
  3  4  1  0
  4  5  2  0
  5  6  1  0
  5 12  1  0
  7  3  1  0
  8  7  1  0
  9 10  1  0
  9  8  1  0
 10 11  1  0
 11  7  1  0
 12 13  1  0
 13 14  1  0
 14 15  2  0
 16 15  1  0
 17 13  1  0
 17 16  2  0
 18 22  1  0
 18 17  1  0
 19 20  1  0
 21 20  1  0
 22 21  1  0
 23 24  1  0
 23 22  1  0
 24 19  1  0
  1 25  1  0
  2 26  1  0
  7 27  1  0
  8 28  1  0
  8 29  1  0
  9 30  1  0
  9 31  1  0
 10 32  1  0
 10 33  1  0
 11 34  1  0
 11 35  1  0
 12 36  1  0
 12 37  1  0
 14 38  1  0
 15 39  1  0
 19 40  1  0
 20 41  1  0
 20 42  1  0
 21 43  1  0
 21 44  1  0
 22 45  1  0
 23 46  1  0
 23 47  1  0
 24 48  1  0
 24 49  1  0
M  ISO  8  25  14  26  14  27  13  28  13  29  13  30  13  31  13  32  13
M  ISO  8  33  13  34  13  35  13  36   8  37   8  38  14  39  14  40   5
M  ISO  8  41  13  42  13  43  13  44  13  45  13  46  13  47  13  48  13
M  ISO  1  49  13
M  END
>  <minimizedAffinity>  (1) 
-5.78973436

>  <minimizedRMSD>  (1) 
2.74535966

$$$$
