
     RDKit          3D

 41 44  0  0  0  0  0  0  0  0999 V2000
   45.2260   34.4240   45.0170 C   0  0  0  0  0  0  0  0  0  0  0  0
   45.8650   34.6570   43.7750 C   0  0  0  0  0  0  0  0  0  0  0  0
   47.0160   33.8580   43.4470 C   0  0  0  0  0  0  0  0  0  0  0  0
   47.4030   32.9400   44.3550 N   0  0  0  0  0  0  0  0  0  0  0  0
   46.7720   32.7360   45.5420 C   0  0  0  0  0  0  0  0  0  0  0  0
   45.7000   33.4720   45.8620 N   0  0  0  0  0  0  0  0  0  0  0  0
   47.7300   34.0430   42.1830 C   0  0  0  0  0  0  0  0  0  0  0  0
   46.8710   34.2710   41.0080 C   0  0  0  0  0  0  0  0  0  0  0  0
   47.9550   34.5920   39.9780 C   0  0  0  0  0  0  0  0  0  0  0  0
   48.8590   35.5070   40.7280 C   0  0  0  0  0  0  0  0  0  0  0  0
   48.6460   35.2610   42.2170 C   0  0  0  0  0  0  0  0  0  0  0  0
   47.2650   31.7170   46.4680 C   0  0  0  0  0  0  0  0  0  0  0  0
   46.3920   31.4490   47.5810 N   0  0  0  0  0  0  0  0  0  0  0  0
   46.2550   32.0730   48.7530 C   0  0  0  0  0  0  0  0  0  0  0  0
   45.2720   31.4430   49.5110 C   0  0  0  0  0  0  0  0  0  0  0  0
   44.8130   30.4180   48.7720 N   0  0  0  0  0  0  0  0  0  0  0  0
   45.5030   30.4380   47.6060 C   0  0  0  0  0  0  0  0  0  0  0  0
   45.2490   29.2490   46.2690 S   0  0  0  0  0  0  0  0  0  0  0  0
   44.5780   27.7780   47.0340 C   0  0  0  0  0  0  0  0  0  0  0  0
   43.5870   26.8930   46.6310 C   0  0  0  0  0  0  0  0  0  0  0  0
   43.4450   25.9030   47.6030 C   0  0  0  0  0  0  0  0  0  0  0  0
   44.3910   26.2560   48.5730 C   0  0  0  0  0  0  0  0  0  0  0  0
   45.0040   27.3310   48.1930 O   0  0  0  0  0  0  0  0  0  0  0  0
   44.3427   35.0160   45.2985 H   0  0  0  0  0  0  0  0  0  0  0  0
   45.4927   35.4257   43.0818 H   0  0  0  0  0  0  0  0  0  0  0  0
   48.2710   33.0907   42.0812 H   0  0  0  0  0  0  0  0  0  0  0  0
   46.2968   33.3729   40.7363 H   0  0  0  0  0  0  0  0  0  0  0  0
   46.0938   35.0395   41.1321 H   0  0  0  0  0  0  0  0  0  0  0  0
   47.5283   35.0914   39.0957 H   0  0  0  0  0  0  0  0  0  0  0  0
   48.4644   33.6986   39.5877 H   0  0  0  0  0  0  0  0  0  0  0  0
   49.9058   35.2995   40.4611 H   0  0  0  0  0  0  0  0  0  0  0  0
   48.6366   36.5548   40.4775 H   0  0  0  0  0  0  0  0  0  0  0  0
   48.1587   36.1194   42.7025 H   0  0  0  0  0  0  0  0  0  0  0  0
   49.5738   35.1145   42.7895 H   0  0  0  0  0  0  0  0  0  0  0  0
   47.4035   30.7811   45.9069 H   0  0  0  0  0  0  0  0  0  0  0  0
   48.2020   32.1070   46.8923 H   0  0  0  0  0  0  0  0  0  0  0  0
   46.8324   32.9532   49.0721 H   0  0  0  0  0  0  0  0  0  0  0  0
   44.9361   31.7284   50.5188 H   0  0  0  0  0  0  0  0  0  0  0  0
   43.0086   26.9615   45.6979 H   0  0  0  0  0  0  0  0  0  0  0  0
   42.7536   25.0475   47.6067 H   0  0  0  0  0  0  0  0  0  0  0  0
   44.5825   25.7081   49.5074 H   0  0  0  0  0  0  0  0  0  0  0  0
  1  6  2  0
  2  1  1  0
  3  2  2  0
  3  4  1  0
  4  5  2  0
  5  6  1  0
  5 12  1  0
  7 11  1  0
  7  3  1  0
  8  7  1  0
  9 10  1  0
  9  8  1  0
 10 11  1  0
 12 13  1  0
 13 17  1  0
 13 14  1  0
 14 15  2  0
 16 15  1  0
 17 16  2  0
 18 19  1  0
 18 17  1  0
 19 23  1  0
 20 19  2  0
 20 21  1  0
 21 22  2  0
 23 22  1  0
  1 24  1  0
  2 25  1  0
  7 26  1  0
  8 27  1  0
  8 28  1  0
  9 29  1  0
  9 30  1  0
 10 31  1  0
 10 32  1  0
 11 33  1  0
 11 34  1  0
 12 35  1  0
 12 36  1  0
 14 37  1  0
 15 38  1  0
 20 39  1  0
 21 40  1  0
 22 41  1  0
M  ISO  8  24  14  25  14  26  13  27  13  28  13  29  13  30  13  31  13
M  ISO  8  32  13  33  13  34  13  35   8  36   8  37  14  38  14  39  14
M  ISO  2  40  14  41  14
M  END
>  <minimizedAffinity>  (1) 
-5.95131445

>  <minimizedRMSD>  (1) 
2.19373655

$$$$
