
     RDKit          3D

 45 49  0  0  0  0  0  0  0  0999 V2000
   45.2340   34.3950   44.9830 C   0  0  0  0  0  0  0  0  0  0  0  0
   45.8880   34.6740   43.7570 C   0  0  0  0  0  0  0  0  0  0  0  0
   47.0120   33.8440   43.4140 C   0  0  0  0  0  0  0  0  0  0  0  0
   47.3560   32.8690   44.2820 N   0  0  0  0  0  0  0  0  0  0  0  0
   46.7140   32.6290   45.4430 C   0  0  0  0  0  0  0  0  0  0  0  0
   45.6630   33.3910   45.7820 N   0  0  0  0  0  0  0  0  0  0  0  0
   47.7590   34.0550   42.1640 C   0  0  0  0  0  0  0  0  0  0  0  0
   46.9260   34.2320   40.9650 C   0  0  0  0  0  0  0  0  0  0  0  0
   48.0100   34.5920   39.9580 C   0  0  0  0  0  0  0  0  0  0  0  0
   48.8770   35.5390   40.7370 C   0  0  0  0  0  0  0  0  0  0  0  0
   48.6220   35.3050   42.2250 C   0  0  0  0  0  0  0  0  0  0  0  0
   47.1600   31.5480   46.3250 C   0  0  0  0  0  0  0  0  0  0  0  0
   46.3770   31.3910   47.5230 N   0  0  0  0  0  0  0  0  0  0  0  0
   46.3840   32.0870   48.6600 C   0  0  0  0  0  0  0  0  0  0  0  0
   45.4530   31.5690   49.5370 C   0  0  0  0  0  0  0  0  0  0  0  0
   44.8660   30.5350   48.9240 N   0  0  0  0  0  0  0  0  0  0  0  0
   45.4340   30.4320   47.6940 C   0  0  0  0  0  0  0  0  0  0  0  0
   45.0110   29.1940   46.4370 S   0  0  0  0  0  0  0  0  0  0  0  0
   47.5590   25.4180   48.4000 N   0  0  0  0  0  0  0  0  0  0  0  0
   48.3040   26.5040   48.0540 C   0  0  0  0  0  0  0  0  0  0  0  0
   47.4660   27.4470   47.5340 N   0  0  0  0  0  0  0  0  0  0  0  0
   46.2420   26.9420   47.5650 C   0  0  0  0  0  0  0  0  0  0  0  0
   45.0780   27.5520   47.1360 C   0  0  0  0  0  0  0  0  0  0  0  0
   43.8770   26.9110   47.2280 N   0  0  0  0  0  0  0  0  0  0  0  0
   43.9450   25.6590   47.7650 C   0  0  0  0  0  0  0  0  0  0  0  0
   45.0730   25.0590   48.1830 N   0  0  0  0  0  0  0  0  0  0  0  0
   46.2700   25.6720   48.1030 C   0  0  0  0  0  0  0  0  0  0  0  0
   44.3684   35.0012   45.2882 H   0  0  0  0  0  0  0  0  0  0  0  0
   45.5516   35.4879   43.0979 H   0  0  0  0  0  0  0  0  0  0  0  0
   48.3459   33.1287   42.0778 H   0  0  0  0  0  0  0  0  0  0  0  0
   46.4010   33.3055   40.6894 H   0  0  0  0  0  0  0  0  0  0  0  0
   46.1143   34.9679   41.0628 H   0  0  0  0  0  0  0  0  0  0  0  0
   47.5818   35.0830   39.0717 H   0  0  0  0  0  0  0  0  0  0  0  0
   48.5543   33.7188   39.5691 H   0  0  0  0  0  0  0  0  0  0  0  0
   49.9358   35.3499   40.5064 H   0  0  0  0  0  0  0  0  0  0  0  0
   48.6394   36.5792   40.4696 H   0  0  0  0  0  0  0  0  0  0  0  0
   48.0839   36.1483   42.6825 H   0  0  0  0  0  0  0  0  0  0  0  0
   49.5312   35.2054   42.8361 H   0  0  0  0  0  0  0  0  0  0  0  0
   47.1168   30.6048   45.7607 H   0  0  0  0  0  0  0  0  0  0  0  0
   48.1778   31.8101   46.6496 H   0  0  0  0  0  0  0  0  0  0  0  0
   47.0362   32.9479   48.8685 H   0  0  0  0  0  0  0  0  0  0  0  0
   45.2345   31.9373   50.5502 H   0  0  0  0  0  0  0  0  0  0  0  0
   47.9202   24.5488   48.8183 H   0  0  0  0  0  0  0  0  0  0  0  0
   49.3930   26.6038   48.1731 H   0  0  0  0  0  0  0  0  0  0  0  0
   43.0045   25.0971   47.8636 H   0  0  0  0  0  0  0  0  0  0  0  0
  1  6  2  0
  2  1  1  0
  3  2  2  0
  3  4  1  0
  4  5  2  0
  5  6  1  0
  5 12  1  0
  7 11  1  0
  7  3  1  0
  8  7  1  0
  9 10  1  0
  9  8  1  0
 10 11  1  0
 12 13  1  0
 13 17  1  0
 13 14  1  0
 14 15  2  0
 16 15  1  0
 17 16  2  0
 18 23  1  0
 18 17  1  0
 20 19  1  0
 21 22  1  0
 21 20  2  0
 22 27  2  0
 23 24  2  0
 23 22  1  0
 24 25  1  0
 25 26  2  0
 27 26  1  0
 27 19  1  0
  1 28  1  0
  2 29  1  0
  7 30  1  0
  8 31  1  0
  8 32  1  0
  9 33  1  0
  9 34  1  0
 10 35  1  0
 10 36  1  0
 11 37  1  0
 11 38  1  0
 12 39  1  0
 12 40  1  0
 14 41  1  0
 15 42  1  0
 19 43  1  0
 20 44  1  0
 25 45  1  0
M  ISO  8  28  14  29  14  30  13  31  13  32  13  33  13  34  13  35  13
M  ISO  8  36  13  37  13  38  13  39   8  40   8  41  14  42  14  43   9
M  ISO  2  44  14  45  14
M  END
>  <minimizedAffinity>  (1) 
-6.13606453

>  <minimizedRMSD>  (1) 
2.45294929

$$$$
