
     RDKit          3D

 39 42  0  0  0  0  0  0  0  0999 V2000
   45.2160   34.4220   45.0240 C   0  0  0  0  0  0  0  0  0  0  0  0
   45.8580   34.6550   43.7820 C   0  0  0  0  0  0  0  0  0  0  0  0
   47.0120   33.8590   43.4680 C   0  0  0  0  0  0  0  0  0  0  0  0
   47.3960   32.9490   44.3800 N   0  0  0  0  0  0  0  0  0  0  0  0
   46.7670   32.7480   45.5580 C   0  0  0  0  0  0  0  0  0  0  0  0
   45.6970   33.4740   45.8670 N   0  0  0  0  0  0  0  0  0  0  0  0
   47.7380   34.0410   42.2020 C   0  0  0  0  0  0  0  0  0  0  0  0
   46.8880   34.2670   41.0240 C   0  0  0  0  0  0  0  0  0  0  0  0
   47.9610   34.6170   39.9940 C   0  0  0  0  0  0  0  0  0  0  0  0
   48.8810   35.5000   40.7540 C   0  0  0  0  0  0  0  0  0  0  0  0
   48.6680   35.2490   42.2460 C   0  0  0  0  0  0  0  0  0  0  0  0
   47.2680   31.7250   46.4910 C   0  0  0  0  0  0  0  0  0  0  0  0
   46.3970   31.4500   47.6000 N   0  0  0  0  0  0  0  0  0  0  0  0
   46.2510   32.0860   48.7650 C   0  0  0  0  0  0  0  0  0  0  0  0
   45.2800   31.4480   49.5260 C   0  0  0  0  0  0  0  0  0  0  0  0
   44.8340   30.4060   48.7960 N   0  0  0  0  0  0  0  0  0  0  0  0
   45.5210   30.4200   47.6320 C   0  0  0  0  0  0  0  0  0  0  0  0
   45.2860   29.2170   46.3070 S   0  0  0  0  0  0  0  0  0  0  0  0
   44.6060   27.7610   47.0860 C   0  0  0  0  0  0  0  0  0  0  0  0
   43.5640   27.1070   46.5050 N   0  0  0  0  0  0  0  0  0  0  0  0
   43.2390   26.0800   47.2500 O   0  0  0  0  0  0  0  0  0  0  0  0
   44.0180   26.0180   48.3030 C   0  0  0  0  0  0  0  0  0  0  0  0
   44.8710   27.0580   48.2130 N   0  0  0  0  0  0  0  0  0  0  0  0
   44.3289   35.0090   45.3040 H   0  0  0  0  0  0  0  0  0  0  0  0
   45.4857   35.4185   43.0831 H   0  0  0  0  0  0  0  0  0  0  0  0
   48.2746   33.0863   42.0994 H   0  0  0  0  0  0  0  0  0  0  0  0
   46.3299   33.3619   40.7423 H   0  0  0  0  0  0  0  0  0  0  0  0
   46.1028   35.0262   41.1549 H   0  0  0  0  0  0  0  0  0  0  0  0
   47.5253   35.1470   39.1342 H   0  0  0  0  0  0  0  0  0  0  0  0
   48.4605   33.7325   39.5719 H   0  0  0  0  0  0  0  0  0  0  0  0
   49.9226   35.2717   40.4839 H   0  0  0  0  0  0  0  0  0  0  0  0
   48.6763   36.5541   40.5152 H   0  0  0  0  0  0  0  0  0  0  0  0
   48.1908   36.1097   42.7373 H   0  0  0  0  0  0  0  0  0  0  0  0
   49.5940   35.0906   42.8182 H   0  0  0  0  0  0  0  0  0  0  0  0
   47.4143   30.7905   45.9295 H   0  0  0  0  0  0  0  0  0  0  0  0
   48.2009   32.1220   46.9178 H   0  0  0  0  0  0  0  0  0  0  0  0
   46.8138   32.9789   49.0747 H   0  0  0  0  0  0  0  0  0  0  0  0
   44.9401   31.7373   50.5314 H   0  0  0  0  0  0  0  0  0  0  0  0
   43.9824   25.2644   49.1035 H   0  0  0  0  0  0  0  0  0  0  0  0
  1  6  2  0
  2  1  1  0
  3  2  2  0
  3  4  1  0
  4  5  2  0
  5  6  1  0
  5 12  1  0
  7 11  1  0
  7  3  1  0
  8  7  1  0
  9 10  1  0
  9  8  1  0
 10 11  1  0
 12 13  1  0
 13 17  1  0
 13 14  1  0
 14 15  2  0
 16 15  1  0
 17 16  2  0
 18 19  1  0
 18 17  1  0
 19 23  1  0
 20 19  2  0
 20 21  1  0
 21 22  1  0
 23 22  2  0
  1 24  1  0
  2 25  1  0
  7 26  1  0
  8 27  1  0
  8 28  1  0
  9 29  1  0
  9 30  1  0
 10 31  1  0
 10 32  1  0
 11 33  1  0
 11 34  1  0
 12 35  1  0
 12 36  1  0
 14 37  1  0
 15 38  1  0
 22 39  1  0
M  ISO  8  24  14  25  14  26  13  27  13  28  13  29  13  30  13  31  13
M  ISO  8  32  13  33  13  34  13  35   8  36   8  37  14  38  14  39  14
M  END
>  <minimizedAffinity>  (1) 
-5.75253439

>  <minimizedRMSD>  (1) 
2.31038594

$$$$
