
     RDKit          3D

 37 39  0  0  0  0  0  0  0  0999 V2000
   45.5010   34.1160   44.9620 C   0  0  0  0  0  0  0  0  0  0  0  0
   46.2450   34.5510   43.8430 C   0  0  0  0  0  0  0  0  0  0  0  0
   46.9510   33.5470   43.0940 C   0  0  0  0  0  0  0  0  0  0  0  0
   46.8450   32.2650   43.5250 N   0  0  0  0  0  0  0  0  0  0  0  0
   46.1190   31.8920   44.6050 C   0  0  0  0  0  0  0  0  0  0  0  0
   45.4590   32.8140   45.3090 N   0  0  0  0  0  0  0  0  0  0  0  0
   47.7590   33.8890   41.9140 C   0  0  0  0  0  0  0  0  0  0  0  0
   46.9770   34.1300   40.6910 C   0  0  0  0  0  0  0  0  0  0  0  0
   48.1000   34.6370   39.7860 C   0  0  0  0  0  0  0  0  0  0  0  0
   48.8660   35.5440   40.6800 C   0  0  0  0  0  0  0  0  0  0  0  0
   48.5240   35.1890   42.1260 C   0  0  0  0  0  0  0  0  0  0  0  0
   46.0680   30.4730   44.9920 C   0  0  0  0  0  0  0  0  0  0  0  0
   47.0480   30.0910   45.9810 N   0  0  0  0  0  0  0  0  0  0  0  0
   48.3470   29.8040   45.8410 C   0  0  0  0  0  0  0  0  0  0  0  0
   48.8920   29.4870   47.0780 C   0  0  0  0  0  0  0  0  0  0  0  0
   47.8900   29.5880   47.9840 N   0  0  0  0  0  0  0  0  0  0  0  0
   46.7890   29.9520   47.3030 C   0  0  0  0  0  0  0  0  0  0  0  0
   45.1720   30.2210   48.0590 S   0  0  0  0  0  0  0  0  0  0  0  0
   45.3140   31.3860   49.4450 C   0  0  0  0  0  0  0  0  0  0  0  0
   44.9459   34.8528   45.5611 H   0  0  0  0  0  0  0  0  0  0  0  0
   46.2827   35.6124   43.5568 H   0  0  0  0  0  0  0  0  0  0  0  0
   48.4077   33.0094   41.7901 H   0  0  0  0  0  0  0  0  0  0  0  0
   46.5206   33.2068   40.3045 H   0  0  0  0  0  0  0  0  0  0  0  0
   46.1180   34.8077   40.8043 H   0  0  0  0  0  0  0  0  0  0  0  0
   47.6949   35.1834   38.9215 H   0  0  0  0  0  0  0  0  0  0  0  0
   48.7126   33.8283   39.3609 H   0  0  0  0  0  0  0  0  0  0  0  0
   49.9446   35.4118   40.5091 H   0  0  0  0  0  0  0  0  0  0  0  0
   48.6034   36.5921   40.4736 H   0  0  0  0  0  0  0  0  0  0  0  0
   47.8950   35.9592   42.5962 H   0  0  0  0  0  0  0  0  0  0  0  0
   49.3914   35.1083   42.7976 H   0  0  0  0  0  0  0  0  0  0  0  0
   45.0679   30.2627   45.3989 H   0  0  0  0  0  0  0  0  0  0  0  0
   46.2920   29.8912   44.0857 H   0  0  0  0  0  0  0  0  0  0  0  0
   48.8996   29.8172   44.8900 H   0  0  0  0  0  0  0  0  0  0  0  0
   49.9360   29.2077   47.2828 H   0  0  0  0  0  0  0  0  0  0  0  0
   45.2469   30.8356   50.3950 H   0  0  0  0  0  0  0  0  0  0  0  0
   46.2821   31.9054   49.3897 H   0  0  0  0  0  0  0  0  0  0  0  0
   44.4990   32.1227   49.3897 H   0  0  0  0  0  0  0  0  0  0  0  0
  1  6  2  0
  2  1  1  0
  3  4  1  0
  3  2  2  0
  4  5  2  0
  5 12  1  0
  5  6  1  0
  7 11  1  0
  7  3  1  0
  8  7  1  0
  9 10  1  0
  9  8  1  0
 10 11  1  0
 12 13  1  0
 13 17  1  0
 14 13  1  0
 14 15  2  0
 15 16  1  0
 17 16  2  0
 17 18  1  0
 18 19  1  0
  1 20  1  0
  2 21  1  0
  7 22  1  0
  8 23  1  0
  8 24  1  0
  9 25  1  0
  9 26  1  0
 10 27  1  0
 10 28  1  0
 11 29  1  0
 11 30  1  0
 12 31  1  0
 12 32  1  0
 14 33  1  0
 15 34  1  0
 19 35  1  0
 19 36  1  0
 19 37  1  0
M  ISO  8  20  14  21  14  22  13  23  13  24  13  25  13  26  13  27  13
M  ISO  8  28  13  29  13  30  13  31   8  32   8  33  14  34  14  35   8
M  ISO  2  36   8  37   8
M  END
>  <minimizedAffinity>  (1) 
-4.42021561

>  <minimizedRMSD>  (1) 
1.24794233

$$$$
