
     RDKit          3D

 52 55  0  0  1  0  0  0  0  0999 V2000
   47.6280   34.6210   41.3110 C   0  0  1  0  0  0  0  0  0  0  0  0
   45.5650   33.9070   42.5310 C   0  0  0  0  0  0  0  0  0  0  0  0
   46.9530   34.0730   42.4970 C   0  0  0  0  0  0  0  0  0  0  0  0
   47.6980   33.7150   43.6370 C   0  0  0  0  0  0  0  0  0  0  0  0
   47.0650   33.2310   44.7130 N   0  0  0  0  0  0  0  0  0  0  0  0
   45.7240   33.0750   44.7370 C   0  0  0  0  0  0  0  0  0  0  0  0
   45.0110   33.4080   43.6660 N   0  0  0  0  0  0  0  0  0  0  0  0
   44.6660   34.2630   41.4890 C   0  0  0  0  0  0  0  0  0  0  0  0
   43.3730   33.3890   41.5720 C   0  0  0  0  0  0  0  0  0  0  0  0
   42.4840   34.1940   40.5940 C   0  0  0  0  0  0  0  0  0  0  0  0
   42.9350   35.6120   40.7470 C   0  0  0  0  0  0  0  0  0  0  0  0
   44.0600   35.6050   41.7600 C   0  0  0  0  0  0  0  0  0  0  0  0
   48.6260   35.6640   41.6240 C   0  0  0  0  0  0  0  0  0  0  0  0
   48.1490   33.4760   40.4910 C   0  0  0  0  0  0  0  0  0  0  0  0
   47.8010   33.5910   39.0920 N   0  0  0  0  0  0  0  0  0  0  0  0
   48.6050   34.4060   38.4110 N   0  0  0  0  0  0  0  0  0  0  0  0
   48.2120   34.4460   37.1300 C   0  0  0  0  0  0  0  0  0  0  0  0
   47.1200   33.6310   36.9850 C   0  0  0  0  0  0  0  0  0  0  0  0
   46.8900   33.1100   38.2320 C   0  0  0  0  0  0  0  0  0  0  0  0
   43.6150   30.6150   39.2570 C   0  0  0  0  0  0  0  0  0  0  0  0
   44.8070   30.4320   39.9210 C   0  0  0  0  0  0  0  0  0  0  0  0
   45.9260   31.1950   39.6610 C   0  0  0  0  0  0  0  0  0  0  0  0
   45.8800   32.1760   38.7150 C   0  0  0  0  0  0  0  0  0  0  0  0
   44.6720   32.3710   38.0330 C   0  0  0  0  0  0  0  0  0  0  0  0
   43.5560   31.5990   38.3020 C   0  0  0  0  0  0  0  0  0  0  0  0
   42.2460   29.6090   39.6420 S   0  0  0  0  0  0  0  0  0  0  0  0
   41.4980   29.1770   38.4330 O   0  0  0  0  0  0  0  0  0  0  0  0
   41.3060   30.3340   40.5700 O   0  0  0  0  0  0  0  0  0  0  0  0
   46.8998   35.1753   40.7007 H   0  0  0  0  0  0  0  0  0  0  0  0
   48.7917   33.8321   43.6435 H   0  0  0  0  0  0  0  0  0  0  0  0
   45.2268   32.6764   45.6337 H   0  0  0  0  0  0  0  0  0  0  0  0
   45.2440   34.1795   40.5568 H   0  0  0  0  0  0  0  0  0  0  0  0
   43.5458   32.3602   41.2230 H   0  0  0  0  0  0  0  0  0  0  0  0
   42.9603   33.2438   42.5812 H   0  0  0  0  0  0  0  0  0  0  0  0
   41.4222   34.0938   40.8635 H   0  0  0  0  0  0  0  0  0  0  0  0
   42.5785   33.8377   39.5576 H   0  0  0  0  0  0  0  0  0  0  0  0
   43.2953   36.0011   39.7833 H   0  0  0  0  0  0  0  0  0  0  0  0
   42.1077   36.2561   41.0796 H   0  0  0  0  0  0  0  0  0  0  0  0
   43.6794   35.6779   42.7895 H   0  0  0  0  0  0  0  0  0  0  0  0
   44.7598   36.4491   41.6723 H   0  0  0  0  0  0  0  0  0  0  0  0
   48.7218   35.7641   42.7152 H   0  0  0  0  0  0  0  0  0  0  0  0
   49.5986   35.3814   41.1949 H   0  0  0  0  0  0  0  0  0  0  0  0
   48.3008   36.6232   41.1949 H   0  0  0  0  0  0  0  0  0  0  0  0
   49.2450   33.4485   40.5804 H   0  0  0  0  0  0  0  0  0  0  0  0
   47.6877   32.5540   40.8747 H   0  0  0  0  0  0  0  0  0  0  0  0
   48.6861   35.0339   36.3302 H   0  0  0  0  0  0  0  0  0  0  0  0
   46.5498   33.4364   36.0647 H   0  0  0  0  0  0  0  0  0  0  0  0
   44.8693   29.6467   40.6887 H   0  0  0  0  0  0  0  0  0  0  0  0
   46.8570   31.0120   40.2176 H   0  0  0  0  0  0  0  0  0  0  0  0
   44.6093   33.1565   37.2655 H   0  0  0  0  0  0  0  0  0  0  0  0
   42.6207   31.7739   37.7501 H   0  0  0  0  0  0  0  0  0  0  0  0
   42.7441   28.4885   40.2531 H   0  0  0  0  0  0  0  0  0  0  0  0
  1 13  1  0
  1  3  1  0
  2  7  2  0
  3  2  1  0
  3  4  2  0
  4  5  1  0
  5  6  2  0
  7  6  1  0
  8  9  1  0
  8 12  1  0
  8  2  1  0
 10 11  1  0
 10  9  1  0
 11 12  1  0
 14  1  1  0
 15 14  1  0
 16 15  1  0
 17 16  2  0
 18 17  1  0
 18 19  2  0
 19 23  1  0
 19 15  1  0
 20 26  1  0
 20 21  2  0
 22 21  1  0
 23 22  2  0
 24 25  2  0
 24 23  1  0
 25 20  1  0
 26 28  2  0
 27 26  2  0
  1 29  1  6
  4 30  1  0
  6 31  1  0
  8 32  1  0
  9 33  1  0
  9 34  1  0
 10 35  1  0
 10 36  1  0
 11 37  1  0
 11 38  1  0
 12 39  1  0
 12 40  1  0
 13 41  1  0
 13 42  1  0
 13 43  1  0
 14 44  1  0
 14 45  1  0
 17 46  1  0
 18 47  1  0
 21 48  1  0
 22 49  1  0
 24 50  1  0
 25 51  1  0
 26 52  1  0
M  ISO  8  29   8  30  14  31  14  32  13  33  13  34  13  35  13  36  13
M  ISO  8  37  13  38  13  39  13  40  13  41   8  42   8  43   8  44   8
M  ISO  8  45   8  46  14  47  14  48  14  49  14  50  14  51  14  52  11
M  END
>  <minimizedAffinity>  (1) 
-4.80215979

>  <minimizedRMSD>  (1) 
3.26143432

$$$$
