
     RDKit          3D

 48 52  0  0  0  0  0  0  0  0999 V2000
   48.5700   30.2640   42.9130 C   0  0  0  0  0  0  0  0  0  0  0  0
   49.5840   29.0610   46.2540 C   0  0  0  0  0  0  0  0  0  0  0  0
   48.6430   29.6830   47.1110 C   0  0  0  0  0  0  0  0  0  0  0  0
   47.6560   30.5240   46.4940 C   0  0  0  0  0  0  0  0  0  0  0  0
   47.6990   30.6570   45.1570 N   0  0  0  0  0  0  0  0  0  0  0  0
   48.6060   30.0550   44.3620 C   0  0  0  0  0  0  0  0  0  0  0  0
   49.5400   29.2620   44.9160 N   0  0  0  0  0  0  0  0  0  0  0  0
   46.6500   31.2070   47.3090 C   0  0  0  0  0  0  0  0  0  0  0  0
   45.3410   30.5380   47.4060 C   0  0  0  0  0  0  0  0  0  0  0  0
   44.6720   31.4470   48.4420 C   0  0  0  0  0  0  0  0  0  0  0  0
   45.7570   31.6550   49.4420 C   0  0  0  0  0  0  0  0  0  0  0  0
   47.0960   31.3830   48.7560 C   0  0  0  0  0  0  0  0  0  0  0  0
   48.9210   31.6040   42.4940 N   0  0  0  0  0  0  0  0  0  0  0  0
   50.1100   32.2190   42.4640 C   0  0  0  0  0  0  0  0  0  0  0  0
   49.9440   33.5030   41.9850 C   0  0  0  0  0  0  0  0  0  0  0  0
   48.6460   33.6650   41.7230 N   0  0  0  0  0  0  0  0  0  0  0  0
   48.0000   32.5050   42.0320 C   0  0  0  0  0  0  0  0  0  0  0  0
   46.2690   32.1950   41.8580 S   0  0  0  0  0  0  0  0  0  0  0  0
   45.1850   33.5180   41.6210 C   0  0  0  0  0  0  0  0  0  0  0  0
   45.3310   34.3950   42.6690 N   0  0  0  0  0  0  0  0  0  0  0  0
   44.5890   35.5370   42.7350 C   0  0  0  0  0  0  0  0  0  0  0  0
   43.6730   35.8770   41.7870 N   0  0  0  0  0  0  0  0  0  0  0  0
   43.4950   35.0580   40.7530 C   0  0  0  0  0  0  0  0  0  0  0  0
   42.6180   35.2460   39.7150 C   0  0  0  0  0  0  0  0  0  0  0  0
   42.4780   34.3440   38.6560 C   0  0  0  0  0  0  0  0  0  0  0  0
   43.2640   33.2040   38.6530 C   0  0  0  0  0  0  0  0  0  0  0  0
   44.1440   33.0070   39.6840 C   0  0  0  0  0  0  0  0  0  0  0  0
   44.2480   33.9110   40.6970 C   0  0  0  0  0  0  0  0  0  0  0  0
   49.2761   29.5614   42.4463 H   0  0  0  0  0  0  0  0  0  0  0  0
   47.5293   30.0986   42.5974 H   0  0  0  0  0  0  0  0  0  0  0  0
   50.3591   28.4074   46.6805 H   0  0  0  0  0  0  0  0  0  0  0  0
   48.6673   29.5287   48.1999 H   0  0  0  0  0  0  0  0  0  0  0  0
   46.5421   32.1584   46.7675 H   0  0  0  0  0  0  0  0  0  0  0  0
   44.8041   30.5446   46.4460 H   0  0  0  0  0  0  0  0  0  0  0  0
   45.3777   29.4712   47.6717 H   0  0  0  0  0  0  0  0  0  0  0  0
   44.3598   32.4004   47.9909 H   0  0  0  0  0  0  0  0  0  0  0  0
   43.7559   31.0176   48.8738 H   0  0  0  0  0  0  0  0  0  0  0  0
   45.7307   32.6912   49.8101 H   0  0  0  0  0  0  0  0  0  0  0  0
   45.6223   30.9754   50.2964 H   0  0  0  0  0  0  0  0  0  0  0  0
   47.5720   30.4712   49.1459 H   0  0  0  0  0  0  0  0  0  0  0  0
   47.8506   32.1692   48.9058 H   0  0  0  0  0  0  0  0  0  0  0  0
   51.0668   31.7722   42.7720 H   0  0  0  0  0  0  0  0  0  0  0  0
   50.7357   34.2538   41.8452 H   0  0  0  0  0  0  0  0  0  0  0  0
   44.7368   36.2123   43.5906 H   0  0  0  0  0  0  0  0  0  0  0  0
   41.9937   36.1517   39.7159 H   0  0  0  0  0  0  0  0  0  0  0  0
   41.7605   34.5354   37.8445 H   0  0  0  0  0  0  0  0  0  0  0  0
   43.1832   32.4701   37.8376 H   0  0  0  0  0  0  0  0  0  0  0  0
   44.7753   32.1062   39.6938 H   0  0  0  0  0  0  0  0  0  0  0  0
  1  6  1  0
  2  3  2  0
  4  3  1  0
  4  8  1  0
  5  4  2  0
  6  7  2  0
  6  5  1  0
  7  2  1  0
  8  9  1  0
  8 12  1  0
  9 10  1  0
 10 11  1  0
 12 11  1  0
 13  1  1  0
 14 13  1  0
 15 14  2  0
 16 15  1  0
 16 17  2  0
 17 13  1  0
 18 17  1  0
 19 18  1  0
 19 20  2  0
 20 21  1  0
 22 21  2  0
 23 22  1  0
 24 23  2  0
 25 24  1  0
 26 25  2  0
 26 27  1  0
 27 28  2  0
 28 23  1  0
 28 19  1  0
  1 29  1  0
  1 30  1  0
  2 31  1  0
  3 32  1  0
  8 33  1  0
  9 34  1  0
  9 35  1  0
 10 36  1  0
 10 37  1  0
 11 38  1  0
 11 39  1  0
 12 40  1  0
 12 41  1  0
 14 42  1  0
 15 43  1  0
 21 44  1  0
 24 45  1  0
 25 46  1  0
 26 47  1  0
 27 48  1  0
M  ISO  8  29   8  30   8  31  14  32  14  33  13  34  13  35  13  36  13
M  ISO  8  37  13  38  13  39  13  40  13  41  13  42  14  43  14  44  14
M  ISO  4  45  14  46  14  47  14  48  14
M  END
>  <minimizedAffinity>  (1) 
-5.23919249

>  <minimizedRMSD>  (1) 
8.57601833

$$$$
