
     RDKit          3D

 40 43  0  0  0  0  0  0  0  0999 V2000
   48.0770   30.6670   44.1030 C   0  0  0  0  0  0  0  0  0  0  0  0
   47.5330   30.7450   45.4090 C   0  0  0  0  0  0  0  0  0  0  0  0
   46.3450   31.5240   45.5850 C   0  0  0  0  0  0  0  0  0  0  0  0
   45.8460   32.1140   44.4940 N   0  0  0  0  0  0  0  0  0  0  0  0
   46.3750   32.0310   43.2540 C   0  0  0  0  0  0  0  0  0  0  0  0
   47.4720   31.3160   43.0730 N   0  0  0  0  0  0  0  0  0  0  0  0
   45.7230   31.6530   46.9040 C   0  0  0  0  0  0  0  0  0  0  0  0
   45.3220   30.3910   47.5470 C   0  0  0  0  0  0  0  0  0  0  0  0
   44.8960   30.9210   48.9090 C   0  0  0  0  0  0  0  0  0  0  0  0
   45.9890   31.8850   49.2250 C   0  0  0  0  0  0  0  0  0  0  0  0
   46.6400   32.3280   47.9150 C   0  0  0  0  0  0  0  0  0  0  0  0
   45.7530   32.7180   42.1310 C   0  0  0  0  0  0  0  0  0  0  0  0
   45.3930   34.0880   42.3800 N   0  0  0  0  0  0  0  0  0  0  0  0
   45.9020   34.9840   43.2380 C   0  0  0  0  0  0  0  0  0  0  0  0
   45.2160   36.1730   43.1210 C   0  0  0  0  0  0  0  0  0  0  0  0
   44.2690   35.9920   42.1730 N   0  0  0  0  0  0  0  0  0  0  0  0
   44.3930   34.7140   41.7310 C   0  0  0  0  0  0  0  0  0  0  0  0
   43.3640   34.0050   40.4440 S   0  0  0  0  0  0  0  0  0  0  0  0
   41.9030   33.2130   41.1050 C   0  0  0  0  0  0  0  0  0  0  0  0
   42.0920   31.8810   41.5990 C   0  0  0  0  0  0  0  0  0  0  0  0
   40.3990   31.5210   42.1580 S   0  0  0  0  0  0  0  0  0  0  0  0
   39.7300   33.2210   41.6310 C   0  0  0  0  0  0  0  0  0  0  0  0
   40.7250   33.7980   41.1540 N   0  0  0  0  0  0  0  0  0  0  0  0
   48.9900   30.0806   43.9223 H   0  0  0  0  0  0  0  0  0  0  0  0
   48.0059   30.2263   46.2560 H   0  0  0  0  0  0  0  0  0  0  0  0
   44.8287   32.2481   46.6672 H   0  0  0  0  0  0  0  0  0  0  0  0
   44.4882   29.9080   47.0165 H   0  0  0  0  0  0  0  0  0  0  0  0
   46.0991   29.6129   47.5718 H   0  0  0  0  0  0  0  0  0  0  0  0
   43.9210   31.4271   48.8533 H   0  0  0  0  0  0  0  0  0  0  0  0
   44.7652   30.1359   49.6682 H   0  0  0  0  0  0  0  0  0  0  0  0
   45.5729   32.7595   49.7467 H   0  0  0  0  0  0  0  0  0  0  0  0
   46.7370   31.4065   49.8742 H   0  0  0  0  0  0  0  0  0  0  0  0
   47.6742   31.9624   47.8320 H   0  0  0  0  0  0  0  0  0  0  0  0
   46.7300   33.4177   47.7946 H   0  0  0  0  0  0  0  0  0  0  0  0
   44.8393   32.1692   41.8590 H   0  0  0  0  0  0  0  0  0  0  0  0
   46.5053   32.7389   41.3288 H   0  0  0  0  0  0  0  0  0  0  0  0
   46.7380   34.7984   43.9285 H   0  0  0  0  0  0  0  0  0  0  0  0
   45.4032   37.0950   43.6909 H   0  0  0  0  0  0  0  0  0  0  0  0
   42.9977   31.2576   41.6308 H   0  0  0  0  0  0  0  0  0  0  0  0
   38.7036   33.6051   41.7255 H   0  0  0  0  0  0  0  0  0  0  0  0
  1  2  2  0
  2  3  1  0
  3  7  1  0
  4  3  2  0
  5  4  1  0
  6  5  2  0
  6  1  1  0
  7  8  1  0
  7 11  1  0
  8  9  1  0
  9 10  1  0
 11 10  1  0
 12 13  1  0
 12  5  1  0
 13 14  1  0
 15 14  2  0
 16 15  1  0
 17 16  2  0
 17 13  1  0
 18 19  1  0
 18 17  1  0
 19 23  1  0
 19 20  2  0
 20 21  1  0
 22 21  1  0
 23 22  2  0
  1 24  1  0
  2 25  1  0
  7 26  1  0
  8 27  1  0
  8 28  1  0
  9 29  1  0
  9 30  1  0
 10 31  1  0
 10 32  1  0
 11 33  1  0
 11 34  1  0
 12 35  1  0
 12 36  1  0
 14 37  1  0
 15 38  1  0
 20 39  1  0
 22 40  1  0
M  ISO  8  24  14  25  14  26  13  27  13  28  13  29  13  30  13  31  13
M  ISO  8  32  13  33  13  34  13  35   8  36   8  37  14  38  14  39  14
M  ISO  1  40  14
M  END
>  <minimizedAffinity>  (1) 
-4.94292164

>  <minimizedRMSD>  (1) 
7.30024433

$$$$
