
     RDKit          3D

 43 45  0  0  0  0  0  0  0  0999 V2000
   45.2350   34.4090   45.0160 C   0  0  0  0  0  0  0  0  0  0  0  0
   45.8910   34.6680   43.7880 C   0  0  0  0  0  0  0  0  0  0  0  0
   47.0170   33.8590   43.4550 C   0  0  0  0  0  0  0  0  0  0  0  0
   47.3720   32.9070   44.3400 N   0  0  0  0  0  0  0  0  0  0  0  0
   46.7310   32.6770   45.5040 C   0  0  0  0  0  0  0  0  0  0  0  0
   45.6730   33.4200   45.8330 N   0  0  0  0  0  0  0  0  0  0  0  0
   47.7490   34.0480   42.1990 C   0  0  0  0  0  0  0  0  0  0  0  0
   46.9000   34.3120   41.0120 C   0  0  0  0  0  0  0  0  0  0  0  0
   47.9940   34.6110   39.9920 C   0  0  0  0  0  0  0  0  0  0  0  0
   48.8920   35.5270   40.7660 C   0  0  0  0  0  0  0  0  0  0  0  0
   48.6930   35.2270   42.2490 C   0  0  0  0  0  0  0  0  0  0  0  0
   47.1990   31.6110   46.4010 C   0  0  0  0  0  0  0  0  0  0  0  0
   46.3920   31.4230   47.5760 N   0  0  0  0  0  0  0  0  0  0  0  0
   46.3730   32.0910   48.7280 C   0  0  0  0  0  0  0  0  0  0  0  0
   45.4160   31.5460   49.5760 C   0  0  0  0  0  0  0  0  0  0  0  0
   44.8490   30.5230   48.9120 N   0  0  0  0  0  0  0  0  0  0  0  0
   45.4450   30.4620   47.7040 C   0  0  0  0  0  0  0  0  0  0  0  0
   45.0790   29.2400   46.4190 S   0  0  0  0  0  0  0  0  0  0  0  0
   44.6670   27.7060   47.2810 C   0  0  0  0  0  0  0  0  0  0  0  0
   43.6530   26.8890   46.4900 C   0  0  0  0  0  0  0  0  0  0  0  0
   45.8630   26.8360   47.5370 C   0  0  0  0  0  0  0  0  0  0  0  0
   44.3644   35.0143   45.3088 H   0  0  0  0  0  0  0  0  0  0  0  0
   45.5440   35.4655   43.1145 H   0  0  0  0  0  0  0  0  0  0  0  0
   48.2687   33.0841   42.0950 H   0  0  0  0  0  0  0  0  0  0  0  0
   46.3027   33.4326   40.7293 H   0  0  0  0  0  0  0  0  0  0  0  0
   46.1451   35.1020   41.1388 H   0  0  0  0  0  0  0  0  0  0  0  0
   47.5853   35.1096   39.1007 H   0  0  0  0  0  0  0  0  0  0  0  0
   48.4994   33.7140   39.6047 H   0  0  0  0  0  0  0  0  0  0  0  0
   49.9406   35.3492   40.4851 H   0  0  0  0  0  0  0  0  0  0  0  0
   48.6498   36.5779   40.5494 H   0  0  0  0  0  0  0  0  0  0  0  0
   48.2402   36.0812   42.7737 H   0  0  0  0  0  0  0  0  0  0  0  0
   49.6277   35.0279   42.7937 H   0  0  0  0  0  0  0  0  0  0  0  0
   47.2091   30.6669   45.8366 H   0  0  0  0  0  0  0  0  0  0  0  0
   48.1967   31.9132   46.7520 H   0  0  0  0  0  0  0  0  0  0  0  0
   47.0190   32.9472   48.9722 H   0  0  0  0  0  0  0  0  0  0  0  0
   45.1701   31.8855   50.5930 H   0  0  0  0  0  0  0  0  0  0  0  0
   44.2462   28.0188   48.2480 H   0  0  0  0  0  0  0  0  0  0  0  0
   42.9897   26.3546   47.1860 H   0  0  0  0  0  0  0  0  0  0  0  0
   43.0551   27.5607   45.8565 H   0  0  0  0  0  0  0  0  0  0  0  0
   44.1821   26.1619   45.8565 H   0  0  0  0  0  0  0  0  0  0  0  0
   46.0121   26.7275   48.6214 H   0  0  0  0  0  0  0  0  0  0  0  0
   45.6984   25.8451   47.0886 H   0  0  0  0  0  0  0  0  0  0  0  0
   46.7550   27.2978   47.0886 H   0  0  0  0  0  0  0  0  0  0  0  0
  1  6  2  0
  2  1  1  0
  3  2  2  0
  3  4  1  0
  4  5  2  0
  5  6  1  0
  5 12  1  0
  7 11  1  0
  7  3  1  0
  8  7  1  0
  9 10  1  0
  9  8  1  0
 10 11  1  0
 12 13  1  0
 13 17  1  0
 13 14  1  0
 14 15  2  0
 16 15  1  0
 17 16  2  0
 18 19  1  0
 18 17  1  0
 19 21  1  0
 20 19  1  0
  1 22  1  0
  2 23  1  0
  7 24  1  0
  8 25  1  0
  8 26  1  0
  9 27  1  0
  9 28  1  0
 10 29  1  0
 10 30  1  0
 11 31  1  0
 11 32  1  0
 12 33  1  0
 12 34  1  0
 14 35  1  0
 15 36  1  0
 19 37  1  0
 20 38  1  0
 20 39  1  0
 20 40  1  0
 21 41  1  0
 21 42  1  0
 21 43  1  0
M  ISO  8  22  14  23  14  24  13  25  13  26  13  27  13  28  13  29  13
M  ISO  8  30  13  31  13  32  13  33   8  34   8  35  14  36  14  37   8
M  ISO  6  38   8  39   8  40   8  41   8  42   8  43   8
M  END
>  <minimizedAffinity>  (1) 
-5.44350672

>  <minimizedRMSD>  (1) 
1.99567187

$$$$
