
     RDKit          3D

 42 44  0  0  1  0  0  0  0  0999 V2000
   45.6450   34.1940   42.2070 C   0  0  0  0  0  0  0  0  0  0  0  0
   47.0370   34.2600   42.2900 C   0  0  0  0  0  0  0  0  0  0  0  0
   47.6500   33.9160   43.5120 C   0  0  0  0  0  0  0  0  0  0  0  0
   46.8930   33.5400   44.5480 N   0  0  0  0  0  0  0  0  0  0  0  0
   45.5480   33.4790   44.4590 C   0  0  0  0  0  0  0  0  0  0  0  0
   44.9580   33.8000   43.3110 N   0  0  0  0  0  0  0  0  0  0  0  0
   44.8700   34.5540   41.0710 C   0  0  0  0  0  0  0  0  0  0  0  0
   44.0700   33.3190   40.5500 C   0  0  0  0  0  0  0  0  0  0  0  0
   43.1060   34.0500   39.5830 C   0  0  0  0  0  0  0  0  0  0  0  0
   42.8780   35.3830   40.2160 C   0  0  0  0  0  0  0  0  0  0  0  0
   43.7180   35.4160   41.4830 C   0  0  0  0  0  0  0  0  0  0  0  0
   47.8550   34.6920   41.1480 C   0  0  1  0  0  0  0  0  0  0  0  0
   48.8330   35.7490   41.4830 C   0  0  0  0  0  0  0  0  0  0  0  0
   48.4400   33.4690   40.5010 C   0  0  0  0  0  0  0  0  0  0  0  0
   47.7160   33.0820   39.3030 N   0  0  0  0  0  0  0  0  0  0  0  0
   47.7620   33.9780   38.3270 N   0  0  0  0  0  0  0  0  0  0  0  0
   47.0680   33.5330   37.2720 C   0  0  0  0  0  0  0  0  0  0  0  0
   46.5560   32.3010   37.5860 C   0  0  0  0  0  0  0  0  0  0  0  0
   46.9810   32.0470   38.8640 C   0  0  0  0  0  0  0  0  0  0  0  0
   46.7870   30.9060   39.7900 C   0  0  0  0  0  0  0  0  0  0  0  0
   48.7446   33.9567   43.6126 H   0  0  0  0  0  0  0  0  0  0  0  0
   44.9465   33.1675   45.3257 H   0  0  0  0  0  0  0  0  0  0  0  0
   45.5780   35.0040   40.3595 H   0  0  0  0  0  0  0  0  0  0  0  0
   44.7159   32.6003   40.0244 H   0  0  0  0  0  0  0  0  0  0  0  0
   43.5888   32.7041   41.3248 H   0  0  0  0  0  0  0  0  0  0  0  0
   42.1592   33.4982   39.4876 H   0  0  0  0  0  0  0  0  0  0  0  0
   43.5191   34.1354   38.5671 H   0  0  0  0  0  0  0  0  0  0  0  0
   43.1918   36.1857   39.5324 H   0  0  0  0  0  0  0  0  0  0  0  0
   41.8127   35.5350   40.4441 H   0  0  0  0  0  0  0  0  0  0  0  0
   43.1770   34.9881   42.3398 H   0  0  0  0  0  0  0  0  0  0  0  0
   43.9987   36.4248   41.8200 H   0  0  0  0  0  0  0  0  0  0  0  0
   47.2174   35.1992   40.4090 H   0  0  0  0  0  0  0  0  0  0  0  0
   48.9160   35.8387   42.5762 H   0  0  0  0  0  0  0  0  0  0  0  0
   49.8146   35.4874   41.0610 H   0  0  0  0  0  0  0  0  0  0  0  0
   48.4961   36.7073   41.0610 H   0  0  0  0  0  0  0  0  0  0  0  0
   49.4859   33.6771   40.2310 H   0  0  0  0  0  0  0  0  0  0  0  0
   48.3693   32.6400   41.2206 H   0  0  0  0  0  0  0  0  0  0  0  0
   46.9323   34.0642   36.3184 H   0  0  0  0  0  0  0  0  0  0  0  0
   45.9360   31.6539   36.9481 H   0  0  0  0  0  0  0  0  0  0  0  0
   46.8476   31.2625   40.8289 H   0  0  0  0  0  0  0  0  0  0  0  0
   45.7993   30.4549   39.6142 H   0  0  0  0  0  0  0  0  0  0  0  0
   47.5701   30.1538   39.6142 H   0  0  0  0  0  0  0  0  0  0  0  0
  1  2  1  0
  1  6  2  0
  2  3  2  0
  3  4  1  0
  5  4  2  0
  6  5  1  0
  7 11  1  0
  7  1  1  0
  8  7  1  0
  9 10  1  0
  9  8  1  0
 10 11  1  0
 12 13  1  0
 12  2  1  0
 14 12  1  0
 15 14  1  0
 16 15  1  0
 17 18  1  0
 17 16  2  0
 18 19  2  0
 19 15  1  0
 19 20  1  0
  3 21  1  0
  5 22  1  0
  7 23  1  0
  8 24  1  0
  8 25  1  0
  9 26  1  0
  9 27  1  0
 10 28  1  0
 10 29  1  0
 11 30  1  0
 11 31  1  0
 12 32  1  6
 13 33  1  0
 13 34  1  0
 13 35  1  0
 14 36  1  0
 14 37  1  0
 17 38  1  0
 18 39  1  0
 20 40  1  0
 20 41  1  0
 20 42  1  0
M  ISO  8  21  14  22  14  23  13  24  13  25  13  26  13  27  13  28  13
M  ISO  8  29  13  30  13  31  13  32   8  33   8  34   8  35   8  36   8
M  ISO  6  37   8  38  14  39  14  40   8  41   8  42   8
M  END
>  <minimizedAffinity>  (1) 
-4.75706244

>  <minimizedRMSD>  (1) 
0.236905128

$$$$
