
     RDKit          3D

 38 40  0  0  0  0  0  0  0  0999 V2000
   45.6340   34.8700   42.5550 C   0  0  0  0  0  0  0  0  0  0  0  0
   45.2140   36.1300   43.1700 C   0  0  0  0  0  0  0  0  0  0  0  0
   44.8160   35.8920   44.6170 C   0  0  0  0  0  0  0  0  0  0  0  0
   45.1310   34.4370   44.9150 C   0  0  0  0  0  0  0  0  0  0  0  0
   45.1230   33.7900   43.5940 C   0  0  0  0  0  0  0  0  0  0  0  0
   47.0780   34.6270   42.5070 C   0  0  0  0  0  0  0  0  0  0  0  0
   47.9480   35.6250   42.0220 C   0  0  0  0  0  0  0  0  0  0  0  0
   49.3230   35.4210   41.9500 C   0  0  0  0  0  0  0  0  0  0  0  0
   49.7630   34.2070   42.3750 N   0  0  0  0  0  0  0  0  0  0  0  0
   48.9260   33.2520   42.8390 C   0  0  0  0  0  0  0  0  0  0  0  0
   47.6190   33.4870   42.8910 N   0  0  0  0  0  0  0  0  0  0  0  0
   44.9230   34.5480   41.2940 C   0  0  0  0  0  0  0  0  0  0  0  0
   43.7430   34.9550   41.1410 O   0  0  0  0  0  0  0  0  0  0  0  0
   45.5360   32.4380   37.6540 C   0  0  0  0  0  0  0  0  0  0  0  0
   44.2630   32.7660   38.0420 C   0  0  0  0  0  0  0  0  0  0  0  0
   44.0890   33.4680   39.2500 C   0  0  0  0  0  0  0  0  0  0  0  0
   45.1550   33.8310   40.0420 C   0  0  0  0  0  0  0  0  0  0  0  0
   46.3610   33.4570   39.5650 C   0  0  0  0  0  0  0  0  0  0  0  0
   46.6400   32.7740   38.4050 C   0  0  0  0  0  0  0  0  0  0  0  0
   45.7130   31.5660   36.1460 S   0  0  0  0  0  0  0  0  0  0  0  0
   47.0940   31.0090   36.0720 O   0  0  0  0  0  0  0  0  0  0  0  0
   45.3860   32.4340   34.9650 O   0  0  0  0  0  0  0  0  0  0  0  0
   46.0461   36.8485   43.1341 H   0  0  0  0  0  0  0  0  0  0  0  0
   44.3513   36.5321   42.6186 H   0  0  0  0  0  0  0  0  0  0  0  0
   45.3928   36.5502   45.2833 H   0  0  0  0  0  0  0  0  0  0  0  0
   43.7500   36.1101   44.7782 H   0  0  0  0  0  0  0  0  0  0  0  0
   46.1180   34.3408   45.3909 H   0  0  0  0  0  0  0  0  0  0  0  0
   44.4106   33.9833   45.6115 H   0  0  0  0  0  0  0  0  0  0  0  0
   44.1033   33.4682   43.3357 H   0  0  0  0  0  0  0  0  0  0  0  0
   45.7669   32.8982   43.5864 H   0  0  0  0  0  0  0  0  0  0  0  0
   47.5301   36.5878   41.6927 H   0  0  0  0  0  0  0  0  0  0  0  0
   50.0100   36.1931   41.5731 H   0  0  0  0  0  0  0  0  0  0  0  0
   49.3258   32.2830   43.1726 H   0  0  0  0  0  0  0  0  0  0  0  0
   43.3970   32.4871   37.4237 H   0  0  0  0  0  0  0  0  0  0  0  0
   43.0710   33.7344   39.5705 H   0  0  0  0  0  0  0  0  0  0  0  0
   47.2291   33.7332   40.1815 H   0  0  0  0  0  0  0  0  0  0  0  0
   47.6651   32.5161   38.1006 H   0  0  0  0  0  0  0  0  0  0  0  0
   44.8172   30.5301   36.1089 H   0  0  0  0  0  0  0  0  0  0  0  0
  1  2  1  0
  1  5  1  0
  2  3  1  0
  3  4  1  0
  5  4  1  0
  6  1  1  0
  6 11  1  0
  7  6  2  0
  8  7  1  0
  8  9  2  0
  9 10  1  0
 10 11  2  0
 12  1  1  0
 13 12  2  0
 14 15  2  0
 14 19  1  0
 15 16  1  0
 16 17  2  0
 17 12  1  0
 18 17  1  0
 19 18  2  0
 20 14  1  0
 21 20  2  0
 22 20  2  0
  2 23  1  0
  2 24  1  0
  3 25  1  0
  3 26  1  0
  4 27  1  0
  4 28  1  0
  5 29  1  0
  5 30  1  0
  7 31  1  0
  8 32  1  0
 10 33  1  0
 15 34  1  0
 16 35  1  0
 18 36  1  0
 19 37  1  0
 20 38  1  0
M  ISO  8  23  13  24  13  25  13  26  13  27  13  28  13  29  13  30  13
M  ISO  8  31  14  32  14  33  14  34  14  35  14  36  14  37  14  38  11
M  END
>  <minimizedAffinity>  (1) 
-5.04711962

>  <minimizedRMSD>  (1) 
0.926210225

$$$$
