
     RDKit          3D

 41 43  0  0  1  0  0  0  0  0999 V2000
   45.6730   34.2170   42.2020 C   0  0  0  0  0  0  0  0  0  0  0  0
   47.0680   34.2650   42.2940 C   0  0  0  0  0  0  0  0  0  0  0  0
   47.6740   33.9110   43.5230 C   0  0  0  0  0  0  0  0  0  0  0  0
   46.8960   33.5460   44.5510 N   0  0  0  0  0  0  0  0  0  0  0  0
   45.5510   33.5030   44.4520 C   0  0  0  0  0  0  0  0  0  0  0  0
   44.9730   33.8330   43.3000 N   0  0  0  0  0  0  0  0  0  0  0  0
   44.9110   34.5880   41.0590 C   0  0  0  0  0  0  0  0  0  0  0  0
   44.2570   33.3270   40.4170 C   0  0  0  0  0  0  0  0  0  0  0  0
   43.2580   34.0250   39.4640 C   0  0  0  0  0  0  0  0  0  0  0  0
   42.8860   35.2870   40.1800 C   0  0  0  0  0  0  0  0  0  0  0  0
   43.6640   35.3050   41.4780 C   0  0  0  0  0  0  0  0  0  0  0  0
   47.8970   34.6800   41.1540 C   0  0  1  0  0  0  0  0  0  0  0  0
   48.8520   35.7610   41.4780 C   0  0  0  0  0  0  0  0  0  0  0  0
   48.5110   33.4460   40.5510 C   0  0  0  0  0  0  0  0  0  0  0  0
   47.7840   32.9870   39.3790 N   0  0  0  0  0  0  0  0  0  0  0  0
   47.5710   33.9220   38.4730 N   0  0  0  0  0  0  0  0  0  0  0  0
   46.8930   33.4100   37.4370 C   0  0  0  0  0  0  0  0  0  0  0  0
   46.6640   32.0840   37.6980 C   0  0  0  0  0  0  0  0  0  0  0  0
   47.2360   31.8500   38.9220 C   0  0  0  0  0  0  0  0  0  0  0  0
   47.3490   30.6960   39.7500 N   0  0  0  0  0  0  0  0  0  0  0  0
   48.7682   33.9352   43.6327 H   0  0  0  0  0  0  0  0  0  0  0  0
   44.9393   33.1985   45.3140 H   0  0  0  0  0  0  0  0  0  0  0  0
   45.5987   35.1555   40.4147 H   0  0  0  0  0  0  0  0  0  0  0  0
   44.9902   32.7165   39.8695 H   0  0  0  0  0  0  0  0  0  0  0  0
   43.8118   32.6141   41.1266 H   0  0  0  0  0  0  0  0  0  0  0  0
   42.3717   33.3948   39.2985 H   0  0  0  0  0  0  0  0  0  0  0  0
   43.6882   34.2163   38.4699 H   0  0  0  0  0  0  0  0  0  0  0  0
   43.1523   36.1612   39.5678 H   0  0  0  0  0  0  0  0  0  0  0  0
   41.8033   35.3257   40.3707 H   0  0  0  0  0  0  0  0  0  0  0  0
   43.1341   34.7652   42.2766 H   0  0  0  0  0  0  0  0  0  0  0  0
   43.8311   36.3077   41.8983 H   0  0  0  0  0  0  0  0  0  0  0  0
   47.2667   35.1579   40.3896 H   0  0  0  0  0  0  0  0  0  0  0  0
   48.9384   35.8588   42.5702 H   0  0  0  0  0  0  0  0  0  0  0  0
   49.8372   35.5196   41.0524 H   0  0  0  0  0  0  0  0  0  0  0  0
   48.4910   36.7089   41.0524 H   0  0  0  0  0  0  0  0  0  0  0  0
   49.5470   33.6725   40.2589 H   0  0  0  0  0  0  0  0  0  0  0  0
   48.4732   32.6469   41.3059 H   0  0  0  0  0  0  0  0  0  0  0  0
   46.5763   33.9568   36.5366 H   0  0  0  0  0  0  0  0  0  0  0  0
   46.1338   31.3610   37.0607 H   0  0  0  0  0  0  0  0  0  0  0  0
   47.8365   30.7574   40.6552 H   0  0  0  0  0  0  0  0  0  0  0  0
   46.9432   29.8004   39.4433 H   0  0  0  0  0  0  0  0  0  0  0  0
  1  2  1  0
  1  6  2  0
  2  3  2  0
  3  4  1  0
  5  4  2  0
  6  5  1  0
  7 11  1  0
  7  1  1  0
  8  7  1  0
  9 10  1  0
  9  8  1  0
 10 11  1  0
 12 13  1  0
 12  2  1  0
 14 12  1  0
 15 14  1  0
 16 15  1  0
 17 18  1  0
 17 16  2  0
 18 19  2  0
 19 15  1  0
 19 20  1  0
  3 21  1  0
  5 22  1  0
  7 23  1  0
  8 24  1  0
  8 25  1  0
  9 26  1  0
  9 27  1  0
 10 28  1  0
 10 29  1  0
 11 30  1  0
 11 31  1  0
 12 32  1  6
 13 33  1  0
 13 34  1  0
 13 35  1  0
 14 36  1  0
 14 37  1  0
 17 38  1  0
 18 39  1  0
 20 40  1  0
 20 41  1  0
M  ISO  8  21  14  22  14  23  13  24  13  25  13  26  13  27  13  28  13
M  ISO  8  29  13  30  13  31  13  32   8  33   8  34   8  35   8  36   8
M  ISO  3  37   8  38  14  39  14
M  END
>  <minimizedAffinity>  (1) 
-4.70278788

>  <minimizedRMSD>  (1) 
0.045265317

$$$$
