
     RDKit          3D

 33 35  0  0  0  0  0  0  0  0999 V2000
   45.6800   34.9180   42.4980 C   0  0  0  0  0  0  0  0  0  0  0  0
   45.2190   36.1870   43.0170 C   0  0  0  0  0  0  0  0  0  0  0  0
   44.7720   36.0120   44.4610 C   0  0  0  0  0  0  0  0  0  0  0  0
   45.0830   34.5810   44.8410 C   0  0  0  0  0  0  0  0  0  0  0  0
   45.1110   33.8710   43.5500 C   0  0  0  0  0  0  0  0  0  0  0  0
   47.1080   34.6480   42.4890 C   0  0  0  0  0  0  0  0  0  0  0  0
   47.9880   35.6350   41.9870 C   0  0  0  0  0  0  0  0  0  0  0  0
   49.3670   35.4170   41.9660 C   0  0  0  0  0  0  0  0  0  0  0  0
   49.7940   34.2110   42.4510 N   0  0  0  0  0  0  0  0  0  0  0  0
   48.9340   33.2810   42.9260 C   0  0  0  0  0  0  0  0  0  0  0  0
   47.6170   33.5110   42.9380 N   0  0  0  0  0  0  0  0  0  0  0  0
   44.9940   34.5270   41.2150 C   0  0  0  0  0  0  0  0  0  0  0  0
   43.9500   35.0920   40.8520 O   0  0  0  0  0  0  0  0  0  0  0  0
   45.5130   33.4670   40.3500 C   0  0  0  0  0  0  0  0  0  0  0  0
   45.0320   32.1830   40.4510 C   0  0  0  0  0  0  0  0  0  0  0  0
   45.4340   31.1080   39.7010 C   0  0  0  0  0  0  0  0  0  0  0  0
   46.3880   31.3120   38.7740 N   0  0  0  0  0  0  0  0  0  0  0  0
   46.8900   32.5480   38.6350 C   0  0  0  0  0  0  0  0  0  0  0  0
   46.4560   33.5570   39.3980 N   0  0  0  0  0  0  0  0  0  0  0  0
   46.0376   36.9204   42.9729 H   0  0  0  0  0  0  0  0  0  0  0  0
   44.3730   36.5451   42.4120 H   0  0  0  0  0  0  0  0  0  0  0  0
   45.3209   36.7058   45.1147 H   0  0  0  0  0  0  0  0  0  0  0  0
   43.6990   36.2271   44.5723 H   0  0  0  0  0  0  0  0  0  0  0  0
   46.0576   34.5130   45.3465 H   0  0  0  0  0  0  0  0  0  0  0  0
   44.3484   34.1585   45.5423 H   0  0  0  0  0  0  0  0  0  0  0  0
   44.0974   33.5526   43.2649 H   0  0  0  0  0  0  0  0  0  0  0  0
   45.7317   32.9641   43.5978 H   0  0  0  0  0  0  0  0  0  0  0  0
   47.5816   36.5847   41.6090 H   0  0  0  0  0  0  0  0  0  0  0  0
   50.0695   36.1712   41.5817 H   0  0  0  0  0  0  0  0  0  0  0  0
   49.3226   32.3249   43.3066 H   0  0  0  0  0  0  0  0  0  0  0  0
   44.2513   32.0011   41.2043 H   0  0  0  0  0  0  0  0  0  0  0  0
   44.9916   30.1122   39.8519 H   0  0  0  0  0  0  0  0  0  0  0  0
   47.6702   32.7345   37.8823 H   0  0  0  0  0  0  0  0  0  0  0  0
  1  2  1  0
  1  5  1  0
  2  3  1  0
  3  4  1  0
  5  4  1  0
  6  1  1  0
  6 11  1  0
  7  6  2  0
  8  7  1  0
  8  9  2  0
  9 10  1  0
 10 11  2  0
 12  1  1  0
 13 12  2  0
 14 15  2  0
 14 12  1  0
 16 15  1  0
 17 16  2  0
 18 17  1  0
 18 19  2  0
 19 14  1  0
  2 20  1  0
  2 21  1  0
  3 22  1  0
  3 23  1  0
  4 24  1  0
  4 25  1  0
  5 26  1  0
  5 27  1  0
  7 28  1  0
  8 29  1  0
 10 30  1  0
 15 31  1  0
 16 32  1  0
 18 33  1  0
M  ISO  8  20  13  21  13  22  13  23  13  24  13  25  13  26  13  27  13
M  ISO  6  28  14  29  14  30  14  31  14  32  14  33  14
M  END
>  <minimizedAffinity>  (1) 
-4.64954996

>  <minimizedRMSD>  (1) 
0.653001845

$$$$
