
     RDKit          3D

 32 34  0  0  0  0  0  0  0  0999 V2000
   45.6860   34.8640   42.5300 C   0  0  0  0  0  0  0  0  0  0  0  0
   45.2160   36.1250   43.0690 C   0  0  0  0  0  0  0  0  0  0  0  0
   44.7700   35.9150   44.5080 C   0  0  0  0  0  0  0  0  0  0  0  0
   45.1290   34.4910   44.8770 C   0  0  0  0  0  0  0  0  0  0  0  0
   45.1500   33.7990   43.5750 C   0  0  0  0  0  0  0  0  0  0  0  0
   47.1200   34.6280   42.5010 C   0  0  0  0  0  0  0  0  0  0  0  0
   47.9790   35.6230   41.9780 C   0  0  0  0  0  0  0  0  0  0  0  0
   49.3580   35.4280   41.9460 C   0  0  0  0  0  0  0  0  0  0  0  0
   49.8170   34.2460   42.4370 N   0  0  0  0  0  0  0  0  0  0  0  0
   48.9790   33.2950   42.9370 C   0  0  0  0  0  0  0  0  0  0  0  0
   47.6580   33.5070   42.9580 N   0  0  0  0  0  0  0  0  0  0  0  0
   44.9910   34.4790   41.2530 C   0  0  0  0  0  0  0  0  0  0  0  0
   44.0030   35.0950   40.8300 O   0  0  0  0  0  0  0  0  0  0  0  0
   45.9250   31.3460   39.6470 N   0  0  0  0  0  0  0  0  0  0  0  0
   45.2750   32.0120   40.5820 N   0  0  0  0  0  0  0  0  0  0  0  0
   45.4840   33.3270   40.4650 C   0  0  0  0  0  0  0  0  0  0  0  0
   46.3220   33.4130   39.3750 C   0  0  0  0  0  0  0  0  0  0  0  0
   46.6090   32.1760   38.8480 C   0  0  0  0  0  0  0  0  0  0  0  0
   46.0298   36.8645   43.0396 H   0  0  0  0  0  0  0  0  0  0  0  0
   44.3709   36.4930   42.4687 H   0  0  0  0  0  0  0  0  0  0  0  0
   45.2908   36.6205   45.1721 H   0  0  0  0  0  0  0  0  0  0  0  0
   43.6890   36.0884   44.6142 H   0  0  0  0  0  0  0  0  0  0  0  0
   46.1148   34.4463   45.3631 H   0  0  0  0  0  0  0  0  0  0  0  0
   44.4253   34.0410   45.5927 H   0  0  0  0  0  0  0  0  0  0  0  0
   44.1375   33.4684   43.3003 H   0  0  0  0  0  0  0  0  0  0  0  0
   45.7865   32.9023   43.6027 H   0  0  0  0  0  0  0  0  0  0  0  0
   47.5533   36.5611   41.5923 H   0  0  0  0  0  0  0  0  0  0  0  0
   50.0406   36.1912   41.5441 H   0  0  0  0  0  0  0  0  0  0  0  0
   49.3894   32.3508   43.3243 H   0  0  0  0  0  0  0  0  0  0  0  0
   45.9088   30.3212   39.5445 H   0  0  0  0  0  0  0  0  0  0  0  0
   46.7148   34.3590   38.9739 H   0  0  0  0  0  0  0  0  0  0  0  0
   47.2434   31.9288   37.9840 H   0  0  0  0  0  0  0  0  0  0  0  0
  1  2  1  0
  1  5  1  0
  2  3  1  0
  3  4  1  0
  5  4  1  0
  6  1  1  0
  6 11  1  0
  7  6  2  0
  8  7  1  0
  8  9  2  0
  9 10  1  0
 10 11  2  0
 12  1  1  0
 13 12  2  0
 14 15  1  0
 16 15  2  0
 16 12  1  0
 17 16  1  0
 18 17  2  0
 18 14  1  0
  2 19  1  0
  2 20  1  0
  3 21  1  0
  3 22  1  0
  4 23  1  0
  4 24  1  0
  5 25  1  0
  5 26  1  0
  7 27  1  0
  8 28  1  0
 10 29  1  0
 14 30  1  0
 17 31  1  0
 18 32  1  0
M  ISO  8  19  13  20  13  21  13  22  13  23  13  24  13  25  13  26  13
M  ISO  6  27  14  28  14  29  14  30   9  31  14  32  14
M  END
>  <minimizedAffinity>  (1) 
-4.58229256

>  <minimizedRMSD>  (1) 
0.197451249

$$$$
