
     RDKit          3D

 32 34  0  0  0  0  0  0  0  0999 V2000
   45.6560   34.7670   42.5790 C   0  0  0  0  0  0  0  0  0  0  0  0
   45.1900   36.0810   43.0910 C   0  0  0  0  0  0  0  0  0  0  0  0
   44.7850   35.8960   44.5450 C   0  0  0  0  0  0  0  0  0  0  0  0
   45.1520   34.4780   44.9220 C   0  0  0  0  0  0  0  0  0  0  0  0
   45.1670   33.7580   43.6320 C   0  0  0  0  0  0  0  0  0  0  0  0
   47.1090   34.6420   42.4900 C   0  0  0  0  0  0  0  0  0  0  0  0
   47.9230   35.6330   41.9110 C   0  0  0  0  0  0  0  0  0  0  0  0
   49.3070   35.4340   41.8740 C   0  0  0  0  0  0  0  0  0  0  0  0
   49.8050   34.2730   42.4080 N   0  0  0  0  0  0  0  0  0  0  0  0
   48.9950   33.3380   42.9580 C   0  0  0  0  0  0  0  0  0  0  0  0
   47.6730   33.5240   42.9950 N   0  0  0  0  0  0  0  0  0  0  0  0
   44.9460   34.4180   41.3100 C   0  0  0  0  0  0  0  0  0  0  0  0
   44.0690   35.1310   40.7950 O   0  0  0  0  0  0  0  0  0  0  0  0
   45.2090   33.1650   40.5410 C   0  0  0  0  0  0  0  0  0  0  0  0
   44.7060   32.9690   39.1750 C   0  0  0  0  0  0  0  0  0  0  0  0
   46.1600   33.3130   39.3840 C   0  0  0  0  0  0  0  0  0  0  0  0
   46.0019   36.8197   43.0198 H   0  0  0  0  0  0  0  0  0  0  0  0
   44.3378   36.4442   42.4979 H   0  0  0  0  0  0  0  0  0  0  0  0
   45.3264   36.6100   45.1830 H   0  0  0  0  0  0  0  0  0  0  0  0
   43.7083   36.0754   44.6815 H   0  0  0  0  0  0  0  0  0  0  0  0
   46.1420   34.4443   45.4002 H   0  0  0  0  0  0  0  0  0  0  0  0
   44.4501   34.0369   45.6451 H   0  0  0  0  0  0  0  0  0  0  0  0
   44.1557   33.4057   43.3809 H   0  0  0  0  0  0  0  0  0  0  0  0
   45.8226   32.8758   43.6746 H   0  0  0  0  0  0  0  0  0  0  0  0
   47.4784   36.5489   41.4944 H   0  0  0  0  0  0  0  0  0  0  0  0
   49.9759   36.1860   41.4300 H   0  0  0  0  0  0  0  0  0  0  0  0
   49.4289   32.4183   43.3775 H   0  0  0  0  0  0  0  0  0  0  0  0
   45.1221   32.5490   41.4482 H   0  0  0  0  0  0  0  0  0  0  0  0
   44.0260   33.7102   38.7298 H   0  0  0  0  0  0  0  0  0  0  0  0
   44.1689   32.1609   38.6568 H   0  0  0  0  0  0  0  0  0  0  0  0
   46.9396   32.5575   39.2068 H   0  0  0  0  0  0  0  0  0  0  0  0
   46.8442   34.0946   39.0221 H   0  0  0  0  0  0  0  0  0  0  0  0
  1  2  1  0
  1  5  1  0
  2  3  1  0
  3  4  1  0
  5  4  1  0
  6  1  1  0
  6 11  1  0
  7  6  2  0
  8  7  1  0
  8  9  2  0
  9 10  1  0
 10 11  2  0
 12  1  1  0
 13 12  2  0
 14 12  1  0
 15 16  1  0
 15 14  1  0
 16 14  1  0
  2 17  1  0
  2 18  1  0
  3 19  1  0
  3 20  1  0
  4 21  1  0
  4 22  1  0
  5 23  1  0
  5 24  1  0
  7 25  1  0
  8 26  1  0
 10 27  1  0
 14 28  1  0
 15 29  1  0
 15 30  1  0
 16 31  1  0
 16 32  1  0
M  ISO  8  17  13  18  13  19  13  20  13  21  13  22  13  23  13  24  13
M  ISO  8  25  14  26  14  27  14  28  13  29  13  30  13  31  13  32  13
M  END
>  <minimizedAffinity>  (1) 
-4.40369749

>  <minimizedRMSD>  (1) 
0.783488452

$$$$
