
     RDKit          3D

 24 26  0  0  0  0  0  0  0  0999 V2000
   46.4380   34.2400   42.0240 N   0  0  0  0  0  0  0  0  0  0  0  0
   45.7330   34.0270   40.9030 C   0  0  0  0  0  0  0  0  0  0  0  0
   46.6860   33.7200   39.9270 C   0  0  0  0  0  0  0  0  0  0  0  0
   47.9350   33.7550   40.4810 N   0  0  0  0  0  0  0  0  0  0  0  0
   47.7600   34.0790   41.7830 C   0  0  0  0  0  0  0  0  0  0  0  0
   44.5660   36.1810   44.5310 C   0  0  0  0  0  0  0  0  0  0  0  0
   45.1730   35.8190   43.3120 C   0  0  0  0  0  0  0  0  0  0  0  0
   45.8350   34.5820   43.2640 C   0  0  0  0  0  0  0  0  0  0  0  0
   45.8590   33.8030   44.3790 N   0  0  0  0  0  0  0  0  0  0  0  0
   45.2710   34.1790   45.5210 C   0  0  0  0  0  0  0  0  0  0  0  0
   44.6220   35.3680   45.6030 N   0  0  0  0  0  0  0  0  0  0  0  0
   48.8850   34.2200   42.7450 C   0  0  0  0  0  0  0  0  0  0  0  0
   49.9430   35.2120   42.4720 C   0  0  0  0  0  0  0  0  0  0  0  0
   50.2690   33.7710   42.3230 C   0  0  0  0  0  0  0  0  0  0  0  0
   44.6415   34.0819   40.7785 H   0  0  0  0  0  0  0  0  0  0  0  0
   46.4646   33.4863   38.8752 H   0  0  0  0  0  0  0  0  0  0  0  0
   44.0380   37.1429   44.6081 H   0  0  0  0  0  0  0  0  0  0  0  0
   45.1299   36.4792   42.4332 H   0  0  0  0  0  0  0  0  0  0  0  0
   45.3141   33.5191   46.4000 H   0  0  0  0  0  0  0  0  0  0  0  0
   48.2178   34.0055   43.5929 H   0  0  0  0  0  0  0  0  0  0  0  0
   49.8746   35.8511   41.5793 H   0  0  0  0  0  0  0  0  0  0  0  0
   50.3817   36.0443   43.0419 H   0  0  0  0  0  0  0  0  0  0  0  0
   50.4300   33.3410   41.3234 H   0  0  0  0  0  0  0  0  0  0  0  0
   51.0324   33.0934   42.7329 H   0  0  0  0  0  0  0  0  0  0  0  0
  1  8  1  0
  2  1  1  0
  3  4  1  0
  3  2  2  0
  4  5  2  0
  5  1  1  0
  5 12  1  0
  6 11  2  0
  7  6  1  0
  8  7  2  0
  8  9  1  0
  9 10  2  0
 10 11  1  0
 13 12  1  0
 14 13  1  0
 14 12  1  0
  2 15  1  0
  3 16  1  0
  6 17  1  0
  7 18  1  0
 10 19  1  0
 12 20  1  0
 13 21  1  0
 13 22  1  0
 14 23  1  0
 14 24  1  0
M  ISO  8  15  14  16  14  17  14  18  14  19  14  20  13  21  13  22  13
M  ISO  2  23  13  24  13
M  END
>  <minimizedAffinity>  (1) 
-4.64029932

>  <minimizedRMSD>  (1) 
1.35750341

$$$$
