
     RDKit          3D

 23 25  0  0  0  0  0  0  0  0999 V2000
   46.7320   34.7550   42.1480 N   0  0  0  0  0  0  0  0  0  0  0  0
   48.0100   35.1160   41.9950 C   0  0  0  0  0  0  0  0  0  0  0  0
   48.3380   34.8250   40.6840 C   0  0  0  0  0  0  0  0  0  0  0  0
   47.2600   34.2930   40.0610 N   0  0  0  0  0  0  0  0  0  0  0  0
   46.2520   34.2500   40.9850 C   0  0  0  0  0  0  0  0  0  0  0  0
   44.9140   33.7800   40.8380 N   0  0  0  0  0  0  0  0  0  0  0  0
   44.4060   32.5220   40.9140 C   0  0  0  0  0  0  0  0  0  0  0  0
   43.0770   32.6430   40.6970 N   0  0  0  0  0  0  0  0  0  0  0  0
   42.8000   33.9630   40.4930 C   0  0  0  0  0  0  0  0  0  0  0  0
   43.9450   34.6450   40.5850 N   0  0  0  0  0  0  0  0  0  0  0  0
   45.4800   34.0260   45.5320 C   0  0  0  0  0  0  0  0  0  0  0  0
   46.1930   33.8910   44.3260 C   0  0  0  0  0  0  0  0  0  0  0  0
   46.0100   34.8930   43.3700 C   0  0  0  0  0  0  0  0  0  0  0  0
   45.1710   35.9310   43.6320 N   0  0  0  0  0  0  0  0  0  0  0  0
   44.5070   36.0160   44.8040 C   0  0  0  0  0  0  0  0  0  0  0  0
   44.6630   35.0700   45.7440 N   0  0  0  0  0  0  0  0  0  0  0  0
   48.6682   35.5561   42.7586 H   0  0  0  0  0  0  0  0  0  0  0  0
   49.3202   34.9984   40.2200 H   0  0  0  0  0  0  0  0  0  0  0  0
   44.9627   31.5941   41.1118 H   0  0  0  0  0  0  0  0  0  0  0  0
   41.8075   34.3910   40.2885 H   0  0  0  0  0  0  0  0  0  0  0  0
   45.5943   33.2621   46.3152 H   0  0  0  0  0  0  0  0  0  0  0  0
   46.8624   33.0372   44.1449 H   0  0  0  0  0  0  0  0  0  0  0  0
   43.8337   36.8657   44.9903 H   0  0  0  0  0  0  0  0  0  0  0  0
  1 13  1  0
  2  1  1  0
  3  2  2  0
  4  3  1  0
  4  5  2  0
  5  1  1  0
  6  7  1  0
  6  5  1  0
  8  7  2  0
  9 10  2  0
  9  8  1  0
 10  6  1  0
 11 16  2  0
 12 11  1  0
 13 14  1  0
 13 12  2  0
 14 15  2  0
 15 16  1  0
  2 17  1  0
  3 18  1  0
  7 19  1  0
  9 20  1  0
 11 21  1  0
 12 22  1  0
 15 23  1  0
M  ISO  7  17  14  18  14  19  14  20  14  21  14  22  14  23  14
M  END
>  <minimizedAffinity>  (1) 
-4.87352753

>  <minimizedRMSD>  (1) 
4.35735464

$$$$
