
     RDKit          3D

 27 29  0  0  0  0  0  0  0  0999 V2000
   46.2060   34.1720   40.8590 N   0  0  0  0  0  0  0  0  0  0  0  0
   47.1810   34.1680   39.9240 C   0  0  0  0  0  0  0  0  0  0  0  0
   48.2840   34.7590   40.5400 C   0  0  0  0  0  0  0  0  0  0  0  0
   47.9530   35.1020   41.8190 N   0  0  0  0  0  0  0  0  0  0  0  0
   46.6590   34.7260   41.9870 C   0  0  0  0  0  0  0  0  0  0  0  0
   42.6140   34.0630   40.0600 C   0  0  0  0  0  0  0  0  0  0  0  0
   43.9070   34.5540   40.3130 C   0  0  0  0  0  0  0  0  0  0  0  0
   44.9180   33.6490   40.6080 C   0  0  0  0  0  0  0  0  0  0  0  0
   44.6000   32.3150   40.6380 N   0  0  0  0  0  0  0  0  0  0  0  0
   43.3530   31.8750   40.3910 C   0  0  0  0  0  0  0  0  0  0  0  0
   42.3590   32.7420   40.1020 N   0  0  0  0  0  0  0  0  0  0  0  0
   45.9400   34.9280   43.2390 C   0  0  0  0  0  0  0  0  0  0  0  0
   46.1450   33.9330   44.1720 C   0  0  0  0  0  0  0  0  0  0  0  0
   45.5400   33.9700   45.4080 C   0  0  0  0  0  0  0  0  0  0  0  0
   44.7040   35.0500   45.6990 C   0  0  0  0  0  0  0  0  0  0  0  0
   44.5030   36.0480   44.7570 C   0  0  0  0  0  0  0  0  0  0  0  0
   45.1180   36.0040   43.5060 C   0  0  0  0  0  0  0  0  0  0  0  0
   47.1184   33.7812   38.8962 H   0  0  0  0  0  0  0  0  0  0  0  0
   49.2649   34.9227   40.0698 H   0  0  0  0  0  0  0  0  0  0  0  0
   41.8016   34.7664   39.8251 H   0  0  0  0  0  0  0  0  0  0  0  0
   44.1136   35.6339   40.2779 H   0  0  0  0  0  0  0  0  0  0  0  0
   43.1406   30.7962   40.4249 H   0  0  0  0  0  0  0  0  0  0  0  0
   46.8071   33.0907   43.9227 H   0  0  0  0  0  0  0  0  0  0  0  0
   45.7102   33.1716   46.1453 H   0  0  0  0  0  0  0  0  0  0  0  0
   44.2040   35.1094   46.6770 H   0  0  0  0  0  0  0  0  0  0  0  0
   43.8435   36.8935   45.0022 H   0  0  0  0  0  0  0  0  0  0  0  0
   44.9542   36.7964   42.7608 H   0  0  0  0  0  0  0  0  0  0  0  0
  1  5  1  0
  2  3  2  0
  2  1  1  0
  3  4  1  0
  4  5  2  0
  5 12  1  0
  6 11  2  0
  6  7  1  0
  7  8  2  0
  8  9  1  0
  8  1  1  0
 10  9  2  0
 11 10  1  0
 12 17  1  0
 12 13  2  0
 13 14  1  0
 14 15  2  0
 16 15  1  0
 17 16  2  0
  2 18  1  0
  3 19  1  0
  6 20  1  0
  7 21  1  0
 10 22  1  0
 13 23  1  0
 14 24  1  0
 15 25  1  0
 16 26  1  0
 17 27  1  0
M  ISO  8  18  14  19  14  20  14  21  14  22  14  23  14  24  14  25  14
M  ISO  2  26  14  27  14
M  END
>  <minimizedAffinity>  (1) 
-4.88670731

>  <minimizedRMSD>  (1) 
4.23082352

$$$$
