
     RDKit          3D

 20 21  0  0  0  0  0  0  0  0999 V2000
   46.7500   34.3840   41.6090 N   0  0  0  0  0  0  0  0  0  0  0  0
   46.1160   33.7740   40.5870 C   0  0  0  0  0  0  0  0  0  0  0  0
   47.0290   33.7170   39.5420 C   0  0  0  0  0  0  0  0  0  0  0  0
   48.1950   34.2950   39.9550 N   0  0  0  0  0  0  0  0  0  0  0  0
   47.9920   34.6960   41.2320 C   0  0  0  0  0  0  0  0  0  0  0  0
   44.7230   36.0300   44.1970 C   0  0  0  0  0  0  0  0  0  0  0  0
   45.3520   35.7620   42.9800 C   0  0  0  0  0  0  0  0  0  0  0  0
   46.1290   34.6210   42.8570 C   0  0  0  0  0  0  0  0  0  0  0  0
   46.2450   33.8020   43.9390 N   0  0  0  0  0  0  0  0  0  0  0  0
   45.6300   34.0770   45.1070 C   0  0  0  0  0  0  0  0  0  0  0  0
   44.8760   35.1790   45.2360 N   0  0  0  0  0  0  0  0  0  0  0  0
   48.9950   35.3650   42.0540 C   0  0  0  0  0  0  0  0  0  0  0  0
   49.3440   36.5440   41.8050 O   0  0  0  0  0  0  0  0  0  0  0  0
   49.6010   34.7500   43.1240 O   0  0  0  0  0  0  0  0  0  0  0  0
   45.0826   33.3970   40.5820 H   0  0  0  0  0  0  0  0  0  0  0  0
   46.8440   33.2801   38.5496 H   0  0  0  0  0  0  0  0  0  0  0  0
   44.1039   36.9322   44.3103 H   0  0  0  0  0  0  0  0  0  0  0  0
   45.2324   36.4483   42.1287 H   0  0  0  0  0  0  0  0  0  0  0  0
   45.7474   33.3928   45.9603 H   0  0  0  0  0  0  0  0  0  0  0  0
   50.2773   35.2380   43.6575 H   0  0  0  0  0  0  0  0  0  0  0  0
  1  8  1  0
  2  1  1  0
  3  4  1  0
  3  2  2  0
  4  5  2  0
  5  1  1  0
  5 12  1  0
  6 11  2  0
  7  6  1  0
  8  7  2  0
  8  9  1  0
  9 10  2  0
 10 11  1  0
 12 14  1  0
 13 12  2  0
  2 15  1  0
  3 16  1  0
  6 17  1  0
  7 18  1  0
 10 19  1  0
 14 20  1  0
M  ISO  6  15  14  16  14  17  14  18  14  19  14  20   3
M  END
>  <minimizedAffinity>  (1) 
-4.806602

>  <minimizedRMSD>  (1) 
0.750075161

$$$$
