
     RDKit          3D

 39 42  0  0  1  0  0  0  0  0999 V2000
   46.3750   31.1020   45.4720 C   0  0  2  0  0  0  0  0  0  0  0  0
   44.7390   35.0490   45.4960 C   0  0  0  0  0  0  0  0  0  0  0  0
   44.5520   36.0660   44.5640 C   0  0  0  0  0  0  0  0  0  0  0  0
   45.2480   35.9920   43.3460 C   0  0  0  0  0  0  0  0  0  0  0  0
   46.0700   34.9390   43.1310 N   0  0  0  0  0  0  0  0  0  0  0  0
   46.2420   33.9490   44.0570 C   0  0  0  0  0  0  0  0  0  0  0  0
   45.5770   34.0210   45.2180 N   0  0  0  0  0  0  0  0  0  0  0  0
   47.0950   32.8450   43.8660 N   0  0  0  0  0  0  0  0  0  0  0  0
   48.0460   33.0040   42.8990 C   0  0  0  0  0  0  0  0  0  0  0  0
   48.7730   31.7930   42.9010 C   0  0  0  0  0  0  0  0  0  0  0  0
   48.2410   30.9700   43.8510 N   0  0  0  0  0  0  0  0  0  0  0  0
   47.2260   31.6350   44.4190 C   0  0  0  0  0  0  0  0  0  0  0  0
   47.1710   31.2640   46.7980 C   0  0  0  0  0  0  0  0  0  0  0  0
   46.1130   29.6400   45.2980 C   0  0  0  0  0  0  0  0  0  0  0  0
   44.8270   29.3450   44.7780 N   0  0  0  0  0  0  0  0  0  0  0  0
   44.3150   29.8480   43.6460 N   0  0  0  0  0  0  0  0  0  0  0  0
   43.0720   29.3320   43.4900 C   0  0  0  0  0  0  0  0  0  0  0  0
   42.7820   28.4810   44.5410 C   0  0  0  0  0  0  0  0  0  0  0  0
   43.9170   28.5050   45.3500 C   0  0  0  0  0  0  0  0  0  0  0  0
   44.1490   27.8040   46.5670 N   0  0  0  0  0  0  0  0  0  0  0  0
   43.4830   26.6210   46.6330 C   0  0  0  0  0  0  0  0  0  0  0  0
   43.7650   26.0270   47.8240 N   0  0  0  0  0  0  0  0  0  0  0  0
   44.6070   26.8620   48.4780 C   0  0  0  0  0  0  0  0  0  0  0  0
   44.8300   27.9430   47.6940 N   0  0  0  0  0  0  0  0  0  0  0  0
   45.4114   31.6323   45.4588 H   0  0  0  0  0  0  0  0  0  0  0  0
   44.2066   35.0799   46.4581 H   0  0  0  0  0  0  0  0  0  0  0  0
   43.8756   36.9072   44.7761 H   0  0  0  0  0  0  0  0  0  0  0  0
   45.1271   36.7745   42.5823 H   0  0  0  0  0  0  0  0  0  0  0  0
   48.2100   33.8831   42.2585 H   0  0  0  0  0  0  0  0  0  0  0  0
   49.6245   31.5535   42.2471 H   0  0  0  0  0  0  0  0  0  0  0  0
   46.4921   31.1258   47.6524 H   0  0  0  0  0  0  0  0  0  0  0  0
   47.9711   30.5103   46.8398 H   0  0  0  0  0  0  0  0  0  0  0  0
   47.6129   32.2705   46.8398 H   0  0  0  0  0  0  0  0  0  0  0  0
   46.8672   29.2325   44.6087 H   0  0  0  0  0  0  0  0  0  0  0  0
   46.1654   29.1848   46.2980 H   0  0  0  0  0  0  0  0  0  0  0  0
   42.3948   29.5563   42.6527 H   0  0  0  0  0  0  0  0  0  0  0  0
   41.8564   27.9092   44.7033 H   0  0  0  0  0  0  0  0  0  0  0  0
   42.8248   26.2116   45.8525 H   0  0  0  0  0  0  0  0  0  0  0  0
   45.0366   26.6911   49.4761 H   0  0  0  0  0  0  0  0  0  0  0  0
  1 13  1  0
  3  2  2  0
  4  3  1  0
  5  4  2  0
  5  6  1  0
  6  7  2  0
  7  2  1  0
  8  6  1  0
  8 12  1  0
  9 10  2  0
  9  8  1  0
 10 11  1  0
 11 12  2  0
 12  1  1  0
 14  1  1  0
 15 14  1  0
 15 19  1  0
 16 15  1  0
 17 16  2  0
 17 18  1  0
 18 19  2  0
 19 20  1  0
 20 21  1  0
 20 24  1  0
 21 22  2  0
 22 23  1  0
 24 23  2  0
  1 25  1  1
  2 26  1  0
  3 27  1  0
  4 28  1  0
  9 29  1  0
 10 30  1  0
 13 31  1  0
 13 32  1  0
 13 33  1  0
 14 34  1  0
 14 35  1  0
 17 36  1  0
 18 37  1  0
 21 38  1  0
 23 39  1  0
M  ISO  8  25   8  26  14  27  14  28  14  29  14  30  14  31   8  32   8
M  ISO  7  33   8  34   8  35   8  36  14  37  14  38  14  39  14
M  END
>  <minimizedAffinity>  (1) 
-4.70973444

>  <minimizedRMSD>  (1) 
2.21938896

$$$$
