
     RDKit          3D

 18 19  0  0  0  0  0  0  0  0999 V2000
   44.7000   36.0240   44.1800 C   0  0  0  0  0  0  0  0  0  0  0  0
   45.3110   35.7910   42.9370 C   0  0  0  0  0  0  0  0  0  0  0  0
   46.0950   34.6340   42.8160 C   0  0  0  0  0  0  0  0  0  0  0  0
   46.2230   33.8120   43.8820 N   0  0  0  0  0  0  0  0  0  0  0  0
   45.6190   34.0720   45.0570 C   0  0  0  0  0  0  0  0  0  0  0  0
   44.8640   35.1690   45.2040 N   0  0  0  0  0  0  0  0  0  0  0  0
   46.7060   34.4100   41.5520 N   0  0  0  0  0  0  0  0  0  0  0  0
   46.0450   33.8170   40.5240 C   0  0  0  0  0  0  0  0  0  0  0  0
   46.9460   33.7730   39.4760 C   0  0  0  0  0  0  0  0  0  0  0  0
   48.1110   34.3250   39.8700 N   0  0  0  0  0  0  0  0  0  0  0  0
   47.9480   34.7210   41.1750 C   0  0  0  0  0  0  0  0  0  0  0  0
   49.1890   35.5150   42.1790 S   0  0  0  0  0  0  0  0  0  0  0  0
   44.0774   36.9204   44.3176 H   0  0  0  0  0  0  0  0  0  0  0  0
   45.1804   36.4860   42.0944 H   0  0  0  0  0  0  0  0  0  0  0  0
   45.7463   33.3791   45.9018 H   0  0  0  0  0  0  0  0  0  0  0  0
   45.0086   33.4485   40.5250 H   0  0  0  0  0  0  0  0  0  0  0  0
   46.7442   33.3541   38.4791 H   0  0  0  0  0  0  0  0  0  0  0  0
   48.8942   35.3264   43.5035 H   0  0  0  0  0  0  0  0  0  0  0  0
  1  6  2  0
  2  1  1  0
  3  2  2  0
  3  4  1  0
  4  5  2  0
  5  6  1  0
  7  3  1  0
  8  7  1  0
  9 10  1  0
  9  8  2  0
 10 11  2  0
 11  7  1  0
 11 12  1  0
  1 13  1  0
  2 14  1  0
  5 15  1  0
  8 16  1  0
  9 17  1  0
 12 18  1  0
M  ISO  6  13  14  14  14  15  14  16  14  17  14  18  11
M  END
>  <minimizedAffinity>  (1) 
-3.95815754

>  <minimizedRMSD>  (1) 
0.659184039

$$$$
