
     RDKit          3D

 20 21  0  0  0  0  0  0  0  0999 V2000
   44.6880   36.0290   44.1190 C   0  0  0  0  0  0  0  0  0  0  0  0
   45.2880   35.8010   42.8610 C   0  0  0  0  0  0  0  0  0  0  0  0
   46.0830   34.6630   42.7470 C   0  0  0  0  0  0  0  0  0  0  0  0
   46.2380   33.8460   43.8340 N   0  0  0  0  0  0  0  0  0  0  0  0
   45.6530   34.0940   45.0100 C   0  0  0  0  0  0  0  0  0  0  0  0
   44.8820   35.1820   45.1520 N   0  0  0  0  0  0  0  0  0  0  0  0
   46.6900   34.4260   41.4840 N   0  0  0  0  0  0  0  0  0  0  0  0
   46.0910   33.7210   40.5090 C   0  0  0  0  0  0  0  0  0  0  0  0
   46.9750   33.7040   39.4420 C   0  0  0  0  0  0  0  0  0  0  0  0
   48.0800   34.3920   39.7880 N   0  0  0  0  0  0  0  0  0  0  0  0
   47.8930   34.8380   41.0620 C   0  0  0  0  0  0  0  0  0  0  0  0
   48.7950   35.6400   41.9140 C   0  0  0  0  0  0  0  0  0  0  0  0
   44.0501   36.9141   44.2598 H   0  0  0  0  0  0  0  0  0  0  0  0
   45.1353   36.4869   42.0147 H   0  0  0  0  0  0  0  0  0  0  0  0
   45.8033   33.4088   45.8573 H   0  0  0  0  0  0  0  0  0  0  0  0
   45.0972   33.2512   40.5499 H   0  0  0  0  0  0  0  0  0  0  0  0
   46.8030   33.2109   38.4739 H   0  0  0  0  0  0  0  0  0  0  0  0
   48.5719   35.4416   42.9727 H   0  0  0  0  0  0  0  0  0  0  0  0
   49.8391   35.3665   41.7018 H   0  0  0  0  0  0  0  0  0  0  0  0
   48.6456   36.7089   41.7018 H   0  0  0  0  0  0  0  0  0  0  0  0
  1  6  2  0
  2  1  1  0
  3  2  2  0
  3  4  1  0
  4  5  2  0
  5  6  1  0
  7  3  1  0
  8  7  1  0
  9 10  1  0
  9  8  2  0
 10 11  2  0
 11  7  1  0
 11 12  1  0
  1 13  1  0
  2 14  1  0
  5 15  1  0
  8 16  1  0
  9 17  1  0
 12 18  1  0
 12 19  1  0
 12 20  1  0
M  ISO  8  13  14  14  14  15  14  16  14  17  14  18   8  19   8  20   8
M  END
>  <minimizedAffinity>  (1) 
-4.19816399

>  <minimizedRMSD>  (1) 
0.679250121

$$$$
