
     RDKit          3D

 23 25  0  0  0  0  0  0  0  0999 V2000
   47.5790   33.0630   39.7320 N   0  0  0  0  0  0  0  0  0  0  0  0
   46.2750   33.3290   39.5970 C   0  0  0  0  0  0  0  0  0  0  0  0
   45.8400   32.4960   38.5690 C   0  0  0  0  0  0  0  0  0  0  0  0
   46.8780   31.7650   38.1220 N   0  0  0  0  0  0  0  0  0  0  0  0
   47.9880   32.1170   38.8530 C   0  0  0  0  0  0  0  0  0  0  0  0
   49.1620   35.8030   41.6370 C   0  0  0  0  0  0  0  0  0  0  0  0
   48.3710   35.1260   40.6910 C   0  0  0  0  0  0  0  0  0  0  0  0
   48.3940   33.7240   40.6980 C   0  0  0  0  0  0  0  0  0  0  0  0
   49.1740   33.0930   41.6150 N   0  0  0  0  0  0  0  0  0  0  0  0
   49.9150   33.7820   42.5040 C   0  0  0  0  0  0  0  0  0  0  0  0
   49.9110   35.1250   42.5150 N   0  0  0  0  0  0  0  0  0  0  0  0
   49.3530   31.5580   38.6940 C   0  0  0  0  0  0  0  0  0  0  0  0
   49.7440   30.4060   39.3670 C   0  0  0  0  0  0  0  0  0  0  0  0
   51.4030   30.1480   38.8680 S   0  0  0  0  0  0  0  0  0  0  0  0
   51.3770   31.6970   37.7560 C   0  0  0  0  0  0  0  0  0  0  0  0
   50.3120   32.0480   37.9410 N   0  0  0  0  0  0  0  0  0  0  0  0
   45.6760   34.0496   40.1731 H   0  0  0  0  0  0  0  0  0  0  0  0
   44.8111   32.4438   38.1835 H   0  0  0  0  0  0  0  0  0  0  0  0
   49.1650   36.9028   41.6554 H   0  0  0  0  0  0  0  0  0  0  0  0
   47.7535   35.6794   39.9681 H   0  0  0  0  0  0  0  0  0  0  0  0
   50.5330   33.2363   43.2323 H   0  0  0  0  0  0  0  0  0  0  0  0
   49.1457   29.7939   40.0579 H   0  0  0  0  0  0  0  0  0  0  0  0
   52.1648   32.1265   37.1197 H   0  0  0  0  0  0  0  0  0  0  0  0
  1  8  1  0
  2  1  1  0
  3  2  2  0
  4  3  1  0
  4  5  2  0
  5  1  1  0
  6 11  2  0
  7  8  2  0
  7  6  1  0
  8  9  1  0
  9 10  2  0
 10 11  1  0
 12  5  1  0
 12 13  2  0
 14 13  1  0
 15 16  2  0
 15 14  1  0
 16 12  1  0
  2 17  1  0
  3 18  1  0
  6 19  1  0
  7 20  1  0
 10 21  1  0
 13 22  1  0
 15 23  1  0
M  ISO  7  17  14  18  14  19  14  20  14  21  14  22  14  23  14
M  END
>  <minimizedAffinity>  (1) 
-3.54998159

>  <minimizedRMSD>  (1) 
5.51170397

$$$$
