
     RDKit          3D

 19 20  0  0  0  0  0  0  0  0999 V2000
   46.9400   34.4630   42.1730 N   0  0  0  0  0  0  0  0  0  0  0  0
   46.3550   34.3210   40.9540 C   0  0  0  0  0  0  0  0  0  0  0  0
   47.4250   34.1470   40.0670 C   0  0  0  0  0  0  0  0  0  0  0  0
   48.5940   34.1890   40.7590 N   0  0  0  0  0  0  0  0  0  0  0  0
   48.2680   34.3850   42.0600 C   0  0  0  0  0  0  0  0  0  0  0  0
   49.1540   34.5000   43.1760 N   0  0  0  0  0  0  0  0  0  0  0  0
   44.5510   35.9620   44.5380 C   0  0  0  0  0  0  0  0  0  0  0  0
   45.3110   35.7620   43.3650 C   0  0  0  0  0  0  0  0  0  0  0  0
   46.1810   34.6620   43.3480 C   0  0  0  0  0  0  0  0  0  0  0  0
   46.2320   33.8760   44.4470 N   0  0  0  0  0  0  0  0  0  0  0  0
   45.4980   34.0900   45.5500 C   0  0  0  0  0  0  0  0  0  0  0  0
   44.6480   35.1500   45.5880 N   0  0  0  0  0  0  0  0  0  0  0  0
   45.2810   34.3388   40.7171 H   0  0  0  0  0  0  0  0  0  0  0  0
   47.3335   33.9995   38.9808 H   0  0  0  0  0  0  0  0  0  0  0  0
   48.7743   34.6490   44.1218 H   0  0  0  0  0  0  0  0  0  0  0  0
   50.1721   34.4339   43.0343 H   0  0  0  0  0  0  0  0  0  0  0  0
   43.8578   36.8147   44.5855 H   0  0  0  0  0  0  0  0  0  0  0  0
   45.2246   36.4391   42.5024 H   0  0  0  0  0  0  0  0  0  0  0  0
   45.5834   33.4147   46.4141 H   0  0  0  0  0  0  0  0  0  0  0  0
  1  9  1  0
  2  1  1  0
  3  4  1  0
  3  2  2  0
  4  5  2  0
  5  1  1  0
  5  6  1  0
  7 12  2  0
  8  7  1  0
  9  8  2  0
  9 10  1  0
 10 11  2  0
 11 12  1  0
  2 13  1  0
  3 14  1  0
  6 15  1  0
  6 16  1  0
  7 17  1  0
  8 18  1  0
 11 19  1  0
M  ISO  5  13  14  14  14  17  14  18  14  19  14
M  END
>  <minimizedAffinity>  (1) 
-4.35222578

>  <minimizedRMSD>  (1) 
0.648509622

$$$$
