
     RDKit          3D

 32 34  0  0  0  0  0  0  0  0999 V2000
   46.4750   35.1420   42.5580 C   0  0  0  0  0  0  0  0  0  0  0  0
   47.4590   34.5130   41.7820 C   0  0  0  0  0  0  0  0  0  0  0  0
   48.1060   33.4090   42.3310 C   0  0  0  0  0  0  0  0  0  0  0  0
   47.7520   33.0090   43.5720 N   0  0  0  0  0  0  0  0  0  0  0  0
   46.8000   33.6390   44.2930 C   0  0  0  0  0  0  0  0  0  0  0  0
   46.1570   34.7210   43.7700 N   0  0  0  0  0  0  0  0  0  0  0  0
   46.4290   33.2160   45.5980 N   0  0  0  0  0  0  0  0  0  0  0  0
   47.1100   32.2160   46.1860 C   0  0  0  0  0  0  0  0  0  0  0  0
   46.7260   31.8250   47.4610 C   0  0  0  0  0  0  0  0  0  0  0  0
   47.4230   30.7280   48.1870 C   0  0  0  0  0  0  0  0  0  0  0  0
   45.6710   32.4610   48.0830 C   0  0  0  0  0  0  0  0  0  0  0  0
   45.3090   32.1210   49.2380 O   0  0  0  0  0  0  0  0  0  0  0  0
   45.0180   33.4650   47.4450 N   0  0  0  0  0  0  0  0  0  0  0  0
   45.3860   33.8570   46.1950 C   0  0  0  0  0  0  0  0  0  0  0  0
   44.7760   34.7920   45.6010 O   0  0  0  0  0  0  0  0  0  0  0  0
   49.0940   32.7820   41.5430 N   0  0  0  0  0  0  0  0  0  0  0  0
   48.7690   32.0120   40.4590 C   0  0  0  0  0  0  0  0  0  0  0  0
   50.0140   31.5810   39.9620 C   0  0  0  0  0  0  0  0  0  0  0  0
   51.0110   32.0790   40.7250 N   0  0  0  0  0  0  0  0  0  0  0  0
   50.4280   32.8220   41.7020 C   0  0  0  0  0  0  0  0  0  0  0  0
   51.0540   33.5480   42.7490 N   0  0  0  0  0  0  0  0  0  0  0  0
   45.9498   36.0155   42.1441 H   0  0  0  0  0  0  0  0  0  0  0  0
   47.7108   34.8786   40.7756 H   0  0  0  0  0  0  0  0  0  0  0  0
   47.9473   31.7223   45.6710 H   0  0  0  0  0  0  0  0  0  0  0  0
   47.3234   30.8847   49.2712 H   0  0  0  0  0  0  0  0  0  0  0  0
   46.9722   29.7627   47.9131 H   0  0  0  0  0  0  0  0  0  0  0  0
   48.4884   30.7260   47.9131 H   0  0  0  0  0  0  0  0  0  0  0  0
   44.2320   33.9374   47.9140 H   0  0  0  0  0  0  0  0  0  0  0  0
   47.7671   31.7829   40.0669 H   0  0  0  0  0  0  0  0  0  0  0  0
   50.1538   30.9347   39.0829 H   0  0  0  0  0  0  0  0  0  0  0  0
   52.0807   33.5501   42.8320 H   0  0  0  0  0  0  0  0  0  0  0  0
   50.4816   34.0726   43.4257 H   0  0  0  0  0  0  0  0  0  0  0  0
  1  6  2  0
  2  3  2  0
  2  1  1  0
  3  4  1  0
  4  5  2  0
  5  7  1  0
  6  5  1  0
  7  8  1  0
  7 14  1  0
  8  9  2  0
  9 11  1  0
  9 10  1  0
 11 12  2  0
 13 11  1  0
 14 13  1  0
 15 14  2  0
 16 20  1  0
 16  3  1  0
 17 16  1  0
 18 17  2  0
 18 19  1  0
 19 20  2  0
 20 21  1  0
  1 22  1  0
  2 23  1  0
  8 24  1  0
 10 25  1  0
 10 26  1  0
 10 27  1  0
 13 28  1  0
 17 29  1  0
 18 30  1  0
 21 31  1  0
 21 32  1  0
M  ISO  8  22  14  23  14  24  14  25   8  26   8  27   8  28   9  29  14
M  ISO  1  30  14
M  END
>  <minimizedAffinity>  (1) 
-6.76680708

>  <minimizedRMSD>  (1) 
2.2673521

$$$$
