
     RDKit          3D

 29 31  0  0  0  0  0  0  0  0999 V2000
   44.6740   35.8060   44.4150 C   0  0  0  0  0  0  0  0  0  0  0  0
   45.4190   35.6690   43.2280 C   0  0  0  0  0  0  0  0  0  0  0  0
   46.3640   34.6520   43.1700 C   0  0  0  0  0  0  0  0  0  0  0  0
   46.5130   33.8520   44.2590 N   0  0  0  0  0  0  0  0  0  0  0  0
   45.7850   34.0060   45.3820 C   0  0  0  0  0  0  0  0  0  0  0  0
   44.8620   34.9910   45.4550 N   0  0  0  0  0  0  0  0  0  0  0  0
   45.9940   33.1200   46.5030 N   0  0  0  0  0  0  0  0  0  0  0  0
   47.0160   32.2450   46.4390 C   0  0  0  0  0  0  0  0  0  0  0  0
   47.2460   31.3720   47.5090 C   0  0  0  0  0  0  0  0  0  0  0  0
   46.3540   31.5290   48.5390 C   0  0  0  0  0  0  0  0  0  0  0  0
   46.5300   30.7490   49.5380 O   0  0  0  0  0  0  0  0  0  0  0  0
   45.3270   32.3890   48.6380 N   0  0  0  0  0  0  0  0  0  0  0  0
   45.1790   33.1970   47.5510 C   0  0  0  0  0  0  0  0  0  0  0  0
   44.2340   34.0280   47.5770 O   0  0  0  0  0  0  0  0  0  0  0  0
   47.1110   34.5130   41.9830 N   0  0  0  0  0  0  0  0  0  0  0  0
   46.5040   34.2720   40.7820 C   0  0  0  0  0  0  0  0  0  0  0  0
   47.5600   34.2000   39.8670 C   0  0  0  0  0  0  0  0  0  0  0  0
   48.7310   34.3890   40.5080 N   0  0  0  0  0  0  0  0  0  0  0  0
   48.4260   34.5810   41.8140 C   0  0  0  0  0  0  0  0  0  0  0  0
   49.3270   34.8230   42.8960 N   0  0  0  0  0  0  0  0  0  0  0  0
   43.9195   36.6033   44.4868 H   0  0  0  0  0  0  0  0  0  0  0  0
   45.2582   36.3446   42.3750 H   0  0  0  0  0  0  0  0  0  0  0  0
   47.6657   32.2165   45.5518 H   0  0  0  0  0  0  0  0  0  0  0  0
   48.0611   30.6335   47.5223 H   0  0  0  0  0  0  0  0  0  0  0  0
   44.7082   32.4336   49.4602 H   0  0  0  0  0  0  0  0  0  0  0  0
   45.4284   34.1600   40.5805 H   0  0  0  0  0  0  0  0  0  0  0  0
   47.4513   34.0169   38.7878 H   0  0  0  0  0  0  0  0  0  0  0  0
   48.9624   34.9531   43.8505 H   0  0  0  0  0  0  0  0  0  0  0  0
   50.3412   34.8673   42.7216 H   0  0  0  0  0  0  0  0  0  0  0  0
  1  6  2  0
  2  1  1  0
  3  2  2  0
  3  4  1  0
  4  5  2  0
  5  6  1  0
  5  7  1  0
  7 13  1  0
  8  7  1  0
  8  9  2  0
  9 10  1  0
 10 12  1  0
 10 11  2  0
 13 14  2  0
 13 12  1  0
 15  3  1  0
 16 15  1  0
 17 18  1  0
 17 16  2  0
 18 19  2  0
 19 15  1  0
 19 20  1  0
  1 21  1  0
  2 22  1  0
  8 23  1  0
  9 24  1  0
 12 25  1  0
 16 26  1  0
 17 27  1  0
 20 28  1  0
 20 29  1  0
M  ISO  7  21  14  22  14  23  14  24  14  25   9  26  14  27  14
M  END
>  <minimizedAffinity>  (1) 
-6.27727175

>  <minimizedRMSD>  (1) 
0.414399952

$$$$
