
     RDKit          3D

 31 33  0  0  0  0  0  0  0  0999 V2000
   44.5860   35.5140   44.9920 C   0  0  0  0  0  0  0  0  0  0  0  0
   45.2670   35.4640   43.7530 C   0  0  0  0  0  0  0  0  0  0  0  0
   46.2170   34.4390   43.6040 C   0  0  0  0  0  0  0  0  0  0  0  0
   46.4080   33.5900   44.6370 N   0  0  0  0  0  0  0  0  0  0  0  0
   45.7470   33.6670   45.7920 C   0  0  0  0  0  0  0  0  0  0  0  0
   44.8280   34.6390   45.9680 N   0  0  0  0  0  0  0  0  0  0  0  0
   45.9950   32.7400   46.8440 N   0  0  0  0  0  0  0  0  0  0  0  0
   45.0320   32.2990   47.8350 C   0  0  0  0  0  0  0  0  0  0  0  0
   45.9000   32.3180   49.1010 C   0  0  0  0  0  0  0  0  0  0  0  0
   47.1670   31.6550   48.5910 C   0  0  0  0  0  0  0  0  0  0  0  0
   47.2470   32.0670   47.1220 C   0  0  0  0  0  0  0  0  0  0  0  0
   46.8990   34.3870   42.3640 N   0  0  0  0  0  0  0  0  0  0  0  0
   46.2480   34.2930   41.1840 C   0  0  0  0  0  0  0  0  0  0  0  0
   47.2580   34.2690   40.2160 C   0  0  0  0  0  0  0  0  0  0  0  0
   48.4620   34.3480   40.8310 N   0  0  0  0  0  0  0  0  0  0  0  0
   48.2230   34.4200   42.1560 C   0  0  0  0  0  0  0  0  0  0  0  0
   49.1720   34.5200   43.2260 N   0  0  0  0  0  0  0  0  0  0  0  0
   43.8333   36.2994   45.1550 H   0  0  0  0  0  0  0  0  0  0  0  0
   45.0640   36.1879   42.9500 H   0  0  0  0  0  0  0  0  0  0  0  0
   44.1839   32.9950   47.9142 H   0  0  0  0  0  0  0  0  0  0  0  0
   44.5632   31.3282   47.6166 H   0  0  0  0  0  0  0  0  0  0  0  0
   46.0914   33.3453   49.4446 H   0  0  0  0  0  0  0  0  0  0  0  0
   45.4457   31.8209   49.9708 H   0  0  0  0  0  0  0  0  0  0  0  0
   48.0457   32.0168   49.1451 H   0  0  0  0  0  0  0  0  0  0  0  0
   47.1494   30.5627   48.7196 H   0  0  0  0  0  0  0  0  0  0  0  0
   47.3592   31.1814   46.4792 H   0  0  0  0  0  0  0  0  0  0  0  0
   48.1133   32.7156   46.9250 H   0  0  0  0  0  0  0  0  0  0  0  0
   45.1613   34.2457   41.0200 H   0  0  0  0  0  0  0  0  0  0  0  0
   47.0995   34.1975   39.1298 H   0  0  0  0  0  0  0  0  0  0  0  0
   48.8451   34.5675   44.2016 H   0  0  0  0  0  0  0  0  0  0  0  0
   50.1807   34.5444   43.0191 H   0  0  0  0  0  0  0  0  0  0  0  0
  1  6  2  0
  2  1  1  0
  3  2  2  0
  3  4  1  0
  4  5  2  0
  5  6  1  0
  5  7  1  0
  7 11  1  0
  7  8  1  0
  8  9  1  0
 10  9  1  0
 11 10  1  0
 12  3  1  0
 13 12  1  0
 14 15  1  0
 14 13  2  0
 15 16  2  0
 16 12  1  0
 16 17  1  0
  1 18  1  0
  2 19  1  0
  8 20  1  0
  8 21  1  0
  9 22  1  0
  9 23  1  0
 10 24  1  0
 10 25  1  0
 11 26  1  0
 11 27  1  0
 13 28  1  0
 14 29  1  0
 17 30  1  0
 17 31  1  0
M  ISO  8  18  14  19  14  20  13  21  13  22  13  23  13  24  13  25  13
M  ISO  4  26  13  27  13  28  14  29  14
M  END
>  <minimizedAffinity>  (1) 
-5.84688044

>  <minimizedRMSD>  (1) 
0.536525905

$$$$
