
     RDKit          3D

 27 29  0  0  0  0  0  0  0  0999 V2000
   44.5550   35.5190   44.9190 C   0  0  0  0  0  0  0  0  0  0  0  0
   45.2420   35.4370   43.6890 C   0  0  0  0  0  0  0  0  0  0  0  0
   46.2360   34.4490   43.5650 C   0  0  0  0  0  0  0  0  0  0  0  0
   46.4550   33.6570   44.6400 N   0  0  0  0  0  0  0  0  0  0  0  0
   45.7910   33.7530   45.7980 C   0  0  0  0  0  0  0  0  0  0  0  0
   44.8290   34.7040   45.9250 N   0  0  0  0  0  0  0  0  0  0  0  0
   46.9170   34.3720   42.3390 N   0  0  0  0  0  0  0  0  0  0  0  0
   46.2600   34.2670   41.1570 C   0  0  0  0  0  0  0  0  0  0  0  0
   47.2740   34.2180   40.1940 C   0  0  0  0  0  0  0  0  0  0  0  0
   48.4830   34.2910   40.8040 N   0  0  0  0  0  0  0  0  0  0  0  0
   48.2410   34.3870   42.1460 C   0  0  0  0  0  0  0  0  0  0  0  0
   49.1890   34.4900   43.2040 N   0  0  0  0  0  0  0  0  0  0  0  0
   46.1000   32.8460   46.9040 C   0  0  0  0  0  0  0  0  0  0  0  0
   45.1660   32.7120   47.9300 C   0  0  0  0  0  0  0  0  0  0  0  0
   45.5700   31.8230   48.9270 C   0  0  0  0  0  0  0  0  0  0  0  0
   46.7340   31.1510   48.9220 N   0  0  0  0  0  0  0  0  0  0  0  0
   47.5740   31.3430   47.8920 C   0  0  0  0  0  0  0  0  0  0  0  0
   47.2690   32.1930   46.8680 N   0  0  0  0  0  0  0  0  0  0  0  0
   43.7711   36.2804   45.0449 H   0  0  0  0  0  0  0  0  0  0  0  0
   45.0091   36.1198   42.8586 H   0  0  0  0  0  0  0  0  0  0  0  0
   45.1731   34.2289   40.9923 H   0  0  0  0  0  0  0  0  0  0  0  0
   47.1149   34.1333   39.1089 H   0  0  0  0  0  0  0  0  0  0  0  0
   48.8664   34.5563   44.1799 H   0  0  0  0  0  0  0  0  0  0  0  0
   50.1972   34.4982   42.9932 H   0  0  0  0  0  0  0  0  0  0  0  0
   44.2079   33.2521   47.9516 H   0  0  0  0  0  0  0  0  0  0  0  0
   44.8889   31.6611   49.7754 H   0  0  0  0  0  0  0  0  0  0  0  0
   48.5316   30.8020   47.8728 H   0  0  0  0  0  0  0  0  0  0  0  0
  1  6  2  0
  2  1  1  0
  3  2  2  0
  3  4  1  0
  4  5  2  0
  5  6  1  0
  5 13  1  0
  7  3  1  0
  8  7  1  0
  9 10  1  0
  9  8  2  0
 10 11  2  0
 11  7  1  0
 11 12  1  0
 13 14  2  0
 14 15  1  0
 16 15  2  0
 17 16  1  0
 18 13  1  0
 18 17  2  0
  1 19  1  0
  2 20  1  0
  8 21  1  0
  9 22  1  0
 12 23  1  0
 12 24  1  0
 14 25  1  0
 15 26  1  0
 17 27  1  0
M  ISO  7  19  14  20  14  21  14  22  14  25  14  26  14  27  14
M  END
>  <minimizedAffinity>  (1) 
-5.84566021

>  <minimizedRMSD>  (1) 
0.547206342

$$$$
