
     RDKit          3D

 25 27  0  0  0  0  0  0  0  0999 V2000
   44.5140   35.9420   44.5220 C   0  0  0  0  0  0  0  0  0  0  0  0
   45.2780   35.7230   43.3590 C   0  0  0  0  0  0  0  0  0  0  0  0
   46.1750   34.6470   43.3460 C   0  0  0  0  0  0  0  0  0  0  0  0
   46.2340   33.9030   44.4600 N   0  0  0  0  0  0  0  0  0  0  0  0
   45.5150   34.1050   45.5640 C   0  0  0  0  0  0  0  0  0  0  0  0
   44.6370   35.1460   45.5940 N   0  0  0  0  0  0  0  0  0  0  0  0
   45.7560   33.1760   46.6170 N   0  0  0  0  0  0  0  0  0  0  0  0
   46.8490   32.3950   46.4480 C   0  0  0  0  0  0  0  0  0  0  0  0
   46.9170   31.5840   47.5400 N   0  0  0  0  0  0  0  0  0  0  0  0
   45.8880   31.8660   48.3520 C   0  0  0  0  0  0  0  0  0  0  0  0
   45.2050   32.8420   47.7540 N   0  0  0  0  0  0  0  0  0  0  0  0
   46.9230   34.4510   42.1760 N   0  0  0  0  0  0  0  0  0  0  0  0
   46.3560   34.3130   40.9600 C   0  0  0  0  0  0  0  0  0  0  0  0
   47.4320   34.1410   40.0810 C   0  0  0  0  0  0  0  0  0  0  0  0
   48.5890   34.1800   40.7750 N   0  0  0  0  0  0  0  0  0  0  0  0
   48.2600   34.3730   42.0780 C   0  0  0  0  0  0  0  0  0  0  0  0
   49.1480   34.4820   43.2060 N   0  0  0  0  0  0  0  0  0  0  0  0
   43.8036   36.7813   44.5513 H   0  0  0  0  0  0  0  0  0  0  0  0
   45.1729   36.3802   42.4832 H   0  0  0  0  0  0  0  0  0  0  0  0
   47.5450   32.4121   45.5964 H   0  0  0  0  0  0  0  0  0  0  0  0
   45.6549   31.3891   49.3154 H   0  0  0  0  0  0  0  0  0  0  0  0
   45.2842   34.3315   40.7133 H   0  0  0  0  0  0  0  0  0  0  0  0
   47.3476   33.9965   38.9938 H   0  0  0  0  0  0  0  0  0  0  0  0
   48.7649   34.6291   44.1507 H   0  0  0  0  0  0  0  0  0  0  0  0
   50.1664   34.4129   43.0683 H   0  0  0  0  0  0  0  0  0  0  0  0
  1  6  2  0
  2  1  1  0
  3  2  2  0
  3  4  1  0
  4  5  2  0
  5  6  1  0
  5  7  1  0
  7 11  1  0
  8  7  1  0
  8  9  2  0
  9 10  1  0
 11 10  2  0
 12  3  1  0
 13 12  1  0
 14 15  1  0
 14 13  2  0
 15 16  2  0
 16 12  1  0
 16 17  1  0
  1 18  1  0
  2 19  1  0
  8 20  1  0
 10 21  1  0
 13 22  1  0
 14 23  1  0
 17 24  1  0
 17 25  1  0
M  ISO  6  18  14  19  14  20  14  21  14  22  14  23  14
M  END
>  <minimizedAffinity>  (1) 
-5.86681461

>  <minimizedRMSD>  (1) 
0.0590750538

$$$$
