
     RDKit          3D

 26 28  0  0  0  0  0  0  0  0999 V2000
   44.5320   35.7210   44.7430 C   0  0  0  0  0  0  0  0  0  0  0  0
   45.2490   35.5800   43.5340 C   0  0  0  0  0  0  0  0  0  0  0  0
   46.2010   34.5510   43.4770 C   0  0  0  0  0  0  0  0  0  0  0  0
   46.3680   33.7690   44.5750 N   0  0  0  0  0  0  0  0  0  0  0  0
   45.6690   33.9380   45.7000 C   0  0  0  0  0  0  0  0  0  0  0  0
   44.7480   34.9210   45.7790 N   0  0  0  0  0  0  0  0  0  0  0  0
   45.8540   33.1100   46.8440 N   0  0  0  0  0  0  0  0  0  0  0  0
   47.1140   32.6800   47.0190 N   0  0  0  0  0  0  0  0  0  0  0  0
   47.1610   31.9100   48.1310 C   0  0  0  0  0  0  0  0  0  0  0  0
   45.8920   31.8600   48.6600 C   0  0  0  0  0  0  0  0  0  0  0  0
   45.0670   32.6250   47.8380 C   0  0  0  0  0  0  0  0  0  0  0  0
   46.9200   34.4060   42.2680 N   0  0  0  0  0  0  0  0  0  0  0  0
   46.2850   34.2780   41.0640 C   0  0  0  0  0  0  0  0  0  0  0  0
   47.3160   34.1600   40.1270 C   0  0  0  0  0  0  0  0  0  0  0  0
   48.5140   34.2190   40.7710 N   0  0  0  0  0  0  0  0  0  0  0  0
   48.2320   34.3710   42.0930 C   0  0  0  0  0  0  0  0  0  0  0  0
   49.1670   34.4820   43.1810 N   0  0  0  0  0  0  0  0  0  0  0  0
   43.7750   36.5146   44.8276 H   0  0  0  0  0  0  0  0  0  0  0  0
   45.0693   36.2460   42.6772 H   0  0  0  0  0  0  0  0  0  0  0  0
   48.0537   31.4132   48.5387 H   0  0  0  0  0  0  0  0  0  0  0  0
   45.5851   31.3161   49.5655 H   0  0  0  0  0  0  0  0  0  0  0  0
   43.9891   32.8013   47.9689 H   0  0  0  0  0  0  0  0  0  0  0  0
   45.2015   34.2697   40.8743 H   0  0  0  0  0  0  0  0  0  0  0  0
   47.1807   34.0388   39.0421 H   0  0  0  0  0  0  0  0  0  0  0  0
   48.8237   34.5946   44.1456 H   0  0  0  0  0  0  0  0  0  0  0  0
   50.1796   34.4489   42.9953 H   0  0  0  0  0  0  0  0  0  0  0  0
  1  6  2  0
  2  1  1  0
  3  2  2  0
  3  4  1  0
  4  5  2  0
  5  6  1  0
  5  7  1  0
  7  8  1  0
  7 11  1  0
  8  9  2  0
  9 10  1  0
 11 10  2  0
 12  3  1  0
 13 12  1  0
 14 15  1  0
 14 13  2  0
 15 16  2  0
 16 12  1  0
 16 17  1  0
  1 18  1  0
  2 19  1  0
  9 20  1  0
 10 21  1  0
 11 22  1  0
 13 23  1  0
 14 24  1  0
 17 25  1  0
 17 26  1  0
M  ISO  7  18  14  19  14  20  14  21  14  22  14  23  14  24  14
M  END
>  <minimizedAffinity>  (1) 
-5.92631721

>  <minimizedRMSD>  (1) 
0.298356473

$$$$
