
     RDKit          3D

 26 28  0  0  0  0  0  0  0  0999 V2000
   44.5250   35.8250   44.6580 C   0  0  0  0  0  0  0  0  0  0  0  0
   45.2600   35.6490   43.4680 C   0  0  0  0  0  0  0  0  0  0  0  0
   46.1780   34.5940   43.4180 C   0  0  0  0  0  0  0  0  0  0  0  0
   46.2860   33.8280   44.5190 N   0  0  0  0  0  0  0  0  0  0  0  0
   45.5790   34.0090   45.6430 C   0  0  0  0  0  0  0  0  0  0  0  0
   44.6880   35.0210   45.7080 N   0  0  0  0  0  0  0  0  0  0  0  0
   46.9070   34.4280   42.2250 N   0  0  0  0  0  0  0  0  0  0  0  0
   46.3020   34.2970   41.0250 C   0  0  0  0  0  0  0  0  0  0  0  0
   47.3650   34.1570   40.1180 C   0  0  0  0  0  0  0  0  0  0  0  0
   48.5400   34.2060   40.7820 N   0  0  0  0  0  0  0  0  0  0  0  0
   48.2430   34.3730   42.0870 C   0  0  0  0  0  0  0  0  0  0  0  0
   49.1510   34.4840   43.1970 N   0  0  0  0  0  0  0  0  0  0  0  0
   45.8040   33.0990   46.7530 C   0  0  0  0  0  0  0  0  0  0  0  0
   47.0150   32.4000   46.7520 C   0  0  0  0  0  0  0  0  0  0  0  0
   47.0310   31.6020   47.8750 C   0  0  0  0  0  0  0  0  0  0  0  0
   45.8760   31.8190   48.5170 N   0  0  0  0  0  0  0  0  0  0  0  0
   45.1260   32.7150   47.8580 N   0  0  0  0  0  0  0  0  0  0  0  0
   43.7977   36.6478   44.7214 H   0  0  0  0  0  0  0  0  0  0  0  0
   45.1167   36.3188   42.6073 H   0  0  0  0  0  0  0  0  0  0  0  0
   45.2237   34.2994   40.8077 H   0  0  0  0  0  0  0  0  0  0  0  0
   47.2569   34.0271   39.0311 H   0  0  0  0  0  0  0  0  0  0  0  0
   48.7847   34.6101   44.1514 H   0  0  0  0  0  0  0  0  0  0  0  0
   50.1675   34.4374   43.0375 H   0  0  0  0  0  0  0  0  0  0  0  0
   47.8088   32.4737   45.9941 H   0  0  0  0  0  0  0  0  0  0  0  0
   47.8361   30.9192   48.1842 H   0  0  0  0  0  0  0  0  0  0  0  0
   45.6009   31.3603   49.3972 H   0  0  0  0  0  0  0  0  0  0  0  0
  1  6  2  0
  2  1  1  0
  3  2  2  0
  3  4  1  0
  4  5  2  0
  5  6  1  0
  5 13  1  0
  7  3  1  0
  8  7  1  0
  9 10  1  0
  9  8  2  0
 10 11  2  0
 11  7  1  0
 11 12  1  0
 13 17  2  0
 14 13  1  0
 14 15  2  0
 15 16  1  0
 17 16  1  0
  1 18  1  0
  2 19  1  0
  8 20  1  0
  9 21  1  0
 12 22  1  0
 12 23  1  0
 14 24  1  0
 15 25  1  0
 16 26  1  0
M  ISO  7  18  14  19  14  20  14  21  14  24  14  25  14  26   9
M  END
>  <minimizedAffinity>  (1) 
-5.57971382

>  <minimizedRMSD>  (1) 
0.236788481

$$$$
