
     RDKit          3D

 46 50  0  0  0  0  0  0  0  0999 V2000
   44.6840   35.7830   44.9970 C   0  0  0  0  0  0  0  0  0  0  0  0
   44.0280   35.8550   43.7540 C   0  0  0  0  0  0  0  0  0  0  0  0
   44.1100   34.7760   42.8820 C   0  0  0  0  0  0  0  0  0  0  0  0
   44.8330   33.7240   43.3240 N   0  0  0  0  0  0  0  0  0  0  0  0
   45.4550   33.6600   44.5060 C   0  0  0  0  0  0  0  0  0  0  0  0
   45.3580   34.7090   45.3160 N   0  0  0  0  0  0  0  0  0  0  0  0
   46.0870   32.4400   44.4290 C   0  0  0  0  0  0  0  0  0  0  0  0
   46.6810   31.3220   44.2590 N   0  0  0  0  0  0  0  0  0  0  0  0
   47.2300   30.2760   44.1680 C   0  0  0  0  0  0  0  0  0  0  0  0
   47.2780   29.9580   45.4540 N   0  0  0  0  0  0  0  0  0  0  0  0
   46.7230   30.8610   46.3450 C   0  0  0  0  0  0  0  0  0  0  0  0
   46.8040   30.4230   47.6840 C   0  0  0  0  0  0  0  0  0  0  0  0
   46.2550   31.2330   48.6130 C   0  0  0  0  0  0  0  0  0  0  0  0
   45.6520   32.4000   48.3080 C   0  0  0  0  0  0  0  0  0  0  0  0
   45.6490   32.7050   46.9630 C   0  0  0  0  0  0  0  0  0  0  0  0
   46.1500   32.0500   45.8120 C   0  0  0  0  0  0  0  0  0  0  0  0
   43.4650   34.8670   41.6390 N   0  0  0  0  0  0  0  0  0  0  0  0
   42.2140   35.3130   41.5090 C   0  0  0  0  0  0  0  0  0  0  0  0
   41.9530   35.2450   40.1410 C   0  0  0  0  0  0  0  0  0  0  0  0
   43.0560   34.7590   39.4820 N   0  0  0  0  0  0  0  0  0  0  0  0
   43.9880   34.5290   40.4290 C   0  0  0  0  0  0  0  0  0  0  0  0
   45.3050   34.0180   40.2440 N   0  0  0  0  0  0  0  0  0  0  0  0
   40.7270   35.6060   39.3920 C   0  0  0  0  0  0  0  0  0  0  0  0
   40.6460   34.9990   38.0300 C   0  0  0  0  0  0  0  0  0  0  0  0
   39.9770   33.6500   38.2480 C   0  0  0  0  0  0  0  0  0  0  0  0
   38.9240   33.9930   39.2660 C   0  0  0  0  0  0  0  0  0  0  0  0
   39.4580   35.1470   40.0580 C   0  0  0  0  0  0  0  0  0  0  0  0
   44.6298   36.6284   45.6986 H   0  0  0  0  0  0  0  0  0  0  0  0
   43.4577   36.7537   43.4762 H   0  0  0  0  0  0  0  0  0  0  0  0
   47.5912   29.7323   43.2826 H   0  0  0  0  0  0  0  0  0  0  0  0
   47.2882   29.4733   47.9555 H   0  0  0  0  0  0  0  0  0  0  0  0
   46.3015   30.9271   49.6686 H   0  0  0  0  0  0  0  0  0  0  0  0
   45.2003   33.0540   49.0684 H   0  0  0  0  0  0  0  0  0  0  0  0
   45.1519   33.6597   46.7363 H   0  0  0  0  0  0  0  0  0  0  0  0
   41.5380   35.6581   42.3052 H   0  0  0  0  0  0  0  0  0  0  0  0
   45.9253   33.8871   41.0557 H   0  0  0  0  0  0  0  0  0  0  0  0
   45.6368   33.7795   39.2985 H   0  0  0  0  0  0  0  0  0  0  0  0
   40.8072   36.7023   39.3505 H   0  0  0  0  0  0  0  0  0  0  0  0
   41.6513   34.8690   37.6027 H   0  0  0  0  0  0  0  0  0  0  0  0
   40.0872   35.6317   37.3247 H   0  0  0  0  0  0  0  0  0  0  0  0
   39.5276   33.2704   37.3185 H   0  0  0  0  0  0  0  0  0  0  0  0
   40.6671   32.8560   38.5694 H   0  0  0  0  0  0  0  0  0  0  0  0
   37.9879   34.2778   38.7633 H   0  0  0  0  0  0  0  0  0  0  0  0
   38.7034   33.1330   39.9154 H   0  0  0  0  0  0  0  0  0  0  0  0
   39.6695   34.8285   41.0894 H   0  0  0  0  0  0  0  0  0  0  0  0
   38.7228   35.9644   40.0944 H   0  0  0  0  0  0  0  0  0  0  0  0
  1  6  2  0
  2  1  1  0
  3  4  1  0
  3  2  2  0
  4  5  2  0
  5  6  1  0
  7  5  1  0
  7 16  1  0
  8  7  2  0
  9  8  1  0
  9 10  2  0
 10 11  1  0
 11 12  1  0
 12 13  2  0
 14 13  1  0
 15 14  2  0
 16 11  2  0
 16 15  1  0
 17  3  1  0
 18 17  1  0
 19 18  2  0
 20 19  1  0
 20 21  2  0
 21 17  1  0
 22 21  1  0
 23 27  1  0
 23 19  1  0
 24 25  1  0
 24 23  1  0
 25 26  1  0
 26 27  1  0
  1 28  1  0
  2 29  1  0
  9 30  1  0
 12 31  1  0
 13 32  1  0
 14 33  1  0
 15 34  1  0
 18 35  1  0
 22 36  1  0
 22 37  1  0
 23 38  1  0
 24 39  1  0
 24 40  1  0
 25 41  1  0
 25 42  1  0
 26 43  1  0
 26 44  1  0
 27 45  1  0
 27 46  1  0
M  ISO  8  28  14  29  14  30  14  31  14  32  14  33  14  34  14  35  14
M  ISO  8  38  13  39  13  40  13  41  13  42  13  43  13  44  13  45  13
M  ISO  1  46  13
M  END
>  <minimizedAffinity>  (1) 
-7.24361181

>  <minimizedRMSD>  (1) 
1.16883361

$$$$
