
     RDKit          3D

 46 51  0  0  0  0  0  0  0  0999 V2000
   44.6330   35.5350   45.0300 C   0  0  0  0  0  0  0  0  0  0  0  0
   44.1730   35.4470   43.7010 C   0  0  0  0  0  0  0  0  0  0  0  0
   44.5350   34.3480   42.9260 C   0  0  0  0  0  0  0  0  0  0  0  0
   45.3180   33.4360   43.5430 N   0  0  0  0  0  0  0  0  0  0  0  0
   45.7520   33.5240   44.8060 C   0  0  0  0  0  0  0  0  0  0  0  0
   45.3910   34.5840   45.5190 N   0  0  0  0  0  0  0  0  0  0  0  0
   46.5440   32.4030   44.9100 C   0  0  0  0  0  0  0  0  0  0  0  0
   47.3050   31.3780   44.9080 N   0  0  0  0  0  0  0  0  0  0  0  0
   47.9980   30.4190   44.9710 C   0  0  0  0  0  0  0  0  0  0  0  0
   47.8310   30.1260   46.2560 N   0  0  0  0  0  0  0  0  0  0  0  0
   46.9900   30.9590   46.9790 C   0  0  0  0  0  0  0  0  0  0  0  0
   46.8590   30.5550   48.3240 C   0  0  0  0  0  0  0  0  0  0  0  0
   46.0290   31.2930   49.0890 C   0  0  0  0  0  0  0  0  0  0  0  0
   45.3510   32.3580   48.6160 C   0  0  0  0  0  0  0  0  0  0  0  0
   45.5750   32.6410   47.2880 C   0  0  0  0  0  0  0  0  0  0  0  0
   46.3820   32.0460   46.2910 C   0  0  0  0  0  0  0  0  0  0  0  0
   44.0840   34.2850   41.6010 N   0  0  0  0  0  0  0  0  0  0  0  0
   42.7910   34.2960   41.2820 C   0  0  0  0  0  0  0  0  0  0  0  0
   42.7680   34.2220   39.8830 C   0  0  0  0  0  0  0  0  0  0  0  0
   44.0560   34.1680   39.4080 N   0  0  0  0  0  0  0  0  0  0  0  0
   44.8620   34.2080   40.4860 C   0  0  0  0  0  0  0  0  0  0  0  0
   46.2860   34.1760   40.5040 N   0  0  0  0  0  0  0  0  0  0  0  0
   41.5660   34.2070   39.1030 N   0  0  0  0  0  0  0  0  0  0  0  0
   41.2600   35.2050   38.2540 C   0  0  0  0  0  0  0  0  0  0  0  0
   40.0680   34.9030   37.6640 N   0  0  0  0  0  0  0  0  0  0  0  0
   39.6600   33.7200   38.1620 C   0  0  0  0  0  0  0  0  0  0  0  0
   38.5580   32.8790   37.9830 C   0  0  0  0  0  0  0  0  0  0  0  0
   38.4630   31.7240   38.6700 N   0  0  0  0  0  0  0  0  0  0  0  0
   39.4300   31.3460   39.5530 C   0  0  0  0  0  0  0  0  0  0  0  0
   40.5290   32.1270   39.7690 N   0  0  0  0  0  0  0  0  0  0  0  0
   40.6130   33.2720   39.0810 C   0  0  0  0  0  0  0  0  0  0  0  0
   37.5850   33.3310   37.0490 N   0  0  0  0  0  0  0  0  0  0  0  0
   44.3573   36.3978   45.6542 H   0  0  0  0  0  0  0  0  0  0  0  0
   43.5348   36.2379   43.2802 H   0  0  0  0  0  0  0  0  0  0  0  0
   48.5998   29.9203   44.1969 H   0  0  0  0  0  0  0  0  0  0  0  0
   47.4028   29.6875   48.7260 H   0  0  0  0  0  0  0  0  0  0  0  0
   45.8995   31.0138   50.1451 H   0  0  0  0  0  0  0  0  0  0  0  0
   44.6716   32.9543   49.2428 H   0  0  0  0  0  0  0  0  0  0  0  0
   45.0080   33.5117   46.9268 H   0  0  0  0  0  0  0  0  0  0  0  0
   41.9311   34.3510   41.9658 H   0  0  0  0  0  0  0  0  0  0  0  0
   46.7907   34.2131   41.4011 H   0  0  0  0  0  0  0  0  0  0  0  0
   46.8110   34.1157   39.6199 H   0  0  0  0  0  0  0  0  0  0  0  0
   41.8643   36.1052   38.0686 H   0  0  0  0  0  0  0  0  0  0  0  0
   39.3235   30.3975   40.0998 H   0  0  0  0  0  0  0  0  0  0  0  0
   36.7453   32.7636   36.8649 H   0  0  0  0  0  0  0  0  0  0  0  0
   37.7202   34.2256   36.5568 H   0  0  0  0  0  0  0  0  0  0  0  0
  1  6  2  0
  2  1  1  0
  3  4  1  0
  3  2  2  0
  4  5  2  0
  5  7  1  0
  5  6  1  0
  7 16  1  0
  8  7  2  0
  8  9  1  0
  9 10  2  0
 10 11  1  0
 11 12  1  0
 12 13  2  0
 14 13  1  0
 15 14  2  0
 16 11  2  0
 16 15  1  0
 17  3  1  0
 18 17  1  0
 19 18  2  0
 20 19  1  0
 20 21  2  0
 21 22  1  0
 21 17  1  0
 23 19  1  0
 24 23  1  0
 25 26  1  0
 25 24  2  0
 26 31  2  0
 27 26  1  0
 27 28  2  0
 28 29  1  0
 29 30  2  0
 31 23  1  0
 31 30  1  0
 32 27  1  0
  1 33  1  0
  2 34  1  0
  9 35  1  0
 12 36  1  0
 13 37  1  0
 14 38  1  0
 15 39  1  0
 18 40  1  0
 22 41  1  0
 22 42  1  0
 24 43  1  0
 29 44  1  0
 32 45  1  0
 32 46  1  0
M  ISO  8  33  14  34  14  35  14  36  14  37  14  38  14  39  14  40  14
M  ISO  2  43  14  44  14
M  END
>  <minimizedAffinity>  (1) 
-7.55880833

>  <minimizedRMSD>  (1) 
0.811237991

$$$$
