
     RDKit          3D

 45 49  0  0  0  0  0  0  0  0999 V2000
   44.5960   35.7190   45.2110 C   0  0  0  0  0  0  0  0  0  0  0  0
   44.0200   35.7370   43.9330 C   0  0  0  0  0  0  0  0  0  0  0  0
   44.2600   34.6880   43.0750 C   0  0  0  0  0  0  0  0  0  0  0  0
   45.0550   33.6990   43.5520 N   0  0  0  0  0  0  0  0  0  0  0  0
   45.6020   33.6860   44.7720 C   0  0  0  0  0  0  0  0  0  0  0  0
   45.3510   34.7150   45.5770 N   0  0  0  0  0  0  0  0  0  0  0  0
   46.3520   32.5330   44.7350 C   0  0  0  0  0  0  0  0  0  0  0  0
   47.0660   31.4830   44.6010 N   0  0  0  0  0  0  0  0  0  0  0  0
   47.7230   30.4930   44.5420 C   0  0  0  0  0  0  0  0  0  0  0  0
   47.6600   30.1410   45.8120 N   0  0  0  0  0  0  0  0  0  0  0  0
   46.9310   30.9500   46.6650 C   0  0  0  0  0  0  0  0  0  0  0  0
   46.9130   30.4780   47.9900 C   0  0  0  0  0  0  0  0  0  0  0  0
   46.1990   31.2000   48.8770 C   0  0  0  0  0  0  0  0  0  0  0  0
   45.5250   32.3180   48.5370 C   0  0  0  0  0  0  0  0  0  0  0  0
   45.6300   32.6690   47.2100 C   0  0  0  0  0  0  0  0  0  0  0  0
   46.3060   32.1000   46.1060 C   0  0  0  0  0  0  0  0  0  0  0  0
   43.6860   34.7170   41.7870 N   0  0  0  0  0  0  0  0  0  0  0  0
   42.3830   34.9880   41.5870 C   0  0  0  0  0  0  0  0  0  0  0  0
   42.2180   34.9010   40.2140 C   0  0  0  0  0  0  0  0  0  0  0  0
   43.3990   34.5880   39.6130 N   0  0  0  0  0  0  0  0  0  0  0  0
   44.3190   34.4730   40.6080 C   0  0  0  0  0  0  0  0  0  0  0  0
   45.7010   34.1500   40.5040 N   0  0  0  0  0  0  0  0  0  0  0  0
   41.0280   35.0950   39.4500 N   0  0  0  0  0  0  0  0  0  0  0  0
   40.8380   35.2080   38.0130 C   0  0  0  0  0  0  0  0  0  0  0  0
   39.5320   34.4510   37.7370 C   0  0  0  0  0  0  0  0  0  0  0  0
   38.9730   34.1580   39.1260 C   0  0  0  0  0  0  0  0  0  0  0  0
   39.6650   35.2300   39.9440 C   0  0  0  0  0  0  0  0  0  0  0  0
   44.4129   36.5505   45.9074 H   0  0  0  0  0  0  0  0  0  0  0  0
   43.3845   36.5786   43.6201 H   0  0  0  0  0  0  0  0  0  0  0  0
   48.2286   30.0166   43.6891 H   0  0  0  0  0  0  0  0  0  0  0  0
   47.4534   29.5671   48.2871 H   0  0  0  0  0  0  0  0  0  0  0  0
   46.1646   30.8627   49.9235 H   0  0  0  0  0  0  0  0  0  0  0  0
   44.9388   32.9021   49.2617 H   0  0  0  0  0  0  0  0  0  0  0  0
   45.0719   33.5821   46.9555 H   0  0  0  0  0  0  0  0  0  0  0  0
   41.6204   35.2252   42.3435 H   0  0  0  0  0  0  0  0  0  0  0  0
   46.2829   34.0978   41.3522 H   0  0  0  0  0  0  0  0  0  0  0  0
   46.1194   33.9684   39.5805 H   0  0  0  0  0  0  0  0  0  0  0  0
   40.7464   36.2628   37.7147 H   0  0  0  0  0  0  0  0  0  0  0  0
   41.6866   34.7984   37.4455 H   0  0  0  0  0  0  0  0  0  0  0  0
   38.8341   35.0739   37.1583 H   0  0  0  0  0  0  0  0  0  0  0  0
   39.6896   33.5384   37.1435 H   0  0  0  0  0  0  0  0  0  0  0  0
   37.8791   34.2707   39.1540 H   0  0  0  0  0  0  0  0  0  0  0  0
   39.1487   33.1314   39.4798 H   0  0  0  0  0  0  0  0  0  0  0  0
   39.6008   35.0238   41.0226 H   0  0  0  0  0  0  0  0  0  0  0  0
   39.2354   36.2373   39.8404 H   0  0  0  0  0  0  0  0  0  0  0  0
  1  6  2  0
  2  1  1  0
  3  4  1  0
  3  2  2  0
  4  5  2  0
  5  6  1  0
  7  5  1  0
  7 16  1  0
  8  7  2  0
  9  8  1  0
  9 10  2  0
 10 11  1  0
 11 12  1  0
 12 13  2  0
 14 13  1  0
 15 14  2  0
 16 11  2  0
 16 15  1  0
 17  3  1  0
 18 17  1  0
 19 18  2  0
 20 19  1  0
 20 21  2  0
 21 17  1  0
 22 21  1  0
 23 27  1  0
 23 19  1  0
 24 23  1  0
 25 24  1  0
 25 26  1  0
 26 27  1  0
  1 28  1  0
  2 29  1  0
  9 30  1  0
 12 31  1  0
 13 32  1  0
 14 33  1  0
 15 34  1  0
 18 35  1  0
 22 36  1  0
 22 37  1  0
 24 38  1  0
 24 39  1  0
 25 40  1  0
 25 41  1  0
 26 42  1  0
 26 43  1  0
 27 44  1  0
 27 45  1  0
M  ISO  8  28  14  29  14  30  14  31  14  32  14  33  14  34  14  35  14
M  ISO  8  38  13  39  13  40  13  41  13  42  13  43  13  44  13  45  13
M  END
>  <minimizedAffinity>  (1) 
-7.14579153

>  <minimizedRMSD>  (1) 
0.834600925

$$$$
