
     RDKit          3D

 40 44  0  0  0  0  0  0  0  0999 V2000
   44.6300   35.6290   45.0570 C   0  0  0  0  0  0  0  0  0  0  0  0
   44.0510   35.5390   43.7750 C   0  0  0  0  0  0  0  0  0  0  0  0
   44.3260   34.4280   42.9800 C   0  0  0  0  0  0  0  0  0  0  0  0
   45.1490   33.5110   43.5320 N   0  0  0  0  0  0  0  0  0  0  0  0
   45.6960   33.6020   44.7490 C   0  0  0  0  0  0  0  0  0  0  0  0
   45.4140   34.6740   45.4820 N   0  0  0  0  0  0  0  0  0  0  0  0
   46.4820   32.4710   44.7880 C   0  0  0  0  0  0  0  0  0  0  0  0
   47.2310   31.4390   44.7280 N   0  0  0  0  0  0  0  0  0  0  0  0
   47.9210   30.4640   44.7390 C   0  0  0  0  0  0  0  0  0  0  0  0
   47.7930   30.1490   46.0110 N   0  0  0  0  0  0  0  0  0  0  0  0
   46.9920   30.9610   46.7940 C   0  0  0  0  0  0  0  0  0  0  0  0
   46.9160   30.5280   48.1330 C   0  0  0  0  0  0  0  0  0  0  0  0
   46.1370   31.2580   48.9550 C   0  0  0  0  0  0  0  0  0  0  0  0
   45.4540   32.3440   48.5440 C   0  0  0  0  0  0  0  0  0  0  0  0
   45.6200   32.6570   47.2140 C   0  0  0  0  0  0  0  0  0  0  0  0
   46.3690   32.0750   46.1670 C   0  0  0  0  0  0  0  0  0  0  0  0
   43.7570   34.3650   41.7020 N   0  0  0  0  0  0  0  0  0  0  0  0
   42.4400   34.4140   41.4990 C   0  0  0  0  0  0  0  0  0  0  0  0
   42.2840   34.3240   40.1120 C   0  0  0  0  0  0  0  0  0  0  0  0
   43.5280   34.2210   39.5220 N   0  0  0  0  0  0  0  0  0  0  0  0
   44.4260   34.2480   40.5230 C   0  0  0  0  0  0  0  0  0  0  0  0
   45.8420   34.1710   40.4110 N   0  0  0  0  0  0  0  0  0  0  0  0
   41.0350   34.3320   39.3580 C   0  0  0  0  0  0  0  0  0  0  0  0
   39.7840   34.3300   39.9410 C   0  0  0  0  0  0  0  0  0  0  0  0
   38.8210   34.3390   38.9540 C   0  0  0  0  0  0  0  0  0  0  0  0
   39.5730   34.3450   37.7760 C   0  0  0  0  0  0  0  0  0  0  0  0
   40.8690   34.3400   38.0360 O   0  0  0  0  0  0  0  0  0  0  0  0
   44.4227   36.4994   45.6969 H   0  0  0  0  0  0  0  0  0  0  0  0
   43.3895   36.3368   43.4062 H   0  0  0  0  0  0  0  0  0  0  0  0
   48.4897   29.9778   43.9327 H   0  0  0  0  0  0  0  0  0  0  0  0
   47.4630   29.6421   48.4878 H   0  0  0  0  0  0  0  0  0  0  0  0
   46.0551   30.9536   50.0089 H   0  0  0  0  0  0  0  0  0  0  0  0
   44.8147   32.9336   49.2176 H   0  0  0  0  0  0  0  0  0  0  0  0
   45.0512   33.5450   46.9012 H   0  0  0  0  0  0  0  0  0  0  0  0
   41.6485   34.5053   42.2574 H   0  0  0  0  0  0  0  0  0  0  0  0
   46.4280   34.2023   41.2575 H   0  0  0  0  0  0  0  0  0  0  0  0
   46.2813   34.0840   39.4834 H   0  0  0  0  0  0  0  0  0  0  0  0
   39.5862   34.3224   41.0230 H   0  0  0  0  0  0  0  0  0  0  0  0
   37.7268   34.3410   39.0665 H   0  0  0  0  0  0  0  0  0  0  0  0
   39.1423   34.3529   36.7639 H   0  0  0  0  0  0  0  0  0  0  0  0
  1  6  2  0
  2  1  1  0
  3  4  1  0
  3  2  2  0
  4  5  2  0
  5  7  1  0
  5  6  1  0
  7 16  2  0
  8  9  2  0
  8  7  1  0
  9 10  1  0
 10 11  2  0
 11 12  1  0
 12 13  2  0
 14 13  1  0
 15 14  2  0
 16 11  1  0
 16 15  1  0
 17  3  1  0
 18 17  1  0
 19 18  2  0
 20 19  1  0
 20 21  2  0
 21 17  1  0
 22 21  1  0
 23 24  2  0
 23 19  1  0
 25 24  1  0
 26 27  1  0
 26 25  2  0
 27 23  1  0
  1 28  1  0
  2 29  1  0
  9 30  1  0
 12 31  1  0
 13 32  1  0
 14 33  1  0
 15 34  1  0
 18 35  1  0
 22 36  1  0
 22 37  1  0
 24 38  1  0
 25 39  1  0
 26 40  1  0
M  ISO  8  28  14  29  14  30  14  31  14  32  14  33  14  34  14  35  14
M  ISO  3  38  14  39  14  40  14
M  END
>  <minimizedAffinity>  (1) 
-6.964921

>  <minimizedRMSD>  (1) 
0.2138208

$$$$
