
     RDKit          3D

 40 44  0  0  0  0  0  0  0  0999 V2000
   44.6290   35.6810   44.9910 C   0  0  0  0  0  0  0  0  0  0  0  0
   44.0280   35.5760   43.7250 C   0  0  0  0  0  0  0  0  0  0  0  0
   44.2840   34.4530   42.9420 C   0  0  0  0  0  0  0  0  0  0  0  0
   45.1130   33.5400   43.4930 N   0  0  0  0  0  0  0  0  0  0  0  0
   45.6840   33.6450   44.6970 C   0  0  0  0  0  0  0  0  0  0  0  0
   45.4180   34.7300   45.4180 N   0  0  0  0  0  0  0  0  0  0  0  0
   46.4670   32.5140   44.7400 C   0  0  0  0  0  0  0  0  0  0  0  0
   47.2170   31.4820   44.6810 N   0  0  0  0  0  0  0  0  0  0  0  0
   47.9030   30.5110   44.6970 C   0  0  0  0  0  0  0  0  0  0  0  0
   47.7770   30.1920   45.9740 N   0  0  0  0  0  0  0  0  0  0  0  0
   46.9740   31.0120   46.7480 C   0  0  0  0  0  0  0  0  0  0  0  0
   46.8870   30.5780   48.0940 C   0  0  0  0  0  0  0  0  0  0  0  0
   46.0970   31.3050   48.9080 C   0  0  0  0  0  0  0  0  0  0  0  0
   45.4100   32.3890   48.4940 C   0  0  0  0  0  0  0  0  0  0  0  0
   45.5900   32.7000   47.1630 C   0  0  0  0  0  0  0  0  0  0  0  0
   46.3510   32.1230   46.1200 C   0  0  0  0  0  0  0  0  0  0  0  0
   43.6930   34.3700   41.6730 N   0  0  0  0  0  0  0  0  0  0  0  0
   42.3740   34.4120   41.4890 C   0  0  0  0  0  0  0  0  0  0  0  0
   42.2020   34.3000   40.1070 C   0  0  0  0  0  0  0  0  0  0  0  0
   43.4310   34.1940   39.4990 N   0  0  0  0  0  0  0  0  0  0  0  0
   44.3460   34.2390   40.4850 C   0  0  0  0  0  0  0  0  0  0  0  0
   45.7640   34.1650   40.3530 N   0  0  0  0  0  0  0  0  0  0  0  0
   40.9580   34.2930   39.3930 N   0  0  0  0  0  0  0  0  0  0  0  0
   40.8220   34.4770   38.0960 N   0  0  0  0  0  0  0  0  0  0  0  0
   39.5340   34.4160   37.7110 C   0  0  0  0  0  0  0  0  0  0  0  0
   38.8280   34.1740   38.8710 C   0  0  0  0  0  0  0  0  0  0  0  0
   39.7320   34.1020   39.9000 C   0  0  0  0  0  0  0  0  0  0  0  0
   44.4360   36.5615   45.6214 H   0  0  0  0  0  0  0  0  0  0  0  0
   43.3633   36.3713   43.3568 H   0  0  0  0  0  0  0  0  0  0  0  0
   48.4718   30.0241   43.8912 H   0  0  0  0  0  0  0  0  0  0  0  0
   47.4349   29.6951   48.4549 H   0  0  0  0  0  0  0  0  0  0  0  0
   46.0081   30.9996   49.9610 H   0  0  0  0  0  0  0  0  0  0  0  0
   44.7612   32.9752   49.1614 H   0  0  0  0  0  0  0  0  0  0  0  0
   45.0204   33.5855   46.8445 H   0  0  0  0  0  0  0  0  0  0  0  0
   41.5924   34.5127   42.2564 H   0  0  0  0  0  0  0  0  0  0  0  0
   46.3623   34.2111   41.1902 H   0  0  0  0  0  0  0  0  0  0  0  0
   46.1899   34.0655   39.4205 H   0  0  0  0  0  0  0  0  0  0  0  0
   39.1321   34.5334   36.6938 H   0  0  0  0  0  0  0  0  0  0  0  0
   37.7372   34.0595   38.9555 H   0  0  0  0  0  0  0  0  0  0  0  0
   39.4924   33.9192   40.9579 H   0  0  0  0  0  0  0  0  0  0  0  0
  1  6  2  0
  2  1  1  0
  3  4  1  0
  3  2  2  0
  4  5  2  0
  5  7  1  0
  5  6  1  0
  7 16  2  0
  8  9  2  0
  8  7  1  0
  9 10  1  0
 10 11  2  0
 11 12  1  0
 12 13  2  0
 14 13  1  0
 15 14  2  0
 16 11  1  0
 16 15  1  0
 17  3  1  0
 18 17  1  0
 19 18  2  0
 20 19  1  0
 20 21  2  0
 21 17  1  0
 22 21  1  0
 23 27  1  0
 23 19  1  0
 24 23  1  0
 25 24  2  0
 25 26  1  0
 26 27  2  0
  1 28  1  0
  2 29  1  0
  9 30  1  0
 12 31  1  0
 13 32  1  0
 14 33  1  0
 15 34  1  0
 18 35  1  0
 22 36  1  0
 22 37  1  0
 25 38  1  0
 26 39  1  0
 27 40  1  0
M  ISO  8  28  14  29  14  30  14  31  14  32  14  33  14  34  14  35  14
M  ISO  3  38  14  39  14  40  14
M  END
>  <minimizedAffinity>  (1) 
-6.855865

>  <minimizedRMSD>  (1) 
0.454763085

$$$$
