
     RDKit          3D

 39 43  0  0  0  0  0  0  0  0999 V2000
   44.6580   35.6650   44.9650 C   0  0  0  0  0  0  0  0  0  0  0  0
   44.0560   35.5450   43.7040 C   0  0  0  0  0  0  0  0  0  0  0  0
   44.3090   34.4230   42.9430 C   0  0  0  0  0  0  0  0  0  0  0  0
   45.1410   33.5050   43.4940 N   0  0  0  0  0  0  0  0  0  0  0  0
   45.7130   33.6270   44.6960 C   0  0  0  0  0  0  0  0  0  0  0  0
   45.4500   34.7210   45.4060 N   0  0  0  0  0  0  0  0  0  0  0  0
   46.4950   32.4960   44.7520 C   0  0  0  0  0  0  0  0  0  0  0  0
   47.2440   31.4640   44.7050 N   0  0  0  0  0  0  0  0  0  0  0  0
   47.9280   30.4930   44.7300 C   0  0  0  0  0  0  0  0  0  0  0  0
   47.7940   30.1750   46.0100 N   0  0  0  0  0  0  0  0  0  0  0  0
   46.9820   31.0010   46.7760 C   0  0  0  0  0  0  0  0  0  0  0  0
   46.8810   30.5670   48.1150 C   0  0  0  0  0  0  0  0  0  0  0  0
   46.0810   31.2940   48.9170 C   0  0  0  0  0  0  0  0  0  0  0  0
   45.4020   32.3770   48.4900 C   0  0  0  0  0  0  0  0  0  0  0  0
   45.5940   32.6900   47.1630 C   0  0  0  0  0  0  0  0  0  0  0  0
   46.3680   32.1090   46.1310 C   0  0  0  0  0  0  0  0  0  0  0  0
   43.7050   34.3150   41.6750 N   0  0  0  0  0  0  0  0  0  0  0  0
   42.3770   34.3000   41.5020 C   0  0  0  0  0  0  0  0  0  0  0  0
   42.1970   34.1710   40.1380 C   0  0  0  0  0  0  0  0  0  0  0  0
   43.3980   34.1160   39.5100 N   0  0  0  0  0  0  0  0  0  0  0  0
   44.3500   34.2060   40.4820 C   0  0  0  0  0  0  0  0  0  0  0  0
   45.7690   34.1810   40.3400 N   0  0  0  0  0  0  0  0  0  0  0  0
   40.8610   34.1140   39.5580 C   0  0  0  0  0  0  0  0  0  0  0  0
   40.7420   33.9980   38.1110 C   0  0  0  0  0  0  0  0  0  0  0  0
   38.8880   33.9560   37.7760 S   0  0  0  0  0  0  0  0  0  0  0  0
   38.6150   34.1020   39.6430 C   0  0  0  0  0  0  0  0  0  0  0  0
   39.6540   34.1440   40.0500 N   0  0  0  0  0  0  0  0  0  0  0  0
   44.4643   36.5534   45.5840 H   0  0  0  0  0  0  0  0  0  0  0  0
   43.3906   36.3356   43.3268 H   0  0  0  0  0  0  0  0  0  0  0  0
   48.5018   30.0034   43.9293 H   0  0  0  0  0  0  0  0  0  0  0  0
   47.4252   29.6845   48.4825 H   0  0  0  0  0  0  0  0  0  0  0  0
   45.9766   30.9903   49.9691 H   0  0  0  0  0  0  0  0  0  0  0  0
   44.7463   32.9644   49.1495 H   0  0  0  0  0  0  0  0  0  0  0  0
   45.0282   33.5755   46.8377 H   0  0  0  0  0  0  0  0  0  0  0  0
   41.5994   34.3742   42.2765 H   0  0  0  0  0  0  0  0  0  0  0  0
   46.3713   34.2596   41.1718 H   0  0  0  0  0  0  0  0  0  0  0  0
   46.1914   34.0843   39.4056 H   0  0  0  0  0  0  0  0  0  0  0  0
   41.5570   33.9462   37.3741 H   0  0  0  0  0  0  0  0  0  0  0  0
   37.6635   34.1370   40.1938 H   0  0  0  0  0  0  0  0  0  0  0  0
  1  6  2  0
  2  1  1  0
  3  4  1  0
  3  2  2  0
  4  5  2  0
  5  7  1  0
  5  6  1  0
  7 16  2  0
  8  9  2  0
  8  7  1  0
  9 10  1  0
 10 11  2  0
 11 12  1  0
 12 13  2  0
 14 13  1  0
 15 14  2  0
 16 11  1  0
 16 15  1  0
 17  3  1  0
 18 17  1  0
 19 18  2  0
 20 19  1  0
 20 21  2  0
 21 17  1  0
 22 21  1  0
 23 27  1  0
 23 19  1  0
 24 23  2  0
 25 24  1  0
 25 26  1  0
 26 27  2  0
  1 28  1  0
  2 29  1  0
  9 30  1  0
 12 31  1  0
 13 32  1  0
 14 33  1  0
 15 34  1  0
 18 35  1  0
 22 36  1  0
 22 37  1  0
 24 38  1  0
 26 39  1  0
M  ISO  8  28  14  29  14  30  14  31  14  32  14  33  14  34  14  35  14
M  ISO  2  38  14  39  14
M  END
>  <minimizedAffinity>  (1) 
-6.72372055

>  <minimizedRMSD>  (1) 
0.44422847

$$$$
