
     RDKit          3D

 36 39  0  0  0  0  0  0  0  0999 V2000
   44.6320   35.5990   44.9400 C   0  0  0  0  0  0  0  0  0  0  0  0
   44.0910   35.4810   43.6460 C   0  0  0  0  0  0  0  0  0  0  0  0
   44.3930   34.3560   42.8810 C   0  0  0  0  0  0  0  0  0  0  0  0
   45.2030   33.4530   43.4740 N   0  0  0  0  0  0  0  0  0  0  0  0
   45.7160   33.5690   44.7030 C   0  0  0  0  0  0  0  0  0  0  0  0
   45.4080   34.6560   45.4060 N   0  0  0  0  0  0  0  0  0  0  0  0
   46.5060   32.4450   44.7860 C   0  0  0  0  0  0  0  0  0  0  0  0
   47.2630   31.4160   44.7630 N   0  0  0  0  0  0  0  0  0  0  0  0
   47.9530   30.4530   44.8140 C   0  0  0  0  0  0  0  0  0  0  0  0
   47.8100   30.1620   46.1040 N   0  0  0  0  0  0  0  0  0  0  0  0
   46.9880   30.9980   46.8440 C   0  0  0  0  0  0  0  0  0  0  0  0
   46.8780   30.5920   48.1910 C   0  0  0  0  0  0  0  0  0  0  0  0
   46.0620   31.3290   48.9710 C   0  0  0  0  0  0  0  0  0  0  0  0
   45.3760   32.3930   48.5200 C   0  0  0  0  0  0  0  0  0  0  0  0
   45.5810   32.6770   47.1840 C   0  0  0  0  0  0  0  0  0  0  0  0
   46.3720   32.0860   46.1690 C   0  0  0  0  0  0  0  0  0  0  0  0
   43.8580   34.2640   41.5880 N   0  0  0  0  0  0  0  0  0  0  0  0
   42.5480   34.2830   41.3470 C   0  0  0  0  0  0  0  0  0  0  0  0
   42.4390   34.1700   39.9570 C   0  0  0  0  0  0  0  0  0  0  0  0
   43.7000   34.0870   39.4030 N   0  0  0  0  0  0  0  0  0  0  0  0
   44.5670   34.1470   40.4310 C   0  0  0  0  0  0  0  0  0  0  0  0
   45.9860   34.1010   40.3630 N   0  0  0  0  0  0  0  0  0  0  0  0
   41.1940   34.1440   39.2130 C   0  0  0  0  0  0  0  0  0  0  0  0
   40.1200   34.0600   39.8560 O   0  0  0  0  0  0  0  0  0  0  0  0
   41.2030   34.2120   37.8360 O   0  0  0  0  0  0  0  0  0  0  0  0
   44.4028   36.4808   45.5564 H   0  0  0  0  0  0  0  0  0  0  0  0
   43.4369   36.2682   43.2429 H   0  0  0  0  0  0  0  0  0  0  0  0
   48.5370   29.9504   44.0289 H   0  0  0  0  0  0  0  0  0  0  0  0
   47.4272   29.7230   48.5825 H   0  0  0  0  0  0  0  0  0  0  0  0
   45.9523   31.0456   50.0282 H   0  0  0  0  0  0  0  0  0  0  0  0
   44.7079   32.9873   49.1606 H   0  0  0  0  0  0  0  0  0  0  0  0
   45.0076   33.5479   46.8338 H   0  0  0  0  0  0  0  0  0  0  0  0
   41.7319   34.3687   42.0796 H   0  0  0  0  0  0  0  0  0  0  0  0
   46.5450   34.1562   41.2263 H   0  0  0  0  0  0  0  0  0  0  0  0
   46.4553   34.0125   39.4504 H   0  0  0  0  0  0  0  0  0  0  0  0
   42.0626   34.2779   37.3493 H   0  0  0  0  0  0  0  0  0  0  0  0
  1  6  2  0
  2  1  1  0
  3  4  1  0
  3  2  2  0
  4  5  2  0
  5  7  1  0
  5  6  1  0
  7 16  1  0
  8  7  2  0
  8  9  1  0
  9 10  2  0
 10 11  1  0
 11 12  1  0
 12 13  2  0
 14 13  1  0
 15 14  2  0
 16 11  2  0
 16 15  1  0
 17  3  1  0
 18 17  1  0
 19 18  2  0
 20 19  1  0
 20 21  2  0
 21 17  1  0
 22 21  1  0
 23 24  2  0
 23 19  1  0
 25 23  1  0
  1 26  1  0
  2 27  1  0
  9 28  1  0
 12 29  1  0
 13 30  1  0
 14 31  1  0
 15 32  1  0
 18 33  1  0
 22 34  1  0
 22 35  1  0
 25 36  1  0
M  ISO  8  26  14  27  14  28  14  29  14  30  14  31  14  32  14  33  14
M  ISO  1  36   3
M  END
>  <minimizedAffinity>  (1) 
-6.19508696

>  <minimizedRMSD>  (1) 
0.119638443

$$$$
