
     RDKit          3D

 40 44  0  0  0  0  0  0  0  0999 V2000
   44.6150   35.6660   44.9940 C   0  0  0  0  0  0  0  0  0  0  0  0
   44.0370   35.5670   43.7120 C   0  0  0  0  0  0  0  0  0  0  0  0
   44.3110   34.4510   42.9260 C   0  0  0  0  0  0  0  0  0  0  0  0
   45.1330   33.5390   43.4860 N   0  0  0  0  0  0  0  0  0  0  0  0
   45.6800   33.6350   44.7030 C   0  0  0  0  0  0  0  0  0  0  0  0
   45.3990   34.7120   45.4280 N   0  0  0  0  0  0  0  0  0  0  0  0
   46.4670   32.5060   44.7510 C   0  0  0  0  0  0  0  0  0  0  0  0
   47.2210   31.4770   44.6960 N   0  0  0  0  0  0  0  0  0  0  0  0
   47.9090   30.5090   44.7170 C   0  0  0  0  0  0  0  0  0  0  0  0
   47.7820   30.1970   45.9950 N   0  0  0  0  0  0  0  0  0  0  0  0
   46.9770   31.0150   46.7680 C   0  0  0  0  0  0  0  0  0  0  0  0
   46.8900   30.5830   48.1110 C   0  0  0  0  0  0  0  0  0  0  0  0
   46.0940   31.3070   48.9220 C   0  0  0  0  0  0  0  0  0  0  0  0
   45.4040   32.3860   48.5030 C   0  0  0  0  0  0  0  0  0  0  0  0
   45.5840   32.6970   47.1710 C   0  0  0  0  0  0  0  0  0  0  0  0
   46.3520   32.1210   46.1320 C   0  0  0  0  0  0  0  0  0  0  0  0
   43.7460   34.3790   41.6480 N   0  0  0  0  0  0  0  0  0  0  0  0
   42.4310   34.4430   41.4390 C   0  0  0  0  0  0  0  0  0  0  0  0
   42.2800   34.3380   40.0510 C   0  0  0  0  0  0  0  0  0  0  0  0
   43.5240   34.2140   39.4710 N   0  0  0  0  0  0  0  0  0  0  0  0
   44.4190   34.2420   40.4720 C   0  0  0  0  0  0  0  0  0  0  0  0
   45.8330   34.1520   40.3660 N   0  0  0  0  0  0  0  0  0  0  0  0
   41.0020   34.3580   39.3510 C   0  0  0  0  0  0  0  0  0  0  0  0
   39.7620   34.1200   39.9040 C   0  0  0  0  0  0  0  0  0  0  0  0
   38.9150   34.2660   38.8060 C   0  0  0  0  0  0  0  0  0  0  0  0
   39.5960   34.5670   37.6870 N   0  0  0  0  0  0  0  0  0  0  0  0
   40.8740   34.6190   38.0390 N   0  0  0  0  0  0  0  0  0  0  0  0
   44.4079   36.5415   45.6270 H   0  0  0  0  0  0  0  0  0  0  0  0
   43.3767   36.3628   43.3368 H   0  0  0  0  0  0  0  0  0  0  0  0
   48.4800   30.0195   43.9143 H   0  0  0  0  0  0  0  0  0  0  0  0
   47.4421   29.7037   48.4743 H   0  0  0  0  0  0  0  0  0  0  0  0
   46.0032   31.0031   49.9753 H   0  0  0  0  0  0  0  0  0  0  0  0
   44.7512   32.9705   49.1680 H   0  0  0  0  0  0  0  0  0  0  0  0
   45.0095   33.5782   46.8492 H   0  0  0  0  0  0  0  0  0  0  0  0
   41.6375   34.5541   42.1927 H   0  0  0  0  0  0  0  0  0  0  0  0
   46.4162   34.1858   41.2143 H   0  0  0  0  0  0  0  0  0  0  0  0
   46.2748   34.0529   39.4409 H   0  0  0  0  0  0  0  0  0  0  0  0
   39.5059   33.8769   40.9458 H   0  0  0  0  0  0  0  0  0  0  0  0
   37.8221   34.1490   38.8502 H   0  0  0  0  0  0  0  0  0  0  0  0
   39.2051   34.7251   36.7473 H   0  0  0  0  0  0  0  0  0  0  0  0
  1  6  2  0
  2  1  1  0
  3  4  1  0
  3  2  2  0
  4  5  2  0
  5  7  1  0
  5  6  1  0
  7 16  2  0
  8  9  2  0
  8  7  1  0
  9 10  1  0
 10 11  2  0
 11 12  1  0
 12 13  2  0
 14 13  1  0
 15 14  2  0
 16 11  1  0
 16 15  1  0
 17  3  1  0
 18 17  1  0
 19 18  2  0
 20 19  1  0
 20 21  2  0
 21 17  1  0
 22 21  1  0
 23 24  1  0
 23 19  1  0
 25 24  2  0
 26 27  1  0
 26 25  1  0
 27 23  2  0
  1 28  1  0
  2 29  1  0
  9 30  1  0
 12 31  1  0
 13 32  1  0
 14 33  1  0
 15 34  1  0
 18 35  1  0
 22 36  1  0
 22 37  1  0
 24 38  1  0
 25 39  1  0
 26 40  1  0
M  ISO  8  28  14  29  14  30  14  31  14  32  14  33  14  34  14  35  14
M  ISO  3  38  14  39  14  40   9
M  END
>  <minimizedAffinity>  (1) 
-6.80322742

>  <minimizedRMSD>  (1) 
0.347619176

$$$$
