
     RDKit          3D

 36 39  0  0  0  0  0  0  0  0999 V2000
   44.6640   35.7740   45.0900 C   0  0  0  0  0  0  0  0  0  0  0  0
   44.0250   35.8480   43.8430 C   0  0  0  0  0  0  0  0  0  0  0  0
   44.1440   34.7810   42.9610 C   0  0  0  0  0  0  0  0  0  0  0  0
   44.8870   33.7370   43.3940 N   0  0  0  0  0  0  0  0  0  0  0  0
   45.4930   33.6770   44.5840 C   0  0  0  0  0  0  0  0  0  0  0  0
   45.3600   34.7150   45.4060 N   0  0  0  0  0  0  0  0  0  0  0  0
   46.1590   32.4760   44.5010 C   0  0  0  0  0  0  0  0  0  0  0  0
   46.7880   31.3790   44.3240 N   0  0  0  0  0  0  0  0  0  0  0  0
   47.3710   30.3460   44.2250 C   0  0  0  0  0  0  0  0  0  0  0  0
   47.3900   30.0040   45.4990 N   0  0  0  0  0  0  0  0  0  0  0  0
   46.7860   30.8730   46.3900 C   0  0  0  0  0  0  0  0  0  0  0  0
   46.8430   30.4120   47.7260 C   0  0  0  0  0  0  0  0  0  0  0  0
   46.2510   31.1890   48.6550 C   0  0  0  0  0  0  0  0  0  0  0  0
   45.6260   32.3460   48.3580 C   0  0  0  0  0  0  0  0  0  0  0  0
   45.6480   32.6770   47.0220 C   0  0  0  0  0  0  0  0  0  0  0  0
   46.1970   32.0540   45.8780 C   0  0  0  0  0  0  0  0  0  0  0  0
   43.5080   34.8680   41.7090 N   0  0  0  0  0  0  0  0  0  0  0  0
   42.2540   35.3040   41.5650 C   0  0  0  0  0  0  0  0  0  0  0  0
   42.0090   35.2320   40.2000 C   0  0  0  0  0  0  0  0  0  0  0  0
   43.1100   34.7590   39.5520 N   0  0  0  0  0  0  0  0  0  0  0  0
   44.0500   34.5310   40.5050 C   0  0  0  0  0  0  0  0  0  0  0  0
   45.3710   34.0300   40.3340 N   0  0  0  0  0  0  0  0  0  0  0  0
   40.6830   35.6420   39.6150 C   0  0  0  0  0  0  0  0  0  0  0  0
   39.8580   34.5590   39.4600 F   0  0  0  0  0  0  0  0  0  0  0  0
   40.8940   36.3000   38.4110 F   0  0  0  0  0  0  0  0  0  0  0  0
   40.0350   36.5320   40.4530 F   0  0  0  0  0  0  0  0  0  0  0  0
   44.5787   36.6083   45.8018 H   0  0  0  0  0  0  0  0  0  0  0  0
   43.4388   36.7372   43.5679 H   0  0  0  0  0  0  0  0  0  0  0  0
   47.7725   29.8320   43.3392 H   0  0  0  0  0  0  0  0  0  0  0  0
   47.3437   29.4696   47.9927 H   0  0  0  0  0  0  0  0  0  0  0  0
   46.2792   30.8635   49.7054 H   0  0  0  0  0  0  0  0  0  0  0  0
   45.1392   32.9730   49.1195 H   0  0  0  0  0  0  0  0  0  0  0  0
   45.1314   33.6220   46.7983 H   0  0  0  0  0  0  0  0  0  0  0  0
   41.5669   35.6449   42.3535 H   0  0  0  0  0  0  0  0  0  0  0  0
   45.9842   33.9047   41.1520 H   0  0  0  0  0  0  0  0  0  0  0  0
   45.7139   33.7927   39.3922 H   0  0  0  0  0  0  0  0  0  0  0  0
  1  6  2  0
  2  1  1  0
  3  4  1  0
  3  2  2  0
  4  5  2  0
  5  6  1  0
  7  5  1  0
  7 16  1  0
  8  7  2  0
  9  8  1  0
  9 10  2  0
 10 11  1  0
 11 12  1  0
 12 13  2  0
 14 13  1  0
 15 14  2  0
 16 11  2  0
 16 15  1  0
 17  3  1  0
 18 17  1  0
 19 18  2  0
 20 19  1  0
 20 21  2  0
 21 17  1  0
 22 21  1  0
 23 19  1  0
 23 26  1  0
 24 23  1  0
 25 23  1  0
  1 27  1  0
  2 28  1  0
  9 29  1  0
 12 30  1  0
 13 31  1  0
 14 32  1  0
 15 33  1  0
 18 34  1  0
 22 35  1  0
 22 36  1  0
M  ISO  8  27  14  28  14  29  14  30  14  31  14  32  14  33  14  34  14
M  END
>  <minimizedAffinity>  (1) 
-6.70633936

>  <minimizedRMSD>  (1) 
0.978535593

$$$$
