
     RDKit          3D

 34 37  0  0  0  0  0  0  0  0999 V2000
   44.6470   35.6320   44.9420 C   0  0  0  0  0  0  0  0  0  0  0  0
   44.0630   35.5000   43.6700 C   0  0  0  0  0  0  0  0  0  0  0  0
   44.3320   34.3640   42.9100 C   0  0  0  0  0  0  0  0  0  0  0  0
   45.1560   33.4660   43.4890 N   0  0  0  0  0  0  0  0  0  0  0  0
   45.7120   33.5950   44.6980 C   0  0  0  0  0  0  0  0  0  0  0  0
   45.4350   34.6920   45.3970 N   0  0  0  0  0  0  0  0  0  0  0  0
   46.5020   32.4700   44.7690 C   0  0  0  0  0  0  0  0  0  0  0  0
   47.2600   31.4400   44.7350 N   0  0  0  0  0  0  0  0  0  0  0  0
   47.9480   30.4770   44.7730 C   0  0  0  0  0  0  0  0  0  0  0  0
   47.8080   30.1750   46.0550 N   0  0  0  0  0  0  0  0  0  0  0  0
   46.9900   31.0020   46.8070 C   0  0  0  0  0  0  0  0  0  0  0  0
   46.8870   30.5840   48.1540 C   0  0  0  0  0  0  0  0  0  0  0  0
   46.0780   31.3170   48.9440 C   0  0  0  0  0  0  0  0  0  0  0  0
   45.3900   32.3880   48.5080 C   0  0  0  0  0  0  0  0  0  0  0  0
   45.5880   32.6840   47.1720 C   0  0  0  0  0  0  0  0  0  0  0  0
   46.3710   32.0980   46.1480 C   0  0  0  0  0  0  0  0  0  0  0  0
   43.7530   34.2570   41.6390 N   0  0  0  0  0  0  0  0  0  0  0  0
   42.4340   34.2290   41.4490 C   0  0  0  0  0  0  0  0  0  0  0  0
   42.2730   34.1140   40.0650 C   0  0  0  0  0  0  0  0  0  0  0  0
   43.5140   34.0750   39.4600 N   0  0  0  0  0  0  0  0  0  0  0  0
   44.4150   34.1650   40.4520 C   0  0  0  0  0  0  0  0  0  0  0  0
   45.8330   34.1670   40.3290 N   0  0  0  0  0  0  0  0  0  0  0  0
   41.1100   34.0430   39.3330 O   0  0  0  0  0  0  0  0  0  0  0  0
   44.4419   36.5233   45.5531 H   0  0  0  0  0  0  0  0  0  0  0  0
   43.4002   36.2859   43.2788 H   0  0  0  0  0  0  0  0  0  0  0  0
   48.5291   29.9818   43.9811 H   0  0  0  0  0  0  0  0  0  0  0  0
   47.4360   29.7103   48.5352 H   0  0  0  0  0  0  0  0  0  0  0  0
   45.9748   31.0248   49.9994 H   0  0  0  0  0  0  0  0  0  0  0  0
   44.7271   32.9774   49.1585 H   0  0  0  0  0  0  0  0  0  0  0  0
   45.0162   33.5603   46.8327 H   0  0  0  0  0  0  0  0  0  0  0  0
   41.6451   34.2843   42.2136 H   0  0  0  0  0  0  0  0  0  0  0  0
   46.4228   34.2418   41.1701 H   0  0  0  0  0  0  0  0  0  0  0  0
   46.2694   34.0936   39.3989 H   0  0  0  0  0  0  0  0  0  0  0  0
   41.1498   33.9625   38.3471 H   0  0  0  0  0  0  0  0  0  0  0  0
  1  6  2  0
  2  1  1  0
  3  4  1  0
  3  2  2  0
  4  5  2  0
  5  7  1  0
  5  6  1  0
  7 16  1  0
  8  7  2  0
  8  9  1  0
  9 10  2  0
 10 11  1  0
 11 12  1  0
 12 13  2  0
 14 13  1  0
 15 14  2  0
 16 11  2  0
 16 15  1  0
 17  3  1  0
 18 17  1  0
 19 18  2  0
 20 19  1  0
 20 21  2  0
 21 17  1  0
 22 21  1  0
 23 19  1  0
  1 24  1  0
  2 25  1  0
  9 26  1  0
 12 27  1  0
 13 28  1  0
 14 29  1  0
 15 30  1  0
 18 31  1  0
 22 32  1  0
 22 33  1  0
 23 34  1  0
M  ISO  8  24  14  25  14  26  14  27  14  28  14  29  14  30  14  31  14
M  ISO  1  34   3
M  END
>  <minimizedAffinity>  (1) 
-5.84202671

>  <minimizedRMSD>  (1) 
0.127348959

$$$$
