
     RDKit          3D

 33 35  0  0  0  0  0  0  0  0999 V2000
   46.0360   33.0420   46.7550 C   0  0  0  0  0  0  0  0  0  0  0  0
   45.1030   32.8360   47.7530 C   0  0  0  0  0  0  0  0  0  0  0  0
   45.6530   31.9620   48.6850 C   0  0  0  0  0  0  0  0  0  0  0  0
   46.8930   31.6680   48.2270 N   0  0  0  0  0  0  0  0  0  0  0  0
   47.1290   32.3040   47.0830 N   0  0  0  0  0  0  0  0  0  0  0  0
   44.5530   35.6830   44.6810 C   0  0  0  0  0  0  0  0  0  0  0  0
   45.2620   35.5260   43.4520 C   0  0  0  0  0  0  0  0  0  0  0  0
   46.2160   34.5220   43.3870 C   0  0  0  0  0  0  0  0  0  0  0  0
   46.4430   33.7340   44.4770 N   0  0  0  0  0  0  0  0  0  0  0  0
   45.7430   33.9220   45.6240 C   0  0  0  0  0  0  0  0  0  0  0  0
   44.8040   34.8800   45.7470 N   0  0  0  0  0  0  0  0  0  0  0  0
   47.9040   30.8080   48.8020 C   0  0  0  0  0  0  0  0  0  0  0  0
   48.4510   29.8200   47.8010 C   0  0  0  0  0  0  0  0  0  0  0  0
   49.3780   28.8740   48.4920 C   0  0  0  0  0  0  0  0  0  0  0  0
   50.4520   29.5550   49.2920 C   0  0  0  0  0  0  0  0  0  0  0  0
   49.9840   30.7590   50.0390 C   0  0  0  0  0  0  0  0  0  0  0  0
   49.0810   31.6520   49.2500 C   0  0  0  0  0  0  0  0  0  0  0  0
   44.1000   33.2849   47.8020 H   0  0  0  0  0  0  0  0  0  0  0  0
   45.1787   31.5872   49.6040 H   0  0  0  0  0  0  0  0  0  0  0  0
   43.7887   36.4695   44.7662 H   0  0  0  0  0  0  0  0  0  0  0  0
   45.0591   36.1771   42.5889 H   0  0  0  0  0  0  0  0  0  0  0  0
   46.7872   34.3617   42.4607 H   0  0  0  0  0  0  0  0  0  0  0  0
   47.4262   30.2687   49.6332 H   0  0  0  0  0  0  0  0  0  0  0  0
   48.9976   30.3599   47.0138 H   0  0  0  0  0  0  0  0  0  0  0  0
   47.6208   29.2567   47.3499 H   0  0  0  0  0  0  0  0  0  0  0  0
   48.7866   28.2428   49.1716 H   0  0  0  0  0  0  0  0  0  0  0  0
   49.8830   28.2899   47.7086 H   0  0  0  0  0  0  0  0  0  0  0  0
   50.8529   28.8323   50.0179 H   0  0  0  0  0  0  0  0  0  0  0  0
   51.2105   29.9016   48.5747 H   0  0  0  0  0  0  0  0  0  0  0  0
   49.4406   30.4212   50.9338 H   0  0  0  0  0  0  0  0  0  0  0  0
   50.8794   31.3489   50.2843 H   0  0  0  0  0  0  0  0  0  0  0  0
   49.6147   32.0509   48.3748 H   0  0  0  0  0  0  0  0  0  0  0  0
   48.7439   32.5050   49.8573 H   0  0  0  0  0  0  0  0  0  0  0  0
  1  5  2  0
  1  2  1  0
  2  3  2  0
  4  3  1  0
  4 12  1  0
  5  4  1  0
  6 11  2  0
  7  6  1  0
  8  7  2  0
  8  9  1  0
  9 10  2  0
 10 11  1  0
 10  1  1  0
 12 17  1  0
 13 14  1  0
 13 12  1  0
 14 15  1  0
 15 16  1  0
 17 16  1  0
  2 18  1  0
  3 19  1  0
  6 20  1  0
  7 21  1  0
  8 22  1  0
 12 23  1  0
 13 24  1  0
 13 25  1  0
 14 26  1  0
 14 27  1  0
 15 28  1  0
 15 29  1  0
 16 30  1  0
 16 31  1  0
 17 32  1  0
 17 33  1  0
M  ISO  8  18  14  19  14  20  14  21  14  22  14  23  13  24  13  25  13
M  ISO  8  26  13  27  13  28  13  29  13  30  13  31  13  32  13  33  13
M  END
>  <minimizedAffinity>  (1) 
-5.34870911

>  <minimizedRMSD>  (1) 
1.40255833

$$$$
