
     RDKit          3D

 39 42  0  0  1  0  0  0  0  0999 V2000
   44.6490   35.7430   45.1030 C   0  0  0  0  0  0  0  0  0  0  0  0
   44.5900   36.2280   43.7770 C   0  0  0  0  0  0  0  0  0  0  0  0
   44.9570   35.3620   42.7580 C   0  0  0  0  0  0  0  0  0  0  0  0
   45.3430   34.1170   43.1170 N   0  0  0  0  0  0  0  0  0  0  0  0
   45.3950   33.6710   44.3760 C   0  0  0  0  0  0  0  0  0  0  0  0
   45.0450   34.4910   45.3770 N   0  0  0  0  0  0  0  0  0  0  0  0
   45.8220   32.3210   44.6390 N   0  0  0  0  0  0  0  0  0  0  0  0
   45.8650   31.8530   46.0340 C   0  0  0  0  0  0  0  0  0  0  0  0
   46.9410   30.8530   46.2850 C   0  0  0  0  0  0  0  0  0  0  0  0
   47.9920   30.9970   45.2070 C   0  0  0  0  0  0  0  0  0  0  0  0
   47.3450   30.5420   43.9270 C   0  0  0  0  0  0  0  0  0  0  0  0
   46.1950   31.4400   43.5750 C   0  0  2  0  0  0  0  0  0  0  0  0
   46.4520   32.0930   42.3260 N   0  0  0  0  0  0  0  0  0  0  0  0
   45.6780   31.9290   41.2120 C   0  0  0  0  0  0  0  0  0  0  0  0
   46.1700   32.6810   40.1840 N   0  0  0  0  0  0  0  0  0  0  0  0
   47.2680   33.3330   40.6410 C   0  0  0  0  0  0  0  0  0  0  0  0
   48.1700   34.2030   40.1190 C   0  0  0  0  0  0  0  0  0  0  0  0
   48.0010   34.5280   38.9080 O   0  0  0  0  0  0  0  0  0  0  0  0
   49.1740   34.6820   40.8510 N   0  0  0  0  0  0  0  0  0  0  0  0
   49.3500   34.3310   42.1430 C   0  0  0  0  0  0  0  0  0  0  0  0
   50.3960   34.8040   42.9740 N   0  0  0  0  0  0  0  0  0  0  0  0
   48.4640   33.4600   42.7020 N   0  0  0  0  0  0  0  0  0  0  0  0
   47.4440   32.9670   41.9750 C   0  0  0  0  0  0  0  0  0  0  0  0
   44.3632   36.4085   45.9309 H   0  0  0  0  0  0  0  0  0  0  0  0
   44.2644   37.2562   43.5608 H   0  0  0  0  0  0  0  0  0  0  0  0
   44.9350   35.6744   41.7035 H   0  0  0  0  0  0  0  0  0  0  0  0
   46.0344   32.7206   46.6887 H   0  0  0  0  0  0  0  0  0  0  0  0
   44.9046   31.3590   46.2427 H   0  0  0  0  0  0  0  0  0  0  0  0
   47.3936   31.0348   47.2710 H   0  0  0  0  0  0  0  0  0  0  0  0
   46.5215   29.8363   46.2685 H   0  0  0  0  0  0  0  0  0  0  0  0
   48.3095   32.0467   45.1217 H   0  0  0  0  0  0  0  0  0  0  0  0
   48.8873   30.4010   45.4377 H   0  0  0  0  0  0  0  0  0  0  0  0
   48.0875   30.5689   43.1159 H   0  0  0  0  0  0  0  0  0  0  0  0
   46.9695   29.5168   44.0613 H   0  0  0  0  0  0  0  0  0  0  0  0
   45.2973   30.8197   43.4357 H   0  0  0  0  0  0  0  0  0  0  0  0
   44.7882   31.2850   41.1521 H   0  0  0  0  0  0  0  0  0  0  0  0
   49.8370   35.3408   40.4182 H   0  0  0  0  0  0  0  0  0  0  0  0
   50.4604   34.4868   43.9518 H   0  0  0  0  0  0  0  0  0  0  0  0
   51.0919   35.4650   42.6001 H   0  0  0  0  0  0  0  0  0  0  0  0
  1  6  2  0
  2  1  1  0
  3  4  1  0
  3  2  2  0
  4  5  2  0
  5  7  1  0
  5  6  1  0
  7  8  1  0
  8  9  1  0
 10  9  1  0
 11 10  1  0
 12 11  1  0
 12  7  1  0
 13 12  1  0
 14 13  1  0
 15 16  1  0
 15 14  2  0
 16 23  2  0
 17 16  1  0
 17 19  1  0
 18 17  2  0
 19 20  1  0
 20 22  2  0
 20 21  1  0
 23 13  1  0
 23 22  1  0
  1 24  1  0
  2 25  1  0
  3 26  1  0
  8 27  1  0
  8 28  1  0
  9 29  1  0
  9 30  1  0
 10 31  1  0
 10 32  1  0
 11 33  1  0
 11 34  1  0
 12 35  1  6
 14 36  1  0
 19 37  1  0
 21 38  1  0
 21 39  1  0
M  ISO  8  24  14  25  14  26  14  27  13  28  13  29  13  30  13  31  13
M  ISO  6  32  13  33  13  34  13  35  13  36  14  37   9
M  END
>  <minimizedAffinity>  (1) 
-6.12940931

>  <minimizedRMSD>  (1) 
3.15137434

$$$$
