
     RDKit          3D

 22 24  0  0  0  0  0  0  0  0999 V2000
   46.0730   33.1250   46.6170 C   0  0  0  0  0  0  0  0  0  0  0  0
   45.1500   32.8520   47.6160 C   0  0  0  0  0  0  0  0  0  0  0  0
   45.7370   31.9690   48.5210 C   0  0  0  0  0  0  0  0  0  0  0  0
   47.0030   31.7420   48.0290 N   0  0  0  0  0  0  0  0  0  0  0  0
   47.1830   32.4210   46.9230 N   0  0  0  0  0  0  0  0  0  0  0  0
   48.0250   30.9140   48.5730 C   0  0  0  0  0  0  0  0  0  0  0  0
   48.3460   29.6300   48.3300 N   0  0  0  0  0  0  0  0  0  0  0  0
   49.3700   29.2750   49.0660 O   0  0  0  0  0  0  0  0  0  0  0  0
   49.7390   30.3070   49.8000 C   0  0  0  0  0  0  0  0  0  0  0  0
   48.9150   31.3240   49.5040 N   0  0  0  0  0  0  0  0  0  0  0  0
   44.4850   35.7940   44.6480 C   0  0  0  0  0  0  0  0  0  0  0  0
   45.1310   35.6620   43.4010 C   0  0  0  0  0  0  0  0  0  0  0  0
   46.0870   34.6650   43.2800 C   0  0  0  0  0  0  0  0  0  0  0  0
   46.3730   33.8530   44.3430 N   0  0  0  0  0  0  0  0  0  0  0  0
   45.7090   34.0350   45.5260 C   0  0  0  0  0  0  0  0  0  0  0  0
   44.7830   34.9810   45.6870 N   0  0  0  0  0  0  0  0  0  0  0  0
   44.1312   33.2614   47.6825 H   0  0  0  0  0  0  0  0  0  0  0  0
   45.2866   31.5454   49.4308 H   0  0  0  0  0  0  0  0  0  0  0  0
   50.5690   30.3298   50.5216 H   0  0  0  0  0  0  0  0  0  0  0  0
   43.7219   36.5755   44.7783 H   0  0  0  0  0  0  0  0  0  0  0  0
   44.8859   36.3241   42.5575 H   0  0  0  0  0  0  0  0  0  0  0  0
   46.6171   34.5266   42.3262 H   0  0  0  0  0  0  0  0  0  0  0  0
  1  5  2  0
  1  2  1  0
  2  3  2  0
  4  3  1  0
  4  6  1  0
  5  4  1  0
  6 10  1  0
  7  6  2  0
  7  8  1  0
  8  9  1  0
 10  9  2  0
 11 16  2  0
 12 11  1  0
 13 12  2  0
 13 14  1  0
 14 15  2  0
 15 16  1  0
 15  1  1  0
  2 17  1  0
  3 18  1  0
  9 19  1  0
 11 20  1  0
 12 21  1  0
 13 22  1  0
M  ISO  6  17  14  18  14  19  14  20  14  21  14  22  14
M  END
>  <minimizedAffinity>  (1) 
-5.21756601

>  <minimizedRMSD>  (1) 
1.48162019

$$$$
