
     RDKit          3D

 30 32  0  0  0  0  0  0  0  0999 V2000
   46.6750   33.6730   44.3300 C   0  0  0  0  0  0  0  0  0  0  0  0
   45.6210   34.3500   44.9080 C   0  0  0  0  0  0  0  0  0  0  0  0
   45.3360   33.7780   46.1310 C   0  0  0  0  0  0  0  0  0  0  0  0
   46.2290   32.7660   46.2630 N   0  0  0  0  0  0  0  0  0  0  0  0
   47.0210   32.7030   45.1970 N   0  0  0  0  0  0  0  0  0  0  0  0
   46.9500   34.3090   40.7300 C   0  0  0  0  0  0  0  0  0  0  0  0
   48.2720   34.8300   40.6270 C   0  0  0  0  0  0  0  0  0  0  0  0
   49.0210   34.9430   41.7860 C   0  0  0  0  0  0  0  0  0  0  0  0
   48.4550   34.5540   42.9490 N   0  0  0  0  0  0  0  0  0  0  0  0
   47.1980   34.0630   43.0210 C   0  0  0  0  0  0  0  0  0  0  0  0
   46.4280   33.9320   41.9230 N   0  0  0  0  0  0  0  0  0  0  0  0
   46.3780   31.8300   47.3680 C   0  0  0  0  0  0  0  0  0  0  0  0
   45.7990   32.4130   48.6510 C   0  0  0  0  0  0  0  0  0  0  0  0
   45.3130   31.2760   49.4850 C   0  0  0  0  0  0  0  0  0  0  0  0
   45.1500   30.1140   48.5610 C   0  0  0  0  0  0  0  0  0  0  0  0
   45.5310   30.6060   47.1730 C   0  0  0  0  0  0  0  0  0  0  0  0
   45.0930   35.2075   44.4653 H   0  0  0  0  0  0  0  0  0  0  0  0
   44.5540   34.0779   46.8442 H   0  0  0  0  0  0  0  0  0  0  0  0
   46.3389   34.2104   39.8207 H   0  0  0  0  0  0  0  0  0  0  0  0
   48.6859   35.1339   39.6542 H   0  0  0  0  0  0  0  0  0  0  0  0
   50.0473   35.3381   41.7604 H   0  0  0  0  0  0  0  0  0  0  0  0
   47.4554   31.6135   47.4162 H   0  0  0  0  0  0  0  0  0  0  0  0
   46.5765   32.9706   49.1937 H   0  0  0  0  0  0  0  0  0  0  0  0
   44.9744   33.1044   48.4230 H   0  0  0  0  0  0  0  0  0  0  0  0
   46.0471   31.0384   50.2690 H   0  0  0  0  0  0  0  0  0  0  0  0
   44.3647   31.5245   49.9839 H   0  0  0  0  0  0  0  0  0  0  0  0
   45.8118   29.2902   48.8667 H   0  0  0  0  0  0  0  0  0  0  0  0
   44.1174   29.7352   48.5781 H   0  0  0  0  0  0  0  0  0  0  0  0
   44.6274   30.8576   46.5984 H   0  0  0  0  0  0  0  0  0  0  0  0
   46.0767   29.8315   46.6141 H   0  0  0  0  0  0  0  0  0  0  0  0
  1  2  1  0
  1  5  2  0
  2  3  2  0
  3  4  1  0
  4 12  1  0
  5  4  1  0
  6 11  2  0
  7  6  1  0
  7  8  2  0
  8  9  1  0
  9 10  2  0
 10  1  1  0
 11 10  1  0
 12 13  1  0
 13 14  1  0
 15 14  1  0
 16 12  1  0
 16 15  1  0
  2 17  1  0
  3 18  1  0
  6 19  1  0
  7 20  1  0
  8 21  1  0
 12 22  1  0
 13 23  1  0
 13 24  1  0
 14 25  1  0
 14 26  1  0
 15 27  1  0
 15 28  1  0
 16 29  1  0
 16 30  1  0
M  ISO  8  17  14  18  14  19  14  20  14  21  14  22  13  23  13  24  13
M  ISO  6  25  13  26  13  27  13  28  13  29  13  30  13
M  END
>  <minimizedAffinity>  (1) 
-5.17852116

>  <minimizedRMSD>  (1) 
4.02127218

$$$$
