
     RDKit          3D

 41 44  0  0  1  0  0  0  0  0999 V2000
   44.5500   35.9100   44.8750 C   0  0  0  0  0  0  0  0  0  0  0  0
   45.1110   35.8220   43.5620 C   0  0  0  0  0  0  0  0  0  0  0  0
   45.8970   34.7010   43.2450 C   0  0  0  0  0  0  0  0  0  0  0  0
   46.0820   33.7590   44.2120 N   0  0  0  0  0  0  0  0  0  0  0  0
   45.5280   33.8860   45.4470 C   0  0  0  0  0  0  0  0  0  0  0  0
   44.7760   34.9400   45.7750 N   0  0  0  0  0  0  0  0  0  0  0  0
   45.7760   32.8560   46.4190 N   0  0  0  0  0  0  0  0  0  0  0  0
   45.1760   32.9810   47.7330 C   0  0  0  0  0  0  0  0  0  0  0  0
   45.9470   32.2760   48.8120 C   0  0  0  0  0  0  0  0  0  0  0  0
   47.3970   32.2240   48.3470 C   0  0  0  0  0  0  0  0  0  0  0  0
   47.3570   31.1710   47.2380 C   0  0  0  0  0  0  0  0  0  0  0  0
   46.6310   31.7280   46.0640 C   0  0  1  0  0  0  0  0  0  0  0  0
   45.8480   30.7100   45.3240 C   0  0  0  0  0  0  0  0  0  0  0  0
   45.5670   30.7710   43.9780 C   0  0  0  0  0  0  0  0  0  0  0  0
   44.8450   29.8190   43.2920 C   0  0  0  0  0  0  0  0  0  0  0  0
   44.3590   28.7310   43.9420 C   0  0  0  0  0  0  0  0  0  0  0  0
   44.5980   28.6030   45.2810 C   0  0  0  0  0  0  0  0  0  0  0  0
   44.0950   27.4930   45.9250 C   0  0  0  0  0  0  0  0  0  0  0  0
   44.3030   27.3150   47.2750 C   0  0  0  0  0  0  0  0  0  0  0  0
   45.0250   28.2690   47.9630 C   0  0  0  0  0  0  0  0  0  0  0  0
   45.5130   29.3660   47.2770 C   0  0  0  0  0  0  0  0  0  0  0  0
   45.3260   29.5730   45.9500 C   0  0  0  0  0  0  0  0  0  0  0  0
   43.9304   36.7768   45.1485 H   0  0  0  0  0  0  0  0  0  0  0  0
   44.9315   36.6126   42.8185 H   0  0  0  0  0  0  0  0  0  0  0  0
   46.3484   34.5877   42.2483 H   0  0  0  0  0  0  0  0  0  0  0  0
   45.1164   34.0492   47.9886 H   0  0  0  0  0  0  0  0  0  0  0  0
   44.1838   32.5088   47.6824 H   0  0  0  0  0  0  0  0  0  0  0  0
   45.8714   32.8323   49.7579 H   0  0  0  0  0  0  0  0  0  0  0  0
   45.5500   31.2653   48.9878 H   0  0  0  0  0  0  0  0  0  0  0  0
   47.7235   33.1991   47.9565 H   0  0  0  0  0  0  0  0  0  0  0  0
   48.1055   31.9823   49.1530 H   0  0  0  0  0  0  0  0  0  0  0  0
   48.3834   30.9058   46.9446 H   0  0  0  0  0  0  0  0  0  0  0  0
   46.8400   30.2703   47.6005 H   0  0  0  0  0  0  0  0  0  0  0  0
   47.4218   32.0916   45.3914 H   0  0  0  0  0  0  0  0  0  0  0  0
   45.9435   31.6365   43.4130 H   0  0  0  0  0  0  0  0  0  0  0  0
   44.6618   29.9410   42.2142 H   0  0  0  0  0  0  0  0  0  0  0  0
   43.7831   27.9661   43.4004 H   0  0  0  0  0  0  0  0  0  0  0  0
   43.5235   26.7441   45.3570 H   0  0  0  0  0  0  0  0  0  0  0  0
   43.9023   26.4315   47.7935 H   0  0  0  0  0  0  0  0  0  0  0  0
   45.2096   28.1583   49.0417 H   0  0  0  0  0  0  0  0  0  0  0  0
   46.0872   30.1155   47.8415 H   0  0  0  0  0  0  0  0  0  0  0  0
  1  6  2  0
  2  1  1  0
  3  2  2  0
  3  4  1  0
  4  5  2  0
  5  6  1  0
  5  7  1  0
  7  8  1  0
  8  9  1  0
 10  9  1  0
 11 10  1  0
 12  7  1  0
 12 11  1  0
 13 22  1  0
 13 12  1  0
 14 13  2  0
 15 16  2  0
 15 14  1  0
 16 17  1  0
 17 18  1  0
 17 22  2  0
 18 19  2  0
 19 20  1  0
 21 20  2  0
 22 21  1  0
  1 23  1  0
  2 24  1  0
  3 25  1  0
  8 26  1  0
  8 27  1  0
  9 28  1  0
  9 29  1  0
 10 30  1  0
 10 31  1  0
 11 32  1  0
 11 33  1  0
 12 34  1  6
 14 35  1  0
 15 36  1  0
 16 37  1  0
 18 38  1  0
 19 39  1  0
 20 40  1  0
 21 41  1  0
M  ISO  8  23  14  24  14  25  14  26  13  27  13  28  13  29  13  30  13
M  ISO  8  31  13  32  13  33  13  34  13  35  14  36  14  37  14  38  14
M  ISO  3  39  14  40  14  41  14
M  END
>  <minimizedAffinity>  (1) 
-6.10787296

>  <minimizedRMSD>  (1) 
1.17360163

$$$$
