
     RDKit          3D

 24 26  0  0  0  0  0  0  0  0999 V2000
   46.0600   33.1160   46.5930 C   0  0  0  0  0  0  0  0  0  0  0  0
   45.1900   32.8770   47.6230 C   0  0  0  0  0  0  0  0  0  0  0  0
   45.7630   31.9900   48.5130 C   0  0  0  0  0  0  0  0  0  0  0  0
   46.9830   31.7090   47.9890 N   0  0  0  0  0  0  0  0  0  0  0  0
   47.1690   32.3720   46.8510 N   0  0  0  0  0  0  0  0  0  0  0  0
   44.4790   35.8060   44.6600 C   0  0  0  0  0  0  0  0  0  0  0  0
   45.1340   35.6760   43.3990 C   0  0  0  0  0  0  0  0  0  0  0  0
   46.0910   34.6730   43.2590 C   0  0  0  0  0  0  0  0  0  0  0  0
   46.3470   33.8800   44.3180 N   0  0  0  0  0  0  0  0  0  0  0  0
   45.7170   34.0190   45.5020 C   0  0  0  0  0  0  0  0  0  0  0  0
   44.7840   34.9720   45.6890 N   0  0  0  0  0  0  0  0  0  0  0  0
   47.9920   30.8530   48.4940 C   0  0  0  0  0  0  0  0  0  0  0  0
   48.7910   30.9720   49.5600 C   0  0  0  0  0  0  0  0  0  0  0  0
   49.7190   30.0180   49.8840 C   0  0  0  0  0  0  0  0  0  0  0  0
   49.7230   28.8810   48.9380 C   0  0  0  0  0  0  0  0  0  0  0  0
   48.4240   29.3170   47.7330 S   0  0  0  0  0  0  0  0  0  0  0  0
   44.1895   33.3226   47.7257 H   0  0  0  0  0  0  0  0  0  0  0  0
   45.3262   31.5972   49.4430 H   0  0  0  0  0  0  0  0  0  0  0  0
   43.7195   36.5892   44.8008 H   0  0  0  0  0  0  0  0  0  0  0  0
   44.8907   36.3475   42.5624 H   0  0  0  0  0  0  0  0  0  0  0  0
   46.6244   34.5320   42.3074 H   0  0  0  0  0  0  0  0  0  0  0  0
   48.7000   31.8643   50.1968 H   0  0  0  0  0  0  0  0  0  0  0  0
   50.3888   30.0897   50.7536 H   0  0  0  0  0  0  0  0  0  0  0  0
   50.3592   27.9839   48.9565 H   0  0  0  0  0  0  0  0  0  0  0  0
  1  5  2  0
  1  2  1  0
  2  3  2  0
  4 12  1  0
  4  3  1  0
  5  4  1  0
  6 11  2  0
  7  6  1  0
  8  7  2  0
  8  9  1  0
  9 10  2  0
 10 11  1  0
 10  1  1  0
 12 13  2  0
 13 14  1  0
 15 14  2  0
 16 12  1  0
 16 15  1  0
  2 17  1  0
  3 18  1  0
  6 19  1  0
  7 20  1  0
  8 21  1  0
 13 22  1  0
 14 23  1  0
 15 24  1  0
M  ISO  8  17  14  18  14  19  14  20  14  21  14  22  14  23  14  24  14
M  END
>  <minimizedAffinity>  (1) 
-5.05024385

>  <minimizedRMSD>  (1) 
1.75827801

$$$$
