
     RDKit          3D

 39 42  0  0  1  0  0  0  0  0999 V2000
   44.5870   36.0820   44.6590 C   0  0  0  0  0  0  0  0  0  0  0  0
   45.2280   36.0760   43.3860 C   0  0  0  0  0  0  0  0  0  0  0  0
   46.0530   34.9980   43.0760 C   0  0  0  0  0  0  0  0  0  0  0  0
   46.1950   34.0210   44.0030 N   0  0  0  0  0  0  0  0  0  0  0  0
   45.5700   34.0560   45.2070 C   0  0  0  0  0  0  0  0  0  0  0  0
   44.7710   35.0720   45.5400 N   0  0  0  0  0  0  0  0  0  0  0  0
   45.7750   32.9700   46.1390 N   0  0  0  0  0  0  0  0  0  0  0  0
   45.1110   33.0040   47.4310 C   0  0  0  0  0  0  0  0  0  0  0  0
   45.8860   32.3390   48.5190 C   0  0  0  0  0  0  0  0  0  0  0  0
   47.3450   32.2920   48.1070 C   0  0  0  0  0  0  0  0  0  0  0  0
   47.4140   31.3250   46.9530 C   0  0  0  0  0  0  0  0  0  0  0  0
   46.6400   31.8570   45.7790 C   0  0  1  0  0  0  0  0  0  0  0  0
   45.7330   30.8130   45.2400 C   0  0  0  0  0  0  0  0  0  0  0  0
   45.2450   30.9180   43.9800 N   0  0  0  0  0  0  0  0  0  0  0  0
   44.4280   30.0090   43.4380 C   0  0  0  0  0  0  0  0  0  0  0  0
   44.0360   28.9160   44.1260 N   0  0  0  0  0  0  0  0  0  0  0  0
   44.4790   28.7310   45.4010 C   0  0  0  0  0  0  0  0  0  0  0  0
   44.1130   27.6310   46.1600 C   0  0  0  0  0  0  0  0  0  0  0  0
   44.5760   27.4730   47.4450 C   0  0  0  0  0  0  0  0  0  0  0  0
   45.4190   28.4270   47.9800 C   0  0  0  0  0  0  0  0  0  0  0  0
   45.7660   29.5090   47.2030 C   0  0  0  0  0  0  0  0  0  0  0  0
   45.3190   29.6970   45.9120 C   0  0  0  0  0  0  0  0  0  0  0  0
   43.9312   36.9226   44.9298 H   0  0  0  0  0  0  0  0  0  0  0  0
   45.0757   36.8976   42.6706 H   0  0  0  0  0  0  0  0  0  0  0  0
   46.5732   34.9417   42.1084 H   0  0  0  0  0  0  0  0  0  0  0  0
   44.9498   34.0553   47.7115 H   0  0  0  0  0  0  0  0  0  0  0  0
   44.1667   32.4502   47.3229 H   0  0  0  0  0  0  0  0  0  0  0  0
   45.7818   32.9113   49.4526 H   0  0  0  0  0  0  0  0  0  0  0  0
   45.5069   31.3198   48.6847 H   0  0  0  0  0  0  0  0  0  0  0  0
   47.6866   33.2891   47.7923 H   0  0  0  0  0  0  0  0  0  0  0  0
   47.9911   31.9763   48.9394 H   0  0  0  0  0  0  0  0  0  0  0  0
   48.4649   31.1834   46.6606 H   0  0  0  0  0  0  0  0  0  0  0  0
   46.9767   30.3649   47.2643 H   0  0  0  0  0  0  0  0  0  0  0  0
   47.3980   32.1776   45.0492 H   0  0  0  0  0  0  0  0  0  0  0  0
   44.0675   30.1551   42.4091 H   0  0  0  0  0  0  0  0  0  0  0  0
   43.4425   26.8733   45.7283 H   0  0  0  0  0  0  0  0  0  0  0  0
   44.2784   26.5969   48.0399 H   0  0  0  0  0  0  0  0  0  0  0  0
   45.8049   28.3245   49.0050 H   0  0  0  0  0  0  0  0  0  0  0  0
   46.4370   30.2656   47.6358 H   0  0  0  0  0  0  0  0  0  0  0  0
  1  6  2  0
  2  1  1  0
  3  2  2  0
  3  4  1  0
  4  5  2  0
  5  6  1  0
  5  7  1  0
  7  8  1  0
  8  9  1  0
 10  9  1  0
 11 10  1  0
 12  7  1  0
 12 11  1  0
 13 12  1  0
 13 22  1  0
 14 13  2  0
 15 14  1  0
 15 16  2  0
 16 17  1  0
 17 22  2  0
 17 18  1  0
 18 19  2  0
 19 20  1  0
 21 20  2  0
 22 21  1  0
  1 23  1  0
  2 24  1  0
  3 25  1  0
  8 26  1  0
  8 27  1  0
  9 28  1  0
  9 29  1  0
 10 30  1  0
 10 31  1  0
 11 32  1  0
 11 33  1  0
 12 34  1  6
 15 35  1  0
 18 36  1  0
 19 37  1  0
 20 38  1  0
 21 39  1  0
M  ISO  8  23  14  24  14  25  14  26  13  27  13  28  13  29  13  30  13
M  ISO  8  31  13  32  13  33  13  34  13  35  14  36  14  37  14  38  14
M  ISO  1  39  14
M  END
>  <minimizedAffinity>  (1) 
-5.99420071

>  <minimizedRMSD>  (1) 
0.36901015

$$$$
