
     RDKit          3D

 23 24  0  0  0  0  0  0  0  0999 V2000
   46.1600   32.8800   46.9810 C   0  0  0  0  0  0  0  0  0  0  0  0
   45.1920   32.6250   47.9140 C   0  0  0  0  0  0  0  0  0  0  0  0
   45.7590   31.8020   48.8910 C   0  0  0  0  0  0  0  0  0  0  0  0
   47.0450   31.5890   48.5140 N   0  0  0  0  0  0  0  0  0  0  0  0
   47.2700   32.2270   47.3910 N   0  0  0  0  0  0  0  0  0  0  0  0
   44.6750   35.4160   44.7690 C   0  0  0  0  0  0  0  0  0  0  0  0
   45.4210   35.2440   43.5820 C   0  0  0  0  0  0  0  0  0  0  0  0
   46.4070   34.2680   43.5780 C   0  0  0  0  0  0  0  0  0  0  0  0
   46.6160   33.5250   44.6960 N   0  0  0  0  0  0  0  0  0  0  0  0
   45.8730   33.7210   45.8220 C   0  0  0  0  0  0  0  0  0  0  0  0
   44.9070   34.6560   45.8700 N   0  0  0  0  0  0  0  0  0  0  0  0
   48.0700   30.8210   49.1530 C   0  0  0  0  0  0  0  0  0  0  0  0
   49.3600   31.5920   49.3230 C   0  0  0  0  0  0  0  0  0  0  0  0
   44.1577   32.9990   47.8980 H   0  0  0  0  0  0  0  0  0  0  0  0
   45.2612   31.4054   49.7882 H   0  0  0  0  0  0  0  0  0  0  0  0
   43.8877   36.1835   44.8022 H   0  0  0  0  0  0  0  0  0  0  0  0
   45.2272   35.8617   42.6927 H   0  0  0  0  0  0  0  0  0  0  0  0
   47.0145   34.0972   42.6770 H   0  0  0  0  0  0  0  0  0  0  0  0
   47.7110   30.5132   50.1462 H   0  0  0  0  0  0  0  0  0  0  0  0
   48.2842   29.9546   48.5100 H   0  0  0  0  0  0  0  0  0  0  0  0
   49.5727   31.7191   50.3947 H   0  0  0  0  0  0  0  0  0  0  0  0
   50.1835   31.0379   48.8490 H   0  0  0  0  0  0  0  0  0  0  0  0
   49.2620   32.5798   48.8490 H   0  0  0  0  0  0  0  0  0  0  0  0
  1  5  2  0
  1  2  1  0
  2  3  2  0
  4  3  1  0
  4 12  1  0
  5  4  1  0
  6 11  2  0
  7  6  1  0
  8  7  2  0
  8  9  1  0
  9 10  2  0
 10 11  1  0
 10  1  1  0
 12 13  1  0
  2 14  1  0
  3 15  1  0
  6 16  1  0
  7 17  1  0
  8 18  1  0
 12 19  1  0
 12 20  1  0
 13 21  1  0
 13 22  1  0
 13 23  1  0
M  ISO  8  14  14  15  14  16  14  17  14  18  14  19   8  20   8  21   8
M  ISO  2  22   8  23   8
M  END
>  <minimizedAffinity>  (1) 
-4.48672152

>  <minimizedRMSD>  (1) 
0.72006923

$$$$
