
     RDKit          3D

 24 26  0  0  0  0  0  0  0  0999 V2000
   45.9970   33.1290   46.6150 C   0  0  0  0  0  0  0  0  0  0  0  0
   45.1130   32.9360   47.6510 C   0  0  0  0  0  0  0  0  0  0  0  0
   45.6470   32.0370   48.5530 C   0  0  0  0  0  0  0  0  0  0  0  0
   46.8570   31.7020   48.0380 N   0  0  0  0  0  0  0  0  0  0  0  0
   47.0720   32.3430   46.8920 N   0  0  0  0  0  0  0  0  0  0  0  0
   49.1640   29.0870   48.9070 N   0  0  0  0  0  0  0  0  0  0  0  0
   48.0760   29.5110   48.2650 N   0  0  0  0  0  0  0  0  0  0  0  0
   47.8800   30.8200   48.5010 C   0  0  0  0  0  0  0  0  0  0  0  0
   48.9020   31.2610   49.3450 C   0  0  0  0  0  0  0  0  0  0  0  0
   49.6850   30.1480   49.5760 C   0  0  0  0  0  0  0  0  0  0  0  0
   44.5150   35.8100   44.6050 C   0  0  0  0  0  0  0  0  0  0  0  0
   45.2010   35.6640   43.3740 C   0  0  0  0  0  0  0  0  0  0  0  0
   46.1450   34.6550   43.2740 C   0  0  0  0  0  0  0  0  0  0  0  0
   46.3620   33.8680   44.3480 N   0  0  0  0  0  0  0  0  0  0  0  0
   45.6870   34.0330   45.5180 C   0  0  0  0  0  0  0  0  0  0  0  0
   44.7660   34.9920   45.6650 N   0  0  0  0  0  0  0  0  0  0  0  0
   44.1313   33.4230   47.7464 H   0  0  0  0  0  0  0  0  0  0  0  0
   45.1912   31.6722   49.4853 H   0  0  0  0  0  0  0  0  0  0  0  0
   49.5414   28.1287   48.8976 H   0  0  0  0  0  0  0  0  0  0  0  0
   49.0508   32.2766   49.7404 H   0  0  0  0  0  0  0  0  0  0  0  0
   50.5885   30.1241   50.2030 H   0  0  0  0  0  0  0  0  0  0  0  0
   43.7606   36.6040   44.7074 H   0  0  0  0  0  0  0  0  0  0  0  0
   44.9907   36.3306   42.5246 H   0  0  0  0  0  0  0  0  0  0  0  0
   46.7049   34.4991   42.3401 H   0  0  0  0  0  0  0  0  0  0  0  0
  1  5  2  0
  1  2  1  0
  2  3  2  0
  4  8  1  0
  4  3  1  0
  5  4  1  0
  6 10  1  0
  7  8  2  0
  7  6  1  0
  8  9  1  0
  9 10  2  0
 11 16  2  0
 12 11  1  0
 13 12  2  0
 13 14  1  0
 14 15  2  0
 15 16  1  0
 15  1  1  0
  2 17  1  0
  3 18  1  0
  6 19  1  0
  9 20  1  0
 10 21  1  0
 11 22  1  0
 12 23  1  0
 13 24  1  0
M  ISO  8  17  14  18  14  19   9  20  14  21  14  22  14  23  14  24  14
M  END
>  <minimizedAffinity>  (1) 
-5.41934061

>  <minimizedRMSD>  (1) 
1.53337049

$$$$
