
     RDKit          3D

 38 42  0  0  0  0  0  0  0  0999 V2000
   44.4790   35.9360   44.2830 C   0  0  0  0  0  0  0  0  0  0  0  0
   45.2920   35.8970   43.1350 C   0  0  0  0  0  0  0  0  0  0  0  0
   46.3250   34.9790   43.1150 C   0  0  0  0  0  0  0  0  0  0  0  0
   46.5160   34.1620   44.1780 N   0  0  0  0  0  0  0  0  0  0  0  0
   45.7010   34.2340   45.2720 C   0  0  0  0  0  0  0  0  0  0  0  0
   44.6980   35.1020   45.3300 N   0  0  0  0  0  0  0  0  0  0  0  0
   45.9740   33.3260   46.3670 C   0  0  0  0  0  0  0  0  0  0  0  0
   45.0790   33.1760   47.4100 C   0  0  0  0  0  0  0  0  0  0  0  0
   45.5740   32.2620   48.3100 C   0  0  0  0  0  0  0  0  0  0  0  0
   46.7600   31.8640   47.8080 N   0  0  0  0  0  0  0  0  0  0  0  0
   47.0030   32.4910   46.6570 N   0  0  0  0  0  0  0  0  0  0  0  0
   48.9530   29.1530   48.6710 N   0  0  0  0  0  0  0  0  0  0  0  0
   47.8940   29.6350   48.0410 N   0  0  0  0  0  0  0  0  0  0  0  0
   47.7390   30.9450   48.2690 C   0  0  0  0  0  0  0  0  0  0  0  0
   48.7760   31.3220   49.1060 C   0  0  0  0  0  0  0  0  0  0  0  0
   49.5110   30.1850   49.3370 C   0  0  0  0  0  0  0  0  0  0  0  0
   47.1980   34.8990   41.9490 C   0  0  0  0  0  0  0  0  0  0  0  0
   48.4630   35.4260   41.8400 C   0  0  0  0  0  0  0  0  0  0  0  0
   48.9860   35.1680   40.6250 N   0  0  0  0  0  0  0  0  0  0  0  0
   48.0440   34.4720   39.9610 C   0  0  0  0  0  0  0  0  0  0  0  0
   48.0490   33.9520   38.6770 C   0  0  0  0  0  0  0  0  0  0  0  0
   46.9420   33.2580   38.2030 C   0  0  0  0  0  0  0  0  0  0  0  0
   45.7980   33.0560   38.9760 C   0  0  0  0  0  0  0  0  0  0  0  0
   45.8450   33.5940   40.2450 C   0  0  0  0  0  0  0  0  0  0  0  0
   46.9070   34.2800   40.7530 C   0  0  0  0  0  0  0  0  0  0  0  0
   43.6497   36.6570   44.3322 H   0  0  0  0  0  0  0  0  0  0  0  0
   45.1120   36.5720   42.2853 H   0  0  0  0  0  0  0  0  0  0  0  0
   44.1197   33.7057   47.5051 H   0  0  0  0  0  0  0  0  0  0  0  0
   45.1010   31.9258   49.2445 H   0  0  0  0  0  0  0  0  0  0  0  0
   49.2867   28.1787   48.6559 H   0  0  0  0  0  0  0  0  0  0  0  0
   48.9714   32.3283   49.5050 H   0  0  0  0  0  0  0  0  0  0  0  0
   50.4118   30.1253   49.9654 H   0  0  0  0  0  0  0  0  0  0  0  0
   48.9784   35.9828   42.6365 H   0  0  0  0  0  0  0  0  0  0  0  0
   49.9145   35.4459   40.2764 H   0  0  0  0  0  0  0  0  0  0  0  0
   48.9297   34.0884   38.0322 H   0  0  0  0  0  0  0  0  0  0  0  0
   46.9687   32.8530   37.1806 H   0  0  0  0  0  0  0  0  0  0  0  0
   44.9218   32.5072   38.6003 H   0  0  0  0  0  0  0  0  0  0  0  0
   44.9650   33.4601   40.8912 H   0  0  0  0  0  0  0  0  0  0  0  0
  1  6  2  0
  2  1  1  0
  3  2  2  0
  3  4  1  0
  4  5  2  0
  5  6  1  0
  5  7  1  0
  7 11  2  0
  7  8  1  0
  8  9  2  0
 10 14  1  0
 10  9  1  0
 11 10  1  0
 12 16  1  0
 13 14  2  0
 13 12  1  0
 14 15  1  0
 15 16  2  0
 17  3  1  0
 18 17  2  0
 19 18  1  0
 20 19  1  0
 20 25  2  0
 21 20  1  0
 22 21  2  0
 22 23  1  0
 23 24  2  0
 24 25  1  0
 25 17  1  0
  1 26  1  0
  2 27  1  0
  8 28  1  0
  9 29  1  0
 12 30  1  0
 15 31  1  0
 16 32  1  0
 18 33  1  0
 19 34  1  0
 21 35  1  0
 22 36  1  0
 23 37  1  0
 24 38  1  0
M  ISO  8  26  14  27  14  28  14  29  14  30   9  31  14  32  14  33  14
M  ISO  5  34   9  35  14  36  14  37  14  38  14
M  END
>  <minimizedAffinity>  (1) 
-7.97942066

>  <minimizedRMSD>  (1) 
0.589988649

$$$$
