
     RDKit          3D

 39 42  0  0  1  0  0  0  0  0999 V2000
   44.5440   35.8340   44.8940 C   0  0  0  0  0  0  0  0  0  0  0  0
   45.1270   35.7710   43.6040 C   0  0  0  0  0  0  0  0  0  0  0  0
   45.9430   34.6860   43.3070 C   0  0  0  0  0  0  0  0  0  0  0  0
   46.1370   33.7400   44.2740 N   0  0  0  0  0  0  0  0  0  0  0  0
   45.5690   33.8370   45.4850 C   0  0  0  0  0  0  0  0  0  0  0  0
   44.7790   34.8680   45.8010 N   0  0  0  0  0  0  0  0  0  0  0  0
   45.8170   32.8050   46.4580 N   0  0  0  0  0  0  0  0  0  0  0  0
   45.1770   32.8840   47.7810 C   0  0  0  0  0  0  0  0  0  0  0  0
   46.0340   32.3110   48.8760 C   0  0  0  0  0  0  0  0  0  0  0  0
   47.4640   32.2240   48.3960 C   0  0  0  0  0  0  0  0  0  0  0  0
   47.4430   31.1720   47.3060 C   0  0  0  0  0  0  0  0  0  0  0  0
   46.6930   31.7000   46.1290 C   0  0  1  0  0  0  0  0  0  0  0  0
   45.9590   30.6090   45.3980 C   0  0  0  0  0  0  0  0  0  0  0  0
   45.6840   30.4430   44.0470 C   0  0  0  0  0  0  0  0  0  0  0  0
   45.0030   29.3220   43.8530 N   0  0  0  0  0  0  0  0  0  0  0  0
   44.7840   28.6890   45.0200 C   0  0  0  0  0  0  0  0  0  0  0  0
   44.1590   27.5210   45.4680 C   0  0  0  0  0  0  0  0  0  0  0  0
   44.1360   27.1810   46.8080 C   0  0  0  0  0  0  0  0  0  0  0  0
   44.7290   27.9830   47.7510 C   0  0  0  0  0  0  0  0  0  0  0  0
   45.3610   29.1540   47.3500 C   0  0  0  0  0  0  0  0  0  0  0  0
   45.3780   29.4840   45.9910 C   0  0  0  0  0  0  0  0  0  0  0  0
   43.8929   36.6808   45.1566 H   0  0  0  0  0  0  0  0  0  0  0  0
   44.9391   36.5583   42.8591 H   0  0  0  0  0  0  0  0  0  0  0  0
   46.4198   34.5912   42.3203 H   0  0  0  0  0  0  0  0  0  0  0  0
   44.9726   33.9402   48.0105 H   0  0  0  0  0  0  0  0  0  0  0  0
   44.2519   32.2903   47.7383 H   0  0  0  0  0  0  0  0  0  0  0  0
   45.9824   32.9614   49.7616 H   0  0  0  0  0  0  0  0  0  0  0  0
   45.6719   31.3065   49.1403 H   0  0  0  0  0  0  0  0  0  0  0  0
   47.7973   33.1921   47.9938 H   0  0  0  0  0  0  0  0  0  0  0  0
   48.1597   31.9665   49.2082 H   0  0  0  0  0  0  0  0  0  0  0  0
   48.4739   30.9309   47.0074 H   0  0  0  0  0  0  0  0  0  0  0  0
   46.9509   30.2621   47.6800 H   0  0  0  0  0  0  0  0  0  0  0  0
   47.4533   32.1069   45.4461 H   0  0  0  0  0  0  0  0  0  0  0  0
   45.9873   31.1407   43.2525 H   0  0  0  0  0  0  0  0  0  0  0  0
   44.6850   28.9821   42.9342 H   0  0  0  0  0  0  0  0  0  0  0  0
   43.6742   26.8571   44.7371 H   0  0  0  0  0  0  0  0  0  0  0  0
   43.6349   26.2538   47.1231 H   0  0  0  0  0  0  0  0  0  0  0  0
   44.7042   27.7015   48.8141 H   0  0  0  0  0  0  0  0  0  0  0  0
   45.8406   29.8113   48.0902 H   0  0  0  0  0  0  0  0  0  0  0  0
  1  6  2  0
  2  1  1  0
  3  2  2  0
  3  4  1  0
  4  5  2  0
  5  6  1  0
  5  7  1  0
  7  8  1  0
  8  9  1  0
 10  9  1  0
 11 10  1  0
 12  7  1  0
 12 11  1  0
 13 21  1  0
 13 12  1  0
 14 13  2  0
 15 14  1  0
 15 16  1  0
 16 17  2  0
 16 21  1  0
 17 18  1  0
 18 19  2  0
 20 19  1  0
 21 20  2  0
  1 22  1  0
  2 23  1  0
  3 24  1  0
  8 25  1  0
  8 26  1  0
  9 27  1  0
  9 28  1  0
 10 29  1  0
 10 30  1  0
 11 31  1  0
 11 32  1  0
 12 33  1  6
 14 34  1  0
 15 35  1  0
 17 36  1  0
 18 37  1  0
 19 38  1  0
 20 39  1  0
M  ISO  8  22  14  23  14  24  14  25  13  26  13  27  13  28  13  29  13
M  ISO  8  30  13  31  13  32  13  33  13  34  14  35   9  36  14  37  14
M  ISO  2  38  14  39  14
M  END
>  <minimizedAffinity>  (1) 
-5.92449188

>  <minimizedRMSD>  (1) 
0.93720758

$$$$
