
     RDKit          3D

 39 42  0  0  0  0  0  0  0  0999 V2000
   46.1880   32.9150   46.7890 C   0  0  0  0  0  0  0  0  0  0  0  0
   45.2690   32.7030   47.7880 C   0  0  0  0  0  0  0  0  0  0  0  0
   45.7960   31.8300   48.7210 C   0  0  0  0  0  0  0  0  0  0  0  0
   47.0300   31.5310   48.2630 N   0  0  0  0  0  0  0  0  0  0  0  0
   47.2800   32.1660   47.1180 N   0  0  0  0  0  0  0  0  0  0  0  0
   49.3830   28.9990   49.2420 N   0  0  0  0  0  0  0  0  0  0  0  0
   48.3060   29.3800   48.5540 N   0  0  0  0  0  0  0  0  0  0  0  0
   48.0590   30.6930   48.7740 C   0  0  0  0  0  0  0  0  0  0  0  0
   49.0350   31.1880   49.6560 C   0  0  0  0  0  0  0  0  0  0  0  0
   49.8440   30.0890   49.9230 C   0  0  0  0  0  0  0  0  0  0  0  0
   44.6230   35.4710   44.6750 C   0  0  0  0  0  0  0  0  0  0  0  0
   45.4180   35.4050   43.5100 C   0  0  0  0  0  0  0  0  0  0  0  0
   46.4500   34.4980   43.4920 C   0  0  0  0  0  0  0  0  0  0  0  0
   46.6670   33.7130   44.5690 N   0  0  0  0  0  0  0  0  0  0  0  0
   45.8830   33.8000   45.6750 C   0  0  0  0  0  0  0  0  0  0  0  0
   44.8760   34.6620   45.7390 N   0  0  0  0  0  0  0  0  0  0  0  0
   47.2660   34.4120   42.3310 N   0  0  0  0  0  0  0  0  0  0  0  0
   46.6770   34.1550   41.0530 C   0  0  0  0  0  0  0  0  0  0  0  0
   47.6110   34.3070   39.9020 C   0  0  0  0  0  0  0  0  0  0  0  0
   48.6790   35.3300   40.0480 C   0  0  0  0  0  0  0  0  0  0  0  0
   48.9960   35.7540   41.4430 C   0  0  0  0  0  0  0  0  0  0  0  0
   48.7020   34.5720   42.3610 C   0  0  0  0  0  0  0  0  0  0  0  0
   44.2686   33.1577   47.8376 H   0  0  0  0  0  0  0  0  0  0  0  0
   45.3143   31.4593   49.6378 H   0  0  0  0  0  0  0  0  0  0  0  0
   49.7927   28.0541   49.2570 H   0  0  0  0  0  0  0  0  0  0  0  0
   49.1359   32.2115   50.0461 H   0  0  0  0  0  0  0  0  0  0  0  0
   50.7234   30.0966   50.5837 H   0  0  0  0  0  0  0  0  0  0  0  0
   43.7883   36.1858   44.7229 H   0  0  0  0  0  0  0  0  0  0  0  0
   45.2181   36.0570   42.6469 H   0  0  0  0  0  0  0  0  0  0  0  0
   46.2947   33.1236   41.0517 H   0  0  0  0  0  0  0  0  0  0  0  0
   45.8854   34.9064   40.9158 H   0  0  0  0  0  0  0  0  0  0  0  0
   47.0124   34.5720   39.0180 H   0  0  0  0  0  0  0  0  0  0  0  0
   48.1374   33.3443   39.8239 H   0  0  0  0  0  0  0  0  0  0  0  0
   49.5986   34.9214   39.6038 H   0  0  0  0  0  0  0  0  0  0  0  0
   48.2961   36.2305   39.5455 H   0  0  0  0  0  0  0  0  0  0  0  0
   50.0574   36.0329   41.5185 H   0  0  0  0  0  0  0  0  0  0  0  0
   48.3900   36.6262   41.7293 H   0  0  0  0  0  0  0  0  0  0  0  0
   49.0444   34.7848   43.3845 H   0  0  0  0  0  0  0  0  0  0  0  0
   49.2226   33.6599   42.0337 H   0  0  0  0  0  0  0  0  0  0  0  0
  1  5  2  0
  1  2  1  0
  2  3  2  0
  4  3  1  0
  4  8  1  0
  5  4  1  0
  6 10  1  0
  7  8  2  0
  7  6  1  0
  8  9  1  0
  9 10  2  0
 11 16  2  0
 12 11  1  0
 13 12  2  0
 13 14  1  0
 14 15  2  0
 15 16  1  0
 15  1  1  0
 17 22  1  0
 17 13  1  0
 18 17  1  0
 19 20  1  0
 19 18  1  0
 20 21  1  0
 21 22  1  0
  2 23  1  0
  3 24  1  0
  6 25  1  0
  9 26  1  0
 10 27  1  0
 11 28  1  0
 12 29  1  0
 18 30  1  0
 18 31  1  0
 19 32  1  0
 19 33  1  0
 20 34  1  0
 20 35  1  0
 21 36  1  0
 21 37  1  0
 22 38  1  0
 22 39  1  0
M  ISO  8  23  14  24  14  25   9  26  14  27  14  28  14  29  14  30  13
M  ISO  8  31  13  32  13  33  13  34  13  35  13  36  13  37  13  38  13
M  ISO  1  39  13
M  END
>  <minimizedAffinity>  (1) 
-7.09983492

>  <minimizedRMSD>  (1) 
0.549695611

$$$$
