
     RDKit          3D

 31 34  0  0  0  0  0  0  0  0999 V2000
   45.9250   33.1860   46.5650 C   0  0  0  0  0  0  0  0  0  0  0  0
   45.0460   32.9660   47.6050 C   0  0  0  0  0  0  0  0  0  0  0  0
   45.5710   32.0140   48.4570 C   0  0  0  0  0  0  0  0  0  0  0  0
   46.7720   31.6770   47.9030 N   0  0  0  0  0  0  0  0  0  0  0  0
   46.9960   32.3660   46.7780 N   0  0  0  0  0  0  0  0  0  0  0  0
   49.0460   28.9970   48.6250 N   0  0  0  0  0  0  0  0  0  0  0  0
   47.9530   29.4600   48.0150 N   0  0  0  0  0  0  0  0  0  0  0  0
   47.7780   30.7570   48.3060 C   0  0  0  0  0  0  0  0  0  0  0  0
   48.8250   31.1470   49.1550 C   0  0  0  0  0  0  0  0  0  0  0  0
   49.5960   30.0240   49.3310 C   0  0  0  0  0  0  0  0  0  0  0  0
   44.4230   35.9530   44.6880 C   0  0  0  0  0  0  0  0  0  0  0  0
   45.1250   35.8880   43.4670 C   0  0  0  0  0  0  0  0  0  0  0  0
   46.0840   34.9080   43.3210 C   0  0  0  0  0  0  0  0  0  0  0  0
   46.3040   34.0580   44.3560 N   0  0  0  0  0  0  0  0  0  0  0  0
   45.6080   34.1480   45.5240 C   0  0  0  0  0  0  0  0  0  0  0  0
   44.6700   35.0860   45.7020 N   0  0  0  0  0  0  0  0  0  0  0  0
   46.8610   34.7370   42.1380 N   0  0  0  0  0  0  0  0  0  0  0  0
   46.3030   34.0650   41.1270 N   0  0  0  0  0  0  0  0  0  0  0  0
   47.2020   34.0140   40.1010 C   0  0  0  0  0  0  0  0  0  0  0  0
   48.3430   34.6920   40.5370 C   0  0  0  0  0  0  0  0  0  0  0  0
   48.1060   35.1460   41.8390 C   0  0  0  0  0  0  0  0  0  0  0  0
   44.0772   33.4704   47.7356 H   0  0  0  0  0  0  0  0  0  0  0  0
   45.1208   31.6156   49.3782 H   0  0  0  0  0  0  0  0  0  0  0  0
   49.4090   28.0346   48.5715 H   0  0  0  0  0  0  0  0  0  0  0  0
   48.9931   32.1437   49.5889 H   0  0  0  0  0  0  0  0  0  0  0  0
   50.5086   29.9638   49.9422 H   0  0  0  0  0  0  0  0  0  0  0  0
   43.6539   36.7279   44.8222 H   0  0  0  0  0  0  0  0  0  0  0  0
   44.9138   36.5986   42.6543 H   0  0  0  0  0  0  0  0  0  0  0  0
   47.0565   33.5331   39.1224 H   0  0  0  0  0  0  0  0  0  0  0  0
   49.2661   34.8425   39.9580 H   0  0  0  0  0  0  0  0  0  0  0  0
   48.7927   35.7165   42.4816 H   0  0  0  0  0  0  0  0  0  0  0  0
  1  5  2  0
  1  2  1  0
  2  3  2  0
  4  8  1  0
  4  3  1  0
  5  4  1  0
  6 10  1  0
  7  8  2  0
  7  6  1  0
  8  9  1  0
  9 10  2  0
 11 16  2  0
 12 11  1  0
 13 12  2  0
 13 14  1  0
 14 15  2  0
 15 16  1  0
 15  1  1  0
 17 13  1  0
 18 17  1  0
 19 20  1  0
 19 18  2  0
 20 21  2  0
 21 17  1  0
  2 22  1  0
  3 23  1  0
  6 24  1  0
  9 25  1  0
 10 26  1  0
 11 27  1  0
 12 28  1  0
 19 29  1  0
 20 30  1  0
 21 31  1  0
M  ISO  8  22  14  23  14  24   9  25  14  26  14  27  14  28  14  29  14
M  ISO  2  30  14  31  14
M  END
>  <minimizedAffinity>  (1) 
-6.58520699

>  <minimizedRMSD>  (1) 
0.550383568

$$$$
