
     RDKit          3D

 37 40  0  0  0  0  0  0  0  0999 V2000
   46.4120   32.7370   46.8850 C   0  0  0  0  0  0  0  0  0  0  0  0
   45.4670   32.5480   47.8790 C   0  0  0  0  0  0  0  0  0  0  0  0
   45.9930   31.7130   48.8450 C   0  0  0  0  0  0  0  0  0  0  0  0
   47.2340   31.4140   48.4230 N   0  0  0  0  0  0  0  0  0  0  0  0
   47.4940   32.0180   47.2580 N   0  0  0  0  0  0  0  0  0  0  0  0
   49.6110   28.9510   49.4960 N   0  0  0  0  0  0  0  0  0  0  0  0
   48.5490   29.2890   48.7870 N   0  0  0  0  0  0  0  0  0  0  0  0
   48.2740   30.6030   48.9760 C   0  0  0  0  0  0  0  0  0  0  0  0
   49.2140   31.1240   49.8540 C   0  0  0  0  0  0  0  0  0  0  0  0
   50.0510   30.0590   50.1690 C   0  0  0  0  0  0  0  0  0  0  0  0
   44.8600   35.1880   44.6460 C   0  0  0  0  0  0  0  0  0  0  0  0
   45.6610   35.0760   43.4920 C   0  0  0  0  0  0  0  0  0  0  0  0
   46.7000   34.1720   43.5200 C   0  0  0  0  0  0  0  0  0  0  0  0
   46.8990   33.4460   44.6390 N   0  0  0  0  0  0  0  0  0  0  0  0
   46.1040   33.5770   45.7410 C   0  0  0  0  0  0  0  0  0  0  0  0
   45.0830   34.4430   45.7610 N   0  0  0  0  0  0  0  0  0  0  0  0
   47.5610   34.0170   42.3480 C   0  0  0  0  0  0  0  0  0  0  0  0
   49.0140   33.7810   42.7000 C   0  0  0  0  0  0  0  0  0  0  0  0
   49.7120   35.1030   42.5210 C   0  0  0  0  0  0  0  0  0  0  0  0
   48.9960   35.6920   41.3270 C   0  0  0  0  0  0  0  0  0  0  0  0
   47.5690   35.2750   41.5300 C   0  0  0  0  0  0  0  0  0  0  0  0
   44.4604   32.9911   47.8965 H   0  0  0  0  0  0  0  0  0  0  0  0
   45.5006   31.3658   49.7653 H   0  0  0  0  0  0  0  0  0  0  0  0
   50.0357   28.0135   49.5357 H   0  0  0  0  0  0  0  0  0  0  0  0
   49.2824   32.1583   50.2221 H   0  0  0  0  0  0  0  0  0  0  0  0
   50.9187   30.0999   50.8439 H   0  0  0  0  0  0  0  0  0  0  0  0
   44.0246   35.9037   44.6445 H   0  0  0  0  0  0  0  0  0  0  0  0
   45.4635   35.6889   42.6002 H   0  0  0  0  0  0  0  0  0  0  0  0
   47.1472   33.1508   41.8109 H   0  0  0  0  0  0  0  0  0  0  0  0
   49.1031   33.4413   43.7424 H   0  0  0  0  0  0  0  0  0  0  0  0
   49.4591   33.0040   42.0611 H   0  0  0  0  0  0  0  0  0  0  0  0
   49.5921   35.7394   43.4101 H   0  0  0  0  0  0  0  0  0  0  0  0
   50.7987   35.0093   42.3783 H   0  0  0  0  0  0  0  0  0  0  0  0
   49.3953   35.2814   40.3878 H   0  0  0  0  0  0  0  0  0  0  0  0
   49.1159   36.7829   41.2522 H   0  0  0  0  0  0  0  0  0  0  0  0
   47.0211   36.0677   42.0604 H   0  0  0  0  0  0  0  0  0  0  0  0
   47.0819   35.1006   40.5593 H   0  0  0  0  0  0  0  0  0  0  0  0
  1  5  2  0
  1  2  1  0
  2  3  2  0
  4  3  1  0
  4  8  1  0
  5  4  1  0
  6 10  1  0
  7  8  2  0
  7  6  1  0
  8  9  1  0
  9 10  2  0
 11 16  2  0
 12 13  2  0
 12 11  1  0
 13 14  1  0
 14 15  2  0
 15 16  1  0
 15  1  1  0
 17 18  1  0
 17 13  1  0
 19 18  1  0
 20 21  1  0
 20 19  1  0
 21 17  1  0
  2 22  1  0
  3 23  1  0
  6 24  1  0
  9 25  1  0
 10 26  1  0
 11 27  1  0
 12 28  1  0
 17 29  1  0
 18 30  1  0
 18 31  1  0
 19 32  1  0
 19 33  1  0
 20 34  1  0
 20 35  1  0
 21 36  1  0
 21 37  1  0
M  ISO  8  22  14  23  14  24   9  25  14  26  14  27  14  28  14  29  13
M  ISO  8  30  13  31  13  32  13  33  13  34  13  35  13  36  13  37  13
M  END
>  <minimizedAffinity>  (1) 
-6.93736458

>  <minimizedRMSD>  (1) 
1.43291259

$$$$
