
     RDKit          3D

 36 39  0  0  0  0  0  0  0  0999 V2000
   46.2460   32.9440   46.6490 C   0  0  0  0  0  0  0  0  0  0  0  0
   45.2910   32.7700   47.6380 C   0  0  0  0  0  0  0  0  0  0  0  0
   45.7850   31.9060   48.5930 C   0  0  0  0  0  0  0  0  0  0  0  0
   47.0190   31.5750   48.1720 N   0  0  0  0  0  0  0  0  0  0  0  0
   47.3020   32.1840   47.0190 N   0  0  0  0  0  0  0  0  0  0  0  0
   49.3130   29.0270   49.2320 N   0  0  0  0  0  0  0  0  0  0  0  0
   48.2680   29.4090   48.5170 N   0  0  0  0  0  0  0  0  0  0  0  0
   48.0260   30.7260   48.7170 C   0  0  0  0  0  0  0  0  0  0  0  0
   48.9800   31.1900   49.6100 C   0  0  0  0  0  0  0  0  0  0  0  0
   49.7740   30.1020   49.9180 C   0  0  0  0  0  0  0  0  0  0  0  0
   44.7500   35.4300   44.4150 C   0  0  0  0  0  0  0  0  0  0  0  0
   45.5970   35.3750   43.2920 C   0  0  0  0  0  0  0  0  0  0  0  0
   46.6480   34.4890   43.3450 C   0  0  0  0  0  0  0  0  0  0  0  0
   46.8190   33.7250   44.4500 N   0  0  0  0  0  0  0  0  0  0  0  0
   45.9650   33.8130   45.5200 C   0  0  0  0  0  0  0  0  0  0  0  0
   44.9360   34.6530   45.5180 N   0  0  0  0  0  0  0  0  0  0  0  0
   47.5570   34.3590   42.2690 N   0  0  0  0  0  0  0  0  0  0  0  0
   48.8630   34.9910   42.1130 C   0  0  0  0  0  0  0  0  0  0  0  0
   48.7710   35.4720   40.6710 C   0  0  0  0  0  0  0  0  0  0  0  0
   47.8480   34.5030   39.9850 C   0  0  0  0  0  0  0  0  0  0  0  0
   47.3720   33.5560   41.0760 C   0  0  0  0  0  0  0  0  0  0  0  0
   44.2988   33.2445   47.6582 H   0  0  0  0  0  0  0  0  0  0  0  0
   45.2773   31.5607   49.5057 H   0  0  0  0  0  0  0  0  0  0  0  0
   49.7086   28.0765   49.2625 H   0  0  0  0  0  0  0  0  0  0  0  0
   49.0835   32.2153   49.9948 H   0  0  0  0  0  0  0  0  0  0  0  0
   50.6343   30.1070   50.6035 H   0  0  0  0  0  0  0  0  0  0  0  0
   43.9018   36.1303   44.4011 H   0  0  0  0  0  0  0  0  0  0  0  0
   45.4261   36.0119   42.4116 H   0  0  0  0  0  0  0  0  0  0  0  0
   48.9941   35.8295   42.8128 H   0  0  0  0  0  0  0  0  0  0  0  0
   49.7182   34.3313   42.3214 H   0  0  0  0  0  0  0  0  0  0  0  0
   48.3583   36.4909   40.6307 H   0  0  0  0  0  0  0  0  0  0  0  0
   49.7586   35.5081   40.1880 H   0  0  0  0  0  0  0  0  0  0  0  0
   46.9951   35.0348   39.5381 H   0  0  0  0  0  0  0  0  0  0  0  0
   48.3529   33.9655   39.1688 H   0  0  0  0  0  0  0  0  0  0  0  0
   46.3154   33.2836   40.9367 H   0  0  0  0  0  0  0  0  0  0  0  0
   47.9093   32.5964   41.0978 H   0  0  0  0  0  0  0  0  0  0  0  0
  1  5  2  0
  1  2  1  0
  2  3  2  0
  4  3  1  0
  4  8  1  0
  5  4  1  0
  6 10  1  0
  7  8  2  0
  7  6  1  0
  8  9  1  0
  9 10  2  0
 11 16  2  0
 12 13  2  0
 12 11  1  0
 13 14  1  0
 14 15  2  0
 15  1  1  0
 16 15  1  0
 17 13  1  0
 18 17  1  0
 19 18  1  0
 20 19  1  0
 20 21  1  0
 21 17  1  0
  2 22  1  0
  3 23  1  0
  6 24  1  0
  9 25  1  0
 10 26  1  0
 11 27  1  0
 12 28  1  0
 18 29  1  0
 18 30  1  0
 19 31  1  0
 19 32  1  0
 20 33  1  0
 20 34  1  0
 21 35  1  0
 21 36  1  0
M  ISO  8  22  14  23  14  24   9  25  14  26  14  27  14  28  14  29  13
M  ISO  7  30  13  31  13  32  13  33  13  34  13  35  13  36  13
M  END
>  <minimizedAffinity>  (1) 
-6.55951881

>  <minimizedRMSD>  (1) 
0.958058536

$$$$
