
     RDKit          3D

 32 35  0  0  0  0  0  0  0  0999 V2000
   45.9420   33.1870   46.5970 C   0  0  0  0  0  0  0  0  0  0  0  0
   45.0470   32.9520   47.6280 C   0  0  0  0  0  0  0  0  0  0  0  0
   45.5880   32.0160   48.4950 C   0  0  0  0  0  0  0  0  0  0  0  0
   46.7900   31.7060   47.9740 N   0  0  0  0  0  0  0  0  0  0  0  0
   47.0180   32.3910   46.8480 N   0  0  0  0  0  0  0  0  0  0  0  0
   49.0960   29.0560   48.7190 N   0  0  0  0  0  0  0  0  0  0  0  0
   48.0100   29.5110   48.1140 N   0  0  0  0  0  0  0  0  0  0  0  0
   47.8110   30.8170   48.3970 C   0  0  0  0  0  0  0  0  0  0  0  0
   48.8430   31.1980   49.2350 C   0  0  0  0  0  0  0  0  0  0  0  0
   49.6230   30.0830   49.4160 C   0  0  0  0  0  0  0  0  0  0  0  0
   44.4270   35.9250   44.6940 C   0  0  0  0  0  0  0  0  0  0  0  0
   45.1030   35.8200   43.4560 C   0  0  0  0  0  0  0  0  0  0  0  0
   46.0450   34.8240   43.3250 C   0  0  0  0  0  0  0  0  0  0  0  0
   46.2880   33.9960   44.3630 N   0  0  0  0  0  0  0  0  0  0  0  0
   45.6160   34.1260   45.5470 C   0  0  0  0  0  0  0  0  0  0  0  0
   44.6850   35.0840   45.7280 N   0  0  0  0  0  0  0  0  0  0  0  0
   46.7700   34.6720   42.0670 C   0  0  0  0  0  0  0  0  0  0  0  0
   47.9960   35.2860   41.9040 C   0  0  0  0  0  0  0  0  0  0  0  0
   48.5800   35.0670   40.6740 C   0  0  0  0  0  0  0  0  0  0  0  0
   48.0490   34.3300   39.6820 N   0  0  0  0  0  0  0  0  0  0  0  0
   46.8340   33.7500   39.9050 C   0  0  0  0  0  0  0  0  0  0  0  0
   46.2200   33.9320   41.0900 N   0  0  0  0  0  0  0  0  0  0  0  0
   44.0636   33.4319   47.7405 H   0  0  0  0  0  0  0  0  0  0  0  0
   45.1331   31.6130   49.4118 H   0  0  0  0  0  0  0  0  0  0  0  0
   49.4686   28.0972   48.6671 H   0  0  0  0  0  0  0  0  0  0  0  0
   49.0062   32.1952   49.6697 H   0  0  0  0  0  0  0  0  0  0  0  0
   50.5332   30.0350   50.0317 H   0  0  0  0  0  0  0  0  0  0  0  0
   43.6693   36.7119   44.8229 H   0  0  0  0  0  0  0  0  0  0  0  0
   44.8841   36.5094   42.6273 H   0  0  0  0  0  0  0  0  0  0  0  0
   48.4665   35.8974   42.6881 H   0  0  0  0  0  0  0  0  0  0  0  0
   49.5593   35.5327   40.4892 H   0  0  0  0  0  0  0  0  0  0  0  0
   46.3598   33.1386   39.1231 H   0  0  0  0  0  0  0  0  0  0  0  0
  1  5  2  0
  1  2  1  0
  2  3  2  0
  4  8  1  0
  4  3  1  0
  5  4  1  0
  6 10  1  0
  7  8  2  0
  7  6  1  0
  8  9  1  0
  9 10  2  0
 11 16  2  0
 12 11  1  0
 13 12  2  0
 13 14  1  0
 14 15  2  0
 15 16  1  0
 15  1  1  0
 17 13  1  0
 18 17  2  0
 19 18  1  0
 20 21  1  0
 20 19  2  0
 21 22  2  0
 22 17  1  0
  2 23  1  0
  3 24  1  0
  6 25  1  0
  9 26  1  0
 10 27  1  0
 11 28  1  0
 12 29  1  0
 18 30  1  0
 19 31  1  0
 21 32  1  0
M  ISO  8  23  14  24  14  25   9  26  14  27  14  28  14  29  14  30  14
M  ISO  2  31  14  32  14
M  END
>  <minimizedAffinity>  (1) 
-6.87194014

>  <minimizedRMSD>  (1) 
0.69794327

$$$$
