
     RDKit          3D

 38 41  0  0  0  0  0  0  0  0999 V2000
   46.0000   33.1180   46.6410 C   0  0  0  0  0  0  0  0  0  0  0  0
   45.0950   32.9160   47.6710 C   0  0  0  0  0  0  0  0  0  0  0  0
   45.6280   32.0050   48.5640 C   0  0  0  0  0  0  0  0  0  0  0  0
   46.8350   31.6750   48.0630 N   0  0  0  0  0  0  0  0  0  0  0  0
   47.0600   32.3280   46.9270 N   0  0  0  0  0  0  0  0  0  0  0  0
   49.1260   29.0430   48.9070 N   0  0  0  0  0  0  0  0  0  0  0  0
   48.0390   29.4790   48.2590 N   0  0  0  0  0  0  0  0  0  0  0  0
   47.8480   30.7930   48.5240 C   0  0  0  0  0  0  0  0  0  0  0  0
   48.8620   31.2040   49.3760 C   0  0  0  0  0  0  0  0  0  0  0  0
   49.6410   30.0840   49.5950 C   0  0  0  0  0  0  0  0  0  0  0  0
   44.4970   35.8000   44.6490 C   0  0  0  0  0  0  0  0  0  0  0  0
   45.2000   35.6920   43.4330 C   0  0  0  0  0  0  0  0  0  0  0  0
   46.1610   34.7050   43.3390 C   0  0  0  0  0  0  0  0  0  0  0  0
   46.3880   33.8950   44.3990 N   0  0  0  0  0  0  0  0  0  0  0  0
   45.6830   34.0330   45.5630 C   0  0  0  0  0  0  0  0  0  0  0  0
   44.7520   34.9710   45.6870 N   0  0  0  0  0  0  0  0  0  0  0  0
   46.9430   34.4830   42.1750 N   0  0  0  0  0  0  0  0  0  0  0  0
   46.5960   33.4630   41.1810 C   0  0  0  0  0  0  0  0  0  0  0  0
   47.1030   33.8740   39.8120 C   0  0  0  0  0  0  0  0  0  0  0  0
   48.5440   34.0180   39.7980 N   0  0  0  0  0  0  0  0  0  0  0  0
   49.0730   34.3440   41.1060 C   0  0  0  0  0  0  0  0  0  0  0  0
   48.1410   35.2490   41.8880 C   0  0  0  0  0  0  0  0  0  0  0  0
   44.1123   33.4016   47.7631 H   0  0  0  0  0  0  0  0  0  0  0  0
   45.1649   31.6289   49.4882 H   0  0  0  0  0  0  0  0  0  0  0  0
   49.5023   28.0845   48.8847 H   0  0  0  0  0  0  0  0  0  0  0  0
   49.0144   32.2113   49.7909 H   0  0  0  0  0  0  0  0  0  0  0  0
   50.5387   30.0466   50.2296 H   0  0  0  0  0  0  0  0  0  0  0  0
   43.7240   36.5752   44.7567 H   0  0  0  0  0  0  0  0  0  0  0  0
   44.9914   36.3680   42.5907 H   0  0  0  0  0  0  0  0  0  0  0  0
   47.0560   32.5055   41.4667 H   0  0  0  0  0  0  0  0  0  0  0  0
   45.5019   33.3564   41.1421 H   0  0  0  0  0  0  0  0  0  0  0  0
   46.8139   33.1064   39.0791 H   0  0  0  0  0  0  0  0  0  0  0  0
   46.6576   34.8473   39.5582 H   0  0  0  0  0  0  0  0  0  0  0  0
   48.9630   33.1317   39.4820 H   0  0  0  0  0  0  0  0  0  0  0  0
   49.2200   33.4121   41.6716 H   0  0  0  0  0  0  0  0  0  0  0  0
   50.0240   34.8782   40.9636 H   0  0  0  0  0  0  0  0  0  0  0  0
   48.6208   35.5644   42.8262 H   0  0  0  0  0  0  0  0  0  0  0  0
   47.8982   36.1533   41.3107 H   0  0  0  0  0  0  0  0  0  0  0  0
  1  5  2  0
  1  2  1  0
  2  3  2  0
  4  8  1  0
  4  3  1  0
  5  4  1  0
  6 10  1  0
  7  8  2  0
  7  6  1  0
  8  9  1  0
  9 10  2  0
 11 16  2  0
 12 11  1  0
 13 12  2  0
 13 14  1  0
 14 15  2  0
 15 16  1  0
 15  1  1  0
 17 13  1  0
 18 17  1  0
 19 18  1  0
 20 19  1  0
 20 21  1  0
 21 22  1  0
 22 17  1  0
  2 23  1  0
  3 24  1  0
  6 25  1  0
  9 26  1  0
 10 27  1  0
 11 28  1  0
 12 29  1  0
 18 30  1  0
 18 31  1  0
 19 32  1  0
 19 33  1  0
 20 34  1  0
 21 35  1  0
 21 36  1  0
 22 37  1  0
 22 38  1  0
M  ISO  8  23  14  24  14  25   9  26  14  27  14  28  14  29  14  30  13
M  ISO  8  31  13  32  13  33  13  34   5  35  13  36  13  37  13  38  13
M  END
>  <minimizedAffinity>  (1) 
-6.5715394

>  <minimizedRMSD>  (1) 
0.47221607

$$$$
