
     RDKit          3D

 36 38  0  0  0  0  0  0  0  0999 V2000
   46.0290   33.1000   46.6300 C   0  0  0  0  0  0  0  0  0  0  0  0
   45.1360   32.9110   47.6580 C   0  0  0  0  0  0  0  0  0  0  0  0
   45.6580   32.0220   48.5700 C   0  0  0  0  0  0  0  0  0  0  0  0
   46.8750   31.6770   48.0780 N   0  0  0  0  0  0  0  0  0  0  0  0
   47.0960   32.3140   46.9320 N   0  0  0  0  0  0  0  0  0  0  0  0
   49.1680   29.0700   48.9960 N   0  0  0  0  0  0  0  0  0  0  0  0
   48.0840   29.4990   48.3440 N   0  0  0  0  0  0  0  0  0  0  0  0
   47.8880   30.8030   48.5590 C   0  0  0  0  0  0  0  0  0  0  0  0
   48.8980   31.2500   49.3980 C   0  0  0  0  0  0  0  0  0  0  0  0
   49.6800   30.1400   49.6500 C   0  0  0  0  0  0  0  0  0  0  0  0
   44.5630   35.7660   44.5970 C   0  0  0  0  0  0  0  0  0  0  0  0
   45.2510   35.6120   43.3780 C   0  0  0  0  0  0  0  0  0  0  0  0
   46.1880   34.6070   43.2900 C   0  0  0  0  0  0  0  0  0  0  0  0
   46.4220   33.8050   44.3590 N   0  0  0  0  0  0  0  0  0  0  0  0
   45.7260   33.9960   45.5250 C   0  0  0  0  0  0  0  0  0  0  0  0
   44.8040   34.9580   45.6660 N   0  0  0  0  0  0  0  0  0  0  0  0
   47.0000   34.3070   42.0830 C   0  0  0  0  0  0  0  0  0  0  0  0
   47.6670   32.9660   42.2340 C   0  0  0  0  0  0  0  0  0  0  0  0
   46.0260   34.2890   40.9160 C   0  0  0  0  0  0  0  0  0  0  0  0
   48.0490   35.3570   41.8090 C   0  0  0  0  0  0  0  0  0  0  0  0
   44.1525   33.3970   47.7394 H   0  0  0  0  0  0  0  0  0  0  0  0
   45.1889   31.6669   49.4994 H   0  0  0  0  0  0  0  0  0  0  0  0
   49.5424   28.1105   49.0006 H   0  0  0  0  0  0  0  0  0  0  0  0
   49.0448   32.2707   49.7809 H   0  0  0  0  0  0  0  0  0  0  0  0
   50.5792   30.1268   50.2835 H   0  0  0  0  0  0  0  0  0  0  0  0
   43.8092   36.5619   44.6882 H   0  0  0  0  0  0  0  0  0  0  0  0
   45.0464   36.2735   42.5233 H   0  0  0  0  0  0  0  0  0  0  0  0
   47.7831   32.7325   43.3026 H   0  0  0  0  0  0  0  0  0  0  0  0
   47.0485   32.1928   41.7549 H   0  0  0  0  0  0  0  0  0  0  0  0
   48.6568   32.9928   41.7549 H   0  0  0  0  0  0  0  0  0  0  0  0
   44.9951   34.2699   41.2991 H   0  0  0  0  0  0  0  0  0  0  0  0
   46.1725   35.1900   40.3022 H   0  0  0  0  0  0  0  0  0  0  0  0
   46.2057   33.3940   40.3022 H   0  0  0  0  0  0  0  0  0  0  0  0
   48.4369   35.7453   42.7623 H   0  0  0  0  0  0  0  0  0  0  0  0
   48.8727   34.9107   41.2325 H   0  0  0  0  0  0  0  0  0  0  0  0
   47.6019   36.1803   41.2325 H   0  0  0  0  0  0  0  0  0  0  0  0
  1  5  2  0
  1  2  1  0
  2  3  2  0
  4  8  1  0
  4  3  1  0
  5  4  1  0
  6 10  1  0
  7  8  2  0
  7  6  1  0
  8  9  1  0
  9 10  2  0
 11 16  2  0
 12 11  1  0
 13 12  2  0
 13 14  1  0
 14 15  2  0
 15 16  1  0
 15  1  1  0
 17 18  1  0
 17 13  1  0
 19 17  1  0
 20 17  1  0
  2 21  1  0
  3 22  1  0
  6 23  1  0
  9 24  1  0
 10 25  1  0
 11 26  1  0
 12 27  1  0
 18 28  1  0
 18 29  1  0
 18 30  1  0
 19 31  1  0
 19 32  1  0
 19 33  1  0
 20 34  1  0
 20 35  1  0
 20 36  1  0
M  ISO  8  21  14  22  14  23   9  24  14  25  14  26  14  27  14  28   8
M  ISO  8  29   8  30   8  31   8  32   8  33   8  34   8  35   8  36   8
M  END
>  <minimizedAffinity>  (1) 
-6.41391516

>  <minimizedRMSD>  (1) 
0.411893666

$$$$
