
     RDKit          3D

 31 34  0  0  0  0  0  0  0  0999 V2000
   46.0070   33.2830   46.4050 C   0  0  0  0  0  0  0  0  0  0  0  0
   45.1050   33.1500   47.4460 C   0  0  0  0  0  0  0  0  0  0  0  0
   45.6020   32.2470   48.3680 C   0  0  0  0  0  0  0  0  0  0  0  0
   46.8060   31.8480   47.8570 N   0  0  0  0  0  0  0  0  0  0  0  0
   47.0360   32.4600   46.7080 N   0  0  0  0  0  0  0  0  0  0  0  0
   48.9790   29.1430   48.7730 N   0  0  0  0  0  0  0  0  0  0  0  0
   47.9100   29.6120   48.1110 N   0  0  0  0  0  0  0  0  0  0  0  0
   47.7810   30.9400   48.3430 C   0  0  0  0  0  0  0  0  0  0  0  0
   48.8100   31.3410   49.1880 C   0  0  0  0  0  0  0  0  0  0  0  0
   49.5400   30.1920   49.4380 C   0  0  0  0  0  0  0  0  0  0  0  0
   44.5250   35.8890   44.3020 C   0  0  0  0  0  0  0  0  0  0  0  0
   45.3010   35.7950   43.1320 C   0  0  0  0  0  0  0  0  0  0  0  0
   46.3150   34.8370   43.0930 C   0  0  0  0  0  0  0  0  0  0  0  0
   46.4980   34.0510   44.1840 N   0  0  0  0  0  0  0  0  0  0  0  0
   45.7250   34.1730   45.3000 C   0  0  0  0  0  0  0  0  0  0  0  0
   44.7480   35.0780   45.3660 N   0  0  0  0  0  0  0  0  0  0  0  0
   47.1910   34.6700   41.8820 C   0  0  0  0  0  0  0  0  0  0  0  0
   48.5320   34.0230   42.0940 C   0  0  0  0  0  0  0  0  0  0  0  0
   48.4060   35.4670   41.6920 C   0  0  0  0  0  0  0  0  0  0  0  0
   44.1441   33.6792   47.5273 H   0  0  0  0  0  0  0  0  0  0  0  0
   45.1315   31.9209   49.3073 H   0  0  0  0  0  0  0  0  0  0  0  0
   49.3140   28.1690   48.7777 H   0  0  0  0  0  0  0  0  0  0  0  0
   49.0023   32.3528   49.5743 H   0  0  0  0  0  0  0  0  0  0  0  0
   50.4349   30.1344   50.0751 H   0  0  0  0  0  0  0  0  0  0  0  0
   43.7198   36.6366   44.3549 H   0  0  0  0  0  0  0  0  0  0  0  0
   45.1139   36.4570   42.2736 H   0  0  0  0  0  0  0  0  0  0  0  0
   46.3085   34.4958   41.2489 H   0  0  0  0  0  0  0  0  0  0  0  0
   48.8652   33.7566   43.1079 H   0  0  0  0  0  0  0  0  0  0  0  0
   49.0507   33.1375   41.6979 H   0  0  0  0  0  0  0  0  0  0  0  0
   48.7019   35.7817   40.6804 H   0  0  0  0  0  0  0  0  0  0  0  0
   48.7781   36.4182   42.1003 H   0  0  0  0  0  0  0  0  0  0  0  0
  1  5  2  0
  1  2  1  0
  2  3  2  0
  4  8  1  0
  4  3  1  0
  5  4  1  0
  6 10  1  0
  7  8  2  0
  7  6  1  0
  8  9  1  0
  9 10  2  0
 11 16  2  0
 12 11  1  0
 13 12  2  0
 13 14  1  0
 14 15  2  0
 15 16  1  0
 15  1  1  0
 17 18  1  0
 17 13  1  0
 19 17  1  0
 19 18  1  0
  2 20  1  0
  3 21  1  0
  6 22  1  0
  9 23  1  0
 10 24  1  0
 11 25  1  0
 12 26  1  0
 17 27  1  0
 18 28  1  0
 18 29  1  0
 19 30  1  0
 19 31  1  0
M  ISO  8  20  14  21  14  22   9  23  14  24  14  25  14  26  14  27  13
M  ISO  4  28  13  29  13  30  13  31  13
M  END
>  <minimizedAffinity>  (1) 
-6.30522013

>  <minimizedRMSD>  (1) 
0.293497413

$$$$
