
     RDKit          3D

 33 35  0  0  0  0  0  0  0  0999 V2000
   46.0350   33.0900   46.6380 C   0  0  0  0  0  0  0  0  0  0  0  0
   45.1300   32.9130   47.6690 C   0  0  0  0  0  0  0  0  0  0  0  0
   45.6520   32.0250   48.5870 C   0  0  0  0  0  0  0  0  0  0  0  0
   46.8580   31.6830   48.0970 N   0  0  0  0  0  0  0  0  0  0  0  0
   47.1010   32.3090   46.9390 N   0  0  0  0  0  0  0  0  0  0  0  0
   49.1720   29.0930   49.0030 N   0  0  0  0  0  0  0  0  0  0  0  0
   48.0940   29.4970   48.3540 N   0  0  0  0  0  0  0  0  0  0  0  0
   47.8830   30.8060   48.5760 C   0  0  0  0  0  0  0  0  0  0  0  0
   48.8980   31.2360   49.4150 C   0  0  0  0  0  0  0  0  0  0  0  0
   49.6900   30.1470   49.6670 C   0  0  0  0  0  0  0  0  0  0  0  0
   44.5690   35.7550   44.5980 C   0  0  0  0  0  0  0  0  0  0  0  0
   45.2380   35.5740   43.3600 C   0  0  0  0  0  0  0  0  0  0  0  0
   46.1610   34.5510   43.2720 C   0  0  0  0  0  0  0  0  0  0  0  0
   46.3850   33.7750   44.3590 N   0  0  0  0  0  0  0  0  0  0  0  0
   45.7170   33.9820   45.5390 C   0  0  0  0  0  0  0  0  0  0  0  0
   44.8230   34.9540   45.6660 N   0  0  0  0  0  0  0  0  0  0  0  0
   46.9070   34.2850   42.0210 C   0  0  0  0  0  0  0  0  0  0  0  0
   45.9910   34.2570   40.8140 C   0  0  0  0  0  0  0  0  0  0  0  0
   47.9830   35.3280   41.8920 C   0  0  0  0  0  0  0  0  0  0  0  0
   44.1482   33.4032   47.7451 H   0  0  0  0  0  0  0  0  0  0  0  0
   45.1838   31.6728   49.5180 H   0  0  0  0  0  0  0  0  0  0  0  0
   49.5522   28.1358   49.0020 H   0  0  0  0  0  0  0  0  0  0  0  0
   49.0405   32.2551   49.8038 H   0  0  0  0  0  0  0  0  0  0  0  0
   50.5899   30.1342   50.2994 H   0  0  0  0  0  0  0  0  0  0  0  0
   43.8279   36.5620   44.6956 H   0  0  0  0  0  0  0  0  0  0  0  0
   45.0284   36.2265   42.4996 H   0  0  0  0  0  0  0  0  0  0  0  0
   47.3661   33.2863   42.0646 H   0  0  0  0  0  0  0  0  0  0  0  0
   44.9438   34.2250   41.1491 H   0  0  0  0  0  0  0  0  0  0  0  0
   46.1547   35.1606   40.2084 H   0  0  0  0  0  0  0  0  0  0  0  0
   46.2096   33.3651   40.2084 H   0  0  0  0  0  0  0  0  0  0  0  0
   48.3092   35.6442   42.8938 H   0  0  0  0  0  0  0  0  0  0  0  0
   48.8385   34.9064   41.3439 H   0  0  0  0  0  0  0  0  0  0  0  0
   47.5883   36.1962   41.3439 H   0  0  0  0  0  0  0  0  0  0  0  0
  1  5  2  0
  1  2  1  0
  2  3  2  0
  4  8  1  0
  4  3  1  0
  5  4  1  0
  6 10  1  0
  7  8  2  0
  7  6  1  0
  8  9  1  0
  9 10  2  0
 11 16  2  0
 12 11  1  0
 13 12  2  0
 13 14  1  0
 14 15  2  0
 15 16  1  0
 15  1  1  0
 17 13  1  0
 18 17  1  0
 19 17  1  0
  2 20  1  0
  3 21  1  0
  6 22  1  0
  9 23  1  0
 10 24  1  0
 11 25  1  0
 12 26  1  0
 17 27  1  0
 18 28  1  0
 18 29  1  0
 18 30  1  0
 19 31  1  0
 19 32  1  0
 19 33  1  0
M  ISO  8  20  14  21  14  22   9  23  14  24  14  25  14  26  14  27   8
M  ISO  6  28   8  29   8  30   8  31   8  32   8  33   8
M  END
>  <minimizedAffinity>  (1) 
-6.18924713

>  <minimizedRMSD>  (1) 
0.350887656

$$$$
