
     RDKit          3D

 27 29  0  0  0  0  0  0  0  0999 V2000
   45.9860   33.2170   46.5090 C   0  0  0  0  0  0  0  0  0  0  0  0
   45.0860   33.0400   47.5470 C   0  0  0  0  0  0  0  0  0  0  0  0
   45.5930   32.1280   48.4440 C   0  0  0  0  0  0  0  0  0  0  0  0
   46.7910   31.7690   47.9360 N   0  0  0  0  0  0  0  0  0  0  0  0
   47.0410   32.4070   46.7860 N   0  0  0  0  0  0  0  0  0  0  0  0
   49.0620   29.1130   48.7920 N   0  0  0  0  0  0  0  0  0  0  0  0
   47.9720   29.5450   48.1380 N   0  0  0  0  0  0  0  0  0  0  0  0
   47.7960   30.8630   48.3930 C   0  0  0  0  0  0  0  0  0  0  0  0
   48.8170   31.2740   49.2390 C   0  0  0  0  0  0  0  0  0  0  0  0
   49.5910   30.1620   49.4710 C   0  0  0  0  0  0  0  0  0  0  0  0
   44.4780   35.8940   44.5050 C   0  0  0  0  0  0  0  0  0  0  0  0
   45.2220   35.7990   43.2990 C   0  0  0  0  0  0  0  0  0  0  0  0
   46.2090   34.8220   43.2230 C   0  0  0  0  0  0  0  0  0  0  0  0
   46.4100   34.0250   44.2830 N   0  0  0  0  0  0  0  0  0  0  0  0
   45.6890   34.1350   45.4200 C   0  0  0  0  0  0  0  0  0  0  0  0
   44.7370   35.0530   45.5340 N   0  0  0  0  0  0  0  0  0  0  0  0
   47.0550   34.6020   42.0540 C   0  0  0  0  0  0  0  0  0  0  0  0
   46.8810   33.6500   41.2530 O   0  0  0  0  0  0  0  0  0  0  0  0
   48.1240   35.4000   41.7000 O   0  0  0  0  0  0  0  0  0  0  0  0
   44.1157   33.5498   47.6399 H   0  0  0  0  0  0  0  0  0  0  0  0
   45.1243   31.7697   49.3724 H   0  0  0  0  0  0  0  0  0  0  0  0
   49.4324   28.1520   48.7804 H   0  0  0  0  0  0  0  0  0  0  0  0
   48.9748   32.2852   49.6422 H   0  0  0  0  0  0  0  0  0  0  0  0
   50.4908   30.1281   50.1029 H   0  0  0  0  0  0  0  0  0  0  0  0
   43.6885   36.6536   44.6034 H   0  0  0  0  0  0  0  0  0  0  0  0
   45.0244   36.4749   42.4540 H   0  0  0  0  0  0  0  0  0  0  0  0
   48.6534   35.1879   40.8908 H   0  0  0  0  0  0  0  0  0  0  0  0
  1  5  2  0
  1  2  1  0
  2  3  2  0
  4  8  1  0
  4  3  1  0
  5  4  1  0
  6 10  1  0
  7  8  2  0
  7  6  1  0
  8  9  1  0
  9 10  2  0
 11 16  2  0
 12 11  1  0
 13 12  2  0
 13 14  1  0
 14 15  2  0
 15 16  1  0
 15  1  1  0
 17 13  1  0
 18 17  2  0
 19 17  1  0
  2 20  1  0
  3 21  1  0
  6 22  1  0
  9 23  1  0
 10 24  1  0
 11 25  1  0
 12 26  1  0
 19 27  1  0
M  ISO  8  20  14  21  14  22   9  23  14  24  14  25  14  26  14  27   3
M  END
>  <minimizedAffinity>  (1) 
-5.8828187

>  <minimizedRMSD>  (1) 
0.176931992

$$$$
