
     RDKit          3D

 38 40  0  0  1  0  0  0  0  0999 V2000
   44.5200   36.2570   44.7990 C   0  0  0  0  0  0  0  0  0  0  0  0
   44.8320   36.3120   43.4130 C   0  0  0  0  0  0  0  0  0  0  0  0
   45.4450   35.1870   42.8370 C   0  0  0  0  0  0  0  0  0  0  0  0
   45.6950   34.1240   43.6510 N   0  0  0  0  0  0  0  0  0  0  0  0
   45.3880   34.1040   44.9520 C   0  0  0  0  0  0  0  0  0  0  0  0
   44.8020   35.1640   45.5310 N   0  0  0  0  0  0  0  0  0  0  0  0
   45.6810   32.9390   45.7280 N   0  0  0  0  0  0  0  0  0  0  0  0
   45.3420   32.9260   47.1620 C   0  0  0  0  0  0  0  0  0  0  0  0
   46.2640   32.1010   47.9870 C   0  0  0  0  0  0  0  0  0  0  0  0
   47.5640   31.9240   47.2300 C   0  0  0  0  0  0  0  0  0  0  0  0
   47.2310   31.0580   46.0440 C   0  0  0  0  0  0  0  0  0  0  0  0
   46.2900   31.7940   45.1320 C   0  0  2  0  0  0  0  0  0  0  0  0
   46.9300   32.0540   43.8620 N   0  0  0  0  0  0  0  0  0  0  0  0
   48.0930   32.7660   43.8020 C   0  0  0  0  0  0  0  0  0  0  0  0
   48.7300   33.0230   42.6040 C   0  0  0  0  0  0  0  0  0  0  0  0
   50.0050   33.8040   42.5380 C   0  0  0  0  0  0  0  0  0  0  0  0
   48.1610   32.5380   41.4500 C   0  0  0  0  0  0  0  0  0  0  0  0
   48.7040   32.7460   40.3240 O   0  0  0  0  0  0  0  0  0  0  0  0
   47.0200   31.8420   41.5390 N   0  0  0  0  0  0  0  0  0  0  0  0
   46.4010   31.5910   42.6880 C   0  0  0  0  0  0  0  0  0  0  0  0
   45.3280   30.9370   42.7650 O   0  0  0  0  0  0  0  0  0  0  0  0
   44.0404   37.1219   45.2805 H   0  0  0  0  0  0  0  0  0  0  0  0
   44.6014   37.2044   42.8126 H   0  0  0  0  0  0  0  0  0  0  0  0
   45.7126   35.1654   41.7703 H   0  0  0  0  0  0  0  0  0  0  0  0
   45.3731   33.9602   47.5355 H   0  0  0  0  0  0  0  0  0  0  0  0
   44.3418   32.4771   47.2517 H   0  0  0  0  0  0  0  0  0  0  0  0
   46.4586   32.6076   48.9438 H   0  0  0  0  0  0  0  0  0  0  0  0
   45.8105   31.1194   48.1888 H   0  0  0  0  0  0  0  0  0  0  0  0
   47.9494   32.8989   46.8967 H   0  0  0  0  0  0  0  0  0  0  0  0
   48.3415   31.4675   47.8601 H   0  0  0  0  0  0  0  0  0  0  0  0
   48.1542   30.8138   45.4980 H   0  0  0  0  0  0  0  0  0  0  0  0
   46.7529   30.1302   46.3913 H   0  0  0  0  0  0  0  0  0  0  0  0
   45.4310   31.1353   44.9368 H   0  0  0  0  0  0  0  0  0  0  0  0
   48.5355   33.1460   44.7346 H   0  0  0  0  0  0  0  0  0  0  0  0
   50.3564   34.0192   43.5579 H   0  0  0  0  0  0  0  0  0  0  0  0
   50.7670   33.2175   42.0038 H   0  0  0  0  0  0  0  0  0  0  0  0
   49.8287   34.7493   42.0038 H   0  0  0  0  0  0  0  0  0  0  0  0
   46.5998   31.4820   40.6703 H   0  0  0  0  0  0  0  0  0  0  0  0
  1  6  2  0
  2  1  1  0
  3  2  2  0
  3  4  1  0
  4  5  2  0
  5  6  1  0
  5  7  1  0
  7  8  1  0
  8  9  1  0
 10  9  1  0
 11 10  1  0
 12  7  1  0
 12 11  1  0
 13 12  1  0
 14 13  1  0
 15 14  2  0
 16 15  1  0
 17 19  1  0
 17 15  1  0
 18 17  2  0
 19 20  1  0
 20 21  2  0
 20 13  1  0
  1 22  1  0
  2 23  1  0
  3 24  1  0
  8 25  1  0
  8 26  1  0
  9 27  1  0
  9 28  1  0
 10 29  1  0
 10 30  1  0
 11 31  1  0
 11 32  1  0
 12 33  1  6
 14 34  1  0
 16 35  1  0
 16 36  1  0
 16 37  1  0
 19 38  1  0
M  ISO  8  22  14  23  14  24  14  25  13  26  13  27  13  28  13  29  13
M  ISO  8  30  13  31  13  32  13  33  13  34  14  35   8  36   8  37   8
M  ISO  1  38   9
M  END
>  <minimizedAffinity>  (1) 
-5.16859579

>  <minimizedRMSD>  (1) 
1.44661033

$$$$
