
     RDKit          3D

 34 36  0  0  1  0  0  0  0  0999 V2000
   44.5700   35.8320   44.8640 C   0  0  0  0  0  0  0  0  0  0  0  0
   45.1650   35.7490   43.5830 C   0  0  0  0  0  0  0  0  0  0  0  0
   45.9750   34.6520   43.2990 C   0  0  0  0  0  0  0  0  0  0  0  0
   46.1560   33.7170   44.2570 N   0  0  0  0  0  0  0  0  0  0  0  0
   45.5710   33.8230   45.4760 C   0  0  0  0  0  0  0  0  0  0  0  0
   44.7790   34.8700   45.7920 N   0  0  0  0  0  0  0  0  0  0  0  0
   45.7990   32.7920   46.4620 N   0  0  0  0  0  0  0  0  0  0  0  0
   45.1780   32.9110   47.7900 C   0  0  0  0  0  0  0  0  0  0  0  0
   46.0050   32.2880   48.8740 C   0  0  0  0  0  0  0  0  0  0  0  0
   47.4460   32.2080   48.3900 C   0  0  0  0  0  0  0  0  0  0  0  0
   47.4120   31.1430   47.2980 C   0  0  0  0  0  0  0  0  0  0  0  0
   46.6250   31.6600   46.1510 C   0  0  1  0  0  0  0  0  0  0  0  0
   45.8390   30.6000   45.4830 C   0  0  0  0  0  0  0  0  0  0  0  0
   45.7320   30.4050   44.1350 C   0  0  0  0  0  0  0  0  0  0  0  0
   44.9880   29.4050   43.5570 C   0  0  0  0  0  0  0  0  0  0  0  0
   44.3260   28.5730   44.4520 C   0  0  0  0  0  0  0  0  0  0  0  0
   44.4390   28.7780   45.8220 C   0  0  0  0  0  0  0  0  0  0  0  0
   45.1840   29.7770   46.3310 N   0  0  0  0  0  0  0  0  0  0  0  0
   43.9282   36.6911   45.1089 H   0  0  0  0  0  0  0  0  0  0  0  0
   44.9921   36.5317   42.8297 H   0  0  0  0  0  0  0  0  0  0  0  0
   46.4570   34.5492   42.3156 H   0  0  0  0  0  0  0  0  0  0  0  0
   45.0421   33.9780   48.0204 H   0  0  0  0  0  0  0  0  0  0  0  0
   44.2174   32.3761   47.7564 H   0  0  0  0  0  0  0  0  0  0  0  0
   45.9518   32.9047   49.7833 H   0  0  0  0  0  0  0  0  0  0  0  0
   45.6274   31.2816   49.1076 H   0  0  0  0  0  0  0  0  0  0  0  0
   47.7755   33.1751   47.9824 H   0  0  0  0  0  0  0  0  0  0  0  0
   48.1503   31.9621   49.1984 H   0  0  0  0  0  0  0  0  0  0  0  0
   48.4374   30.9161   46.9707 H   0  0  0  0  0  0  0  0  0  0  0  0
   46.9482   30.2241   47.6860 H   0  0  0  0  0  0  0  0  0  0  0  0
   47.3840   32.0239   45.4428 H   0  0  0  0  0  0  0  0  0  0  0  0
   46.2760   31.0922   43.4703 H   0  0  0  0  0  0  0  0  0  0  0  0
   44.9213   29.2727   42.4670 H   0  0  0  0  0  0  0  0  0  0  0  0
   43.7078   27.7458   44.0731 H   0  0  0  0  0  0  0  0  0  0  0  0
   43.9049   28.1054   46.5093 H   0  0  0  0  0  0  0  0  0  0  0  0
  1  6  2  0
  2  1  1  0
  3  2  2  0
  3  4  1  0
  4  5  2  0
  5  6  1  0
  5  7  1  0
  7  8  1  0
  8  9  1  0
 10  9  1  0
 11 10  1  0
 12  7  1  0
 12 11  1  0
 13 12  1  0
 13 18  1  0
 14 13  2  0
 15 14  1  0
 15 16  2  0
 16 17  1  0
 17 18  2  0
  1 19  1  0
  2 20  1  0
  3 21  1  0
  8 22  1  0
  8 23  1  0
  9 24  1  0
  9 25  1  0
 10 26  1  0
 10 27  1  0
 11 28  1  0
 11 29  1  0
 12 30  1  6
 14 31  1  0
 15 32  1  0
 16 33  1  0
 17 34  1  0
M  ISO  8  19  14  20  14  21  14  22  13  23  13  24  13  25  13  26  13
M  ISO  8  27  13  28  13  29  13  30  13  31  14  32  14  33  14  34  14
M  END
>  <minimizedAffinity>  (1) 
-5.16510868

>  <minimizedRMSD>  (1) 
0.440898299

$$$$
