
     RDKit          3D

 36 38  0  0  1  0  0  0  0  0999 V2000
   45.7740   31.1450   47.2930 C   0  0  2  0  0  0  0  0  0  0  0  0
   44.6740   35.0150   45.8530 C   0  0  0  0  0  0  0  0  0  0  0  0
   44.5880   35.6380   44.6100 C   0  0  0  0  0  0  0  0  0  0  0  0
   45.2190   35.0320   43.5110 C   0  0  0  0  0  0  0  0  0  0  0  0
   45.8860   33.8670   43.7030 N   0  0  0  0  0  0  0  0  0  0  0  0
   45.9580   33.2720   44.9330 C   0  0  0  0  0  0  0  0  0  0  0  0
   45.3550   33.8500   45.9830 N   0  0  0  0  0  0  0  0  0  0  0  0
   46.6470   32.0680   45.1680 N   0  0  0  0  0  0  0  0  0  0  0  0
   47.5690   31.7260   44.2190 C   0  0  0  0  0  0  0  0  0  0  0  0
   48.1300   30.5120   44.6690 C   0  0  0  0  0  0  0  0  0  0  0  0
   47.5340   30.1740   45.8510 N   0  0  0  0  0  0  0  0  0  0  0  0
   46.6420   31.1360   46.1260 C   0  0  0  0  0  0  0  0  0  0  0  0
   46.5150   31.9600   48.3840 C   0  0  0  0  0  0  0  0  0  0  0  0
   45.5610   29.7720   47.8440 C   0  0  0  0  0  0  0  0  0  0  0  0
   44.7170   28.9570   47.0390 N   0  0  0  0  0  0  0  0  0  0  0  0
   44.0580   29.3590   45.9520 N   0  0  0  0  0  0  0  0  0  0  0  0
   43.3660   28.2970   45.4700 C   0  0  0  0  0  0  0  0  0  0  0  0
   43.5890   27.1920   46.2740 C   0  0  0  0  0  0  0  0  0  0  0  0
   44.4540   27.6380   47.2660 C   0  0  0  0  0  0  0  0  0  0  0  0
   44.9970   26.8580   48.3640 C   0  0  0  0  0  0  0  0  0  0  0  0
   44.2560   26.5740   49.3360 O   0  0  0  0  0  0  0  0  0  0  0  0
   46.3210   26.4450   48.3100 O   0  0  0  0  0  0  0  0  0  0  0  0
   44.7968   31.5633   47.0100 H   0  0  0  0  0  0  0  0  0  0  0  0
   44.1889   35.4687   46.7298 H   0  0  0  0  0  0  0  0  0  0  0  0
   44.0382   36.5834   44.4917 H   0  0  0  0  0  0  0  0  0  0  0  0
   45.1730   35.4937   42.5136 H   0  0  0  0  0  0  0  0  0  0  0  0
   47.8199   32.2784   43.3015 H   0  0  0  0  0  0  0  0  0  0  0  0
   48.9138   29.9358   44.1555 H   0  0  0  0  0  0  0  0  0  0  0  0
   46.1993   31.6128   49.3789 H   0  0  0  0  0  0  0  0  0  0  0  0
   47.6003   31.8185   48.2736 H   0  0  0  0  0  0  0  0  0  0  0  0
   46.2712   33.0269   48.2736 H   0  0  0  0  0  0  0  0  0  0  0  0
   46.5397   29.2776   47.9323 H   0  0  0  0  0  0  0  0  0  0  0  0
   45.0611   29.8901   48.8167 H   0  0  0  0  0  0  0  0  0  0  0  0
   42.7250   28.3113   44.5762 H   0  0  0  0  0  0  0  0  0  0  0  0
   43.1722   26.1812   46.1537 H   0  0  0  0  0  0  0  0  0  0  0  0
   46.7041   25.9127   49.0516 H   0  0  0  0  0  0  0  0  0  0  0  0
  1 14  1  0
  1 13  1  0
  2  7  2  0
  3  2  1  0
  4  5  1  0
  4  3  2  0
  5  6  2  0
  6  8  1  0
  6  7  1  0
  8 12  1  0
  9 10  2  0
  9  8  1  0
 10 11  1  0
 11 12  2  0
 12  1  1  0
 15 19  1  0
 15 14  1  0
 16 15  1  0
 17 16  2  0
 17 18  1  0
 18 19  2  0
 19 20  1  0
 20 21  2  0
 22 20  1  0
  1 23  1  6
  2 24  1  0
  3 25  1  0
  4 26  1  0
  9 27  1  0
 10 28  1  0
 13 29  1  0
 13 30  1  0
 13 31  1  0
 14 32  1  0
 14 33  1  0
 17 34  1  0
 18 35  1  0
 22 36  1  0
M  ISO  8  23   8  24  14  25  14  26  14  27  14  28  14  29   8  30   8
M  ISO  6  31   8  32   8  33   8  34  14  35  14  36   3
M  END
>  <minimizedAffinity>  (1) 
-4.65516853

>  <minimizedRMSD>  (1) 
0.922092915

$$$$
