
     RDKit          3D

 46 49  0  0  0  0  0  0  0  0999 V2000
   44.4550   36.0350   44.4570 C   0  0  0  0  0  0  0  0  0  0  0  0
   44.9820   35.7750   43.1780 C   0  0  0  0  0  0  0  0  0  0  0  0
   45.8060   34.6810   43.0400 C   0  0  0  0  0  0  0  0  0  0  0  0
   46.0720   33.9090   44.1190 N   0  0  0  0  0  0  0  0  0  0  0  0
   45.5380   34.1980   45.3410 C   0  0  0  0  0  0  0  0  0  0  0  0
   44.7410   35.2460   45.5090 N   0  0  0  0  0  0  0  0  0  0  0  0
   45.8870   33.3060   46.4350 C   0  0  0  0  0  0  0  0  0  0  0  0
   45.0340   33.1740   47.5130 C   0  0  0  0  0  0  0  0  0  0  0  0
   45.5650   32.2800   48.4240 C   0  0  0  0  0  0  0  0  0  0  0  0
   46.7370   31.8890   47.8730 N   0  0  0  0  0  0  0  0  0  0  0  0
   46.9320   32.4920   46.6970 N   0  0  0  0  0  0  0  0  0  0  0  0
   48.9820   29.2070   48.7070 N   0  0  0  0  0  0  0  0  0  0  0  0
   47.8750   29.6510   48.0940 N   0  0  0  0  0  0  0  0  0  0  0  0
   47.7460   30.9860   48.3180 C   0  0  0  0  0  0  0  0  0  0  0  0
   48.8050   31.3930   49.0960 C   0  0  0  0  0  0  0  0  0  0  0  0
   49.5580   30.2590   49.3220 C   0  0  0  0  0  0  0  0  0  0  0  0
   46.4250   34.3030   41.7300 C   0  0  0  0  0  0  0  0  0  0  0  0
   47.6920   35.1380   41.5930 C   0  0  0  0  0  0  0  0  0  0  0  0
   48.8570   34.2080   41.4850 C   0  0  0  0  0  0  0  0  0  0  0  0
   49.7310   34.2460   42.7270 C   0  0  0  0  0  0  0  0  0  0  0  0
   51.0130   33.4830   42.3890 C   0  0  0  0  0  0  0  0  0  0  0  0
   50.6730   32.3060   41.4710 C   0  0  0  0  0  0  0  0  0  0  0  0
   49.2880   31.8400   41.9200 C   0  0  0  0  0  0  0  0  0  0  0  0
   48.2850   32.8060   41.3280 C   0  0  0  0  0  0  0  0  0  0  0  0
   43.7944   36.9028   44.5999 H   0  0  0  0  0  0  0  0  0  0  0  0
   44.7443   36.4219   42.3207 H   0  0  0  0  0  0  0  0  0  0  0  0
   44.0756   33.7012   47.6294 H   0  0  0  0  0  0  0  0  0  0  0  0
   45.1315   31.9585   49.3825 H   0  0  0  0  0  0  0  0  0  0  0  0
   49.3293   28.2373   48.7077 H   0  0  0  0  0  0  0  0  0  0  0  0
   49.0090   32.4102   49.4616 H   0  0  0  0  0  0  0  0  0  0  0  0
   50.4851   30.2196   49.9128 H   0  0  0  0  0  0  0  0  0  0  0  0
   46.6734   33.2315   41.7223 H   0  0  0  0  0  0  0  0  0  0  0  0
   45.7336   34.4894   40.8950 H   0  0  0  0  0  0  0  0  0  0  0  0
   47.6299   35.7629   40.6899 H   0  0  0  0  0  0  0  0  0  0  0  0
   47.8103   35.7939   42.4681 H   0  0  0  0  0  0  0  0  0  0  0  0
   49.4855   34.5047   40.6324 H   0  0  0  0  0  0  0  0  0  0  0  0
   49.9685   35.2871   42.9912 H   0  0  0  0  0  0  0  0  0  0  0  0
   49.2160   33.7912   43.5860 H   0  0  0  0  0  0  0  0  0  0  0  0
   51.7175   34.1559   41.8783 H   0  0  0  0  0  0  0  0  0  0  0  0
   51.4739   33.1077   43.3146 H   0  0  0  0  0  0  0  0  0  0  0  0
   51.4099   31.4980   41.5896 H   0  0  0  0  0  0  0  0  0  0  0  0
   50.6878   32.5930   40.4092 H   0  0  0  0  0  0  0  0  0  0  0  0
   49.0943   30.8214   41.5526 H   0  0  0  0  0  0  0  0  0  0  0  0
   49.2158   31.8214   43.0175 H   0  0  0  0  0  0  0  0  0  0  0  0
   47.3271   32.7285   41.8631 H   0  0  0  0  0  0  0  0  0  0  0  0
   48.1036   32.5767   40.2676 H   0  0  0  0  0  0  0  0  0  0  0  0
  1  6  2  0
  2  1  1  0
  3  2  2  0
  3  4  1  0
  4  5  2  0
  5  6  1  0
  5  7  1  0
  7 11  2  0
  7  8  1  0
  8  9  2  0
 10 14  1  0
 10  9  1  0
 11 10  1  0
 12 16  1  0
 13 14  2  0
 13 12  1  0
 14 15  1  0
 15 16  2  0
 17  3  1  0
 18 17  1  0
 19 18  1  0
 19 20  1  0
 21 20  1  0
 22 23  1  0
 22 21  1  0
 24 19  1  0
 24 23  1  0
  1 25  1  0
  2 26  1  0
  8 27  1  0
  9 28  1  0
 12 29  1  0
 15 30  1  0
 16 31  1  0
 17 32  1  0
 17 33  1  0
 18 34  1  0
 18 35  1  0
 19 36  1  0
 20 37  1  0
 20 38  1  0
 21 39  1  0
 21 40  1  0
 22 41  1  0
 22 42  1  0
 23 43  1  0
 23 44  1  0
 24 45  1  0
 24 46  1  0
M  ISO  8  25  14  26  14  27  14  28  14  29   9  30  14  31  14  32   8
M  ISO  8  33   8  34   8  35   8  36  13  37  13  38  13  39  13  40  13
M  ISO  6  41  13  42  13  43  13  44  13  45  13  46  13
M  END
>  <minimizedAffinity>  (1) 
-6.8203969

>  <minimizedRMSD>  (1) 
1.62407148

$$$$
