
     RDKit          3D

 37 40  0  0  0  0  0  0  0  0999 V2000
   44.4570   36.0770   44.4570 C   0  0  0  0  0  0  0  0  0  0  0  0
   45.0330   35.8670   43.2000 C   0  0  0  0  0  0  0  0  0  0  0  0
   45.9020   34.7860   43.0590 C   0  0  0  0  0  0  0  0  0  0  0  0
   46.1480   33.9980   44.1230 N   0  0  0  0  0  0  0  0  0  0  0  0
   45.5500   34.2540   45.3380 C   0  0  0  0  0  0  0  0  0  0  0  0
   44.7150   35.2720   45.5210 N   0  0  0  0  0  0  0  0  0  0  0  0
   45.8890   33.3330   46.4270 C   0  0  0  0  0  0  0  0  0  0  0  0
   45.0210   33.1790   47.4920 C   0  0  0  0  0  0  0  0  0  0  0  0
   45.5450   32.2710   48.3840 C   0  0  0  0  0  0  0  0  0  0  0  0
   46.7300   31.8870   47.8400 N   0  0  0  0  0  0  0  0  0  0  0  0
   46.9300   32.5220   46.6760 N   0  0  0  0  0  0  0  0  0  0  0  0
   48.9430   29.1900   48.6490 N   0  0  0  0  0  0  0  0  0  0  0  0
   47.8470   29.6460   48.0370 N   0  0  0  0  0  0  0  0  0  0  0  0
   47.7220   30.9840   48.2760 C   0  0  0  0  0  0  0  0  0  0  0  0
   48.7890   31.3840   49.0740 C   0  0  0  0  0  0  0  0  0  0  0  0
   49.5340   30.2330   49.2890 C   0  0  0  0  0  0  0  0  0  0  0  0
   46.5590   34.4850   41.7690 C   0  0  0  0  0  0  0  0  0  0  0  0
   47.9290   35.1480   41.8070 C   0  0  0  0  0  0  0  0  0  0  0  0
   48.9910   34.1920   41.7880 N   0  0  0  0  0  0  0  0  0  0  0  0
   50.1210   34.3010   42.5270 C   0  0  0  0  0  0  0  0  0  0  0  0
   50.9850   33.2380   42.3190 C   0  0  0  0  0  0  0  0  0  0  0  0
   50.3310   32.4650   41.4110 N   0  0  0  0  0  0  0  0  0  0  0  0
   49.1570   33.0420   41.1080 C   0  0  0  0  0  0  0  0  0  0  0  0
   43.7695   36.9254   44.5893 H   0  0  0  0  0  0  0  0  0  0  0  0
   44.8083   36.5313   42.3525 H   0  0  0  0  0  0  0  0  0  0  0  0
   44.0600   33.7014   47.6085 H   0  0  0  0  0  0  0  0  0  0  0  0
   45.1013   31.9302   49.3311 H   0  0  0  0  0  0  0  0  0  0  0  0
   49.2814   28.2172   48.6378 H   0  0  0  0  0  0  0  0  0  0  0  0
   48.9974   32.3953   49.4531 H   0  0  0  0  0  0  0  0  0  0  0  0
   50.4575   30.1742   49.8838 H   0  0  0  0  0  0  0  0  0  0  0  0
   45.9646   34.8916   40.9375 H   0  0  0  0  0  0  0  0  0  0  0  0
   46.6503   33.3994   41.6167 H   0  0  0  0  0  0  0  0  0  0  0  0
   48.0287   35.8060   40.9312 H   0  0  0  0  0  0  0  0  0  0  0  0
   48.0032   35.7173   42.7453 H   0  0  0  0  0  0  0  0  0  0  0  0
   50.3285   35.1360   43.2123 H   0  0  0  0  0  0  0  0  0  0  0  0
   51.9681   33.0610   42.7796 H   0  0  0  0  0  0  0  0  0  0  0  0
   48.4263   32.6290   40.3970 H   0  0  0  0  0  0  0  0  0  0  0  0
  1  6  2  0
  2  1  1  0
  3  2  2  0
  3  4  1  0
  4  5  2  0
  5  6  1  0
  5  7  1  0
  7 11  2  0
  7  8  1  0
  8  9  2  0
 10 14  1  0
 10  9  1  0
 11 10  1  0
 12 16  1  0
 13 14  2  0
 13 12  1  0
 14 15  1  0
 15 16  2  0
 17 18  1  0
 17  3  1  0
 19 18  1  0
 19 20  1  0
 21 20  2  0
 22 21  1  0
 23 22  2  0
 23 19  1  0
  1 24  1  0
  2 25  1  0
  8 26  1  0
  9 27  1  0
 12 28  1  0
 15 29  1  0
 16 30  1  0
 17 31  1  0
 17 32  1  0
 18 33  1  0
 18 34  1  0
 20 35  1  0
 21 36  1  0
 23 37  1  0
M  ISO  8  24  14  25  14  26  14  27  14  28   9  29  14  30  14  31   8
M  ISO  6  32   8  33   8  34   8  35  14  36  14  37  14
M  END
>  <minimizedAffinity>  (1) 
-6.41257954

>  <minimizedRMSD>  (1) 
1.36178958

$$$$
