
     RDKit          3D

 41 43  0  0  1  0  0  0  0  0999 V2000
   44.5640   35.8220   44.8720 C   0  0  0  0  0  0  0  0  0  0  0  0
   45.2020   35.7940   43.6140 C   0  0  0  0  0  0  0  0  0  0  0  0
   46.0610   34.7440   43.3300 C   0  0  0  0  0  0  0  0  0  0  0  0
   46.2470   33.7920   44.2810 N   0  0  0  0  0  0  0  0  0  0  0  0
   45.6230   33.8470   45.4740 C   0  0  0  0  0  0  0  0  0  0  0  0
   44.7810   34.8590   45.7750 N   0  0  0  0  0  0  0  0  0  0  0  0
   45.8640   32.8000   46.4440 N   0  0  0  0  0  0  0  0  0  0  0  0
   45.1600   32.8190   47.7200 C   0  0  0  0  0  0  0  0  0  0  0  0
   45.9880   32.2680   48.8540 C   0  0  0  0  0  0  0  0  0  0  0  0
   47.4480   32.2690   48.4420 C   0  0  0  0  0  0  0  0  0  0  0  0
   47.5300   31.2310   47.3300 C   0  0  0  0  0  0  0  0  0  0  0  0
   46.7920   31.7510   46.1470 C   0  0  1  0  0  0  0  0  0  0  0  0
   46.1900   30.7000   45.2710 C   0  0  0  0  0  0  0  0  0  0  0  0
   45.3980   31.1850   44.1120 C   0  0  0  0  0  0  0  0  0  0  0  0
   44.7230   29.9690   43.4910 C   0  0  0  0  0  0  0  0  0  0  0  0
   45.4500   28.6740   43.8620 C   0  0  0  0  0  0  0  0  0  0  0  0
   45.3530   28.4110   45.3490 C   0  0  0  0  0  0  0  0  0  0  0  0
   45.3600   29.7340   46.0720 C   0  0  0  0  0  0  0  0  0  0  0  0
   43.8783   36.6474   45.1139 H   0  0  0  0  0  0  0  0  0  0  0  0
   45.0216   36.5882   42.8746 H   0  0  0  0  0  0  0  0  0  0  0  0
   46.5780   34.6832   42.3610 H   0  0  0  0  0  0  0  0  0  0  0  0
   44.8887   33.8586   47.9560 H   0  0  0  0  0  0  0  0  0  0  0  0
   44.2719   32.1781   47.6172 H   0  0  0  0  0  0  0  0  0  0  0  0
   45.8559   32.8965   49.7470 H   0  0  0  0  0  0  0  0  0  0  0  0
   45.6668   31.2418   49.0856 H   0  0  0  0  0  0  0  0  0  0  0  0
   47.7469   33.2606   48.0714 H   0  0  0  0  0  0  0  0  0  0  0  0
   48.1201   32.0374   49.2814 H   0  0  0  0  0  0  0  0  0  0  0  0
   48.5825   31.0546   47.0633 H   0  0  0  0  0  0  0  0  0  0  0  0
   47.0862   30.2820   47.6652 H   0  0  0  0  0  0  0  0  0  0  0  0
   47.5911   32.2115   45.5475 H   0  0  0  0  0  0  0  0  0  0  0  0
   47.0683   30.2009   44.8358 H   0  0  0  0  0  0  0  0  0  0  0  0
   44.6394   31.9068   44.4489 H   0  0  0  0  0  0  0  0  0  0  0  0
   46.0447   31.6906   43.3798 H   0  0  0  0  0  0  0  0  0  0  0  0
   44.7248   30.0791   42.3965 H   0  0  0  0  0  0  0  0  0  0  0  0
   43.6945   29.9103   43.8767 H   0  0  0  0  0  0  0  0  0  0  0  0
   44.9932   27.8349   43.3167 H   0  0  0  0  0  0  0  0  0  0  0  0
   46.5111   28.7747   43.5900 H   0  0  0  0  0  0  0  0  0  0  0  0
   44.4196   27.8726   45.5702 H   0  0  0  0  0  0  0  0  0  0  0  0
   46.2044   27.7976   45.6788 H   0  0  0  0  0  0  0  0  0  0  0  0
   45.7965   29.6090   47.0739 H   0  0  0  0  0  0  0  0  0  0  0  0
   44.3335   30.1136   46.1819 H   0  0  0  0  0  0  0  0  0  0  0  0
  1  6  2  0
  2  1  1  0
  3  2  2  0
  3  4  1  0
  4  5  2  0
  5  6  1  0
  5  7  1  0
  7  8  1  0
  8  9  1  0
 10  9  1  0
 11 10  1  0
 12  7  1  0
 12 11  1  0
 13 18  1  0
 13 12  1  0
 14 13  1  0
 15 16  1  0
 15 14  1  0
 16 17  1  0
 17 18  1  0
  1 19  1  0
  2 20  1  0
  3 21  1  0
  8 22  1  0
  8 23  1  0
  9 24  1  0
  9 25  1  0
 10 26  1  0
 10 27  1  0
 11 28  1  0
 11 29  1  0
 12 30  1  6
 13 31  1  0
 14 32  1  0
 14 33  1  0
 15 34  1  0
 15 35  1  0
 16 36  1  0
 16 37  1  0
 17 38  1  0
 17 39  1  0
 18 40  1  0
 18 41  1  0
M  ISO  8  19  14  20  14  21  14  22  13  23  13  24  13  25  13  26  13
M  ISO  8  27  13  28  13  29  13  30  13  31  13  32  13  33  13  34  13
M  ISO  7  35  13  36  13  37  13  38  13  39  13  40  13  41  13
M  END
>  <minimizedAffinity>  (1) 
-5.10092497

>  <minimizedRMSD>  (1) 
0.411602706

$$$$
