
     RDKit          3D

 40 43  0  0  0  0  0  0  0  0999 V2000
   44.8100   35.9310   43.6130 C   0  0  0  0  0  0  0  0  0  0  0  0
   44.1690   35.4340   42.4590 C   0  0  0  0  0  0  0  0  0  0  0  0
   44.1230   34.0660   42.3000 C   0  0  0  0  0  0  0  0  0  0  0  0
   44.6830   33.2640   43.2370 N   0  0  0  0  0  0  0  0  0  0  0  0
   45.2960   33.7970   44.3450 C   0  0  0  0  0  0  0  0  0  0  0  0
   45.3580   35.1030   44.5270 N   0  0  0  0  0  0  0  0  0  0  0  0
   45.8660   32.8570   45.2910 C   0  0  0  0  0  0  0  0  0  0  0  0
   46.4350   33.3100   46.4700 C   0  0  0  0  0  0  0  0  0  0  0  0
   46.9040   32.2470   47.1990 C   0  0  0  0  0  0  0  0  0  0  0  0
   46.6130   31.1520   46.4530 N   0  0  0  0  0  0  0  0  0  0  0  0
   46.0030   31.5120   45.3290 N   0  0  0  0  0  0  0  0  0  0  0  0
   46.6690   27.6600   47.2460 N   0  0  0  0  0  0  0  0  0  0  0  0
   46.0350   28.8430   47.2680 N   0  0  0  0  0  0  0  0  0  0  0  0
   46.8440   29.7660   46.6680 C   0  0  0  0  0  0  0  0  0  0  0  0
   48.0060   29.1480   46.2610 C   0  0  0  0  0  0  0  0  0  0  0  0
   47.8730   27.8300   46.6330 C   0  0  0  0  0  0  0  0  0  0  0  0
   43.4710   33.4250   41.1210 C   0  0  0  0  0  0  0  0  0  0  0  0
   43.6770   34.3320   39.9370 C   0  0  0  0  0  0  0  0  0  0  0  0
   42.3340   34.5120   39.3200 C   0  0  0  0  0  0  0  0  0  0  0  0
   42.0060   35.3320   38.2870 C   0  0  0  0  0  0  0  0  0  0  0  0
   40.6910   35.3610   37.8510 C   0  0  0  0  0  0  0  0  0  0  0  0
   39.7030   34.5870   38.4270 C   0  0  0  0  0  0  0  0  0  0  0  0
   40.0460   33.7590   39.4730 C   0  0  0  0  0  0  0  0  0  0  0  0
   41.3440   33.7280   39.9060 C   0  0  0  0  0  0  0  0  0  0  0  0
   44.8644   37.0182   43.7716 H   0  0  0  0  0  0  0  0  0  0  0  0
   43.7236   36.1115   41.7156 H   0  0  0  0  0  0  0  0  0  0  0  0
   46.5009   34.3646   46.7758 H   0  0  0  0  0  0  0  0  0  0  0  0
   47.4071   32.2761   48.1768 H   0  0  0  0  0  0  0  0  0  0  0  0
   46.3066   26.7746   47.6277 H   0  0  0  0  0  0  0  0  0  0  0  0
   48.8609   29.6111   45.7465 H   0  0  0  0  0  0  0  0  0  0  0  0
   48.6195   27.0403   46.4626 H   0  0  0  0  0  0  0  0  0  0  0  0
   43.9294   32.4442   40.9262 H   0  0  0  0  0  0  0  0  0  0  0  0
   42.3979   33.2729   41.3087 H   0  0  0  0  0  0  0  0  0  0  0  0
   44.0806   35.3017   40.2639 H   0  0  0  0  0  0  0  0  0  0  0  0
   44.3952   33.9045   39.2218 H   0  0  0  0  0  0  0  0  0  0  0  0
   42.7699   35.9607   37.8062 H   0  0  0  0  0  0  0  0  0  0  0  0
   40.4243   36.0249   37.0154 H   0  0  0  0  0  0  0  0  0  0  0  0
   38.6672   34.6306   38.0594 H   0  0  0  0  0  0  0  0  0  0  0  0
   39.2843   33.1290   39.9555 H   0  0  0  0  0  0  0  0  0  0  0  0
   41.6127   33.0644   40.7412 H   0  0  0  0  0  0  0  0  0  0  0  0
  1  6  2  0
  2  1  1  0
  3  2  2  0
  3  4  1  0
  4  5  2  0
  5  6  1  0
  5  7  1  0
  7 11  2  0
  7  8  1  0
  8  9  2  0
 10 14  1  0
 10  9  1  0
 11 10  1  0
 12 13  1  0
 14 13  2  0
 15 16  2  0
 15 14  1  0
 16 12  1  0
 17  3  1  0
 18 17  1  0
 19 24  1  0
 19 18  1  0
 20 19  2  0
 21 20  1  0
 21 22  2  0
 22 23  1  0
 23 24  2  0
  1 25  1  0
  2 26  1  0
  8 27  1  0
  9 28  1  0
 12 29  1  0
 15 30  1  0
 16 31  1  0
 17 32  1  0
 17 33  1  0
 18 34  1  0
 18 35  1  0
 20 36  1  0
 21 37  1  0
 22 38  1  0
 23 39  1  0
 24 40  1  0
M  ISO  8  25  14  26  14  27  14  28  14  29   9  30  14  31  14  32   8
M  ISO  8  33   8  34   8  35   8  36  14  37  14  38  14  39  14  40  14
M  END
>  <minimizedAffinity>  (1) 
-5.56956291

>  <minimizedRMSD>  (1) 
4.97796679

$$$$
