
     RDKit          3D

 44 47  0  0  0  0  0  0  0  0999 V2000
   44.6240   35.6920   44.2350 C   0  0  0  0  0  0  0  0  0  0  0  0
   44.7250   35.0770   42.9780 C   0  0  0  0  0  0  0  0  0  0  0  0
   45.2230   33.7950   42.9370 C   0  0  0  0  0  0  0  0  0  0  0  0
   45.5910   33.1870   44.0870 N   0  0  0  0  0  0  0  0  0  0  0  0
   45.4720   33.8290   45.2830 C   0  0  0  0  0  0  0  0  0  0  0  0
   44.9990   35.0600   45.3670 N   0  0  0  0  0  0  0  0  0  0  0  0
   45.8950   33.0930   46.4720 C   0  0  0  0  0  0  0  0  0  0  0  0
   45.1070   33.0810   47.6130 C   0  0  0  0  0  0  0  0  0  0  0  0
   45.7150   32.3280   48.5860 C   0  0  0  0  0  0  0  0  0  0  0  0
   46.8610   31.8900   48.0320 N   0  0  0  0  0  0  0  0  0  0  0  0
   46.9780   32.3390   46.7740 N   0  0  0  0  0  0  0  0  0  0  0  0
   49.2360   29.3960   49.0760 N   0  0  0  0  0  0  0  0  0  0  0  0
   48.0940   29.7350   48.4820 N   0  0  0  0  0  0  0  0  0  0  0  0
   47.9210   31.0720   48.5280 C   0  0  0  0  0  0  0  0  0  0  0  0
   49.0070   31.5960   49.1830 C   0  0  0  0  0  0  0  0  0  0  0  0
   49.8110   30.5290   49.5140 C   0  0  0  0  0  0  0  0  0  0  0  0
   45.3800   33.0280   41.6590 C   0  0  0  0  0  0  0  0  0  0  0  0
   46.8320   33.1720   41.2380 C   0  0  0  0  0  0  0  0  0  0  0  0
   47.0360   33.2620   39.8380 N   0  0  0  0  0  0  0  0  0  0  0  0
   47.8570   34.3910   39.4480 C   0  0  0  0  0  0  0  0  0  0  0  0
   48.3640   34.0880   38.0520 C   0  0  0  0  0  0  0  0  0  0  0  0
   47.2320   34.0480   37.1660 N   0  0  0  0  0  0  0  0  0  0  0  0
   46.1930   33.1450   37.5880 C   0  0  0  0  0  0  0  0  0  0  0  0
   45.8460   33.2800   39.0480 C   0  0  0  0  0  0  0  0  0  0  0  0
   44.2287   36.7165   44.2996 H   0  0  0  0  0  0  0  0  0  0  0  0
   44.4178   35.5998   42.0602 H   0  0  0  0  0  0  0  0  0  0  0  0
   44.1414   33.5966   47.7217 H   0  0  0  0  0  0  0  0  0  0  0  0
   45.3448   32.1255   49.6019 H   0  0  0  0  0  0  0  0  0  0  0  0
   49.6098   28.4419   49.1806 H   0  0  0  0  0  0  0  0  0  0  0  0
   49.1971   32.6574   49.4003 H   0  0  0  0  0  0  0  0  0  0  0  0
   50.7692   30.5932   50.0503 H   0  0  0  0  0  0  0  0  0  0  0  0
   45.1358   31.9677   41.8209 H   0  0  0  0  0  0  0  0  0  0  0  0
   44.7031   33.4123   40.8817 H   0  0  0  0  0  0  0  0  0  0  0  0
   47.2347   34.0842   41.7024 H   0  0  0  0  0  0  0  0  0  0  0  0
   47.3440   32.2563   41.5687 H   0  0  0  0  0  0  0  0  0  0  0  0
   47.2581   35.3136   39.4435 H   0  0  0  0  0  0  0  0  0  0  0  0
   48.6894   34.5412   40.1512 H   0  0  0  0  0  0  0  0  0  0  0  0
   49.0624   34.8744   37.7298 H   0  0  0  0  0  0  0  0  0  0  0  0
   48.8932   33.1237   38.0390 H   0  0  0  0  0  0  0  0  0  0  0  0
   47.5592   33.7536   36.2348 H   0  0  0  0  0  0  0  0  0  0  0  0
   45.2900   33.3489   36.9938 H   0  0  0  0  0  0  0  0  0  0  0  0
   46.5667   32.1219   37.4341 H   0  0  0  0  0  0  0  0  0  0  0  0
   45.3160   34.2302   39.2098 H   0  0  0  0  0  0  0  0  0  0  0  0
   45.2033   32.4382   39.3451 H   0  0  0  0  0  0  0  0  0  0  0  0
  1  6  2  0
  2  1  1  0
  3  2  2  0
  3  4  1  0
  4  5  2  0
  5  6  1  0
  5  7  1  0
  7 11  2  0
  7  8  1  0
  8  9  2  0
 10 14  1  0
 10  9  1  0
 11 10  1  0
 12 16  1  0
 13 14  2  0
 13 12  1  0
 14 15  1  0
 15 16  2  0
 17  3  1  0
 18 17  1  0
 19 18  1  0
 20 19  1  0
 21 20  1  0
 22 23  1  0
 22 21  1  0
 23 24  1  0
 24 19  1  0
  1 25  1  0
  2 26  1  0
  8 27  1  0
  9 28  1  0
 12 29  1  0
 15 30  1  0
 16 31  1  0
 17 32  1  0
 17 33  1  0
 18 34  1  0
 18 35  1  0
 20 36  1  0
 20 37  1  0
 21 38  1  0
 21 39  1  0
 22 40  1  0
 23 41  1  0
 23 42  1  0
 24 43  1  0
 24 44  1  0
M  ISO  8  25  14  26  14  27  14  28  14  29   9  30  14  31  14  32   8
M  ISO  8  33   8  34   8  35   8  36  13  37  13  38  13  39  13  40   5
M  ISO  4  41  13  42  13  43  13  44  13
M  END
>  <minimizedAffinity>  (1) 
-6.02089405

>  <minimizedRMSD>  (1) 
1.91310084

$$$$
