
     RDKit          3D

 39 41  0  0  1  0  0  0  0  0999 V2000
   44.5520   35.8320   44.8440 C   0  0  0  0  0  0  0  0  0  0  0  0
   45.2240   35.8360   43.6000 C   0  0  0  0  0  0  0  0  0  0  0  0
   46.1190   34.8140   43.2980 C   0  0  0  0  0  0  0  0  0  0  0  0
   46.2890   33.8540   44.2520 N   0  0  0  0  0  0  0  0  0  0  0  0
   45.6430   33.8660   45.4280 C   0  0  0  0  0  0  0  0  0  0  0  0
   44.7780   34.8460   45.7290 N   0  0  0  0  0  0  0  0  0  0  0  0
   45.8800   32.8060   46.3860 N   0  0  0  0  0  0  0  0  0  0  0  0
   45.1780   32.8030   47.6560 C   0  0  0  0  0  0  0  0  0  0  0  0
   46.0080   32.2650   48.7960 C   0  0  0  0  0  0  0  0  0  0  0  0
   47.4500   32.2570   48.3930 C   0  0  0  0  0  0  0  0  0  0  0  0
   47.5820   31.2600   47.2600 C   0  0  0  0  0  0  0  0  0  0  0  0
   46.8040   31.7670   46.0800 C   0  0  1  0  0  0  0  0  0  0  0  0
   46.2330   30.6080   45.4320 N   0  0  0  0  0  0  0  0  0  0  0  0
   45.3830   29.8070   46.2780 C   0  0  0  0  0  0  0  0  0  0  0  0
   45.1280   28.4930   45.5410 C   0  0  0  0  0  0  0  0  0  0  0  0
   45.3560   28.6040   44.1180 N   0  0  0  0  0  0  0  0  0  0  0  0
   44.7470   29.8420   43.6580 C   0  0  0  0  0  0  0  0  0  0  0  0
   45.5480   30.9960   44.2080 C   0  0  0  0  0  0  0  0  0  0  0  0
   43.8432   36.6370   45.0879 H   0  0  0  0  0  0  0  0  0  0  0  0
   45.0404   36.6425   42.8749 H   0  0  0  0  0  0  0  0  0  0  0  0
   46.6604   34.7821   42.3410 H   0  0  0  0  0  0  0  0  0  0  0  0
   44.8844   33.8358   47.8950 H   0  0  0  0  0  0  0  0  0  0  0  0
   44.3076   32.1395   47.5454 H   0  0  0  0  0  0  0  0  0  0  0  0
   45.8767   32.9050   49.6809 H   0  0  0  0  0  0  0  0  0  0  0  0
   45.6857   31.2414   49.0374 H   0  0  0  0  0  0  0  0  0  0  0  0
   47.7540   33.2583   48.0538 H   0  0  0  0  0  0  0  0  0  0  0  0
   48.0951   31.9800   49.2398 H   0  0  0  0  0  0  0  0  0  0  0  0
   48.6414   31.1499   46.9853 H   0  0  0  0  0  0  0  0  0  0  0  0
   47.1909   30.2811   47.5744 H   0  0  0  0  0  0  0  0  0  0  0  0
   47.4722   32.2875   45.3781 H   0  0  0  0  0  0  0  0  0  0  0  0
   45.8829   29.6106   47.2380 H   0  0  0  0  0  0  0  0  0  0  0  0
   44.4375   30.3278   46.4896 H   0  0  0  0  0  0  0  0  0  0  0  0
   45.8014   27.7240   45.9474 H   0  0  0  0  0  0  0  0  0  0  0  0
   44.0717   28.2250   45.6907 H   0  0  0  0  0  0  0  0  0  0  0  0
   46.3680   28.6207   43.9268 H   0  0  0  0  0  0  0  0  0  0  0  0
   44.7546   29.8743   42.5585 H   0  0  0  0  0  0  0  0  0  0  0  0
   43.7050   29.9040   44.0051 H   0  0  0  0  0  0  0  0  0  0  0  0
   46.2924   31.3078   43.4606 H   0  0  0  0  0  0  0  0  0  0  0  0
   44.8633   31.8269   44.4334 H   0  0  0  0  0  0  0  0  0  0  0  0
  1  6  2  0
  2  1  1  0
  3  2  2  0
  3  4  1  0
  4  5  2  0
  5  6  1  0
  5  7  1  0
  7  8  1  0
  8  9  1  0
 10  9  1  0
 11 10  1  0
 12  7  1  0
 12 11  1  0
 13 12  1  0
 13 14  1  0
 15 14  1  0
 16 15  1  0
 17 16  1  0
 17 18  1  0
 18 13  1  0
  1 19  1  0
  2 20  1  0
  3 21  1  0
  8 22  1  0
  8 23  1  0
  9 24  1  0
  9 25  1  0
 10 26  1  0
 10 27  1  0
 11 28  1  0
 11 29  1  0
 12 30  1  6
 14 31  1  0
 14 32  1  0
 15 33  1  0
 15 34  1  0
 16 35  1  0
 17 36  1  0
 17 37  1  0
 18 38  1  0
 18 39  1  0
M  ISO  8  19  14  20  14  21  14  22  13  23  13  24  13  25  13  26  13
M  ISO  8  27  13  28  13  29  13  30  13  31  13  32  13  33  13  34  13
M  ISO  5  35   5  36  13  37  13  38  13  39  13
M  END
>  <minimizedAffinity>  (1) 
-5.09955311

>  <minimizedRMSD>  (1) 
0.192725196

$$$$
