
     RDKit          3D

 37 40  0  0  0  0  0  0  0  0999 V2000
   44.4610   35.8780   44.6660 C   0  0  0  0  0  0  0  0  0  0  0  0
   45.0320   35.6640   43.3980 C   0  0  0  0  0  0  0  0  0  0  0  0
   45.9090   34.5960   43.2460 C   0  0  0  0  0  0  0  0  0  0  0  0
   46.1670   33.8230   44.3140 N   0  0  0  0  0  0  0  0  0  0  0  0
   45.5960   34.0580   45.5280 C   0  0  0  0  0  0  0  0  0  0  0  0
   44.7520   35.0700   45.7160 N   0  0  0  0  0  0  0  0  0  0  0  0
   45.9530   33.1480   46.6170 C   0  0  0  0  0  0  0  0  0  0  0  0
   45.0880   32.9540   47.6680 C   0  0  0  0  0  0  0  0  0  0  0  0
   45.6450   32.0620   48.5580 C   0  0  0  0  0  0  0  0  0  0  0  0
   46.8360   31.7340   48.0260 N   0  0  0  0  0  0  0  0  0  0  0  0
   47.0300   32.3740   46.8750 N   0  0  0  0  0  0  0  0  0  0  0  0
   49.1690   29.1270   48.8330 N   0  0  0  0  0  0  0  0  0  0  0  0
   48.0640   29.5340   48.2130 N   0  0  0  0  0  0  0  0  0  0  0  0
   47.8740   30.8620   48.4670 C   0  0  0  0  0  0  0  0  0  0  0  0
   48.9060   31.2810   49.2740 C   0  0  0  0  0  0  0  0  0  0  0  0
   49.6970   30.1800   49.4850 C   0  0  0  0  0  0  0  0  0  0  0  0
   46.5470   34.3120   41.9420 C   0  0  0  0  0  0  0  0  0  0  0  0
   47.7580   35.2140   41.8270 C   0  0  0  0  0  0  0  0  0  0  0  0
   49.0390   34.5010   41.5860 C   0  0  0  0  0  0  0  0  0  0  0  0
   50.1320   34.7410   42.6170 C   0  0  0  0  0  0  0  0  0  0  0  0
   49.5040   33.3720   42.4130 C   0  0  0  0  0  0  0  0  0  0  0  0
   43.7646   36.7174   44.8087 H   0  0  0  0  0  0  0  0  0  0  0  0
   44.7913   36.3231   42.5509 H   0  0  0  0  0  0  0  0  0  0  0  0
   44.1054   33.4355   47.7806 H   0  0  0  0  0  0  0  0  0  0  0  0
   45.2098   31.6970   49.5000 H   0  0  0  0  0  0  0  0  0  0  0  0
   49.5537   28.1717   48.8169 H   0  0  0  0  0  0  0  0  0  0  0  0
   49.0651   32.2947   49.6704 H   0  0  0  0  0  0  0  0  0  0  0  0
   50.6155   30.1607   50.0900 H   0  0  0  0  0  0  0  0  0  0  0  0
   46.8573   33.2577   41.8965 H   0  0  0  0  0  0  0  0  0  0  0  0
   45.8441   34.4966   41.1162 H   0  0  0  0  0  0  0  0  0  0  0  0
   47.5898   35.9094   40.9915 H   0  0  0  0  0  0  0  0  0  0  0  0
   47.8616   35.7224   42.7970 H   0  0  0  0  0  0  0  0  0  0  0  0
   48.9059   34.6003   40.4986 H   0  0  0  0  0  0  0  0  0  0  0  0
   51.1667   34.9309   42.2956 H   0  0  0  0  0  0  0  0  0  0  0  0
   50.2790   35.4232   43.4673 H   0  0  0  0  0  0  0  0  0  0  0  0
   48.8440   32.9521   43.1864 H   0  0  0  0  0  0  0  0  0  0  0  0
   49.8966   32.3675   42.1968 H   0  0  0  0  0  0  0  0  0  0  0  0
  1  6  2  0
  2  1  1  0
  3  2  2  0
  3  4  1  0
  4  5  2  0
  5  6  1  0
  5  7  1  0
  7 11  2  0
  7  8  1  0
  8  9  2  0
 10 14  1  0
 10  9  1  0
 11 10  1  0
 12 16  1  0
 13 14  2  0
 13 12  1  0
 14 15  1  0
 15 16  2  0
 17  3  1  0
 18 17  1  0
 19 18  1  0
 19 21  1  0
 19 20  1  0
 21 20  1  0
  1 22  1  0
  2 23  1  0
  8 24  1  0
  9 25  1  0
 12 26  1  0
 15 27  1  0
 16 28  1  0
 17 29  1  0
 17 30  1  0
 18 31  1  0
 18 32  1  0
 19 33  1  0
 20 34  1  0
 20 35  1  0
 21 36  1  0
 21 37  1  0
M  ISO  8  22  14  23  14  24  14  25  14  26   9  27  14  28  14  29   8
M  ISO  8  30   8  31   8  32   8  33  13  34  13  35  13  36  13  37  13
M  END
>  <minimizedAffinity>  (1) 
-6.31186533

>  <minimizedRMSD>  (1) 
0.718164146

$$$$
