
     RDKit          3D

 40 42  0  0  1  0  0  0  0  0999 V2000
   44.5570   35.8390   44.8620 C   0  0  0  0  0  0  0  0  0  0  0  0
   45.1840   35.7670   43.5890 C   0  0  0  0  0  0  0  0  0  0  0  0
   46.0140   34.6910   43.3170 C   0  0  0  0  0  0  0  0  0  0  0  0
   46.1780   33.7640   44.2870 N   0  0  0  0  0  0  0  0  0  0  0  0
   45.5820   33.8410   45.4820 C   0  0  0  0  0  0  0  0  0  0  0  0
   44.7760   34.8690   45.7720 N   0  0  0  0  0  0  0  0  0  0  0  0
   45.8070   32.8100   46.4680 N   0  0  0  0  0  0  0  0  0  0  0  0
   45.1570   32.9120   47.7780 C   0  0  0  0  0  0  0  0  0  0  0  0
   45.9620   32.2940   48.8730 C   0  0  0  0  0  0  0  0  0  0  0  0
   47.4110   32.2260   48.4330 C   0  0  0  0  0  0  0  0  0  0  0  0
   47.4250   31.1720   47.3260 C   0  0  0  0  0  0  0  0  0  0  0  0
   46.6610   31.7040   46.1510 C   0  0  1  0  0  0  0  0  0  0  0  0
   46.0570   30.6970   45.3180 N   0  0  0  0  0  0  0  0  0  0  0  0
   47.1310   30.1550   44.4860 C   0  0  0  0  0  0  0  0  0  0  0  0
   46.5600   28.9840   43.7290 C   0  0  0  0  0  0  0  0  0  0  0  0
   45.0490   29.0490   43.6860 C   0  0  0  0  0  0  0  0  0  0  0  0
   44.4860   28.9180   45.0940 C   0  0  0  0  0  0  0  0  0  0  0  0
   45.4210   29.6290   46.0510 C   0  0  0  0  0  0  0  0  0  0  0  0
   43.8951   36.6835   45.1041 H   0  0  0  0  0  0  0  0  0  0  0  0
   45.0141   36.5494   42.8347 H   0  0  0  0  0  0  0  0  0  0  0  0
   46.5215   34.5947   42.3458 H   0  0  0  0  0  0  0  0  0  0  0  0
   45.0033   33.9757   48.0122 H   0  0  0  0  0  0  0  0  0  0  0  0
   44.2043   32.3654   47.7184 H   0  0  0  0  0  0  0  0  0  0  0  0
   45.8800   32.9062   49.7832 H   0  0  0  0  0  0  0  0  0  0  0  0
   45.5879   31.2821   49.0875 H   0  0  0  0  0  0  0  0  0  0  0  0
   47.7464   33.1999   48.0470 H   0  0  0  0  0  0  0  0  0  0  0  0
   48.0885   31.9719   49.2615 H   0  0  0  0  0  0  0  0  0  0  0  0
   48.4627   30.9604   47.0286 H   0  0  0  0  0  0  0  0  0  0  0  0
   46.9615   30.2417   47.6863 H   0  0  0  0  0  0  0  0  0  0  0  0
   47.4345   32.1358   45.4990 H   0  0  0  0  0  0  0  0  0  0  0  0
   47.4860   30.9220   43.7820 H   0  0  0  0  0  0  0  0  0  0  0  0
   47.9843   29.8412   45.1052 H   0  0  0  0  0  0  0  0  0  0  0  0
   46.9497   28.9964   42.7004 H   0  0  0  0  0  0  0  0  0  0  0  0
   46.8558   28.0575   44.2429 H   0  0  0  0  0  0  0  0  0  0  0  0
   44.7372   30.0124   43.2564 H   0  0  0  0  0  0  0  0  0  0  0  0
   44.6680   28.2250   43.0649 H   0  0  0  0  0  0  0  0  0  0  0  0
   43.4878   29.3780   45.1393 H   0  0  0  0  0  0  0  0  0  0  0  0
   44.3992   27.8565   45.3691 H   0  0  0  0  0  0  0  0  0  0  0  0
   46.1798   28.9269   46.4268 H   0  0  0  0  0  0  0  0  0  0  0  0
   44.8660   30.0263   46.9136 H   0  0  0  0  0  0  0  0  0  0  0  0
  1  6  2  0
  2  1  1  0
  3  2  2  0
  3  4  1  0
  4  5  2  0
  5  6  1  0
  5  7  1  0
  7  8  1  0
  8  9  1  0
 10  9  1  0
 11 10  1  0
 12  7  1  0
 12 11  1  0
 13 18  1  0
 13 12  1  0
 14 13  1  0
 15 14  1  0
 16 15  1  0
 16 17  1  0
 17 18  1  0
  1 19  1  0
  2 20  1  0
  3 21  1  0
  8 22  1  0
  8 23  1  0
  9 24  1  0
  9 25  1  0
 10 26  1  0
 10 27  1  0
 11 28  1  0
 11 29  1  0
 12 30  1  6
 14 31  1  0
 14 32  1  0
 15 33  1  0
 15 34  1  0
 16 35  1  0
 16 36  1  0
 17 37  1  0
 17 38  1  0
 18 39  1  0
 18 40  1  0
M  ISO  8  19  14  20  14  21  14  22  13  23  13  24  13  25  13  26  13
M  ISO  8  27  13  28  13  29  13  30  13  31  13  32  13  33  13  34  13
M  ISO  6  35  13  36  13  37  13  38  13  39  13  40  13
M  END
>  <minimizedAffinity>  (1) 
-5.04977989

>  <minimizedRMSD>  (1) 
0.24862437

$$$$
