
     RDKit          3D

 50 54  0  0  1  0  0  0  0  0999 V2000
   44.4550   35.9740   44.5370 C   0  0  0  0  0  0  0  0  0  0  0  0
   45.1030   35.8040   43.3060 C   0  0  0  0  0  0  0  0  0  0  0  0
   46.0270   34.7730   43.1760 C   0  0  0  0  0  0  0  0  0  0  0  0
   46.2590   33.9810   44.2360 N   0  0  0  0  0  0  0  0  0  0  0  0
   45.6150   34.1700   45.4150 C   0  0  0  0  0  0  0  0  0  0  0  0
   44.7200   35.1490   45.5840 N   0  0  0  0  0  0  0  0  0  0  0  0
   45.9370   33.2540   46.5090 C   0  0  0  0  0  0  0  0  0  0  0  0
   45.0570   33.0670   47.5500 C   0  0  0  0  0  0  0  0  0  0  0  0
   45.5940   32.1630   48.4420 C   0  0  0  0  0  0  0  0  0  0  0  0
   46.7950   31.8190   47.9210 N   0  0  0  0  0  0  0  0  0  0  0  0
   46.9980   32.4650   46.7770 N   0  0  0  0  0  0  0  0  0  0  0  0
   49.0760   29.1830   48.7480 N   0  0  0  0  0  0  0  0  0  0  0  0
   47.9930   29.6150   48.1220 N   0  0  0  0  0  0  0  0  0  0  0  0
   47.8080   30.9370   48.3710 C   0  0  0  0  0  0  0  0  0  0  0  0
   48.8300   31.3320   49.1890 C   0  0  0  0  0  0  0  0  0  0  0  0
   49.6010   30.2210   49.4070 C   0  0  0  0  0  0  0  0  0  0  0  0
   46.7470   34.5380   41.9030 C   0  0  0  0  0  0  0  0  0  0  0  0
   48.0140   35.3470   41.9460 C   0  0  0  0  0  0  0  0  0  0  0  0
   49.2390   34.6140   41.5140 C   0  0  1  0  0  0  0  0  0  0  0  0
   50.1400   34.1030   42.6410 C   0  0  0  0  0  0  0  0  0  0  0  0
   49.4080   33.1740   41.7400 C   0  0  2  0  0  0  0  0  0  0  0  0
   50.0760   32.3780   40.7460 N   0  0  0  0  0  0  0  0  0  0  0  0
   51.3500   32.0240   41.0060 C   0  0  0  0  0  0  0  0  0  0  0  0
   52.0220   31.2510   40.0550 C   0  0  0  0  0  0  0  0  0  0  0  0
   53.4390   30.8080   40.2550 C   0  0  0  0  0  0  0  0  0  0  0  0
   51.3560   30.8770   38.8830 C   0  0  0  0  0  0  0  0  0  0  0  0
   51.9380   30.1700   37.9920 O   0  0  0  0  0  0  0  0  0  0  0  0
   50.0810   31.2380   38.6370 N   0  0  0  0  0  0  0  0  0  0  0  0
   49.4630   31.9920   39.5890 C   0  0  0  0  0  0  0  0  0  0  0  0
   48.2640   32.3730   39.4320 O   0  0  0  0  0  0  0  0  0  0  0  0
   43.7224   36.7857   44.6573 H   0  0  0  0  0  0  0  0  0  0  0  0
   44.8851   36.4724   42.4600 H   0  0  0  0  0  0  0  0  0  0  0  0
   44.0795   33.5607   47.6542 H   0  0  0  0  0  0  0  0  0  0  0  0
   45.1429   31.7992   49.3770 H   0  0  0  0  0  0  0  0  0  0  0  0
   49.4468   28.2222   48.7307 H   0  0  0  0  0  0  0  0  0  0  0  0
   48.9994   32.3414   49.5919 H   0  0  0  0  0  0  0  0  0  0  0  0
   50.5092   30.1880   50.0268 H   0  0  0  0  0  0  0  0  0  0  0  0
   46.1248   34.8589   41.0545 H   0  0  0  0  0  0  0  0  0  0  0  0
   46.9733   33.4690   41.7768 H   0  0  0  0  0  0  0  0  0  0  0  0
   47.8862   36.2183   41.2868 H   0  0  0  0  0  0  0  0  0  0  0  0
   48.1717   35.6196   42.9999 H   0  0  0  0  0  0  0  0  0  0  0  0
   49.3286   35.2416   40.6150 H   0  0  0  0  0  0  0  0  0  0  0  0
   51.2329   34.2026   42.5662 H   0  0  0  0  0  0  0  0  0  0  0  0
   50.2073   34.2575   43.7280 H   0  0  0  0  0  0  0  0  0  0  0  0
   48.7316   32.3281   41.9323 H   0  0  0  0  0  0  0  0  0  0  0  0
   51.8457   32.3338   41.9378 H   0  0  0  0  0  0  0  0  0  0  0  0
   53.6537   30.7409   41.3318 H   0  0  0  0  0  0  0  0  0  0  0  0
   53.5839   29.8217   39.7900 H   0  0  0  0  0  0  0  0  0  0  0  0
   54.1199   31.5361   39.7900 H   0  0  0  0  0  0  0  0  0  0  0  0
   49.5975   30.9577   37.7718 H   0  0  0  0  0  0  0  0  0  0  0  0
  1  6  2  0
  2  1  1  0
  3  2  2  0
  3  4  1  0
  4  5  2  0
  5  6  1  0
  5  7  1  0
  7 11  2  0
  7  8  1  0
  8  9  2  0
 10 14  1  0
 10  9  1  0
 11 10  1  0
 12 16  1  0
 13 14  2  0
 13 12  1  0
 14 15  1  0
 15 16  2  0
 17 18  1  0
 17  3  1  0
 19 21  1  0
 19 18  1  0
 19 20  1  0
 21 20  1  0
 22 23  1  0
 22 21  1  0
 24 25  1  0
 24 23  2  0
 26 24  1  0
 27 26  2  0
 28 26  1  0
 28 29  1  0
 29 22  1  0
 30 29  2  0
  1 31  1  0
  2 32  1  0
  8 33  1  0
  9 34  1  0
 12 35  1  0
 15 36  1  0
 16 37  1  0
 17 38  1  0
 17 39  1  0
 18 40  1  0
 18 41  1  0
 19 42  1  6
 20 43  1  0
 20 44  1  0
 21 45  1  1
 23 46  1  0
 25 47  1  0
 25 48  1  0
 25 49  1  0
 28 50  1  0
M  ISO  8  31  14  32  14  33  14  34  14  35   9  36  14  37  14  38   8
M  ISO  8  39   8  40   8  41   8  42  13  43  13  44  13  45  13  46  14
M  ISO  4  47   8  48   8  49   8  50   9
M  END
>  <minimizedAffinity>  (1) 
-7.26428318

>  <minimizedRMSD>  (1) 
1.27361465

$$$$
