
     RDKit          3D

 45 49  0  0  1  0  0  0  0  0999 V2000
   44.4220   35.9180   44.7240 C   0  0  0  0  0  0  0  0  0  0  0  0
   45.0190   35.7380   43.4590 C   0  0  0  0  0  0  0  0  0  0  0  0
   45.9080   34.6920   43.2900 C   0  0  0  0  0  0  0  0  0  0  0  0
   46.1600   33.8970   44.3450 N   0  0  0  0  0  0  0  0  0  0  0  0
   45.5710   34.0920   45.5560 C   0  0  0  0  0  0  0  0  0  0  0  0
   44.7050   35.0920   45.7600 N   0  0  0  0  0  0  0  0  0  0  0  0
   45.9180   33.1670   46.6330 C   0  0  0  0  0  0  0  0  0  0  0  0
   45.0610   32.9460   47.6720 C   0  0  0  0  0  0  0  0  0  0  0  0
   45.6080   32.0460   48.5470 C   0  0  0  0  0  0  0  0  0  0  0  0
   46.8050   31.7270   48.0190 N   0  0  0  0  0  0  0  0  0  0  0  0
   47.0000   32.3890   46.8790 N   0  0  0  0  0  0  0  0  0  0  0  0
   49.1510   29.1190   48.7920 N   0  0  0  0  0  0  0  0  0  0  0  0
   48.0400   29.5370   48.1790 N   0  0  0  0  0  0  0  0  0  0  0  0
   47.8440   30.8520   48.4460 C   0  0  0  0  0  0  0  0  0  0  0  0
   48.8740   31.2500   49.2520 C   0  0  0  0  0  0  0  0  0  0  0  0
   49.6740   30.1620   49.4560 C   0  0  0  0  0  0  0  0  0  0  0  0
   46.5710   34.4430   41.9920 C   0  0  0  0  0  0  0  0  0  0  0  0
   47.7780   35.3630   41.9230 C   0  0  0  0  0  0  0  0  0  0  0  0
   49.0190   34.6890   41.4660 C   0  0  1  0  0  0  0  0  0  0  0  0
   50.1010   34.5070   42.5290 C   0  0  0  0  0  0  0  0  0  0  0  0
   49.3910   33.3280   41.8660 C   0  0  2  0  0  0  0  0  0  0  0  0
   50.2000   32.4390   40.9970 C   0  0  0  0  0  0  0  0  0  0  0  0
   49.6880   31.8410   39.8550 C   0  0  0  0  0  0  0  0  0  0  0  0
   50.4480   31.0140   39.0490 C   0  0  0  0  0  0  0  0  0  0  0  0
   51.7340   30.7620   39.3590 N   0  0  0  0  0  0  0  0  0  0  0  0
   52.2400   31.3480   40.4820 C   0  0  0  0  0  0  0  0  0  0  0  0
   51.4970   32.1670   41.2840 N   0  0  0  0  0  0  0  0  0  0  0  0
   43.7125   36.7454   44.8725 H   0  0  0  0  0  0  0  0  0  0  0  0
   44.7827   36.4149   42.6248 H   0  0  0  0  0  0  0  0  0  0  0  0
   44.0758   33.4210   47.7892 H   0  0  0  0  0  0  0  0  0  0  0  0
   45.1654   31.6658   49.4795 H   0  0  0  0  0  0  0  0  0  0  0  0
   49.5380   28.1650   48.7607 H   0  0  0  0  0  0  0  0  0  0  0  0
   49.0296   32.2594   49.6605 H   0  0  0  0  0  0  0  0  0  0  0  0
   50.5918   30.1435   50.0620 H   0  0  0  0  0  0  0  0  0  0  0  0
   46.8927   33.3931   41.9280 H   0  0  0  0  0  0  0  0  0  0  0  0
   45.8821   34.6377   41.1568 H   0  0  0  0  0  0  0  0  0  0  0  0
   47.5506   36.1818   41.2246 H   0  0  0  0  0  0  0  0  0  0  0  0
   47.9662   35.7222   42.9455 H   0  0  0  0  0  0  0  0  0  0  0  0
   48.9210   35.1507   40.4724 H   0  0  0  0  0  0  0  0  0  0  0  0
   51.1535   34.7262   42.2960 H   0  0  0  0  0  0  0  0  0  0  0  0
   50.2670   34.8551   43.5592 H   0  0  0  0  0  0  0  0  0  0  0  0
   48.7971   32.4642   42.1993 H   0  0  0  0  0  0  0  0  0  0  0  0
   48.6399   32.0316   39.5809 H   0  0  0  0  0  0  0  0  0  0  0  0
   50.0010   30.5606   38.1520 H   0  0  0  0  0  0  0  0  0  0  0  0
   53.2883   31.1533   40.7526 H   0  0  0  0  0  0  0  0  0  0  0  0
  1  6  2  0
  2  1  1  0
  3  2  2  0
  3  4  1  0
  4  5  2  0
  5  6  1  0
  5  7  1  0
  7 11  2  0
  7  8  1  0
  8  9  2  0
 10 14  1  0
 10  9  1  0
 11 10  1  0
 12 16  1  0
 13 14  2  0
 13 12  1  0
 14 15  1  0
 15 16  2  0
 17  3  1  0
 18 17  1  0
 19 21  1  0
 19 18  1  0
 19 20  1  0
 21 20  1  0
 22 27  1  0
 22 21  1  0
 23 22  2  0
 24 25  2  0
 24 23  1  0
 25 26  1  0
 26 27  2  0
  1 28  1  0
  2 29  1  0
  8 30  1  0
  9 31  1  0
 12 32  1  0
 15 33  1  0
 16 34  1  0
 17 35  1  0
 17 36  1  0
 18 37  1  0
 18 38  1  0
 19 39  1  6
 20 40  1  0
 20 41  1  0
 21 42  1  1
 23 43  1  0
 24 44  1  0
 26 45  1  0
M  ISO  8  28  14  29  14  30  14  31  14  32   9  33  14  34  14  35   8
M  ISO  8  36   8  37   8  38   8  39  13  40  13  41  13  42  13  43  14
M  ISO  2  44  14  45  14
M  END
>  <minimizedAffinity>  (1) 
-6.97617626

>  <minimizedRMSD>  (1) 
0.637076914

$$$$
