
     RDKit          3D

 53 57  0  0  1  0  0  0  0  0999 V2000
   44.4410   36.1170   44.4980 C   0  0  0  0  0  0  0  0  0  0  0  0
   45.0230   35.9050   43.2370 C   0  0  0  0  0  0  0  0  0  0  0  0
   45.8770   34.8280   43.0890 C   0  0  0  0  0  0  0  0  0  0  0  0
   46.1110   34.0380   44.1460 N   0  0  0  0  0  0  0  0  0  0  0  0
   45.5350   34.2660   45.3510 C   0  0  0  0  0  0  0  0  0  0  0  0
   44.7070   35.2900   45.5400 N   0  0  0  0  0  0  0  0  0  0  0  0
   45.8570   33.3480   46.4340 C   0  0  0  0  0  0  0  0  0  0  0  0
   44.9980   33.1930   47.4970 C   0  0  0  0  0  0  0  0  0  0  0  0
   45.5340   32.2730   48.3790 C   0  0  0  0  0  0  0  0  0  0  0  0
   46.6980   31.8940   47.8320 N   0  0  0  0  0  0  0  0  0  0  0  0
   46.9070   32.5220   46.6770 N   0  0  0  0  0  0  0  0  0  0  0  0
   48.9450   29.1990   48.6070 N   0  0  0  0  0  0  0  0  0  0  0  0
   47.8550   29.6510   48.0000 N   0  0  0  0  0  0  0  0  0  0  0  0
   47.7060   30.9740   48.2570 C   0  0  0  0  0  0  0  0  0  0  0  0
   48.7570   31.3560   49.0620 C   0  0  0  0  0  0  0  0  0  0  0  0
   49.5100   30.2190   49.2600 C   0  0  0  0  0  0  0  0  0  0  0  0
   46.5220   34.5510   41.7870 C   0  0  0  0  0  0  0  0  0  0  0  0
   47.9010   35.1860   41.8210 C   0  0  0  0  0  0  0  0  0  0  0  0
   49.0190   34.2380   41.5780 C   0  0  1  0  0  0  0  0  0  0  0  0
   50.1870   34.3260   42.5680 C   0  0  0  0  0  0  0  0  0  0  0  0
   49.3180   33.1120   42.4960 C   0  0  2  0  0  0  0  0  0  0  0  0
   49.7980   31.7720   42.0190 C   0  0  0  0  0  0  0  0  0  0  0  0
   51.2530   31.5740   41.9940 C   0  0  0  0  0  0  0  0  0  0  0  0
   51.9140   31.7230   40.6550 C   0  0  0  0  0  0  0  0  0  0  0  0
   51.1450   31.0330   39.5480 C   0  0  0  0  0  0  0  0  0  0  0  0
   49.7930   31.7140   39.4990 C   0  0  0  0  0  0  0  0  0  0  0  0
   49.0800   31.3140   40.7680 C   0  0  0  0  0  0  0  0  0  0  0  0
   43.7585   36.9674   44.6428 H   0  0  0  0  0  0  0  0  0  0  0  0
   44.8057   36.5759   42.3928 H   0  0  0  0  0  0  0  0  0  0  0  0
   44.0391   33.7166   47.6248 H   0  0  0  0  0  0  0  0  0  0  0  0
   45.0983   31.9259   49.3275 H   0  0  0  0  0  0  0  0  0  0  0  0
   49.2947   28.2306   48.5796 H   0  0  0  0  0  0  0  0  0  0  0  0
   48.9542   32.3609   49.4636 H   0  0  0  0  0  0  0  0  0  0  0  0
   50.4300   30.1603   49.8602 H   0  0  0  0  0  0  0  0  0  0  0  0
   45.9266   34.9878   40.9717 H   0  0  0  0  0  0  0  0  0  0  0  0
   46.5968   33.4675   41.6126 H   0  0  0  0  0  0  0  0  0  0  0  0
   47.9389   35.9680   41.0484 H   0  0  0  0  0  0  0  0  0  0  0  0
   48.0398   35.5813   42.8381 H   0  0  0  0  0  0  0  0  0  0  0  0
   48.8586   34.2865   40.4908 H   0  0  0  0  0  0  0  0  0  0  0  0
   51.2247   34.2865   42.2051 H   0  0  0  0  0  0  0  0  0  0  0  0
   50.4957   35.0255   43.3588 H   0  0  0  0  0  0  0  0  0  0  0  0
   48.7345   32.5459   43.2370 H   0  0  0  0  0  0  0  0  0  0  0  0
   49.4989   31.0792   42.8194 H   0  0  0  0  0  0  0  0  0  0  0  0
   51.7046   32.3095   42.6760 H   0  0  0  0  0  0  0  0  0  0  0  0
   51.4151   30.5270   42.2900 H   0  0  0  0  0  0  0  0  0  0  0  0
   51.9904   32.7942   40.4167 H   0  0  0  0  0  0  0  0  0  0  0  0
   52.9054   31.2506   40.7176 H   0  0  0  0  0  0  0  0  0  0  0  0
   51.6681   31.1502   38.5875 H   0  0  0  0  0  0  0  0  0  0  0  0
   51.0482   29.9532   39.7342 H   0  0  0  0  0  0  0  0  0  0  0  0
   49.9164   32.8063   39.4579 H   0  0  0  0  0  0  0  0  0  0  0  0
   49.2239   31.4165   38.6059 H   0  0  0  0  0  0  0  0  0  0  0  0
   48.0734   31.7575   40.7593 H   0  0  0  0  0  0  0  0  0  0  0  0
   49.0441   30.2149   40.7929 H   0  0  0  0  0  0  0  0  0  0  0  0
  1  6  2  0
  2  1  1  0
  3  2  2  0
  3  4  1  0
  4  5  2  0
  5  6  1  0
  5  7  1  0
  7 11  2  0
  7  8  1  0
  8  9  2  0
 10 14  1  0
 10  9  1  0
 11 10  1  0
 12 16  1  0
 13 14  2  0
 13 12  1  0
 14 15  1  0
 15 16  2  0
 17 18  1  0
 17  3  1  0
 19 18  1  0
 19 21  1  0
 19 20  1  0
 21 20  1  0
 22 21  1  0
 23 22  1  0
 24 23  1  0
 25 24  1  0
 26 25  1  0
 26 27  1  0
 27 22  1  0
  1 28  1  0
  2 29  1  0
  8 30  1  0
  9 31  1  0
 12 32  1  0
 15 33  1  0
 16 34  1  0
 17 35  1  0
 17 36  1  0
 18 37  1  0
 18 38  1  0
 19 39  1  6
 20 40  1  0
 20 41  1  0
 21 42  1  1
 22 43  1  0
 23 44  1  0
 23 45  1  0
 24 46  1  0
 24 47  1  0
 25 48  1  0
 25 49  1  0
 26 50  1  0
 26 51  1  0
 27 52  1  0
 27 53  1  0
M  ISO  8  28  14  29  14  30  14  31  14  32   9  33  14  34  14  35   8
M  ISO  8  36   8  37   8  38   8  39  13  40  13  41  13  42  13  43  13
M  ISO  8  44  13  45  13  46  13  47  13  48  13  49  13  50  13  51  13
M  ISO  2  52  13  53  13
M  END
>  <minimizedAffinity>  (1) 
-6.89185619

>  <minimizedRMSD>  (1) 
0.462807983

$$$$
