
     RDKit          3D

 36 39  0  0  1  0  0  0  0  0999 V2000
   44.6430   35.1570   45.8200 C   0  0  0  0  0  0  0  0  0  0  0  0
   44.5700   36.0410   44.7100 C   0  0  0  0  0  0  0  0  0  0  0  0
   45.0010   35.5630   43.4690 C   0  0  0  0  0  0  0  0  0  0  0  0
   45.4600   34.2810   43.4090 N   0  0  0  0  0  0  0  0  0  0  0  0
   45.5180   33.4680   44.4690 C   0  0  0  0  0  0  0  0  0  0  0  0
   45.1120   33.9030   45.6710 N   0  0  0  0  0  0  0  0  0  0  0  0
   45.9930   32.1340   44.3100 N   0  0  0  0  0  0  0  0  0  0  0  0
   46.0460   31.2470   45.4890 C   0  0  0  0  0  0  0  0  0  0  0  0
   47.1410   30.2400   45.4290 C   0  0  0  0  0  0  0  0  0  0  0  0
   48.1950   30.7500   44.4580 C   0  0  0  0  0  0  0  0  0  0  0  0
   47.5570   30.6870   43.0990 C   0  0  0  0  0  0  0  0  0  0  0  0
   46.4080   31.6430   43.0350 C   0  0  2  0  0  0  0  0  0  0  0  0
   46.6880   32.6780   42.0610 N   0  0  0  0  0  0  0  0  0  0  0  0
   45.9990   32.9650   40.9150 C   0  0  0  0  0  0  0  0  0  0  0  0
   46.5630   33.9900   40.2660 N   0  0  0  0  0  0  0  0  0  0  0  0
   47.6220   34.3810   40.9790 C   0  0  0  0  0  0  0  0  0  0  0  0
   48.5360   35.4030   40.7330 C   0  0  0  0  0  0  0  0  0  0  0  0
   49.5310   35.5920   41.6270 N   0  0  0  0  0  0  0  0  0  0  0  0
   49.6200   34.7970   42.7280 C   0  0  0  0  0  0  0  0  0  0  0  0
   48.7110   33.8130   42.9330 N   0  0  0  0  0  0  0  0  0  0  0  0
   47.7040   33.5580   42.1080 C   0  0  0  0  0  0  0  0  0  0  0  0
   44.3130   35.5003   46.8116 H   0  0  0  0  0  0  0  0  0  0  0  0
   44.1875   37.0661   44.8233 H   0  0  0  0  0  0  0  0  0  0  0  0
   44.9708   36.1993   42.5722 H   0  0  0  0  0  0  0  0  0  0  0  0
   46.1934   31.8680   46.3849 H   0  0  0  0  0  0  0  0  0  0  0  0
   45.0975   30.6906   45.5168 H   0  0  0  0  0  0  0  0  0  0  0  0
   47.5844   30.1106   46.4273 H   0  0  0  0  0  0  0  0  0  0  0  0
   46.7493   29.2687   45.0927 H   0  0  0  0  0  0  0  0  0  0  0  0
   48.4743   31.7853   44.7034 H   0  0  0  0  0  0  0  0  0  0  0  0
   49.1152   30.1491   44.5038 H   0  0  0  0  0  0  0  0  0  0  0  0
   48.2998   30.9567   42.3338 H   0  0  0  0  0  0  0  0  0  0  0  0
   47.1911   29.6659   42.9160 H   0  0  0  0  0  0  0  0  0  0  0  0
   45.5231   31.0897   42.6876 H   0  0  0  0  0  0  0  0  0  0  0  0
   45.1029   32.4263   40.5733 H   0  0  0  0  0  0  0  0  0  0  0  0
   48.4502   36.0368   39.8381 H   0  0  0  0  0  0  0  0  0  0  0  0
   50.4319   34.9535   43.4534 H   0  0  0  0  0  0  0  0  0  0  0  0
  2  1  2  0
  3  2  1  0
  4  3  2  0
  4  5  1  0
  5  6  2  0
  6  1  1  0
  7  5  1  0
  7  8  1  0
  9  8  1  0
 10  9  1  0
 11 10  1  0
 12 11  1  0
 12  7  1  0
 13 21  1  0
 13 12  1  0
 14 13  1  0
 15 14  2  0
 15 16  1  0
 16 21  2  0
 17 16  1  0
 17 18  2  0
 18 19  1  0
 19 20  2  0
 21 20  1  0
  1 22  1  0
  2 23  1  0
  3 24  1  0
  8 25  1  0
  8 26  1  0
  9 27  1  0
  9 28  1  0
 10 29  1  0
 10 30  1  0
 11 31  1  0
 11 32  1  0
 12 33  1  6
 14 34  1  0
 17 35  1  0
 19 36  1  0
M  ISO  8  22  14  23  14  24  14  25  13  26  13  27  13  28  13  29  13
M  ISO  7  30  13  31  13  32  13  33  13  34  14  35  14  36  14
M  END
>  <minimizedAffinity>  (1) 
-5.04855347

>  <minimizedRMSD>  (1) 
2.74542332

$$$$
