
     RDKit          3D

 44 48  0  0  1  0  0  0  0  0999 V2000
   44.4180   35.9360   44.7090 C   0  0  0  0  0  0  0  0  0  0  0  0
   45.0090   35.7580   43.4560 C   0  0  0  0  0  0  0  0  0  0  0  0
   45.8990   34.7160   43.2800 C   0  0  0  0  0  0  0  0  0  0  0  0
   46.1520   33.9220   44.3320 N   0  0  0  0  0  0  0  0  0  0  0  0
   45.5680   34.1130   45.5370 C   0  0  0  0  0  0  0  0  0  0  0  0
   44.7050   35.1100   45.7400 N   0  0  0  0  0  0  0  0  0  0  0  0
   45.9240   33.1770   46.6170 C   0  0  0  0  0  0  0  0  0  0  0  0
   45.0540   32.9630   47.6580 C   0  0  0  0  0  0  0  0  0  0  0  0
   45.6130   32.0510   48.5320 C   0  0  0  0  0  0  0  0  0  0  0  0
   46.8050   31.7370   48.0010 N   0  0  0  0  0  0  0  0  0  0  0  0
   46.9990   32.4040   46.8600 N   0  0  0  0  0  0  0  0  0  0  0  0
   49.1420   29.1150   48.7460 N   0  0  0  0  0  0  0  0  0  0  0  0
   48.0450   29.5370   48.1410 N   0  0  0  0  0  0  0  0  0  0  0  0
   47.8440   30.8610   48.4230 C   0  0  0  0  0  0  0  0  0  0  0  0
   48.8680   31.2580   49.2360 C   0  0  0  0  0  0  0  0  0  0  0  0
   49.6600   30.1500   49.4210 C   0  0  0  0  0  0  0  0  0  0  0  0
   46.5560   34.4750   41.9800 C   0  0  0  0  0  0  0  0  0  0  0  0
   47.7910   35.3420   41.9140 C   0  0  0  0  0  0  0  0  0  0  0  0
   49.0220   34.6530   41.4420 C   0  0  1  0  0  0  0  0  0  0  0  0
   50.0830   34.3920   42.5120 C   0  0  0  0  0  0  0  0  0  0  0  0
   49.3460   33.2690   41.8220 C   0  0  2  0  0  0  0  0  0  0  0  0
   50.1580   32.4090   41.0170 N   0  0  0  0  0  0  0  0  0  0  0  0
   51.4110   32.0980   41.4250 C   0  0  0  0  0  0  0  0  0  0  0  0
   51.9890   31.2540   40.4760 C   0  0  0  0  0  0  0  0  0  0  0  0
   51.0790   31.0670   39.5100 N   0  0  0  0  0  0  0  0  0  0  0  0
   49.9750   31.7660   39.8420 C   0  0  0  0  0  0  0  0  0  0  0  0
   43.7073   36.7620   44.8594 H   0  0  0  0  0  0  0  0  0  0  0  0
   44.7699   36.4360   42.6234 H   0  0  0  0  0  0  0  0  0  0  0  0
   44.0704   33.4409   47.7766 H   0  0  0  0  0  0  0  0  0  0  0  0
   45.1748   31.6646   49.4641 H   0  0  0  0  0  0  0  0  0  0  0  0
   49.5292   28.1614   48.7057 H   0  0  0  0  0  0  0  0  0  0  0  0
   49.0265   32.2617   49.6573 H   0  0  0  0  0  0  0  0  0  0  0  0
   50.5764   30.1180   50.0286 H   0  0  0  0  0  0  0  0  0  0  0  0
   46.8387   33.4153   41.8953 H   0  0  0  0  0  0  0  0  0  0  0  0
   45.8718   34.7206   41.1544 H   0  0  0  0  0  0  0  0  0  0  0  0
   47.5844   36.1776   41.2290 H   0  0  0  0  0  0  0  0  0  0  0  0
   47.9960   35.6617   42.9464 H   0  0  0  0  0  0  0  0  0  0  0  0
   48.9556   35.1505   40.4632 H   0  0  0  0  0  0  0  0  0  0  0  0
   51.1462   34.5740   42.2964 H   0  0  0  0  0  0  0  0  0  0  0  0
   50.2487   34.7057   43.5532 H   0  0  0  0  0  0  0  0  0  0  0  0
   48.6968   32.4272   42.1049 H   0  0  0  0  0  0  0  0  0  0  0  0
   51.8922   32.4512   42.3489 H   0  0  0  0  0  0  0  0  0  0  0  0
   53.0005   30.8234   40.5136 H   0  0  0  0  0  0  0  0  0  0  0  0
   49.0545   31.8073   39.2411 H   0  0  0  0  0  0  0  0  0  0  0  0
  1  6  2  0
  2  1  1  0
  3  2  2  0
  3  4  1  0
  4  5  2  0
  5  6  1  0
  5  7  1  0
  7 11  2  0
  7  8  1  0
  8  9  2  0
 10 14  1  0
 10  9  1  0
 11 10  1  0
 12 16  1  0
 13 14  2  0
 13 12  1  0
 14 15  1  0
 15 16  2  0
 17  3  1  0
 18 17  1  0
 19 21  1  0
 19 18  1  0
 19 20  1  0
 21 20  1  0
 22 23  1  0
 22 21  1  0
 24 23  2  0
 25 26  2  0
 25 24  1  0
 26 22  1  0
  1 27  1  0
  2 28  1  0
  8 29  1  0
  9 30  1  0
 12 31  1  0
 15 32  1  0
 16 33  1  0
 17 34  1  0
 17 35  1  0
 18 36  1  0
 18 37  1  0
 19 38  1  6
 20 39  1  0
 20 40  1  0
 21 41  1  1
 23 42  1  0
 24 43  1  0
 26 44  1  0
M  ISO  8  27  14  28  14  29  14  30  14  31   9  32  14  33  14  34   8
M  ISO  8  35   8  36   8  37   8  38  13  39  13  40  13  41  13  42  14
M  ISO  2  43  14  44  14
M  END
>  <minimizedAffinity>  (1) 
-6.8208437

>  <minimizedRMSD>  (1) 
0.59494704

$$$$
