
     RDKit          3D

 43 47  0  0  1  0  0  0  0  0999 V2000
   44.4200   35.9220   44.7270 C   0  0  0  0  0  0  0  0  0  0  0  0
   45.0060   35.7480   43.4670 C   0  0  0  0  0  0  0  0  0  0  0  0
   45.8990   34.6950   43.2920 C   0  0  0  0  0  0  0  0  0  0  0  0
   46.1500   33.9050   44.3430 N   0  0  0  0  0  0  0  0  0  0  0  0
   45.5650   34.0990   45.5540 C   0  0  0  0  0  0  0  0  0  0  0  0
   44.7100   35.0920   45.7560 N   0  0  0  0  0  0  0  0  0  0  0  0
   45.9200   33.1670   46.6280 C   0  0  0  0  0  0  0  0  0  0  0  0
   45.0580   32.9500   47.6750 C   0  0  0  0  0  0  0  0  0  0  0  0
   45.6150   32.0430   48.5430 C   0  0  0  0  0  0  0  0  0  0  0  0
   46.8030   31.7260   48.0070 N   0  0  0  0  0  0  0  0  0  0  0  0
   47.0000   32.3830   46.8710 N   0  0  0  0  0  0  0  0  0  0  0  0
   49.1290   29.1010   48.7510 N   0  0  0  0  0  0  0  0  0  0  0  0
   48.0230   29.5150   48.1360 N   0  0  0  0  0  0  0  0  0  0  0  0
   47.8410   30.8440   48.4300 C   0  0  0  0  0  0  0  0  0  0  0  0
   48.8730   31.2500   49.2550 C   0  0  0  0  0  0  0  0  0  0  0  0
   49.6590   30.1390   49.4350 C   0  0  0  0  0  0  0  0  0  0  0  0
   46.5590   34.4440   41.9950 C   0  0  0  0  0  0  0  0  0  0  0  0
   47.7530   35.3600   41.9090 C   0  0  0  0  0  0  0  0  0  0  0  0
   49.0070   34.7090   41.4670 C   0  0  1  0  0  0  0  0  0  0  0  0
   50.0890   34.5640   42.5450 C   0  0  0  0  0  0  0  0  0  0  0  0
   49.4190   33.3700   41.9300 C   0  0  2  0  0  0  0  0  0  0  0  0
   50.2510   32.4800   41.0800 C   0  0  0  0  0  0  0  0  0  0  0  0
   49.5160   31.9570   39.8200 C   0  0  0  0  0  0  0  0  0  0  0  0
   50.8870   30.9330   39.1070 S   0  0  0  0  0  0  0  0  0  0  0  0
   52.1070   31.3470   40.5050 C   0  0  0  0  0  0  0  0  0  0  0  0
   51.5070   32.1760   41.3970 N   0  0  0  0  0  0  0  0  0  0  0  0
   43.7110   36.7484   44.8832 H   0  0  0  0  0  0  0  0  0  0  0  0
   44.7662   36.4273   42.6357 H   0  0  0  0  0  0  0  0  0  0  0  0
   44.0751   33.4280   47.7990 H   0  0  0  0  0  0  0  0  0  0  0  0
   45.1801   31.6589   49.4775 H   0  0  0  0  0  0  0  0  0  0  0  0
   49.5165   28.1475   48.7119 H   0  0  0  0  0  0  0  0  0  0  0  0
   49.0313   32.2528   49.6784 H   0  0  0  0  0  0  0  0  0  0  0  0
   50.5763   30.0998   50.0409 H   0  0  0  0  0  0  0  0  0  0  0  0
   46.8854   33.3952   41.9365 H   0  0  0  0  0  0  0  0  0  0  0  0
   45.8642   34.6343   41.1637 H   0  0  0  0  0  0  0  0  0  0  0  0
   47.5161   36.1643   41.1970 H   0  0  0  0  0  0  0  0  0  0  0  0
   47.9374   35.7235   42.9307 H   0  0  0  0  0  0  0  0  0  0  0  0
   48.9018   35.1395   40.4602 H   0  0  0  0  0  0  0  0  0  0  0  0
   51.1393   34.7926   42.3114 H   0  0  0  0  0  0  0  0  0  0  0  0
   50.2407   34.9441   43.5660 H   0  0  0  0  0  0  0  0  0  0  0  0
   48.8497   32.5058   42.3028 H   0  0  0  0  0  0  0  0  0  0  0  0
   48.4929   32.1381   39.4589 H   0  0  0  0  0  0  0  0  0  0  0  0
   53.1388   30.9729   40.5795 H   0  0  0  0  0  0  0  0  0  0  0  0
  1  6  2  0
  2  1  1  0
  3  2  2  0
  3  4  1  0
  4  5  2  0
  5  6  1  0
  5  7  1  0
  7 11  2  0
  7  8  1  0
  8  9  2  0
 10 14  1  0
 10  9  1  0
 11 10  1  0
 12 16  1  0
 13 14  2  0
 13 12  1  0
 14 15  1  0
 15 16  2  0
 17  3  1  0
 18 17  1  0
 19 18  1  0
 19 21  1  0
 19 20  1  0
 21 20  1  0
 22 26  1  0
 22 21  1  0
 23 22  2  0
 24 23  1  0
 24 25  1  0
 25 26  2  0
  1 27  1  0
  2 28  1  0
  8 29  1  0
  9 30  1  0
 12 31  1  0
 15 32  1  0
 16 33  1  0
 17 34  1  0
 17 35  1  0
 18 36  1  0
 18 37  1  0
 19 38  1  6
 20 39  1  0
 20 40  1  0
 21 41  1  1
 23 42  1  0
 25 43  1  0
M  ISO  8  27  14  28  14  29  14  30  14  31   9  32  14  33  14  34   8
M  ISO  8  35   8  36   8  37   8  38  13  39  13  40  13  41  13  42  14
M  ISO  1  43  14
M  END
>  <minimizedAffinity>  (1) 
-6.87095451

>  <minimizedRMSD>  (1) 
0.537063837

$$$$
