
     RDKit          3D

 44 48  0  0  1  0  0  0  0  0999 V2000
   44.5310   35.7650   44.5310 C   0  0  0  0  0  0  0  0  0  0  0  0
   45.0720   35.4830   43.2650 C   0  0  0  0  0  0  0  0  0  0  0  0
   45.9260   34.3920   43.1600 C   0  0  0  0  0  0  0  0  0  0  0  0
   46.1910   33.6660   44.2620 N   0  0  0  0  0  0  0  0  0  0  0  0
   45.6450   33.9760   45.4650 C   0  0  0  0  0  0  0  0  0  0  0  0
   44.8220   35.0090   45.6180 N   0  0  0  0  0  0  0  0  0  0  0  0
   46.0030   33.1180   46.5960 C   0  0  0  0  0  0  0  0  0  0  0  0
   45.1400   32.9710   47.6590 C   0  0  0  0  0  0  0  0  0  0  0  0
   45.7030   32.1190   48.5830 C   0  0  0  0  0  0  0  0  0  0  0  0
   46.8880   31.7690   48.0690 N   0  0  0  0  0  0  0  0  0  0  0  0
   47.0820   32.3550   46.8860 N   0  0  0  0  0  0  0  0  0  0  0  0
   49.2110   29.1850   48.9630 N   0  0  0  0  0  0  0  0  0  0  0  0
   48.1130   29.5820   48.3440 N   0  0  0  0  0  0  0  0  0  0  0  0
   47.9240   30.9240   48.5410 C   0  0  0  0  0  0  0  0  0  0  0  0
   48.9620   31.3530   49.3180 C   0  0  0  0  0  0  0  0  0  0  0  0
   49.7490   30.2520   49.5680 C   0  0  0  0  0  0  0  0  0  0  0  0
   46.5380   34.0250   41.8650 C   0  0  0  0  0  0  0  0  0  0  0  0
   47.5080   35.1270   41.4920 C   0  0  0  0  0  0  0  0  0  0  0  0
   48.9240   34.7140   41.4540 C   0  0  1  0  0  0  0  0  0  0  0  0
   49.8120   35.3650   42.5210 C   0  0  0  0  0  0  0  0  0  0  0  0
   49.5480   33.8790   42.5090 C   0  0  2  0  0  0  0  0  0  0  0  0
   50.7580   33.0470   42.2540 C   0  0  0  0  0  0  0  0  0  0  0  0
   50.5550   31.5530   42.4850 C   0  0  0  0  0  0  0  0  0  0  0  0
   50.8280   32.0700   41.1440 C   0  0  0  0  0  0  0  0  0  0  0  0
   43.8523   36.6234   44.6431 H   0  0  0  0  0  0  0  0  0  0  0  0
   44.8284   36.1030   42.3896 H   0  0  0  0  0  0  0  0  0  0  0  0
   44.1577   33.4566   47.7548 H   0  0  0  0  0  0  0  0  0  0  0  0
   45.2702   31.7948   49.5409 H   0  0  0  0  0  0  0  0  0  0  0  0
   49.5862   28.2259   48.9776 H   0  0  0  0  0  0  0  0  0  0  0  0
   49.1353   32.3790   49.6747 H   0  0  0  0  0  0  0  0  0  0  0  0
   50.6710   30.2488   50.1679 H   0  0  0  0  0  0  0  0  0  0  0  0
   47.0739   33.0691   41.9602 H   0  0  0  0  0  0  0  0  0  0  0  0
   45.7658   33.9095   41.0901 H   0  0  0  0  0  0  0  0  0  0  0  0
   47.2335   35.5024   40.4951 H   0  0  0  0  0  0  0  0  0  0  0  0
   47.4279   35.8914   42.2789 H   0  0  0  0  0  0  0  0  0  0  0  0
   48.8933   34.6060   40.3597 H   0  0  0  0  0  0  0  0  0  0  0  0
   50.8056   35.7539   42.2537 H   0  0  0  0  0  0  0  0  0  0  0  0
   49.6969   36.1793   43.2515 H   0  0  0  0  0  0  0  0  0  0  0  0
   49.1146   33.1215   43.1786 H   0  0  0  0  0  0  0  0  0  0  0  0
   51.4303   33.8567   42.5740 H   0  0  0  0  0  0  0  0  0  0  0  0
   51.3196   30.9680   43.0171 H   0  0  0  0  0  0  0  0  0  0  0  0
   49.7682   30.9319   42.9381 H   0  0  0  0  0  0  0  0  0  0  0  0
   50.0334   32.0540   40.3835 H   0  0  0  0  0  0  0  0  0  0  0  0
   51.5812   31.8400   40.3760 H   0  0  0  0  0  0  0  0  0  0  0  0
  1  6  2  0
  2  1  1  0
  3  2  2  0
  3  4  1  0
  4  5  2  0
  5  6  1  0
  5  7  1  0
  7 11  2  0
  7  8  1  0
  8  9  2  0
 10 14  1  0
 10  9  1  0
 11 10  1  0
 12 16  1  0
 13 14  2  0
 13 12  1  0
 14 15  1  0
 15 16  2  0
 17  3  1  0
 18 17  1  0
 19 18  1  0
 19 21  1  0
 19 20  1  0
 21 20  1  0
 22 23  1  0
 22 21  1  0
 24 22  1  0
 24 23  1  0
  1 25  1  0
  2 26  1  0
  8 27  1  0
  9 28  1  0
 12 29  1  0
 15 30  1  0
 16 31  1  0
 17 32  1  0
 17 33  1  0
 18 34  1  0
 18 35  1  0
 19 36  1  6
 20 37  1  0
 20 38  1  0
 21 39  1  1
 22 40  1  0
 23 41  1  0
 23 42  1  0
 24 43  1  0
 24 44  1  0
M  ISO  8  25  14  26  14  27  14  28  14  29   9  30  14  31  14  32   8
M  ISO  8  33   8  34   8  35   8  36  13  37  13  38  13  39  13  40  13
M  ISO  4  41  13  42  13  43  13  44  13
M  END
>  <minimizedAffinity>  (1) 
-6.7651906

>  <minimizedRMSD>  (1) 
0.389556468

$$$$
