
     RDKit          3D

 43 46  0  0  1  0  0  0  0  0999 V2000
   44.5280   35.7240   44.5570 C   0  0  0  0  0  0  0  0  0  0  0  0
   44.9560   35.3420   43.2780 C   0  0  0  0  0  0  0  0  0  0  0  0
   45.7240   34.1870   43.1610 C   0  0  0  0  0  0  0  0  0  0  0  0
   46.0120   33.5060   44.2770 N   0  0  0  0  0  0  0  0  0  0  0  0
   45.5850   33.8980   45.5020 C   0  0  0  0  0  0  0  0  0  0  0  0
   44.8490   34.9930   45.6620 N   0  0  0  0  0  0  0  0  0  0  0  0
   45.9600   33.0760   46.6430 C   0  0  0  0  0  0  0  0  0  0  0  0
   45.1190   32.9620   47.7380 C   0  0  0  0  0  0  0  0  0  0  0  0
   45.7140   32.1270   48.6740 C   0  0  0  0  0  0  0  0  0  0  0  0
   46.8790   31.7610   48.1360 N   0  0  0  0  0  0  0  0  0  0  0  0
   47.0460   32.3120   46.9310 N   0  0  0  0  0  0  0  0  0  0  0  0
   49.2500   29.2370   49.0700 N   0  0  0  0  0  0  0  0  0  0  0  0
   48.1170   29.5800   48.4480 N   0  0  0  0  0  0  0  0  0  0  0  0
   47.9310   30.9170   48.6070 C   0  0  0  0  0  0  0  0  0  0  0  0
   48.9880   31.4030   49.3520 C   0  0  0  0  0  0  0  0  0  0  0  0
   49.7960   30.3410   49.6280 C   0  0  0  0  0  0  0  0  0  0  0  0
   46.2090   33.7270   41.8420 C   0  0  0  0  0  0  0  0  0  0  0  0
   46.9290   34.8850   41.1910 C   0  0  0  0  0  0  0  0  0  0  0  0
   48.4000   34.7680   41.1800 C   0  0  1  0  0  0  0  0  0  0  0  0
   49.1640   36.0340   41.5540 C   0  0  0  0  0  0  0  0  0  0  0  0
   49.2310   34.7940   42.4090 C   0  0  2  0  0  0  0  0  0  0  0  0
   50.5290   34.0650   42.5030 C   0  0  0  0  0  0  0  0  0  0  0  0
   50.3850   32.7030   41.8410 C   0  0  0  0  0  0  0  0  0  0  0  0
   43.9199   36.6334   44.6715 H   0  0  0  0  0  0  0  0  0  0  0  0
   44.6924   35.9381   42.3919 H   0  0  0  0  0  0  0  0  0  0  0  0
   44.1406   33.4525   47.8478 H   0  0  0  0  0  0  0  0  0  0  0  0
   45.3101   31.8297   49.6530 H   0  0  0  0  0  0  0  0  0  0  0  0
   49.6430   28.2861   49.1165 H   0  0  0  0  0  0  0  0  0  0  0  0
   49.1468   32.4462   49.6626 H   0  0  0  0  0  0  0  0  0  0  0  0
   50.7316   30.3759   50.2055 H   0  0  0  0  0  0  0  0  0  0  0  0
   46.8995   32.8805   41.9706 H   0  0  0  0  0  0  0  0  0  0  0  0
   45.3683   33.3936   41.2159 H   0  0  0  0  0  0  0  0  0  0  0  0
   46.5835   34.9616   40.1495 H   0  0  0  0  0  0  0  0  0  0  0  0
   46.6924   35.7756   41.7917 H   0  0  0  0  0  0  0  0  0  0  0  0
   48.3505   34.0527   40.3458 H   0  0  0  0  0  0  0  0  0  0  0  0
   50.0379   36.3481   40.9644 H   0  0  0  0  0  0  0  0  0  0  0  0
   48.9030   37.0897   41.7194 H   0  0  0  0  0  0  0  0  0  0  0  0
   49.0215   34.5446   43.4597 H   0  0  0  0  0  0  0  0  0  0  0  0
   51.3133   34.6421   41.9912 H   0  0  0  0  0  0  0  0  0  0  0  0
   50.8053   33.9356   43.5599 H   0  0  0  0  0  0  0  0  0  0  0  0
   50.3028   31.9259   42.6152 H   0  0  0  0  0  0  0  0  0  0  0  0
   49.4808   32.6935   41.2146 H   0  0  0  0  0  0  0  0  0  0  0  0
   51.2672   32.5047   41.2146 H   0  0  0  0  0  0  0  0  0  0  0  0
  1  6  2  0
  2  1  1  0
  3  2  2  0
  3  4  1  0
  4  5  2  0
  5  6  1  0
  5  7  1  0
  7 11  2  0
  7  8  1  0
  8  9  2  0
 10 14  1  0
 10  9  1  0
 11 10  1  0
 12 16  1  0
 13 14  2  0
 13 12  1  0
 14 15  1  0
 15 16  2  0
 17  3  1  0
 18 17  1  0
 19 18  1  0
 19 20  1  0
 19 21  1  0
 20 21  1  0
 21 22  1  0
 23 22  1  0
  1 24  1  0
  2 25  1  0
  8 26  1  0
  9 27  1  0
 12 28  1  0
 15 29  1  0
 16 30  1  0
 17 31  1  0
 17 32  1  0
 18 33  1  0
 18 34  1  0
 19 35  1  6
 20 36  1  0
 20 37  1  0
 21 38  1  1
 22 39  1  0
 22 40  1  0
 23 41  1  0
 23 42  1  0
 23 43  1  0
M  ISO  8  24  14  25  14  26  14  27  14  28   9  29  14  30  14  31   8
M  ISO  8  32   8  33   8  34   8  35  13  36  13  37  13  38  13  39   8
M  ISO  4  40   8  41   8  42   8  43   8
M  END
>  <minimizedAffinity>  (1) 
-6.77263069

>  <minimizedRMSD>  (1) 
0.82413286

$$$$
