
     RDKit          3D

 40 43  0  0  1  0  0  0  0  0999 V2000
   44.5110   35.7820   44.5810 C   0  0  0  0  0  0  0  0  0  0  0  0
   45.0450   35.4980   43.3210 C   0  0  0  0  0  0  0  0  0  0  0  0
   45.8930   34.4060   43.1880 C   0  0  0  0  0  0  0  0  0  0  0  0
   46.1630   33.6680   44.2870 N   0  0  0  0  0  0  0  0  0  0  0  0
   45.6230   33.9750   45.5000 C   0  0  0  0  0  0  0  0  0  0  0  0
   44.8060   35.0160   45.6620 N   0  0  0  0  0  0  0  0  0  0  0  0
   45.9810   33.1100   46.6230 C   0  0  0  0  0  0  0  0  0  0  0  0
   45.1310   32.9430   47.6790 C   0  0  0  0  0  0  0  0  0  0  0  0
   45.6920   32.0900   48.5970 C   0  0  0  0  0  0  0  0  0  0  0  0
   46.8840   31.7460   48.0820 N   0  0  0  0  0  0  0  0  0  0  0  0
   47.0650   32.3470   46.9110 N   0  0  0  0  0  0  0  0  0  0  0  0
   49.2240   29.1800   48.9720 N   0  0  0  0  0  0  0  0  0  0  0  0
   48.1120   29.5610   48.3450 N   0  0  0  0  0  0  0  0  0  0  0  0
   47.9280   30.8970   48.5520 C   0  0  0  0  0  0  0  0  0  0  0  0
   48.9600   31.3420   49.3270 C   0  0  0  0  0  0  0  0  0  0  0  0
   49.7530   30.2600   49.5760 C   0  0  0  0  0  0  0  0  0  0  0  0
   46.4930   34.0490   41.8840 C   0  0  0  0  0  0  0  0  0  0  0  0
   47.4670   35.1370   41.5220 C   0  0  0  0  0  0  0  0  0  0  0  0
   48.8910   34.7100   41.4580 C   0  0  1  0  0  0  0  0  0  0  0  0
   49.8180   35.3780   42.4730 C   0  0  0  0  0  0  0  0  0  0  0  0
   49.5320   33.8960   42.5050 C   0  0  2  0  0  0  0  0  0  0  0  0
   50.7040   33.0180   42.2390 C   0  0  0  0  0  0  0  0  0  0  0  0
   43.8379   36.6439   44.6990 H   0  0  0  0  0  0  0  0  0  0  0  0
   44.7987   36.1264   42.4524 H   0  0  0  0  0  0  0  0  0  0  0  0
   44.1450   33.4203   47.7790 H   0  0  0  0  0  0  0  0  0  0  0  0
   45.2575   31.7586   49.5517 H   0  0  0  0  0  0  0  0  0  0  0  0
   49.6111   28.2257   48.9911 H   0  0  0  0  0  0  0  0  0  0  0  0
   49.1207   32.3709   49.6812 H   0  0  0  0  0  0  0  0  0  0  0  0
   50.6761   30.2690   50.1742 H   0  0  0  0  0  0  0  0  0  0  0  0
   47.0182   33.0857   41.9632 H   0  0  0  0  0  0  0  0  0  0  0  0
   45.7148   33.9529   41.1125 H   0  0  0  0  0  0  0  0  0  0  0  0
   47.1848   35.5333   40.5354 H   0  0  0  0  0  0  0  0  0  0  0  0
   47.4059   35.8847   42.3265 H   0  0  0  0  0  0  0  0  0  0  0  0
   48.8259   34.5782   40.3679 H   0  0  0  0  0  0  0  0  0  0  0  0
   50.8073   35.7462   42.1635 H   0  0  0  0  0  0  0  0  0  0  0  0
   49.7384   36.2128   43.1848 H   0  0  0  0  0  0  0  0  0  0  0  0
   49.1122   33.1641   43.2108 H   0  0  0  0  0  0  0  0  0  0  0  0
   51.1411   32.6906   43.1939 H   0  0  0  0  0  0  0  0  0  0  0  0
   50.3801   32.1385   41.6633 H   0  0  0  0  0  0  0  0  0  0  0  0
   51.4571   33.5761   41.6633 H   0  0  0  0  0  0  0  0  0  0  0  0
  1  6  2  0
  2  1  1  0
  3  2  2  0
  3  4  1  0
  4  5  2  0
  5  6  1  0
  5  7  1  0
  7 11  2  0
  7  8  1  0
  8  9  2  0
 10 14  1  0
 10  9  1  0
 11 10  1  0
 12 16  1  0
 13 14  2  0
 13 12  1  0
 14 15  1  0
 15 16  2  0
 17  3  1  0
 18 17  1  0
 19 18  1  0
 19 20  1  0
 19 21  1  0
 20 21  1  0
 22 21  1  0
  1 23  1  0
  2 24  1  0
  8 25  1  0
  9 26  1  0
 12 27  1  0
 15 28  1  0
 16 29  1  0
 17 30  1  0
 17 31  1  0
 18 32  1  0
 18 33  1  0
 19 34  1  6
 20 35  1  0
 20 36  1  0
 21 37  1  1
 22 38  1  0
 22 39  1  0
 22 40  1  0
M  ISO  8  23  14  24  14  25  14  26  14  27   9  28  14  29  14  30   8
M  ISO  8  31   8  32   8  33   8  34  13  35  13  36  13  37  13  38   8
M  ISO  2  39   8  40   8
M  END
>  <minimizedAffinity>  (1) 
-6.67202187

>  <minimizedRMSD>  (1) 
0.301149517

$$$$
