
     RDKit          3D

 38 41  0  0  1  0  0  0  0  0999 V2000
   44.5130   36.1940   44.8150 C   0  0  0  0  0  0  0  0  0  0  0  0
   44.9200   36.1660   43.4630 C   0  0  0  0  0  0  0  0  0  0  0  0
   45.5720   35.0330   43.0030 C   0  0  0  0  0  0  0  0  0  0  0  0
   45.7670   34.0400   43.8960 N   0  0  0  0  0  0  0  0  0  0  0  0
   45.3780   34.0760   45.1740 C   0  0  0  0  0  0  0  0  0  0  0  0
   44.7470   35.1620   45.6360 N   0  0  0  0  0  0  0  0  0  0  0  0
   45.6390   32.9500   46.0390 N   0  0  0  0  0  0  0  0  0  0  0  0
   45.2170   33.0380   47.4440 C   0  0  0  0  0  0  0  0  0  0  0  0
   46.0980   32.2710   48.3690 C   0  0  0  0  0  0  0  0  0  0  0  0
   47.4480   32.0880   47.6960 C   0  0  0  0  0  0  0  0  0  0  0  0
   47.2080   31.1470   46.5460 C   0  0  0  0  0  0  0  0  0  0  0  0
   46.2860   31.7750   45.5460 C   0  0  2  0  0  0  0  0  0  0  0  0
   46.8830   31.9020   44.2560 N   0  0  0  0  0  0  0  0  0  0  0  0
   48.0570   32.5060   43.9000 C   0  0  0  0  0  0  0  0  0  0  0  0
   48.3020   32.4390   42.5870 N   0  0  0  0  0  0  0  0  0  0  0  0
   47.2780   31.7780   42.0340 C   0  0  0  0  0  0  0  0  0  0  0  0
   46.9950   31.4160   40.7310 C   0  0  0  0  0  0  0  0  0  0  0  0
   45.8660   30.7390   40.4460 N   0  0  0  0  0  0  0  0  0  0  0  0
   45.0080   30.4140   41.4530 C   0  0  0  0  0  0  0  0  0  0  0  0
   45.2760   30.7660   42.7450 N   0  0  0  0  0  0  0  0  0  0  0  0
   46.4030   31.4470   43.0590 C   0  0  0  0  0  0  0  0  0  0  0  0
   47.9260   31.7810   39.7100 N   0  0  0  0  0  0  0  0  0  0  0  0
   43.9926   37.0825   45.2021 H   0  0  0  0  0  0  0  0  0  0  0  0
   44.7253   37.0180   42.7950 H   0  0  0  0  0  0  0  0  0  0  0  0
   45.9139   34.9472   41.9610 H   0  0  0  0  0  0  0  0  0  0  0  0
   45.2277   34.0954   47.7470 H   0  0  0  0  0  0  0  0  0  0  0  0
   44.2103   32.5998   47.5117 H   0  0  0  0  0  0  0  0  0  0  0  0
   46.2233   32.8265   49.3101 H   0  0  0  0  0  0  0  0  0  0  0  0
   45.6505   31.2920   48.5956 H   0  0  0  0  0  0  0  0  0  0  0  0
   47.8270   33.0531   47.3287 H   0  0  0  0  0  0  0  0  0  0  0  0
   48.1985   31.6904   48.3950 H   0  0  0  0  0  0  0  0  0  0  0  0
   48.1673   30.9153   46.0601 H   0  0  0  0  0  0  0  0  0  0  0  0
   46.7474   30.2241   46.9281 H   0  0  0  0  0  0  0  0  0  0  0  0
   45.4550   31.0713   45.3908 H   0  0  0  0  0  0  0  0  0  0  0  0
   48.7300   32.9961   44.6189 H   0  0  0  0  0  0  0  0  0  0  0  0
   44.0861   29.8601   41.2221 H   0  0  0  0  0  0  0  0  0  0  0  0
   47.7418   31.5248   38.7295 H   0  0  0  0  0  0  0  0  0  0  0  0
   48.7812   32.3003   39.9546 H   0  0  0  0  0  0  0  0  0  0  0  0
  1  6  2  0
  2  1  1  0
  3  2  2  0
  3  4  1  0
  4  5  2  0
  5  6  1  0
  5  7  1  0
  7  8  1  0
  8  9  1  0
 10  9  1  0
 11 10  1  0
 12  7  1  0
 12 11  1  0
 13 12  1  0
 14 13  1  0
 15 14  2  0
 16 15  1  0
 16 21  2  0
 17 16  1  0
 18 17  2  0
 18 19  1  0
 19 20  2  0
 20 21  1  0
 21 13  1  0
 22 17  1  0
  1 23  1  0
  2 24  1  0
  3 25  1  0
  8 26  1  0
  8 27  1  0
  9 28  1  0
  9 29  1  0
 10 30  1  0
 10 31  1  0
 11 32  1  0
 11 33  1  0
 12 34  1  6
 14 35  1  0
 19 36  1  0
 22 37  1  0
 22 38  1  0
M  ISO  8  23  14  24  14  25  14  26  13  27  13  28  13  29  13  30  13
M  ISO  6  31  13  32  13  33  13  34  13  35  14  36  14
M  END
>  <minimizedAffinity>  (1) 
-5.01638508

>  <minimizedRMSD>  (1) 
1.80624294

$$$$
