
     RDKit          3D

 46 50  0  0  1  0  0  0  0  0999 V2000
   44.4460   35.8640   44.7030 C   0  0  0  0  0  0  0  0  0  0  0  0
   45.0390   35.6730   43.4430 C   0  0  0  0  0  0  0  0  0  0  0  0
   45.9250   34.6190   43.3020 C   0  0  0  0  0  0  0  0  0  0  0  0
   46.1770   33.8400   44.3490 N   0  0  0  0  0  0  0  0  0  0  0  0
   45.5980   34.0360   45.5570 C   0  0  0  0  0  0  0  0  0  0  0  0
   44.7300   35.0460   45.7490 N   0  0  0  0  0  0  0  0  0  0  0  0
   45.9440   33.1260   46.6330 C   0  0  0  0  0  0  0  0  0  0  0  0
   45.0750   32.9330   47.6860 C   0  0  0  0  0  0  0  0  0  0  0  0
   45.6320   32.0350   48.5720 C   0  0  0  0  0  0  0  0  0  0  0  0
   46.8330   31.7020   48.0320 N   0  0  0  0  0  0  0  0  0  0  0  0
   46.9960   32.3550   46.8910 N   0  0  0  0  0  0  0  0  0  0  0  0
   49.1750   29.1360   48.8690 N   0  0  0  0  0  0  0  0  0  0  0  0
   48.0610   29.5180   48.2280 N   0  0  0  0  0  0  0  0  0  0  0  0
   47.8660   30.8340   48.4760 C   0  0  0  0  0  0  0  0  0  0  0  0
   48.8910   31.2670   49.2890 C   0  0  0  0  0  0  0  0  0  0  0  0
   49.6880   30.2010   49.5190 C   0  0  0  0  0  0  0  0  0  0  0  0
   46.5860   34.3520   42.0140 C   0  0  0  0  0  0  0  0  0  0  0  0
   47.7080   35.3660   41.8620 C   0  0  0  0  0  0  0  0  0  0  0  0
   48.9870   34.7690   41.4450 C   0  0  1  0  0  0  0  0  0  0  0  0
   50.0810   34.8020   42.4990 C   0  0  0  0  0  0  0  0  0  0  0  0
   49.4800   33.5000   41.9250 C   0  0  1  0  0  0  0  0  0  0  0  0
   49.0760   32.7530   43.0080 O   0  0  0  0  0  0  0  0  0  0  0  0
   49.3720   31.3370   42.6350 C   0  0  0  0  0  0  0  0  0  0  0  0
   50.6300   30.8420   42.5740 C   0  0  0  0  0  0  0  0  0  0  0  0
   50.8230   29.5400   42.2330 C   0  0  0  0  0  0  0  0  0  0  0  0
   49.7770   28.7420   41.9550 N   0  0  0  0  0  0  0  0  0  0  0  0
   48.5220   29.2240   42.0110 C   0  0  0  0  0  0  0  0  0  0  0  0
   48.3850   30.4910   42.3460 N   0  0  0  0  0  0  0  0  0  0  0  0
   43.7372   36.6932   44.8446 H   0  0  0  0  0  0  0  0  0  0  0  0
   44.8070   36.3382   42.5982 H   0  0  0  0  0  0  0  0  0  0  0  0
   44.0943   33.4178   47.8009 H   0  0  0  0  0  0  0  0  0  0  0  0
   45.1973   31.6675   49.5133 H   0  0  0  0  0  0  0  0  0  0  0  0
   49.5733   28.1862   48.8657 H   0  0  0  0  0  0  0  0  0  0  0  0
   49.0331   32.2865   49.6768 H   0  0  0  0  0  0  0  0  0  0  0  0
   50.6010   30.2012   50.1326 H   0  0  0  0  0  0  0  0  0  0  0  0
   46.9973   33.3318   42.0065 H   0  0  0  0  0  0  0  0  0  0  0  0
   45.8694   34.4373   41.1838 H   0  0  0  0  0  0  0  0  0  0  0  0
   47.4073   36.1073   41.1070 H   0  0  0  0  0  0  0  0  0  0  0  0
   47.8701   35.8196   42.8510 H   0  0  0  0  0  0  0  0  0  0  0  0
   48.8356   35.1243   40.4150 H   0  0  0  0  0  0  0  0  0  0  0  0
   51.1034   35.1107   42.2357 H   0  0  0  0  0  0  0  0  0  0  0  0
   50.2181   35.2479   43.4952 H   0  0  0  0  0  0  0  0  0  0  0  0
   49.6652   32.6119   41.3029 H   0  0  0  0  0  0  0  0  0  0  0  0
   51.4909   31.4888   42.7988 H   0  0  0  0  0  0  0  0  0  0  0  0
   51.8448   29.1355   42.1841 H   0  0  0  0  0  0  0  0  0  0  0  0
   47.6512   28.5901   41.7876 H   0  0  0  0  0  0  0  0  0  0  0  0
  1  6  2  0
  2  1  1  0
  3  2  2  0
  3  4  1  0
  4  5  2  0
  5  6  1  0
  5  7  1  0
  7 11  2  0
  7  8  1  0
  8  9  2  0
 10 14  1  0
 10  9  1  0
 11 10  1  0
 12 16  1  0
 13 14  2  0
 13 12  1  0
 14 15  1  0
 15 16  2  0
 17  3  1  0
 18 17  1  0
 19 18  1  0
 19 21  1  0
 19 20  1  0
 21 20  1  0
 21 22  1  0
 23 22  1  0
 24 23  2  0
 25 24  1  0
 26 27  1  0
 26 25  2  0
 27 28  2  0
 28 23  1  0
  1 29  1  0
  2 30  1  0
  8 31  1  0
  9 32  1  0
 12 33  1  0
 15 34  1  0
 16 35  1  0
 17 36  1  0
 17 37  1  0
 18 38  1  0
 18 39  1  0
 19 40  1  6
 20 41  1  0
 20 42  1  0
 21 43  1  6
 24 44  1  0
 25 45  1  0
 27 46  1  0
M  ISO  8  29  14  30  14  31  14  32  14  33   9  34  14  35  14  36   8
M  ISO  8  37   8  38   8  39   8  40  13  41  13  42  13  43  13  44  14
M  ISO  2  45  14  46  14
M  END
>  <minimizedAffinity>  (1) 
-6.32335186

>  <minimizedRMSD>  (1) 
1.25310242

$$$$
