
     RDKit          3D

 45 49  0  0  1  0  0  0  0  0999 V2000
   44.4340   35.8780   44.6930 C   0  0  0  0  0  0  0  0  0  0  0  0
   45.0250   35.6880   43.4290 C   0  0  0  0  0  0  0  0  0  0  0  0
   45.9130   34.6410   43.2910 C   0  0  0  0  0  0  0  0  0  0  0  0
   46.1690   33.8710   44.3400 N   0  0  0  0  0  0  0  0  0  0  0  0
   45.5920   34.0670   45.5520 C   0  0  0  0  0  0  0  0  0  0  0  0
   44.7250   35.0650   45.7400 N   0  0  0  0  0  0  0  0  0  0  0  0
   45.9460   33.1590   46.6300 C   0  0  0  0  0  0  0  0  0  0  0  0
   45.0700   32.9470   47.6760 C   0  0  0  0  0  0  0  0  0  0  0  0
   45.6320   32.0520   48.5610 C   0  0  0  0  0  0  0  0  0  0  0  0
   46.8380   31.7400   48.0310 N   0  0  0  0  0  0  0  0  0  0  0  0
   47.0080   32.4010   46.8950 N   0  0  0  0  0  0  0  0  0  0  0  0
   49.1560   29.1310   48.8200 N   0  0  0  0  0  0  0  0  0  0  0  0
   48.0630   29.5520   48.2070 N   0  0  0  0  0  0  0  0  0  0  0  0
   47.8750   30.8780   48.4730 C   0  0  0  0  0  0  0  0  0  0  0  0
   48.8950   31.2690   49.2770 C   0  0  0  0  0  0  0  0  0  0  0  0
   49.6760   30.1820   49.4820 C   0  0  0  0  0  0  0  0  0  0  0  0
   46.5780   34.3720   42.0040 C   0  0  0  0  0  0  0  0  0  0  0  0
   47.7370   35.3650   41.8830 C   0  0  0  0  0  0  0  0  0  0  0  0
   49.0150   34.7650   41.4800 C   0  0  1  0  0  0  0  0  0  0  0  0
   50.1040   34.7550   42.5320 C   0  0  0  0  0  0  0  0  0  0  0  0
   49.4870   33.4730   41.9370 C   0  0  1  0  0  0  0  0  0  0  0  0
   49.0270   32.6800   42.9470 O   0  0  0  0  0  0  0  0  0  0  0  0
   49.1630   29.1100   42.4350 N   0  0  0  0  0  0  0  0  0  0  0  0
   48.4930   30.2160   42.6360 N   0  0  0  0  0  0  0  0  0  0  0  0
   49.2730   31.2860   42.7320 C   0  0  0  0  0  0  0  0  0  0  0  0
   50.5400   30.7040   42.5630 C   0  0  0  0  0  0  0  0  0  0  0  0
   50.4820   29.3420   42.3760 C   0  0  0  0  0  0  0  0  0  0  0  0
   43.7209   36.7034   44.8348 H   0  0  0  0  0  0  0  0  0  0  0  0
   44.7875   36.3498   42.5830 H   0  0  0  0  0  0  0  0  0  0  0  0
   44.0816   33.4172   47.7856 H   0  0  0  0  0  0  0  0  0  0  0  0
   45.1947   31.6729   49.4965 H   0  0  0  0  0  0  0  0  0  0  0  0
   49.5392   28.1752   48.7957 H   0  0  0  0  0  0  0  0  0  0  0  0
   49.0570   32.2776   49.6850 H   0  0  0  0  0  0  0  0  0  0  0  0
   50.5906   30.1609   50.0928 H   0  0  0  0  0  0  0  0  0  0  0  0
   46.9604   33.3408   41.9846 H   0  0  0  0  0  0  0  0  0  0  0  0
   45.8738   34.4866   41.1667 H   0  0  0  0  0  0  0  0  0  0  0  0
   47.4627   36.1233   41.1349 H   0  0  0  0  0  0  0  0  0  0  0  0
   47.8929   35.7868   42.8869 H   0  0  0  0  0  0  0  0  0  0  0  0
   48.8765   35.1535   40.4602 H   0  0  0  0  0  0  0  0  0  0  0  0
   51.1317   35.0519   42.2758 H   0  0  0  0  0  0  0  0  0  0  0  0
   50.2455   35.1794   43.5369 H   0  0  0  0  0  0  0  0  0  0  0  0
   49.6899   32.5917   41.3108 H   0  0  0  0  0  0  0  0  0  0  0  0
   48.7319   28.1799   42.3349 H   0  0  0  0  0  0  0  0  0  0  0  0
   51.4792   31.2764   42.5785 H   0  0  0  0  0  0  0  0  0  0  0  0
   51.3045   28.6287   42.2189 H   0  0  0  0  0  0  0  0  0  0  0  0
  1  6  2  0
  2  1  1  0
  3  2  2  0
  3  4  1  0
  4  5  2  0
  5  6  1  0
  5  7  1  0
  7 11  2  0
  7  8  1  0
  8  9  2  0
 10 14  1  0
 10  9  1  0
 11 10  1  0
 12 16  1  0
 13 14  2  0
 13 12  1  0
 14 15  1  0
 15 16  2  0
 17  3  1  0
 18 17  1  0
 19 18  1  0
 19 21  1  0
 19 20  1  0
 21 20  1  0
 21 22  1  0
 23 24  1  0
 24 25  2  0
 25 22  1  0
 26 25  1  0
 27 23  1  0
 27 26  2  0
  1 28  1  0
  2 29  1  0
  8 30  1  0
  9 31  1  0
 12 32  1  0
 15 33  1  0
 16 34  1  0
 17 35  1  0
 17 36  1  0
 18 37  1  0
 18 38  1  0
 19 39  1  6
 20 40  1  0
 20 41  1  0
 21 42  1  6
 23 43  1  0
 26 44  1  0
 27 45  1  0
M  ISO  8  28  14  29  14  30  14  31  14  32   9  33  14  34  14  35   8
M  ISO  8  36   8  37   8  38   8  39  13  40  13  41  13  42  13  43   9
M  ISO  2  44  14  45  14
M  END
>  <minimizedAffinity>  (1) 
-6.30607939

>  <minimizedRMSD>  (1) 
1.2388469

$$$$
