
     RDKit          3D

 45 47  0  0  1  0  0  0  0  0999 V2000
   45.6790   30.8020   47.3840 C   0  0  2  0  0  0  0  0  0  0  0  0
   44.6740   34.7740   46.1880 C   0  0  0  0  0  0  0  0  0  0  0  0
   44.6220   35.4850   44.9960 C   0  0  0  0  0  0  0  0  0  0  0  0
   45.2710   34.9470   43.8800 C   0  0  0  0  0  0  0  0  0  0  0  0
   45.9170   33.7640   44.0050 N   0  0  0  0  0  0  0  0  0  0  0  0
   45.9580   33.0730   45.1930 C   0  0  0  0  0  0  0  0  0  0  0  0
   45.3320   33.6010   46.2560 N   0  0  0  0  0  0  0  0  0  0  0  0
   46.6280   31.8450   45.3480 N   0  0  0  0  0  0  0  0  0  0  0  0
   47.5600   31.5590   44.4010 C   0  0  0  0  0  0  0  0  0  0  0  0
   48.0830   30.3050   44.7820 C   0  0  0  0  0  0  0  0  0  0  0  0
   47.4520   29.8980   45.9240 N   0  0  0  0  0  0  0  0  0  0  0  0
   46.5690   30.8560   46.2480 C   0  0  0  0  0  0  0  0  0  0  0  0
   46.4240   31.5010   48.5600 C   0  0  0  0  0  0  0  0  0  0  0  0
   45.4140   29.3940   47.8160 C   0  0  0  0  0  0  0  0  0  0  0  0
   44.5260   28.6830   46.9710 N   0  0  0  0  0  0  0  0  0  0  0  0
   43.8190   29.2270   45.9660 N   0  0  0  0  0  0  0  0  0  0  0  0
   43.0950   28.2450   45.3800 C   0  0  0  0  0  0  0  0  0  0  0  0
   43.3380   27.0540   46.0150 C   0  0  0  0  0  0  0  0  0  0  0  0
   44.2610   27.3530   47.0350 C   0  0  0  0  0  0  0  0  0  0  0  0
   44.7640   26.2970   47.9450 C   0  0  0  0  0  0  0  0  0  0  0  0
   46.2630   26.2340   47.8380 C   0  0  0  0  0  0  0  0  0  0  0  0
   44.2610   24.9260   47.4730 C   0  0  0  0  0  0  0  0  0  0  0  0
   44.2810   26.4210   49.3660 C   0  0  0  0  0  0  0  0  0  0  0  0
   44.7231   31.2759   47.1162 H   0  0  0  0  0  0  0  0  0  0  0  0
   44.1739   35.1720   47.0833 H   0  0  0  0  0  0  0  0  0  0  0  0
   44.0860   36.4434   44.9316 H   0  0  0  0  0  0  0  0  0  0  0  0
   45.2567   35.4767   42.9161 H   0  0  0  0  0  0  0  0  0  0  0  0
   47.8436   32.1694   43.5309 H   0  0  0  0  0  0  0  0  0  0  0  0
   48.8676   29.7480   44.2489 H   0  0  0  0  0  0  0  0  0  0  0  0
   46.0284   31.1298   49.5169 H   0  0  0  0  0  0  0  0  0  0  0  0
   47.4994   31.2784   48.4967 H   0  0  0  0  0  0  0  0  0  0  0  0
   46.2703   32.5884   48.4967 H   0  0  0  0  0  0  0  0  0  0  0  0
   46.3725   28.8548   47.8405 H   0  0  0  0  0  0  0  0  0  0  0  0
   44.9316   29.4524   48.8028 H   0  0  0  0  0  0  0  0  0  0  0  0
   42.4159   28.3813   44.5255 H   0  0  0  0  0  0  0  0  0  0  0  0
   42.9032   26.0719   45.7774 H   0  0  0  0  0  0  0  0  0  0  0  0
   46.7021   26.2155   48.8464 H   0  0  0  0  0  0  0  0  0  0  0  0
   46.5538   25.3228   47.2947 H   0  0  0  0  0  0  0  0  0  0  0  0
   46.6293   27.1175   47.2947 H   0  0  0  0  0  0  0  0  0  0  0  0
   44.0310   24.2990   48.3471 H   0  0  0  0  0  0  0  0  0  0  0  0
   43.3526   25.0575   46.8668 H   0  0  0  0  0  0  0  0  0  0  0  0
   45.0389   24.4388   46.8668 H   0  0  0  0  0  0  0  0  0  0  0  0
   45.1112   26.2079   50.0554 H   0  0  0  0  0  0  0  0  0  0  0  0
   43.9128   27.4428   49.5403 H   0  0  0  0  0  0  0  0  0  0  0  0
   43.4661   25.7029   49.5403 H   0  0  0  0  0  0  0  0  0  0  0  0
  1 14  1  0
  1 13  1  0
  2  7  2  0
  3  2  1  0
  4  5  1  0
  4  3  2  0
  5  6  2  0
  6  8  1  0
  6  7  1  0
  8 12  1  0
  9 10  2  0
  9  8  1  0
 10 11  1  0
 11 12  2  0
 12  1  1  0
 15 19  1  0
 15 14  1  0
 16 15  1  0
 17 16  2  0
 17 18  1  0
 18 19  2  0
 19 20  1  0
 20 23  1  0
 21 20  1  0
 22 20  1  0
  1 24  1  6
  2 25  1  0
  3 26  1  0
  4 27  1  0
  9 28  1  0
 10 29  1  0
 13 30  1  0
 13 31  1  0
 13 32  1  0
 14 33  1  0
 14 34  1  0
 17 35  1  0
 18 36  1  0
 21 37  1  0
 21 38  1  0
 21 39  1  0
 22 40  1  0
 22 41  1  0
 22 42  1  0
 23 43  1  0
 23 44  1  0
 23 45  1  0
M  ISO  8  24   8  25  14  26  14  27  14  28  14  29  14  30   8  31   8
M  ISO  8  32   8  33   8  34   8  35  14  36  14  37   8  38   8  39   8
M  ISO  6  40   8  41   8  42   8  43   8  44   8  45   8
M  END
>  <minimizedAffinity>  (1) 
-4.63709927

>  <minimizedRMSD>  (1) 
1.22212625

$$$$
