
     RDKit          3D

 41 44  0  0  1  0  0  0  0  0999 V2000
   44.4130   35.9200   44.6920 C   0  0  0  0  0  0  0  0  0  0  0  0
   44.9980   35.7390   43.4240 C   0  0  0  0  0  0  0  0  0  0  0  0
   45.8850   34.6880   43.2880 C   0  0  0  0  0  0  0  0  0  0  0  0
   46.1420   33.9160   44.3300 N   0  0  0  0  0  0  0  0  0  0  0  0
   45.5680   34.1080   45.5440 C   0  0  0  0  0  0  0  0  0  0  0  0
   44.7040   35.1030   45.7390 N   0  0  0  0  0  0  0  0  0  0  0  0
   45.9300   33.1870   46.6170 C   0  0  0  0  0  0  0  0  0  0  0  0
   45.0440   32.9710   47.6540 C   0  0  0  0  0  0  0  0  0  0  0  0
   45.6100   32.0670   48.5360 C   0  0  0  0  0  0  0  0  0  0  0  0
   46.8190   31.7610   48.0110 N   0  0  0  0  0  0  0  0  0  0  0  0
   46.9960   32.4320   46.8760 N   0  0  0  0  0  0  0  0  0  0  0  0
   49.1410   29.1570   48.8010 N   0  0  0  0  0  0  0  0  0  0  0  0
   48.0420   29.5830   48.1970 N   0  0  0  0  0  0  0  0  0  0  0  0
   47.8530   30.9000   48.4480 C   0  0  0  0  0  0  0  0  0  0  0  0
   48.8810   31.2950   49.2380 C   0  0  0  0  0  0  0  0  0  0  0  0
   49.6630   30.1960   49.4410 C   0  0  0  0  0  0  0  0  0  0  0  0
   46.5490   34.4280   41.9840 C   0  0  0  0  0  0  0  0  0  0  0  0
   47.7570   35.3560   41.9130 C   0  0  0  0  0  0  0  0  0  0  0  0
   49.0010   34.6950   41.5000 C   0  0  1  0  0  0  0  0  0  0  0  0
   50.1500   34.7310   42.4830 C   0  0  0  0  0  0  0  0  0  0  0  0
   49.4950   33.4380   42.0330 C   0  0  1  0  0  0  0  0  0  0  0  0
   49.0190   32.7120   43.0710 O   0  0  0  0  0  0  0  0  0  0  0  0
   48.5220   31.4210   42.7960 C   0  0  0  0  0  0  0  0  0  0  0  0
   49.0620   30.3630   43.2700 O   0  0  0  0  0  0  0  0  0  0  0  0
   47.5780   30.6740   42.1540 O   0  0  0  0  0  0  0  0  0  0  0  0
   43.7008   36.7453   44.8395 H   0  0  0  0  0  0  0  0  0  0  0  0
   44.7599   36.4036   42.5805 H   0  0  0  0  0  0  0  0  0  0  0  0
   44.0543   33.4390   47.7611 H   0  0  0  0  0  0  0  0  0  0  0  0
   45.1701   31.6793   49.4667 H   0  0  0  0  0  0  0  0  0  0  0  0
   49.5195   28.1993   48.7783 H   0  0  0  0  0  0  0  0  0  0  0  0
   49.0516   32.3055   49.6378 H   0  0  0  0  0  0  0  0  0  0  0  0
   50.5839   30.1742   50.0422 H   0  0  0  0  0  0  0  0  0  0  0  0
   46.8736   33.3785   41.9267 H   0  0  0  0  0  0  0  0  0  0  0  0
   45.8601   34.6115   41.1463 H   0  0  0  0  0  0  0  0  0  0  0  0
   47.5354   36.1559   41.1911 H   0  0  0  0  0  0  0  0  0  0  0  0
   47.9242   35.7353   42.9319 H   0  0  0  0  0  0  0  0  0  0  0  0
   48.7997   35.0073   40.4647 H   0  0  0  0  0  0  0  0  0  0  0  0
   51.1646   34.9888   42.1453 H   0  0  0  0  0  0  0  0  0  0  0  0
   50.3563   35.2232   43.4449 H   0  0  0  0  0  0  0  0  0  0  0  0
   49.7002   32.5071   41.4841 H   0  0  0  0  0  0  0  0  0  0  0  0
   47.5903   29.6872   42.2323 H   0  0  0  0  0  0  0  0  0  0  0  0
  1  6  2  0
  2  1  1  0
  3  2  2  0
  3  4  1  0
  4  5  2  0
  5  6  1  0
  5  7  1  0
  7 11  2  0
  7  8  1  0
  8  9  2  0
 10 14  1  0
 10  9  1  0
 11 10  1  0
 12 16  1  0
 13 14  2  0
 13 12  1  0
 14 15  1  0
 15 16  2  0
 17  3  1  0
 18 17  1  0
 19 18  1  0
 19 21  1  0
 19 20  1  0
 21 20  1  0
 21 22  1  0
 23 22  1  0
 23 24  2  0
 25 23  1  0
  1 26  1  0
  2 27  1  0
  8 28  1  0
  9 29  1  0
 12 30  1  0
 15 31  1  0
 16 32  1  0
 17 33  1  0
 17 34  1  0
 18 35  1  0
 18 36  1  0
 19 37  1  6
 20 38  1  0
 20 39  1  0
 21 40  1  6
 25 41  1  0
M  ISO  8  26  14  27  14  28  14  29  14  30   9  31  14  32  14  33   8
M  ISO  8  34   8  35   8  36   8  37  13  38  13  39  13  40  13  41   3
M  END
>  <minimizedAffinity>  (1) 
-6.1315484

>  <minimizedRMSD>  (1) 
0.676615238

$$$$
