
     RDKit          3D

 44 47  0  0  1  0  0  0  0  0999 V2000
   44.4310   36.0510   44.4930 C   0  0  0  0  0  0  0  0  0  0  0  0
   45.0520   35.8690   43.2510 C   0  0  0  0  0  0  0  0  0  0  0  0
   45.9440   34.8280   43.1330 C   0  0  0  0  0  0  0  0  0  0  0  0
   46.1660   34.0600   44.1940 N   0  0  0  0  0  0  0  0  0  0  0  0
   45.5630   34.2450   45.3830 C   0  0  0  0  0  0  0  0  0  0  0  0
   44.6890   35.2390   45.5510 N   0  0  0  0  0  0  0  0  0  0  0  0
   45.8960   33.3310   46.4650 C   0  0  0  0  0  0  0  0  0  0  0  0
   45.0080   33.1590   47.5150 C   0  0  0  0  0  0  0  0  0  0  0  0
   45.5450   32.2490   48.4030 C   0  0  0  0  0  0  0  0  0  0  0  0
   46.7290   31.8970   47.8760 N   0  0  0  0  0  0  0  0  0  0  0  0
   46.9330   32.5370   46.7320 N   0  0  0  0  0  0  0  0  0  0  0  0
   48.9650   29.2160   48.6890 N   0  0  0  0  0  0  0  0  0  0  0  0
   47.8740   29.6580   48.0810 N   0  0  0  0  0  0  0  0  0  0  0  0
   47.7460   30.9940   48.3250 C   0  0  0  0  0  0  0  0  0  0  0  0
   48.7930   31.3620   49.1040 C   0  0  0  0  0  0  0  0  0  0  0  0
   49.5370   30.2360   49.3160 C   0  0  0  0  0  0  0  0  0  0  0  0
   46.6460   34.5640   41.8550 C   0  0  0  0  0  0  0  0  0  0  0  0
   47.9830   35.2840   41.9190 C   0  0  0  0  0  0  0  0  0  0  0  0
   49.1220   34.4630   41.4730 C   0  0  1  0  0  0  0  0  0  0  0  0
   50.2700   34.3390   42.4850 C   0  0  0  0  0  0  0  0  0  0  0  0
   49.4510   33.1570   42.0040 C   0  0  1  0  0  0  0  0  0  0  0  0
   48.8830   32.4630   43.0250 O   0  0  0  0  0  0  0  0  0  0  0  0
   48.9390   31.0850   42.8440 C   0  0  0  0  0  0  0  0  0  0  0  0
   50.3020   30.5090   42.7200 C   0  0  0  0  0  0  0  0  0  0  0  0
   43.7133   36.8756   44.6154 H   0  0  0  0  0  0  0  0  0  0  0  0
   44.8348   36.5334   42.4016 H   0  0  0  0  0  0  0  0  0  0  0  0
   44.0366   33.6638   47.6228 H   0  0  0  0  0  0  0  0  0  0  0  0
   45.0986   31.8890   49.3417 H   0  0  0  0  0  0  0  0  0  0  0  0
   49.3104   28.2457   48.6770 H   0  0  0  0  0  0  0  0  0  0  0  0
   49.0025   32.3705   49.4900 H   0  0  0  0  0  0  0  0  0  0  0  0
   50.4610   30.1834   49.9105 H   0  0  0  0  0  0  0  0  0  0  0  0
   46.0516   34.9472   41.0125 H   0  0  0  0  0  0  0  0  0  0  0  0
   46.7911   33.4839   41.7053 H   0  0  0  0  0  0  0  0  0  0  0  0
   47.9272   36.1768   41.2788 H   0  0  0  0  0  0  0  0  0  0  0  0
   48.1622   35.5340   42.9751 H   0  0  0  0  0  0  0  0  0  0  0  0
   48.9645   34.7951   40.4362 H   0  0  0  0  0  0  0  0  0  0  0  0
   51.3146   34.4633   42.1635 H   0  0  0  0  0  0  0  0  0  0  0  0
   50.5287   34.7872   43.4557 H   0  0  0  0  0  0  0  0  0  0  0  0
   49.5354   32.2163   41.4402 H   0  0  0  0  0  0  0  0  0  0  0  0
   48.4481   30.6102   43.7063 H   0  0  0  0  0  0  0  0  0  0  0  0
   48.4402   30.8871   41.8837 H   0  0  0  0  0  0  0  0  0  0  0  0
   50.7183   30.3331   43.7228 H   0  0  0  0  0  0  0  0  0  0  0  0
   50.2491   29.5563   42.1726 H   0  0  0  0  0  0  0  0  0  0  0  0
   50.9483   31.2109   42.1726 H   0  0  0  0  0  0  0  0  0  0  0  0
  1  6  2  0
  2  1  1  0
  3  2  2  0
  3  4  1  0
  4  5  2  0
  5  6  1  0
  5  7  1  0
  7 11  2  0
  7  8  1  0
  8  9  2  0
 10 14  1  0
 10  9  1  0
 11 10  1  0
 12 16  1  0
 13 14  2  0
 13 12  1  0
 14 15  1  0
 15 16  2  0
 17 18  1  0
 17  3  1  0
 19 18  1  0
 19 21  1  0
 19 20  1  0
 21 20  1  0
 21 22  1  0
 23 22  1  0
 24 23  1  0
  1 25  1  0
  2 26  1  0
  8 27  1  0
  9 28  1  0
 12 29  1  0
 15 30  1  0
 16 31  1  0
 17 32  1  0
 17 33  1  0
 18 34  1  0
 18 35  1  0
 19 36  1  6
 20 37  1  0
 20 38  1  0
 21 39  1  6
 23 40  1  0
 23 41  1  0
 24 42  1  0
 24 43  1  0
 24 44  1  0
M  ISO  8  25  14  26  14  27  14  28  14  29   9  30  14  31  14  32   8
M  ISO  8  33   8  34   8  35   8  36  13  37  13  38  13  39  13  40   8
M  ISO  4  41   8  42   8  43   8  44   8
M  END
>  <minimizedAffinity>  (1) 
-6.06834364

>  <minimizedRMSD>  (1) 
0.495051682

$$$$
