
     RDKit          3D

 31 33  0  0  1  0  0  0  0  0999 V2000
   44.5810   35.8020   44.9020 C   0  0  0  0  0  0  0  0  0  0  0  0
   45.1590   35.7190   43.5970 C   0  0  0  0  0  0  0  0  0  0  0  0
   45.9520   34.6130   43.3070 C   0  0  0  0  0  0  0  0  0  0  0  0
   46.1310   33.6810   44.2700 N   0  0  0  0  0  0  0  0  0  0  0  0
   45.5670   33.7910   45.5010 C   0  0  0  0  0  0  0  0  0  0  0  0
   44.7990   34.8400   45.8140 N   0  0  0  0  0  0  0  0  0  0  0  0
   45.8010   32.7570   46.4780 N   0  0  0  0  0  0  0  0  0  0  0  0
   45.1560   32.8410   47.7950 C   0  0  0  0  0  0  0  0  0  0  0  0
   46.0110   32.2720   48.8870 C   0  0  0  0  0  0  0  0  0  0  0  0
   47.4410   32.1590   48.4050 C   0  0  0  0  0  0  0  0  0  0  0  0
   47.4080   31.0990   47.3160 C   0  0  0  0  0  0  0  0  0  0  0  0
   46.6760   31.6470   46.1420 C   0  0  1  0  0  0  0  0  0  0  0  0
   45.9240   30.5970   45.3910 C   0  0  0  0  0  0  0  0  0  0  0  0
   45.1720   29.5620   46.0590 C   0  0  0  0  0  0  0  0  0  0  0  0
   44.4830   28.5920   44.6780 S   0  0  0  0  0  0  0  0  0  0  0  0
   45.3220   29.7430   43.4190 C   0  0  0  0  0  0  0  0  0  0  0  0
   45.8530   30.4870   44.0750 N   0  0  0  0  0  0  0  0  0  0  0  0
   43.9498   36.6644   45.1626 H   0  0  0  0  0  0  0  0  0  0  0  0
   44.9826   36.5038   42.8467 H   0  0  0  0  0  0  0  0  0  0  0  0
   46.4216   34.4997   42.3188 H   0  0  0  0  0  0  0  0  0  0  0  0
   44.9509   33.8978   48.0212 H   0  0  0  0  0  0  0  0  0  0  0  0
   44.2288   32.2507   47.7528 H   0  0  0  0  0  0  0  0  0  0  0  0
   45.9718   32.9335   49.7650 H   0  0  0  0  0  0  0  0  0  0  0  0
   45.6378   31.2742   49.1609 H   0  0  0  0  0  0  0  0  0  0  0  0
   47.7887   33.1201   47.9983 H   0  0  0  0  0  0  0  0  0  0  0  0
   48.1310   31.8927   49.2192 H   0  0  0  0  0  0  0  0  0  0  0  0
   48.4353   30.8368   47.0228 H   0  0  0  0  0  0  0  0  0  0  0  0
   46.9016   30.1955   47.6863 H   0  0  0  0  0  0  0  0  0  0  0  0
   47.4614   32.0399   45.4797 H   0  0  0  0  0  0  0  0  0  0  0  0
   45.0454   29.3982   47.1393 H   0  0  0  0  0  0  0  0  0  0  0  0
   45.2950   29.6938   42.3204 H   0  0  0  0  0  0  0  0  0  0  0  0
  1  6  2  0
  2  1  1  0
  3  2  2  0
  3  4  1  0
  4  5  2  0
  5  6  1  0
  5  7  1  0
  7  8  1  0
  8  9  1  0
 10  9  1  0
 11 10  1  0
 12  7  1  0
 12 11  1  0
 13 14  2  0
 13 12  1  0
 15 14  1  0
 16 17  2  0
 16 15  1  0
 17 13  1  0
  1 18  1  0
  2 19  1  0
  3 20  1  0
  8 21  1  0
  8 22  1  0
  9 23  1  0
  9 24  1  0
 10 25  1  0
 10 26  1  0
 11 27  1  0
 11 28  1  0
 12 29  1  6
 14 30  1  0
 16 31  1  0
M  ISO  8  18  14  19  14  20  14  21  13  22  13  23  13  24  13  25  13
M  ISO  6  26  13  27  13  28  13  29  13  30  14  31  14
M  END
>  <minimizedAffinity>  (1) 
-4.96308756

>  <minimizedRMSD>  (1) 
0.71843946

$$$$
