
     RDKit          3D

 41 44  0  0  1  0  0  0  0  0999 V2000
   44.4420   36.0580   44.4640 C   0  0  0  0  0  0  0  0  0  0  0  0
   45.0810   35.8860   43.2240 C   0  0  0  0  0  0  0  0  0  0  0  0
   45.9770   34.8530   43.1220 C   0  0  0  0  0  0  0  0  0  0  0  0
   46.1940   34.0770   44.1800 N   0  0  0  0  0  0  0  0  0  0  0  0
   45.5770   34.2510   45.3620 C   0  0  0  0  0  0  0  0  0  0  0  0
   44.6960   35.2400   45.5180 N   0  0  0  0  0  0  0  0  0  0  0  0
   45.9010   33.3360   46.4430 C   0  0  0  0  0  0  0  0  0  0  0  0
   45.0170   33.1730   47.4910 C   0  0  0  0  0  0  0  0  0  0  0  0
   45.5490   32.2550   48.3870 C   0  0  0  0  0  0  0  0  0  0  0  0
   46.7310   31.8940   47.8550 N   0  0  0  0  0  0  0  0  0  0  0  0
   46.9390   32.5340   46.7040 N   0  0  0  0  0  0  0  0  0  0  0  0
   48.9460   29.1900   48.6600 N   0  0  0  0  0  0  0  0  0  0  0  0
   47.8570   29.6420   48.0460 N   0  0  0  0  0  0  0  0  0  0  0  0
   47.7400   30.9860   48.3020 C   0  0  0  0  0  0  0  0  0  0  0  0
   48.7860   31.3570   49.0900 C   0  0  0  0  0  0  0  0  0  0  0  0
   49.5190   30.2160   49.2950 C   0  0  0  0  0  0  0  0  0  0  0  0
   46.7020   34.5940   41.8510 C   0  0  0  0  0  0  0  0  0  0  0  0
   48.1010   35.1670   41.9970 C   0  0  0  0  0  0  0  0  0  0  0  0
   49.1630   34.2730   41.4970 C   0  0  1  0  0  0  0  0  0  0  0  0
   50.3520   34.0880   42.4490 C   0  0  0  0  0  0  0  0  0  0  0  0
   49.4440   32.9530   42.0200 C   0  0  1  0  0  0  0  0  0  0  0  0
   48.8860   32.3010   43.0680 O   0  0  0  0  0  0  0  0  0  0  0  0
   48.0880   31.2220   42.6220 C   0  0  0  0  0  0  0  0  0  0  0  0
   43.7171   36.8766   44.5839 H   0  0  0  0  0  0  0  0  0  0  0  0
   44.8716   36.5507   42.3729 H   0  0  0  0  0  0  0  0  0  0  0  0
   44.0500   33.6861   47.5986 H   0  0  0  0  0  0  0  0  0  0  0  0
   45.1015   31.9002   49.3271 H   0  0  0  0  0  0  0  0  0  0  0  0
   49.2881   28.2185   48.6482 H   0  0  0  0  0  0  0  0  0  0  0  0
   48.9991   32.3628   49.4811 H   0  0  0  0  0  0  0  0  0  0  0  0
   50.4405   30.1550   49.8927 H   0  0  0  0  0  0  0  0  0  0  0  0
   46.1811   35.0839   41.0152 H   0  0  0  0  0  0  0  0  0  0  0  0
   46.7457   33.5146   41.6435 H   0  0  0  0  0  0  0  0  0  0  0  0
   48.1496   36.1119   41.4359 H   0  0  0  0  0  0  0  0  0  0  0  0
   48.2799   35.3084   43.0731 H   0  0  0  0  0  0  0  0  0  0  0  0
   48.9685   34.6058   40.4668 H   0  0  0  0  0  0  0  0  0  0  0  0
   51.3840   34.1509   42.0733 H   0  0  0  0  0  0  0  0  0  0  0  0
   50.6856   34.5251   43.4017 H   0  0  0  0  0  0  0  0  0  0  0  0
   49.4496   32.0054   41.4614 H   0  0  0  0  0  0  0  0  0  0  0  0
   47.6866   30.6793   43.4905 H   0  0  0  0  0  0  0  0  0  0  0  0
   47.2562   31.6078   42.0143 H   0  0  0  0  0  0  0  0  0  0  0  0
   48.7005   30.5397   42.0143 H   0  0  0  0  0  0  0  0  0  0  0  0
  1  6  2  0
  2  1  1  0
  3  2  2  0
  3  4  1  0
  4  5  2  0
  5  6  1  0
  5  7  1  0
  7 11  2  0
  7  8  1  0
  8  9  2  0
 10 14  1  0
 10  9  1  0
 11 10  1  0
 12 16  1  0
 13 14  2  0
 13 12  1  0
 14 15  1  0
 15 16  2  0
 17 18  1  0
 17  3  1  0
 19 18  1  0
 19 21  1  0
 19 20  1  0
 21 20  1  0
 21 22  1  0
 23 22  1  0
  1 24  1  0
  2 25  1  0
  8 26  1  0
  9 27  1  0
 12 28  1  0
 15 29  1  0
 16 30  1  0
 17 31  1  0
 17 32  1  0
 18 33  1  0
 18 34  1  0
 19 35  1  6
 20 36  1  0
 20 37  1  0
 21 38  1  6
 23 39  1  0
 23 40  1  0
 23 41  1  0
M  ISO  8  24  14  25  14  26  14  27  14  28   9  29  14  30  14  31   8
M  ISO  8  32   8  33   8  34   8  35  13  36  13  37  13  38  13  39   8
M  ISO  2  40   8  41   8
M  END
>  <minimizedAffinity>  (1) 
-6.14026165

>  <minimizedRMSD>  (1) 
0.501232266

$$$$
