
     RDKit          3D

 48 52  0  0  1  0  0  0  0  0999 V2000
   44.4160   35.8850   44.6900 C   0  0  0  0  0  0  0  0  0  0  0  0
   45.0200   35.7090   43.4320 C   0  0  0  0  0  0  0  0  0  0  0  0
   45.9150   34.6850   43.2960 C   0  0  0  0  0  0  0  0  0  0  0  0
   46.1650   33.9190   44.3500 N   0  0  0  0  0  0  0  0  0  0  0  0
   45.5830   34.0910   45.5560 C   0  0  0  0  0  0  0  0  0  0  0  0
   44.7040   35.0740   45.7360 N   0  0  0  0  0  0  0  0  0  0  0  0
   45.9410   33.1800   46.6310 C   0  0  0  0  0  0  0  0  0  0  0  0
   45.0630   32.9790   47.6790 C   0  0  0  0  0  0  0  0  0  0  0  0
   45.6280   32.0740   48.5650 C   0  0  0  0  0  0  0  0  0  0  0  0
   46.8150   31.7600   48.0320 N   0  0  0  0  0  0  0  0  0  0  0  0
   47.0030   32.4140   46.8860 N   0  0  0  0  0  0  0  0  0  0  0  0
   49.1500   29.1460   48.8230 N   0  0  0  0  0  0  0  0  0  0  0  0
   48.0400   29.5520   48.2070 N   0  0  0  0  0  0  0  0  0  0  0  0
   47.8620   30.8830   48.4720 C   0  0  0  0  0  0  0  0  0  0  0  0
   48.8890   31.2860   49.2660 C   0  0  0  0  0  0  0  0  0  0  0  0
   49.6700   30.1850   49.4640 C   0  0  0  0  0  0  0  0  0  0  0  0
   46.6140   34.4320   42.0050 C   0  0  0  0  0  0  0  0  0  0  0  0
   47.8160   35.3590   41.9690 C   0  0  0  0  0  0  0  0  0  0  0  0
   49.0480   34.7300   41.5080 C   0  0  1  0  0  0  0  0  0  0  0  0
   50.1950   34.5920   42.4820 C   0  0  0  0  0  0  0  0  0  0  0  0
   49.5380   33.3940   41.9400 C   0  0  1  0  0  0  0  0  0  0  0  0
   48.9640   32.5830   42.8690 O   0  0  0  0  0  0  0  0  0  0  0  0
   48.6760   31.3240   42.3730 C   0  0  0  0  0  0  0  0  0  0  0  0
   49.2060   30.3500   43.3790 C   0  0  0  0  0  0  0  0  0  0  0  0
   50.5120   29.9880   43.4460 C   0  0  0  0  0  0  0  0  0  0  0  0
   51.0550   29.1390   44.3090 C   0  0  0  0  0  0  0  0  0  0  0  0
   50.0540   28.6070   45.2260 C   0  0  0  0  0  0  0  0  0  0  0  0
   48.4590   29.4620   44.6510 S   0  0  0  0  0  0  0  0  0  0  0  0
   43.6918   36.7014   44.8278 H   0  0  0  0  0  0  0  0  0  0  0  0
   44.7805   36.3720   42.5875 H   0  0  0  0  0  0  0  0  0  0  0  0
   44.0790   33.4575   47.7918 H   0  0  0  0  0  0  0  0  0  0  0  0
   45.1945   31.6961   49.5027 H   0  0  0  0  0  0  0  0  0  0  0  0
   49.5369   28.1916   48.8047 H   0  0  0  0  0  0  0  0  0  0  0  0
   49.0566   32.2961   49.6679 H   0  0  0  0  0  0  0  0  0  0  0  0
   50.5915   30.1621   50.0643 H   0  0  0  0  0  0  0  0  0  0  0  0
   46.9424   33.3836   41.9511 H   0  0  0  0  0  0  0  0  0  0  0  0
   45.9460   34.6179   41.1510 H   0  0  0  0  0  0  0  0  0  0  0  0
   47.5843   36.1968   41.2949 H   0  0  0  0  0  0  0  0  0  0  0  0
   47.9961   35.6799   43.0056 H   0  0  0  0  0  0  0  0  0  0  0  0
   48.8554   35.1713   40.5190 H   0  0  0  0  0  0  0  0  0  0  0  0
   51.2176   34.8486   42.1681 H   0  0  0  0  0  0  0  0  0  0  0  0
   50.4098   34.9731   43.4912 H   0  0  0  0  0  0  0  0  0  0  0  0
   49.7797   32.5072   41.3357 H   0  0  0  0  0  0  0  0  0  0  0  0
   47.5894   31.1990   42.2564 H   0  0  0  0  0  0  0  0  0  0  0  0
   49.1315   31.1679   41.3840 H   0  0  0  0  0  0  0  0  0  0  0  0
   51.1896   30.4450   42.7098 H   0  0  0  0  0  0  0  0  0  0  0  0
   52.1217   28.8713   44.3299 H   0  0  0  0  0  0  0  0  0  0  0  0
   50.1893   27.8882   46.0476 H   0  0  0  0  0  0  0  0  0  0  0  0
  1  6  2  0
  2  1  1  0
  3  2  2  0
  3  4  1  0
  4  5  2  0
  5  6  1  0
  5  7  1  0
  7 11  2  0
  7  8  1  0
  8  9  2  0
 10 14  1  0
 10  9  1  0
 11 10  1  0
 12 16  1  0
 13 14  2  0
 13 12  1  0
 14 15  1  0
 15 16  2  0
 17  3  1  0
 18 17  1  0
 19 21  1  0
 19 18  1  0
 19 20  1  0
 21 20  1  0
 21 22  1  0
 23 22  1  0
 23 24  1  0
 24 25  2  0
 24 28  1  0
 25 26  1  0
 26 27  2  0
 28 27  1  0
  1 29  1  0
  2 30  1  0
  8 31  1  0
  9 32  1  0
 12 33  1  0
 15 34  1  0
 16 35  1  0
 17 36  1  0
 17 37  1  0
 18 38  1  0
 18 39  1  0
 19 40  1  6
 20 41  1  0
 20 42  1  0
 21 43  1  6
 23 44  1  0
 23 45  1  0
 25 46  1  0
 26 47  1  0
 27 48  1  0
M  ISO  8  29  14  30  14  31  14  32  14  33   9  34  14  35  14  36   8
M  ISO  8  37   8  38   8  39   8  40  13  41  13  42  13  43  13  44   8
M  ISO  4  45   8  46  14  47  14  48  14
M  END
>  <minimizedAffinity>  (1) 
-6.19204473

>  <minimizedRMSD>  (1) 
1.25264251

$$$$
