
     RDKit          3D

 49 53  0  0  1  0  0  0  0  0999 V2000
   46.6000   34.4770   41.9920 C   0  0  0  0  0  0  0  0  0  0  0  0
   44.4190   35.9170   44.6970 C   0  0  0  0  0  0  0  0  0  0  0  0
   45.0160   35.7520   43.4290 C   0  0  0  0  0  0  0  0  0  0  0  0
   45.9030   34.7190   43.2840 C   0  0  0  0  0  0  0  0  0  0  0  0
   46.1480   33.9370   44.3340 N   0  0  0  0  0  0  0  0  0  0  0  0
   45.5710   34.1040   45.5410 C   0  0  0  0  0  0  0  0  0  0  0  0
   44.7030   35.0970   45.7280 N   0  0  0  0  0  0  0  0  0  0  0  0
   45.9260   33.1840   46.6070 C   0  0  0  0  0  0  0  0  0  0  0  0
   45.0500   32.9750   47.6540 C   0  0  0  0  0  0  0  0  0  0  0  0
   45.6140   32.0610   48.5340 C   0  0  0  0  0  0  0  0  0  0  0  0
   46.8020   31.7490   47.9960 N   0  0  0  0  0  0  0  0  0  0  0  0
   46.9910   32.4120   46.8550 N   0  0  0  0  0  0  0  0  0  0  0  0
   49.1250   29.1160   48.7580 N   0  0  0  0  0  0  0  0  0  0  0  0
   48.0110   29.5420   48.1510 N   0  0  0  0  0  0  0  0  0  0  0  0
   47.8470   30.8670   48.4270 C   0  0  0  0  0  0  0  0  0  0  0  0
   48.8870   31.2590   49.2230 C   0  0  0  0  0  0  0  0  0  0  0  0
   49.6600   30.1490   49.4080 C   0  0  0  0  0  0  0  0  0  0  0  0
   47.8290   35.3740   41.9810 C   0  0  0  0  0  0  0  0  0  0  0  0
   49.0400   34.7170   41.5050 C   0  0  1  0  0  0  0  0  0  0  0  0
   50.1900   34.5380   42.4680 C   0  0  0  0  0  0  0  0  0  0  0  0
   49.4950   33.3630   41.9150 C   0  0  1  0  0  0  0  0  0  0  0  0
   48.9120   32.5630   42.8500 O   0  0  0  0  0  0  0  0  0  0  0  0
   48.8200   31.2490   42.4260 C   0  0  0  0  0  0  0  0  0  0  0  0
   49.7990   30.4650   43.2510 C   0  0  0  0  0  0  0  0  0  0  0  0
   51.1640   30.3450   43.1140 C   0  0  0  0  0  0  0  0  0  0  0  0
   51.8830   29.5790   43.9790 C   0  0  0  0  0  0  0  0  0  0  0  0
   51.2460   28.9370   44.9720 N   0  0  0  0  0  0  0  0  0  0  0  0
   49.9210   29.0440   45.1170 C   0  0  0  0  0  0  0  0  0  0  0  0
   49.2110   29.7960   44.2700 N   0  0  0  0  0  0  0  0  0  0  0  0
   46.9007   33.4216   41.9158 H   0  0  0  0  0  0  0  0  0  0  0  0
   45.9409   34.7000   41.1400 H   0  0  0  0  0  0  0  0  0  0  0  0
   43.7021   36.7375   44.8480 H   0  0  0  0  0  0  0  0  0  0  0  0
   44.7787   36.4252   42.5920 H   0  0  0  0  0  0  0  0  0  0  0  0
   44.0668   33.4540   47.7715 H   0  0  0  0  0  0  0  0  0  0  0  0
   45.1806   31.6765   49.4690 H   0  0  0  0  0  0  0  0  0  0  0  0
   49.5025   28.1581   48.7280 H   0  0  0  0  0  0  0  0  0  0  0  0
   49.0649   32.2647   49.6315 H   0  0  0  0  0  0  0  0  0  0  0  0
   50.5843   30.1128   50.0033 H   0  0  0  0  0  0  0  0  0  0  0  0
   47.6230   36.2345   41.3275 H   0  0  0  0  0  0  0  0  0  0  0  0
   48.0165   35.6686   43.0241 H   0  0  0  0  0  0  0  0  0  0  0  0
   48.8525   35.1755   40.5229 H   0  0  0  0  0  0  0  0  0  0  0  0
   51.2167   34.7711   42.1492 H   0  0  0  0  0  0  0  0  0  0  0  0
   50.4229   34.9010   43.4799 H   0  0  0  0  0  0  0  0  0  0  0  0
   49.7021   32.4784   41.2948 H   0  0  0  0  0  0  0  0  0  0  0  0
   47.7998   30.8692   42.5843 H   0  0  0  0  0  0  0  0  0  0  0  0
   49.0441   31.1609   41.3527 H   0  0  0  0  0  0  0  0  0  0  0  0
   51.6781   30.8734   42.2976 H   0  0  0  0  0  0  0  0  0  0  0  0
   52.9733   29.4867   43.8662 H   0  0  0  0  0  0  0  0  0  0  0  0
   49.4140   28.5118   45.9354 H   0  0  0  0  0  0  0  0  0  0  0  0
  1  4  1  0
  2  7  2  0
  3  2  1  0
  4  3  2  0
  4  5  1  0
  5  6  2  0
  6  7  1  0
  6  8  1  0
  8 12  2  0
  8  9  1  0
  9 10  2  0
 11 15  1  0
 11 10  1  0
 12 11  1  0
 13 17  1  0
 14 15  2  0
 14 13  1  0
 15 16  1  0
 16 17  2  0
 18  1  1  0
 19 21  1  0
 19 18  1  0
 19 20  1  0
 21 20  1  0
 21 22  1  0
 23 22  1  0
 23 24  1  0
 24 29  1  0
 25 24  2  0
 25 26  1  0
 26 27  2  0
 27 28  1  0
 29 28  2  0
  1 30  1  0
  1 31  1  0
  2 32  1  0
  3 33  1  0
  9 34  1  0
 10 35  1  0
 13 36  1  0
 16 37  1  0
 17 38  1  0
 18 39  1  0
 18 40  1  0
 19 41  1  6
 20 42  1  0
 20 43  1  0
 21 44  1  6
 23 45  1  0
 23 46  1  0
 25 47  1  0
 26 48  1  0
 28 49  1  0
M  ISO  8  30   8  31   8  32  14  33  14  34  14  35  14  36   9  37  14
M  ISO  8  38  14  39   8  40   8  41  13  42  13  43  13  44  13  45   8
M  ISO  4  46   8  47  14  48  14  49  14
M  END
>  <minimizedAffinity>  (1) 
-6.2550559

>  <minimizedRMSD>  (1) 
1.22347069

$$$$
