
     RDKit          3D

 48 52  0  0  1  0  0  0  0  0999 V2000
   46.6480   34.5800   41.8390 C   0  0  0  0  0  0  0  0  0  0  0  0
   44.4300   36.0570   44.4940 C   0  0  0  0  0  0  0  0  0  0  0  0
   45.0530   35.8790   43.2390 C   0  0  0  0  0  0  0  0  0  0  0  0
   45.9330   34.8410   43.1170 C   0  0  0  0  0  0  0  0  0  0  0  0
   46.1510   34.0630   44.1800 N   0  0  0  0  0  0  0  0  0  0  0  0
   45.5530   34.2440   45.3660 C   0  0  0  0  0  0  0  0  0  0  0  0
   44.6870   35.2400   45.5400 N   0  0  0  0  0  0  0  0  0  0  0  0
   45.8820   33.3230   46.4490 C   0  0  0  0  0  0  0  0  0  0  0  0
   45.0160   33.1840   47.5160 C   0  0  0  0  0  0  0  0  0  0  0  0
   45.5460   32.2620   48.4050 C   0  0  0  0  0  0  0  0  0  0  0  0
   46.7040   31.8770   47.8540 N   0  0  0  0  0  0  0  0  0  0  0  0
   46.9040   32.5030   46.6950 N   0  0  0  0  0  0  0  0  0  0  0  0
   48.8960   29.1450   48.6310 N   0  0  0  0  0  0  0  0  0  0  0  0
   47.7980   29.6120   48.0380 N   0  0  0  0  0  0  0  0  0  0  0  0
   47.7090   30.9490   48.2860 C   0  0  0  0  0  0  0  0  0  0  0  0
   48.7810   31.3000   49.0520 C   0  0  0  0  0  0  0  0  0  0  0  0
   49.5000   30.1560   49.2500 C   0  0  0  0  0  0  0  0  0  0  0  0
   47.9700   35.3180   41.9130 C   0  0  0  0  0  0  0  0  0  0  0  0
   49.1220   34.5300   41.4950 C   0  0  1  0  0  0  0  0  0  0  0  0
   50.2630   34.3550   42.4710 C   0  0  0  0  0  0  0  0  0  0  0  0
   49.4810   33.1910   42.0330 C   0  0  1  0  0  0  0  0  0  0  0  0
   48.8370   32.5190   43.0250 O   0  0  0  0  0  0  0  0  0  0  0  0
   48.5200   31.2210   42.6780 C   0  0  0  0  0  0  0  0  0  0  0  0
   49.3920   30.2890   43.4730 C   0  0  0  0  0  0  0  0  0  0  0  0
   48.9470   29.6500   44.6190 C   0  0  0  0  0  0  0  0  0  0  0  0
   49.9530   28.8600   45.1260 C   0  0  0  0  0  0  0  0  0  0  0  0
   50.9990   29.0380   44.2670 N   0  0  0  0  0  0  0  0  0  0  0  0
   50.6560   29.8710   43.3150 N   0  0  0  0  0  0  0  0  0  0  0  0
   46.0544   34.9522   40.9910 H   0  0  0  0  0  0  0  0  0  0  0  0
   46.8077   33.5017   41.6913 H   0  0  0  0  0  0  0  0  0  0  0  0
   43.7158   36.8834   44.6240 H   0  0  0  0  0  0  0  0  0  0  0  0
   44.8383   36.5493   42.3936 H   0  0  0  0  0  0  0  0  0  0  0  0
   44.0621   33.7175   47.6399 H   0  0  0  0  0  0  0  0  0  0  0  0
   45.1103   31.9210   49.3557 H   0  0  0  0  0  0  0  0  0  0  0  0
   49.2216   28.1680   48.6132 H   0  0  0  0  0  0  0  0  0  0  0  0
   49.0190   32.3037   49.4340 H   0  0  0  0  0  0  0  0  0  0  0  0
   50.4318   30.0820   49.8299 H   0  0  0  0  0  0  0  0  0  0  0  0
   47.9060   36.2047   41.2652 H   0  0  0  0  0  0  0  0  0  0  0  0
   48.1298   35.5717   42.9714 H   0  0  0  0  0  0  0  0  0  0  0  0
   48.9598   34.9051   40.4737 H   0  0  0  0  0  0  0  0  0  0  0  0
   51.3018   34.4796   42.1315 H   0  0  0  0  0  0  0  0  0  0  0  0
   50.5293   34.7928   43.4444 H   0  0  0  0  0  0  0  0  0  0  0  0
   49.6262   32.2377   41.5037 H   0  0  0  0  0  0  0  0  0  0  0  0
   47.4620   31.0238   42.9053 H   0  0  0  0  0  0  0  0  0  0  0  0
   48.6862   31.0670   41.6016 H   0  0  0  0  0  0  0  0  0  0  0  0
   47.9435   29.7577   45.0564 H   0  0  0  0  0  0  0  0  0  0  0  0
   49.9214   28.2257   46.0242 H   0  0  0  0  0  0  0  0  0  0  0  0
   51.9201   28.5853   44.3540 H   0  0  0  0  0  0  0  0  0  0  0  0
  1 18  1  0
  1  4  1  0
  2  7  2  0
  3  2  1  0
  4  3  2  0
  4  5  1  0
  5  6  2  0
  6  7  1  0
  6  8  1  0
  8 12  2  0
  8  9  1  0
  9 10  2  0
 11 15  1  0
 11 10  1  0
 12 11  1  0
 13 17  1  0
 14 15  2  0
 14 13  1  0
 15 16  1  0
 16 17  2  0
 19 18  1  0
 19 21  1  0
 19 20  1  0
 21 20  1  0
 21 22  1  0
 23 22  1  0
 23 24  1  0
 24 25  1  0
 25 26  2  0
 27 26  1  0
 28 24  2  0
 28 27  1  0
  1 29  1  0
  1 30  1  0
  2 31  1  0
  3 32  1  0
  9 33  1  0
 10 34  1  0
 13 35  1  0
 16 36  1  0
 17 37  1  0
 18 38  1  0
 18 39  1  0
 19 40  1  6
 20 41  1  0
 20 42  1  0
 21 43  1  6
 23 44  1  0
 23 45  1  0
 25 46  1  0
 26 47  1  0
 27 48  1  0
M  ISO  8  29   8  30   8  31  14  32  14  33  14  34  14  35   9  36  14
M  ISO  8  37  14  38   8  39   8  40  13  41  13  42  13  43  13  44   8
M  ISO  4  45   8  46  14  47  14  48   9
M  END
>  <minimizedAffinity>  (1) 
-6.12361765

>  <minimizedRMSD>  (1) 
1.13953424

$$$$
