
     RDKit          3D

 54 58  0  0  1  0  0  0  0  0999 V2000
   44.4030   35.9280   44.6930 C   0  0  0  0  0  0  0  0  0  0  0  0
   44.9970   35.7530   43.4360 C   0  0  0  0  0  0  0  0  0  0  0  0
   45.8860   34.7240   43.2880 C   0  0  0  0  0  0  0  0  0  0  0  0
   46.1370   33.9490   44.3360 N   0  0  0  0  0  0  0  0  0  0  0  0
   45.5620   34.1220   45.5420 C   0  0  0  0  0  0  0  0  0  0  0  0
   44.6930   35.1100   45.7330 N   0  0  0  0  0  0  0  0  0  0  0  0
   45.9260   33.2080   46.6160 C   0  0  0  0  0  0  0  0  0  0  0  0
   45.0450   32.9890   47.6560 C   0  0  0  0  0  0  0  0  0  0  0  0
   45.6150   32.0890   48.5440 C   0  0  0  0  0  0  0  0  0  0  0  0
   46.8120   31.7950   48.0170 N   0  0  0  0  0  0  0  0  0  0  0  0
   47.0010   32.4560   46.8730 N   0  0  0  0  0  0  0  0  0  0  0  0
   49.1460   29.1770   48.7890 N   0  0  0  0  0  0  0  0  0  0  0  0
   48.0460   29.6080   48.2000 N   0  0  0  0  0  0  0  0  0  0  0  0
   47.8650   30.9320   48.4570 C   0  0  0  0  0  0  0  0  0  0  0  0
   48.8980   31.3180   49.2360 C   0  0  0  0  0  0  0  0  0  0  0  0
   49.6800   30.2140   49.4290 C   0  0  0  0  0  0  0  0  0  0  0  0
   46.5780   34.4840   41.9940 C   0  0  0  0  0  0  0  0  0  0  0  0
   47.8190   35.3520   41.9810 C   0  0  0  0  0  0  0  0  0  0  0  0
   49.0240   34.6750   41.5230 C   0  0  1  0  0  0  0  0  0  0  0  0
   50.2130   34.6100   42.4510 C   0  0  0  0  0  0  0  0  0  0  0  0
   49.5250   33.3760   42.0440 C   0  0  1  0  0  0  0  0  0  0  0  0
   48.9950   32.6540   43.0690 O   0  0  0  0  0  0  0  0  0  0  0  0
   48.5380   31.4180   42.6640 C   0  0  0  0  0  0  0  0  0  0  0  0
   47.5890   30.7660   43.6690 C   0  0  0  0  0  0  0  0  0  0  0  0
   46.7230   29.7560   42.9250 C   0  0  0  0  0  0  0  0  0  0  0  0
   47.1130   28.3910   43.3800 C   0  0  0  0  0  0  0  0  0  0  0  0
   47.7910   28.6040   44.7250 C   0  0  0  0  0  0  0  0  0  0  0  0
   48.4400   29.9470   44.6150 C   0  0  0  0  0  0  0  0  0  0  0  0
   43.6848   36.7484   44.8385 H   0  0  0  0  0  0  0  0  0  0  0  0
   44.7563   36.4211   42.5959 H   0  0  0  0  0  0  0  0  0  0  0  0
   44.0532   33.4525   47.7629 H   0  0  0  0  0  0  0  0  0  0  0  0
   45.1799   31.7012   49.4769 H   0  0  0  0  0  0  0  0  0  0  0  0
   49.5205   28.2180   48.7588 H   0  0  0  0  0  0  0  0  0  0  0  0
   49.0758   32.3264   49.6378 H   0  0  0  0  0  0  0  0  0  0  0  0
   50.6066   30.1870   50.0212 H   0  0  0  0  0  0  0  0  0  0  0  0
   46.8588   33.4239   41.9079 H   0  0  0  0  0  0  0  0  0  0  0  0
   45.9200   34.7315   41.1480 H   0  0  0  0  0  0  0  0  0  0  0  0
   47.6324   36.2085   41.3165 H   0  0  0  0  0  0  0  0  0  0  0  0
   48.0041   35.6493   43.0238 H   0  0  0  0  0  0  0  0  0  0  0  0
   48.7888   35.0328   40.5098 H   0  0  0  0  0  0  0  0  0  0  0  0
   51.2213   34.8294   42.0700 H   0  0  0  0  0  0  0  0  0  0  0  0
   50.4764   35.0738   43.4130 H   0  0  0  0  0  0  0  0  0  0  0  0
   49.7298   32.4388   41.5057 H   0  0  0  0  0  0  0  0  0  0  0  0
   48.0062   31.5381   41.7086 H   0  0  0  0  0  0  0  0  0  0  0  0
   49.4151   30.7608   42.5700 H   0  0  0  0  0  0  0  0  0  0  0  0
   46.9846   31.5296   44.1804 H   0  0  0  0  0  0  0  0  0  0  0  0
   46.8878   29.8496   41.8414 H   0  0  0  0  0  0  0  0  0  0  0  0
   45.6585   29.9386   43.1334 H   0  0  0  0  0  0  0  0  0  0  0  0
   46.2246   27.7520   43.4916 H   0  0  0  0  0  0  0  0  0  0  0  0
   47.7739   27.8878   42.6589 H   0  0  0  0  0  0  0  0  0  0  0  0
   47.0503   28.5966   45.5382 H   0  0  0  0  0  0  0  0  0  0  0  0
   48.5157   27.8094   44.9561 H   0  0  0  0  0  0  0  0  0  0  0  0
   49.4593   29.8436   44.2147 H   0  0  0  0  0  0  0  0  0  0  0  0
   48.5149   30.4317   45.5996 H   0  0  0  0  0  0  0  0  0  0  0  0
  1  6  2  0
  2  1  1  0
  3  2  2  0
  3  4  1  0
  4  5  2  0
  5  6  1  0
  5  7  1  0
  7 11  2  0
  7  8  1  0
  8  9  2  0
 10 14  1  0
 10  9  1  0
 11 10  1  0
 12 16  1  0
 13 14  2  0
 13 12  1  0
 14 15  1  0
 15 16  2  0
 17  3  1  0
 18 17  1  0
 19 18  1  0
 19 21  1  0
 19 20  1  0
 21 20  1  0
 21 22  1  0
 23 22  1  0
 23 24  1  0
 24 28  1  0
 25 26  1  0
 25 24  1  0
 26 27  1  0
 28 27  1  0
  1 29  1  0
  2 30  1  0
  8 31  1  0
  9 32  1  0
 12 33  1  0
 15 34  1  0
 16 35  1  0
 17 36  1  0
 17 37  1  0
 18 38  1  0
 18 39  1  0
 19 40  1  6
 20 41  1  0
 20 42  1  0
 21 43  1  6
 23 44  1  0
 23 45  1  0
 24 46  1  0
 25 47  1  0
 25 48  1  0
 26 49  1  0
 26 50  1  0
 27 51  1  0
 27 52  1  0
 28 53  1  0
 28 54  1  0
M  ISO  8  29  14  30  14  31  14  32  14  33   9  34  14  35  14  36   8
M  ISO  8  37   8  38   8  39   8  40  13  41  13  42  13  43  13  44   8
M  ISO  8  45   8  46  13  47  13  48  13  49  13  50  13  51  13  52  13
M  ISO  2  53  13  54  13
M  END
>  <minimizedAffinity>  (1) 
-6.04169273

>  <minimizedRMSD>  (1) 
0.405463368

$$$$
