
     RDKit          3D

 37 40  0  0  0  0  0  0  0  0999 V2000
   45.6550   34.0790   42.8010 N   0  0  0  0  0  0  0  0  0  0  0  0
   44.9000   33.8630   41.7050 C   0  0  0  0  0  0  0  0  0  0  0  0
   45.6580   33.9970   40.5940 N   0  0  0  0  0  0  0  0  0  0  0  0
   46.9150   34.3010   40.9750 C   0  0  0  0  0  0  0  0  0  0  0  0
   48.0760   34.5420   40.2350 C   0  0  0  0  0  0  0  0  0  0  0  0
   48.0750   34.4950   38.9860 O   0  0  0  0  0  0  0  0  0  0  0  0
   49.2250   34.8310   40.8530 N   0  0  0  0  0  0  0  0  0  0  0  0
   49.1970   34.8740   42.1920 C   0  0  0  0  0  0  0  0  0  0  0  0
   50.3480   35.1680   42.9650 N   0  0  0  0  0  0  0  0  0  0  0  0
   48.0940   34.6470   42.9110 N   0  0  0  0  0  0  0  0  0  0  0  0
   46.9060   34.3520   42.3540 C   0  0  0  0  0  0  0  0  0  0  0  0
   44.4470   35.2020   46.0980 C   0  0  0  0  0  0  0  0  0  0  0  0
   44.7070   35.1620   44.7010 C   0  0  0  0  0  0  0  0  0  0  0  0
   45.4210   34.0780   44.1920 C   0  0  0  0  0  0  0  0  0  0  0  0
   45.8330   33.1110   45.0640 N   0  0  0  0  0  0  0  0  0  0  0  0
   45.5670   33.1880   46.3710 C   0  0  0  0  0  0  0  0  0  0  0  0
   44.8890   34.2030   46.9030 N   0  0  0  0  0  0  0  0  0  0  0  0
   46.0310   32.1400   47.2140 N   0  0  0  0  0  0  0  0  0  0  0  0
   46.4950   30.8520   46.7310 C   0  0  0  0  0  0  0  0  0  0  0  0
   46.0470   29.8460   47.8000 C   0  0  0  0  0  0  0  0  0  0  0  0
   44.8270   30.3060   48.3460 O   0  0  0  0  0  0  0  0  0  0  0  0
   45.1740   31.2560   49.2970 C   0  0  0  0  0  0  0  0  0  0  0  0
   46.0790   32.2790   48.6590 C   0  0  0  0  0  0  0  0  0  0  0  0
   43.8284   33.6150   41.7137 H   0  0  0  0  0  0  0  0  0  0  0  0
   50.0908   35.0121   40.3253 H   0  0  0  0  0  0  0  0  0  0  0  0
   50.2858   35.1916   43.9929 H   0  0  0  0  0  0  0  0  0  0  0  0
   51.2466   35.3580   42.4989 H   0  0  0  0  0  0  0  0  0  0  0  0
   43.8860   36.0450   46.5276 H   0  0  0  0  0  0  0  0  0  0  0  0
   44.3538   35.9659   44.0384 H   0  0  0  0  0  0  0  0  0  0  0  0
   46.0366   30.6147   45.7596 H   0  0  0  0  0  0  0  0  0  0  0  0
   47.5839   30.8351   46.5762 H   0  0  0  0  0  0  0  0  0  0  0  0
   45.9023   28.8556   47.3438 H   0  0  0  0  0  0  0  0  0  0  0  0
   46.8101   29.7586   48.5874 H   0  0  0  0  0  0  0  0  0  0  0  0
   44.2662   31.7500   49.6735 H   0  0  0  0  0  0  0  0  0  0  0  0
   45.6941   30.7704   50.1358 H   0  0  0  0  0  0  0  0  0  0  0  0
   47.1106   32.1229   49.0075 H   0  0  0  0  0  0  0  0  0  0  0  0
   45.7436   33.2883   48.9397 H   0  0  0  0  0  0  0  0  0  0  0  0
  1 14  1  0
  2  1  1  0
  3  4  1  0
  3  2  2  0
  4 11  2  0
  5  7  1  0
  5  4  1  0
  6  5  2  0
  7  8  1  0
  8 10  2  0
  8  9  1  0
 11  1  1  0
 11 10  1  0
 12 17  2  0
 13 12  1  0
 14 13  2  0
 14 15  1  0
 15 16  2  0
 16 17  1  0
 16 18  1  0
 18 23  1  0
 19 18  1  0
 19 20  1  0
 20 21  1  0
 21 22  1  0
 23 22  1  0
  2 24  1  0
  7 25  1  0
  9 26  1  0
  9 27  1  0
 12 28  1  0
 13 29  1  0
 19 30  1  0
 19 31  1  0
 20 32  1  0
 20 33  1  0
 22 34  1  0
 22 35  1  0
 23 36  1  0
 23 37  1  0
M  ISO  8  24  14  25   9  28  14  29  14  30  13  31  13  32  13  33  13
M  ISO  4  34  13  35  13  36  13  37  13
M  END
>  <minimizedAffinity>  (1) 
-7.45569658

>  <minimizedRMSD>  (1) 
1.11004102

$$$$
