
     RDKit          3D

 36 39  0  0  0  0  0  0  0  0999 V2000
   45.6010   34.1460   42.7220 N   0  0  0  0  0  0  0  0  0  0  0  0
   44.8930   33.9070   41.6110 C   0  0  0  0  0  0  0  0  0  0  0  0
   45.6780   33.9940   40.5220 N   0  0  0  0  0  0  0  0  0  0  0  0
   46.9190   34.2950   40.9270 C   0  0  0  0  0  0  0  0  0  0  0  0
   48.1070   34.4980   40.2150 C   0  0  0  0  0  0  0  0  0  0  0  0
   48.1530   34.4130   38.9710 O   0  0  0  0  0  0  0  0  0  0  0  0
   49.2400   34.7940   40.8580 N   0  0  0  0  0  0  0  0  0  0  0  0
   49.1700   34.8820   42.1940 C   0  0  0  0  0  0  0  0  0  0  0  0
   50.3090   35.1900   42.9830 N   0  0  0  0  0  0  0  0  0  0  0  0
   48.0470   34.6900   42.8840 N   0  0  0  0  0  0  0  0  0  0  0  0
   46.8630   34.3880   42.3010 C   0  0  0  0  0  0  0  0  0  0  0  0
   44.4110   35.4420   45.9620 C   0  0  0  0  0  0  0  0  0  0  0  0
   44.7030   35.3550   44.5780 C   0  0  0  0  0  0  0  0  0  0  0  0
   45.3290   34.1920   44.1010 C   0  0  0  0  0  0  0  0  0  0  0  0
   45.6240   33.2020   45.0020 N   0  0  0  0  0  0  0  0  0  0  0  0
   45.3260   33.3340   46.3020 C   0  0  0  0  0  0  0  0  0  0  0  0
   44.7280   34.4330   46.7860 N   0  0  0  0  0  0  0  0  0  0  0  0
   45.6540   32.2740   47.1970 N   0  0  0  0  0  0  0  0  0  0  0  0
   45.9870   32.4230   48.6050 C   0  0  0  0  0  0  0  0  0  0  0  0
   45.7870   31.0880   49.2410 C   0  0  0  0  0  0  0  0  0  0  0  0
   45.4810   30.0990   48.1490 C   0  0  0  0  0  0  0  0  0  0  0  0
   45.7180   30.8560   46.8830 C   0  0  0  0  0  0  0  0  0  0  0  0
   43.8186   33.6721   41.5914 H   0  0  0  0  0  0  0  0  0  0  0  0
   50.1241   34.9471   40.3521 H   0  0  0  0  0  0  0  0  0  0  0  0
   50.2245   35.2508   44.0077 H   0  0  0  0  0  0  0  0  0  0  0  0
   51.2200   35.3527   42.5308 H   0  0  0  0  0  0  0  0  0  0  0  0
   43.9217   36.3421   46.3624 H   0  0  0  0  0  0  0  0  0  0  0  0
   44.4458   36.1777   43.8946 H   0  0  0  0  0  0  0  0  0  0  0  0
   47.0343   32.7411   48.7145 H   0  0  0  0  0  0  0  0  0  0  0  0
   45.3527   33.1852   49.0812 H   0  0  0  0  0  0  0  0  0  0  0  0
   46.7011   30.7865   49.7734 H   0  0  0  0  0  0  0  0  0  0  0  0
   44.9605   31.1278   49.9658 H   0  0  0  0  0  0  0  0  0  0  0  0
   46.1510   29.2289   48.2132 H   0  0  0  0  0  0  0  0  0  0  0  0
   44.4560   29.7053   48.2158 H   0  0  0  0  0  0  0  0  0  0  0  0
   44.9446   30.6008   46.1436 H   0  0  0  0  0  0  0  0  0  0  0  0
   46.7000   30.5994   46.4589 H   0  0  0  0  0  0  0  0  0  0  0  0
  1 14  1  0
  2  1  1  0
  3  4  1  0
  3  2  2  0
  4 11  2  0
  5  7  1  0
  5  4  1  0
  6  5  2  0
  7  8  1  0
  8 10  2  0
  8  9  1  0
 11  1  1  0
 11 10  1  0
 12 17  2  0
 13 12  1  0
 14 13  2  0
 14 15  1  0
 15 16  2  0
 16 17  1  0
 16 18  1  0
 18 19  1  0
 19 20  1  0
 21 20  1  0
 22 18  1  0
 22 21  1  0
  2 23  1  0
  7 24  1  0
  9 25  1  0
  9 26  1  0
 12 27  1  0
 13 28  1  0
 19 29  1  0
 19 30  1  0
 20 31  1  0
 20 32  1  0
 21 33  1  0
 21 34  1  0
 22 35  1  0
 22 36  1  0
M  ISO  8  23  14  24   9  27  14  28  14  29  13  30  13  31  13  32  13
M  ISO  4  33  13  34  13  35  13  36  13
M  END
>  <minimizedAffinity>  (1) 
-7.2617383

>  <minimizedRMSD>  (1) 
0.985816658

$$$$
