
     RDKit          3D

 36 38  0  0  1  0  0  0  0  0999 V2000
   44.5530   36.1670   44.7890 C   0  0  0  0  0  0  0  0  0  0  0  0
   44.8490   36.0240   43.3990 C   0  0  0  0  0  0  0  0  0  0  0  0
   45.3820   34.8100   42.9670 C   0  0  0  0  0  0  0  0  0  0  0  0
   45.5890   33.8400   43.8840 N   0  0  0  0  0  0  0  0  0  0  0  0
   45.3070   33.9910   45.1860 C   0  0  0  0  0  0  0  0  0  0  0  0
   44.7930   35.1400   45.6390 N   0  0  0  0  0  0  0  0  0  0  0  0
   45.5490   32.9170   46.1110 N   0  0  0  0  0  0  0  0  0  0  0  0
   45.2440   33.0800   47.5230 C   0  0  0  0  0  0  0  0  0  0  0  0
   46.1520   32.3240   48.4420 C   0  0  0  0  0  0  0  0  0  0  0  0
   47.4370   32.0300   47.6820 C   0  0  0  0  0  0  0  0  0  0  0  0
   47.0680   31.0400   46.6090 C   0  0  0  0  0  0  0  0  0  0  0  0
   46.0930   31.6710   45.6550 C   0  0  2  0  0  0  0  0  0  0  0  0
   46.7170   31.7140   44.3650 N   0  0  0  0  0  0  0  0  0  0  0  0
   47.8940   32.3360   44.1900 C   0  0  0  0  0  0  0  0  0  0  0  0
   48.4580   32.3470   42.9170 C   0  0  0  0  0  0  0  0  0  0  0  0
   47.8530   31.7450   41.8300 C   0  0  0  0  0  0  0  0  0  0  0  0
   48.4330   31.7590   40.5330 N   0  0  0  0  0  0  0  0  0  0  0  0
   46.6780   31.1310   42.0380 N   0  0  0  0  0  0  0  0  0  0  0  0
   46.1250   31.1190   43.2860 C   0  0  0  0  0  0  0  0  0  0  0  0
   45.0220   30.5250   43.4090 O   0  0  0  0  0  0  0  0  0  0  0  0
   44.1310   37.1093   45.1685 H   0  0  0  0  0  0  0  0  0  0  0  0
   44.6624   36.8455   42.6917 H   0  0  0  0  0  0  0  0  0  0  0  0
   45.6274   34.6465   41.9073 H   0  0  0  0  0  0  0  0  0  0  0  0
   45.3172   34.1495   47.7698 H   0  0  0  0  0  0  0  0  0  0  0  0
   44.2332   32.6736   47.6753 H   0  0  0  0  0  0  0  0  0  0  0  0
   46.3736   32.9305   49.3325 H   0  0  0  0  0  0  0  0  0  0  0  0
   45.6759   31.3886   48.7713 H   0  0  0  0  0  0  0  0  0  0  0  0
   47.8338   32.9517   47.2314 H   0  0  0  0  0  0  0  0  0  0  0  0
   48.2162   31.6305   48.3478 H   0  0  0  0  0  0  0  0  0  0  0  0
   47.9733   30.7390   46.0615 H   0  0  0  0  0  0  0  0  0  0  0  0
   46.6063   30.1551   47.0714 H   0  0  0  0  0  0  0  0  0  0  0  0
   45.1851   31.0537   45.5868 H   0  0  0  0  0  0  0  0  0  0  0  0
   48.4016   32.8262   45.0339 H   0  0  0  0  0  0  0  0  0  0  0  0
   49.4228   32.8547   42.7708 H   0  0  0  0  0  0  0  0  0  0  0  0
   49.3350   32.2313   40.3773 H   0  0  0  0  0  0  0  0  0  0  0  0
   47.9515   31.2969   39.7485 H   0  0  0  0  0  0  0  0  0  0  0  0
  1  6  2  0
  2  1  1  0
  3  2  2  0
  3  4  1  0
  4  5  2  0
  5  6  1  0
  5  7  1  0
  7  8  1  0
  8  9  1  0
 10  9  1  0
 11 10  1  0
 12  7  1  0
 12 11  1  0
 13 12  1  0
 14 13  1  0
 15 14  2  0
 16 18  2  0
 16 15  1  0
 17 16  1  0
 18 19  1  0
 19 20  2  0
 19 13  1  0
  1 21  1  0
  2 22  1  0
  3 23  1  0
  8 24  1  0
  8 25  1  0
  9 26  1  0
  9 27  1  0
 10 28  1  0
 10 29  1  0
 11 30  1  0
 11 31  1  0
 12 32  1  6
 14 33  1  0
 15 34  1  0
 17 35  1  0
 17 36  1  0
M  ISO  8  21  14  22  14  23  14  24  13  25  13  26  13  27  13  28  13
M  ISO  6  29  13  30  13  31  13  32  13  33  14  34  14
M  END
>  <minimizedAffinity>  (1) 
-4.81846905

>  <minimizedRMSD>  (1) 
1.00606263

$$$$
