
     RDKit          3D

 38 42  0  0  0  0  0  0  0  0999 V2000
   44.4390   35.6220   45.2120 C   0  0  0  0  0  0  0  0  0  0  0  0
   44.6850   35.3380   43.8510 C   0  0  0  0  0  0  0  0  0  0  0  0
   45.3290   34.1390   43.5520 C   0  0  0  0  0  0  0  0  0  0  0  0
   45.6840   33.3130   44.5640 N   0  0  0  0  0  0  0  0  0  0  0  0
   45.4350   33.6110   45.8580 C   0  0  0  0  0  0  0  0  0  0  0  0
   44.8150   34.7590   46.1890 N   0  0  0  0  0  0  0  0  0  0  0  0
   45.5600   33.8840   42.1790 N   0  0  0  0  0  0  0  0  0  0  0  0
   44.8900   33.2260   41.2040 C   0  0  0  0  0  0  0  0  0  0  0  0
   45.5840   33.2960   40.0440 N   0  0  0  0  0  0  0  0  0  0  0  0
   46.7010   33.9970   40.2700 C   0  0  0  0  0  0  0  0  0  0  0  0
   47.7580   34.3630   39.4240 C   0  0  0  0  0  0  0  0  0  0  0  0
   47.7680   34.0280   38.2160 O   0  0  0  0  0  0  0  0  0  0  0  0
   48.7940   35.0870   39.9000 N   0  0  0  0  0  0  0  0  0  0  0  0
   48.7420   35.4190   41.1870 C   0  0  0  0  0  0  0  0  0  0  0  0
   49.7780   36.1720   41.7970 N   0  0  0  0  0  0  0  0  0  0  0  0
   47.7430   35.0780   42.0010 N   0  0  0  0  0  0  0  0  0  0  0  0
   46.6840   34.3620   41.5990 C   0  0  0  0  0  0  0  0  0  0  0  0
   45.8390   32.6850   46.9110 C   0  0  0  0  0  0  0  0  0  0  0  0
   45.4690   32.7120   48.2400 C   0  0  0  0  0  0  0  0  0  0  0  0
   46.0600   31.6830   48.8750 N   0  0  0  0  0  0  0  0  0  0  0  0
   46.8090   30.9780   47.9950 C   0  0  0  0  0  0  0  0  0  0  0  0
   47.6000   29.8510   48.1410 C   0  0  0  0  0  0  0  0  0  0  0  0
   48.2860   29.3080   47.0500 C   0  0  0  0  0  0  0  0  0  0  0  0
   48.1450   29.9350   45.8330 C   0  0  0  0  0  0  0  0  0  0  0  0
   47.3640   31.0600   45.6570 C   0  0  0  0  0  0  0  0  0  0  0  0
   46.6800   31.5970   46.7520 C   0  0  0  0  0  0  0  0  0  0  0  0
   43.9333   36.5599   45.4851 H   0  0  0  0  0  0  0  0  0  0  0  0
   44.3801   36.0361   43.0575 H   0  0  0  0  0  0  0  0  0  0  0  0
   43.9264   32.7117   41.3348 H   0  0  0  0  0  0  0  0  0  0  0  0
   49.5820   35.3670   39.2987 H   0  0  0  0  0  0  0  0  0  0  0  0
   49.7167   36.4178   42.7954 H   0  0  0  0  0  0  0  0  0  0  0  0
   50.5915   36.4730   41.2415 H   0  0  0  0  0  0  0  0  0  0  0  0
   44.8010   33.4526   48.7041 H   0  0  0  0  0  0  0  0  0  0  0  0
   45.9581   31.4654   49.8766 H   0  0  0  0  0  0  0  0  0  0  0  0
   47.6901   29.3761   49.1291 H   0  0  0  0  0  0  0  0  0  0  0  0
   48.9152   28.4125   47.1605 H   0  0  0  0  0  0  0  0  0  0  0  0
   48.6772   29.5223   44.9633 H   0  0  0  0  0  0  0  0  0  0  0  0
   47.2807   31.5290   44.6655 H   0  0  0  0  0  0  0  0  0  0  0  0
  1  6  2  0
  2  1  1  0
  3  2  2  0
  3  4  1  0
  4  5  2  0
  5  6  1  0
  5 18  1  0
  7  3  1  0
  8  7  1  0
  9 10  1  0
  9  8  2  0
 10 17  2  0
 11 13  1  0
 11 10  1  0
 12 11  2  0
 13 14  1  0
 14 15  1  0
 14 16  2  0
 17 16  1  0
 17  7  1  0
 18 19  2  0
 19 20  1  0
 21 22  2  0
 21 20  1  0
 23 22  1  0
 24 23  2  0
 25 24  1  0
 25 26  2  0
 26 18  1  0
 26 21  1  0
  1 27  1  0
  2 28  1  0
  8 29  1  0
 13 30  1  0
 15 31  1  0
 15 32  1  0
 19 33  1  0
 20 34  1  0
 22 35  1  0
 23 36  1  0
 24 37  1  0
 25 38  1  0
M  ISO  8  27  14  28  14  29  14  30   9  33  14  34   9  35  14  36  14
M  ISO  2  37  14  38  14
M  END
>  <minimizedAffinity>  (1) 
-6.97920322

>  <minimizedRMSD>  (1) 
0.513659179

$$$$
