
     RDKit          3D

 31 34  0  0  0  0  0  0  0  0999 V2000
   45.5390   33.8540   42.1190 N   0  0  0  0  0  0  0  0  0  0  0  0
   44.9370   33.0860   41.2030 C   0  0  0  0  0  0  0  0  0  0  0  0
   45.6520   33.0840   40.0500 N   0  0  0  0  0  0  0  0  0  0  0  0
   46.7400   33.8710   40.2340 C   0  0  0  0  0  0  0  0  0  0  0  0
   47.7840   34.2050   39.3770 C   0  0  0  0  0  0  0  0  0  0  0  0
   47.8410   33.7650   38.2060 O   0  0  0  0  0  0  0  0  0  0  0  0
   48.7690   35.0220   39.7970 N   0  0  0  0  0  0  0  0  0  0  0  0
   48.6740   35.4720   41.0510 C   0  0  0  0  0  0  0  0  0  0  0  0
   49.6550   36.3410   41.6060 N   0  0  0  0  0  0  0  0  0  0  0  0
   47.6810   35.1590   41.8820 N   0  0  0  0  0  0  0  0  0  0  0  0
   46.6600   34.3440   41.5210 C   0  0  0  0  0  0  0  0  0  0  0  0
   44.3260   35.8280   44.9770 C   0  0  0  0  0  0  0  0  0  0  0  0
   44.6070   35.4310   43.6500 C   0  0  0  0  0  0  0  0  0  0  0  0
   45.2720   34.2240   43.4580 C   0  0  0  0  0  0  0  0  0  0  0  0
   45.6120   33.4980   44.5570 N   0  0  0  0  0  0  0  0  0  0  0  0
   45.3330   33.8980   45.8000 C   0  0  0  0  0  0  0  0  0  0  0  0
   44.6930   35.0560   46.0310 N   0  0  0  0  0  0  0  0  0  0  0  0
   45.7210   33.0840   46.9020 N   0  0  0  0  0  0  0  0  0  0  0  0
   45.1100   32.7000   48.0190 N   0  0  0  0  0  0  0  0  0  0  0  0
   45.9430   31.9120   48.7400 C   0  0  0  0  0  0  0  0  0  0  0  0
   47.1340   31.8040   48.0240 C   0  0  0  0  0  0  0  0  0  0  0  0
   46.9660   32.5540   46.8670 C   0  0  0  0  0  0  0  0  0  0  0  0
   43.9979   32.5357   41.3621 H   0  0  0  0  0  0  0  0  0  0  0  0
   49.5536   35.2857   39.1839 H   0  0  0  0  0  0  0  0  0  0  0  0
   49.5585   36.6740   42.5759 H   0  0  0  0  0  0  0  0  0  0  0  0
   50.4615   36.6369   41.0378 H   0  0  0  0  0  0  0  0  0  0  0  0
   43.8015   36.7778   45.1583 H   0  0  0  0  0  0  0  0  0  0  0  0
   44.3093   36.0567   42.7957 H   0  0  0  0  0  0  0  0  0  0  0  0
   45.7208   31.4441   49.7104 H   0  0  0  0  0  0  0  0  0  0  0  0
   48.0298   31.2370   48.3172 H   0  0  0  0  0  0  0  0  0  0  0  0
   47.7093   32.6921   46.0679 H   0  0  0  0  0  0  0  0  0  0  0  0
  1 14  1  0
  2  1  1  0
  3  4  1  0
  3  2  2  0
  4 11  2  0
  5  7  1  0
  5  4  1  0
  6  5  2  0
  7  8  1  0
  8  9  1  0
  8 10  2  0
 11 10  1  0
 11  1  1  0
 12 17  2  0
 13 12  1  0
 14 13  2  0
 14 15  1  0
 15 16  2  0
 16 17  1  0
 16 18  1  0
 18 19  1  0
 19 20  2  0
 21 20  1  0
 22 18  1  0
 22 21  2  0
  2 23  1  0
  7 24  1  0
  9 25  1  0
  9 26  1  0
 12 27  1  0
 13 28  1  0
 20 29  1  0
 21 30  1  0
 22 31  1  0
M  ISO  7  23  14  24   9  27  14  28  14  29  14  30  14  31  14
M  END
>  <minimizedAffinity>  (1) 
-6.91920853

>  <minimizedRMSD>  (1) 
0.0882876888

$$$$
