
     RDKit          3D

 31 34  0  0  0  0  0  0  0  0999 V2000
   45.5680   33.8150   42.1390 N   0  0  0  0  0  0  0  0  0  0  0  0
   44.9690   33.0500   41.2180 C   0  0  0  0  0  0  0  0  0  0  0  0
   45.6690   33.0640   40.0600 N   0  0  0  0  0  0  0  0  0  0  0  0
   46.7530   33.8590   40.2340 C   0  0  0  0  0  0  0  0  0  0  0  0
   47.7820   34.2110   39.3700 C   0  0  0  0  0  0  0  0  0  0  0  0
   47.8350   33.7850   38.1970 O   0  0  0  0  0  0  0  0  0  0  0  0
   48.7610   35.0310   39.7840 N   0  0  0  0  0  0  0  0  0  0  0  0
   48.6770   35.4700   41.0400 C   0  0  0  0  0  0  0  0  0  0  0  0
   49.6540   36.3470   41.6020 N   0  0  0  0  0  0  0  0  0  0  0  0
   47.6970   35.1450   41.8870 N   0  0  0  0  0  0  0  0  0  0  0  0
   46.6770   34.3200   41.5330 C   0  0  0  0  0  0  0  0  0  0  0  0
   44.3270   35.7260   45.0340 C   0  0  0  0  0  0  0  0  0  0  0  0
   44.5960   35.3450   43.6930 C   0  0  0  0  0  0  0  0  0  0  0  0
   45.3150   34.1710   43.4760 C   0  0  0  0  0  0  0  0  0  0  0  0
   45.7170   33.4570   44.5660 N   0  0  0  0  0  0  0  0  0  0  0  0
   45.4450   33.8460   45.8180 C   0  0  0  0  0  0  0  0  0  0  0  0
   44.7560   34.9710   46.0640 N   0  0  0  0  0  0  0  0  0  0  0  0
   45.9660   32.9400   46.8360 C   0  0  0  0  0  0  0  0  0  0  0  0
   45.1610   32.6230   47.9320 C   0  0  0  0  0  0  0  0  0  0  0  0
   45.9060   31.7520   48.7270 C   0  0  0  0  0  0  0  0  0  0  0  0
   47.1100   31.5730   48.1090 N   0  0  0  0  0  0  0  0  0  0  0  0
   47.1310   32.2890   46.9800 N   0  0  0  0  0  0  0  0  0  0  0  0
   44.0373   32.4881   41.3801 H   0  0  0  0  0  0  0  0  0  0  0  0
   49.5360   35.3064   39.1640 H   0  0  0  0  0  0  0  0  0  0  0  0
   49.5588   36.6674   42.5763 H   0  0  0  0  0  0  0  0  0  0  0  0
   50.4539   36.6592   41.0331 H   0  0  0  0  0  0  0  0  0  0  0  0
   43.7618   36.6482   45.2343 H   0  0  0  0  0  0  0  0  0  0  0  0
   44.2469   35.9588   42.8495 H   0  0  0  0  0  0  0  0  0  0  0  0
   44.1421   32.9876   48.1292 H   0  0  0  0  0  0  0  0  0  0  0  0
   45.5838   31.2950   49.6743 H   0  0  0  0  0  0  0  0  0  0  0  0
   47.8784   30.9817   48.4565 H   0  0  0  0  0  0  0  0  0  0  0  0
  1 14  1  0
  2  1  1  0
  3  4  1  0
  3  2  2  0
  4 11  2  0
  5  7  1  0
  5  4  1  0
  6  5  2  0
  7  8  1  0
  8  9  1  0
  8 10  2  0
 11 10  1  0
 11  1  1  0
 12 17  2  0
 13 12  1  0
 14 13  2  0
 14 15  1  0
 15 16  2  0
 16 17  1  0
 16 18  1  0
 18 22  2  0
 18 19  1  0
 19 20  2  0
 21 20  1  0
 22 21  1  0
  2 23  1  0
  7 24  1  0
  9 25  1  0
  9 26  1  0
 12 27  1  0
 13 28  1  0
 19 29  1  0
 20 30  1  0
 21 31  1  0
M  ISO  7  23  14  24   9  27  14  28  14  29  14  30  14  31   9
M  END
>  <minimizedAffinity>  (1) 
-6.42956877

>  <minimizedRMSD>  (1) 
0.222494587

$$$$
