
     RDKit          3D

 30 33  0  0  0  0  0  0  0  0999 V2000
   45.5720   33.8420   42.2050 N   0  0  0  0  0  0  0  0  0  0  0  0
   44.9400   33.1320   41.2550 C   0  0  0  0  0  0  0  0  0  0  0  0
   45.6300   33.1740   40.0970 N   0  0  0  0  0  0  0  0  0  0  0  0
   46.7380   33.9280   40.2910 C   0  0  0  0  0  0  0  0  0  0  0  0
   47.7720   34.2840   39.4350 C   0  0  0  0  0  0  0  0  0  0  0  0
   47.8060   33.9080   38.2430 O   0  0  0  0  0  0  0  0  0  0  0  0
   48.7800   35.0620   39.8830 N   0  0  0  0  0  0  0  0  0  0  0  0
   48.7220   35.4510   41.1580 C   0  0  0  0  0  0  0  0  0  0  0  0
   49.7240   36.2710   41.7450 N   0  0  0  0  0  0  0  0  0  0  0  0
   47.7320   35.1140   41.9900 N   0  0  0  0  0  0  0  0  0  0  0  0
   46.6940   34.3400   41.6070 C   0  0  0  0  0  0  0  0  0  0  0  0
   44.4040   35.6770   45.1680 C   0  0  0  0  0  0  0  0  0  0  0  0
   44.6630   35.3310   43.8280 C   0  0  0  0  0  0  0  0  0  0  0  0
   45.3340   34.1470   43.5580 C   0  0  0  0  0  0  0  0  0  0  0  0
   45.7200   33.3610   44.6170 N   0  0  0  0  0  0  0  0  0  0  0  0
   45.4460   33.7370   45.8880 C   0  0  0  0  0  0  0  0  0  0  0  0
   44.8040   34.8670   46.1760 N   0  0  0  0  0  0  0  0  0  0  0  0
   45.9540   32.7400   46.8580 C   0  0  0  0  0  0  0  0  0  0  0  0
   47.0560   31.8130   46.6550 C   0  0  0  0  0  0  0  0  0  0  0  0
   47.0250   30.9400   48.3340 S   0  0  0  0  0  0  0  0  0  0  0  0
   45.5620   32.0000   48.9190 C   0  0  0  0  0  0  0  0  0  0  0  0
   45.3240   32.7080   48.0140 N   0  0  0  0  0  0  0  0  0  0  0  0
   43.9928   32.5923   41.4014 H   0  0  0  0  0  0  0  0  0  0  0  0
   49.5580   35.3424   39.2690 H   0  0  0  0  0  0  0  0  0  0  0  0
   49.6461   36.5519   42.7329 H   0  0  0  0  0  0  0  0  0  0  0  0
   50.5279   36.5843   41.1824 H   0  0  0  0  0  0  0  0  0  0  0  0
   43.8727   36.6125   45.3974 H   0  0  0  0  0  0  0  0  0  0  0  0
   44.3385   35.9889   43.0083 H   0  0  0  0  0  0  0  0  0  0  0  0
   47.7121   31.6637   45.7848 H   0  0  0  0  0  0  0  0  0  0  0  0
   45.0504   31.9593   49.8919 H   0  0  0  0  0  0  0  0  0  0  0  0
  1 14  1  0
  2  1  1  0
  3  4  1  0
  3  2  2  0
  4 11  2  0
  5  7  1  0
  5  4  1  0
  6  5  2  0
  7  8  1  0
  8  9  1  0
  8 10  2  0
 11 10  1  0
 11  1  1  0
 12 17  2  0
 13 12  1  0
 14 13  2  0
 14 15  1  0
 15 16  2  0
 16 17  1  0
 16 18  1  0
 18 22  1  0
 19 18  2  0
 19 20  1  0
 20 21  1  0
 22 21  2  0
  2 23  1  0
  7 24  1  0
  9 25  1  0
  9 26  1  0
 12 27  1  0
 13 28  1  0
 19 29  1  0
 21 30  1  0
M  ISO  6  23  14  24   9  27  14  28  14  29  14  30  14
M  END
>  <minimizedAffinity>  (1) 
-6.43866539

>  <minimizedRMSD>  (1) 
0.185937136

$$$$
