
     RDKit          3D

 32 35  0  0  0  0  0  0  0  0999 V2000
   45.5950   33.7970   42.2160 N   0  0  0  0  0  0  0  0  0  0  0  0
   44.9710   33.0880   41.2760 C   0  0  0  0  0  0  0  0  0  0  0  0
   45.6560   33.1430   40.1090 N   0  0  0  0  0  0  0  0  0  0  0  0
   46.7420   33.9000   40.3020 C   0  0  0  0  0  0  0  0  0  0  0  0
   47.7810   34.2830   39.4420 C   0  0  0  0  0  0  0  0  0  0  0  0
   47.8150   33.9130   38.2530 O   0  0  0  0  0  0  0  0  0  0  0  0
   48.7750   35.0630   39.8790 N   0  0  0  0  0  0  0  0  0  0  0  0
   48.7180   35.4490   41.1580 C   0  0  0  0  0  0  0  0  0  0  0  0
   49.7190   36.2800   41.7360 N   0  0  0  0  0  0  0  0  0  0  0  0
   47.7430   35.1010   41.9990 N   0  0  0  0  0  0  0  0  0  0  0  0
   46.7110   34.3160   41.6240 C   0  0  0  0  0  0  0  0  0  0  0  0
   44.4230   35.6140   45.2000 C   0  0  0  0  0  0  0  0  0  0  0  0
   44.6680   35.2890   43.8450 C   0  0  0  0  0  0  0  0  0  0  0  0
   45.3650   34.0970   43.5710 C   0  0  0  0  0  0  0  0  0  0  0  0
   45.7520   33.3440   44.6270 N   0  0  0  0  0  0  0  0  0  0  0  0
   45.5040   33.6810   45.9100 C   0  0  0  0  0  0  0  0  0  0  0  0
   44.8420   34.8100   46.1880 N   0  0  0  0  0  0  0  0  0  0  0  0
   45.9520   32.8180   47.0030 C   0  0  0  0  0  0  0  0  0  0  0  0
   45.0690   32.5360   48.0460 C   0  0  0  0  0  0  0  0  0  0  0  0
   45.5980   31.7030   49.0380 C   0  0  0  0  0  0  0  0  0  0  0  0
   46.8450   31.1960   49.0260 N   0  0  0  0  0  0  0  0  0  0  0  0
   47.6410   31.4990   48.0050 C   0  0  0  0  0  0  0  0  0  0  0  0
   47.1970   32.3070   46.9980 N   0  0  0  0  0  0  0  0  0  0  0  0
   44.0317   32.5358   41.4267 H   0  0  0  0  0  0  0  0  0  0  0  0
   49.5466   35.3523   39.2610 H   0  0  0  0  0  0  0  0  0  0  0  0
   49.6476   36.5608   42.7244 H   0  0  0  0  0  0  0  0  0  0  0  0
   50.5147   36.6004   41.1658 H   0  0  0  0  0  0  0  0  0  0  0  0
   43.8813   36.5391   45.4465 H   0  0  0  0  0  0  0  0  0  0  0  0
   44.3251   35.9462   43.0323 H   0  0  0  0  0  0  0  0  0  0  0  0
   44.0445   32.9345   48.0850 H   0  0  0  0  0  0  0  0  0  0  0  0
   44.9491   31.4441   49.8877 H   0  0  0  0  0  0  0  0  0  0  0  0
   48.6640   31.0960   47.9714 H   0  0  0  0  0  0  0  0  0  0  0  0
  1 14  1  0
  2  1  1  0
  3  4  1  0
  3  2  2  0
  4 11  2  0
  5  7  1  0
  5  4  1  0
  6  5  2  0
  7  8  1  0
  8  9  1  0
  8 10  2  0
 11 10  1  0
 11  1  1  0
 12 17  2  0
 13 12  1  0
 14 13  2  0
 14 15  1  0
 15 16  2  0
 16 17  1  0
 16 18  1  0
 18 19  2  0
 19 20  1  0
 21 20  2  0
 22 21  1  0
 23 18  1  0
 23 22  2  0
  2 24  1  0
  7 25  1  0
  9 26  1  0
  9 27  1  0
 12 28  1  0
 13 29  1  0
 19 30  1  0
 20 31  1  0
 22 32  1  0
M  ISO  7  24  14  25   9  28  14  29  14  30  14  31  14  32  14
M  END
>  <minimizedAffinity>  (1) 
-6.83315945

>  <minimizedRMSD>  (1) 
0.564292431

$$$$
