
     RDKit          3D

 26 28  0  0  0  0  0  0  0  0999 V2000
   45.5640   33.8720   42.1860 N   0  0  0  0  0  0  0  0  0  0  0  0
   44.9300   33.1760   41.2290 C   0  0  0  0  0  0  0  0  0  0  0  0
   45.6260   33.2160   40.0730 N   0  0  0  0  0  0  0  0  0  0  0  0
   46.7340   33.9540   40.2790 C   0  0  0  0  0  0  0  0  0  0  0  0
   47.7730   34.3040   39.4300 C   0  0  0  0  0  0  0  0  0  0  0  0
   47.8180   33.9410   38.2400 O   0  0  0  0  0  0  0  0  0  0  0  0
   48.7800   35.0580   39.8750 N   0  0  0  0  0  0  0  0  0  0  0  0
   48.7260   35.4470   41.1570 C   0  0  0  0  0  0  0  0  0  0  0  0
   49.7310   36.2570   41.7420 N   0  0  0  0  0  0  0  0  0  0  0  0
   47.7300   35.1150   41.9780 N   0  0  0  0  0  0  0  0  0  0  0  0
   46.6890   34.3590   41.5950 C   0  0  0  0  0  0  0  0  0  0  0  0
   44.4130   35.6840   45.1730 C   0  0  0  0  0  0  0  0  0  0  0  0
   44.6650   35.3630   43.8150 C   0  0  0  0  0  0  0  0  0  0  0  0
   45.3220   34.1730   43.5480 C   0  0  0  0  0  0  0  0  0  0  0  0
   45.6980   33.3610   44.5920 N   0  0  0  0  0  0  0  0  0  0  0  0
   45.4300   33.7210   45.8610 C   0  0  0  0  0  0  0  0  0  0  0  0
   44.7990   34.8590   46.1560 N   0  0  0  0  0  0  0  0  0  0  0  0
   45.8430   32.8340   46.9460 C   0  0  0  0  0  0  0  0  0  0  0  0
   45.0320   32.7480   47.9180 O   0  0  0  0  0  0  0  0  0  0  0  0
   43.9758   32.6466   41.3676 H   0  0  0  0  0  0  0  0  0  0  0  0
   49.5624   35.3286   39.2622 H   0  0  0  0  0  0  0  0  0  0  0  0
   49.6564   36.5367   42.7305 H   0  0  0  0  0  0  0  0  0  0  0  0
   50.5360   36.5660   41.1787 H   0  0  0  0  0  0  0  0  0  0  0  0
   43.8944   36.6214   45.4226 H   0  0  0  0  0  0  0  0  0  0  0  0
   44.3501   36.0347   43.0028 H   0  0  0  0  0  0  0  0  0  0  0  0
   46.7922   32.2787   46.9219 H   0  0  0  0  0  0  0  0  0  0  0  0
  1 14  1  0
  2  1  1  0
  3  4  1  0
  3  2  2  0
  4 11  2  0
  5  7  1  0
  5  4  1  0
  6  5  2  0
  7  8  1  0
  8  9  1  0
  8 10  2  0
 11 10  1  0
 11  1  1  0
 12 17  2  0
 13 12  1  0
 14 13  2  0
 14 15  1  0
 15 16  2  0
 16 17  1  0
 16 18  1  0
 18 19  2  0
  2 20  1  0
  7 21  1  0
  9 22  1  0
  9 23  1  0
 12 24  1  0
 13 25  1  0
 18 26  1  0
M  ISO  5  20  14  21   9  24  14  25  14  26   6
M  END
>  <minimizedAffinity>  (1) 
-5.5802083

>  <minimizedRMSD>  (1) 
0.234584719

$$$$
