
     RDKit          3D

 46 49  0  0  0  0  0  0  0  0999 V2000
   44.5400   35.0370   46.1600 C   0  0  0  0  0  0  0  0  0  0  0  0
   44.7850   35.0210   44.7760 C   0  0  0  0  0  0  0  0  0  0  0  0
   45.4690   33.9200   44.2080 C   0  0  0  0  0  0  0  0  0  0  0  0
   45.8560   32.9330   45.0360 N   0  0  0  0  0  0  0  0  0  0  0  0
   45.5990   32.9880   46.3650 C   0  0  0  0  0  0  0  0  0  0  0  0
   44.9490   34.0260   46.9250 N   0  0  0  0  0  0  0  0  0  0  0  0
   45.6820   33.9670   42.8230 N   0  0  0  0  0  0  0  0  0  0  0  0
   44.9430   33.7730   41.7340 C   0  0  0  0  0  0  0  0  0  0  0  0
   45.6820   33.9580   40.6230 N   0  0  0  0  0  0  0  0  0  0  0  0
   46.9380   34.2820   40.9970 C   0  0  0  0  0  0  0  0  0  0  0  0
   48.0700   34.5690   40.2430 C   0  0  0  0  0  0  0  0  0  0  0  0
   48.0580   34.5620   38.9950 O   0  0  0  0  0  0  0  0  0  0  0  0
   49.2280   34.8680   40.8710 N   0  0  0  0  0  0  0  0  0  0  0  0
   49.2040   34.8670   42.2020 C   0  0  0  0  0  0  0  0  0  0  0  0
   50.3610   35.1660   42.9690 N   0  0  0  0  0  0  0  0  0  0  0  0
   48.1230   34.5940   42.9230 N   0  0  0  0  0  0  0  0  0  0  0  0
   46.9280   34.2860   42.3730 C   0  0  0  0  0  0  0  0  0  0  0  0
   46.0160   31.9120   47.2900 C   0  0  0  0  0  0  0  0  0  0  0  0
   47.2640   32.3160   48.0700 C   0  0  0  0  0  0  0  0  0  0  0  0
   44.9530   31.5030   48.2630 C   0  0  0  0  0  0  0  0  0  0  0  0
   46.4530   30.7400   46.4280 C   0  0  0  0  0  0  0  0  0  0  0  0
   45.6400   29.5350   46.5970 C   0  0  0  0  0  0  0  0  0  0  0  0
   44.5560   29.3180   45.7450 C   0  0  0  0  0  0  0  0  0  0  0  0
   43.7910   28.1670   45.9140 C   0  0  0  0  0  0  0  0  0  0  0  0
   44.0690   27.2250   46.9060 C   0  0  0  0  0  0  0  0  0  0  0  0
   45.1560   27.5070   47.7120 C   0  0  0  0  0  0  0  0  0  0  0  0
   45.9570   28.6230   47.6010 C   0  0  0  0  0  0  0  0  0  0  0  0
   44.0088   35.8871   46.6129 H   0  0  0  0  0  0  0  0  0  0  0  0
   44.4490   35.8546   44.1418 H   0  0  0  0  0  0  0  0  0  0  0  0
   43.8775   33.4997   41.7399 H   0  0  0  0  0  0  0  0  0  0  0  0
   50.0870   35.0860   40.3460 H   0  0  0  0  0  0  0  0  0  0  0  0
   50.3131   35.1577   43.9979 H   0  0  0  0  0  0  0  0  0  0  0  0
   51.2481   35.3912   42.4965 H   0  0  0  0  0  0  0  0  0  0  0  0
   47.0596   32.2498   49.1488 H   0  0  0  0  0  0  0  0  0  0  0  0
   48.0926   31.6402   47.8117 H   0  0  0  0  0  0  0  0  0  0  0  0
   47.5394   33.3492   47.8117 H   0  0  0  0  0  0  0  0  0  0  0  0
   45.3215   31.6448   49.2897 H   0  0  0  0  0  0  0  0  0  0  0  0
   44.0559   32.1202   48.1069 H   0  0  0  0  0  0  0  0  0  0  0  0
   44.7010   30.4437   48.1069 H   0  0  0  0  0  0  0  0  0  0  0  0
   47.4938   30.4926   46.6841 H   0  0  0  0  0  0  0  0  0  0  0  0
   46.3353   31.0564   45.3811 H   0  0  0  0  0  0  0  0  0  0  0  0
   44.3106   30.0428   44.9548 H   0  0  0  0  0  0  0  0  0  0  0  0
   42.9374   27.9938   45.2421 H   0  0  0  0  0  0  0  0  0  0  0  0
   43.4623   26.3170   47.0378 H   0  0  0  0  0  0  0  0  0  0  0  0
   45.4009   26.7840   48.5040 H   0  0  0  0  0  0  0  0  0  0  0  0
   46.8099   28.7865   48.2762 H   0  0  0  0  0  0  0  0  0  0  0  0
  1  6  2  0
  2  1  1  0
  3  2  2  0
  3  4  1  0
  4  5  2  0
  5  6  1  0
  5 18  1  0
  7  3  1  0
  8  7  1  0
  9 10  1  0
  9  8  2  0
 10 17  2  0
 11 13  1  0
 11 10  1  0
 12 11  2  0
 13 14  1  0
 14 16  2  0
 14 15  1  0
 17  7  1  0
 17 16  1  0
 18 19  1  0
 18 20  1  0
 21 22  1  0
 21 18  1  0
 22 27  2  0
 23 24  2  0
 23 22  1  0
 24 25  1  0
 25 26  2  0
 27 26  1  0
  1 28  1  0
  2 29  1  0
  8 30  1  0
 13 31  1  0
 15 32  1  0
 15 33  1  0
 19 34  1  0
 19 35  1  0
 19 36  1  0
 20 37  1  0
 20 38  1  0
 20 39  1  0
 21 40  1  0
 21 41  1  0
 23 42  1  0
 24 43  1  0
 25 44  1  0
 26 45  1  0
 27 46  1  0
M  ISO  8  28  14  29  14  30  14  31   9  34   8  35   8  36   8  37   8
M  ISO  8  38   8  39   8  40   8  41   8  42  14  43  14  44  14  45  14
M  ISO  1  46  14
M  END
>  <minimizedAffinity>  (1) 
-7.06693363

>  <minimizedRMSD>  (1) 
1.3546834

$$$$
