
     RDKit          3D

 43 46  0  0  0  0  0  0  0  0999 V2000
   44.5050   35.0840   46.1520 C   0  0  0  0  0  0  0  0  0  0  0  0
   44.7540   35.0810   44.7650 C   0  0  0  0  0  0  0  0  0  0  0  0
   45.4600   34.0070   44.2150 C   0  0  0  0  0  0  0  0  0  0  0  0
   45.8650   33.0250   45.0620 N   0  0  0  0  0  0  0  0  0  0  0  0
   45.6050   33.0680   46.3850 C   0  0  0  0  0  0  0  0  0  0  0  0
   44.9330   34.0830   46.9310 N   0  0  0  0  0  0  0  0  0  0  0  0
   45.6870   34.0430   42.8280 N   0  0  0  0  0  0  0  0  0  0  0  0
   44.9210   33.8470   41.7420 C   0  0  0  0  0  0  0  0  0  0  0  0
   45.6650   34.0090   40.6190 N   0  0  0  0  0  0  0  0  0  0  0  0
   46.9230   34.3130   41.0050 C   0  0  0  0  0  0  0  0  0  0  0  0
   48.0590   34.5720   40.2340 C   0  0  0  0  0  0  0  0  0  0  0  0
   48.0590   34.5560   38.9980 O   0  0  0  0  0  0  0  0  0  0  0  0
   49.2220   34.8570   40.8570 N   0  0  0  0  0  0  0  0  0  0  0  0
   49.2110   34.8720   42.2020 C   0  0  0  0  0  0  0  0  0  0  0  0
   50.3640   35.1560   42.9640 N   0  0  0  0  0  0  0  0  0  0  0  0
   48.1130   34.6200   42.9210 N   0  0  0  0  0  0  0  0  0  0  0  0
   46.9230   34.3300   42.3750 C   0  0  0  0  0  0  0  0  0  0  0  0
   46.0480   31.9960   47.3040 C   0  0  0  0  0  0  0  0  0  0  0  0
   47.3010   32.4050   48.0620 C   0  0  0  0  0  0  0  0  0  0  0  0
   44.9850   31.5840   48.2890 C   0  0  0  0  0  0  0  0  0  0  0  0
   46.4310   30.8130   46.4340 C   0  0  0  0  0  0  0  0  0  0  0  0
   45.6790   29.5840   46.7250 C   0  0  0  0  0  0  0  0  0  0  0  0
   44.5080   29.0830   46.1910 C   0  0  0  0  0  0  0  0  0  0  0  0
   44.2270   27.8690   46.8250 C   0  0  0  0  0  0  0  0  0  0  0  0
   45.2830   27.7170   47.7300 C   0  0  0  0  0  0  0  0  0  0  0  0
   46.1050   28.7240   47.6480 O   0  0  0  0  0  0  0  0  0  0  0  0
   43.9507   35.9213   46.6012 H   0  0  0  0  0  0  0  0  0  0  0  0
   44.4005   35.9058   44.1289 H   0  0  0  0  0  0  0  0  0  0  0  0
   43.8508   33.5932   41.7604 H   0  0  0  0  0  0  0  0  0  0  0  0
   50.0815   35.0546   40.3250 H   0  0  0  0  0  0  0  0  0  0  0  0
   50.3139   35.1576   43.9928 H   0  0  0  0  0  0  0  0  0  0  0  0
   51.2558   35.3618   42.4915 H   0  0  0  0  0  0  0  0  0  0  0  0
   47.1117   32.3432   49.1438 H   0  0  0  0  0  0  0  0  0  0  0  0
   48.1276   31.7300   47.7953 H   0  0  0  0  0  0  0  0  0  0  0  0
   47.5702   33.4377   47.7953 H   0  0  0  0  0  0  0  0  0  0  0  0
   45.3585   31.7288   49.3135 H   0  0  0  0  0  0  0  0  0  0  0  0
   44.0856   32.1987   48.1363 H   0  0  0  0  0  0  0  0  0  0  0  0
   44.7348   30.5238   48.1363 H   0  0  0  0  0  0  0  0  0  0  0  0
   47.5010   30.6066   46.5837 H   0  0  0  0  0  0  0  0  0  0  0  0
   46.1924   31.0922   45.3971 H   0  0  0  0  0  0  0  0  0  0  0  0
   43.9022   29.5564   45.4043 H   0  0  0  0  0  0  0  0  0  0  0  0
   43.3765   27.1930   46.6529 H   0  0  0  0  0  0  0  0  0  0  0  0
   45.4025   26.8652   48.4157 H   0  0  0  0  0  0  0  0  0  0  0  0
  1  6  2  0
  2  1  1  0
  3  2  2  0
  3  4  1  0
  4  5  2  0
  5  6  1  0
  5 18  1  0
  7  3  1  0
  8  7  1  0
  9 10  1  0
  9  8  2  0
 10 17  2  0
 11 13  1  0
 11 10  1  0
 12 11  2  0
 13 14  1  0
 14 16  2  0
 14 15  1  0
 17  7  1  0
 17 16  1  0
 18 19  1  0
 18 20  1  0
 21 22  1  0
 21 18  1  0
 22 26  1  0
 23 22  2  0
 23 24  1  0
 24 25  2  0
 26 25  1  0
  1 27  1  0
  2 28  1  0
  8 29  1  0
 13 30  1  0
 15 31  1  0
 15 32  1  0
 19 33  1  0
 19 34  1  0
 19 35  1  0
 20 36  1  0
 20 37  1  0
 20 38  1  0
 21 39  1  0
 21 40  1  0
 23 41  1  0
 24 42  1  0
 25 43  1  0
M  ISO  8  27  14  28  14  29  14  30   9  33   8  34   8  35   8  36   8
M  ISO  7  37   8  38   8  39   8  40   8  41  14  42  14  43  14
M  END
>  <minimizedAffinity>  (1) 
-6.92106438

>  <minimizedRMSD>  (1) 
1.07689464

$$$$
