
     RDKit          3D

 49 52  0  0  0  0  0  0  0  0999 V2000
   44.4620   35.1980   46.0800 C   0  0  0  0  0  0  0  0  0  0  0  0
   44.7300   35.1450   44.6930 C   0  0  0  0  0  0  0  0  0  0  0  0
   45.4150   34.0450   44.1790 C   0  0  0  0  0  0  0  0  0  0  0  0
   45.8010   33.0590   45.0440 N   0  0  0  0  0  0  0  0  0  0  0  0
   45.5220   33.1530   46.3630 C   0  0  0  0  0  0  0  0  0  0  0  0
   44.8630   34.2020   46.8870 N   0  0  0  0  0  0  0  0  0  0  0  0
   45.6550   34.0410   42.7940 N   0  0  0  0  0  0  0  0  0  0  0  0
   44.9180   33.8130   41.6980 C   0  0  0  0  0  0  0  0  0  0  0  0
   45.6770   33.9550   40.5860 N   0  0  0  0  0  0  0  0  0  0  0  0
   46.9180   34.2770   40.9680 C   0  0  0  0  0  0  0  0  0  0  0  0
   48.0700   34.5290   40.2250 C   0  0  0  0  0  0  0  0  0  0  0  0
   48.0930   34.4840   38.9850 O   0  0  0  0  0  0  0  0  0  0  0  0
   49.2250   34.8350   40.8430 N   0  0  0  0  0  0  0  0  0  0  0  0
   49.1950   34.8820   42.1850 C   0  0  0  0  0  0  0  0  0  0  0  0
   50.3430   35.1830   42.9660 N   0  0  0  0  0  0  0  0  0  0  0  0
   48.0900   34.6420   42.9000 N   0  0  0  0  0  0  0  0  0  0  0  0
   46.9020   34.3300   42.3510 C   0  0  0  0  0  0  0  0  0  0  0  0
   45.9270   32.0960   47.3200 C   0  0  0  0  0  0  0  0  0  0  0  0
   47.3470   32.3800   47.8300 C   0  0  0  0  0  0  0  0  0  0  0  0
   45.0260   31.9880   48.4970 C   0  0  0  0  0  0  0  0  0  0  0  0
   46.0390   30.8060   46.5420 C   0  0  0  0  0  0  0  0  0  0  0  0
   45.1150   29.7950   46.8160 N   0  0  0  0  0  0  0  0  0  0  0  0
   45.4080   28.7830   47.7520 C   0  0  0  0  0  0  0  0  0  0  0  0
   45.4830   27.4000   47.0540 C   0  0  0  0  0  0  0  0  0  0  0  0
   44.2170   27.0840   46.6610 O   0  0  0  0  0  0  0  0  0  0  0  0
   43.6700   28.0540   45.8800 C   0  0  0  0  0  0  0  0  0  0  0  0
   44.5380   29.2630   45.6110 C   0  0  0  0  0  0  0  0  0  0  0  0
   43.9223   36.0593   46.5005 H   0  0  0  0  0  0  0  0  0  0  0  0
   44.4031   35.9592   44.0295 H   0  0  0  0  0  0  0  0  0  0  0  0
   43.8503   33.5486   41.7015 H   0  0  0  0  0  0  0  0  0  0  0  0
   50.0884   35.0237   40.3140 H   0  0  0  0  0  0  0  0  0  0  0  0
   50.2747   35.2083   43.9934 H   0  0  0  0  0  0  0  0  0  0  0  0
   51.2435   35.3759   42.5048 H   0  0  0  0  0  0  0  0  0  0  0  0
   47.3483   32.3803   48.9300 H   0  0  0  0  0  0  0  0  0  0  0  0
   48.0312   31.6009   47.4627 H   0  0  0  0  0  0  0  0  0  0  0  0
   47.6789   33.3623   47.4627 H   0  0  0  0  0  0  0  0  0  0  0  0
   45.6192   32.0591   49.4206 H   0  0  0  0  0  0  0  0  0  0  0  0
   44.2891   32.8042   48.4708 H   0  0  0  0  0  0  0  0  0  0  0  0
   44.5029   31.0207   48.4708 H   0  0  0  0  0  0  0  0  0  0  0  0
   47.0411   30.3944   46.7328 H   0  0  0  0  0  0  0  0  0  0  0  0
   45.8326   31.0933   45.5004 H   0  0  0  0  0  0  0  0  0  0  0  0
   46.3752   29.0004   48.2288 H   0  0  0  0  0  0  0  0  0  0  0  0
   44.6091   28.7563   48.5077 H   0  0  0  0  0  0  0  0  0  0  0  0
   46.1480   27.4536   46.1794 H   0  0  0  0  0  0  0  0  0  0  0  0
   45.8847   26.6366   47.7365 H   0  0  0  0  0  0  0  0  0  0  0  0
   43.4160   27.6008   44.9104 H   0  0  0  0  0  0  0  0  0  0  0  0
   42.8044   28.4325   46.4435 H   0  0  0  0  0  0  0  0  0  0  0  0
   45.3496   28.9718   44.9279 H   0  0  0  0  0  0  0  0  0  0  0  0
   43.9026   30.0435   45.1671 H   0  0  0  0  0  0  0  0  0  0  0  0
  1  6  2  0
  2  1  1  0
  3  2  2  0
  3  4  1  0
  4  5  2  0
  5  6  1  0
  5 18  1  0
  7  3  1  0
  8  7  1  0
  9 10  1  0
  9  8  2  0
 10 17  2  0
 11 13  1  0
 11 10  1  0
 12 11  2  0
 13 14  1  0
 14 16  2  0
 14 15  1  0
 17  7  1  0
 17 16  1  0
 18 19  1  0
 18 20  1  0
 21 22  1  0
 21 18  1  0
 22 23  1  0
 24 23  1  0
 25 24  1  0
 26 25  1  0
 27 26  1  0
 27 22  1  0
  1 28  1  0
  2 29  1  0
  8 30  1  0
 13 31  1  0
 15 32  1  0
 15 33  1  0
 19 34  1  0
 19 35  1  0
 19 36  1  0
 20 37  1  0
 20 38  1  0
 20 39  1  0
 21 40  1  0
 21 41  1  0
 23 42  1  0
 23 43  1  0
 24 44  1  0
 24 45  1  0
 26 46  1  0
 26 47  1  0
 27 48  1  0
 27 49  1  0
M  ISO  8  28  14  29  14  30  14  31   9  34   8  35   8  36   8  37   8
M  ISO  8  38   8  39   8  40   8  41   8  42  13  43  13  44  13  45  13
M  ISO  4  46  13  47  13  48  13  49  13
M  END
>  <minimizedAffinity>  (1) 
-6.8673811

>  <minimizedRMSD>  (1) 
1.16693902

$$$$
