
     RDKit          3D

 43 46  0  0  0  0  0  0  0  0999 V2000
   44.5080   35.0680   46.1640 C   0  0  0  0  0  0  0  0  0  0  0  0
   44.7510   35.0730   44.7780 C   0  0  0  0  0  0  0  0  0  0  0  0
   45.4600   34.0040   44.2200 C   0  0  0  0  0  0  0  0  0  0  0  0
   45.8770   33.0120   45.0560 N   0  0  0  0  0  0  0  0  0  0  0  0
   45.6190   33.0560   46.3740 C   0  0  0  0  0  0  0  0  0  0  0  0
   44.9440   34.0640   46.9340 N   0  0  0  0  0  0  0  0  0  0  0  0
   45.6840   34.0420   42.8340 N   0  0  0  0  0  0  0  0  0  0  0  0
   44.9220   33.8510   41.7470 C   0  0  0  0  0  0  0  0  0  0  0  0
   45.6590   34.0110   40.6190 N   0  0  0  0  0  0  0  0  0  0  0  0
   46.9170   34.3120   41.0040 C   0  0  0  0  0  0  0  0  0  0  0  0
   48.0550   34.5720   40.2410 C   0  0  0  0  0  0  0  0  0  0  0  0
   48.0650   34.5610   39.0000 O   0  0  0  0  0  0  0  0  0  0  0  0
   49.2310   34.8560   40.8650 N   0  0  0  0  0  0  0  0  0  0  0  0
   49.2070   34.8650   42.2050 C   0  0  0  0  0  0  0  0  0  0  0  0
   50.3660   35.1470   42.9580 N   0  0  0  0  0  0  0  0  0  0  0  0
   48.1170   34.6160   42.9320 N   0  0  0  0  0  0  0  0  0  0  0  0
   46.9170   34.3270   42.3780 C   0  0  0  0  0  0  0  0  0  0  0  0
   46.0610   31.9900   47.3070 C   0  0  0  0  0  0  0  0  0  0  0  0
   47.2980   32.4250   48.0820 C   0  0  0  0  0  0  0  0  0  0  0  0
   45.0020   31.5410   48.2580 C   0  0  0  0  0  0  0  0  0  0  0  0
   46.5070   30.8210   46.4420 C   0  0  0  0  0  0  0  0  0  0  0  0
   45.7240   29.6210   46.6860 N   0  0  0  0  0  0  0  0  0  0  0  0
   46.0800   28.7360   47.5960 N   0  0  0  0  0  0  0  0  0  0  0  0
   45.2130   27.7120   47.6470 C   0  0  0  0  0  0  0  0  0  0  0  0
   44.2450   27.9710   46.7060 C   0  0  0  0  0  0  0  0  0  0  0  0
   44.5900   29.1620   46.1260 C   0  0  0  0  0  0  0  0  0  0  0  0
   43.9523   35.9003   46.6206 H   0  0  0  0  0  0  0  0  0  0  0  0
   44.3914   35.8993   44.1472 H   0  0  0  0  0  0  0  0  0  0  0  0
   43.8512   33.6002   41.7671 H   0  0  0  0  0  0  0  0  0  0  0  0
   50.0925   35.0533   40.3361 H   0  0  0  0  0  0  0  0  0  0  0  0
   50.3239   35.1483   43.9871 H   0  0  0  0  0  0  0  0  0  0  0  0
   51.2544   35.3516   42.4787 H   0  0  0  0  0  0  0  0  0  0  0  0
   47.0980   32.3547   49.1614 H   0  0  0  0  0  0  0  0  0  0  0  0
   48.1426   31.7700   47.8222 H   0  0  0  0  0  0  0  0  0  0  0  0
   47.5467   33.4645   47.8222 H   0  0  0  0  0  0  0  0  0  0  0  0
   45.3502   31.6886   49.2909 H   0  0  0  0  0  0  0  0  0  0  0  0
   44.0870   32.1286   48.0920 H   0  0  0  0  0  0  0  0  0  0  0  0
   44.7882   30.4748   48.0920 H   0  0  0  0  0  0  0  0  0  0  0  0
   47.5633   30.6038   46.6589 H   0  0  0  0  0  0  0  0  0  0  0  0
   46.3624   31.1078   45.3899 H   0  0  0  0  0  0  0  0  0  0  0  0
   45.2668   26.8372   48.3116 H   0  0  0  0  0  0  0  0  0  0  0  0
   43.3706   27.3477   46.4675 H   0  0  0  0  0  0  0  0  0  0  0  0
   44.0274   29.6657   45.3261 H   0  0  0  0  0  0  0  0  0  0  0  0
  1  6  2  0
  2  1  1  0
  3  2  2  0
  3  4  1  0
  4  5  2  0
  5  6  1  0
  5 18  1  0
  7  3  1  0
  8  7  1  0
  9 10  1  0
  9  8  2  0
 10 17  2  0
 11 13  1  0
 11 10  1  0
 12 11  2  0
 13 14  1  0
 14 16  2  0
 14 15  1  0
 17  7  1  0
 17 16  1  0
 18 19  1  0
 18 20  1  0
 21 22  1  0
 21 18  1  0
 22 23  1  0
 23 24  2  0
 25 24  1  0
 26 22  1  0
 26 25  2  0
  1 27  1  0
  2 28  1  0
  8 29  1  0
 13 30  1  0
 15 31  1  0
 15 32  1  0
 19 33  1  0
 19 34  1  0
 19 35  1  0
 20 36  1  0
 20 37  1  0
 20 38  1  0
 21 39  1  0
 21 40  1  0
 24 41  1  0
 25 42  1  0
 26 43  1  0
M  ISO  8  27  14  28  14  29  14  30   9  33   8  34   8  35   8  36   8
M  ISO  7  37   8  38   8  39   8  40   8  41  14  42  14  43  14
M  END
>  <minimizedAffinity>  (1) 
-6.80699348

>  <minimizedRMSD>  (1) 
1.08314645

$$$$
