
     RDKit          3D

 37 39  0  0  0  0  0  0  0  0999 V2000
   44.4610   35.1940   46.0940 C   0  0  0  0  0  0  0  0  0  0  0  0
   44.7250   35.1590   44.7100 C   0  0  0  0  0  0  0  0  0  0  0  0
   45.4250   34.0630   44.1800 C   0  0  0  0  0  0  0  0  0  0  0  0
   45.8100   33.0900   45.0390 N   0  0  0  0  0  0  0  0  0  0  0  0
   45.5370   33.1620   46.3510 C   0  0  0  0  0  0  0  0  0  0  0  0
   44.8740   34.1930   46.8860 N   0  0  0  0  0  0  0  0  0  0  0  0
   45.6600   34.0790   42.8000 N   0  0  0  0  0  0  0  0  0  0  0  0
   44.9110   33.8800   41.7070 C   0  0  0  0  0  0  0  0  0  0  0  0
   45.6590   34.0200   40.5860 N   0  0  0  0  0  0  0  0  0  0  0  0
   46.9140   34.3140   40.9680 C   0  0  0  0  0  0  0  0  0  0  0  0
   48.0600   34.5540   40.2220 C   0  0  0  0  0  0  0  0  0  0  0  0
   48.0810   34.5250   38.9850 O   0  0  0  0  0  0  0  0  0  0  0  0
   49.2340   34.8370   40.8490 N   0  0  0  0  0  0  0  0  0  0  0  0
   49.2020   34.8660   42.2000 C   0  0  0  0  0  0  0  0  0  0  0  0
   50.3570   35.1510   42.9580 N   0  0  0  0  0  0  0  0  0  0  0  0
   48.1070   34.6360   42.9090 N   0  0  0  0  0  0  0  0  0  0  0  0
   46.9180   34.3520   42.3540 C   0  0  0  0  0  0  0  0  0  0  0  0
   45.9480   32.1130   47.3060 C   0  0  0  0  0  0  0  0  0  0  0  0
   47.3140   32.4040   47.8930 C   0  0  0  0  0  0  0  0  0  0  0  0
   44.9670   31.8760   48.4150 C   0  0  0  0  0  0  0  0  0  0  0  0
   46.1240   30.8300   46.4890 C   0  0  0  0  0  0  0  0  0  0  0  0
   46.7810   29.4930   47.4990 S   0  0  0  0  0  0  0  0  0  0  0  0
   43.9144   36.0451   46.5263 H   0  0  0  0  0  0  0  0  0  0  0  0
   44.3883   35.9767   44.0558 H   0  0  0  0  0  0  0  0  0  0  0  0
   43.8383   33.6368   41.7182 H   0  0  0  0  0  0  0  0  0  0  0  0
   50.1003   35.0193   40.3225 H   0  0  0  0  0  0  0  0  0  0  0  0
   50.3069   35.1672   43.9867 H   0  0  0  0  0  0  0  0  0  0  0  0
   51.2505   35.3429   42.4828 H   0  0  0  0  0  0  0  0  0  0  0  0
   47.2516   32.3907   48.9911 H   0  0  0  0  0  0  0  0  0  0  0  0
   48.0282   31.6379   47.5570 H   0  0  0  0  0  0  0  0  0  0  0  0
   47.6540   33.3947   47.5570 H   0  0  0  0  0  0  0  0  0  0  0  0
   45.4727   31.9982   49.3842 H   0  0  0  0  0  0  0  0  0  0  0  0
   44.1434   32.6010   48.3372 H   0  0  0  0  0  0  0  0  0  0  0  0
   44.5652   30.8550   48.3372 H   0  0  0  0  0  0  0  0  0  0  0  0
   45.1471   30.5263   46.0848 H   0  0  0  0  0  0  0  0  0  0  0  0
   46.8370   31.0323   45.6762 H   0  0  0  0  0  0  0  0  0  0  0  0
   46.6280   29.8043   48.8244 H   0  0  0  0  0  0  0  0  0  0  0  0
  1  6  2  0
  2  1  1  0
  3  2  2  0
  3  4  1  0
  4  5  2  0
  5  6  1  0
  5 18  1  0
  7  3  1  0
  8  7  1  0
  9 10  1  0
  9  8  2  0
 10 17  2  0
 11 13  1  0
 11 10  1  0
 12 11  2  0
 13 14  1  0
 14 16  2  0
 14 15  1  0
 17  7  1  0
 17 16  1  0
 18 19  1  0
 18 20  1  0
 21 18  1  0
 21 22  1  0
  1 23  1  0
  2 24  1  0
  8 25  1  0
 13 26  1  0
 15 27  1  0
 15 28  1  0
 19 29  1  0
 19 30  1  0
 19 31  1  0
 20 32  1  0
 20 33  1  0
 20 34  1  0
 21 35  1  0
 21 36  1  0
 22 37  1  0
M  ISO  8  23  14  24  14  25  14  26   9  29   8  30   8  31   8  32   8
M  ISO  5  33   8  34   8  35   8  36   8  37  11
M  END
>  <minimizedAffinity>  (1) 
-6.49997997

>  <minimizedRMSD>  (1) 
0.0316719227

$$$$
