
     RDKit          3D

 37 39  0  0  0  0  0  0  0  0999 V2000
   44.4690   35.1760   46.1020 C   0  0  0  0  0  0  0  0  0  0  0  0
   44.7300   35.1430   44.7210 C   0  0  0  0  0  0  0  0  0  0  0  0
   45.4260   34.0570   44.1850 C   0  0  0  0  0  0  0  0  0  0  0  0
   45.8210   33.0740   45.0340 N   0  0  0  0  0  0  0  0  0  0  0  0
   45.5520   33.1380   46.3590 C   0  0  0  0  0  0  0  0  0  0  0  0
   44.8880   34.1670   46.8920 N   0  0  0  0  0  0  0  0  0  0  0  0
   45.6610   34.0770   42.7960 N   0  0  0  0  0  0  0  0  0  0  0  0
   44.9230   33.8800   41.7050 C   0  0  0  0  0  0  0  0  0  0  0  0
   45.6680   34.0210   40.5860 N   0  0  0  0  0  0  0  0  0  0  0  0
   46.9320   34.3210   40.9750 C   0  0  0  0  0  0  0  0  0  0  0  0
   48.0700   34.5620   40.2310 C   0  0  0  0  0  0  0  0  0  0  0  0
   48.0890   34.5350   38.9820 O   0  0  0  0  0  0  0  0  0  0  0  0
   49.2370   34.8450   40.8570 N   0  0  0  0  0  0  0  0  0  0  0  0
   49.2000   34.8700   42.1930 C   0  0  0  0  0  0  0  0  0  0  0  0
   50.3570   35.1540   42.9580 N   0  0  0  0  0  0  0  0  0  0  0  0
   48.1000   34.6370   42.9150 N   0  0  0  0  0  0  0  0  0  0  0  0
   46.9160   34.3530   42.3540 C   0  0  0  0  0  0  0  0  0  0  0  0
   45.9650   32.0910   47.3020 C   0  0  0  0  0  0  0  0  0  0  0  0
   47.3360   32.3900   47.8960 C   0  0  0  0  0  0  0  0  0  0  0  0
   44.9890   31.8340   48.4150 C   0  0  0  0  0  0  0  0  0  0  0  0
   46.1450   30.8160   46.4770 C   0  0  0  0  0  0  0  0  0  0  0  0
   44.8720   30.4020   46.0790 O   0  0  0  0  0  0  0  0  0  0  0  0
   43.9227   36.0253   46.5382 H   0  0  0  0  0  0  0  0  0  0  0  0
   44.3903   35.9624   44.0705 H   0  0  0  0  0  0  0  0  0  0  0  0
   43.8506   33.6353   41.7134 H   0  0  0  0  0  0  0  0  0  0  0  0
   50.1043   35.0305   40.3332 H   0  0  0  0  0  0  0  0  0  0  0  0
   50.3038   35.1676   43.9865 H   0  0  0  0  0  0  0  0  0  0  0  0
   51.2519   35.3470   42.4860 H   0  0  0  0  0  0  0  0  0  0  0  0
   47.2709   32.3758   48.9940 H   0  0  0  0  0  0  0  0  0  0  0  0
   48.0548   31.6275   47.5614 H   0  0  0  0  0  0  0  0  0  0  0  0
   47.6720   33.3825   47.5614 H   0  0  0  0  0  0  0  0  0  0  0  0
   45.4938   31.9669   49.3833 H   0  0  0  0  0  0  0  0  0  0  0  0
   44.1506   32.5420   48.3383 H   0  0  0  0  0  0  0  0  0  0  0  0
   44.6080   30.8049   48.3383 H   0  0  0  0  0  0  0  0  0  0  0  0
   46.7679   31.0225   45.5942 H   0  0  0  0  0  0  0  0  0  0  0  0
   46.6443   30.0341   47.0681 H   0  0  0  0  0  0  0  0  0  0  0  0
   44.3182   30.2219   46.8796 H   0  0  0  0  0  0  0  0  0  0  0  0
  1  6  2  0
  2  1  1  0
  3  2  2  0
  3  4  1  0
  4  5  2  0
  5  6  1  0
  5 18  1  0
  7  3  1  0
  8  7  1  0
  9 10  1  0
  9  8  2  0
 10 17  2  0
 11 13  1  0
 11 10  1  0
 12 11  2  0
 13 14  1  0
 14 16  2  0
 14 15  1  0
 17  7  1  0
 17 16  1  0
 18 19  1  0
 18 20  1  0
 21 18  1  0
 22 21  1  0
  1 23  1  0
  2 24  1  0
  8 25  1  0
 13 26  1  0
 15 27  1  0
 15 28  1  0
 19 29  1  0
 19 30  1  0
 19 31  1  0
 20 32  1  0
 20 33  1  0
 20 34  1  0
 21 35  1  0
 21 36  1  0
 22 37  1  0
M  ISO  8  23  14  24  14  25  14  26   9  29   8  30   8  31   8  32   8
M  ISO  5  33   8  34   8  35   8  36   8  37   3
M  END
>  <minimizedAffinity>  (1) 
-6.68535757

>  <minimizedRMSD>  (1) 
0.467829555

$$$$
