
     RDKit          3D

 43 46  0  0  0  0  0  0  0  0999 V2000
   44.4590   35.2080   46.0780 C   0  0  0  0  0  0  0  0  0  0  0  0
   44.7200   35.1620   44.7010 C   0  0  0  0  0  0  0  0  0  0  0  0
   45.4160   34.0570   44.1800 C   0  0  0  0  0  0  0  0  0  0  0  0
   45.7920   33.0980   45.0490 N   0  0  0  0  0  0  0  0  0  0  0  0
   45.5190   33.1830   46.3720 C   0  0  0  0  0  0  0  0  0  0  0  0
   44.8650   34.2140   46.8920 N   0  0  0  0  0  0  0  0  0  0  0  0
   45.6500   34.0620   42.7940 N   0  0  0  0  0  0  0  0  0  0  0  0
   44.9170   33.8510   41.7030 C   0  0  0  0  0  0  0  0  0  0  0  0
   45.6700   33.9870   40.5880 N   0  0  0  0  0  0  0  0  0  0  0  0
   46.9320   34.2960   40.9760 C   0  0  0  0  0  0  0  0  0  0  0  0
   48.0740   34.5370   40.2290 C   0  0  0  0  0  0  0  0  0  0  0  0
   48.0820   34.4940   38.9860 O   0  0  0  0  0  0  0  0  0  0  0  0
   49.2250   34.8290   40.8570 N   0  0  0  0  0  0  0  0  0  0  0  0
   49.1930   34.8690   42.1870 C   0  0  0  0  0  0  0  0  0  0  0  0
   50.3440   35.1670   42.9700 N   0  0  0  0  0  0  0  0  0  0  0  0
   48.0960   34.6390   42.9060 N   0  0  0  0  0  0  0  0  0  0  0  0
   46.8990   34.3380   42.3480 C   0  0  0  0  0  0  0  0  0  0  0  0
   45.9350   32.1290   47.3220 C   0  0  0  0  0  0  0  0  0  0  0  0
   47.3720   32.3060   47.7600 C   0  0  0  0  0  0  0  0  0  0  0  0
   45.0360   32.0370   48.5340 C   0  0  0  0  0  0  0  0  0  0  0  0
   45.8860   30.8010   46.5520 C   0  0  0  0  0  0  0  0  0  0  0  0
   44.9460   29.8360   47.2450 C   0  0  0  0  0  0  0  0  0  0  0  0
   44.3610   28.7940   46.3340 C   0  0  0  0  0  0  0  0  0  0  0  0
   45.3820   28.3810   47.3420 C   0  0  0  0  0  0  0  0  0  0  0  0
   43.9157   36.0668   46.4991 H   0  0  0  0  0  0  0  0  0  0  0  0
   44.3862   35.9757   44.0404 H   0  0  0  0  0  0  0  0  0  0  0  0
   43.8459   33.6004   41.7078 H   0  0  0  0  0  0  0  0  0  0  0  0
   50.0925   35.0135   40.3333 H   0  0  0  0  0  0  0  0  0  0  0  0
   50.2765   35.1879   43.9976 H   0  0  0  0  0  0  0  0  0  0  0  0
   51.2442   35.3617   42.5089 H   0  0  0  0  0  0  0  0  0  0  0  0
   47.4223   32.3122   48.8588 H   0  0  0  0  0  0  0  0  0  0  0  0
   47.9791   31.4759   47.3698 H   0  0  0  0  0  0  0  0  0  0  0  0
   47.7596   33.2587   47.3698 H   0  0  0  0  0  0  0  0  0  0  0  0
   45.6451   32.0993   49.4479 H   0  0  0  0  0  0  0  0  0  0  0  0
   44.3130   32.8658   48.5180 H   0  0  0  0  0  0  0  0  0  0  0  0
   44.4958   31.0789   48.5180 H   0  0  0  0  0  0  0  0  0  0  0  0
   46.8947   30.3639   46.5147 H   0  0  0  0  0  0  0  0  0  0  0  0
   45.5233   30.9884   45.5306 H   0  0  0  0  0  0  0  0  0  0  0  0
   44.5700   30.5715   47.9714 H   0  0  0  0  0  0  0  0  0  0  0  0
   43.3128   28.4846   46.4587 H   0  0  0  0  0  0  0  0  0  0  0  0
   44.2669   28.6880   45.2432 H   0  0  0  0  0  0  0  0  0  0  0  0
   46.3899   28.0853   47.0155 H   0  0  0  0  0  0  0  0  0  0  0  0
   45.4240   27.6322   48.1467 H   0  0  0  0  0  0  0  0  0  0  0  0
  1  6  2  0
  2  1  1  0
  3  2  2  0
  3  4  1  0
  4  5  2  0
  5  6  1  0
  5 18  1  0
  7  3  1  0
  8  7  1  0
  9 10  1  0
  9  8  2  0
 10 17  2  0
 11 13  1  0
 11 10  1  0
 12 11  2  0
 13 14  1  0
 14 16  2  0
 14 15  1  0
 17  7  1  0
 17 16  1  0
 18 19  1  0
 18 20  1  0
 21 22  1  0
 21 18  1  0
 22 24  1  0
 23 22  1  0
 23 24  1  0
  1 25  1  0
  2 26  1  0
  8 27  1  0
 13 28  1  0
 15 29  1  0
 15 30  1  0
 19 31  1  0
 19 32  1  0
 19 33  1  0
 20 34  1  0
 20 35  1  0
 20 36  1  0
 21 37  1  0
 21 38  1  0
 22 39  1  0
 23 40  1  0
 23 41  1  0
 24 42  1  0
 24 43  1  0
M  ISO  8  25  14  26  14  27  14  28   9  31   8  32   8  33   8  34   8
M  ISO  8  35   8  36   8  37   8  38   8  39  13  40  13  41  13  42  13
M  ISO  1  43  13
M  END
>  <minimizedAffinity>  (1) 
-6.7935729

>  <minimizedRMSD>  (1) 
0.683446109

$$$$
