
     RDKit          3D

 41 44  0  0  0  0  0  0  0  0999 V2000
   44.4940   35.0970   46.1500 C   0  0  0  0  0  0  0  0  0  0  0  0
   44.7460   35.0820   44.7620 C   0  0  0  0  0  0  0  0  0  0  0  0
   45.4610   34.0040   44.2130 C   0  0  0  0  0  0  0  0  0  0  0  0
   45.8750   33.0250   45.0560 N   0  0  0  0  0  0  0  0  0  0  0  0
   45.6080   33.0850   46.3830 C   0  0  0  0  0  0  0  0  0  0  0  0
   44.9350   34.0910   46.9320 N   0  0  0  0  0  0  0  0  0  0  0  0
   45.6820   34.0440   42.8230 N   0  0  0  0  0  0  0  0  0  0  0  0
   44.9240   33.8570   41.7420 C   0  0  0  0  0  0  0  0  0  0  0  0
   45.6720   34.0230   40.6200 N   0  0  0  0  0  0  0  0  0  0  0  0
   46.9250   34.3200   40.9920 C   0  0  0  0  0  0  0  0  0  0  0  0
   48.0680   34.5810   40.2420 C   0  0  0  0  0  0  0  0  0  0  0  0
   48.0750   34.5720   39.0040 O   0  0  0  0  0  0  0  0  0  0  0  0
   49.2280   34.8570   40.8610 N   0  0  0  0  0  0  0  0  0  0  0  0
   49.2050   34.8630   42.2060 C   0  0  0  0  0  0  0  0  0  0  0  0
   50.3760   35.1440   42.9510 N   0  0  0  0  0  0  0  0  0  0  0  0
   48.1230   34.6160   42.9230 N   0  0  0  0  0  0  0  0  0  0  0  0
   46.9310   34.3330   42.3780 C   0  0  0  0  0  0  0  0  0  0  0  0
   46.0510   32.0310   47.3050 C   0  0  0  0  0  0  0  0  0  0  0  0
   47.2910   32.4550   48.0840 C   0  0  0  0  0  0  0  0  0  0  0  0
   45.0080   31.5730   48.2700 C   0  0  0  0  0  0  0  0  0  0  0  0
   46.5160   30.8470   46.4510 C   0  0  0  0  0  0  0  0  0  0  0  0
   45.7300   29.6270   46.7720 C   0  0  0  0  0  0  0  0  0  0  0  0
   44.6100   29.2640   46.1000 N   0  0  0  0  0  0  0  0  0  0  0  0
   44.1420   28.1590   46.6020 O   0  0  0  0  0  0  0  0  0  0  0  0
   44.9150   27.7710   47.5890 C   0  0  0  0  0  0  0  0  0  0  0  0
   45.8940   28.6660   47.7000 N   0  0  0  0  0  0  0  0  0  0  0  0
   43.9354   35.9330   46.5962 H   0  0  0  0  0  0  0  0  0  0  0  0
   44.3887   35.9007   44.1201 H   0  0  0  0  0  0  0  0  0  0  0  0
   43.8531   33.6059   41.7565 H   0  0  0  0  0  0  0  0  0  0  0  0
   50.0903   35.0538   40.3331 H   0  0  0  0  0  0  0  0  0  0  0  0
   50.3435   35.1451   43.9805 H   0  0  0  0  0  0  0  0  0  0  0  0
   51.2602   35.3473   42.4634 H   0  0  0  0  0  0  0  0  0  0  0  0
   47.0878   32.3855   49.1628 H   0  0  0  0  0  0  0  0  0  0  0  0
   48.1305   31.7929   47.8256 H   0  0  0  0  0  0  0  0  0  0  0  0
   47.5494   33.4925   47.8256 H   0  0  0  0  0  0  0  0  0  0  0  0
   45.3656   31.7300   49.2983 H   0  0  0  0  0  0  0  0  0  0  0  0
   44.0838   32.1481   48.1113 H   0  0  0  0  0  0  0  0  0  0  0  0
   44.8061   30.5034   48.1113 H   0  0  0  0  0  0  0  0  0  0  0  0
   47.5803   30.6537   46.6506 H   0  0  0  0  0  0  0  0  0  0  0  0
   46.3657   31.0956   45.3900 H   0  0  0  0  0  0  0  0  0  0  0  0
   44.7791   26.8729   48.2094 H   0  0  0  0  0  0  0  0  0  0  0  0
  1  6  2  0
  2  1  1  0
  3  2  2  0
  3  4  1  0
  4  5  2  0
  5  6  1  0
  5 18  1  0
  7  3  1  0
  8  7  1  0
  9 10  1  0
  9  8  2  0
 10 17  2  0
 11 13  1  0
 11 10  1  0
 12 11  2  0
 13 14  1  0
 14 16  2  0
 14 15  1  0
 17  7  1  0
 17 16  1  0
 18 19  1  0
 18 20  1  0
 21 22  1  0
 21 18  1  0
 22 26  1  0
 23 24  1  0
 23 22  2  0
 24 25  1  0
 25 26  2  0
  1 27  1  0
  2 28  1  0
  8 29  1  0
 13 30  1  0
 15 31  1  0
 15 32  1  0
 19 33  1  0
 19 34  1  0
 19 35  1  0
 20 36  1  0
 20 37  1  0
 20 38  1  0
 21 39  1  0
 21 40  1  0
 25 41  1  0
M  ISO  8  27  14  28  14  29  14  30   9  33   8  34   8  35   8  36   8
M  ISO  5  37   8  38   8  39   8  40   8  41  14
M  END
>  <minimizedAffinity>  (1) 
-6.78743601

>  <minimizedRMSD>  (1) 
1.10965955

$$$$
