
     RDKit          3D

 27 28  0  0  1  0  0  0  0  0999 V2000
   44.4850   36.1050   44.8030 C   0  0  0  0  0  0  0  0  0  0  0  0
   45.0160   36.1050   43.4950 C   0  0  0  0  0  0  0  0  0  0  0  0
   45.8070   35.0180   43.1130 C   0  0  0  0  0  0  0  0  0  0  0  0
   46.0220   34.0240   44.0170 N   0  0  0  0  0  0  0  0  0  0  0  0
   45.4950   34.0640   45.2540 C   0  0  0  0  0  0  0  0  0  0  0  0
   44.7350   35.0890   45.6490 N   0  0  0  0  0  0  0  0  0  0  0  0
   45.7500   32.9870   46.1780 N   0  0  0  0  0  0  0  0  0  0  0  0
   45.1460   33.0070   47.5180 C   0  0  0  0  0  0  0  0  0  0  0  0
   46.0110   32.3480   48.5470 C   0  0  0  0  0  0  0  0  0  0  0  0
   47.4300   32.2720   48.0410 C   0  0  0  0  0  0  0  0  0  0  0  0
   47.3900   31.2890   46.8720 C   0  0  0  0  0  0  0  0  0  0  0  0
   46.6020   31.8970   45.7640 C   0  0  2  0  0  0  0  0  0  0  0  0
   47.5970   32.4990   44.8630 N   0  0  0  0  0  0  0  0  0  0  0  0
   43.8589   36.9463   45.1348 H   0  0  0  0  0  0  0  0  0  0  0  0
   44.8139   36.9330   42.7996 H   0  0  0  0  0  0  0  0  0  0  0  0
   46.2454   34.9672   42.1054 H   0  0  0  0  0  0  0  0  0  0  0  0
   44.9800   34.0532   47.8145 H   0  0  0  0  0  0  0  0  0  0  0  0
   44.2011   32.4461   47.4670 H   0  0  0  0  0  0  0  0  0  0  0  0
   45.9849   32.9344   49.4773 H   0  0  0  0  0  0  0  0  0  0  0  0
   45.6376   31.3319   48.7420 H   0  0  0  0  0  0  0  0  0  0  0  0
   47.7712   33.2610   47.7011 H   0  0  0  0  0  0  0  0  0  0  0  0
   48.1282   31.9466   48.8263 H   0  0  0  0  0  0  0  0  0  0  0  0
   48.4139   31.0815   46.5276 H   0  0  0  0  0  0  0  0  0  0  0  0
   46.9223   30.3459   47.1910 H   0  0  0  0  0  0  0  0  0  0  0  0
   45.9637   31.1131   45.3303 H   0  0  0  0  0  0  0  0  0  0  0  0
   48.3381   32.9474   45.4204 H   0  0  0  0  0  0  0  0  0  0  0  0
   48.0101   31.7660   44.2689 H   0  0  0  0  0  0  0  0  0  0  0  0
  1  6  2  0
  2  1  1  0
  3  2  2  0
  3  4  1  0
  4  5  2  0
  5  6  1  0
  5  7  1  0
  7  8  1  0
  8  9  1  0
 10  9  1  0
 11 10  1  0
 12  7  1  0
 12 11  1  0
 13 12  1  0
  1 14  1  0
  2 15  1  0
  3 16  1  0
  8 17  1  0
  8 18  1  0
  9 19  1  0
  9 20  1  0
 10 21  1  0
 10 22  1  0
 11 23  1  0
 11 24  1  0
 12 25  1  6
 13 26  1  0
 13 27  1  0
M  ISO  8  14  14  15  14  16  14  17  13  18  13  19  13  20  13  21  13
M  ISO  6  22  13  23  13  24  13  25  13  26   5  27   5
M  END
>  <minimizedAffinity>  (1) 
-4.77003956

>  <minimizedRMSD>  (1) 
0.226482779

$$$$
