
     RDKit          3D

 54 58  0  0  0  0  0  0  0  0999 V2000
   46.1210   31.9690   47.2900 C   0  0  0  0  0  0  0  0  0  0  0  0
   44.5140   35.0450   46.1690 C   0  0  0  0  0  0  0  0  0  0  0  0
   44.7520   35.0500   44.7810 C   0  0  0  0  0  0  0  0  0  0  0  0
   45.4810   33.9710   44.2150 C   0  0  0  0  0  0  0  0  0  0  0  0
   45.9010   33.0080   45.0500 N   0  0  0  0  0  0  0  0  0  0  0  0
   45.6500   33.0420   46.3880 C   0  0  0  0  0  0  0  0  0  0  0  0
   44.9640   34.0500   46.9340 N   0  0  0  0  0  0  0  0  0  0  0  0
   45.6910   34.0230   42.8230 N   0  0  0  0  0  0  0  0  0  0  0  0
   44.9340   33.8470   41.7520 C   0  0  0  0  0  0  0  0  0  0  0  0
   45.6720   34.0220   40.6230 N   0  0  0  0  0  0  0  0  0  0  0  0
   46.9220   34.3170   40.9910 C   0  0  0  0  0  0  0  0  0  0  0  0
   48.0500   34.5840   40.2360 C   0  0  0  0  0  0  0  0  0  0  0  0
   48.0500   34.5860   39.0020 O   0  0  0  0  0  0  0  0  0  0  0  0
   49.2260   34.8600   40.8530 N   0  0  0  0  0  0  0  0  0  0  0  0
   49.2190   34.8570   42.1890 C   0  0  0  0  0  0  0  0  0  0  0  0
   50.3810   35.1300   42.9510 N   0  0  0  0  0  0  0  0  0  0  0  0
   48.1470   34.6030   42.9240 N   0  0  0  0  0  0  0  0  0  0  0  0
   46.9420   34.3190   42.3730 C   0  0  0  0  0  0  0  0  0  0  0  0
   47.2750   32.4550   48.1340 C   0  0  0  0  0  0  0  0  0  0  0  0
   45.0400   31.4470   48.1870 C   0  0  0  0  0  0  0  0  0  0  0  0
   46.6550   30.8470   46.3980 C   0  0  0  0  0  0  0  0  0  0  0  0
   45.9160   29.5500   46.6500 C   0  0  0  0  0  0  0  0  0  0  0  0
   46.4770   28.6400   47.4770 C   0  0  0  0  0  0  0  0  0  0  0  0
   45.2810   27.2430   47.5090 S   0  0  0  0  0  0  0  0  0  0  0  0
   44.1710   28.2070   46.3240 C   0  0  0  0  0  0  0  0  0  0  0  0
   44.7750   29.1820   46.1620 N   0  0  0  0  0  0  0  0  0  0  0  0
   42.9440   27.5480   45.9410 N   0  0  0  0  0  0  0  0  0  0  0  0
   41.7670   28.1060   45.3070 C   0  0  0  0  0  0  0  0  0  0  0  0
   40.7100   27.0860   45.6070 C   0  0  0  0  0  0  0  0  0  0  0  0
   41.3170   26.0380   46.5130 C   0  0  0  0  0  0  0  0  0  0  0  0
   42.8110   26.1300   46.2000 C   0  0  0  0  0  0  0  0  0  0  0  0
   43.9506   35.8712   46.6272 H   0  0  0  0  0  0  0  0  0  0  0  0
   44.3816   35.8711   44.1497 H   0  0  0  0  0  0  0  0  0  0  0  0
   43.8633   33.5956   41.7719 H   0  0  0  0  0  0  0  0  0  0  0  0
   50.0825   35.0620   40.3177 H   0  0  0  0  0  0  0  0  0  0  0  0
   50.3366   35.1185   43.9800 H   0  0  0  0  0  0  0  0  0  0  0  0
   51.2706   35.3401   42.4763 H   0  0  0  0  0  0  0  0  0  0  0  0
   47.0210   32.3480   49.1989 H   0  0  0  0  0  0  0  0  0  0  0  0
   48.1709   31.8578   47.9090 H   0  0  0  0  0  0  0  0  0  0  0  0
   47.4737   33.5132   47.9090 H   0  0  0  0  0  0  0  0  0  0  0  0
   45.3345   31.5892   49.2373 H   0  0  0  0  0  0  0  0  0  0  0  0
   44.1054   31.9931   47.9911 H   0  0  0  0  0  0  0  0  0  0  0  0
   44.8865   30.3755   47.9911 H   0  0  0  0  0  0  0  0  0  0  0  0
   47.7241   30.6980   46.6098 H   0  0  0  0  0  0  0  0  0  0  0  0
   46.5048   31.1355   45.3472 H   0  0  0  0  0  0  0  0  0  0  0  0
   47.4352   28.7176   48.0117 H   0  0  0  0  0  0  0  0  0  0  0  0
   41.9156   28.2148   44.2225 H   0  0  0  0  0  0  0  0  0  0  0  0
   41.5143   29.1132   45.6698 H   0  0  0  0  0  0  0  0  0  0  0  0
   39.8587   27.5673   46.1106 H   0  0  0  0  0  0  0  0  0  0  0  0
   40.3488   26.6243   44.6762 H   0  0  0  0  0  0  0  0  0  0  0  0
   41.1204   26.2687   47.5704 H   0  0  0  0  0  0  0  0  0  0  0  0
   40.9025   25.0325   46.3484 H   0  0  0  0  0  0  0  0  0  0  0  0
   43.0780   25.5300   45.3175 H   0  0  0  0  0  0  0  0  0  0  0  0
   43.4684   25.7473   46.9946 H   0  0  0  0  0  0  0  0  0  0  0  0
  1 19  1  0
  1 20  1  0
  2  7  2  0
  3  2  1  0
  4  3  2  0
  4  5  1  0
  5  6  2  0
  6  7  1  0
  6  1  1  0
  8  4  1  0
  9  8  1  0
 10 11  1  0
 10  9  2  0
 11 18  2  0
 12 14  1  0
 12 11  1  0
 13 12  2  0
 14 15  1  0
 15 17  2  0
 15 16  1  0
 18  8  1  0
 18 17  1  0
 21 22  1  0
 21  1  1  0
 22 23  2  0
 23 24  1  0
 25 24  1  0
 26 25  2  0
 26 22  1  0
 27 31  1  0
 27 25  1  0
 28 29  1  0
 28 27  1  0
 29 30  1  0
 31 30  1  0
  2 32  1  0
  3 33  1  0
  9 34  1  0
 14 35  1  0
 16 36  1  0
 16 37  1  0
 19 38  1  0
 19 39  1  0
 19 40  1  0
 20 41  1  0
 20 42  1  0
 20 43  1  0
 21 44  1  0
 21 45  1  0
 23 46  1  0
 28 47  1  0
 28 48  1  0
 29 49  1  0
 29 50  1  0
 30 51  1  0
 30 52  1  0
 31 53  1  0
 31 54  1  0
M  ISO  8  32  14  33  14  34  14  35   9  38   8  39   8  40   8  41   8
M  ISO  8  42   8  43   8  44   8  45   8  46  14  47  13  48  13  49  13
M  ISO  5  50  13  51  13  52  13  53  13  54  13
M  END
>  <minimizedAffinity>  (1) 
-7.72974586

>  <minimizedRMSD>  (1) 
0.223847359

$$$$
