
     RDKit          3D

 43 46  0  0  0  0  0  0  0  0999 V2000
   44.5350   35.0060   46.1710 C   0  0  0  0  0  0  0  0  0  0  0  0
   44.7700   35.0040   44.7920 C   0  0  0  0  0  0  0  0  0  0  0  0
   45.5000   33.9430   44.2370 C   0  0  0  0  0  0  0  0  0  0  0  0
   45.9380   32.9790   45.0710 N   0  0  0  0  0  0  0  0  0  0  0  0
   45.6890   33.0170   46.4050 C   0  0  0  0  0  0  0  0  0  0  0  0
   44.9960   34.0200   46.9440 N   0  0  0  0  0  0  0  0  0  0  0  0
   45.7120   33.9870   42.8390 N   0  0  0  0  0  0  0  0  0  0  0  0
   44.9490   33.7860   41.7650 C   0  0  0  0  0  0  0  0  0  0  0  0
   45.6790   33.9640   40.6350 N   0  0  0  0  0  0  0  0  0  0  0  0
   46.9360   34.2870   40.9960 C   0  0  0  0  0  0  0  0  0  0  0  0
   48.0520   34.5650   40.2330 C   0  0  0  0  0  0  0  0  0  0  0  0
   48.0510   34.5560   38.9960 O   0  0  0  0  0  0  0  0  0  0  0  0
   49.2110   34.8630   40.8380 N   0  0  0  0  0  0  0  0  0  0  0  0
   49.2170   34.8740   42.1720 C   0  0  0  0  0  0  0  0  0  0  0  0
   50.3800   35.1730   42.9540 N   0  0  0  0  0  0  0  0  0  0  0  0
   48.1490   34.6080   42.9240 N   0  0  0  0  0  0  0  0  0  0  0  0
   46.9430   34.2980   42.3810 C   0  0  0  0  0  0  0  0  0  0  0  0
   46.1750   31.9530   47.3030 C   0  0  0  0  0  0  0  0  0  0  0  0
   47.3570   32.4270   48.1150 C   0  0  0  0  0  0  0  0  0  0  0  0
   45.0930   31.4580   48.2470 C   0  0  0  0  0  0  0  0  0  0  0  0
   46.6480   30.8070   46.4260 C   0  0  0  0  0  0  0  0  0  0  0  0
   45.7520   29.6090   46.5400 C   0  0  0  0  0  0  0  0  0  0  0  0
   46.1100   28.5870   47.3480 C   0  0  0  0  0  0  0  0  0  0  0  0
   44.7780   27.3430   47.2130 S   0  0  0  0  0  0  0  0  0  0  0  0
   43.8880   28.4920   45.9990 C   0  0  0  0  0  0  0  0  0  0  0  0
   44.6210   29.4000   45.9460 N   0  0  0  0  0  0  0  0  0  0  0  0
   42.2990   28.2500   45.1330 S   0  0  0  0  0  0  0  0  0  0  0  0
   43.9636   35.8297   46.6238 H   0  0  0  0  0  0  0  0  0  0  0  0
   44.3902   35.8175   44.1564 H   0  0  0  0  0  0  0  0  0  0  0  0
   43.8831   33.5153   41.7907 H   0  0  0  0  0  0  0  0  0  0  0  0
   50.0607   35.0745   40.2957 H   0  0  0  0  0  0  0  0  0  0  0  0
   50.3247   35.1664   43.9825 H   0  0  0  0  0  0  0  0  0  0  0  0
   51.2712   35.3945   42.4876 H   0  0  0  0  0  0  0  0  0  0  0  0
   47.1264   32.3345   49.1866 H   0  0  0  0  0  0  0  0  0  0  0  0
   48.2370   31.8122   47.8749 H   0  0  0  0  0  0  0  0  0  0  0  0
   47.5684   33.4795   47.8749 H   0  0  0  0  0  0  0  0  0  0  0  0
   45.4179   31.6067   49.2873 H   0  0  0  0  0  0  0  0  0  0  0  0
   44.1651   32.0212   48.0687 H   0  0  0  0  0  0  0  0  0  0  0  0
   44.9124   30.3877   48.0687 H   0  0  0  0  0  0  0  0  0  0  0  0
   47.6650   30.5210   46.7324 H   0  0  0  0  0  0  0  0  0  0  0  0
   46.6302   31.1479   45.3803 H   0  0  0  0  0  0  0  0  0  0  0  0
   47.0195   28.5177   47.9629 H   0  0  0  0  0  0  0  0  0  0  0  0
   41.2959   28.0972   46.0535 H   0  0  0  0  0  0  0  0  0  0  0  0
  1  6  2  0
  2  1  1  0
  3  2  2  0
  3  4  1  0
  4  5  2  0
  5  6  1  0
  5 18  1  0
  7  3  1  0
  8  7  1  0
  9 10  1  0
  9  8  2  0
 10 17  2  0
 11 13  1  0
 11 10  1  0
 12 11  2  0
 13 14  1  0
 14 16  2  0
 14 15  1  0
 17  7  1  0
 17 16  1  0
 18 19  1  0
 18 20  1  0
 21 22  1  0
 21 18  1  0
 22 23  2  0
 24 23  1  0
 25 24  1  0
 26 25  2  0
 26 22  1  0
 27 25  1  0
  1 28  1  0
  2 29  1  0
  8 30  1  0
 13 31  1  0
 15 32  1  0
 15 33  1  0
 19 34  1  0
 19 35  1  0
 19 36  1  0
 20 37  1  0
 20 38  1  0
 20 39  1  0
 21 40  1  0
 21 41  1  0
 23 42  1  0
 27 43  1  0
M  ISO  8  28  14  29  14  30  14  31   9  34   8  35   8  36   8  37   8
M  ISO  6  38   8  39   8  40   8  41   8  42  14  43  11
M  END
>  <minimizedAffinity>  (1) 
-6.87640905

>  <minimizedRMSD>  (1) 
0.120292999

$$$$
