
     RDKit          3D

 26 27  0  0  1  0  0  0  0  0999 V2000
   44.5280   36.0810   44.8140 C   0  0  0  0  0  0  0  0  0  0  0  0
   45.0330   36.0490   43.4810 C   0  0  0  0  0  0  0  0  0  0  0  0
   45.7700   34.9400   43.0900 C   0  0  0  0  0  0  0  0  0  0  0  0
   45.9670   33.9500   44.0000 N   0  0  0  0  0  0  0  0  0  0  0  0
   45.4790   34.0080   45.2510 C   0  0  0  0  0  0  0  0  0  0  0  0
   44.7580   35.0740   45.6590 N   0  0  0  0  0  0  0  0  0  0  0  0
   45.7200   32.9250   46.1760 N   0  0  0  0  0  0  0  0  0  0  0  0
   45.1800   32.9950   47.5380 C   0  0  0  0  0  0  0  0  0  0  0  0
   46.0420   32.3180   48.5520 C   0  0  0  0  0  0  0  0  0  0  0  0
   47.4320   32.1970   48.0010 C   0  0  0  0  0  0  0  0  0  0  0  0
   47.3570   31.2170   46.8350 C   0  0  0  0  0  0  0  0  0  0  0  0
   46.4840   31.7890   45.7610 C   0  0  2  0  0  0  0  0  0  0  0  0
   47.4290   32.0920   44.2730 S   0  0  0  0  0  0  0  0  0  0  0  0
   43.9405   36.9479   45.1506 H   0  0  0  0  0  0  0  0  0  0  0  0
   44.8441   36.8784   42.7835 H   0  0  0  0  0  0  0  0  0  0  0  0
   46.1827   34.8645   42.0732 H   0  0  0  0  0  0  0  0  0  0  0  0
   45.0771   34.0536   47.8185 H   0  0  0  0  0  0  0  0  0  0  0  0
   44.2127   32.4712   47.5317 H   0  0  0  0  0  0  0  0  0  0  0  0
   46.0614   32.9128   49.4771 H   0  0  0  0  0  0  0  0  0  0  0  0
   45.6406   31.3188   48.7767 H   0  0  0  0  0  0  0  0  0  0  0  0
   47.7875   33.1771   47.6503 H   0  0  0  0  0  0  0  0  0  0  0  0
   48.1336   31.8433   48.7709 H   0  0  0  0  0  0  0  0  0  0  0  0
   48.3669   31.0450   46.4344 H   0  0  0  0  0  0  0  0  0  0  0  0
   46.9346   30.2628   47.1831 H   0  0  0  0  0  0  0  0  0  0  0  0
   45.7263   31.0255   45.5309 H   0  0  0  0  0  0  0  0  0  0  0  0
   48.6936   32.4975   44.6098 H   0  0  0  0  0  0  0  0  0  0  0  0
  1  6  2  0
  2  1  1  0
  3  2  2  0
  3  4  1  0
  4  5  2  0
  5  6  1  0
  5  7  1  0
  7  8  1  0
  8  9  1  0
 10  9  1  0
 11 10  1  0
 12  7  1  0
 12 11  1  0
 13 12  1  0
  1 14  1  0
  2 15  1  0
  3 16  1  0
  8 17  1  0
  8 18  1  0
  9 19  1  0
  9 20  1  0
 10 21  1  0
 10 22  1  0
 11 23  1  0
 11 24  1  0
 12 25  1  6
 13 26  1  0
M  ISO  8  14  14  15  14  16  14  17  13  18  13  19  13  20  13  21  13
M  ISO  5  22  13  23  13  24  13  25  13  26  11
M  END
>  <minimizedAffinity>  (1) 
-4.7040019

>  <minimizedRMSD>  (1) 
0.23790361

$$$$
