
     RDKit          3D

 44 47  0  0  0  0  0  0  0  0999 V2000
   44.5410   34.9950   46.1890 C   0  0  0  0  0  0  0  0  0  0  0  0
   44.7690   35.0010   44.8100 C   0  0  0  0  0  0  0  0  0  0  0  0
   45.4900   33.9280   44.2410 C   0  0  0  0  0  0  0  0  0  0  0  0
   45.9170   32.9610   45.0670 N   0  0  0  0  0  0  0  0  0  0  0  0
   45.6730   32.9920   46.4080 C   0  0  0  0  0  0  0  0  0  0  0  0
   44.9930   34.0000   46.9530 N   0  0  0  0  0  0  0  0  0  0  0  0
   45.6960   33.9760   42.8460 N   0  0  0  0  0  0  0  0  0  0  0  0
   44.9560   33.7820   41.7660 C   0  0  0  0  0  0  0  0  0  0  0  0
   45.6850   33.9640   40.6430 N   0  0  0  0  0  0  0  0  0  0  0  0
   46.9300   34.2840   41.0070 C   0  0  0  0  0  0  0  0  0  0  0  0
   48.0560   34.5680   40.2460 C   0  0  0  0  0  0  0  0  0  0  0  0
   48.0530   34.5620   39.0170 O   0  0  0  0  0  0  0  0  0  0  0  0
   49.2240   34.8690   40.8610 N   0  0  0  0  0  0  0  0  0  0  0  0
   49.2110   34.8720   42.1990 C   0  0  0  0  0  0  0  0  0  0  0  0
   50.3730   35.1710   42.9610 N   0  0  0  0  0  0  0  0  0  0  0  0
   48.1380   34.6000   42.9310 N   0  0  0  0  0  0  0  0  0  0  0  0
   46.9360   34.2910   42.3850 C   0  0  0  0  0  0  0  0  0  0  0  0
   46.1450   31.9270   47.3040 C   0  0  0  0  0  0  0  0  0  0  0  0
   47.3390   32.3980   48.1160 C   0  0  0  0  0  0  0  0  0  0  0  0
   45.0840   31.4350   48.2470 C   0  0  0  0  0  0  0  0  0  0  0  0
   46.6390   30.7820   46.4210 C   0  0  0  0  0  0  0  0  0  0  0  0
   45.7270   29.5760   46.5280 C   0  0  0  0  0  0  0  0  0  0  0  0
   46.0830   28.5670   47.3490 C   0  0  0  0  0  0  0  0  0  0  0  0
   44.7280   27.3310   47.1830 S   0  0  0  0  0  0  0  0  0  0  0  0
   43.8700   28.4800   45.9510 C   0  0  0  0  0  0  0  0  0  0  0  0
   44.6080   29.3810   45.9080 N   0  0  0  0  0  0  0  0  0  0  0  0
   42.5850   27.9970   45.3910 C   0  0  0  0  0  0  0  0  0  0  0  0
   41.5670   28.7330   45.3240 O   0  0  0  0  0  0  0  0  0  0  0  0
   43.9813   35.8221   46.6501 H   0  0  0  0  0  0  0  0  0  0  0  0
   44.3952   35.8231   44.1819 H   0  0  0  0  0  0  0  0  0  0  0  0
   43.8905   33.5092   41.7806 H   0  0  0  0  0  0  0  0  0  0  0  0
   50.0779   35.0844   40.3269 H   0  0  0  0  0  0  0  0  0  0  0  0
   50.3297   35.1648   43.9901 H   0  0  0  0  0  0  0  0  0  0  0  0
   51.2583   35.3938   42.4841 H   0  0  0  0  0  0  0  0  0  0  0  0
   47.1115   32.3082   49.1885 H   0  0  0  0  0  0  0  0  0  0  0  0
   48.2147   31.7779   47.8738 H   0  0  0  0  0  0  0  0  0  0  0  0
   47.5556   33.4489   47.8738 H   0  0  0  0  0  0  0  0  0  0  0  0
   45.4156   31.5888   49.2845 H   0  0  0  0  0  0  0  0  0  0  0  0
   44.1519   31.9928   48.0735 H   0  0  0  0  0  0  0  0  0  0  0  0
   44.9076   30.3632   48.0735 H   0  0  0  0  0  0  0  0  0  0  0  0
   47.6523   30.4951   46.7386 H   0  0  0  0  0  0  0  0  0  0  0  0
   46.6432   31.1245   45.3757 H   0  0  0  0  0  0  0  0  0  0  0  0
   46.9828   28.4977   47.9780 H   0  0  0  0  0  0  0  0  0  0  0  0
   42.5197   26.9626   45.0225 H   0  0  0  0  0  0  0  0  0  0  0  0
  1  6  2  0
  2  1  1  0
  3  2  2  0
  3  4  1  0
  4  5  2  0
  5  6  1  0
  5 18  1  0
  7  3  1  0
  8  7  1  0
  9 10  1  0
  9  8  2  0
 10 17  2  0
 11 13  1  0
 11 10  1  0
 12 11  2  0
 13 14  1  0
 14 16  2  0
 14 15  1  0
 17  7  1  0
 17 16  1  0
 18 19  1  0
 18 20  1  0
 21 22  1  0
 21 18  1  0
 22 23  2  0
 24 23  1  0
 25 24  1  0
 26 25  2  0
 26 22  1  0
 27 25  1  0
 28 27  2  0
  1 29  1  0
  2 30  1  0
  8 31  1  0
 13 32  1  0
 15 33  1  0
 15 34  1  0
 19 35  1  0
 19 36  1  0
 19 37  1  0
 20 38  1  0
 20 39  1  0
 20 40  1  0
 21 41  1  0
 21 42  1  0
 23 43  1  0
 27 44  1  0
M  ISO  8  29  14  30  14  31  14  32   9  35   8  36   8  37   8  38   8
M  ISO  6  39   8  40   8  41   8  42   8  43  14  44   6
M  END
>  <minimizedAffinity>  (1) 
-6.74623013

>  <minimizedRMSD>  (1) 
0.2178507

$$$$
