
     RDKit          3D

 30 31  0  0  0  0  0  0  0  0999 V2000
   47.3320   34.3980   40.3670 C   0  0  0  0  0  0  0  0  0  0  0  0
   48.3200   34.1230   39.4040 C   0  0  0  0  0  0  0  0  0  0  0  0
   47.9670   33.3710   38.2780 C   0  0  0  0  0  0  0  0  0  0  0  0
   46.6650   32.9460   38.1880 N   0  0  0  0  0  0  0  0  0  0  0  0
   45.7490   33.2270   39.1270 C   0  0  0  0  0  0  0  0  0  0  0  0
   46.0840   33.9490   40.2090 N   0  0  0  0  0  0  0  0  0  0  0  0
   44.3930   32.8040   39.0660 N   0  0  0  0  0  0  0  0  0  0  0  0
   43.3580   33.7780   39.0600 C   0  0  0  0  0  0  0  0  0  0  0  0
   43.4310   34.8180   39.8090 N   0  0  0  0  0  0  0  0  0  0  0  0
   42.2060   33.6250   38.2250 N   0  0  0  0  0  0  0  0  0  0  0  0
   44.2160   34.9960   40.4330 H   0  0  0  0  0  0  0  0  0  0  0  0
   47.6880   35.1720   41.5660 C   0  0  0  0  0  0  0  0  0  0  0  0
   49.0280   35.7460   41.6210 C   0  0  0  0  0  0  0  0  0  0  0  0
   49.8960   34.8330   42.4870 C   0  0  0  0  0  0  0  0  0  0  0  0
   49.0470   33.6560   42.8820 C   0  0  0  0  0  0  0  0  0  0  0  0
   47.6530   34.1490   42.7380 C   0  0  0  0  0  0  0  0  0  0  0  0
   49.3484   34.4914   39.5335 H   0  0  0  0  0  0  0  0  0  0  0  0
   48.7030   33.1302   37.4968 H   0  0  0  0  0  0  0  0  0  0  0  0
   44.1628   31.8008   39.0265 H   0  0  0  0  0  0  0  0  0  0  0  0
   41.4653   34.3407   38.2332 H   0  0  0  0  0  0  0  0  0  0  0  0
   42.1175   32.7992   37.6158 H   0  0  0  0  0  0  0  0  0  0  0  0
   46.9868   36.0191   41.5920 H   0  0  0  0  0  0  0  0  0  0  0  0
   49.4490   35.8098   40.6068 H   0  0  0  0  0  0  0  0  0  0  0  0
   48.9933   36.7591   42.0481 H   0  0  0  0  0  0  0  0  0  0  0  0
   50.7712   34.4913   41.9149 H   0  0  0  0  0  0  0  0  0  0  0  0
   50.2594   35.3684   43.3765 H   0  0  0  0  0  0  0  0  0  0  0  0
   49.2297   32.8013   42.2141 H   0  0  0  0  0  0  0  0  0  0  0  0
   49.2658   33.3008   43.8998 H   0  0  0  0  0  0  0  0  0  0  0  0
   47.3217   34.6392   43.6653 H   0  0  0  0  0  0  0  0  0  0  0  0
   46.9498   33.3269   42.5389 H   0  0  0  0  0  0  0  0  0  0  0  0
  1 12  1  0
  2  1  2  0
  3  2  1  0
  4  3  2  0
  4  5  1  0
  5  6  2  0
  6  1  1  0
  7  5  1  0
  8  7  1  0
  8  9  2  0
  9 11  1  0
 10  8  1  0
 12 13  1  0
 12 16  1  0
 13 14  1  0
 14 15  1  0
 16 15  1  0
  2 17  1  0
  3 18  1  0
  7 19  1  0
 10 20  1  0
 10 21  1  0
 12 22  1  0
 13 23  1  0
 13 24  1  0
 14 25  1  0
 14 26  1  0
 15 27  1  0
 15 28  1  0
 16 29  1  0
 16 30  1  0
M  ISO  8  17  14  18  14  22  13  23  13  24  13  25  13  26  13  27  13
M  ISO  3  28  13  29  13  30  13
M  END
>  <minimizedAffinity>  (1) 
-4.93467569

>  <minimizedRMSD>  (1) 
3.58363461

$$$$
