
     RDKit          3D

 29 30  0  0  0  0  0  0  0  0999 V2000
   47.7680   35.1310   41.6780 C   0  0  0  0  0  0  0  0  0  0  0  0
   49.0720   35.7820   41.7080 C   0  0  0  0  0  0  0  0  0  0  0  0
   50.0410   34.8650   42.4620 C   0  0  0  0  0  0  0  0  0  0  0  0
   49.2900   33.5950   42.7800 C   0  0  0  0  0  0  0  0  0  0  0  0
   47.8670   34.0170   42.7610 C   0  0  0  0  0  0  0  0  0  0  0  0
   47.3820   34.4280   40.4420 C   0  0  0  0  0  0  0  0  0  0  0  0
   46.1690   33.7100   40.4110 C   0  0  0  0  0  0  0  0  0  0  0  0
   45.7810   33.0580   39.2390 C   0  0  0  0  0  0  0  0  0  0  0  0
   46.6350   33.1660   38.1770 N   0  0  0  0  0  0  0  0  0  0  0  0
   47.7880   33.8550   38.2280 C   0  0  0  0  0  0  0  0  0  0  0  0
   48.1620   34.4840   39.3580 N   0  0  0  0  0  0  0  0  0  0  0  0
   48.7000   33.9580   37.0580 C   0  0  0  0  0  0  0  0  0  0  0  0
   48.4260   32.9400   36.0060 C   0  0  0  0  0  0  0  0  0  0  0  0
   47.0230   35.9296   41.8093 H   0  0  0  0  0  0  0  0  0  0  0  0
   49.4327   35.9430   40.6814 H   0  0  0  0  0  0  0  0  0  0  0  0
   49.0006   36.7583   42.2098 H   0  0  0  0  0  0  0  0  0  0  0  0
   50.9147   34.6397   41.8328 H   0  0  0  0  0  0  0  0  0  0  0  0
   50.4028   35.3478   43.3818 H   0  0  0  0  0  0  0  0  0  0  0  0
   49.4814   32.8244   42.0187 H   0  0  0  0  0  0  0  0  0  0  0  0
   49.5909   33.1493   43.7396 H   0  0  0  0  0  0  0  0  0  0  0  0
   47.5716   34.4117   43.7443 H   0  0  0  0  0  0  0  0  0  0  0  0
   47.1980   33.1734   42.5356 H   0  0  0  0  0  0  0  0  0  0  0  0
   45.5313   33.6637   41.3061 H   0  0  0  0  0  0  0  0  0  0  0  0
   44.8415   32.4897   39.1738 H   0  0  0  0  0  0  0  0  0  0  0  0
   48.5868   34.9580   36.6140 H   0  0  0  0  0  0  0  0  0  0  0  0
   49.7218   33.7806   37.4248 H   0  0  0  0  0  0  0  0  0  0  0  0
   48.1681   31.9820   36.4811 H   0  0  0  0  0  0  0  0  0  0  0  0
   47.5865   33.2765   35.3799 H   0  0  0  0  0  0  0  0  0  0  0  0
   49.3210   32.8096   35.3799 H   0  0  0  0  0  0  0  0  0  0  0  0
  1  2  1  0
  1  5  1  0
  2  3  1  0
  3  4  1  0
  5  4  1  0
  6  1  1  0
  7  6  2  0
  8  7  1  0
  9 10  1  0
  9  8  2  0
 10 11  2  0
 11  6  1  0
 12 10  1  0
 13 12  1  0
  1 14  1  0
  2 15  1  0
  2 16  1  0
  3 17  1  0
  3 18  1  0
  4 19  1  0
  4 20  1  0
  5 21  1  0
  5 22  1  0
  7 23  1  0
  8 24  1  0
 12 25  1  0
 12 26  1  0
 13 27  1  0
 13 28  1  0
 13 29  1  0
M  ISO  8  14  13  15  13  16  13  17  13  18  13  19  13  20  13  21  13
M  ISO  8  22  13  23  14  24  14  25   8  26   8  27   8  28   8  29   8
M  END
>  <minimizedAffinity>  (1) 
-4.33477545

>  <minimizedRMSD>  (1) 
4.804039

$$$$
