
     RDKit          3D

 33 35  0  0  0  0  0  0  0  0999 V2000
   48.6360   33.2430   40.3990 C   0  0  0  0  0  0  0  0  0  0  0  0
   49.6640   32.2980   40.5880 C   0  0  0  0  0  0  0  0  0  0  0  0
   49.7210   31.1720   39.7680 C   0  0  0  0  0  0  0  0  0  0  0  0
   48.7420   31.0630   38.8080 N   0  0  0  0  0  0  0  0  0  0  0  0
   47.7730   31.9820   38.6500 C   0  0  0  0  0  0  0  0  0  0  0  0
   47.7160   33.0740   39.4430 N   0  0  0  0  0  0  0  0  0  0  0  0
   48.5660   34.4240   41.2770 C   0  0  0  0  0  0  0  0  0  0  0  0
   48.9530   34.2460   42.6720 C   0  0  0  0  0  0  0  0  0  0  0  0
   47.6810   34.1100   43.5090 C   0  0  0  0  0  0  0  0  0  0  0  0
   46.5180   34.1120   42.5420 C   0  0  0  0  0  0  0  0  0  0  0  0
   47.0600   34.7990   41.3460 C   0  0  0  0  0  0  0  0  0  0  0  0
   46.7940   31.7500   37.5940 C   0  0  0  0  0  0  0  0  0  0  0  0
   46.3840   32.7550   36.7420 C   0  0  0  0  0  0  0  0  0  0  0  0
   45.4640   32.5270   35.7530 C   0  0  0  0  0  0  0  0  0  0  0  0
   44.9230   31.2510   35.5960 C   0  0  0  0  0  0  0  0  0  0  0  0
   45.3360   30.2610   36.4460 C   0  0  0  0  0  0  0  0  0  0  0  0
   46.2710   30.4880   37.4540 C   0  0  0  0  0  0  0  0  0  0  0  0
   50.4160   32.4476   41.3767 H   0  0  0  0  0  0  0  0  0  0  0  0
   50.5071   30.4112   39.8826 H   0  0  0  0  0  0  0  0  0  0  0  0
   49.2673   35.1528   40.8445 H   0  0  0  0  0  0  0  0  0  0  0  0
   49.5652   33.3379   42.7753 H   0  0  0  0  0  0  0  0  0  0  0  0
   49.5422   35.1092   43.0151 H   0  0  0  0  0  0  0  0  0  0  0  0
   47.7001   33.1677   44.0761 H   0  0  0  0  0  0  0  0  0  0  0  0
   47.5944   34.9349   44.2315 H   0  0  0  0  0  0  0  0  0  0  0  0
   46.2082   33.0851   42.2983 H   0  0  0  0  0  0  0  0  0  0  0  0
   45.6239   34.6060   42.9500 H   0  0  0  0  0  0  0  0  0  0  0  0
   46.9423   35.8881   41.4456 H   0  0  0  0  0  0  0  0  0  0  0  0
   46.5283   34.4937   40.4327 H   0  0  0  0  0  0  0  0  0  0  0  0
   46.8062   33.7639   36.8599 H   0  0  0  0  0  0  0  0  0  0  0  0
   45.1537   33.3453   35.0866 H   0  0  0  0  0  0  0  0  0  0  0  0
   44.1828   31.0455   34.8086 H   0  0  0  0  0  0  0  0  0  0  0  0
   44.9154   29.2513   36.3294 H   0  0  0  0  0  0  0  0  0  0  0  0
   46.5836   29.6732   38.1236 H   0  0  0  0  0  0  0  0  0  0  0  0
  1  2  2  0
  1  7  1  0
  3  2  1  0
  4  3  2  0
  5  4  1  0
  5  6  2  0
  6  1  1  0
  7 11  1  0
  7  8  1  0
  8  9  1  0
 10  9  1  0
 11 10  1  0
 12  5  1  0
 13 12  2  0
 14 13  1  0
 15 14  2  0
 15 16  1  0
 16 17  2  0
 17 12  1  0
  2 18  1  0
  3 19  1  0
  7 20  1  0
  8 21  1  0
  8 22  1  0
  9 23  1  0
  9 24  1  0
 10 25  1  0
 10 26  1  0
 11 27  1  0
 11 28  1  0
 13 29  1  0
 14 30  1  0
 15 31  1  0
 16 32  1  0
 17 33  1  0
M  ISO  8  18  14  19  14  20  13  21  13  22  13  23  13  24  13  25  13
M  ISO  8  26  13  27  13  28  13  29  14  30  14  31  14  32  14  33  14
M  END
>  <minimizedAffinity>  (1) 
-3.35620236

>  <minimizedRMSD>  (1) 
6.03954601

$$$$
