
     RDKit          3D

 25 26  0  0  0  0  0  0  0  0999 V2000
   48.2400   34.8000   41.8890 C   0  0  0  0  0  0  0  0  0  0  0  0
   48.5630   34.0970   43.1340 C   0  0  0  0  0  0  0  0  0  0  0  0
   47.2600   33.5860   43.7450 C   0  0  0  0  0  0  0  0  0  0  0  0
   46.1560   33.8960   42.7530 C   0  0  0  0  0  0  0  0  0  0  0  0
   46.7060   35.0380   41.9860 C   0  0  0  0  0  0  0  0  0  0  0  0
   48.4440   34.0680   40.6270 C   0  0  0  0  0  0  0  0  0  0  0  0
   49.0820   32.8170   40.6550 C   0  0  0  0  0  0  0  0  0  0  0  0
   49.2650   32.1100   39.4680 C   0  0  0  0  0  0  0  0  0  0  0  0
   48.7970   32.7010   38.3180 N   0  0  0  0  0  0  0  0  0  0  0  0
   48.1850   33.9100   38.3260 C   0  0  0  0  0  0  0  0  0  0  0  0
   48.0090   34.5930   39.4790 N   0  0  0  0  0  0  0  0  0  0  0  0
   47.7120   34.4930   37.1170 N   0  0  0  0  0  0  0  0  0  0  0  0
   48.9057   35.6737   41.8306 H   0  0  0  0  0  0  0  0  0  0  0  0
   49.2316   33.2500   42.9207 H   0  0  0  0  0  0  0  0  0  0  0  0
   49.0699   34.7773   43.8341 H   0  0  0  0  0  0  0  0  0  0  0  0
   47.3220   32.5010   43.9149 H   0  0  0  0  0  0  0  0  0  0  0  0
   47.0645   34.0678   44.7143 H   0  0  0  0  0  0  0  0  0  0  0  0
   45.9622   33.0354   42.0959 H   0  0  0  0  0  0  0  0  0  0  0  0
   45.1927   34.1214   43.2339 H   0  0  0  0  0  0  0  0  0  0  0  0
   46.4995   35.9832   42.5094 H   0  0  0  0  0  0  0  0  0  0  0  0
   46.2481   35.1072   40.9882 H   0  0  0  0  0  0  0  0  0  0  0  0
   49.4353   32.3976   41.6086 H   0  0  0  0  0  0  0  0  0  0  0  0
   49.7595   31.1275   39.4519 H   0  0  0  0  0  0  0  0  0  0  0  0
   47.2484   35.4126   37.1356 H   0  0  0  0  0  0  0  0  0  0  0  0
   47.8333   33.9954   36.2234 H   0  0  0  0  0  0  0  0  0  0  0  0
  1  5  1  0
  1  2  1  0
  2  3  1  0
  4  3  1  0
  5  4  1  0
  6  7  2  0
  6  1  1  0
  8  7  1  0
  9 10  1  0
  9  8  2  0
 10 11  2  0
 11  6  1  0
 12 10  1  0
  1 13  1  0
  2 14  1  0
  2 15  1  0
  3 16  1  0
  3 17  1  0
  4 18  1  0
  4 19  1  0
  5 20  1  0
  5 21  1  0
  7 22  1  0
  8 23  1  0
 12 24  1  0
 12 25  1  0
M  ISO  8  13  13  14  13  15  13  16  13  17  13  18  13  19  13  20  13
M  ISO  3  21  13  22  14  23  14
M  END
>  <minimizedAffinity>  (1) 
-3.82884884

>  <minimizedRMSD>  (1) 
4.39147186

$$$$
