
     RDKit          3D

 38 40  0  0  0  0  0  0  0  0999 V2000
   48.4150   34.0870   40.6490 C   0  0  0  0  0  0  0  0  0  0  0  0
   49.1670   32.8900   40.6760 C   0  0  0  0  0  0  0  0  0  0  0  0
   49.4050   32.1940   39.5010 C   0  0  0  0  0  0  0  0  0  0  0  0
   48.8810   32.7270   38.3590 N   0  0  0  0  0  0  0  0  0  0  0  0
   48.1600   33.8810   38.3600 C   0  0  0  0  0  0  0  0  0  0  0  0
   47.9240   34.5660   39.5090 N   0  0  0  0  0  0  0  0  0  0  0  0
   47.6120   34.4210   37.1560 N   0  0  0  0  0  0  0  0  0  0  0  0
   50.1500   30.9900   39.4560 N   0  0  0  0  0  0  0  0  0  0  0  0
   49.6350   29.9540   38.7670 C   0  0  0  0  0  0  0  0  0  0  0  0
   50.3630   28.7710   38.7210 C   0  0  0  0  0  0  0  0  0  0  0  0
   49.8590   27.5820   37.9780 C   0  0  0  0  0  0  0  0  0  0  0  0
   51.5760   28.7200   39.3840 C   0  0  0  0  0  0  0  0  0  0  0  0
   52.2460   27.6490   39.3470 O   0  0  0  0  0  0  0  0  0  0  0  0
   52.0570   29.7750   40.0600 N   0  0  0  0  0  0  0  0  0  0  0  0
   51.3410   30.9290   40.1020 C   0  0  0  0  0  0  0  0  0  0  0  0
   51.7920   31.9360   40.7450 O   0  0  0  0  0  0  0  0  0  0  0  0
   48.1610   34.7810   41.9120 C   0  0  0  0  0  0  0  0  0  0  0  0
   48.4500   34.1380   43.1620 C   0  0  0  0  0  0  0  0  0  0  0  0
   47.1560   33.5420   43.7290 C   0  0  0  0  0  0  0  0  0  0  0  0
   46.0660   33.8120   42.6970 C   0  0  0  0  0  0  0  0  0  0  0  0
   46.5910   34.9620   41.9510 C   0  0  0  0  0  0  0  0  0  0  0  0
   49.5633   32.5109   41.6296 H   0  0  0  0  0  0  0  0  0  0  0  0
   47.0699   35.2963   37.1842 H   0  0  0  0  0  0  0  0  0  0  0  0
   47.7591   33.9349   36.2599 H   0  0  0  0  0  0  0  0  0  0  0  0
   48.6654   30.0415   38.2550 H   0  0  0  0  0  0  0  0  0  0  0  0
   49.5331   26.8132   38.6941 H   0  0  0  0  0  0  0  0  0  0  0  0
   49.0090   27.8780   37.3457 H   0  0  0  0  0  0  0  0  0  0  0  0
   50.6628   27.1770   37.3457 H   0  0  0  0  0  0  0  0  0  0  0  0
   52.9638   29.7102   40.5442 H   0  0  0  0  0  0  0  0  0  0  0  0
   48.8291   35.6541   41.8768 H   0  0  0  0  0  0  0  0  0  0  0  0
   49.1862   33.3363   43.0026 H   0  0  0  0  0  0  0  0  0  0  0  0
   48.8622   34.8718   43.8703 H   0  0  0  0  0  0  0  0  0  0  0  0
   47.2725   32.4593   43.8842 H   0  0  0  0  0  0  0  0  0  0  0  0
   46.9036   33.9913   44.7008 H   0  0  0  0  0  0  0  0  0  0  0  0
   45.9242   32.9441   42.0362 H   0  0  0  0  0  0  0  0  0  0  0  0
   45.0811   34.0026   43.1483 H   0  0  0  0  0  0  0  0  0  0  0  0
   46.3276   35.9003   42.4612 H   0  0  0  0  0  0  0  0  0  0  0  0
   46.1672   35.0101   40.9371 H   0  0  0  0  0  0  0  0  0  0  0  0
  1  2  2  0
  1 17  1  0
  3  2  1  0
  4  5  1  0
  4  3  2  0
  5  6  2  0
  6  1  1  0
  7  5  1  0
  8  3  1  0
  8 15  1  0
  9  8  1  0
 10  9  2  0
 10 12  1  0
 11 10  1  0
 12 14  1  0
 13 12  2  0
 14 15  1  0
 15 16  2  0
 17 21  1  0
 17 18  1  0
 18 19  1  0
 20 19  1  0
 21 20  1  0
  2 22  1  0
  7 23  1  0
  7 24  1  0
  9 25  1  0
 11 26  1  0
 11 27  1  0
 11 28  1  0
 14 29  1  0
 17 30  1  0
 18 31  1  0
 18 32  1  0
 19 33  1  0
 19 34  1  0
 20 35  1  0
 20 36  1  0
 21 37  1  0
 21 38  1  0
M  ISO  8  22  14  25  14  26   8  27   8  28   8  29   9  30  13  31  13
M  ISO  7  32  13  33  13  34  13  35  13  36  13  37  13  38  13
M  END
>  <minimizedAffinity>  (1) 
-4.60556126

>  <minimizedRMSD>  (1) 
0.355277181

$$$$
