
     RDKit          3D

 40 42  0  0  0  0  0  0  0  0999 V2000
   48.2150   34.1310   40.6880 C   0  0  0  0  0  0  0  0  0  0  0  0
   49.1570   33.0780   40.7610 C   0  0  0  0  0  0  0  0  0  0  0  0
   49.5090   32.4030   39.6000 C   0  0  0  0  0  0  0  0  0  0  0  0
   48.9130   32.8040   38.4400 N   0  0  0  0  0  0  0  0  0  0  0  0
   48.0200   33.8070   38.3920 C   0  0  0  0  0  0  0  0  0  0  0  0
   47.6650   34.4800   39.5200 N   0  0  0  0  0  0  0  0  0  0  0  0
   47.4030   34.2020   37.1840 N   0  0  0  0  0  0  0  0  0  0  0  0
   50.4290   31.3340   39.5030 N   0  0  0  0  0  0  0  0  0  0  0  0
   51.5800   31.0770   40.3320 C   0  0  0  0  0  0  0  0  0  0  0  0
   52.8770   31.2700   39.5750 C   0  0  0  0  0  0  0  0  0  0  0  0
   52.6570   31.0550   38.0910 C   0  0  0  0  0  0  0  0  0  0  0  0
   51.6270   29.9730   37.8800 C   0  0  0  0  0  0  0  0  0  0  0  0
   50.3090   30.3150   38.4940 C   0  0  0  0  0  0  0  0  0  0  0  0
   47.8460   34.8160   41.9240 C   0  0  0  0  0  0  0  0  0  0  0  0
   48.1340   34.2260   43.1980 C   0  0  0  0  0  0  0  0  0  0  0  0
   46.8820   33.4910   43.7070 C   0  0  0  0  0  0  0  0  0  0  0  0
   45.8180   33.6580   42.6320 C   0  0  0  0  0  0  0  0  0  0  0  0
   46.2700   34.8510   41.9070 C   0  0  0  0  0  0  0  0  0  0  0  0
   49.6050   32.7976   41.7257 H   0  0  0  0  0  0  0  0  0  0  0  0
   46.7225   34.9752   37.1821 H   0  0  0  0  0  0  0  0  0  0  0  0
   47.6337   33.7168   36.3052 H   0  0  0  0  0  0  0  0  0  0  0  0
   51.5623   31.7670   41.1885 H   0  0  0  0  0  0  0  0  0  0  0  0
   51.5327   30.0296   40.6648 H   0  0  0  0  0  0  0  0  0  0  0  0
   53.2463   32.2925   39.7427 H   0  0  0  0  0  0  0  0  0  0  0  0
   53.6147   30.5387   39.9370 H   0  0  0  0  0  0  0  0  0  0  0  0
   52.3025   31.9910   37.6347 H   0  0  0  0  0  0  0  0  0  0  0  0
   53.6049   30.7511   37.6230 H   0  0  0  0  0  0  0  0  0  0  0  0
   51.4857   29.8255   36.7991 H   0  0  0  0  0  0  0  0  0  0  0  0
   51.9966   29.0582   38.3663 H   0  0  0  0  0  0  0  0  0  0  0  0
   49.6331   30.6756   37.7046 H   0  0  0  0  0  0  0  0  0  0  0  0
   49.9141   29.4078   38.9746 H   0  0  0  0  0  0  0  0  0  0  0  0
   48.4361   35.7437   41.8896 H   0  0  0  0  0  0  0  0  0  0  0  0
   48.9638   33.5114   43.0939 H   0  0  0  0  0  0  0  0  0  0  0  0
   48.4196   35.0109   43.9138 H   0  0  0  0  0  0  0  0  0  0  0  0
   47.1033   32.4245   43.8606 H   0  0  0  0  0  0  0  0  0  0  0  0
   46.5433   33.9009   44.6700 H   0  0  0  0  0  0  0  0  0  0  0  0
   45.7841   32.7810   41.9689 H   0  0  0  0  0  0  0  0  0  0  0  0
   44.8007   33.7560   43.0388 H   0  0  0  0  0  0  0  0  0  0  0  0
   45.9048   35.7603   42.4068 H   0  0  0  0  0  0  0  0  0  0  0  0
   45.8838   34.8602   40.8771 H   0  0  0  0  0  0  0  0  0  0  0  0
  1  2  2  0
  1 14  1  0
  3  2  1  0
  4  3  2  0
  5  4  1  0
  5  6  2  0
  6  1  1  0
  7  5  1  0
  8  3  1  0
  8  9  1  0
 10  9  1  0
 11 10  1  0
 12 11  1  0
 12 13  1  0
 13  8  1  0
 14 15  1  0
 15 16  1  0
 17 16  1  0
 18 14  1  0
 18 17  1  0
  2 19  1  0
  7 20  1  0
  7 21  1  0
  9 22  1  0
  9 23  1  0
 10 24  1  0
 10 25  1  0
 11 26  1  0
 11 27  1  0
 12 28  1  0
 12 29  1  0
 13 30  1  0
 13 31  1  0
 14 32  1  0
 15 33  1  0
 15 34  1  0
 16 35  1  0
 16 36  1  0
 17 37  1  0
 17 38  1  0
 18 39  1  0
 18 40  1  0
M  ISO  8  19  14  22  13  23  13  24  13  25  13  26  13  27  13  28  13
M  ISO  8  29  13  30  13  31  13  32  13  33  13  34  13  35  13  36  13
M  ISO  4  37  13  38  13  39  13  40  13
M  END
>  <minimizedAffinity>  (1) 
-4.43792677

>  <minimizedRMSD>  (1) 
0.702023208

$$$$
