
     RDKit          3D

 39 42  0  0  0  0  0  0  0  0999 V2000
   48.4340   34.0820   40.6410 C   0  0  0  0  0  0  0  0  0  0  0  0
   49.1950   32.8890   40.6450 C   0  0  0  0  0  0  0  0  0  0  0  0
   49.4140   32.1960   39.4650 C   0  0  0  0  0  0  0  0  0  0  0  0
   48.8490   32.7450   38.3260 N   0  0  0  0  0  0  0  0  0  0  0  0
   48.1270   33.8880   38.3590 C   0  0  0  0  0  0  0  0  0  0  0  0
   47.9190   34.5550   39.5070 N   0  0  0  0  0  0  0  0  0  0  0  0
   47.5790   34.3870   37.1420 N   0  0  0  0  0  0  0  0  0  0  0  0
   48.2020   34.7780   41.9070 C   0  0  0  0  0  0  0  0  0  0  0  0
   48.4970   34.1260   43.1480 C   0  0  0  0  0  0  0  0  0  0  0  0
   47.2040   33.5230   43.7200 C   0  0  0  0  0  0  0  0  0  0  0  0
   46.1050   33.8190   42.7070 C   0  0  0  0  0  0  0  0  0  0  0  0
   46.6340   34.9670   41.9650 C   0  0  0  0  0  0  0  0  0  0  0  0
   50.1910   30.9630   39.4140 C   0  0  0  0  0  0  0  0  0  0  0  0
   49.7510   29.7510   39.9020 C   0  0  0  0  0  0  0  0  0  0  0  0
   50.7850   28.9180   39.6390 N   0  0  0  0  0  0  0  0  0  0  0  0
   51.8090   29.5630   39.0260 C   0  0  0  0  0  0  0  0  0  0  0  0
   53.0240   29.1010   38.5940 C   0  0  0  0  0  0  0  0  0  0  0  0
   53.8940   29.9920   37.9910 C   0  0  0  0  0  0  0  0  0  0  0  0
   53.5450   31.3060   37.8320 C   0  0  0  0  0  0  0  0  0  0  0  0
   52.3280   31.7600   38.2660 C   0  0  0  0  0  0  0  0  0  0  0  0
   51.4540   30.8870   38.8670 C   0  0  0  0  0  0  0  0  0  0  0  0
   49.6145   32.5101   41.5886 H   0  0  0  0  0  0  0  0  0  0  0  0
   47.0259   35.2559   37.1443 H   0  0  0  0  0  0  0  0  0  0  0  0
   47.7360   33.8788   36.2600 H   0  0  0  0  0  0  0  0  0  0  0  0
   48.8747   35.6474   41.8665 H   0  0  0  0  0  0  0  0  0  0  0  0
   49.2326   33.3260   42.9779 H   0  0  0  0  0  0  0  0  0  0  0  0
   48.9121   34.8548   43.8597 H   0  0  0  0  0  0  0  0  0  0  0  0
   47.3169   32.4368   43.8520 H   0  0  0  0  0  0  0  0  0  0  0  0
   46.9652   33.9531   44.7039 H   0  0  0  0  0  0  0  0  0  0  0  0
   45.9414   32.9597   42.0401 H   0  0  0  0  0  0  0  0  0  0  0  0
   45.1298   34.0198   43.1747 H   0  0  0  0  0  0  0  0  0  0  0  0
   46.3828   35.9037   42.4841 H   0  0  0  0  0  0  0  0  0  0  0  0
   46.2017   35.0220   40.9550 H   0  0  0  0  0  0  0  0  0  0  0  0
   48.7920   29.5175   40.3875 H   0  0  0  0  0  0  0  0  0  0  0  0
   50.7933   27.9156   39.8757 H   0  0  0  0  0  0  0  0  0  0  0  0
   53.3020   28.0446   38.7237 H   0  0  0  0  0  0  0  0  0  0  0  0
   54.8745   29.6414   37.6364 H   0  0  0  0  0  0  0  0  0  0  0  0
   54.2477   32.0029   37.3518 H   0  0  0  0  0  0  0  0  0  0  0  0
   52.0522   32.8167   38.1342 H   0  0  0  0  0  0  0  0  0  0  0  0
  1  2  2  0
  1  8  1  0
  3  2  1  0
  4  5  1  0
  4  3  2  0
  5  6  2  0
  6  1  1  0
  7  5  1  0
  8 12  1  0
  8  9  1  0
  9 10  1  0
 11 10  1  0
 12 11  1  0
 13  3  1  0
 13 14  2  0
 15 14  1  0
 16 15  1  0
 17 16  2  0
 18 17  1  0
 19 18  2  0
 19 20  1  0
 20 21  2  0
 21 16  1  0
 21 13  1  0
  2 22  1  0
  7 23  1  0
  7 24  1  0
  8 25  1  0
  9 26  1  0
  9 27  1  0
 10 28  1  0
 10 29  1  0
 11 30  1  0
 11 31  1  0
 12 32  1  0
 12 33  1  0
 14 34  1  0
 15 35  1  0
 17 36  1  0
 18 37  1  0
 19 38  1  0
 20 39  1  0
M  ISO  8  22  14  25  13  26  13  27  13  28  13  29  13  30  13  31  13
M  ISO  8  32  13  33  13  34  14  35   9  36  14  37  14  38  14  39  14
M  END
>  <minimizedAffinity>  (1) 
-4.63878822

>  <minimizedRMSD>  (1) 
1.6483748

$$$$
