
     RDKit          3D

 35 37  0  0  0  0  0  0  0  0999 V2000
   48.3660   34.1090   40.6690 C   0  0  0  0  0  0  0  0  0  0  0  0
   49.1210   32.9270   40.7180 C   0  0  0  0  0  0  0  0  0  0  0  0
   49.4010   32.2160   39.5490 C   0  0  0  0  0  0  0  0  0  0  0  0
   48.8970   32.7390   38.3810 N   0  0  0  0  0  0  0  0  0  0  0  0
   48.1710   33.8790   38.3720 C   0  0  0  0  0  0  0  0  0  0  0  0
   47.8930   34.5830   39.5030 N   0  0  0  0  0  0  0  0  0  0  0  0
   47.6320   34.4140   37.1590 N   0  0  0  0  0  0  0  0  0  0  0  0
   48.0830   34.8150   41.9150 C   0  0  0  0  0  0  0  0  0  0  0  0
   48.3770   34.1870   43.1790 C   0  0  0  0  0  0  0  0  0  0  0  0
   47.0810   33.5640   43.7270 C   0  0  0  0  0  0  0  0  0  0  0  0
   45.9990   33.8150   42.6820 C   0  0  0  0  0  0  0  0  0  0  0  0
   46.5140   34.9650   41.9340 C   0  0  0  0  0  0  0  0  0  0  0  0
   50.1620   30.9980   39.4660 C   0  0  0  0  0  0  0  0  0  0  0  0
   49.6050   29.7790   39.2010 C   0  0  0  0  0  0  0  0  0  0  0  0
   50.3380   28.6090   39.1210 C   0  0  0  0  0  0  0  0  0  0  0  0
   51.7040   28.6300   39.3130 C   0  0  0  0  0  0  0  0  0  0  0  0
   52.2670   29.8530   39.5790 C   0  0  0  0  0  0  0  0  0  0  0  0
   51.5070   30.9810   39.6490 C   0  0  0  0  0  0  0  0  0  0  0  0
   49.4950   32.5578   41.6843 H   0  0  0  0  0  0  0  0  0  0  0  0
   47.0821   35.2847   37.1798 H   0  0  0  0  0  0  0  0  0  0  0  0
   47.7940   33.9284   36.2652 H   0  0  0  0  0  0  0  0  0  0  0  0
   48.7284   35.7050   41.8769 H   0  0  0  0  0  0  0  0  0  0  0  0
   49.1346   33.4023   43.0363 H   0  0  0  0  0  0  0  0  0  0  0  0
   48.7669   34.9317   43.8885 H   0  0  0  0  0  0  0  0  0  0  0  0
   47.2156   32.4833   43.8815 H   0  0  0  0  0  0  0  0  0  0  0  0
   46.8069   34.0080   44.6954 H   0  0  0  0  0  0  0  0  0  0  0  0
   45.8749   32.9412   42.0254 H   0  0  0  0  0  0  0  0  0  0  0  0
   45.0080   33.9970   43.1233 H   0  0  0  0  0  0  0  0  0  0  0  0
   46.2272   35.9027   42.4324 H   0  0  0  0  0  0  0  0  0  0  0  0
   46.1032   34.9945   40.9140 H   0  0  0  0  0  0  0  0  0  0  0  0
   48.5177   29.7254   39.0432 H   0  0  0  0  0  0  0  0  0  0  0  0
   49.8299   27.6580   38.9034 H   0  0  0  0  0  0  0  0  0  0  0  0
   52.3104   27.7140   39.2559 H   0  0  0  0  0  0  0  0  0  0  0  0
   53.3530   29.9236   39.7388 H   0  0  0  0  0  0  0  0  0  0  0  0
   52.0124   31.9335   39.8664 H   0  0  0  0  0  0  0  0  0  0  0  0
  1  2  2  0
  1  8  1  0
  3  2  1  0
  4  3  2  0
  5  4  1  0
  5  6  2  0
  6  1  1  0
  7  5  1  0
  8 12  1  0
  8  9  1  0
  9 10  1  0
 11 10  1  0
 12 11  1  0
 13  3  1  0
 13 18  1  0
 14 13  2  0
 15 14  1  0
 15 16  2  0
 16 17  1  0
 17 18  2  0
  2 19  1  0
  7 20  1  0
  7 21  1  0
  8 22  1  0
  9 23  1  0
  9 24  1  0
 10 25  1  0
 10 26  1  0
 11 27  1  0
 11 28  1  0
 12 29  1  0
 12 30  1  0
 14 31  1  0
 15 32  1  0
 16 33  1  0
 17 34  1  0
 18 35  1  0
M  ISO  8  19  14  22  13  23  13  24  13  25  13  26  13  27  13  28  13
M  ISO  7  29  13  30  13  31  14  32  14  33  14  34  14  35  14
M  END
>  <minimizedAffinity>  (1) 
-4.06385279

>  <minimizedRMSD>  (1) 
0.335365832

$$$$
