
     RDKit          3D

 39 41  0  0  0  0  0  0  0  0999 V2000
   48.3570   34.1280   40.6940 C   0  0  0  0  0  0  0  0  0  0  0  0
   49.1600   32.9660   40.7530 C   0  0  0  0  0  0  0  0  0  0  0  0
   49.4500   32.2620   39.5910 C   0  0  0  0  0  0  0  0  0  0  0  0
   48.9230   32.7560   38.4270 N   0  0  0  0  0  0  0  0  0  0  0  0
   48.1590   33.8670   38.4010 C   0  0  0  0  0  0  0  0  0  0  0  0
   47.8710   34.5590   39.5290 N   0  0  0  0  0  0  0  0  0  0  0  0
   47.6000   34.3740   37.1840 N   0  0  0  0  0  0  0  0  0  0  0  0
   50.2510   31.0870   39.5760 N   0  0  0  0  0  0  0  0  0  0  0  0
   49.6690   29.7760   39.7330 C   0  0  0  0  0  0  0  0  0  0  0  0
   50.6120   28.9890   40.6280 C   0  0  0  0  0  0  0  0  0  0  0  0
   51.9500   28.9220   40.1360 N   0  0  0  0  0  0  0  0  0  0  0  0
   52.3020   29.9100   39.1590 C   0  0  0  0  0  0  0  0  0  0  0  0
   51.6700   31.2550   39.3980 C   0  0  0  0  0  0  0  0  0  0  0  0
   48.0580   34.8240   41.9390 C   0  0  0  0  0  0  0  0  0  0  0  0
   48.3380   34.2140   43.2050 C   0  0  0  0  0  0  0  0  0  0  0  0
   47.0520   33.5660   43.7480 C   0  0  0  0  0  0  0  0  0  0  0  0
   45.9800   33.7880   42.6860 C   0  0  0  0  0  0  0  0  0  0  0  0
   46.4840   34.9530   41.9480 C   0  0  0  0  0  0  0  0  0  0  0  0
   49.5553   32.6192   41.7192 H   0  0  0  0  0  0  0  0  0  0  0  0
   47.0206   35.2254   37.1989 H   0  0  0  0  0  0  0  0  0  0  0  0
   47.7774   33.8872   36.2938 H   0  0  0  0  0  0  0  0  0  0  0  0
   48.6771   29.8544   40.2019 H   0  0  0  0  0  0  0  0  0  0  0  0
   49.5380   29.2801   38.7599 H   0  0  0  0  0  0  0  0  0  0  0  0
   50.6301   29.4671   41.6185 H   0  0  0  0  0  0  0  0  0  0  0  0
   50.2321   27.9574   40.6658 H   0  0  0  0  0  0  0  0  0  0  0  0
   52.5879   29.0281   40.9377 H   0  0  0  0  0  0  0  0  0  0  0  0
   51.9836   29.5483   38.1702 H   0  0  0  0  0  0  0  0  0  0  0  0
   53.3908   30.0520   39.2258 H   0  0  0  0  0  0  0  0  0  0  0  0
   52.1028   31.7094   40.3014 H   0  0  0  0  0  0  0  0  0  0  0  0
   51.8590   31.9105   38.5351 H   0  0  0  0  0  0  0  0  0  0  0  0
   48.7036   35.7138   41.9012 H   0  0  0  0  0  0  0  0  0  0  0  0
   49.1135   33.4441   43.0793 H   0  0  0  0  0  0  0  0  0  0  0  0
   48.6956   34.9766   43.9125 H   0  0  0  0  0  0  0  0  0  0  0  0
   47.2080   32.4896   43.9127 H   0  0  0  0  0  0  0  0  0  0  0  0
   46.7578   34.0073   44.7117 H   0  0  0  0  0  0  0  0  0  0  0  0
   45.8884   32.9118   42.0273 H   0  0  0  0  0  0  0  0  0  0  0  0
   44.9762   33.9430   43.1084 H   0  0  0  0  0  0  0  0  0  0  0  0
   46.1808   35.8831   42.4511 H   0  0  0  0  0  0  0  0  0  0  0  0
   46.0793   34.9847   40.9256 H   0  0  0  0  0  0  0  0  0  0  0  0
  1  2  2  0
  1 14  1  0
  3  2  1  0
  4  3  2  0
  5  4  1  0
  5  6  2  0
  6  1  1  0
  7  5  1  0
  8  3  1  0
  8  9  1  0
  9 10  1  0
 11 10  1  0
 12 13  1  0
 12 11  1  0
 13  8  1  0
 14 18  1  0
 14 15  1  0
 15 16  1  0
 17 16  1  0
 18 17  1  0
  2 19  1  0
  7 20  1  0
  7 21  1  0
  9 22  1  0
  9 23  1  0
 10 24  1  0
 10 25  1  0
 11 26  1  0
 12 27  1  0
 12 28  1  0
 13 29  1  0
 13 30  1  0
 14 31  1  0
 15 32  1  0
 15 33  1  0
 16 34  1  0
 16 35  1  0
 17 36  1  0
 17 37  1  0
 18 38  1  0
 18 39  1  0
M  ISO  8  19  14  22  13  23  13  24  13  25  13  26   5  27  13  28  13
M  ISO  8  29  13  30  13  31  13  32  13  33  13  34  13  35  13  36  13
M  ISO  3  37  13  38  13  39  13
M  END
>  <minimizedAffinity>  (1) 
-4.34207964

>  <minimizedRMSD>  (1) 
0.42732811

$$$$
