
     RDKit          3D

 41 43  0  0  0  0  0  0  0  0999 V2000
   48.3570   34.1190   40.6630 C   0  0  0  0  0  0  0  0  0  0  0  0
   49.1720   32.9640   40.6990 C   0  0  0  0  0  0  0  0  0  0  0  0
   49.4430   32.2740   39.5210 C   0  0  0  0  0  0  0  0  0  0  0  0
   48.8820   32.7830   38.3870 N   0  0  0  0  0  0  0  0  0  0  0  0
   48.0970   33.9010   38.3780 C   0  0  0  0  0  0  0  0  0  0  0  0
   47.8410   34.5620   39.5180 N   0  0  0  0  0  0  0  0  0  0  0  0
   47.5450   34.3740   37.1630 N   0  0  0  0  0  0  0  0  0  0  0  0
   48.0700   34.8130   41.9240 C   0  0  0  0  0  0  0  0  0  0  0  0
   48.3600   34.1800   43.1750 C   0  0  0  0  0  0  0  0  0  0  0  0
   47.0750   33.5390   43.7230 C   0  0  0  0  0  0  0  0  0  0  0  0
   45.9920   33.7840   42.6820 C   0  0  0  0  0  0  0  0  0  0  0  0
   46.4990   34.9500   41.9490 C   0  0  0  0  0  0  0  0  0  0  0  0
   50.2830   31.0540   39.4410 C   0  0  0  0  0  0  0  0  0  0  0  0
   50.1930   30.3910   38.0850 C   0  0  0  0  0  0  0  0  0  0  0  0
   51.0770   29.1780   38.1440 C   0  0  0  0  0  0  0  0  0  0  0  0
   51.6200   28.8900   39.5290 C   0  0  0  0  0  0  0  0  0  0  0  0
   52.4040   30.0430   40.1080 C   0  0  0  0  0  0  0  0  0  0  0  0
   51.7310   31.3220   39.6960 C   0  0  0  0  0  0  0  0  0  0  0  0
   49.5900   32.6124   41.6538 H   0  0  0  0  0  0  0  0  0  0  0  0
   46.9536   35.2173   37.1598 H   0  0  0  0  0  0  0  0  0  0  0  0
   47.7349   33.8748   36.2823 H   0  0  0  0  0  0  0  0  0  0  0  0
   48.7137   35.7044   41.8912 H   0  0  0  0  0  0  0  0  0  0  0  0
   49.1248   33.4035   43.0265 H   0  0  0  0  0  0  0  0  0  0  0  0
   48.7363   34.9264   43.8900 H   0  0  0  0  0  0  0  0  0  0  0  0
   47.2224   32.4590   43.8712 H   0  0  0  0  0  0  0  0  0  0  0  0
   46.7976   33.9724   44.6952 H   0  0  0  0  0  0  0  0  0  0  0  0
   45.8799   32.9159   42.0158 H   0  0  0  0  0  0  0  0  0  0  0  0
   44.9965   33.9462   43.1210 H   0  0  0  0  0  0  0  0  0  0  0  0
   46.2064   35.8782   42.4617 H   0  0  0  0  0  0  0  0  0  0  0  0
   46.0864   34.9903   40.9301 H   0  0  0  0  0  0  0  0  0  0  0  0
   49.8823   30.3960   40.2262 H   0  0  0  0  0  0  0  0  0  0  0  0
   50.5436   31.0790   37.3016 H   0  0  0  0  0  0  0  0  0  0  0  0
   49.1554   30.1158   37.8448 H   0  0  0  0  0  0  0  0  0  0  0  0
   50.4944   28.3065   37.8107 H   0  0  0  0  0  0  0  0  0  0  0  0
   51.9415   29.3768   37.4935 H   0  0  0  0  0  0  0  0  0  0  0  0
   50.7749   28.6701   40.1979 H   0  0  0  0  0  0  0  0  0  0  0  0
   52.3079   28.0362   39.4412 H   0  0  0  0  0  0  0  0  0  0  0  0
   52.4212   29.9679   41.2053 H   0  0  0  0  0  0  0  0  0  0  0  0
   53.4397   30.0222   39.7380 H   0  0  0  0  0  0  0  0  0  0  0  0
   52.2013   31.7066   38.7790 H   0  0  0  0  0  0  0  0  0  0  0  0
   51.8336   32.0689   40.4970 H   0  0  0  0  0  0  0  0  0  0  0  0
  1  2  2  0
  1  8  1  0
  3  2  1  0
  4  3  2  0
  5  4  1  0
  5  6  2  0
  6  1  1  0
  7  5  1  0
  8 12  1  0
  8  9  1  0
  9 10  1  0
 11 10  1  0
 12 11  1  0
 13  3  1  0
 13 18  1  0
 14 15  1  0
 14 13  1  0
 15 16  1  0
 16 17  1  0
 18 17  1  0
  2 19  1  0
  7 20  1  0
  7 21  1  0
  8 22  1  0
  9 23  1  0
  9 24  1  0
 10 25  1  0
 10 26  1  0
 11 27  1  0
 11 28  1  0
 12 29  1  0
 12 30  1  0
 13 31  1  0
 14 32  1  0
 14 33  1  0
 15 34  1  0
 15 35  1  0
 16 36  1  0
 16 37  1  0
 17 38  1  0
 17 39  1  0
 18 40  1  0
 18 41  1  0
M  ISO  8  19  14  22  13  23  13  24  13  25  13  26  13  27  13  28  13
M  ISO  8  29  13  30  13  31  13  32  13  33  13  34  13  35  13  36  13
M  ISO  5  37  13  38  13  39  13  40  13  41  13
M  END
>  <minimizedAffinity>  (1) 
-4.13921642

>  <minimizedRMSD>  (1) 
0.531289458

$$$$
