
     RDKit          3D

 35 37  0  0  0  0  0  0  0  0999 V2000
   48.3730   34.1200   40.6930 C   0  0  0  0  0  0  0  0  0  0  0  0
   49.1440   32.9360   40.7260 C   0  0  0  0  0  0  0  0  0  0  0  0
   49.4010   32.2450   39.5550 C   0  0  0  0  0  0  0  0  0  0  0  0
   48.8640   32.7850   38.3970 N   0  0  0  0  0  0  0  0  0  0  0  0
   48.1360   33.9160   38.4070 C   0  0  0  0  0  0  0  0  0  0  0  0
   47.8850   34.5880   39.5420 N   0  0  0  0  0  0  0  0  0  0  0  0
   47.6310   34.4090   37.1730 N   0  0  0  0  0  0  0  0  0  0  0  0
   48.1040   34.8140   41.9490 C   0  0  0  0  0  0  0  0  0  0  0  0
   48.3760   34.1700   43.2020 C   0  0  0  0  0  0  0  0  0  0  0  0
   47.0760   33.5520   43.7450 C   0  0  0  0  0  0  0  0  0  0  0  0
   46.0000   33.8300   42.7040 C   0  0  0  0  0  0  0  0  0  0  0  0
   46.5350   34.9870   41.9760 C   0  0  0  0  0  0  0  0  0  0  0  0
   50.1750   31.0190   39.4480 C   0  0  0  0  0  0  0  0  0  0  0  0
   49.6310   29.7820   39.1850 C   0  0  0  0  0  0  0  0  0  0  0  0
   50.3750   28.6250   39.0860 C   0  0  0  0  0  0  0  0  0  0  0  0
   51.7380   28.7330   39.2610 C   0  0  0  0  0  0  0  0  0  0  0  0
   52.3300   29.9480   39.5250 C   0  0  0  0  0  0  0  0  0  0  0  0
   51.5320   31.0420   39.6080 C   0  0  0  0  0  0  0  0  0  0  0  0
   49.5398   32.5638   41.6825 H   0  0  0  0  0  0  0  0  0  0  0  0
   47.0708   35.2731   37.1542 H   0  0  0  0  0  0  0  0  0  0  0  0
   47.8253   33.9021   36.2977 H   0  0  0  0  0  0  0  0  0  0  0  0
   48.7699   35.6889   41.9167 H   0  0  0  0  0  0  0  0  0  0  0  0
   49.1258   33.3789   43.0541 H   0  0  0  0  0  0  0  0  0  0  0  0
   48.7632   34.9074   43.9205 H   0  0  0  0  0  0  0  0  0  0  0  0
   47.1994   32.4679   43.8843 H   0  0  0  0  0  0  0  0  0  0  0  0
   46.8072   33.9824   44.7210 H   0  0  0  0  0  0  0  0  0  0  0  0
   45.8667   32.9682   42.0335 H   0  0  0  0  0  0  0  0  0  0  0  0
   45.0091   34.0155   43.1441 H   0  0  0  0  0  0  0  0  0  0  0  0
   46.2644   35.9194   42.4930 H   0  0  0  0  0  0  0  0  0  0  0  0
   46.1234   35.0408   40.9573 H   0  0  0  0  0  0  0  0  0  0  0  0
   48.5420   29.7126   39.0461 H   0  0  0  0  0  0  0  0  0  0  0  0
   49.9000   27.6553   38.8759 H   0  0  0  0  0  0  0  0  0  0  0  0
   52.3645   27.8318   39.1884 H   0  0  0  0  0  0  0  0  0  0  0  0
   53.4181   30.0291   39.6645 H   0  0  0  0  0  0  0  0  0  0  0  0
   52.0085   32.0110   39.8178 H   0  0  0  0  0  0  0  0  0  0  0  0
  1  2  2  0
  1  8  1  0
  3  2  1  0
  4  5  1  0
  4  3  2  0
  5  6  2  0
  6  1  1  0
  7  5  1  0
  8 12  1  0
  8  9  1  0
  9 10  1  0
 11 10  1  0
 12 11  1  0
 13  3  1  0
 13 18  1  0
 14 13  2  0
 15 14  1  0
 15 16  2  0
 16 17  1  0
 17 18  2  0
  2 19  1  0
  7 20  1  0
  7 21  1  0
  8 22  1  0
  9 23  1  0
  9 24  1  0
 10 25  1  0
 10 26  1  0
 11 27  1  0
 11 28  1  0
 12 29  1  0
 12 30  1  0
 14 31  1  0
 15 32  1  0
 16 33  1  0
 17 34  1  0
 18 35  1  0
M  ISO  8  19  14  22  13  23  13  24  13  25  13  26  13  27  13  28  13
M  ISO  7  29  13  30  13  31  14  32  14  33  14  34  14  35  14
M  END
>  <minimizedAffinity>  (1) 
-4.07685137

>  <minimizedRMSD>  (1) 
0.340904802

$$$$
