
     RDKit          3D

 34 36  0  0  0  0  0  0  0  0999 V2000
   48.3930   34.1030   40.6880 C   0  0  0  0  0  0  0  0  0  0  0  0
   49.1410   32.9030   40.7340 C   0  0  0  0  0  0  0  0  0  0  0  0
   49.3850   32.2150   39.5590 C   0  0  0  0  0  0  0  0  0  0  0  0
   48.8750   32.7550   38.4070 N   0  0  0  0  0  0  0  0  0  0  0  0
   48.1580   33.9160   38.3990 C   0  0  0  0  0  0  0  0  0  0  0  0
   47.9210   34.5830   39.5400 N   0  0  0  0  0  0  0  0  0  0  0  0
   47.6600   34.4210   37.1750 N   0  0  0  0  0  0  0  0  0  0  0  0
   48.1190   34.8040   41.9490 C   0  0  0  0  0  0  0  0  0  0  0  0
   48.3940   34.1680   43.2020 C   0  0  0  0  0  0  0  0  0  0  0  0
   47.0860   33.5730   43.7540 C   0  0  0  0  0  0  0  0  0  0  0  0
   46.0110   33.8440   42.7060 C   0  0  0  0  0  0  0  0  0  0  0  0
   46.5550   34.9950   41.9710 C   0  0  0  0  0  0  0  0  0  0  0  0
   50.1300   30.9770   39.4360 C   0  0  0  0  0  0  0  0  0  0  0  0
   49.5240   29.7660   39.1970 C   0  0  0  0  0  0  0  0  0  0  0  0
   50.2100   28.5810   39.0750 C   0  0  0  0  0  0  0  0  0  0  0  0
   51.5780   28.5540   39.1900 C   0  0  0  0  0  0  0  0  0  0  0  0
   52.1420   29.7940   39.4300 C   0  0  0  0  0  0  0  0  0  0  0  0
   51.4600   30.9330   39.5450 N   0  0  0  0  0  0  0  0  0  0  0  0
   49.5238   32.5218   41.6922 H   0  0  0  0  0  0  0  0  0  0  0  0
   47.1180   35.2968   37.1616 H   0  0  0  0  0  0  0  0  0  0  0  0
   47.8394   33.9129   36.2972 H   0  0  0  0  0  0  0  0  0  0  0  0
   48.7882   35.6764   41.9159 H   0  0  0  0  0  0  0  0  0  0  0  0
   49.1321   33.3657   43.0552 H   0  0  0  0  0  0  0  0  0  0  0  0
   48.7996   34.9028   43.9130 H   0  0  0  0  0  0  0  0  0  0  0  0
   47.1981   32.4902   43.9123 H   0  0  0  0  0  0  0  0  0  0  0  0
   46.8210   34.0239   44.7217 H   0  0  0  0  0  0  0  0  0  0  0  0
   45.8775   32.9772   42.0421 H   0  0  0  0  0  0  0  0  0  0  0  0
   45.0182   34.0342   43.1398 H   0  0  0  0  0  0  0  0  0  0  0  0
   46.2926   35.9327   42.4828 H   0  0  0  0  0  0  0  0  0  0  0  0
   46.1438   35.0504   40.9522 H   0  0  0  0  0  0  0  0  0  0  0  0
   48.4287   29.7443   39.0979 H   0  0  0  0  0  0  0  0  0  0  0  0
   49.6593   27.6481   38.8840 H   0  0  0  0  0  0  0  0  0  0  0  0
   52.1705   27.6317   39.0996 H   0  0  0  0  0  0  0  0  0  0  0  0
   53.2360   29.8436   39.5337 H   0  0  0  0  0  0  0  0  0  0  0  0
  1  2  2  0
  1  8  1  0
  3  2  1  0
  4  3  2  0
  5  4  1  0
  5  6  2  0
  6  1  1  0
  7  5  1  0
  8 12  1  0
  8  9  1  0
  9 10  1  0
 11 10  1  0
 12 11  1  0
 13 18  1  0
 13  3  1  0
 14 13  2  0
 15 16  2  0
 15 14  1  0
 16 17  1  0
 17 18  2  0
  2 19  1  0
  7 20  1  0
  7 21  1  0
  8 22  1  0
  9 23  1  0
  9 24  1  0
 10 25  1  0
 10 26  1  0
 11 27  1  0
 11 28  1  0
 12 29  1  0
 12 30  1  0
 14 31  1  0
 15 32  1  0
 16 33  1  0
 17 34  1  0
M  ISO  8  19  14  22  13  23  13  24  13  25  13  26  13  27  13  28  13
M  ISO  6  29  13  30  13  31  14  32  14  33  14  34  14
M  END
>  <minimizedAffinity>  (1) 
-4.06487179

>  <minimizedRMSD>  (1) 
0.31084916

$$$$
