
     RDKit          3D

 37 38  0  0  0  0  0  0  0  0999 V2000
   48.1380   34.7970   41.9340 C   0  0  0  0  0  0  0  0  0  0  0  0
   48.4030   34.1540   43.1850 C   0  0  0  0  0  0  0  0  0  0  0  0
   47.0970   33.5420   43.7230 C   0  0  0  0  0  0  0  0  0  0  0  0
   46.0260   33.8490   42.6940 C   0  0  0  0  0  0  0  0  0  0  0  0
   46.5720   34.9910   41.9630 C   0  0  0  0  0  0  0  0  0  0  0  0
   48.3900   34.1070   40.6750 C   0  0  0  0  0  0  0  0  0  0  0  0
   49.1420   32.9150   40.7090 C   0  0  0  0  0  0  0  0  0  0  0  0
   49.4010   32.1980   39.5310 C   0  0  0  0  0  0  0  0  0  0  0  0
   48.8760   32.7420   38.3880 N   0  0  0  0  0  0  0  0  0  0  0  0
   48.1520   33.8990   38.3880 C   0  0  0  0  0  0  0  0  0  0  0  0
   47.9140   34.5730   39.5230 N   0  0  0  0  0  0  0  0  0  0  0  0
   47.6320   34.4140   37.1600 N   0  0  0  0  0  0  0  0  0  0  0  0
   50.1840   30.9440   39.5130 C   0  0  0  0  0  0  0  0  0  0  0  0
   49.9110   30.0350   40.6710 C   0  0  0  0  0  0  0  0  0  0  0  0
   51.6860   31.2420   39.4990 C   0  0  0  0  0  0  0  0  0  0  0  0
   49.9460   30.1450   38.2390 C   0  0  0  0  0  0  0  0  0  0  0  0
   48.8213   35.6585   41.9031 H   0  0  0  0  0  0  0  0  0  0  0  0
   49.1498   33.3595   43.0399 H   0  0  0  0  0  0  0  0  0  0  0  0
   48.7919   34.8893   43.9047 H   0  0  0  0  0  0  0  0  0  0  0  0
   47.2079   32.4543   43.8441 H   0  0  0  0  0  0  0  0  0  0  0  0
   46.8364   33.9588   44.7071 H   0  0  0  0  0  0  0  0  0  0  0  0
   45.8683   32.9917   42.0230 H   0  0  0  0  0  0  0  0  0  0  0  0
   45.0454   34.0590   43.1460 H   0  0  0  0  0  0  0  0  0  0  0  0
   46.3147   35.9292   42.4765 H   0  0  0  0  0  0  0  0  0  0  0  0
   46.1590   35.0461   40.9450 H   0  0  0  0  0  0  0  0  0  0  0  0
   49.5297   32.5432   41.6689 H   0  0  0  0  0  0  0  0  0  0  0  0
   47.0854   35.2870   37.1581 H   0  0  0  0  0  0  0  0  0  0  0  0
   47.8039   33.9121   36.2772 H   0  0  0  0  0  0  0  0  0  0  0  0
   50.0749   30.5806   41.6120 H   0  0  0  0  0  0  0  0  0  0  0  0
   48.8686   29.6866   40.6259 H   0  0  0  0  0  0  0  0  0  0  0  0
   50.5890   29.1699   40.6259 H   0  0  0  0  0  0  0  0  0  0  0  0
   52.0549   31.3152   40.5327 H   0  0  0  0  0  0  0  0  0  0  0  0
   52.2158   30.4315   38.9771 H   0  0  0  0  0  0  0  0  0  0  0  0
   51.8662   32.1934   38.9771 H   0  0  0  0  0  0  0  0  0  0  0  0
   49.6409   29.1209   38.5001 H   0  0  0  0  0  0  0  0  0  0  0  0
   49.1518   30.6248   37.6482 H   0  0  0  0  0  0  0  0  0  0  0  0
   50.8733   30.1120   37.6482 H   0  0  0  0  0  0  0  0  0  0  0  0
  1  5  1  0
  1  2  1  0
  2  3  1  0
  4  3  1  0
  5  4  1  0
  6  7  2  0
  6  1  1  0
  8  7  1  0
  9  8  2  0
 10  9  1  0
 10 11  2  0
 11  6  1  0
 12 10  1  0
 13  8  1  0
 13 14  1  0
 15 13  1  0
 16 13  1  0
  1 17  1  0
  2 18  1  0
  2 19  1  0
  3 20  1  0
  3 21  1  0
  4 22  1  0
  4 23  1  0
  5 24  1  0
  5 25  1  0
  7 26  1  0
 12 27  1  0
 12 28  1  0
 14 29  1  0
 14 30  1  0
 14 31  1  0
 15 32  1  0
 15 33  1  0
 15 34  1  0
 16 35  1  0
 16 36  1  0
 16 37  1  0
M  ISO  8  17  13  18  13  19  13  20  13  21  13  22  13  23  13  24  13
M  ISO  8  25  13  26  14  29   8  30   8  31   8  32   8  33   8  34   8
M  ISO  3  35   8  36   8  37   8
M  END
>  <minimizedAffinity>  (1) 
-4.0298233

>  <minimizedRMSD>  (1) 
0.235413641

$$$$
