
     RDKit          3D

 31 33  0  0  1  0  0  0  0  0999 V2000
   44.5790   36.1090   44.7170 C   0  0  0  0  0  0  0  0  0  0  0  0
   44.8790   35.9690   43.3460 C   0  0  0  0  0  0  0  0  0  0  0  0
   45.4080   34.7600   42.9250 C   0  0  0  0  0  0  0  0  0  0  0  0
   45.6190   33.7750   43.8110 N   0  0  0  0  0  0  0  0  0  0  0  0
   45.3230   33.9320   45.1290 C   0  0  0  0  0  0  0  0  0  0  0  0
   44.8060   35.0930   45.5800 N   0  0  0  0  0  0  0  0  0  0  0  0
   45.5670   32.8620   46.0570 N   0  0  0  0  0  0  0  0  0  0  0  0
   45.2760   33.0510   47.4800 C   0  0  0  0  0  0  0  0  0  0  0  0
   46.2170   32.3040   48.3700 C   0  0  0  0  0  0  0  0  0  0  0  0
   47.4750   31.9660   47.6010 C   0  0  0  0  0  0  0  0  0  0  0  0
   47.0390   30.9630   46.5550 C   0  0  0  0  0  0  0  0  0  0  0  0
   46.0940   31.6160   45.5920 C   0  0  2  0  0  0  0  0  0  0  0  0
   46.8670   31.7570   44.3460 N   0  0  0  0  0  0  0  0  0  0  0  0
   48.0120   32.4450   44.0550 C   0  0  0  0  0  0  0  0  0  0  0  0
   48.2890   32.2410   42.7640 N   0  0  0  0  0  0  0  0  0  0  0  0
   47.3420   31.4320   42.2120 C   0  0  0  0  0  0  0  0  0  0  0  0
   46.4670   31.1440   43.2190 N   0  0  0  0  0  0  0  0  0  0  0  0
   44.1561   37.0542   45.0880 H   0  0  0  0  0  0  0  0  0  0  0  0
   44.6994   36.7903   42.6366 H   0  0  0  0  0  0  0  0  0  0  0  0
   45.6551   34.6075   41.8640 H   0  0  0  0  0  0  0  0  0  0  0  0
   45.3484   34.1234   47.7137 H   0  0  0  0  0  0  0  0  0  0  0  0
   44.2649   32.6593   47.6653 H   0  0  0  0  0  0  0  0  0  0  0  0
   46.4743   32.9283   49.2383 H   0  0  0  0  0  0  0  0  0  0  0  0
   45.7374   31.3763   48.7155 H   0  0  0  0  0  0  0  0  0  0  0  0
   47.8898   32.8662   47.1239 H   0  0  0  0  0  0  0  0  0  0  0  0
   48.2628   31.5639   48.2550 H   0  0  0  0  0  0  0  0  0  0  0  0
   47.9212   30.5963   46.0098 H   0  0  0  0  0  0  0  0  0  0  0  0
   46.5324   30.1199   47.0475 H   0  0  0  0  0  0  0  0  0  0  0  0
   45.1896   31.0056   45.4522 H   0  0  0  0  0  0  0  0  0  0  0  0
   48.5989   33.0559   44.7567 H   0  0  0  0  0  0  0  0  0  0  0  0
   47.2928   31.0830   41.1700 H   0  0  0  0  0  0  0  0  0  0  0  0
  1  6  2  0
  2  1  1  0
  3  2  2  0
  3  4  1  0
  4  5  2  0
  5  6  1  0
  5  7  1  0
  7  8  1  0
  8  9  1  0
 10  9  1  0
 11 10  1  0
 12  7  1  0
 12 11  1  0
 13 12  1  0
 14 13  1  0
 15 14  2  0
 16 15  1  0
 16 17  2  0
 17 13  1  0
  1 18  1  0
  2 19  1  0
  3 20  1  0
  8 21  1  0
  8 22  1  0
  9 23  1  0
  9 24  1  0
 10 25  1  0
 10 26  1  0
 11 27  1  0
 11 28  1  0
 12 29  1  6
 14 30  1  0
 16 31  1  0
M  ISO  8  18  14  19  14  20  14  21  13  22  13  23  13  24  13  25  13
M  ISO  6  26  13  27  13  28  13  29  13  30  14  31  14
M  END
>  <minimizedAffinity>  (1) 
-4.35852718

>  <minimizedRMSD>  (1) 
1.01204121

$$$$
