
     RDKit          3D

 38 40  0  0  0  0  0  0  0  0999 V2000
   48.3570   34.1250   40.6830 C   0  0  0  0  0  0  0  0  0  0  0  0
   49.1650   32.9670   40.7040 C   0  0  0  0  0  0  0  0  0  0  0  0
   49.4320   32.2780   39.5280 C   0  0  0  0  0  0  0  0  0  0  0  0
   48.8680   32.7950   38.3940 N   0  0  0  0  0  0  0  0  0  0  0  0
   48.1010   33.9010   38.3960 C   0  0  0  0  0  0  0  0  0  0  0  0
   47.8360   34.5780   39.5330 N   0  0  0  0  0  0  0  0  0  0  0  0
   47.5560   34.3750   37.1680 N   0  0  0  0  0  0  0  0  0  0  0  0
   48.0720   34.8200   41.9400 C   0  0  0  0  0  0  0  0  0  0  0  0
   48.3590   34.1750   43.1880 C   0  0  0  0  0  0  0  0  0  0  0  0
   47.0680   33.5320   43.7310 C   0  0  0  0  0  0  0  0  0  0  0  0
   45.9870   33.7970   42.6910 C   0  0  0  0  0  0  0  0  0  0  0  0
   46.4990   34.9600   41.9600 C   0  0  0  0  0  0  0  0  0  0  0  0
   51.9140   28.8040   39.2740 C   0  0  0  0  0  0  0  0  0  0  0  0
   50.5690   28.7090   38.9840 C   0  0  0  0  0  0  0  0  0  0  0  0
   49.7790   29.8370   39.0700 C   0  0  0  0  0  0  0  0  0  0  0  0
   50.2470   31.0790   39.4320 C   0  0  0  0  0  0  0  0  0  0  0  0
   51.5930   31.1470   39.7160 C   0  0  0  0  0  0  0  0  0  0  0  0
   52.4120   30.0380   39.6400 C   0  0  0  0  0  0  0  0  0  0  0  0
   52.8810   27.3560   39.1550 S   0  0  0  0  0  0  0  0  0  0  0  0
   53.6440   27.0890   40.4220 O   0  0  0  0  0  0  0  0  0  0  0  0
   53.8420   27.4620   38.0240 O   0  0  0  0  0  0  0  0  0  0  0  0
   49.5847   32.6092   41.6558 H   0  0  0  0  0  0  0  0  0  0  0  0
   46.9677   35.2204   37.1579 H   0  0  0  0  0  0  0  0  0  0  0  0
   47.7503   33.8723   36.2903 H   0  0  0  0  0  0  0  0  0  0  0  0
   48.7141   35.7127   41.9137 H   0  0  0  0  0  0  0  0  0  0  0  0
   49.1215   33.3972   43.0340 H   0  0  0  0  0  0  0  0  0  0  0  0
   48.7369   34.9144   43.9094 H   0  0  0  0  0  0  0  0  0  0  0  0
   47.2094   32.4495   43.8658 H   0  0  0  0  0  0  0  0  0  0  0  0
   46.7929   33.9532   44.7092 H   0  0  0  0  0  0  0  0  0  0  0  0
   45.8647   32.9332   42.0210 H   0  0  0  0  0  0  0  0  0  0  0  0
   44.9959   33.9705   43.1354 H   0  0  0  0  0  0  0  0  0  0  0  0
   46.2066   35.8891   42.4712 H   0  0  0  0  0  0  0  0  0  0  0  0
   46.0901   35.0001   40.9396 H   0  0  0  0  0  0  0  0  0  0  0  0
   50.1309   27.7446   38.6874 H   0  0  0  0  0  0  0  0  0  0  0  0
   48.7091   29.7370   38.8346 H   0  0  0  0  0  0  0  0  0  0  0  0
   52.0282   32.1129   40.0120 H   0  0  0  0  0  0  0  0  0  0  0  0
   53.4816   30.1400   39.8756 H   0  0  0  0  0  0  0  0  0  0  0  0
   52.0178   26.3146   38.9374 H   0  0  0  0  0  0  0  0  0  0  0  0
  1  2  2  0
  1  8  1  0
  3  2  1  0
  4  5  1  0
  4  3  2  0
  5  6  2  0
  6  1  1  0
  7  5  1  0
  8 12  1  0
  8  9  1  0
  9 10  1  0
 11 10  1  0
 12 11  1  0
 13 18  2  0
 14 15  2  0
 14 13  1  0
 15 16  1  0
 16  3  1  0
 16 17  2  0
 18 17  1  0
 19 13  1  0
 19 20  2  0
 21 19  2  0
  2 22  1  0
  7 23  1  0
  7 24  1  0
  8 25  1  0
  9 26  1  0
  9 27  1  0
 10 28  1  0
 10 29  1  0
 11 30  1  0
 11 31  1  0
 12 32  1  0
 12 33  1  0
 14 34  1  0
 15 35  1  0
 17 36  1  0
 18 37  1  0
 19 38  1  0
M  ISO  8  22  14  25  13  26  13  27  13  28  13  29  13  30  13  31  13
M  ISO  7  32  13  33  13  34  14  35  14  36  14  37  14  38  11
M  END
>  <minimizedAffinity>  (1) 
-3.96751976

>  <minimizedRMSD>  (1) 
0.931406379

$$$$
