
     RDKit          3D

 26 27  0  0  0  0  0  0  0  0999 V2000
   48.3280   34.7780   41.7510 C   0  0  0  0  0  0  0  0  0  0  0  0
   48.6800   34.1210   42.9850 C   0  0  0  0  0  0  0  0  0  0  0  0
   47.4020   33.5640   43.6350 C   0  0  0  0  0  0  0  0  0  0  0  0
   46.2590   33.8830   42.6830 C   0  0  0  0  0  0  0  0  0  0  0  0
   46.7770   35.0100   41.9020 C   0  0  0  0  0  0  0  0  0  0  0  0
   48.4740   34.0690   40.4760 C   0  0  0  0  0  0  0  0  0  0  0  0
   49.0780   32.7920   40.4860 C   0  0  0  0  0  0  0  0  0  0  0  0
   49.2050   32.0900   39.3010 C   0  0  0  0  0  0  0  0  0  0  0  0
   48.7280   32.6920   38.1720 N   0  0  0  0  0  0  0  0  0  0  0  0
   48.1490   33.9280   38.1940 C   0  0  0  0  0  0  0  0  0  0  0  0
   48.0300   34.6040   39.3470 N   0  0  0  0  0  0  0  0  0  0  0  0
   47.6560   34.5360   37.0020 N   0  0  0  0  0  0  0  0  0  0  0  0
   49.9540   30.4680   39.2070 S   0  0  0  0  0  0  0  0  0  0  0  0
   49.0176   35.6305   41.6625 H   0  0  0  0  0  0  0  0  0  0  0  0
   49.3785   33.2968   42.7783 H   0  0  0  0  0  0  0  0  0  0  0  0
   49.1617   34.8388   43.6652 H   0  0  0  0  0  0  0  0  0  0  0  0
   47.4890   32.4762   43.7733 H   0  0  0  0  0  0  0  0  0  0  0  0
   47.2317   34.0117   44.6252 H   0  0  0  0  0  0  0  0  0  0  0  0
   46.0348   33.0236   42.0341 H   0  0  0  0  0  0  0  0  0  0  0  0
   45.3175   34.1151   43.2024 H   0  0  0  0  0  0  0  0  0  0  0  0
   46.5843   35.9567   42.4280 H   0  0  0  0  0  0  0  0  0  0  0  0
   46.2873   35.0697   40.9188 H   0  0  0  0  0  0  0  0  0  0  0  0
   49.4444   32.3594   41.4287 H   0  0  0  0  0  0  0  0  0  0  0  0
   47.2226   35.4696   37.0413 H   0  0  0  0  0  0  0  0  0  0  0  0
   47.7333   34.0416   36.1017 H   0  0  0  0  0  0  0  0  0  0  0  0
   50.1736   29.9924   40.4729 H   0  0  0  0  0  0  0  0  0  0  0  0
  1  5  1  0
  1  2  1  0
  2  3  1  0
  4  3  1  0
  5  4  1  0
  6  7  2  0
  6  1  1  0
  8  7  1  0
  9 10  1  0
  9  8  2  0
 10 11  2  0
 11  6  1  0
 12 10  1  0
 13  8  1  0
  1 14  1  0
  2 15  1  0
  2 16  1  0
  3 17  1  0
  3 18  1  0
  4 19  1  0
  4 20  1  0
  5 21  1  0
  5 22  1  0
  7 23  1  0
 12 24  1  0
 12 25  1  0
 13 26  1  0
M  ISO  8  14  13  15  13  16  13  17  13  18  13  19  13  20  13  21  13
M  ISO  3  22  13  23  14  26  11
M  END
>  <minimizedAffinity>  (1) 
-3.93329215

>  <minimizedRMSD>  (1) 
0.160828397

$$$$
