
     RDKit          3D

 26 27  0  0  0  0  0  0  0  0999 V2000
   48.2320   34.7770   41.9070 C   0  0  0  0  0  0  0  0  0  0  0  0
   48.5280   34.1220   43.1530 C   0  0  0  0  0  0  0  0  0  0  0  0
   47.2120   33.5830   43.7400 C   0  0  0  0  0  0  0  0  0  0  0  0
   46.1190   33.8690   42.7140 C   0  0  0  0  0  0  0  0  0  0  0  0
   46.6720   35.0100   41.9740 C   0  0  0  0  0  0  0  0  0  0  0  0
   48.4400   34.0820   40.6380 C   0  0  0  0  0  0  0  0  0  0  0  0
   49.1130   32.8380   40.6590 C   0  0  0  0  0  0  0  0  0  0  0  0
   49.3050   32.1410   39.4790 C   0  0  0  0  0  0  0  0  0  0  0  0
   48.8150   32.7210   38.3300 N   0  0  0  0  0  0  0  0  0  0  0  0
   48.1710   33.9250   38.3500 C   0  0  0  0  0  0  0  0  0  0  0  0
   47.9890   34.5940   39.5010 N   0  0  0  0  0  0  0  0  0  0  0  0
   47.6880   34.4710   37.1270 N   0  0  0  0  0  0  0  0  0  0  0  0
   49.9400   30.9300   39.3670 O   0  0  0  0  0  0  0  0  0  0  0  0
   48.9275   35.6281   41.8630 H   0  0  0  0  0  0  0  0  0  0  0  0
   49.2261   33.2899   42.9791 H   0  0  0  0  0  0  0  0  0  0  0  0
   48.9927   34.8318   43.8532 H   0  0  0  0  0  0  0  0  0  0  0  0
   47.2917   32.5001   43.9159 H   0  0  0  0  0  0  0  0  0  0  0  0
   46.9840   34.0640   44.7026 H   0  0  0  0  0  0  0  0  0  0  0  0
   45.9588   33.0053   42.0520 H   0  0  0  0  0  0  0  0  0  0  0  0
   45.1360   34.0718   43.1640 H   0  0  0  0  0  0  0  0  0  0  0  0
   46.4491   35.9499   42.5001 H   0  0  0  0  0  0  0  0  0  0  0  0
   46.2343   35.0853   40.9676 H   0  0  0  0  0  0  0  0  0  0  0  0
   49.4824   32.4262   41.6098 H   0  0  0  0  0  0  0  0  0  0  0  0
   47.2002   35.3781   37.1251 H   0  0  0  0  0  0  0  0  0  0  0  0
   47.8264   33.9589   36.2441 H   0  0  0  0  0  0  0  0  0  0  0  0
   50.0336   30.5003   38.4800 H   0  0  0  0  0  0  0  0  0  0  0  0
  1  5  1  0
  1  2  1  0
  2  3  1  0
  4  3  1  0
  5  4  1  0
  6  7  2  0
  6  1  1  0
  8  7  1  0
  9 10  1  0
  9  8  2  0
 10 11  2  0
 11  6  1  0
 12 10  1  0
 13  8  1  0
  1 14  1  0
  2 15  1  0
  2 16  1  0
  3 17  1  0
  3 18  1  0
  4 19  1  0
  4 20  1  0
  5 21  1  0
  5 22  1  0
  7 23  1  0
 12 24  1  0
 12 25  1  0
 13 26  1  0
M  ISO  8  14  13  15  13  16  13  17  13  18  13  19  13  20  13  21  13
M  ISO  3  22  13  23  14  26   3
M  END
>  <minimizedAffinity>  (1) 
-3.9315536

>  <minimizedRMSD>  (1) 
0.0487037972

$$$$
