
     RDKit          3D

 28 29  0  0  0  0  0  0  0  0999 V2000
   48.2520   34.7860   41.8880 C   0  0  0  0  0  0  0  0  0  0  0  0
   48.5590   34.1340   43.1310 C   0  0  0  0  0  0  0  0  0  0  0  0
   47.2580   33.5610   43.7230 C   0  0  0  0  0  0  0  0  0  0  0  0
   46.1560   33.8580   42.7130 C   0  0  0  0  0  0  0  0  0  0  0  0
   46.6920   35.0020   41.9660 C   0  0  0  0  0  0  0  0  0  0  0  0
   48.4670   34.0910   40.6150 C   0  0  0  0  0  0  0  0  0  0  0  0
   49.1300   32.8420   40.6390 C   0  0  0  0  0  0  0  0  0  0  0  0
   49.3230   32.1510   39.4560 C   0  0  0  0  0  0  0  0  0  0  0  0
   48.8470   32.7410   38.3140 N   0  0  0  0  0  0  0  0  0  0  0  0
   48.2110   33.9480   38.3240 C   0  0  0  0  0  0  0  0  0  0  0  0
   48.0230   34.6220   39.4840 N   0  0  0  0  0  0  0  0  0  0  0  0
   47.7320   34.5240   37.1080 N   0  0  0  0  0  0  0  0  0  0  0  0
   49.9970   30.8570   39.3830 C   0  0  0  0  0  0  0  0  0  0  0  0
   49.4170   29.8560   38.9430 O   0  0  0  0  0  0  0  0  0  0  0  0
   51.3110   30.8060   39.8290 O   0  0  0  0  0  0  0  0  0  0  0  0
   48.9360   35.6460   41.8376 H   0  0  0  0  0  0  0  0  0  0  0  0
   49.2757   33.3185   42.9540 H   0  0  0  0  0  0  0  0  0  0  0  0
   49.0039   34.8552   43.8324 H   0  0  0  0  0  0  0  0  0  0  0  0
   47.3542   32.4754   43.8724 H   0  0  0  0  0  0  0  0  0  0  0  0
   47.0335   34.0116   44.7010 H   0  0  0  0  0  0  0  0  0  0  0  0
   45.9855   32.9974   42.0494 H   0  0  0  0  0  0  0  0  0  0  0  0
   45.1825   34.0643   43.1819 H   0  0  0  0  0  0  0  0  0  0  0  0
   46.4630   35.9411   42.4911 H   0  0  0  0  0  0  0  0  0  0  0  0
   46.2464   35.0692   40.9625 H   0  0  0  0  0  0  0  0  0  0  0  0
   49.4894   32.4233   41.5906 H   0  0  0  0  0  0  0  0  0  0  0  0
   47.2528   35.4356   37.1237 H   0  0  0  0  0  0  0  0  0  0  0  0
   47.8657   34.0278   36.2154 H   0  0  0  0  0  0  0  0  0  0  0  0
   51.8108   29.9519   39.8000 H   0  0  0  0  0  0  0  0  0  0  0  0
  1  5  1  0
  1  2  1  0
  2  3  1  0
  4  3  1  0
  5  4  1  0
  6  7  2  0
  6  1  1  0
  8  7  1  0
  9 10  1  0
  9  8  2  0
 10 11  2  0
 11  6  1  0
 12 10  1  0
 13  8  1  0
 13 15  1  0
 14 13  2  0
  1 16  1  0
  2 17  1  0
  2 18  1  0
  3 19  1  0
  3 20  1  0
  4 21  1  0
  4 22  1  0
  5 23  1  0
  5 24  1  0
  7 25  1  0
 12 26  1  0
 12 27  1  0
 15 28  1  0
M  ISO  8  16  13  17  13  18  13  19  13  20  13  21  13  22  13  23  13
M  ISO  3  24  13  25  14  28   3
M  END
>  <minimizedAffinity>  (1) 
-3.90765762

>  <minimizedRMSD>  (1) 
0.0730841905

$$$$
