
     RDKit          3D

 27 28  0  0  0  0  0  0  0  0999 V2000
   48.2360   34.7890   41.9000 C   0  0  0  0  0  0  0  0  0  0  0  0
   48.5350   34.1330   43.1500 C   0  0  0  0  0  0  0  0  0  0  0  0
   47.2310   33.5520   43.7220 C   0  0  0  0  0  0  0  0  0  0  0  0
   46.1290   33.8750   42.7220 C   0  0  0  0  0  0  0  0  0  0  0  0
   46.6750   35.0100   41.9700 C   0  0  0  0  0  0  0  0  0  0  0  0
   48.4430   34.0840   40.6400 C   0  0  0  0  0  0  0  0  0  0  0  0
   49.1180   32.8460   40.6640 C   0  0  0  0  0  0  0  0  0  0  0  0
   49.3250   32.1270   39.4800 C   0  0  0  0  0  0  0  0  0  0  0  0
   48.8340   32.7010   38.3330 N   0  0  0  0  0  0  0  0  0  0  0  0
   48.1930   33.8860   38.3440 C   0  0  0  0  0  0  0  0  0  0  0  0
   47.9920   34.5860   39.4930 N   0  0  0  0  0  0  0  0  0  0  0  0
   47.6760   34.4660   37.1450 N   0  0  0  0  0  0  0  0  0  0  0  0
   49.9970   30.8800   39.4510 N   0  0  0  0  0  0  0  0  0  0  0  0
   48.9236   35.6462   41.8498 H   0  0  0  0  0  0  0  0  0  0  0  0
   49.2587   33.3223   42.9795 H   0  0  0  0  0  0  0  0  0  0  0  0
   48.9686   34.8537   43.8589 H   0  0  0  0  0  0  0  0  0  0  0  0
   47.3236   32.4628   43.8447 H   0  0  0  0  0  0  0  0  0  0  0  0
   47.0067   33.9828   44.7090 H   0  0  0  0  0  0  0  0  0  0  0  0
   45.9363   33.0192   42.0584 H   0  0  0  0  0  0  0  0  0  0  0  0
   45.1657   34.1014   43.2024 H   0  0  0  0  0  0  0  0  0  0  0  0
   46.4473   35.9538   42.4871 H   0  0  0  0  0  0  0  0  0  0  0  0
   46.2353   35.0698   40.9635 H   0  0  0  0  0  0  0  0  0  0  0  0
   49.4845   32.4422   41.6193 H   0  0  0  0  0  0  0  0  0  0  0  0
   47.1897   35.3733   37.1799 H   0  0  0  0  0  0  0  0  0  0  0  0
   47.7896   33.9768   36.2457 H   0  0  0  0  0  0  0  0  0  0  0  0
   50.1269   30.3857   38.5568 H   0  0  0  0  0  0  0  0  0  0  0  0
   50.3556   30.4678   40.3242 H   0  0  0  0  0  0  0  0  0  0  0  0
  1  5  1  0
  1  2  1  0
  2  3  1  0
  4  3  1  0
  5  4  1  0
  6  7  2  0
  6  1  1  0
  8  7  1  0
  9 10  1  0
  9  8  2  0
 10 11  2  0
 11  6  1  0
 12 10  1  0
 13  8  1  0
  1 14  1  0
  2 15  1  0
  2 16  1  0
  3 17  1  0
  3 18  1  0
  4 19  1  0
  4 20  1  0
  5 21  1  0
  5 22  1  0
  7 23  1  0
 12 24  1  0
 12 25  1  0
 13 26  1  0
 13 27  1  0
M  ISO  8  14  13  15  13  16  13  17  13  18  13  19  13  20  13  21  13
M  ISO  2  22  13  23  14
M  END
>  <minimizedAffinity>  (1) 
-3.91830206

>  <minimizedRMSD>  (1) 
0.0528977253

$$$$
