
     RDKit          3D

 31 32  0  0  0  0  0  0  0  0999 V2000
   48.1470   34.7910   41.9360 C   0  0  0  0  0  0  0  0  0  0  0  0
   48.4210   34.1400   43.1870 C   0  0  0  0  0  0  0  0  0  0  0  0
   47.1050   33.5730   43.7430 C   0  0  0  0  0  0  0  0  0  0  0  0
   46.0310   33.8450   42.6960 C   0  0  0  0  0  0  0  0  0  0  0  0
   46.5800   34.9910   41.9620 C   0  0  0  0  0  0  0  0  0  0  0  0
   48.4010   34.0980   40.6780 C   0  0  0  0  0  0  0  0  0  0  0  0
   49.1450   32.8950   40.7030 C   0  0  0  0  0  0  0  0  0  0  0  0
   49.3790   32.2050   39.5280 C   0  0  0  0  0  0  0  0  0  0  0  0
   48.8560   32.7540   38.3710 N   0  0  0  0  0  0  0  0  0  0  0  0
   48.1450   33.9170   38.3900 C   0  0  0  0  0  0  0  0  0  0  0  0
   47.9190   34.5840   39.5330 N   0  0  0  0  0  0  0  0  0  0  0  0
   47.6450   34.4210   37.1620 N   0  0  0  0  0  0  0  0  0  0  0  0
   50.1490   30.9370   39.4680 C   0  0  0  0  0  0  0  0  0  0  0  0
   51.6380   31.1660   39.5790 C   0  0  0  0  0  0  0  0  0  0  0  0
   48.8244   35.6572   41.9093 H   0  0  0  0  0  0  0  0  0  0  0  0
   49.1397   33.3223   43.0297 H   0  0  0  0  0  0  0  0  0  0  0  0
   48.8508   34.8598   43.8991 H   0  0  0  0  0  0  0  0  0  0  0  0
   47.2014   32.4907   43.9143 H   0  0  0  0  0  0  0  0  0  0  0  0
   46.8475   34.0428   44.7037 H   0  0  0  0  0  0  0  0  0  0  0  0
   45.8944   32.9778   42.0332 H   0  0  0  0  0  0  0  0  0  0  0  0
   45.0383   34.0383   43.1286 H   0  0  0  0  0  0  0  0  0  0  0  0
   46.3243   35.9299   42.4750 H   0  0  0  0  0  0  0  0  0  0  0  0
   46.1672   35.0489   40.9440 H   0  0  0  0  0  0  0  0  0  0  0  0
   49.5367   32.5092   41.6558 H   0  0  0  0  0  0  0  0  0  0  0  0
   47.1045   35.2977   37.1470 H   0  0  0  0  0  0  0  0  0  0  0  0
   47.8224   33.9103   36.2853 H   0  0  0  0  0  0  0  0  0  0  0  0
   49.8279   30.2884   40.2964 H   0  0  0  0  0  0  0  0  0  0  0  0
   49.9518   30.4688   38.4923 H   0  0  0  0  0  0  0  0  0  0  0  0
   51.9241   31.2100   40.6402 H   0  0  0  0  0  0  0  0  0  0  0  0
   52.1736   30.3397   39.0888 H   0  0  0  0  0  0  0  0  0  0  0  0
   51.9006   32.1151   39.0888 H   0  0  0  0  0  0  0  0  0  0  0  0
  1  5  1  0
  1  2  1  0
  2  3  1  0
  4  3  1  0
  5  4  1  0
  6  7  2  0
  6  1  1  0
  8  7  1  0
  9 10  1  0
  9  8  2  0
 10 11  2  0
 11  6  1  0
 12 10  1  0
 13  8  1  0
 13 14  1  0
  1 15  1  0
  2 16  1  0
  2 17  1  0
  3 18  1  0
  3 19  1  0
  4 20  1  0
  4 21  1  0
  5 22  1  0
  5 23  1  0
  7 24  1  0
 12 25  1  0
 12 26  1  0
 13 27  1  0
 13 28  1  0
 14 29  1  0
 14 30  1  0
 14 31  1  0
M  ISO  8  15  13  16  13  17  13  18  13  19  13  20  13  21  13  22  13
M  ISO  7  23  13  24  14  27   8  28   8  29   8  30   8  31   8
M  END
>  <minimizedAffinity>  (1) 
-3.87005877

>  <minimizedRMSD>  (1) 
0.848396301

$$$$
