
     RDKit          3D

 36 38  0  0  0  0  0  0  0  0999 V2000
   48.3820   34.1170   40.6950 C   0  0  0  0  0  0  0  0  0  0  0  0
   49.1570   32.9360   40.7300 C   0  0  0  0  0  0  0  0  0  0  0  0
   49.4210   32.2340   39.5610 C   0  0  0  0  0  0  0  0  0  0  0  0
   48.8890   32.7630   38.4180 N   0  0  0  0  0  0  0  0  0  0  0  0
   48.1440   33.9030   38.4060 C   0  0  0  0  0  0  0  0  0  0  0  0
   47.8950   34.5740   39.5420 N   0  0  0  0  0  0  0  0  0  0  0  0
   47.6190   34.3990   37.1740 N   0  0  0  0  0  0  0  0  0  0  0  0
   50.1950   31.0390   39.5320 N   0  0  0  0  0  0  0  0  0  0  0  0
   49.7540   29.9520   38.8420 C   0  0  0  0  0  0  0  0  0  0  0  0
   50.5360   28.8110   38.8400 C   0  0  0  0  0  0  0  0  0  0  0  0
   51.7310   28.7940   39.5270 C   0  0  0  0  0  0  0  0  0  0  0  0
   52.4930   27.5920   39.4900 N   0  0  0  0  0  0  0  0  0  0  0  0
   52.1250   29.8820   40.1910 N   0  0  0  0  0  0  0  0  0  0  0  0
   51.3680   30.9980   40.1970 C   0  0  0  0  0  0  0  0  0  0  0  0
   51.8240   31.9770   40.8540 O   0  0  0  0  0  0  0  0  0  0  0  0
   48.1060   34.8110   41.9540 C   0  0  0  0  0  0  0  0  0  0  0  0
   48.3820   34.1660   43.2050 C   0  0  0  0  0  0  0  0  0  0  0  0
   47.0750   33.5570   43.7450 C   0  0  0  0  0  0  0  0  0  0  0  0
   46.0020   33.8200   42.6910 C   0  0  0  0  0  0  0  0  0  0  0  0
   46.5390   34.9810   41.9700 C   0  0  0  0  0  0  0  0  0  0  0  0
   49.5536   32.5705   41.6887 H   0  0  0  0  0  0  0  0  0  0  0  0
   47.0555   35.2611   37.1642 H   0  0  0  0  0  0  0  0  0  0  0  0
   47.8039   33.8946   36.2952 H   0  0  0  0  0  0  0  0  0  0  0  0
   48.7980   29.9801   38.2986 H   0  0  0  0  0  0  0  0  0  0  0  0
   50.2045   27.9176   38.2905 H   0  0  0  0  0  0  0  0  0  0  0  0
   53.3919   27.5365   39.9898 H   0  0  0  0  0  0  0  0  0  0  0  0
   52.1454   26.7779   38.9635 H   0  0  0  0  0  0  0  0  0  0  0  0
   48.7667   35.6902   41.9300 H   0  0  0  0  0  0  0  0  0  0  0  0
   49.1268   33.3705   43.0550 H   0  0  0  0  0  0  0  0  0  0  0  0
   48.7800   34.8972   43.9240 H   0  0  0  0  0  0  0  0  0  0  0  0
   47.1966   32.4749   43.9008 H   0  0  0  0  0  0  0  0  0  0  0  0
   46.7992   34.0040   44.7115 H   0  0  0  0  0  0  0  0  0  0  0  0
   45.8838   32.9560   42.0205 H   0  0  0  0  0  0  0  0  0  0  0  0
   45.0030   33.9936   43.1175 H   0  0  0  0  0  0  0  0  0  0  0  0
   46.2628   35.9113   42.4880 H   0  0  0  0  0  0  0  0  0  0  0  0
   46.1342   35.0377   40.9488 H   0  0  0  0  0  0  0  0  0  0  0  0
  1  2  2  0
  1 16  1  0
  3  2  1  0
  4  3  2  0
  5  4  1  0
  5  6  2  0
  6  1  1  0
  7  5  1  0
  8  3  1  0
  8 14  1  0
  9  8  1  0
 10  9  2  0
 10 11  1  0
 11 13  2  0
 12 11  1  0
 13 14  1  0
 14 15  2  0
 16 20  1  0
 16 17  1  0
 17 18  1  0
 19 18  1  0
 20 19  1  0
  2 21  1  0
  7 22  1  0
  7 23  1  0
  9 24  1  0
 10 25  1  0
 12 26  1  0
 12 27  1  0
 16 28  1  0
 17 29  1  0
 17 30  1  0
 18 31  1  0
 18 32  1  0
 19 33  1  0
 19 34  1  0
 20 35  1  0
 20 36  1  0
M  ISO  8  21  14  24  14  25  14  28  13  29  13  30  13  31  13  32  13
M  ISO  4  33  13  34  13  35  13  36  13
M  END
>  <minimizedAffinity>  (1) 
-4.62415791

>  <minimizedRMSD>  (1) 
0.401984036

$$$$
