
     RDKit          3D

 49 52  0  0  1  0  0  0  0  0999 V2000
   48.3190   33.7180   39.6950 C   0  0  0  0  0  0  0  0  0  0  0  0
   49.1220   32.5940   39.9270 C   0  0  0  0  0  0  0  0  0  0  0  0
   49.6050   31.8350   38.8820 C   0  0  0  0  0  0  0  0  0  0  0  0
   49.2400   32.2630   37.6280 N   0  0  0  0  0  0  0  0  0  0  0  0
   48.4580   33.3600   37.4260 C   0  0  0  0  0  0  0  0  0  0  0  0
   47.9970   34.0880   38.4570 N   0  0  0  0  0  0  0  0  0  0  0  0
   48.1150   33.7470   36.0970 N   0  0  0  0  0  0  0  0  0  0  0  0
   50.4280   30.6960   39.0540 N   0  0  0  0  0  0  0  0  0  0  0  0
   50.1690   29.5410   38.4050 C   0  0  0  0  0  0  0  0  0  0  0  0
   51.0090   28.4600   38.6130 C   0  0  0  0  0  0  0  0  0  0  0  0
   52.0840   28.5800   39.4690 C   0  0  0  0  0  0  0  0  0  0  0  0
   52.9120   27.4360   39.6460 N   0  0  0  0  0  0  0  0  0  0  0  0
   52.3190   29.7350   40.1010 N   0  0  0  0  0  0  0  0  0  0  0  0
   51.4950   30.7840   39.8930 C   0  0  0  0  0  0  0  0  0  0  0  0
   51.7990   31.8420   40.5370 O   0  0  0  0  0  0  0  0  0  0  0  0
   47.8140   34.5020   40.8350 C   0  0  2  0  0  0  0  0  0  0  0  0
   48.6140   35.5330   41.4060 C   0  0  0  0  0  0  0  0  0  0  0  0
   49.3490   34.9540   42.6440 C   0  0  0  0  0  0  0  0  0  0  0  0
   48.9440   33.4820   42.7450 C   0  0  0  0  0  0  0  0  0  0  0  0
   47.6800   33.4630   41.9990 C   0  0  1  0  0  0  0  0  0  0  0  0
   46.4850   33.8440   42.7960 C   0  0  0  0  0  0  0  0  0  0  0  0
   46.6640   33.7300   44.2800 C   0  0  0  0  0  0  0  0  0  0  0  0
   45.4260   34.4880   44.7910 C   0  0  0  0  0  0  0  0  0  0  0  0
   45.0870   35.4690   43.7130 C   0  0  0  0  0  0  0  0  0  0  0  0
   46.1310   35.3110   42.6330 C   0  0  0  0  0  0  0  0  0  0  0  0
   49.3716   32.3120   40.9605 H   0  0  0  0  0  0  0  0  0  0  0  0
   47.5241   34.5755   35.9382 H   0  0  0  0  0  0  0  0  0  0  0  0
   48.4582   33.1980   35.2959 H   0  0  0  0  0  0  0  0  0  0  0  0
   49.3083   29.4602   37.7248 H   0  0  0  0  0  0  0  0  0  0  0  0
   50.8194   27.5074   38.0966 H   0  0  0  0  0  0  0  0  0  0  0  0
   53.7255   27.4816   40.2761 H   0  0  0  0  0  0  0  0  0  0  0  0
   52.6977   26.5625   39.1440 H   0  0  0  0  0  0  0  0  0  0  0  0
   46.9266   35.0135   40.4339 H   0  0  0  0  0  0  0  0  0  0  0  0
   49.3499   35.8841   40.6677 H   0  0  0  0  0  0  0  0  0  0  0  0
   47.9804   36.3810   41.7051 H   0  0  0  0  0  0  0  0  0  0  0  0
   50.4378   35.0398   42.5133 H   0  0  0  0  0  0  0  0  0  0  0  0
   49.0787   35.5031   43.5581 H   0  0  0  0  0  0  0  0  0  0  0  0
   49.6944   32.8277   42.2772 H   0  0  0  0  0  0  0  0  0  0  0  0
   48.8554   33.1157   43.7784 H   0  0  0  0  0  0  0  0  0  0  0  0
   47.5217   32.4271   41.6645 H   0  0  0  0  0  0  0  0  0  0  0  0
   45.7251   33.1460   42.4149 H   0  0  0  0  0  0  0  0  0  0  0  0
   46.6568   32.6798   44.6072 H   0  0  0  0  0  0  0  0  0  0  0  0
   47.6206   34.1270   44.6506 H   0  0  0  0  0  0  0  0  0  0  0  0
   44.5897   33.7926   44.9552 H   0  0  0  0  0  0  0  0  0  0  0  0
   45.6200   34.9872   45.7518 H   0  0  0  0  0  0  0  0  0  0  0  0
   44.0873   35.2548   43.3072 H   0  0  0  0  0  0  0  0  0  0  0  0
   45.0774   36.4970   44.1044 H   0  0  0  0  0  0  0  0  0  0  0  0
   47.0008   35.9601   42.8121 H   0  0  0  0  0  0  0  0  0  0  0  0
   45.7905   35.5891   41.6247 H   0  0  0  0  0  0  0  0  0  0  0  0
  1  2  2  0
  1 16  1  0
  3  8  1  0
  3  2  1  0
  4  3  2  0
  5  4  1  0
  5  6  2  0
  6  1  1  0
  7  5  1  0
  8 14  1  0
  9 10  2  0
  9  8  1  0
 10 11  1  0
 11 12  1  0
 11 13  2  0
 14 13  1  0
 14 15  2  0
 16 17  1  0
 16 20  1  0
 17 18  1  0
 18 19  1  0
 20 19  1  0
 20 21  1  0
 21 22  1  0
 22 23  1  0
 24 23  1  0
 25 21  1  0
 25 24  1  0
  2 26  1  0
  7 27  1  0
  7 28  1  0
  9 29  1  0
 10 30  1  0
 12 31  1  0
 12 32  1  0
 16 33  1  6
 17 34  1  0
 17 35  1  0
 18 36  1  0
 18 37  1  0
 19 38  1  0
 19 39  1  0
 20 40  1  6
 21 41  1  0
 22 42  1  0
 22 43  1  0
 23 44  1  0
 23 45  1  0
 24 46  1  0
 24 47  1  0
 25 48  1  0
 25 49  1  0
M  ISO  8  26  14  29  14  30  14  33  13  34  13  35  13  36  13  37  13
M  ISO  8  38  13  39  13  40  13  41  13  42  13  43  13  44  13  45  13
M  ISO  4  46  13  47  13  48  13  49  13
M  END
>  <minimizedAffinity>  (1) 
-6.12675571

>  <minimizedRMSD>  (1) 
1.79811943

$$$$
