
     RDKit          3D

 48 51  0  0  1  0  0  0  0  0999 V2000
   48.3600   33.9280   39.7760 C   0  0  0  0  0  0  0  0  0  0  0  0
   49.0590   32.7480   40.0720 C   0  0  0  0  0  0  0  0  0  0  0  0
   49.4040   31.8620   39.0630 C   0  0  0  0  0  0  0  0  0  0  0  0
   49.0180   32.2250   37.7980 N   0  0  0  0  0  0  0  0  0  0  0  0
   48.3420   33.3780   37.5430 C   0  0  0  0  0  0  0  0  0  0  0  0
   48.0100   34.2330   38.5280 N   0  0  0  0  0  0  0  0  0  0  0  0
   47.9620   33.6950   36.2030 N   0  0  0  0  0  0  0  0  0  0  0  0
   50.1170   30.6560   39.2930 N   0  0  0  0  0  0  0  0  0  0  0  0
   49.6990   29.4950   38.7450 C   0  0  0  0  0  0  0  0  0  0  0  0
   50.4280   28.3410   39.0000 C   0  0  0  0  0  0  0  0  0  0  0  0
   51.5570   28.4060   39.8040 C   0  0  0  0  0  0  0  0  0  0  0  0
   52.2680   27.2000   40.0390 N   0  0  0  0  0  0  0  0  0  0  0  0
   51.9350   29.5690   40.3250 N   0  0  0  0  0  0  0  0  0  0  0  0
   51.2270   30.6910   40.0780 C   0  0  0  0  0  0  0  0  0  0  0  0
   51.6690   31.7540   40.6200 O   0  0  0  0  0  0  0  0  0  0  0  0
   48.0070   34.8420   40.8770 C   0  0  2  0  0  0  0  0  0  0  0  0
   48.9520   35.7900   41.3580 C   0  0  0  0  0  0  0  0  0  0  0  0
   49.6500   35.1860   42.6060 C   0  0  0  0  0  0  0  0  0  0  0  0
   49.0740   33.7890   42.8010 C   0  0  0  0  0  0  0  0  0  0  0  0
   47.7790   33.9000   42.1080 C   0  0  1  0  0  0  0  0  0  0  0  0
   46.8800   34.6040   42.9530 N   0  0  0  0  0  0  0  0  0  0  0  0
   45.6630   35.0830   42.4220 C   0  0  0  0  0  0  0  0  0  0  0  0
   45.0490   35.7260   43.6880 C   0  0  0  0  0  0  0  0  0  0  0  0
   45.2460   34.5610   44.6350 C   0  0  0  0  0  0  0  0  0  0  0  0
   46.5140   33.8880   44.1520 C   0  0  0  0  0  0  0  0  0  0  0  0
   49.3355   32.5241   41.1129 H   0  0  0  0  0  0  0  0  0  0  0  0
   47.4502   34.5667   36.0054 H   0  0  0  0  0  0  0  0  0  0  0  0
   48.1998   33.0519   35.4344 H   0  0  0  0  0  0  0  0  0  0  0  0
   48.8009   29.4640   38.1106 H   0  0  0  0  0  0  0  0  0  0  0  0
   50.1121   27.3804   38.5669 H   0  0  0  0  0  0  0  0  0  0  0  0
   53.1113   27.2062   40.6303 H   0  0  0  0  0  0  0  0  0  0  0  0
   51.9406   26.3188   39.6182 H   0  0  0  0  0  0  0  0  0  0  0  0
   47.1830   35.4449   40.4676 H   0  0  0  0  0  0  0  0  0  0  0  0
   49.6990   36.0001   40.5784 H   0  0  0  0  0  0  0  0  0  0  0  0
   48.4468   36.7307   41.6223 H   0  0  0  0  0  0  0  0  0  0  0  0
   50.7360   35.1280   42.4413 H   0  0  0  0  0  0  0  0  0  0  0  0
   49.4782   35.8109   43.4948 H   0  0  0  0  0  0  0  0  0  0  0  0
   49.7129   33.0235   42.3365 H   0  0  0  0  0  0  0  0  0  0  0  0
   48.9917   33.4832   43.8544 H   0  0  0  0  0  0  0  0  0  0  0  0
   47.3973   32.9050   41.8356 H   0  0  0  0  0  0  0  0  0  0  0  0
   45.8289   35.8252   41.6272 H   0  0  0  0  0  0  0  0  0  0  0  0
   45.0355   34.3181   41.9412 H   0  0  0  0  0  0  0  0  0  0  0  0
   45.6007   36.6217   44.0094 H   0  0  0  0  0  0  0  0  0  0  0  0
   44.0184   36.0975   43.5886 H   0  0  0  0  0  0  0  0  0  0  0  0
   45.3646   34.9166   45.6691 H   0  0  0  0  0  0  0  0  0  0  0  0
   44.3852   33.8761   44.6394 H   0  0  0  0  0  0  0  0  0  0  0  0
   46.3281   32.8272   43.9280 H   0  0  0  0  0  0  0  0  0  0  0  0
   47.3111   33.9135   44.9096 H   0  0  0  0  0  0  0  0  0  0  0  0
  1  2  2  0
  1 16  1  0
  3  8  1  0
  3  2  1  0
  4  3  2  0
  5  4  1  0
  5  6  2  0
  6  1  1  0
  7  5  1  0
  8 14  1  0
  9 10  2  0
  9  8  1  0
 10 11  1  0
 11 12  1  0
 11 13  2  0
 14 13  1  0
 14 15  2  0
 16 17  1  0
 16 20  1  0
 17 18  1  0
 18 19  1  0
 20 19  1  0
 20 21  1  0
 21 22  1  0
 21 25  1  0
 22 23  1  0
 23 24  1  0
 25 24  1  0
  2 26  1  0
  7 27  1  0
  7 28  1  0
  9 29  1  0
 10 30  1  0
 12 31  1  0
 12 32  1  0
 16 33  1  6
 17 34  1  0
 17 35  1  0
 18 36  1  0
 18 37  1  0
 19 38  1  0
 19 39  1  0
 20 40  1  6
 22 41  1  0
 22 42  1  0
 23 43  1  0
 23 44  1  0
 24 45  1  0
 24 46  1  0
 25 47  1  0
 25 48  1  0
M  ISO  8  26  14  29  14  30  14  33  13  34  13  35  13  36  13  37  13
M  ISO  8  38  13  39  13  40  13  41  13  42  13  43  13  44  13  45  13
M  ISO  3  46  13  47  13  48  13
M  END
>  <minimizedAffinity>  (1) 
-6.21051025

>  <minimizedRMSD>  (1) 
1.56220353

$$$$
