
     RDKit          3D

 49 52  0  0  1  0  0  0  0  0999 V2000
   47.5240   34.6200   41.3070 C   0  0  2  0  0  0  0  0  0  0  0  0
   48.5230   35.5620   41.6620 C   0  0  0  0  0  0  0  0  0  0  0  0
   49.6500   34.8050   42.4160 C   0  0  0  0  0  0  0  0  0  0  0  0
   49.2230   33.3550   42.4500 C   0  0  0  0  0  0  0  0  0  0  0  0
   47.7810   33.3860   42.2660 C   0  0  1  0  0  0  0  0  0  0  0  0
   47.4980   34.0170   39.9660 C   0  0  0  0  0  0  0  0  0  0  0  0
   46.4260   33.1780   39.6270 C   0  0  0  0  0  0  0  0  0  0  0  0
   46.3500   32.5970   38.3640 C   0  0  0  0  0  0  0  0  0  0  0  0
   47.3760   32.9070   37.5120 N   0  0  0  0  0  0  0  0  0  0  0  0
   48.4070   33.7260   37.8620 C   0  0  0  0  0  0  0  0  0  0  0  0
   48.4670   34.2750   39.0750 N   0  0  0  0  0  0  0  0  0  0  0  0
   49.4390   34.0210   36.9300 N   0  0  0  0  0  0  0  0  0  0  0  0
   45.3010   31.7390   37.9620 N   0  0  0  0  0  0  0  0  0  0  0  0
   44.6820   31.9170   36.7710 C   0  0  0  0  0  0  0  0  0  0  0  0
   43.6560   31.0570   36.4220 C   0  0  0  0  0  0  0  0  0  0  0  0
   43.2800   30.0380   37.2850 C   0  0  0  0  0  0  0  0  0  0  0  0
   42.2240   29.1780   36.9010 N   0  0  0  0  0  0  0  0  0  0  0  0
   43.9130   29.8940   38.4500 N   0  0  0  0  0  0  0  0  0  0  0  0
   44.9170   30.7350   38.7930 C   0  0  0  0  0  0  0  0  0  0  0  0
   45.4580   30.5160   39.9240 O   0  0  0  0  0  0  0  0  0  0  0  0
   46.9740   33.6280   43.4170 N   0  0  0  0  0  0  0  0  0  0  0  0
   46.1180   34.6490   43.5900 C   0  0  0  0  0  0  0  0  0  0  0  0
   45.3390   34.9000   44.6790 C   0  0  0  0  0  0  0  0  0  0  0  0
   44.4230   36.0770   44.7500 C   0  0  0  0  0  0  0  0  0  0  0  0
   45.4290   34.0090   45.7390 C   0  0  0  0  0  0  0  0  0  0  0  0
   44.7240   34.2110   46.7590 O   0  0  0  0  0  0  0  0  0  0  0  0
   46.2800   32.9800   45.5840 N   0  0  0  0  0  0  0  0  0  0  0  0
   47.0180   32.7990   44.4740 C   0  0  0  0  0  0  0  0  0  0  0  0
   47.7430   31.7750   44.5470 O   0  0  0  0  0  0  0  0  0  0  0  0
   46.5899   35.1976   41.3687 H   0  0  0  0  0  0  0  0  0  0  0  0
   48.9313   36.0327   40.7555 H   0  0  0  0  0  0  0  0  0  0  0  0
   48.0965   36.3485   42.3020 H   0  0  0  0  0  0  0  0  0  0  0  0
   50.6057   34.9102   41.8816 H   0  0  0  0  0  0  0  0  0  0  0  0
   49.7988   35.2065   43.4293 H   0  0  0  0  0  0  0  0  0  0  0  0
   49.7048   32.7904   41.6382 H   0  0  0  0  0  0  0  0  0  0  0  0
   49.5103   32.8603   43.3895 H   0  0  0  0  0  0  0  0  0  0  0  0
   47.4962   32.3843   41.9118 H   0  0  0  0  0  0  0  0  0  0  0  0
   45.6372   32.9770   40.3668 H   0  0  0  0  0  0  0  0  0  0  0  0
   50.2157   34.6409   37.2008 H   0  0  0  0  0  0  0  0  0  0  0  0
   49.4101   33.6148   35.9839 H   0  0  0  0  0  0  0  0  0  0  0  0
   44.9886   32.7287   36.0948 H   0  0  0  0  0  0  0  0  0  0  0  0
   43.1380   31.1813   35.4596 H   0  0  0  0  0  0  0  0  0  0  0  0
   41.9282   28.4147   37.5261 H   0  0  0  0  0  0  0  0  0  0  0  0
   41.7511   29.3153   35.9963 H   0  0  0  0  0  0  0  0  0  0  0  0
   46.0370   35.3635   42.7576 H   0  0  0  0  0  0  0  0  0  0  0  0
   44.2283   36.3271   45.8034 H   0  0  0  0  0  0  0  0  0  0  0  0
   44.8917   36.9371   44.2495 H   0  0  0  0  0  0  0  0  0  0  0  0
   43.4741   35.8339   44.2495 H   0  0  0  0  0  0  0  0  0  0  0  0
   46.3712   32.2984   46.3508 H   0  0  0  0  0  0  0  0  0  0  0  0
  1  2  1  0
  1  5  1  0
  2  3  1  0
  3  4  1  0
  5  4  1  0
  5 21  1  0
  6  1  1  0
  7  6  2  0
  8  7  1  0
  9 10  1  0
  9  8  2  0
 10 11  2  0
 11  6  1  0
 12 10  1  0
 13  8  1  0
 13 19  1  0
 14 13  1  0
 15 14  2  0
 15 16  1  0
 16 18  2  0
 17 16  1  0
 18 19  1  0
 19 20  2  0
 21 22  1  0
 21 28  1  0
 22 23  2  0
 23 24  1  0
 23 25  1  0
 25 26  2  0
 27 25  1  0
 28 29  2  0
 28 27  1  0
  1 30  1  1
  2 31  1  0
  2 32  1  0
  3 33  1  0
  3 34  1  0
  4 35  1  0
  4 36  1  0
  5 37  1  6
  7 38  1  0
 12 39  1  0
 12 40  1  0
 14 41  1  0
 15 42  1  0
 17 43  1  0
 17 44  1  0
 22 45  1  0
 24 46  1  0
 24 47  1  0
 24 48  1  0
 27 49  1  0
M  ISO  8  30  13  31  13  32  13  33  13  34  13  35  13  36  13  37  13
M  ISO  8  38  14  41  14  42  14  45  14  46   8  47   8  48   8  49   9
M  END
>  <minimizedAffinity>  (1) 
-6.85978365

>  <minimizedRMSD>  (1) 
4.94390297

$$$$
