
     RDKit          3D

 43 46  0  0  1  0  0  0  0  0999 V2000
   48.2440   33.6550   40.6250 C   0  0  0  0  0  0  0  0  0  0  0  0
   49.1270   32.5760   40.4760 C   0  0  0  0  0  0  0  0  0  0  0  0
   49.4700   32.1070   39.2180 C   0  0  0  0  0  0  0  0  0  0  0  0
   48.8970   32.7600   38.1700 N   0  0  0  0  0  0  0  0  0  0  0  0
   48.0380   33.8090   38.3300 C   0  0  0  0  0  0  0  0  0  0  0  0
   47.7110   34.2580   39.5560 N   0  0  0  0  0  0  0  0  0  0  0  0
   47.4630   34.4450   37.1900 N   0  0  0  0  0  0  0  0  0  0  0  0
   50.3600   31.0270   39.0070 N   0  0  0  0  0  0  0  0  0  0  0  0
   50.0550   30.0270   38.1500 C   0  0  0  0  0  0  0  0  0  0  0  0
   50.9650   28.9960   37.9860 C   0  0  0  0  0  0  0  0  0  0  0  0
   52.1580   28.9980   38.6900 C   0  0  0  0  0  0  0  0  0  0  0  0
   53.0480   27.9120   38.4800 N   0  0  0  0  0  0  0  0  0  0  0  0
   52.4290   29.9970   39.5250 N   0  0  0  0  0  0  0  0  0  0  0  0
   51.5400   31.0030   39.6840 C   0  0  0  0  0  0  0  0  0  0  0  0
   51.8890   31.9120   40.5060 O   0  0  0  0  0  0  0  0  0  0  0  0
   47.8830   34.1140   41.9760 C   0  0  2  0  0  0  0  0  0  0  0  0
   48.5640   33.6050   43.1090 C   0  0  0  0  0  0  0  0  0  0  0  0
   47.7250   32.4460   43.7110 C   0  0  0  0  0  0  0  0  0  0  0  0
   46.4910   32.3240   42.8420 C   0  0  0  0  0  0  0  0  0  0  0  0
   46.3870   33.5980   42.1610 C   0  0  1  0  0  0  0  0  0  0  0  0
   45.7240   34.6700   42.9400 C   0  0  0  0  0  0  0  0  0  0  0  0
   45.5710   36.0190   42.7770 C   0  0  0  0  0  0  0  0  0  0  0  0
   44.8590   36.5720   43.7990 C   0  0  0  0  0  0  0  0  0  0  0  0
   44.5790   35.5100   44.5970 C   0  0  0  0  0  0  0  0  0  0  0  0
   45.0900   34.4270   44.0750 O   0  0  0  0  0  0  0  0  0  0  0  0
   49.5529   32.0957   41.3692 H   0  0  0  0  0  0  0  0  0  0  0  0
   46.8152   35.2362   37.3137 H   0  0  0  0  0  0  0  0  0  0  0  0
   47.6956   34.1130   36.2431 H   0  0  0  0  0  0  0  0  0  0  0  0
   49.1051   30.0321   37.5953 H   0  0  0  0  0  0  0  0  0  0  0  0
   50.7394   28.1717   37.2935 H   0  0  0  0  0  0  0  0  0  0  0  0
   53.9453   27.8765   38.9845 H   0  0  0  0  0  0  0  0  0  0  0  0
   52.7964   27.1596   37.8231 H   0  0  0  0  0  0  0  0  0  0  0  0
   48.1132   35.1896   41.9781 H   0  0  0  0  0  0  0  0  0  0  0  0
   49.5534   33.2294   42.8090 H   0  0  0  0  0  0  0  0  0  0  0  0
   48.6970   34.4008   43.8567 H   0  0  0  0  0  0  0  0  0  0  0  0
   48.2999   31.5084   43.6911 H   0  0  0  0  0  0  0  0  0  0  0  0
   47.4594   32.6454   44.7597 H   0  0  0  0  0  0  0  0  0  0  0  0
   46.6081   31.5057   42.1163 H   0  0  0  0  0  0  0  0  0  0  0  0
   45.5908   32.0948   43.4312 H   0  0  0  0  0  0  0  0  0  0  0  0
   45.8014   33.4237   41.2463 H   0  0  0  0  0  0  0  0  0  0  0  0
   45.9731   36.5878   41.9257 H   0  0  0  0  0  0  0  0  0  0  0  0
   44.5785   37.6259   43.9428 H   0  0  0  0  0  0  0  0  0  0  0  0
   44.0100   35.5545   45.5374 H   0  0  0  0  0  0  0  0  0  0  0  0
  1 16  1  0
  2  1  2  0
  3  2  1  0
  4  5  1  0
  4  3  2  0
  5  6  2  0
  6  1  1  0
  7  5  1  0
  8  3  1  0
  8 14  1  0
  9  8  1  0
 10  9  2  0
 10 11  1  0
 11 13  2  0
 12 11  1  0
 13 14  1  0
 14 15  2  0
 16 20  1  0
 16 17  1  0
 17 18  1  0
 19 18  1  0
 20 19  1  0
 20 21  1  0
 21 25  1  0
 22 21  2  0
 22 23  1  0
 23 24  2  0
 25 24  1  0
  2 26  1  0
  7 27  1  0
  7 28  1  0
  9 29  1  0
 10 30  1  0
 12 31  1  0
 12 32  1  0
 16 33  1  6
 17 34  1  0
 17 35  1  0
 18 36  1  0
 18 37  1  0
 19 38  1  0
 19 39  1  0
 20 40  1  6
 22 41  1  0
 23 42  1  0
 24 43  1  0
M  ISO  8  26  14  29  14  30  14  33  13  34  13  35  13  36  13  37  13
M  ISO  6  38  13  39  13  40  13  41  14  42  14  43  14
M  END
>  <minimizedAffinity>  (1) 
-5.53312969

>  <minimizedRMSD>  (1) 
1.21056688

$$$$
