
     RDKit          3D

 30 32  0  0  1  0  0  0  0  0999 V2000
   44.5620   35.8520   44.9060 C   0  0  0  0  0  0  0  0  0  0  0  0
   45.1600   35.8160   43.6100 C   0  0  0  0  0  0  0  0  0  0  0  0
   45.9700   34.7280   43.3090 C   0  0  0  0  0  0  0  0  0  0  0  0
   46.1500   33.7580   44.2540 N   0  0  0  0  0  0  0  0  0  0  0  0
   45.5670   33.8340   45.4590 C   0  0  0  0  0  0  0  0  0  0  0  0
   44.7780   34.8730   45.7850 N   0  0  0  0  0  0  0  0  0  0  0  0
   45.7820   32.7850   46.4380 N   0  0  0  0  0  0  0  0  0  0  0  0
   45.1560   32.8540   47.7470 C   0  0  0  0  0  0  0  0  0  0  0  0
   46.0140   32.2960   48.8400 C   0  0  0  0  0  0  0  0  0  0  0  0
   47.4300   32.1800   48.3600 C   0  0  0  0  0  0  0  0  0  0  0  0
   47.4170   31.1360   47.2500 C   0  0  0  0  0  0  0  0  0  0  0  0
   46.6260   31.6700   46.0950 C   0  0  1  0  0  0  0  0  0  0  0  0
   45.8770   30.6010   45.3700 C   0  0  0  0  0  0  0  0  0  0  0  0
   45.8140   30.3670   44.0490 N   0  0  0  0  0  0  0  0  0  0  0  0
   45.0640   29.3480   43.7690 O   0  0  0  0  0  0  0  0  0  0  0  0
   44.6150   28.8900   44.9120 C   0  0  0  0  0  0  0  0  0  0  0  0
   45.0930   29.6340   45.9280 N   0  0  0  0  0  0  0  0  0  0  0  0
   43.9152   36.6977   45.1827 H   0  0  0  0  0  0  0  0  0  0  0  0
   44.9862   36.6186   42.8781 H   0  0  0  0  0  0  0  0  0  0  0  0
   46.4581   34.6490   42.3264 H   0  0  0  0  0  0  0  0  0  0  0  0
   44.9391   33.9078   47.9760 H   0  0  0  0  0  0  0  0  0  0  0  0
   44.2414   32.2443   47.7051 H   0  0  0  0  0  0  0  0  0  0  0  0
   45.9770   32.9654   49.7121 H   0  0  0  0  0  0  0  0  0  0  0  0
   45.6421   31.3003   49.1234 H   0  0  0  0  0  0  0  0  0  0  0  0
   47.7812   33.1469   47.9703 H   0  0  0  0  0  0  0  0  0  0  0  0
   48.1080   31.8897   49.1761 H   0  0  0  0  0  0  0  0  0  0  0  0
   48.4475   30.9266   46.9272 H   0  0  0  0  0  0  0  0  0  0  0  0
   46.9605   30.2051   47.6174 H   0  0  0  0  0  0  0  0  0  0  0  0
   47.3749   32.0686   45.3947 H   0  0  0  0  0  0  0  0  0  0  0  0
   43.9456   28.0245   45.0250 H   0  0  0  0  0  0  0  0  0  0  0  0
  1  6  2  0
  2  1  1  0
  3  2  2  0
  3  4  1  0
  4  5  2  0
  5  6  1  0
  5  7  1  0
  7  8  1  0
  8  9  1  0
 10  9  1  0
 11 10  1  0
 12  7  1  0
 12 11  1  0
 13 17  1  0
 13 12  1  0
 14 13  2  0
 15 14  1  0
 15 16  1  0
 16 17  2  0
  1 18  1  0
  2 19  1  0
  3 20  1  0
  8 21  1  0
  8 22  1  0
  9 23  1  0
  9 24  1  0
 10 25  1  0
 10 26  1  0
 11 27  1  0
 11 28  1  0
 12 29  1  6
 16 30  1  0
M  ISO  8  18  14  19  14  20  14  21  13  22  13  23  13  24  13  25  13
M  ISO  5  26  13  27  13  28  13  29  13  30  14
M  END
>  <minimizedAffinity>  (1) 
-4.98312044

>  <minimizedRMSD>  (1) 
0.313093364

$$$$
