
     RDKit          3D

 49 52  0  0  1  0  0  0  0  0999 V2000
   47.3270   34.3660   40.9370 C   0  0  0  0  0  0  0  0  0  0  0  0
   45.9190   34.3400   40.8570 C   0  0  0  0  0  0  0  0  0  0  0  0
   45.2690   33.6070   39.8640 C   0  0  0  0  0  0  0  0  0  0  0  0
   46.0990   32.9370   38.9980 N   0  0  0  0  0  0  0  0  0  0  0  0
   47.4600   32.9780   39.0940 C   0  0  0  0  0  0  0  0  0  0  0  0
   48.0470   33.6900   40.0610 N   0  0  0  0  0  0  0  0  0  0  0  0
   48.2560   32.2590   38.1600 N   0  0  0  0  0  0  0  0  0  0  0  0
   43.8550   33.5380   39.7410 N   0  0  0  0  0  0  0  0  0  0  0  0
   43.2610   33.7110   38.5410 C   0  0  0  0  0  0  0  0  0  0  0  0
   41.8800   33.6320   38.4770 C   0  0  0  0  0  0  0  0  0  0  0  0
   41.1430   33.3830   39.6120 C   0  0  0  0  0  0  0  0  0  0  0  0
   39.7280   33.3140   39.4760 N   0  0  0  0  0  0  0  0  0  0  0  0
   41.7670   33.2190   40.7840 N   0  0  0  0  0  0  0  0  0  0  0  0
   43.1090   33.2960   40.8500 C   0  0  0  0  0  0  0  0  0  0  0  0
   43.6100   33.1260   42.0020 O   0  0  0  0  0  0  0  0  0  0  0  0
   47.9530   35.1510   41.9910 C   0  0  2  0  0  0  0  0  0  0  0  0
   49.2060   35.7930   41.7840 C   0  0  0  0  0  0  0  0  0  0  0  0
   50.3340   34.8760   42.3270 C   0  0  0  0  0  0  0  0  0  0  0  0
   49.6450   33.6100   42.8630 C   0  0  0  0  0  0  0  0  0  0  0  0
   48.2990   34.0940   43.1180 C   0  0  2  0  0  0  0  0  0  0  0  0
   47.2390   33.1640   43.3010 N   0  0  0  0  0  0  0  0  0  0  0  0
   47.8320   31.8290   43.4550 C   0  0  0  0  0  0  0  0  0  0  0  0
   46.7510   30.8470   43.9270 C   0  0  0  0  0  0  0  0  0  0  0  0
   46.2500   31.2030   45.1580 O   0  0  0  0  0  0  0  0  0  0  0  0
   45.6350   32.4590   45.0190 C   0  0  0  0  0  0  0  0  0  0  0  0
   46.6580   33.4610   44.6120 C   0  0  0  0  0  0  0  0  0  0  0  0
   45.3244   34.9064   41.5889 H   0  0  0  0  0  0  0  0  0  0  0  0
   49.2833   32.2876   38.2293 H   0  0  0  0  0  0  0  0  0  0  0  0
   47.8052   31.7098   37.4143 H   0  0  0  0  0  0  0  0  0  0  0  0
   43.8579   33.9093   37.6386 H   0  0  0  0  0  0  0  0  0  0  0  0
   41.3689   33.7692   37.5127 H   0  0  0  0  0  0  0  0  0  0  0  0
   39.1397   33.1295   40.3011 H   0  0  0  0  0  0  0  0  0  0  0  0
   39.2922   33.4485   38.5525 H   0  0  0  0  0  0  0  0  0  0  0  0
   47.2326   35.9647   42.1609 H   0  0  0  0  0  0  0  0  0  0  0  0
   49.3580   35.9689   40.7089 H   0  0  0  0  0  0  0  0  0  0  0  0
   49.2228   36.7582   42.3114 H   0  0  0  0  0  0  0  0  0  0  0  0
   51.0339   34.6152   41.5195 H   0  0  0  0  0  0  0  0  0  0  0  0
   50.9118   35.3796   43.1160 H   0  0  0  0  0  0  0  0  0  0  0  0
   49.6465   32.8047   42.1137 H   0  0  0  0  0  0  0  0  0  0  0  0
   50.1370   33.1724   43.7441 H   0  0  0  0  0  0  0  0  0  0  0  0
   48.3491   34.5206   44.1307 H   0  0  0  0  0  0  0  0  0  0  0  0
   48.2376   31.4931   42.4892 H   0  0  0  0  0  0  0  0  0  0  0  0
   48.6437   31.8689   44.1964 H   0  0  0  0  0  0  0  0  0  0  0  0
   45.9299   30.8403   43.1951 H   0  0  0  0  0  0  0  0  0  0  0  0
   47.2053   29.8490   44.0144 H   0  0  0  0  0  0  0  0  0  0  0  0
   44.8499   32.4015   44.2507 H   0  0  0  0  0  0  0  0  0  0  0  0
   45.1841   32.7584   45.9766 H   0  0  0  0  0  0  0  0  0  0  0  0
   47.4629   33.4687   45.3617 H   0  0  0  0  0  0  0  0  0  0  0  0
   46.1608   34.4399   44.5448 H   0  0  0  0  0  0  0  0  0  0  0  0
  1 16  1  0
  2  1  2  0
  3  2  1  0
  4  5  1  0
  4  3  2  0
  5  6  2  0
  6  1  1  0
  7  5  1  0
  8  3  1  0
  8 14  1  0
  9  8  1  0
 10  9  2  0
 10 11  1  0
 11 13  2  0
 12 11  1  0
 13 14  1  0
 14 15  2  0
 16 20  1  0
 17 16  1  0
 17 18  1  0
 18 19  1  0
 19 20  1  0
 20 21  1  0
 21 22  1  0
 21 26  1  0
 22 23  1  0
 23 24  1  0
 25 24  1  0
 26 25  1  0
  2 27  1  0
  7 28  1  0
  7 29  1  0
  9 30  1  0
 10 31  1  0
 12 32  1  0
 12 33  1  0
 16 34  1  1
 17 35  1  0
 17 36  1  0
 18 37  1  0
 18 38  1  0
 19 39  1  0
 19 40  1  0
 20 41  1  1
 22 42  1  0
 22 43  1  0
 23 44  1  0
 23 45  1  0
 25 46  1  0
 25 47  1  0
 26 48  1  0
 26 49  1  0
M  ISO  8  27  14  30  14  31  14  34  13  35  13  36  13  37  13  38  13
M  ISO  8  39  13  40  13  41  13  42  13  43  13  44  13  45  13  46  13
M  ISO  3  47  13  48  13  49  13
M  END
>  <minimizedAffinity>  (1) 
-5.7311759

>  <minimizedRMSD>  (1) 
6.45569849

$$$$
