
     RDKit          3D

 39 41  0  0  1  0  0  0  0  0999 V2000
   47.4480   34.0330   41.2270 C   0  0  0  0  0  0  0  0  0  0  0  0
   48.4930   33.0900   41.4180 C   0  0  0  0  0  0  0  0  0  0  0  0
   49.0920   32.4590   40.3340 C   0  0  0  0  0  0  0  0  0  0  0  0
   48.6030   32.8120   39.1130 N   0  0  0  0  0  0  0  0  0  0  0  0
   47.5990   33.7180   38.9450 C   0  0  0  0  0  0  0  0  0  0  0  0
   47.0300   34.3230   39.9990 N   0  0  0  0  0  0  0  0  0  0  0  0
   47.1320   34.0290   37.6360 N   0  0  0  0  0  0  0  0  0  0  0  0
   50.1420   31.5160   40.4670 N   0  0  0  0  0  0  0  0  0  0  0  0
   50.1050   30.3470   39.7940 C   0  0  0  0  0  0  0  0  0  0  0  0
   51.1510   29.4550   39.9560 C   0  0  0  0  0  0  0  0  0  0  0  0
   52.2070   29.7700   40.7900 C   0  0  0  0  0  0  0  0  0  0  0  0
   53.2550   28.8350   40.9400 N   0  0  0  0  0  0  0  0  0  0  0  0
   52.2060   30.9420   41.4400 N   0  0  0  0  0  0  0  0  0  0  0  0
   51.1860   31.8130   41.2860 C   0  0  0  0  0  0  0  0  0  0  0  0
   51.2810   32.8960   41.9440 O   0  0  0  0  0  0  0  0  0  0  0  0
   46.8500   34.6450   42.4060 C   0  0  2  0  0  0  0  0  0  0  0  0
   46.9480   34.0540   43.6830 C   0  0  0  0  0  0  0  0  0  0  0  0
   45.6690   33.2150   43.9510 C   0  0  0  0  0  0  0  0  0  0  0  0
   44.7940   33.3480   42.6960 C   0  0  0  0  0  0  0  0  0  0  0  0
   45.2860   34.5770   42.0950 C   0  0  1  0  0  0  0  0  0  0  0  0
   44.6300   35.8130   42.6970 C   0  0  0  0  0  0  0  0  0  0  0  0
   43.8320   36.3340   41.6910 F   0  0  0  0  0  0  0  0  0  0  0  0
   43.8670   35.5500   43.7910 F   0  0  0  0  0  0  0  0  0  0  0  0
   45.6210   36.7490   42.9350 F   0  0  0  0  0  0  0  0  0  0  0  0
   48.8328   32.8559   42.4377 H   0  0  0  0  0  0  0  0  0  0  0  0
   46.3731   34.7138   37.5091 H   0  0  0  0  0  0  0  0  0  0  0  0
   47.5531   33.5691   36.8162 H   0  0  0  0  0  0  0  0  0  0  0  0
   49.2610   30.1078   39.1303 H   0  0  0  0  0  0  0  0  0  0  0  0
   51.1417   28.4943   39.4203 H   0  0  0  0  0  0  0  0  0  0  0  0
   54.0519   29.0491   41.5565 H   0  0  0  0  0  0  0  0  0  0  0  0
   53.2224   27.9391   40.4329 H   0  0  0  0  0  0  0  0  0  0  0  0
   47.3900   35.5974   42.5128 H   0  0  0  0  0  0  0  0  0  0  0  0
   47.8322   33.4007   43.7202 H   0  0  0  0  0  0  0  0  0  0  0  0
   47.0458   34.8376   44.4488 H   0  0  0  0  0  0  0  0  0  0  0  0
   45.9338   32.1609   44.1205 H   0  0  0  0  0  0  0  0  0  0  0  0
   45.1388   33.5703   44.8469 H   0  0  0  0  0  0  0  0  0  0  0  0
   44.9356   32.4914   42.0206 H   0  0  0  0  0  0  0  0  0  0  0  0
   43.7161   33.3688   42.9144 H   0  0  0  0  0  0  0  0  0  0  0  0
   45.0598   34.5677   41.0185 H   0  0  0  0  0  0  0  0  0  0  0  0
  1  2  2  0
  1 16  1  0
  3  8  1  0
  3  2  1  0
  4  3  2  0
  5  4  1  0
  5  6  2  0
  6  1  1  0
  7  5  1  0
  8 14  1  0
  9 10  2  0
  9  8  1  0
 10 11  1  0
 11 12  1  0
 11 13  2  0
 14 13  1  0
 14 15  2  0
 16 17  1  0
 17 18  1  0
 19 18  1  0
 20 16  1  0
 20 19  1  0
 20 21  1  0
 21 24  1  0
 21 23  1  0
 22 21  1  0
  2 25  1  0
  7 26  1  0
  7 27  1  0
  9 28  1  0
 10 29  1  0
 12 30  1  0
 12 31  1  0
 16 32  1  1
 17 33  1  0
 17 34  1  0
 18 35  1  0
 18 36  1  0
 19 37  1  0
 19 38  1  0
 20 39  1  6
M  ISO  8  25  14  28  14  29  14  32  13  33  13  34  13  35  13  36  13
M  ISO  3  37  13  38  13  39  13
M  END
>  <minimizedAffinity>  (1) 
-5.57449341

>  <minimizedRMSD>  (1) 
1.38919234

$$$$
