
     RDKit          3D

 42 45  0  0  1  0  0  0  0  0999 V2000
   48.3780   33.8360   39.7070 C   0  0  0  0  0  0  0  0  0  0  0  0
   49.1530   32.6860   39.9920 C   0  0  0  0  0  0  0  0  0  0  0  0
   49.5870   31.8490   38.9860 C   0  0  0  0  0  0  0  0  0  0  0  0
   49.2110   32.2170   37.7140 N   0  0  0  0  0  0  0  0  0  0  0  0
   48.4640   33.3310   37.4630 C   0  0  0  0  0  0  0  0  0  0  0  0
   48.0520   34.1320   38.4550 N   0  0  0  0  0  0  0  0  0  0  0  0
   48.1040   33.6500   36.1180 N   0  0  0  0  0  0  0  0  0  0  0  0
   50.3740   30.6920   39.2050 N   0  0  0  0  0  0  0  0  0  0  0  0
   50.0610   29.5140   38.6250 C   0  0  0  0  0  0  0  0  0  0  0  0
   50.8840   28.4270   38.8840 C   0  0  0  0  0  0  0  0  0  0  0  0
   51.9740   28.5560   39.7030 C   0  0  0  0  0  0  0  0  0  0  0  0
   52.7680   27.3790   39.9070 N   0  0  0  0  0  0  0  0  0  0  0  0
   52.2520   29.7280   40.2560 N   0  0  0  0  0  0  0  0  0  0  0  0
   51.4620   30.7970   40.0150 C   0  0  0  0  0  0  0  0  0  0  0  0
   51.8150   31.8720   40.5930 O   0  0  0  0  0  0  0  0  0  0  0  0
   47.9370   34.6790   40.8220 C   0  0  2  0  0  0  0  0  0  0  0  0
   48.7770   35.6690   41.3720 C   0  0  0  0  0  0  0  0  0  0  0  0
   49.4970   35.0850   42.6150 C   0  0  0  0  0  0  0  0  0  0  0  0
   49.0180   33.6320   42.7530 C   0  0  0  0  0  0  0  0  0  0  0  0
   47.7640   33.6370   42.0180 C   0  0  1  0  0  0  0  0  0  0  0  0
   46.7450   34.2860   42.8570 N   0  0  0  0  0  0  0  0  0  0  0  0
   46.4470   34.0110   44.1470 C   0  0  0  0  0  0  0  0  0  0  0  0
   45.4490   34.8590   44.4980 N   0  0  0  0  0  0  0  0  0  0  0  0
   45.1230   35.6520   43.4600 C   0  0  0  0  0  0  0  0  0  0  0  0
   45.9490   35.2610   42.4710 N   0  0  0  0  0  0  0  0  0  0  0  0
   49.4138   32.4560   41.0356 H   0  0  0  0  0  0  0  0  0  0  0  0
   47.5403   34.4893   35.9210 H   0  0  0  0  0  0  0  0  0  0  0  0
   48.4081   33.0408   35.3452 H   0  0  0  0  0  0  0  0  0  0  0  0
   49.1831   29.4188   37.9691 H   0  0  0  0  0  0  0  0  0  0  0  0
   50.6586   27.4522   38.4269 H   0  0  0  0  0  0  0  0  0  0  0  0
   53.5997   27.4175   40.5134 H   0  0  0  0  0  0  0  0  0  0  0  0
   52.5065   26.4953   39.4471 H   0  0  0  0  0  0  0  0  0  0  0  0
   47.0875   35.2460   40.4136 H   0  0  0  0  0  0  0  0  0  0  0  0
   49.5228   35.9771   40.6244 H   0  0  0  0  0  0  0  0  0  0  0  0
   48.1783   36.5438   41.6656 H   0  0  0  0  0  0  0  0  0  0  0  0
   50.5872   35.1138   42.4713 H   0  0  0  0  0  0  0  0  0  0  0  0
   49.2664   35.6677   43.5190 H   0  0  0  0  0  0  0  0  0  0  0  0
   49.7383   32.9326   42.3035 H   0  0  0  0  0  0  0  0  0  0  0  0
   48.9099   33.3057   43.7979 H   0  0  0  0  0  0  0  0  0  0  0  0
   47.5028   32.6133   41.7116 H   0  0  0  0  0  0  0  0  0  0  0  0
   46.9204   33.2502   44.7851 H   0  0  0  0  0  0  0  0  0  0  0  0
   44.3563   36.4401   43.4273 H   0  0  0  0  0  0  0  0  0  0  0  0
  1  2  2  0
  1 16  1  0
  3  8  1  0
  3  2  1  0
  4  3  2  0
  5  4  1  0
  5  6  2  0
  6  1  1  0
  7  5  1  0
  8 14  1  0
  9 10  2  0
  9  8  1  0
 10 11  1  0
 11 12  1  0
 11 13  2  0
 14 13  1  0
 14 15  2  0
 16 17  1  0
 16 20  1  0
 17 18  1  0
 18 19  1  0
 20 19  1  0
 20 21  1  0
 21 22  1  0
 22 23  2  0
 24 23  1  0
 25 21  1  0
 25 24  2  0
  2 26  1  0
  7 27  1  0
  7 28  1  0
  9 29  1  0
 10 30  1  0
 12 31  1  0
 12 32  1  0
 16 33  1  6
 17 34  1  0
 17 35  1  0
 18 36  1  0
 18 37  1  0
 19 38  1  0
 19 39  1  0
 20 40  1  6
 22 41  1  0
 24 42  1  0
M  ISO  8  26  14  29  14  30  14  33  13  34  13  35  13  36  13  37  13
M  ISO  5  38  13  39  13  40  13  41  14  42  14
M  END
>  <minimizedAffinity>  (1) 
-5.91701078

>  <minimizedRMSD>  (1) 
1.70977998

$$$$
