
     RDKit          3D

 45 47  0  0  1  0  0  0  0  0999 V2000
   47.1130   33.9250   41.2350 C   0  0  0  0  0  0  0  0  0  0  0  0
   47.0130   33.6620   42.6240 C   0  0  0  0  0  0  0  0  0  0  0  0
   45.8060   33.8460   43.2990 C   0  0  0  0  0  0  0  0  0  0  0  0
   44.7750   34.2820   42.5350 N   0  0  0  0  0  0  0  0  0  0  0  0
   44.8900   34.5310   41.2010 C   0  0  0  0  0  0  0  0  0  0  0  0
   46.0540   34.3510   40.5560 N   0  0  0  0  0  0  0  0  0  0  0  0
   43.7600   34.9960   40.4640 N   0  0  0  0  0  0  0  0  0  0  0  0
   45.6520   33.5870   44.6840 N   0  0  0  0  0  0  0  0  0  0  0  0
   45.0480   34.4890   45.4920 C   0  0  0  0  0  0  0  0  0  0  0  0
   44.9230   34.1970   46.8400 C   0  0  0  0  0  0  0  0  0  0  0  0
   45.4150   32.9950   47.3340 C   0  0  0  0  0  0  0  0  0  0  0  0
   45.2710   32.7430   48.7190 N   0  0  0  0  0  0  0  0  0  0  0  0
   46.0060   32.1290   46.5040 N   0  0  0  0  0  0  0  0  0  0  0  0
   46.1250   32.4170   45.1910 C   0  0  0  0  0  0  0  0  0  0  0  0
   46.7010   31.5290   44.4870 O   0  0  0  0  0  0  0  0  0  0  0  0
   48.4030   33.7310   40.5840 C   0  0  2  0  0  0  0  0  0  0  0  0
   48.5110   33.5400   39.1910 C   0  0  0  0  0  0  0  0  0  0  0  0
   48.6010   32.0170   38.9060 C   0  0  0  0  0  0  0  0  0  0  0  0
   48.5160   31.3180   40.2700 C   0  0  0  0  0  0  0  0  0  0  0  0
   48.9320   32.3610   41.1960 C   0  0  1  0  0  0  0  0  0  0  0  0
   50.4270   32.4590   41.3390 C   0  0  0  0  0  0  0  0  0  0  0  0
   50.8610   33.4720   42.3550 C   0  0  0  0  0  0  0  0  0  0  0  0
   50.9330   31.0990   41.7580 C   0  0  0  0  0  0  0  0  0  0  0  0
   47.8966   33.3090   43.1759 H   0  0  0  0  0  0  0  0  0  0  0  0
   43.8454   35.1848   39.4551 H   0  0  0  0  0  0  0  0  0  0  0  0
   42.8590   35.1429   40.9410 H   0  0  0  0  0  0  0  0  0  0  0  0
   44.6636   35.4362   45.0858 H   0  0  0  0  0  0  0  0  0  0  0  0
   44.4360   34.9141   47.5172 H   0  0  0  0  0  0  0  0  0  0  0  0
   45.6233   31.8629   49.1217 H   0  0  0  0  0  0  0  0  0  0  0  0
   44.8138   33.4397   49.3244 H   0  0  0  0  0  0  0  0  0  0  0  0
   48.9272   34.6825   40.7566 H   0  0  0  0  0  0  0  0  0  0  0  0
   47.6262   33.9593   38.6897 H   0  0  0  0  0  0  0  0  0  0  0  0
   49.4097   34.0475   38.8105 H   0  0  0  0  0  0  0  0  0  0  0  0
   47.7669   31.6999   38.2628 H   0  0  0  0  0  0  0  0  0  0  0  0
   49.5350   31.7624   38.3836 H   0  0  0  0  0  0  0  0  0  0  0  0
   47.4885   30.9873   40.4819 H   0  0  0  0  0  0  0  0  0  0  0  0
   49.1338   30.4100   40.3322 H   0  0  0  0  0  0  0  0  0  0  0  0
   48.5278   32.1351   42.1938 H   0  0  0  0  0  0  0  0  0  0  0  0
   50.8410   32.7843   40.3732 H   0  0  0  0  0  0  0  0  0  0  0  0
   50.6903   33.0736   43.3660 H   0  0  0  0  0  0  0  0  0  0  0  0
   51.9311   33.6892   42.2223 H   0  0  0  0  0  0  0  0  0  0  0  0
   50.2800   34.3966   42.2223 H   0  0  0  0  0  0  0  0  0  0  0  0
   50.9555   31.0385   42.8561 H   0  0  0  0  0  0  0  0  0  0  0  0
   50.2642   30.3208   41.3615 H   0  0  0  0  0  0  0  0  0  0  0  0
   51.9478   30.9472   41.3615 H   0  0  0  0  0  0  0  0  0  0  0  0
  1  2  2  0
  2  3  1  0
  3  8  1  0
  4  3  2  0
  5  4  1  0
  6  5  2  0
  6  1  1  0
  7  5  1  0
  8 14  1  0
  8  9  1  0
  9 10  2  0
 10 11  1  0
 11 12  1  0
 13 11  2  0
 14 13  1  0
 15 14  2  0
 16 20  1  0
 16  1  1  0
 17 16  1  0
 18 17  1  0
 18 19  1  0
 19 20  1  0
 20 21  1  0
 21 23  1  0
 21 22  1  0
  2 24  1  0
  7 25  1  0
  7 26  1  0
  9 27  1  0
 10 28  1  0
 12 29  1  0
 12 30  1  0
 16 31  1  1
 17 32  1  0
 17 33  1  0
 18 34  1  0
 18 35  1  0
 19 36  1  0
 19 37  1  0
 20 38  1  1
 21 39  1  0
 22 40  1  0
 22 41  1  0
 22 42  1  0
 23 43  1  0
 23 44  1  0
 23 45  1  0
M  ISO  8  24  14  27  14  28  14  31  13  32  13  33  13  34  13  35  13
M  ISO  8  36  13  37  13  38  13  39   8  40   8  41   8  42   8  43   8
M  ISO  2  44   8  45   8
M  END
>  <minimizedAffinity>  (1) 
-5.44858217

>  <minimizedRMSD>  (1) 
6.74697638

$$$$
