
     RDKit          3D

 37 39  0  0  1  0  0  0  0  0999 V2000
   48.2330   34.1790   40.4180 C   0  0  0  0  0  0  0  0  0  0  0  0
   48.9780   32.9830   40.5280 C   0  0  0  0  0  0  0  0  0  0  0  0
   49.3420   32.2600   39.3920 C   0  0  0  0  0  0  0  0  0  0  0  0
   48.9280   32.7940   38.1980 N   0  0  0  0  0  0  0  0  0  0  0  0
   48.2120   33.9490   38.1190 C   0  0  0  0  0  0  0  0  0  0  0  0
   47.8680   34.6340   39.2190 N   0  0  0  0  0  0  0  0  0  0  0  0
   47.8010   34.4490   36.8520 N   0  0  0  0  0  0  0  0  0  0  0  0
   50.0920   31.0600   39.4340 N   0  0  0  0  0  0  0  0  0  0  0  0
   49.7110   29.9800   38.7190 C   0  0  0  0  0  0  0  0  0  0  0  0
   50.4760   28.8290   38.7930 C   0  0  0  0  0  0  0  0  0  0  0  0
   51.6100   28.8000   39.5920 C   0  0  0  0  0  0  0  0  0  0  0  0
   52.3620   27.6040   39.6470 N   0  0  0  0  0  0  0  0  0  0  0  0
   51.9510   29.8950   40.2860 N   0  0  0  0  0  0  0  0  0  0  0  0
   51.2060   31.0130   40.2110 C   0  0  0  0  0  0  0  0  0  0  0  0
   51.6180   31.9960   40.9080 O   0  0  0  0  0  0  0  0  0  0  0  0
   47.8730   34.8770   41.6420 C   0  0  2  0  0  0  0  0  0  0  0  0
   48.4330   34.5190   42.8940 C   0  0  0  0  0  0  0  0  0  0  0  0
   47.4440   33.5670   43.6160 C   0  0  0  0  0  0  0  0  0  0  0  0
   46.2590   33.3580   42.6750 C   0  0  0  0  0  0  0  0  0  0  0  0
   46.3250   34.5320   41.8180 C   0  0  2  0  0  0  0  0  0  0  0  0
   45.7420   34.4410   40.5680 O   0  0  0  0  0  0  0  0  0  0  0  0
   49.2746   32.6176   41.5222 H   0  0  0  0  0  0  0  0  0  0  0  0
   47.2593   35.3231   36.7944 H   0  0  0  0  0  0  0  0  0  0  0  0
   48.0452   33.9368   35.9924 H   0  0  0  0  0  0  0  0  0  0  0  0
   48.8096   30.0142   38.0895 H   0  0  0  0  0  0  0  0  0  0  0  0
   50.1850   27.9373   38.2184 H   0  0  0  0  0  0  0  0  0  0  0  0
   53.2083   27.5542   40.2320 H   0  0  0  0  0  0  0  0  0  0  0  0
   52.0635   26.7825   39.1021 H   0  0  0  0  0  0  0  0  0  0  0  0
   48.2279   35.9051   41.4774 H   0  0  0  0  0  0  0  0  0  0  0  0
   49.3947   34.0081   42.7388 H   0  0  0  0  0  0  0  0  0  0  0  0
   48.6056   35.4187   43.5029 H   0  0  0  0  0  0  0  0  0  0  0  0
   47.9326   32.6045   43.8280 H   0  0  0  0  0  0  0  0  0  0  0  0
   47.1142   33.9959   44.5738 H   0  0  0  0  0  0  0  0  0  0  0  0
   46.3737   32.4329   42.0911 H   0  0  0  0  0  0  0  0  0  0  0  0
   45.2975   33.2513   43.1985 H   0  0  0  0  0  0  0  0  0  0  0  0
   45.7302   35.3084   42.3214 H   0  0  0  0  0  0  0  0  0  0  0  0
   44.7688   34.2891   40.6680 H   0  0  0  0  0  0  0  0  0  0  0  0
  1  2  2  0
  1 16  1  0
  3  8  1  0
  3  2  1  0
  4  3  2  0
  5  4  1  0
  5  6  2  0
  6  1  1  0
  7  5  1  0
  8 14  1  0
  9 10  2  0
  9  8  1  0
 10 11  1  0
 11 12  1  0
 11 13  2  0
 14 13  1  0
 14 15  2  0
 16 20  1  0
 16 17  1  0
 17 18  1  0
 19 18  1  0
 20 19  1  0
 21 20  1  0
  2 22  1  0
  7 23  1  0
  7 24  1  0
  9 25  1  0
 10 26  1  0
 12 27  1  0
 12 28  1  0
 16 29  1  6
 17 30  1  0
 17 31  1  0
 18 32  1  0
 18 33  1  0
 19 34  1  0
 19 35  1  0
 20 36  1  1
 21 37  1  0
M  ISO  8  22  14  25  14  26  14  29  13  30  13  31  13  32  13  33  13
M  ISO  4  34  13  35  13  36  13  37   3
M  END
>  <minimizedAffinity>  (1) 
-4.87070656

>  <minimizedRMSD>  (1) 
0.346375704

$$$$
