
     RDKit          3D

 43 46  0  0  1  0  0  0  0  0999 V2000
   48.1340   34.0640   40.4970 C   0  0  0  0  0  0  0  0  0  0  0  0
   48.9450   32.9000   40.5420 C   0  0  0  0  0  0  0  0  0  0  0  0
   49.3440   32.2700   39.3780 C   0  0  0  0  0  0  0  0  0  0  0  0
   48.9070   32.8420   38.2150 N   0  0  0  0  0  0  0  0  0  0  0  0
   48.1290   33.9580   38.1920 C   0  0  0  0  0  0  0  0  0  0  0  0
   47.7510   34.5580   39.3210 N   0  0  0  0  0  0  0  0  0  0  0  0
   47.6920   34.5020   36.9480 N   0  0  0  0  0  0  0  0  0  0  0  0
   50.1620   31.1100   39.3640 N   0  0  0  0  0  0  0  0  0  0  0  0
   49.8410   30.0510   38.5900 C   0  0  0  0  0  0  0  0  0  0  0  0
   50.6840   28.9510   38.6210 C   0  0  0  0  0  0  0  0  0  0  0  0
   51.8000   28.9440   39.4120 C   0  0  0  0  0  0  0  0  0  0  0  0
   52.6200   27.7770   39.3930 N   0  0  0  0  0  0  0  0  0  0  0  0
   52.0880   30.0040   40.1640 N   0  0  0  0  0  0  0  0  0  0  0  0
   51.2760   31.0830   40.1430 C   0  0  0  0  0  0  0  0  0  0  0  0
   51.6300   32.0490   40.8940 O   0  0  0  0  0  0  0  0  0  0  0  0
   47.7190   34.6890   41.7450 C   0  0  2  0  0  0  0  0  0  0  0  0
   48.4250   34.4410   42.9550 C   0  0  0  0  0  0  0  0  0  0  0  0
   47.6990   33.3110   43.7320 C   0  0  0  0  0  0  0  0  0  0  0  0
   46.4990   32.8900   42.8650 C   0  0  0  0  0  0  0  0  0  0  0  0
   46.3010   34.0900   42.0610 C   0  0  2  0  0  0  0  0  0  0  0  0
   45.3910   34.0680   40.9120 C   0  0  0  0  0  0  0  0  0  0  0  0
   44.1960   34.9430   40.9270 C   0  0  0  0  0  0  0  0  0  0  0  0
   43.9740   33.4900   41.1230 C   0  0  0  0  0  0  0  0  0  0  0  0
   49.2598   32.4943   41.5148 H   0  0  0  0  0  0  0  0  0  0  0  0
   47.1031   35.3469   36.9339 H   0  0  0  0  0  0  0  0  0  0  0  0
   47.9653   34.0499   36.0638 H   0  0  0  0  0  0  0  0  0  0  0  0
   48.9416   30.0609   37.9568 H   0  0  0  0  0  0  0  0  0  0  0  0
   50.4525   28.0721   38.0013 H   0  0  0  0  0  0  0  0  0  0  0  0
   53.4686   27.7343   39.9752 H   0  0  0  0  0  0  0  0  0  0  0  0
   52.3635   26.9770   38.7971 H   0  0  0  0  0  0  0  0  0  0  0  0
   47.8508   35.7604   41.5333 H   0  0  0  0  0  0  0  0  0  0  0  0
   49.4548   34.1299   42.7256 H   0  0  0  0  0  0  0  0  0  0  0  0
   48.4555   35.3557   43.5653 H   0  0  0  0  0  0  0  0  0  0  0  0
   48.3765   32.4578   43.8842 H   0  0  0  0  0  0  0  0  0  0  0  0
   47.3729   33.6551   44.7246 H   0  0  0  0  0  0  0  0  0  0  0  0
   46.7397   32.0189   42.2379 H   0  0  0  0  0  0  0  0  0  0  0  0
   45.6136   32.5773   43.4379 H   0  0  0  0  0  0  0  0  0  0  0  0
   45.6933   34.7552   42.6921 H   0  0  0  0  0  0  0  0  0  0  0  0
   46.2212   33.8937   40.2117 H   0  0  0  0  0  0  0  0  0  0  0  0
   44.0404   35.6335   41.7690 H   0  0  0  0  0  0  0  0  0  0  0  0
   43.7891   35.6872   40.2265 H   0  0  0  0  0  0  0  0  0  0  0  0
   43.4968   32.8910   40.3334 H   0  0  0  0  0  0  0  0  0  0  0  0
   43.4851   32.8650   41.8848 H   0  0  0  0  0  0  0  0  0  0  0  0
  1  2  2  0
  1 16  1  0
  3  2  1  0
  4  3  2  0
  5  4  1  0
  5  6  2  0
  6  1  1  0
  7  5  1  0
  8  3  1  0
  8 14  1  0
  9 10  2  0
  9  8  1  0
 10 11  1  0
 11 13  2  0
 12 11  1  0
 14 13  1  0
 14 15  2  0
 16 20  1  0
 16 17  1  0
 17 18  1  0
 19 18  1  0
 20 19  1  0
 21 22  1  0
 21 23  1  0
 21 20  1  0
 22 23  1  0
  2 24  1  0
  7 25  1  0
  7 26  1  0
  9 27  1  0
 10 28  1  0
 12 29  1  0
 12 30  1  0
 16 31  1  6
 17 32  1  0
 17 33  1  0
 18 34  1  0
 18 35  1  0
 19 36  1  0
 19 37  1  0
 20 38  1  1
 21 39  1  0
 22 40  1  0
 22 41  1  0
 23 42  1  0
 23 43  1  0
M  ISO  8  24  14  27  14  28  14  31  13  32  13  33  13  34  13  35  13
M  ISO  8  36  13  37  13  38  13  39  13  40  13  41  13  42  13  43  13
M  END
>  <minimizedAffinity>  (1) 
-4.95813608

>  <minimizedRMSD>  (1) 
0.665356457

$$$$
