
     RDKit          3D

 30 32  0  0  0  0  0  0  0  0999 V2000
   46.0450   31.8130   46.2660 C   0  0  0  0  0  0  0  0  0  0  0  0
   46.8180   31.3510   47.4450 C   0  0  0  0  0  0  0  0  0  0  0  0
   46.6410   31.7260   48.7540 C   0  0  0  0  0  0  0  0  0  0  0  0
   47.5720   31.0740   49.5180 N   0  0  0  0  0  0  0  0  0  0  0  0
   48.3350   30.2900   48.7100 C   0  0  0  0  0  0  0  0  0  0  0  0
   49.3830   29.4530   48.9850 C   0  0  0  0  0  0  0  0  0  0  0  0
   50.0210   28.7370   47.9770 C   0  0  0  0  0  0  0  0  0  0  0  0
   49.5910   28.8780   46.6960 C   0  0  0  0  0  0  0  0  0  0  0  0
   48.5250   29.7310   46.4300 C   0  0  0  0  0  0  0  0  0  0  0  0
   47.8690   30.4590   47.4180 C   0  0  0  0  0  0  0  0  0  0  0  0
   46.9170   32.5870   45.2960 C   0  0  0  0  0  0  0  0  0  0  0  0
   44.5510   35.4620   45.2920 C   0  0  0  0  0  0  0  0  0  0  0  0
   44.7660   36.0030   44.0130 C   0  0  0  0  0  0  0  0  0  0  0  0
   45.7020   35.3690   43.2120 C   0  0  0  0  0  0  0  0  0  0  0  0
   46.3520   34.2870   43.6800 N   0  0  0  0  0  0  0  0  0  0  0  0
   46.1230   33.7880   44.9160 C   0  0  0  0  0  0  0  0  0  0  0  0
   45.2300   34.3730   45.7130 N   0  0  0  0  0  0  0  0  0  0  0  0
   45.6254   30.9376   45.7487 H   0  0  0  0  0  0  0  0  0  0  0  0
   45.2454   32.4810   46.6187 H   0  0  0  0  0  0  0  0  0  0  0  0
   45.8814   32.4297   49.1254 H   0  0  0  0  0  0  0  0  0  0  0  0
   47.6773   31.1629   50.5387 H   0  0  0  0  0  0  0  0  0  0  0  0
   49.7276   29.3444   50.0240 H   0  0  0  0  0  0  0  0  0  0  0  0
   50.8607   28.0670   48.2136 H   0  0  0  0  0  0  0  0  0  0  0  0
   50.0793   28.3250   45.8801 H   0  0  0  0  0  0  0  0  0  0  0  0
   48.1844   29.8351   45.3893 H   0  0  0  0  0  0  0  0  0  0  0  0
   47.8583   32.8862   45.7803 H   0  0  0  0  0  0  0  0  0  0  0  0
   47.1859   31.9817   44.4177 H   0  0  0  0  0  0  0  0  0  0  0  0
   43.8170   35.9336   45.9619 H   0  0  0  0  0  0  0  0  0  0  0  0
   44.2162   36.8894   43.6637 H   0  0  0  0  0  0  0  0  0  0  0  0
   45.9125   35.7471   42.2007 H   0  0  0  0  0  0  0  0  0  0  0  0
  1  2  1  0
  2  3  2  0
  3  4  1  0
  5  6  2  0
  5  4  1  0
  7  6  1  0
  8  7  2  0
  9  8  1  0
  9 10  2  0
 10  2  1  0
 10  5  1  0
 11  1  1  0
 12 17  2  0
 13 12  1  0
 14 15  1  0
 14 13  2  0
 15 16  2  0
 16 11  1  0
 16 17  1  0
  1 18  1  0
  1 19  1  0
  3 20  1  0
  4 21  1  0
  6 22  1  0
  7 23  1  0
  8 24  1  0
  9 25  1  0
 11 26  1  0
 11 27  1  0
 12 28  1  0
 13 29  1  0
 14 30  1  0
M  ISO  8  18   8  19   8  20  14  21   9  22  14  23  14  24  14  25  14
M  ISO  5  26   8  27   8  28  14  29  14  30  14
M  END
>  <minimizedAffinity>  (1) 
-4.8248477

>  <minimizedRMSD>  (1) 
1.65049458

$$$$
