
     RDKit          3D

 32 33  0  0  0  0  0  0  0  0999 V2000
   46.0890   32.6400   45.1640 C   0  0  0  0  0  0  0  0  0  0  0  0
   44.5870   36.0050   44.6200 C   0  0  0  0  0  0  0  0  0  0  0  0
   45.1060   36.3310   43.3330 C   0  0  0  0  0  0  0  0  0  0  0  0
   45.9330   35.4030   42.7190 C   0  0  0  0  0  0  0  0  0  0  0  0
   46.2150   34.2350   43.3500 N   0  0  0  0  0  0  0  0  0  0  0  0
   45.6950   33.9630   44.5840 C   0  0  0  0  0  0  0  0  0  0  0  0
   44.8970   34.8270   45.2110 N   0  0  0  0  0  0  0  0  0  0  0  0
   46.8100   32.9700   46.4740 C   0  0  0  0  0  0  0  0  0  0  0  0
   46.6560   31.7570   47.3710 C   0  0  0  0  0  0  0  0  0  0  0  0
   46.2910   32.1020   48.7750 C   0  0  0  0  0  0  0  0  0  0  0  0
   45.0910   31.3640   49.3130 C   0  0  0  0  0  0  0  0  0  0  0  0
   45.0980   29.8900   49.0460 C   0  0  0  0  0  0  0  0  0  0  0  0
   45.7140   29.5490   47.7070 C   0  0  0  0  0  0  0  0  0  0  0  0
   45.6200   30.7990   46.8260 C   0  0  0  0  0  0  0  0  0  0  0  0
   46.7620   32.1041   44.4785 H   0  0  0  0  0  0  0  0  0  0  0  0
   45.2176   31.9893   45.3289 H   0  0  0  0  0  0  0  0  0  0  0  0
   43.9282   36.7175   45.1380 H   0  0  0  0  0  0  0  0  0  0  0  0
   44.8591   37.2851   42.8443 H   0  0  0  0  0  0  0  0  0  0  0  0
   46.3581   35.6122   41.7263 H   0  0  0  0  0  0  0  0  0  0  0  0
   47.8750   33.1671   46.2818 H   0  0  0  0  0  0  0  0  0  0  0  0
   46.3848   33.8684   46.9453 H   0  0  0  0  0  0  0  0  0  0  0  0
   47.6474   31.2806   47.3832 H   0  0  0  0  0  0  0  0  0  0  0  0
   47.1522   31.8718   49.4195 H   0  0  0  0  0  0  0  0  0  0  0  0
   46.0248   33.1693   48.7738 H   0  0  0  0  0  0  0  0  0  0  0  0
   45.0538   31.5159   50.4018 H   0  0  0  0  0  0  0  0  0  0  0  0
   44.2126   31.7725   48.7919 H   0  0  0  0  0  0  0  0  0  0  0  0
   45.6753   29.3904   49.8379 H   0  0  0  0  0  0  0  0  0  0  0  0
   44.0529   29.5470   49.0313 H   0  0  0  0  0  0  0  0  0  0  0  0
   46.7674   29.2617   47.8403 H   0  0  0  0  0  0  0  0  0  0  0  0
   45.1848   28.7051   47.2404 H   0  0  0  0  0  0  0  0  0  0  0  0
   44.6150   31.2412   46.8923 H   0  0  0  0  0  0  0  0  0  0  0  0
   45.7982   30.5653   45.7660 H   0  0  0  0  0  0  0  0  0  0  0  0
  1  8  1  0
  2  7  2  0
  3  2  1  0
  4  3  2  0
  4  5  1  0
  5  6  2  0
  6  1  1  0
  6  7  1  0
  8  9  1  0
  9 10  1  0
 10 11  1  0
 12 11  1  0
 13 12  1  0
 14  9  1  0
 14 13  1  0
  1 15  1  0
  1 16  1  0
  2 17  1  0
  3 18  1  0
  4 19  1  0
  8 20  1  0
  8 21  1  0
  9 22  1  0
 10 23  1  0
 10 24  1  0
 11 25  1  0
 11 26  1  0
 12 27  1  0
 12 28  1  0
 13 29  1  0
 13 30  1  0
 14 31  1  0
 14 32  1  0
M  ISO  8  15   8  16   8  17  14  18  14  19  14  20   8  21   8  22  13
M  ISO  8  23  13  24  13  25  13  26  13  27  13  28  13  29  13  30  13
M  ISO  2  31  13  32  13
M  END
>  <minimizedAffinity>  (1) 
-4.58787918

>  <minimizedRMSD>  (1) 
1.31140006

$$$$
