
     RDKit          3D

 26 27  0  0  0  0  0  0  0  0999 V2000
   46.1340   32.6980   45.0860 C   0  0  0  0  0  0  0  0  0  0  0  0
   44.5790   36.0230   44.5230 C   0  0  0  0  0  0  0  0  0  0  0  0
   45.1230   36.3370   43.2420 C   0  0  0  0  0  0  0  0  0  0  0  0
   45.9750   35.4220   42.6400 C   0  0  0  0  0  0  0  0  0  0  0  0
   46.2480   34.2760   43.3030 N   0  0  0  0  0  0  0  0  0  0  0  0
   45.7220   34.0020   44.5130 C   0  0  0  0  0  0  0  0  0  0  0  0
   44.8940   34.8640   45.1230 N   0  0  0  0  0  0  0  0  0  0  0  0
   46.7350   33.0050   46.4400 C   0  0  0  0  0  0  0  0  0  0  0  0
   46.1200   32.0280   47.4010 C   0  0  0  0  0  0  0  0  0  0  0  0
   45.7790   30.7810   46.9070 C   0  0  0  0  0  0  0  0  0  0  0  0
   45.2050   29.8050   47.7090 C   0  0  0  0  0  0  0  0  0  0  0  0
   44.9780   30.1200   49.0430 C   0  0  0  0  0  0  0  0  0  0  0  0
   45.3150   31.3570   49.5330 C   0  0  0  0  0  0  0  0  0  0  0  0
   45.8860   32.3220   48.7270 C   0  0  0  0  0  0  0  0  0  0  0  0
   46.8801   32.2150   44.4379 H   0  0  0  0  0  0  0  0  0  0  0  0
   45.2804   32.0096   45.1723 H   0  0  0  0  0  0  0  0  0  0  0  0
   43.9003   36.7318   45.0200 H   0  0  0  0  0  0  0  0  0  0  0  0
   44.8724   37.2843   42.7422 H   0  0  0  0  0  0  0  0  0  0  0  0
   46.4153   35.6233   41.6523 H   0  0  0  0  0  0  0  0  0  0  0  0
   47.8270   32.8757   46.4110 H   0  0  0  0  0  0  0  0  0  0  0  0
   46.5359   34.0440   46.7414 H   0  0  0  0  0  0  0  0  0  0  0  0
   45.9687   30.5569   45.8469 H   0  0  0  0  0  0  0  0  0  0  0  0
   44.9393   28.8177   47.3033 H   0  0  0  0  0  0  0  0  0  0  0  0
   44.5250   29.3728   49.7112 H   0  0  0  0  0  0  0  0  0  0  0  0
   45.1258   31.5850   50.5924 H   0  0  0  0  0  0  0  0  0  0  0  0
   46.1496   33.3084   49.1363 H   0  0  0  0  0  0  0  0  0  0  0  0
  1  8  1  0
  2  7  2  0
  3  2  1  0
  4  3  2  0
  4  5  1  0
  5  6  2  0
  6  1  1  0
  6  7  1  0
  8  9  1  0
  9 14  1  0
 10  9  2  0
 10 11  1  0
 11 12  2  0
 12 13  1  0
 14 13  2  0
  1 15  1  0
  1 16  1  0
  2 17  1  0
  3 18  1  0
  4 19  1  0
  8 20  1  0
  8 21  1  0
 10 22  1  0
 11 23  1  0
 12 24  1  0
 13 25  1  0
 14 26  1  0
M  ISO  8  15   8  16   8  17  14  18  14  19  14  20   8  21   8  22  14
M  ISO  4  23  14  24  14  25  14  26  14
M  END
>  <minimizedAffinity>  (1) 
-4.83559275

>  <minimizedRMSD>  (1) 
1.36214256

$$$$
