
     RDKit          3D

 29 30  0  0  0  0  0  0  0  0999 V2000
   46.1440   32.5570   45.4040 C   0  0  0  0  0  0  0  0  0  0  0  0
   44.5700   35.8860   44.7940 C   0  0  0  0  0  0  0  0  0  0  0  0
   45.0570   36.1890   43.5110 C   0  0  0  0  0  0  0  0  0  0  0  0
   45.8930   35.2600   42.9080 C   0  0  0  0  0  0  0  0  0  0  0  0
   46.2000   34.1150   43.5740 N   0  0  0  0  0  0  0  0  0  0  0  0
   45.7140   33.8550   44.8080 C   0  0  0  0  0  0  0  0  0  0  0  0
   44.9010   34.7410   45.4130 N   0  0  0  0  0  0  0  0  0  0  0  0
   46.8680   32.9320   46.6830 C   0  0  0  0  0  0  0  0  0  0  0  0
   46.6950   31.9180   47.7830 C   0  0  0  0  0  0  0  0  0  0  0  0
   46.1600   30.6130   47.2720 C   0  0  0  0  0  0  0  0  0  0  0  0
   45.0470   30.1800   48.2050 C   0  0  0  0  0  0  0  0  0  0  0  0
   45.3410   31.0090   49.4620 C   0  0  0  0  0  0  0  0  0  0  0  0
   45.6710   32.3350   48.8010 C   0  0  0  0  0  0  0  0  0  0  0  0
   46.8196   32.0226   44.7199 H   0  0  0  0  0  0  0  0  0  0  0  0
   45.2922   31.8872   45.5930 H   0  0  0  0  0  0  0  0  0  0  0  0
   43.9048   36.6005   45.3010 H   0  0  0  0  0  0  0  0  0  0  0  0
   44.7858   37.1268   43.0041 H   0  0  0  0  0  0  0  0  0  0  0  0
   46.3020   35.4474   41.9042 H   0  0  0  0  0  0  0  0  0  0  0  0
   47.9412   33.0278   46.4617 H   0  0  0  0  0  0  0  0  0  0  0  0
   46.4330   33.8774   47.0392 H   0  0  0  0  0  0  0  0  0  0  0  0
   47.7036   31.8297   48.2131 H   0  0  0  0  0  0  0  0  0  0  0  0
   45.7669   30.7416   46.2527 H   0  0  0  0  0  0  0  0  0  0  0  0
   46.9557   29.8541   47.2399 H   0  0  0  0  0  0  0  0  0  0  0  0
   44.0588   30.4239   47.7879 H   0  0  0  0  0  0  0  0  0  0  0  0
   45.0184   29.0955   48.3866 H   0  0  0  0  0  0  0  0  0  0  0  0
   44.4635   31.0839   50.1211 H   0  0  0  0  0  0  0  0  0  0  0  0
   46.1205   30.6038   50.1240 H   0  0  0  0  0  0  0  0  0  0  0  0
   46.0912   33.0502   49.5235 H   0  0  0  0  0  0  0  0  0  0  0  0
   44.7990   32.8513   48.3733 H   0  0  0  0  0  0  0  0  0  0  0  0
  1  8  1  0
  2  7  2  0
  3  2  1  0
  4  3  2  0
  4  5  1  0
  5  6  2  0
  6  1  1  0
  6  7  1  0
  8  9  1  0
  9 13  1  0
 10  9  1  0
 10 11  1  0
 11 12  1  0
 13 12  1  0
  1 14  1  0
  1 15  1  0
  2 16  1  0
  3 17  1  0
  4 18  1  0
  8 19  1  0
  8 20  1  0
  9 21  1  0
 10 22  1  0
 10 23  1  0
 11 24  1  0
 11 25  1  0
 12 26  1  0
 12 27  1  0
 13 28  1  0
 13 29  1  0
M  ISO  8  14   8  15   8  16  14  17  14  18  14  19   8  20   8  21  13
M  ISO  8  22  13  23  13  24  13  25  13  26  13  27  13  28  13  29  13
M  END
>  <minimizedAffinity>  (1) 
-4.55587721

>  <minimizedRMSD>  (1) 
1.39154947

$$$$
