
     RDKit          3D

 24 25  0  0  0  0  0  0  0  0999 V2000
   46.5630   32.6950   45.0470 C   0  0  0  0  0  0  0  0  0  0  0  0
   44.5570   35.7960   44.5960 C   0  0  0  0  0  0  0  0  0  0  0  0
   45.0100   36.2330   43.3230 C   0  0  0  0  0  0  0  0  0  0  0  0
   45.9700   35.4580   42.6810 C   0  0  0  0  0  0  0  0  0  0  0  0
   46.4360   34.3260   43.2840 N   0  0  0  0  0  0  0  0  0  0  0  0
   45.9690   33.9540   44.5030 C   0  0  0  0  0  0  0  0  0  0  0  0
   45.0500   34.6710   45.1460 N   0  0  0  0  0  0  0  0  0  0  0  0
   46.8090   32.9660   46.5360 C   0  0  0  0  0  0  0  0  0  0  0  0
   46.1480   31.8970   47.3320 C   0  0  0  0  0  0  0  0  0  0  0  0
   45.9060   32.2160   48.6480 C   0  0  0  0  0  0  0  0  0  0  0  0
   45.2960   31.3070   49.4940 C   0  0  0  0  0  0  0  0  0  0  0  0
   44.9460   30.1100   49.0050 N   0  0  0  0  0  0  0  0  0  0  0  0
   45.1850   29.7930   47.7050 C   0  0  0  0  0  0  0  0  0  0  0  0
   45.7860   30.6860   46.8650 N   0  0  0  0  0  0  0  0  0  0  0  0
   47.5101   32.4654   44.5368 H   0  0  0  0  0  0  0  0  0  0  0  0
   45.8984   31.8319   44.8944 H   0  0  0  0  0  0  0  0  0  0  0  0
   43.7980   36.3810   45.1362 H   0  0  0  0  0  0  0  0  0  0  0  0
   44.6161   37.1506   42.8617 H   0  0  0  0  0  0  0  0  0  0  0  0
   46.3513   35.7558   41.6931 H   0  0  0  0  0  0  0  0  0  0  0  0
   47.8901   32.9634   46.7388 H   0  0  0  0  0  0  0  0  0  0  0  0
   46.3956   33.9475   46.8112 H   0  0  0  0  0  0  0  0  0  0  0  0
   46.2005   33.2040   49.0317 H   0  0  0  0  0  0  0  0  0  0  0  0
   45.1024   31.5619   50.5464 H   0  0  0  0  0  0  0  0  0  0  0  0
   44.8903   28.8038   47.3246 H   0  0  0  0  0  0  0  0  0  0  0  0
  1  8  1  0
  2  7  2  0
  3  2  1  0
  4  5  1  0
  4  3  2  0
  5  6  2  0
  6  1  1  0
  6  7  1  0
  8  9  1  0
  9 10  2  0
 10 11  1  0
 12 11  2  0
 13 12  1  0
 14  9  1  0
 14 13  2  0
  1 15  1  0
  1 16  1  0
  2 17  1  0
  3 18  1  0
  4 19  1  0
  8 20  1  0
  8 21  1  0
 10 22  1  0
 11 23  1  0
 13 24  1  0
M  ISO  8  15   8  16   8  17  14  18  14  19  14  20   8  21   8  22  14
M  ISO  2  23  14  24  14
M  END
>  <minimizedAffinity>  (1) 
-4.5218606

>  <minimizedRMSD>  (1) 
1.69563496

$$$$
