
     RDKit          3D

 17 17  0  0  0  0  0  0  0  0999 V2000
   44.5560   35.6420   44.8180 C   0  0  0  0  0  0  0  0  0  0  0  0
   45.2130   35.5990   43.5520 C   0  0  0  0  0  0  0  0  0  0  0  0
   46.1970   34.6440   43.3250 C   0  0  0  0  0  0  0  0  0  0  0  0
   46.4890   33.7890   44.3310 N   0  0  0  0  0  0  0  0  0  0  0  0
   45.8490   33.8490   45.5320 C   0  0  0  0  0  0  0  0  0  0  0  0
   44.8990   34.7590   45.7730 N   0  0  0  0  0  0  0  0  0  0  0  0
   46.2860   32.8420   46.5260 C   0  0  0  0  0  0  0  0  0  0  0  0
   45.1780   32.7740   47.5760 C   0  0  0  0  0  0  0  0  0  0  0  0
   45.7100   33.0130   48.8430 O   0  0  0  0  0  0  0  0  0  0  0  0
   43.7747   36.3918   45.0115 H   0  0  0  0  0  0  0  0  0  0  0  0
   44.9430   36.3156   42.7624 H   0  0  0  0  0  0  0  0  0  0  0  0
   46.7206   34.5857   42.3594 H   0  0  0  0  0  0  0  0  0  0  0  0
   46.4161   31.8617   46.0443 H   0  0  0  0  0  0  0  0  0  0  0  0
   47.2511   33.1156   46.9775 H   0  0  0  0  0  0  0  0  0  0  0  0
   44.4153   33.5341   47.3513 H   0  0  0  0  0  0  0  0  0  0  0  0
   44.7220   31.7731   47.5573 H   0  0  0  0  0  0  0  0  0  0  0  0
   45.0625   32.7221   49.5330 H   0  0  0  0  0  0  0  0  0  0  0  0
  1  6  2  0
  2  1  1  0
  3  2  2  0
  3  4  1  0
  4  5  2  0
  5  6  1  0
  5  7  1  0
  7  8  1  0
  8  9  1  0
  1 10  1  0
  2 11  1  0
  3 12  1  0
  7 13  1  0
  7 14  1  0
  8 15  1  0
  8 16  1  0
  9 17  1  0
M  ISO  8  10  14  11  14  12  14  13   8  14   8  15   8  16   8  17   3
M  END
>  <minimizedAffinity>  (1) 
-3.57004976

>  <minimizedRMSD>  (1) 
0.393130541

$$$$
