
     RDKit          3D

 36 38  0  0  1  0  0  0  0  0999 V2000
   45.7250   31.8230   47.1240 N   0  0  0  0  0  0  0  0  0  0  0  0
   45.8280   30.5750   46.4780 C   0  0  0  0  0  0  0  0  0  0  0  0
   44.8130   29.5670   47.0300 C   0  0  0  0  0  0  0  0  0  0  0  0
   45.0520   29.3420   48.3590 O   0  0  0  0  0  0  0  0  0  0  0  0
   45.1560   30.4990   49.1030 C   0  0  0  0  0  0  0  0  0  0  0  0
   46.0170   31.5780   48.5260 C   0  0  1  0  0  0  0  0  0  0  0  0
   47.4140   31.5120   48.9150 C   0  0  0  0  0  0  0  0  0  0  0  0
   48.5830   32.2330   48.8690 C   0  0  0  0  0  0  0  0  0  0  0  0
   49.6280   31.6200   49.4030 N   0  0  0  0  0  0  0  0  0  0  0  0
   49.1680   30.4320   49.8370 C   0  0  0  0  0  0  0  0  0  0  0  0
   47.8580   30.3760   49.5450 N   0  0  0  0  0  0  0  0  0  0  0  0
   46.6660   32.7080   46.5390 C   0  0  0  0  0  0  0  0  0  0  0  0
   46.6760   32.6440   45.0370 C   0  0  0  0  0  0  0  0  0  0  0  0
   44.5720   35.6940   44.7400 C   0  0  0  0  0  0  0  0  0  0  0  0
   44.9830   36.1770   43.4540 C   0  0  0  0  0  0  0  0  0  0  0  0
   45.9640   35.4470   42.7690 C   0  0  0  0  0  0  0  0  0  0  0  0
   46.4810   34.3310   43.3350 N   0  0  0  0  0  0  0  0  0  0  0  0
   46.0570   33.9160   44.5550 C   0  0  0  0  0  0  0  0  0  0  0  0
   45.1380   34.5680   45.2390 N   0  0  0  0  0  0  0  0  0  0  0  0
   46.8428   30.1781   46.6283 H   0  0  0  0  0  0  0  0  0  0  0  0
   45.6180   30.7234   45.4085 H   0  0  0  0  0  0  0  0  0  0  0  0
   43.7964   29.9684   46.9055 H   0  0  0  0  0  0  0  0  0  0  0  0
   44.9098   28.6192   46.4802 H   0  0  0  0  0  0  0  0  0  0  0  0
   44.1432   30.9091   49.2298 H   0  0  0  0  0  0  0  0  0  0  0  0
   45.6443   30.2026   50.0430 H   0  0  0  0  0  0  0  0  0  0  0  0
   45.7246   32.5186   49.0157 H   0  0  0  0  0  0  0  0  0  0  0  0
   48.6454   33.2374   48.4248 H   0  0  0  0  0  0  0  0  0  0  0  0
   49.7569   29.6501   50.3389 H   0  0  0  0  0  0  0  0  0  0  0  0
   47.2548   29.5716   49.7685 H   0  0  0  0  0  0  0  0  0  0  0  0
   46.4184   33.7353   46.8446 H   0  0  0  0  0  0  0  0  0  0  0  0
   47.6642   32.4056   46.8884 H   0  0  0  0  0  0  0  0  0  0  0  0
   47.7084   32.5595   44.6669 H   0  0  0  0  0  0  0  0  0  0  0  0
   46.1205   31.7675   44.6721 H   0  0  0  0  0  0  0  0  0  0  0  0
   43.8048   36.2321   45.3160 H   0  0  0  0  0  0  0  0  0  0  0  0
   44.5441   37.0878   43.0206 H   0  0  0  0  0  0  0  0  0  0  0  0
   46.3112   35.7782   41.7792 H   0  0  0  0  0  0  0  0  0  0  0  0
  1  6  1  0
  2  3  1  0
  2  1  1  0
  3  4  1  0
  4  5  1  0
  6  7  1  0
  6  5  1  0
  7 11  1  0
  8  7  2  0
  8  9  1  0
  9 10  2  0
 11 10  1  0
 12  1  1  0
 13 12  1  0
 14 19  2  0
 15 14  1  0
 16 17  1  0
 16 15  2  0
 17 18  2  0
 18 13  1  0
 18 19  1  0
  2 20  1  0
  2 21  1  0
  3 22  1  0
  3 23  1  0
  5 24  1  0
  5 25  1  0
  6 26  1  1
  8 27  1  0
 10 28  1  0
 11 29  1  0
 12 30  1  0
 12 31  1  0
 13 32  1  0
 13 33  1  0
 14 34  1  0
 15 35  1  0
 16 36  1  0
M  ISO  8  20  13  21  13  22  13  23  13  24  13  25  13  26  13  27  14
M  ISO  8  28  14  29   9  30   8  31   8  32   8  33   8  34  14  35  14
M  ISO  1  36  14
M  END
>  <minimizedAffinity>  (1) 
-5.49879265

>  <minimizedRMSD>  (1) 
0.713492513

$$$$
