
     RDKit          3D

 29 30  0  0  0  0  0  0  0  0999 V2000
   46.6100   32.7470   45.1460 C   0  0  0  0  0  0  0  0  0  0  0  0
   44.5570   35.8050   44.5530 C   0  0  0  0  0  0  0  0  0  0  0  0
   45.0280   36.2100   43.2720 C   0  0  0  0  0  0  0  0  0  0  0  0
   46.0180   35.4260   42.6790 C   0  0  0  0  0  0  0  0  0  0  0  0
   46.4930   34.3280   43.3200 N   0  0  0  0  0  0  0  0  0  0  0  0
   46.0130   33.9750   44.5460 C   0  0  0  0  0  0  0  0  0  0  0  0
   45.0710   34.6970   45.1420 N   0  0  0  0  0  0  0  0  0  0  0  0
   46.6440   32.9790   46.6490 C   0  0  0  0  0  0  0  0  0  0  0  0
   45.6810   32.1660   47.3400 N   0  0  0  0  0  0  0  0  0  0  0  0
   45.8500   30.7890   46.9140 C   0  0  0  0  0  0  0  0  0  0  0  0
   44.9240   29.8590   47.6670 C   0  0  0  0  0  0  0  0  0  0  0  0
   45.0590   29.9530   49.0290 O   0  0  0  0  0  0  0  0  0  0  0  0
   45.1260   31.2400   49.5230 C   0  0  0  0  0  0  0  0  0  0  0  0
   46.0390   32.1580   48.7670 C   0  0  0  0  0  0  0  0  0  0  0  0
   47.6289   32.5919   44.7615 H   0  0  0  0  0  0  0  0  0  0  0  0
   46.0224   31.8522   44.8929 H   0  0  0  0  0  0  0  0  0  0  0  0
   43.7778   36.3896   45.0639 H   0  0  0  0  0  0  0  0  0  0  0  0
   44.6281   37.1037   42.7707 H   0  0  0  0  0  0  0  0  0  0  0  0
   46.4145   35.6983   41.6897 H   0  0  0  0  0  0  0  0  0  0  0  0
   47.6491   32.7351   47.0236 H   0  0  0  0  0  0  0  0  0  0  0  0
   46.3955   34.0341   46.8362 H   0  0  0  0  0  0  0  0  0  0  0  0
   45.6310   30.7180   45.8384 H   0  0  0  0  0  0  0  0  0  0  0  0
   46.8871   30.4875   47.1227 H   0  0  0  0  0  0  0  0  0  0  0  0
   43.8860   30.1065   47.4000 H   0  0  0  0  0  0  0  0  0  0  0  0
   45.1882   28.8302   47.3811 H   0  0  0  0  0  0  0  0  0  0  0  0
   44.1133   31.6688   49.4988 H   0  0  0  0  0  0  0  0  0  0  0  0
   45.5400   31.1600   50.5390 H   0  0  0  0  0  0  0  0  0  0  0  0
   47.0771   31.8121   48.8796 H   0  0  0  0  0  0  0  0  0  0  0  0
   45.9378   33.1769   49.1689 H   0  0  0  0  0  0  0  0  0  0  0  0
  1  8  1  0
  2  7  2  0
  3  2  1  0
  4  3  2  0
  4  5  1  0
  5  6  2  0
  6  7  1  0
  6  1  1  0
  8  9  1  0
  9 14  1  0
 10  9  1  0
 10 11  1  0
 11 12  1  0
 12 13  1  0
 14 13  1  0
  1 15  1  0
  1 16  1  0
  2 17  1  0
  3 18  1  0
  4 19  1  0
  8 20  1  0
  8 21  1  0
 10 22  1  0
 10 23  1  0
 11 24  1  0
 11 25  1  0
 13 26  1  0
 13 27  1  0
 14 28  1  0
 14 29  1  0
M  ISO  8  15   8  16   8  17  14  18  14  19  14  20   8  21   8  22  13
M  ISO  7  23  13  24  13  25  13  26  13  27  13  28  13  29  13
M  END
>  <minimizedAffinity>  (1) 
-4.49442434

>  <minimizedRMSD>  (1) 
1.67336488

$$$$
