
     RDKit          3D

 39 41  0  0  1  0  0  0  0  0999 V2000
   45.8730   31.8260   47.2390 N   0  0  0  0  0  0  0  0  0  0  0  0
   45.7070   30.6870   46.4310 C   0  0  0  0  0  0  0  0  0  0  0  0
   44.7090   29.6960   47.0400 C   0  0  0  0  0  0  0  0  0  0  0  0
   45.1290   29.2700   48.2650 O   0  0  0  0  0  0  0  0  0  0  0  0
   45.4700   30.3030   49.1160 C   0  0  0  0  0  0  0  0  0  0  0  0
   46.3430   31.3730   48.5350 C   0  0  1  0  0  0  0  0  0  0  0  0
   47.7640   31.1340   48.6880 C   0  0  0  0  0  0  0  0  0  0  0  0
   48.1620   29.8710   48.2210 C   0  0  0  0  0  0  0  0  0  0  0  0
   49.4590   29.3980   48.2830 C   0  0  0  0  0  0  0  0  0  0  0  0
   50.4390   30.1850   48.8270 C   0  0  0  0  0  0  0  0  0  0  0  0
   50.1110   31.4190   49.2970 C   0  0  0  0  0  0  0  0  0  0  0  0
   48.8240   31.8350   49.2120 C   0  0  0  0  0  0  0  0  0  0  0  0
   46.7880   32.7110   46.6310 C   0  0  0  0  0  0  0  0  0  0  0  0
   46.8060   32.6320   45.1320 C   0  0  0  0  0  0  0  0  0  0  0  0
   44.5880   35.6150   44.8060 C   0  0  0  0  0  0  0  0  0  0  0  0
   44.9790   36.0960   43.5200 C   0  0  0  0  0  0  0  0  0  0  0  0
   45.9860   35.3870   42.8400 C   0  0  0  0  0  0  0  0  0  0  0  0
   46.5330   34.3010   43.4190 N   0  0  0  0  0  0  0  0  0  0  0  0
   46.1280   33.8840   44.6430 C   0  0  0  0  0  0  0  0  0  0  0  0
   45.1880   34.5150   45.3190 N   0  0  0  0  0  0  0  0  0  0  0  0
   46.6801   30.1870   46.3166 H   0  0  0  0  0  0  0  0  0  0  0  0
   45.3127   31.0137   45.4574 H   0  0  0  0  0  0  0  0  0  0  0  0
   43.7316   30.1894   47.1464 H   0  0  0  0  0  0  0  0  0  0  0  0
   44.6302   28.8242   46.3739 H   0  0  0  0  0  0  0  0  0  0  0  0
   44.5388   30.7779   49.4586 H   0  0  0  0  0  0  0  0  0  0  0  0
   46.0626   29.8413   49.9195 H   0  0  0  0  0  0  0  0  0  0  0  0
   46.2262   32.2669   49.1653 H   0  0  0  0  0  0  0  0  0  0  0  0
   47.3947   29.2184   47.7789 H   0  0  0  0  0  0  0  0  0  0  0  0
   49.7025   28.3967   47.8982 H   0  0  0  0  0  0  0  0  0  0  0  0
   51.4767   29.8245   48.8832 H   0  0  0  0  0  0  0  0  0  0  0  0
   50.8795   32.0697   49.7397 H   0  0  0  0  0  0  0  0  0  0  0  0
   48.6045   32.8393   49.6035 H   0  0  0  0  0  0  0  0  0  0  0  0
   46.5210   33.7381   46.9205 H   0  0  0  0  0  0  0  0  0  0  0  0
   47.7909   32.4216   46.9781 H   0  0  0  0  0  0  0  0  0  0  0  0
   47.8417   32.5893   44.7638 H   0  0  0  0  0  0  0  0  0  0  0  0
   46.2939   31.7284   44.7697 H   0  0  0  0  0  0  0  0  0  0  0  0
   43.8042   36.1348   45.3765 H   0  0  0  0  0  0  0  0  0  0  0  0
   44.5105   36.9875   43.0775 H   0  0  0  0  0  0  0  0  0  0  0  0
   46.3230   35.7161   41.8460 H   0  0  0  0  0  0  0  0  0  0  0  0
  1  6  1  0
  2  3  1  0
  2  1  1  0
  3  4  1  0
  4  5  1  0
  6  7  1  0
  6  5  1  0
  7 12  2  0
  8  9  2  0
  8  7  1  0
  9 10  1  0
 10 11  2  0
 12 11  1  0
 13  1  1  0
 14 13  1  0
 15 20  2  0
 16 15  1  0
 17 18  1  0
 17 16  2  0
 18 19  2  0
 19 14  1  0
 19 20  1  0
  2 21  1  0
  2 22  1  0
  3 23  1  0
  3 24  1  0
  5 25  1  0
  5 26  1  0
  6 27  1  1
  8 28  1  0
  9 29  1  0
 10 30  1  0
 11 31  1  0
 12 32  1  0
 13 33  1  0
 13 34  1  0
 14 35  1  0
 14 36  1  0
 15 37  1  0
 16 38  1  0
 17 39  1  0
M  ISO  8  21  13  22  13  23  13  24  13  25  13  26  13  27  13  28  14
M  ISO  8  29  14  30  14  31  14  32  14  33   8  34   8  35   8  36   8
M  ISO  3  37  14  38  14  39  14
M  END
>  <minimizedAffinity>  (1) 
-5.23933744

>  <minimizedRMSD>  (1) 
1.19718826

$$$$
