
     RDKit          3D

 30 31  0  0  1  0  0  0  0  0999 V2000
   46.6870   32.9280   46.7170 C   0  0  0  0  0  0  0  0  0  0  0  0
   45.6950   32.1190   47.3510 N   0  0  0  0  0  0  0  0  0  0  0  0
   45.9230   30.7760   46.9790 C   0  0  0  0  0  0  0  0  0  0  0  0
   44.9350   29.8530   47.6830 C   0  0  0  0  0  0  0  0  0  0  0  0
   44.9960   29.9370   49.0360 O   0  0  0  0  0  0  0  0  0  0  0  0
   45.0880   31.2210   49.5470 C   0  0  0  0  0  0  0  0  0  0  0  0
   46.0030   32.1450   48.8060 C   0  0  1  0  0  0  0  0  0  0  0  0
   47.3270   31.8420   49.0200 O   0  0  0  0  0  0  0  0  0  0  0  0
   46.7560   32.7570   45.2450 C   0  0  0  0  0  0  0  0  0  0  0  0
   44.5630   35.7090   44.6190 C   0  0  0  0  0  0  0  0  0  0  0  0
   45.0210   36.1000   43.3180 C   0  0  0  0  0  0  0  0  0  0  0  0
   46.0500   35.3510   42.7350 C   0  0  0  0  0  0  0  0  0  0  0  0
   46.5670   34.3040   43.4090 N   0  0  0  0  0  0  0  0  0  0  0  0
   46.1040   33.9690   44.6380 C   0  0  0  0  0  0  0  0  0  0  0  0
   45.1300   34.6470   45.2350 N   0  0  0  0  0  0  0  0  0  0  0  0
   46.4620   33.9830   46.9323 H   0  0  0  0  0  0  0  0  0  0  0  0
   47.6604   32.6112   47.1197 H   0  0  0  0  0  0  0  0  0  0  0  0
   45.7998   30.6758   45.8905 H   0  0  0  0  0  0  0  0  0  0  0  0
   46.9450   30.4938   47.2721 H   0  0  0  0  0  0  0  0  0  0  0  0
   43.9174   30.1198   47.3617 H   0  0  0  0  0  0  0  0  0  0  0  0
   45.1981   28.8211   47.4073 H   0  0  0  0  0  0  0  0  0  0  0  0
   44.0805   31.6624   49.5380 H   0  0  0  0  0  0  0  0  0  0  0  0
   45.5165   31.1152   50.5546 H   0  0  0  0  0  0  0  0  0  0  0  0
   45.8315   33.1597   49.1945 H   0  0  0  0  0  0  0  0  0  0  0  0
   47.5032   31.8017   49.9934 H   0  0  0  0  0  0  0  0  0  0  0  0
   47.8047   32.6879   44.9201 H   0  0  0  0  0  0  0  0  0  0  0  0
   46.2471   31.8342   44.9296 H   0  0  0  0  0  0  0  0  0  0  0  0
   43.7555   36.2693   45.1130 H   0  0  0  0  0  0  0  0  0  0  0  0
   44.5783   36.9605   42.7949 H   0  0  0  0  0  0  0  0  0  0  0  0
   46.4326   35.6138   41.7377 H   0  0  0  0  0  0  0  0  0  0  0  0
  1  2  1  0
  2  7  1  0
  3  2  1  0
  3  4  1  0
  4  5  1  0
  5  6  1  0
  7  8  1  0
  7  6  1  0
  9  1  1  0
 10 15  2  0
 11 10  1  0
 12 11  2  0
 12 13  1  0
 13 14  2  0
 14 15  1  0
 14  9  1  0
  1 16  1  0
  1 17  1  0
  3 18  1  0
  3 19  1  0
  4 20  1  0
  4 21  1  0
  6 22  1  0
  6 23  1  0
  7 24  1  1
  8 25  1  0
  9 26  1  0
  9 27  1  0
 10 28  1  0
 11 29  1  0
 12 30  1  0
M  ISO  8  16   8  17   8  18  13  19  13  20  13  21  13  22  13  23  13
M  ISO  7  24  13  25   3  26   8  27   8  28  14  29  14  30  14
M  END
>  <minimizedAffinity>  (1) 
-4.86401176

>  <minimizedRMSD>  (1) 
0.0997676328

$$$$
