
     RDKit          3D

 37 39  0  0  1  0  0  0  0  0999 V2000
   47.2550   31.3240   47.1360 N   0  0  0  0  0  0  0  0  0  0  0  0
   47.5960   32.1850   48.2160 C   0  0  0  0  0  0  0  0  0  0  0  0
   48.8460   31.7050   48.9400 C   0  0  0  0  0  0  0  0  0  0  0  0
   48.7310   30.4290   49.3940 O   0  0  0  0  0  0  0  0  0  0  0  0
   48.2440   29.5300   48.4640 C   0  0  0  0  0  0  0  0  0  0  0  0
   47.0080   30.0360   47.7760 C   0  0  2  0  0  0  0  0  0  0  0  0
   46.3330   29.0380   46.9740 C   0  0  0  0  0  0  0  0  0  0  0  0
   45.1450   28.5350   47.4820 C   0  0  0  0  0  0  0  0  0  0  0  0
   44.3570   27.5800   46.8330 C   0  0  0  0  0  0  0  0  0  0  0  0
   44.7330   27.0840   45.6300 N   0  0  0  0  0  0  0  0  0  0  0  0
   45.8880   27.5780   45.1410 C   0  0  0  0  0  0  0  0  0  0  0  0
   46.5970   28.4790   45.7910 N   0  0  0  0  0  0  0  0  0  0  0  0
   46.0730   31.7820   46.5020 C   0  0  0  0  0  0  0  0  0  0  0  0
   45.6040   33.1220   46.9220 C   0  0  0  0  0  0  0  0  0  0  0  0
   46.1320   34.5030   43.4850 C   0  0  0  0  0  0  0  0  0  0  0  0
   45.2660   35.6280   43.5100 C   0  0  0  0  0  0  0  0  0  0  0  0
   44.5510   35.8530   44.6740 C   0  0  0  0  0  0  0  0  0  0  0  0
   44.6970   35.0150   45.7220 N   0  0  0  0  0  0  0  0  0  0  0  0
   45.5320   33.9510   45.6630 C   0  0  0  0  0  0  0  0  0  0  0  0
   46.2440   33.6930   44.5600 N   0  0  0  0  0  0  0  0  0  0  0  0
   47.7768   33.1964   47.8232 H   0  0  0  0  0  0  0  0  0  0  0  0
   46.7615   32.1862   48.9327 H   0  0  0  0  0  0  0  0  0  0  0  0
   49.6969   31.7560   48.2448 H   0  0  0  0  0  0  0  0  0  0  0  0
   48.9953   32.3566   49.8135 H   0  0  0  0  0  0  0  0  0  0  0  0
   49.0211   29.3481   47.7070 H   0  0  0  0  0  0  0  0  0  0  0  0
   47.9783   28.6050   48.9967 H   0  0  0  0  0  0  0  0  0  0  0  0
   46.2507   30.2431   48.5465 H   0  0  0  0  0  0  0  0  0  0  0  0
   44.8010   28.9110   48.4568 H   0  0  0  0  0  0  0  0  0  0  0  0
   43.4259   27.2292   47.3021 H   0  0  0  0  0  0  0  0  0  0  0  0
   46.2507   27.2172   44.1672 H   0  0  0  0  0  0  0  0  0  0  0  0
   45.2716   31.0597   46.7163 H   0  0  0  0  0  0  0  0  0  0  0  0
   46.3171   31.8683   45.4329 H   0  0  0  0  0  0  0  0  0  0  0  0
   44.6109   33.0501   47.3896 H   0  0  0  0  0  0  0  0  0  0  0  0
   46.2814   33.5721   47.6626 H   0  0  0  0  0  0  0  0  0  0  0  0
   46.7186   34.2886   42.5795 H   0  0  0  0  0  0  0  0  0  0  0  0
   45.1672   36.2937   42.6399 H   0  0  0  0  0  0  0  0  0  0  0  0
   43.8666   36.7113   44.7445 H   0  0  0  0  0  0  0  0  0  0  0  0
  1  6  1  0
  1  2  1  0
  2  3  1  0
  3  4  1  0
  5  4  1  0
  6  5  1  0
  7  8  2  0
  7  6  1  0
  9  8  1  0
 10  9  2  0
 11 10  1  0
 11 12  2  0
 12  7  1  0
 13 14  1  0
 13  1  1  0
 15 16  2  0
 15 20  1  0
 16 17  1  0
 17 18  2  0
 19 18  1  0
 19 14  1  0
 20 19  2  0
  2 21  1  0
  2 22  1  0
  3 23  1  0
  3 24  1  0
  5 25  1  0
  5 26  1  0
  6 27  1  1
  8 28  1  0
  9 29  1  0
 11 30  1  0
 13 31  1  0
 13 32  1  0
 14 33  1  0
 14 34  1  0
 15 35  1  0
 16 36  1  0
 17 37  1  0
M  ISO  8  21  13  22  13  23  13  24  13  25  13  26  13  27  13  28  14
M  ISO  8  29  14  30  14  31   8  32   8  33   8  34   8  35  14  36  14
M  ISO  1  37  14
M  END
>  <minimizedAffinity>  (1) 
-4.56738997

>  <minimizedRMSD>  (1) 
4.94401073

$$$$
