
     RDKit          3D

 41 42  0  0  1  0  0  0  0  0999 V2000
   45.8630   31.1590   45.8880 N   0  0  0  0  0  0  0  0  0  0  0  0
   46.1010   30.1980   44.8240 C   0  0  0  0  0  0  0  0  0  0  0  0
   45.3000   28.9490   44.8940 C   0  0  0  0  0  0  0  0  0  0  0  0
   45.1910   28.3820   46.1090 O   0  0  0  0  0  0  0  0  0  0  0  0
   44.9230   29.2910   47.1320 C   0  0  0  0  0  0  0  0  0  0  0  0
   45.9070   30.4430   47.1230 C   0  0  2  0  0  0  0  0  0  0  0  0
   45.8800   31.1530   48.4180 C   0  0  0  0  0  0  0  0  0  0  0  0
   47.3500   31.0990   48.9430 C   0  0  0  0  0  0  0  0  0  0  0  0
   45.7050   32.6820   48.2950 C   0  0  0  0  0  0  0  0  0  0  0  0
   45.0460   30.5670   49.5010 C   0  0  0  0  0  0  0  0  0  0  0  0
   46.8140   32.1970   45.8370 C   0  0  0  0  0  0  0  0  0  0  0  0
   47.1040   32.7620   44.4830 C   0  0  0  0  0  0  0  0  0  0  0  0
   44.6100   35.4840   45.0260 C   0  0  0  0  0  0  0  0  0  0  0  0
   44.7260   36.2260   43.8300 C   0  0  0  0  0  0  0  0  0  0  0  0
   45.6350   35.7610   42.8960 C   0  0  0  0  0  0  0  0  0  0  0  0
   46.3710   34.6410   43.1390 N   0  0  0  0  0  0  0  0  0  0  0  0
   46.2410   33.9530   44.2910 C   0  0  0  0  0  0  0  0  0  0  0  0
   45.3710   34.3730   45.2190 N   0  0  0  0  0  0  0  0  0  0  0  0
   47.1648   29.9194   44.8517 H   0  0  0  0  0  0  0  0  0  0  0  0
   45.7955   30.6987   43.8934 H   0  0  0  0  0  0  0  0  0  0  0  0
   44.2849   29.1807   44.5392 H   0  0  0  0  0  0  0  0  0  0  0  0
   45.8395   28.2175   44.2745 H   0  0  0  0  0  0  0  0  0  0  0  0
   43.9060   29.6886   46.9995 H   0  0  0  0  0  0  0  0  0  0  0  0
   45.0157   28.7654   48.0938 H   0  0  0  0  0  0  0  0  0  0  0  0
   46.9552   30.1104   47.0961 H   0  0  0  0  0  0  0  0  0  0  0  0
   47.3467   31.0991   50.0430 H   0  0  0  0  0  0  0  0  0  0  0  0
   47.8363   30.1824   48.5779 H   0  0  0  0  0  0  0  0  0  0  0  0
   47.9023   31.9775   48.5779 H   0  0  0  0  0  0  0  0  0  0  0  0
   45.6540   33.1272   49.2996 H   0  0  0  0  0  0  0  0  0  0  0  0
   46.5605   33.1062   47.7489 H   0  0  0  0  0  0  0  0  0  0  0  0
   44.7758   32.9020   47.7489 H   0  0  0  0  0  0  0  0  0  0  0  0
   45.4583   30.8567   50.4788 H   0  0  0  0  0  0  0  0  0  0  0  0
   44.0151   30.9403   49.4126 H   0  0  0  0  0  0  0  0  0  0  0  0
   45.0478   29.4706   49.4126 H   0  0  0  0  0  0  0  0  0  0  0  0
   46.4490   33.0178   46.4718 H   0  0  0  0  0  0  0  0  0  0  0  0
   47.7587   31.7471   46.1763 H   0  0  0  0  0  0  0  0  0  0  0  0
   48.1627   33.0535   44.4187 H   0  0  0  0  0  0  0  0  0  0  0  0
   46.9012   32.0125   43.7038 H   0  0  0  0  0  0  0  0  0  0  0  0
   43.9020   35.8054   45.8041 H   0  0  0  0  0  0  0  0  0  0  0  0
   44.1237   37.1287   43.6499 H   0  0  0  0  0  0  0  0  0  0  0  0
   45.7646   36.3018   41.9469 H   0  0  0  0  0  0  0  0  0  0  0  0
  1  6  1  0
  2  3  1  0
  2  1  1  0
  3  4  1  0
  4  5  1  0
  6  5  1  0
  6  7  1  0
  7  8  1  0
  7 10  1  0
  9  7  1  0
 11  1  1  0
 12 11  1  0
 13 18  2  0
 14 13  1  0
 15 16  1  0
 15 14  2  0
 16 17  2  0
 17 12  1  0
 17 18  1  0
  2 19  1  0
  2 20  1  0
  3 21  1  0
  3 22  1  0
  5 23  1  0
  5 24  1  0
  6 25  1  6
  8 26  1  0
  8 27  1  0
  8 28  1  0
  9 29  1  0
  9 30  1  0
  9 31  1  0
 10 32  1  0
 10 33  1  0
 10 34  1  0
 11 35  1  0
 11 36  1  0
 12 37  1  0
 12 38  1  0
 13 39  1  0
 14 40  1  0
 15 41  1  0
M  ISO  8  19  13  20  13  21  13  22  13  23  13  24  13  25  13  26   8
M  ISO  8  27   8  28   8  29   8  30   8  31   8  32   8  33   8  34   8
M  ISO  7  35   8  36   8  37   8  38   8  39  14  40  14  41  14
M  END
>  <minimizedAffinity>  (1) 
-4.55185652

>  <minimizedRMSD>  (1) 
2.06682944

$$$$
