
     RDKit          3D

 44 46  0  0  1  0  0  0  0  0999 V2000
   45.9090   31.3320   46.5480 N   0  0  0  0  0  0  0  0  0  0  0  0
   45.5450   30.2220   45.7340 C   0  0  0  0  0  0  0  0  0  0  0  0
   44.6550   29.2310   46.4240 C   0  0  0  0  0  0  0  0  0  0  0  0
   45.1620   28.8020   47.6290 O   0  0  0  0  0  0  0  0  0  0  0  0
   45.5380   29.8310   48.4500 C   0  0  0  0  0  0  0  0  0  0  0  0
   46.4150   30.8500   47.8250 C   0  0  1  0  0  0  0  0  0  0  0  0
   47.8130   30.6600   47.9120 N   0  0  0  0  0  0  0  0  0  0  0  0
   48.3520   29.3620   47.8550 C   0  0  0  0  0  0  0  0  0  0  0  0
   49.8830   29.5330   47.7640 C   0  0  0  0  0  0  0  0  0  0  0  0
   50.3480   29.8230   49.1920 C   0  0  0  0  0  0  0  0  0  0  0  0
   49.2340   30.5260   49.9350 C   0  0  0  0  0  0  0  0  0  0  0  0
   48.3890   31.3810   49.0290 C   0  0  0  0  0  0  0  0  0  0  0  0
   46.8840   32.1510   45.9310 C   0  0  0  0  0  0  0  0  0  0  0  0
   46.6360   32.4440   44.4930 C   0  0  0  0  0  0  0  0  0  0  0  0
   44.6230   35.4690   45.3070 C   0  0  0  0  0  0  0  0  0  0  0  0
   44.7350   36.2130   44.1000 C   0  0  0  0  0  0  0  0  0  0  0  0
   45.4770   35.6400   43.0760 C   0  0  0  0  0  0  0  0  0  0  0  0
   46.0540   34.4280   43.2500 N   0  0  0  0  0  0  0  0  0  0  0  0
   45.9290   33.7450   44.4140 C   0  0  0  0  0  0  0  0  0  0  0  0
   45.2300   34.2600   45.4080 N   0  0  0  0  0  0  0  0  0  0  0  0
   46.4642   29.7044   45.4223 H   0  0  0  0  0  0  0  0  0  0  0  0
   44.9775   30.6227   44.8812 H   0  0  0  0  0  0  0  0  0  0  0  0
   43.6774   29.7026   46.6028 H   0  0  0  0  0  0  0  0  0  0  0  0
   44.5723   28.3509   45.7694 H   0  0  0  0  0  0  0  0  0  0  0  0
   44.6263   30.3363   48.8015 H   0  0  0  0  0  0  0  0  0  0  0  0
   46.1281   29.3756   49.2589 H   0  0  0  0  0  0  0  0  0  0  0  0
   46.3281   31.7049   48.5118 H   0  0  0  0  0  0  0  0  0  0  0  0
   48.0848   28.7984   48.7611 H   0  0  0  0  0  0  0  0  0  0  0  0
   47.9599   28.8035   46.9922 H   0  0  0  0  0  0  0  0  0  0  0  0
   50.3509   28.6116   47.3871 H   0  0  0  0  0  0  0  0  0  0  0  0
   50.1627   30.3410   47.0720 H   0  0  0  0  0  0  0  0  0  0  0  0
   50.5925   28.8785   49.7000 H   0  0  0  0  0  0  0  0  0  0  0  0
   51.2435   30.4614   49.1706 H   0  0  0  0  0  0  0  0  0  0  0  0
   48.5909   29.7683   50.4064 H   0  0  0  0  0  0  0  0  0  0  0  0
   49.6955   31.1862   50.6841 H   0  0  0  0  0  0  0  0  0  0  0  0
   49.0179   32.1912   48.6313 H   0  0  0  0  0  0  0  0  0  0  0  0
   47.5504   31.7562   49.6340 H   0  0  0  0  0  0  0  0  0  0  0  0
   46.9202   33.1073   46.4735 H   0  0  0  0  0  0  0  0  0  0  0  0
   47.8297   31.5908   45.9735 H   0  0  0  0  0  0  0  0  0  0  0  0
   47.5921   32.5037   43.9524 H   0  0  0  0  0  0  0  0  0  0  0  0
   46.0301   31.6476   44.0362 H   0  0  0  0  0  0  0  0  0  0  0  0
   44.0476   35.8716   46.1536 H   0  0  0  0  0  0  0  0  0  0  0  0
   44.2561   37.1964   43.9833 H   0  0  0  0  0  0  0  0  0  0  0  0
   45.5963   36.1723   42.1208 H   0  0  0  0  0  0  0  0  0  0  0  0
  1  6  1  0
  2  3  1  0
  2  1  1  0
  3  4  1  0
  4  5  1  0
  6  7  1  0
  6  5  1  0
  7 12  1  0
  8  7  1  0
  9  8  1  0
  9 10  1  0
 10 11  1  0
 12 11  1  0
 13  1  1  0
 14 13  1  0
 15 20  2  0
 16 15  1  0
 17 18  1  0
 17 16  2  0
 18 19  2  0
 19 14  1  0
 19 20  1  0
  2 21  1  0
  2 22  1  0
  3 23  1  0
  3 24  1  0
  5 25  1  0
  5 26  1  0
  6 27  1  1
  8 28  1  0
  8 29  1  0
  9 30  1  0
  9 31  1  0
 10 32  1  0
 10 33  1  0
 11 34  1  0
 11 35  1  0
 12 36  1  0
 12 37  1  0
 13 38  1  0
 13 39  1  0
 14 40  1  0
 14 41  1  0
 15 42  1  0
 16 43  1  0
 17 44  1  0
M  ISO  8  21  13  22  13  23  13  24  13  25  13  26  13  27  13  28  13
M  ISO  8  29  13  30  13  31  13  32  13  33  13  34  13  35  13  36  13
M  ISO  8  37  13  38   8  39   8  40   8  41   8  42  14  43  14  44  14
M  END
>  <minimizedAffinity>  (1) 
-4.86030579

>  <minimizedRMSD>  (1) 
1.54753411

$$$$
