
     RDKit          3D

 36 38  0  0  1  0  0  0  0  0999 V2000
   45.7850   31.5290   46.9350 N   0  0  0  0  0  0  0  0  0  0  0  0
   45.7630   30.4080   46.0840 C   0  0  0  0  0  0  0  0  0  0  0  0
   44.6830   29.4120   46.5160 C   0  0  0  0  0  0  0  0  0  0  0  0
   44.9360   28.9450   47.7760 O   0  0  0  0  0  0  0  0  0  0  0  0
   45.2510   29.9030   48.6990 C   0  0  0  0  0  0  0  0  0  0  0  0
   46.1360   31.0170   48.2600 C   0  0  1  0  0  0  0  0  0  0  0  0
   47.5300   30.7910   48.4510 N   0  0  0  0  0  0  0  0  0  0  0  0
   48.3380   29.7400   48.1170 C   0  0  0  0  0  0  0  0  0  0  0  0
   49.6430   29.9320   48.4880 C   0  0  0  0  0  0  0  0  0  0  0  0
   49.6760   31.1370   49.0760 N   0  0  0  0  0  0  0  0  0  0  0  0
   48.4140   31.6370   49.0470 C   0  0  0  0  0  0  0  0  0  0  0  0
   46.8040   32.4170   46.4790 C   0  0  0  0  0  0  0  0  0  0  0  0
   46.7990   32.5420   44.9880 C   0  0  0  0  0  0  0  0  0  0  0  0
   44.5880   35.5190   45.1320 C   0  0  0  0  0  0  0  0  0  0  0  0
   44.8330   36.1050   43.8470 C   0  0  0  0  0  0  0  0  0  0  0  0
   45.7580   35.4590   43.0080 C   0  0  0  0  0  0  0  0  0  0  0  0
   46.3770   34.3280   43.4250 N   0  0  0  0  0  0  0  0  0  0  0  0
   46.0990   33.8230   44.6590 C   0  0  0  0  0  0  0  0  0  0  0  0
   45.2410   34.3880   45.4860 N   0  0  0  0  0  0  0  0  0  0  0  0
   46.7441   29.9117   46.1175 H   0  0  0  0  0  0  0  0  0  0  0  0
   45.5377   30.7480   45.0624 H   0  0  0  0  0  0  0  0  0  0  0  0
   43.7039   29.9133   46.5060 H   0  0  0  0  0  0  0  0  0  0  0  0
   44.6828   28.5632   45.8163 H   0  0  0  0  0  0  0  0  0  0  0  0
   44.3072   30.3492   49.0457 H   0  0  0  0  0  0  0  0  0  0  0  0
   45.8309   29.3711   49.4677 H   0  0  0  0  0  0  0  0  0  0  0  0
   45.9240   31.8370   48.9619 H   0  0  0  0  0  0  0  0  0  0  0  0
   47.9784   28.8356   47.6045 H   0  0  0  0  0  0  0  0  0  0  0  0
   50.4865   29.2426   48.3356 H   0  0  0  0  0  0  0  0  0  0  0  0
   48.1365   32.6181   49.4599 H   0  0  0  0  0  0  0  0  0  0  0  0
   46.6360   33.4102   46.9210 H   0  0  0  0  0  0  0  0  0  0  0  0
   47.7783   32.0096   46.7868 H   0  0  0  0  0  0  0  0  0  0  0  0
   47.8308   32.5667   44.6075 H   0  0  0  0  0  0  0  0  0  0  0  0
   46.2887   31.6852   44.5238 H   0  0  0  0  0  0  0  0  0  0  0  0
   43.8736   35.9858   45.8260 H   0  0  0  0  0  0  0  0  0  0  0  0
   44.3178   37.0237   43.5299 H   0  0  0  0  0  0  0  0  0  0  0  0
   45.9793   35.8719   42.0127 H   0  0  0  0  0  0  0  0  0  0  0  0
  1  6  1  0
  2  3  1  0
  2  1  1  0
  3  4  1  0
  4  5  1  0
  6  7  1  0
  6  5  1  0
  7 11  1  0
  8  7  1  0
  8  9  2  0
  9 10  1  0
 11 10  2  0
 12  1  1  0
 13 12  1  0
 14 19  2  0
 15 14  1  0
 16 17  1  0
 16 15  2  0
 17 18  2  0
 18 13  1  0
 18 19  1  0
  2 20  1  0
  2 21  1  0
  3 22  1  0
  3 23  1  0
  5 24  1  0
  5 25  1  0
  6 26  1  1
  8 27  1  0
  9 28  1  0
 11 29  1  0
 12 30  1  0
 12 31  1  0
 13 32  1  0
 13 33  1  0
 14 34  1  0
 15 35  1  0
 16 36  1  0
M  ISO  8  20  13  21  13  22  13  23  13  24  13  25  13  26  13  27  14
M  ISO  8  28  14  29  14  30   8  31   8  32   8  33   8  34  14  35  14
M  ISO  1  36  14
M  END
>  <minimizedAffinity>  (1) 
-4.75017118

>  <minimizedRMSD>  (1) 
1.29623544

$$$$
