
     RDKit          3D

 35 36  0  0  1  0  0  0  0  0999 V2000
   46.0840   31.4470   47.6010 N   0  0  0  0  0  0  0  0  0  0  0  0
   45.4580   30.4340   46.8480 C   0  0  0  0  0  0  0  0  0  0  0  0
   45.6630   29.0740   47.5230 C   0  0  0  0  0  0  0  0  0  0  0  0
   46.9910   28.7510   47.5200 O   0  0  0  0  0  0  0  0  0  0  0  0
   47.8280   29.7420   47.9530 C   0  0  0  0  0  0  0  0  0  0  0  0
   47.5300   31.1430   47.5430 C   0  0  2  0  0  0  0  0  0  0  0  0
   45.8610   32.6930   46.9230 C   0  0  0  0  0  0  0  0  0  0  0  0
   46.3740   32.6880   45.5210 C   0  0  0  0  0  0  0  0  0  0  0  0
   44.5200   35.8340   44.7910 C   0  0  0  0  0  0  0  0  0  0  0  0
   45.0090   36.1320   43.4800 C   0  0  0  0  0  0  0  0  0  0  0  0
   45.9540   35.2510   42.9250 C   0  0  0  0  0  0  0  0  0  0  0  0
   46.3600   34.1790   43.6310 N   0  0  0  0  0  0  0  0  0  0  0  0
   45.8630   33.9430   44.8730 C   0  0  0  0  0  0  0  0  0  0  0  0
   44.9760   34.7360   45.4410 N   0  0  0  0  0  0  0  0  0  0  0  0
   48.1470   32.0090   48.6530 C   0  0  0  0  0  0  0  0  0  0  0  0
   49.1880   31.2100   49.4220 C   0  0  0  0  0  0  0  0  0  0  0  0
   45.8942   30.4087   45.8385 H   0  0  0  0  0  0  0  0  0  0  0  0
   44.3805   30.6459   46.7846 H   0  0  0  0  0  0  0  0  0  0  0  0
   45.3015   29.1232   48.5607 H   0  0  0  0  0  0  0  0  0  0  0  0
   45.1013   28.3062   46.9708 H   0  0  0  0  0  0  0  0  0  0  0  0
   47.8234   29.7158   49.0527 H   0  0  0  0  0  0  0  0  0  0  0  0
   48.7909   29.5157   47.4718 H   0  0  0  0  0  0  0  0  0  0  0  0
   47.9010   31.3119   46.5213 H   0  0  0  0  0  0  0  0  0  0  0  0
   44.7795   32.8926   46.9009 H   0  0  0  0  0  0  0  0  0  0  0  0
   46.4083   33.4724   47.4734 H   0  0  0  0  0  0  0  0  0  0  0  0
   47.4740   32.6807   45.5193 H   0  0  0  0  0  0  0  0  0  0  0  0
   46.0344   31.7941   44.9773 H   0  0  0  0  0  0  0  0  0  0  0  0
   43.7787   36.4919   45.2682 H   0  0  0  0  0  0  0  0  0  0  0  0
   44.6592   37.0164   42.9273 H   0  0  0  0  0  0  0  0  0  0  0  0
   46.3593   35.4367   41.9194 H   0  0  0  0  0  0  0  0  0  0  0  0
   48.6254   32.8912   48.2026 H   0  0  0  0  0  0  0  0  0  0  0  0
   47.3531   32.3260   49.3453 H   0  0  0  0  0  0  0  0  0  0  0  0
   49.0230   31.3366   50.5022 H   0  0  0  0  0  0  0  0  0  0  0  0
   49.1001   30.1453   49.1600 H   0  0  0  0  0  0  0  0  0  0  0  0
   50.1938   31.5702   49.1600 H   0  0  0  0  0  0  0  0  0  0  0  0
  2  3  1  0
  2  1  1  0
  4  3  1  0
  4  5  1  0
  6  1  1  0
  6  5  1  0
  6 15  1  0
  7  1  1  0
  8  7  1  0
  9 14  2  0
 10  9  1  0
 11 10  2  0
 11 12  1  0
 12 13  2  0
 13 14  1  0
 13  8  1  0
 15 16  1  0
  2 17  1  0
  2 18  1  0
  3 19  1  0
  3 20  1  0
  5 21  1  0
  5 22  1  0
  6 23  1  6
  7 24  1  0
  7 25  1  0
  8 26  1  0
  8 27  1  0
  9 28  1  0
 10 29  1  0
 11 30  1  0
 15 31  1  0
 15 32  1  0
 16 33  1  0
 16 34  1  0
 16 35  1  0
M  ISO  8  17  13  18  13  19  13  20  13  21  13  22  13  23  13  24   8
M  ISO  8  25   8  26   8  27   8  28  14  29  14  30  14  31   8  32   8
M  ISO  3  33   8  34   8  35   8
M  END
>  <minimizedAffinity>  (1) 
-4.38676167

>  <minimizedRMSD>  (1) 
1.89484441

$$$$
