
     RDKit          3D

 38 39  0  0  1  0  0  0  0  0999 V2000
   45.9270   31.3670   45.8860 N   0  0  0  0  0  0  0  0  0  0  0  0
   46.0130   30.2410   44.9550 C   0  0  0  0  0  0  0  0  0  0  0  0
   45.0040   29.1620   45.2340 C   0  0  0  0  0  0  0  0  0  0  0  0
   45.0600   28.7160   46.5350 O   0  0  0  0  0  0  0  0  0  0  0  0
   44.9270   29.7560   47.4110 C   0  0  0  0  0  0  0  0  0  0  0  0
   45.9790   30.8450   47.2160 C   0  0  2  0  0  0  0  0  0  0  0  0
   47.0100   32.2350   45.6240 C   0  0  0  0  0  0  0  0  0  0  0  0
   47.1700   32.7250   44.2230 C   0  0  0  0  0  0  0  0  0  0  0  0
   44.7130   35.4770   44.8180 C   0  0  0  0  0  0  0  0  0  0  0  0
   44.8340   36.2300   43.6320 C   0  0  0  0  0  0  0  0  0  0  0  0
   45.7360   35.7700   42.6900 C   0  0  0  0  0  0  0  0  0  0  0  0
   46.4410   34.6500   42.9400 N   0  0  0  0  0  0  0  0  0  0  0  0
   46.3160   33.9380   44.0800 C   0  0  0  0  0  0  0  0  0  0  0  0
   45.4550   34.3580   45.0020 N   0  0  0  0  0  0  0  0  0  0  0  0
   45.8170   31.7610   48.3710 C   0  0  0  0  0  0  0  0  0  0  0  0
   45.3150   31.1960   49.6450 C   0  0  0  0  0  0  0  0  0  0  0  0
   44.8860   32.9360   48.0090 C   0  0  0  0  0  0  0  0  0  0  0  0
   47.0202   29.8045   45.0267 H   0  0  0  0  0  0  0  0  0  0  0  0
   45.8023   30.6326   43.9489 H   0  0  0  0  0  0  0  0  0  0  0  0
   43.9973   29.5608   45.0401 H   0  0  0  0  0  0  0  0  0  0  0  0
   45.2330   28.3101   44.5769 H   0  0  0  0  0  0  0  0  0  0  0  0
   43.9314   30.2032   47.2741 H   0  0  0  0  0  0  0  0  0  0  0  0
   45.0616   29.3492   48.4241 H   0  0  0  0  0  0  0  0  0  0  0  0
   47.0254   30.5072   47.2457 H   0  0  0  0  0  0  0  0  0  0  0  0
   46.8911   33.1166   46.2710 H   0  0  0  0  0  0  0  0  0  0  0  0
   47.9092   31.6316   45.8170 H   0  0  0  0  0  0  0  0  0  0  0  0
   48.2226   32.9804   44.0310 H   0  0  0  0  0  0  0  0  0  0  0  0
   46.8713   31.9500   43.5018 H   0  0  0  0  0  0  0  0  0  0  0  0
   44.0106   35.8005   45.6003 H   0  0  0  0  0  0  0  0  0  0  0  0
   44.2393   37.1400   43.4640 H   0  0  0  0  0  0  0  0  0  0  0  0
   45.8765   36.3143   41.7445 H   0  0  0  0  0  0  0  0  0  0  0  0
   46.8588   32.0575   48.5629 H   0  0  0  0  0  0  0  0  0  0  0  0
   45.7832   31.7229   50.4895 H   0  0  0  0  0  0  0  0  0  0  0  0
   44.2231   31.3193   49.6958 H   0  0  0  0  0  0  0  0  0  0  0  0
   45.5659   30.1262   49.6958 H   0  0  0  0  0  0  0  0  0  0  0  0
   44.5135   33.4062   48.9311 H   0  0  0  0  0  0  0  0  0  0  0  0
   45.4442   33.6777   47.4189 H   0  0  0  0  0  0  0  0  0  0  0  0
   44.0363   32.5622   47.4189 H   0  0  0  0  0  0  0  0  0  0  0  0
  1  6  1  0
  2  3  1  0
  2  1  1  0
  3  4  1  0
  4  5  1  0
  6  5  1  0
  6 15  1  0
  7  1  1  0
  8  7  1  0
  9 14  2  0
 10  9  1  0
 11 12  1  0
 11 10  2  0
 12 13  2  0
 13  8  1  0
 13 14  1  0
 15 16  1  0
 17 15  1  0
  2 18  1  0
  2 19  1  0
  3 20  1  0
  3 21  1  0
  5 22  1  0
  5 23  1  0
  6 24  1  1
  7 25  1  0
  7 26  1  0
  8 27  1  0
  8 28  1  0
  9 29  1  0
 10 30  1  0
 11 31  1  0
 15 32  1  0
 16 33  1  0
 16 34  1  0
 16 35  1  0
 17 36  1  0
 17 37  1  0
 17 38  1  0
M  ISO  8  18  13  19  13  20  13  21  13  22  13  23  13  24  13  25   8
M  ISO  8  26   8  27   8  28   8  29  14  30  14  31  14  32   8  33   8
M  ISO  5  34   8  35   8  36   8  37   8  38   8
M  END
>  <minimizedAffinity>  (1) 
-4.27282619

>  <minimizedRMSD>  (1) 
1.71244764

$$$$
