
     RDKit          3D

 47 50  0  0  1  0  0  0  0  0999 V2000
   47.1700   30.0600   45.7340 N   0  0  0  0  0  0  0  0  0  0  0  0
   48.3460   29.9130   44.8810 C   0  0  0  0  0  0  0  0  0  0  0  0
   49.3260   28.9240   45.4360 C   0  0  0  0  0  0  0  0  0  0  0  0
   49.6390   29.0870   46.7490 O   0  0  0  0  0  0  0  0  0  0  0  0
   48.5400   29.2720   47.5680 C   0  0  0  0  0  0  0  0  0  0  0  0
   47.6890   30.4080   47.0600 C   0  0  2  0  0  0  0  0  0  0  0  0
   46.6770   30.8070   47.9840 N   0  0  0  0  0  0  0  0  0  0  0  0
   45.5900   30.1120   48.3780 C   0  0  0  0  0  0  0  0  0  0  0  0
   44.8850   30.8360   49.2590 N   0  0  0  0  0  0  0  0  0  0  0  0
   45.5340   31.9990   49.4240 C   0  0  0  0  0  0  0  0  0  0  0  0
   46.6070   31.9530   48.6450 N   0  0  0  0  0  0  0  0  0  0  0  0
   46.3960   31.1630   45.2670 C   0  0  0  0  0  0  0  0  0  0  0  0
   47.1270   32.4110   45.0150 C   0  0  0  0  0  0  0  0  0  0  0  0
   44.7090   35.1980   45.4700 C   0  0  0  0  0  0  0  0  0  0  0  0
   44.2990   35.4580   44.1510 C   0  0  0  0  0  0  0  0  0  0  0  0
   44.8610   34.6740   43.1670 C   0  0  0  0  0  0  0  0  0  0  0  0
   45.7560   33.7200   43.4990 N   0  0  0  0  0  0  0  0  0  0  0  0
   46.1330   33.4910   44.7760 C   0  0  0  0  0  0  0  0  0  0  0  0
   45.6140   34.2230   45.7480 N   0  0  0  0  0  0  0  0  0  0  0  0
   44.5010   34.8750   41.8280 N   0  0  0  0  0  0  0  0  0  0  0  0
   43.4600   35.7420   41.3220 C   0  0  0  0  0  0  0  0  0  0  0  0
   42.8580   34.9710   40.1430 C   0  0  0  0  0  0  0  0  0  0  0  0
   43.7700   33.7760   39.9670 C   0  0  0  0  0  0  0  0  0  0  0  0
   45.0490   34.2930   40.6220 C   0  0  0  0  0  0  0  0  0  0  0  0
   48.8421   30.8905   44.7895 H   0  0  0  0  0  0  0  0  0  0  0  0
   48.0094   29.5426   43.9015 H   0  0  0  0  0  0  0  0  0  0  0  0
   48.9000   27.9175   45.3111 H   0  0  0  0  0  0  0  0  0  0  0  0
   50.2620   29.0801   44.8797 H   0  0  0  0  0  0  0  0  0  0  0  0
   47.9408   28.3497   47.5838 H   0  0  0  0  0  0  0  0  0  0  0  0
   48.8889   29.5146   48.5826 H   0  0  0  0  0  0  0  0  0  0  0  0
   48.3177   31.3050   46.9594 H   0  0  0  0  0  0  0  0  0  0  0  0
   45.3225   29.1037   48.0291 H   0  0  0  0  0  0  0  0  0  0  0  0
   45.2341   32.8303   50.0790 H   0  0  0  0  0  0  0  0  0  0  0  0
   45.9155   30.8601   44.3250 H   0  0  0  0  0  0  0  0  0  0  0  0
   45.6939   31.3941   46.0816 H   0  0  0  0  0  0  0  0  0  0  0  0
   47.7472   32.6622   45.8881 H   0  0  0  0  0  0  0  0  0  0  0  0
   47.7828   32.2973   44.1392 H   0  0  0  0  0  0  0  0  0  0  0  0
   44.2893   35.7951   46.2930 H   0  0  0  0  0  0  0  0  0  0  0  0
   43.5680   36.2458   43.9166 H   0  0  0  0  0  0  0  0  0  0  0  0
   42.6991   35.9276   42.0943 H   0  0  0  0  0  0  0  0  0  0  0  0
   43.8453   36.7282   41.0238 H   0  0  0  0  0  0  0  0  0  0  0  0
   41.8324   34.6469   40.3733 H   0  0  0  0  0  0  0  0  0  0  0  0
   42.7913   35.5843   39.2323 H   0  0  0  0  0  0  0  0  0  0  0  0
   43.3793   32.8886   40.4865 H   0  0  0  0  0  0  0  0  0  0  0  0
   43.8932   33.4468   38.9247 H   0  0  0  0  0  0  0  0  0  0  0  0
   45.7509   33.4763   40.8462 H   0  0  0  0  0  0  0  0  0  0  0  0
   45.6382   34.9847   40.0020 H   0  0  0  0  0  0  0  0  0  0  0  0
  1  6  1  0
  2  3  1  0
  2  1  1  0
  3  4  1  0
  4  5  1  0
  6  5  1  0
  6  7  1  0
  7  8  1  0
  7 11  1  0
  8  9  2  0
  9 10  1  0
 11 10  2  0
 12  1  1  0
 13 12  1  0
 14 19  2  0
 15 14  1  0
 16 17  1  0
 16 15  2  0
 17 18  2  0
 18 13  1  0
 18 19  1  0
 20 16  1  0
 21 20  1  0
 22 21  1  0
 23 22  1  0
 23 24  1  0
 24 20  1  0
  2 25  1  0
  2 26  1  0
  3 27  1  0
  3 28  1  0
  5 29  1  0
  5 30  1  0
  6 31  1  6
  8 32  1  0
 10 33  1  0
 12 34  1  0
 12 35  1  0
 13 36  1  0
 13 37  1  0
 14 38  1  0
 15 39  1  0
 21 40  1  0
 21 41  1  0
 22 42  1  0
 22 43  1  0
 23 44  1  0
 23 45  1  0
 24 46  1  0
 24 47  1  0
M  ISO  8  25  13  26  13  27  13  28  13  29  13  30  13  31  13  32  14
M  ISO  8  33  14  34   8  35   8  36   8  37   8  38  14  39  14  40  13
M  ISO  7  41  13  42  13  43  13  44  13  45  13  46  13  47  13
M  END
>  <minimizedAffinity>  (1) 
-4.96720028

>  <minimizedRMSD>  (1) 
1.49982774

$$$$
