
     RDKit          3D

 42 44  0  0  1  0  0  0  0  0999 V2000
   46.0530   31.1630   45.0550 C   0  0  0  0  0  0  0  0  0  0  0  0
   46.9820   30.1450   45.4250 N   0  0  0  0  0  0  0  0  0  0  0  0
   48.0630   30.0960   44.4700 C   0  0  0  0  0  0  0  0  0  0  0  0
   49.1660   29.1910   44.9180 C   0  0  0  0  0  0  0  0  0  0  0  0
   49.6300   29.4210   46.1760 O   0  0  0  0  0  0  0  0  0  0  0  0
   48.6040   29.5080   47.1090 C   0  0  0  0  0  0  0  0  0  0  0  0
   47.5840   30.5380   46.6930 C   0  0  2  0  0  0  0  0  0  0  0  0
   46.6500   30.8380   47.7270 N   0  0  0  0  0  0  0  0  0  0  0  0
   45.6760   30.0780   48.2210 C   0  0  0  0  0  0  0  0  0  0  0  0
   45.0230   30.7450   49.1920 N   0  0  0  0  0  0  0  0  0  0  0  0
   45.5990   31.9470   49.3060 C   0  0  0  0  0  0  0  0  0  0  0  0
   46.5770   31.9880   48.4170 N   0  0  0  0  0  0  0  0  0  0  0  0
   46.5960   32.2480   44.2310 C   0  0  0  0  0  0  0  0  0  0  0  0
   44.7520   35.0240   45.9050 C   0  0  0  0  0  0  0  0  0  0  0  0
   44.3290   35.7870   44.7960 C   0  0  0  0  0  0  0  0  0  0  0  0
   44.6780   35.3380   43.5450 C   0  0  0  0  0  0  0  0  0  0  0  0
   45.4040   34.1940   43.4360 N   0  0  0  0  0  0  0  0  0  0  0  0
   45.8010   33.4760   44.5010 C   0  0  0  0  0  0  0  0  0  0  0  0
   45.4790   33.8860   45.7180 N   0  0  0  0  0  0  0  0  0  0  0  0
   44.3720   35.9810   42.3170 N   0  0  0  0  0  0  0  0  0  0  0  0
   43.2790   35.5570   41.5280 C   0  0  0  0  0  0  0  0  0  0  0  0
   42.1350   35.4250   42.0860 N   0  0  0  0  0  0  0  0  0  0  0  0
   43.4360   35.2980   40.1210 N   0  0  0  0  0  0  0  0  0  0  0  0
   41.9200   35.5980   43.0750 H   0  0  0  0  0  0  0  0  0  0  0  0
   45.2361   30.6873   44.4925 H   0  0  0  0  0  0  0  0  0  0  0  0
   45.7308   31.6325   45.9961 H   0  0  0  0  0  0  0  0  0  0  0  0
   48.4673   31.1106   44.3389 H   0  0  0  0  0  0  0  0  0  0  0  0
   47.6631   29.7016   43.5242 H   0  0  0  0  0  0  0  0  0  0  0  0
   48.7952   28.1562   44.8761 H   0  0  0  0  0  0  0  0  0  0  0  0
   50.0117   29.3829   44.2413 H   0  0  0  0  0  0  0  0  0  0  0  0
   48.1117   28.5281   47.1953 H   0  0  0  0  0  0  0  0  0  0  0  0
   49.0331   29.8090   48.0761 H   0  0  0  0  0  0  0  0  0  0  0  0
   48.0915   31.4990   46.5229 H   0  0  0  0  0  0  0  0  0  0  0  0
   45.4394   29.0572   47.8863 H   0  0  0  0  0  0  0  0  0  0  0  0
   45.3139   32.7473   50.0048 H   0  0  0  0  0  0  0  0  0  0  0  0
   46.5202   31.9814   43.1665 H   0  0  0  0  0  0  0  0  0  0  0  0
   47.6550   32.4184   44.4751 H   0  0  0  0  0  0  0  0  0  0  0  0
   44.4943   35.3485   46.9240 H   0  0  0  0  0  0  0  0  0  0  0  0
   43.7414   36.7075   44.9280 H   0  0  0  0  0  0  0  0  0  0  0  0
   44.9547   36.7675   41.9966 H   0  0  0  0  0  0  0  0  0  0  0  0
   44.3593   35.4059   39.6774 H   0  0  0  0  0  0  0  0  0  0  0  0
   42.6251   35.0047   39.5577 H   0  0  0  0  0  0  0  0  0  0  0  0
  1  2  1  0
  2  7  1  0
  3  4  1  0
  3  2  1  0
  4  5  1  0
  5  6  1  0
  7  6  1  0
  7  8  1  0
  8  9  1  0
  8 12  1  0
  9 10  2  0
 10 11  1  0
 12 11  2  0
 13 18  1  0
 13  1  1  0
 15 14  2  0
 16 15  1  0
 17 16  2  0
 17 18  1  0
 18 19  2  0
 19 14  1  0
 20 16  1  0
 21 22  2  0
 21 20  1  0
 22 24  1  0
 23 21  1  0
  1 25  1  0
  1 26  1  0
  3 27  1  0
  3 28  1  0
  4 29  1  0
  4 30  1  0
  6 31  1  0
  6 32  1  0
  7 33  1  6
  9 34  1  0
 11 35  1  0
 13 36  1  0
 13 37  1  0
 14 38  1  0
 15 39  1  0
 20 40  1  0
 23 41  1  0
 23 42  1  0
M  ISO  8  25   8  26   8  27  13  28  13  29  13  30  13  31  13  32  13
M  ISO  7  33  13  34  14  35  14  36   8  37   8  38  14  39  14
M  END
>  <minimizedAffinity>  (1) 
-5.45918608

>  <minimizedRMSD>  (1) 
0.751186192

$$$$
