
     RDKit          3D

 47 49  0  0  1  0  0  0  0  0999 V2000
   47.5080   29.6260   46.0100 N   0  0  0  0  0  0  0  0  0  0  0  0
   48.7630   29.5500   45.2670 C   0  0  0  0  0  0  0  0  0  0  0  0
   49.7710   28.7080   45.9750 C   0  0  0  0  0  0  0  0  0  0  0  0
   49.9820   29.0400   47.2820 O   0  0  0  0  0  0  0  0  0  0  0  0
   48.8190   29.1800   48.0020 C   0  0  0  0  0  0  0  0  0  0  0  0
   47.8660   30.1390   47.3360 C   0  0  2  0  0  0  0  0  0  0  0  0
   46.7500   30.4710   48.1450 N   0  0  0  0  0  0  0  0  0  0  0  0
   45.5790   29.8490   48.2650 C   0  0  0  0  0  0  0  0  0  0  0  0
   44.7970   30.5030   49.1460 N   0  0  0  0  0  0  0  0  0  0  0  0
   45.4950   31.5620   49.5880 C   0  0  0  0  0  0  0  0  0  0  0  0
   46.6620   31.5230   48.9750 N   0  0  0  0  0  0  0  0  0  0  0  0
   46.6670   30.5950   45.3950 C   0  0  0  0  0  0  0  0  0  0  0  0
   47.3140   31.8250   44.9300 C   0  0  0  0  0  0  0  0  0  0  0  0
   44.9410   34.2430   46.4590 C   0  0  0  0  0  0  0  0  0  0  0  0
   44.7000   35.1310   45.3930 C   0  0  0  0  0  0  0  0  0  0  0  0
   45.3490   34.8730   44.2060 C   0  0  0  0  0  0  0  0  0  0  0  0
   46.1710   33.8070   44.1140 N   0  0  0  0  0  0  0  0  0  0  0  0
   46.3870   32.9670   45.1530 C   0  0  0  0  0  0  0  0  0  0  0  0
   45.7740   33.1920   46.3060 N   0  0  0  0  0  0  0  0  0  0  0  0
   45.2080   35.7050   42.9880 C   0  0  0  0  0  0  0  0  0  0  0  0
   43.9600   35.3560   42.2100 C   0  0  0  0  0  0  0  0  0  0  0  0
   46.4320   35.4420   42.1400 C   0  0  0  0  0  0  0  0  0  0  0  0
   45.1930   37.1800   43.3070 C   0  0  0  0  0  0  0  0  0  0  0  0
   49.1681   30.5655   45.1459 H   0  0  0  0  0  0  0  0  0  0  0  0
   48.5564   29.0899   44.2894 H   0  0  0  0  0  0  0  0  0  0  0  0
   49.4291   27.6631   45.9389 H   0  0  0  0  0  0  0  0  0  0  0  0
   50.7276   28.8717   45.4572 H   0  0  0  0  0  0  0  0  0  0  0  0
   48.3330   28.1971   48.0898 H   0  0  0  0  0  0  0  0  0  0  0  0
   49.0746   29.5820   48.9935 H   0  0  0  0  0  0  0  0  0  0  0  0
   48.3774   31.1030   47.1974 H   0  0  0  0  0  0  0  0  0  0  0  0
   45.2920   28.9351   47.7242 H   0  0  0  0  0  0  0  0  0  0  0  0
   45.1594   32.3137   50.3176 H   0  0  0  0  0  0  0  0  0  0  0  0
   46.1904   30.1193   44.5252 H   0  0  0  0  0  0  0  0  0  0  0  0
   45.9687   30.9145   46.1825 H   0  0  0  0  0  0  0  0  0  0  0  0
   47.5441   31.7393   43.8578 H   0  0  0  0  0  0  0  0  0  0  0  0
   48.2495   31.9886   45.4851 H   0  0  0  0  0  0  0  0  0  0  0  0
   44.4450   34.4076   47.4269 H   0  0  0  0  0  0  0  0  0  0  0  0
   44.0240   35.9917   45.5034 H   0  0  0  0  0  0  0  0  0  0  0  0
   43.1432   35.1276   42.9104 H   0  0  0  0  0  0  0  0  0  0  0  0
   43.6724   36.2082   41.5767 H   0  0  0  0  0  0  0  0  0  0  0  0
   44.1562   34.4783   41.5767 H   0  0  0  0  0  0  0  0  0  0  0  0
   47.2974   35.2560   42.7930 H   0  0  0  0  0  0  0  0  0  0  0  0
   46.2558   34.5612   41.5050 H   0  0  0  0  0  0  0  0  0  0  0  0
   46.6332   36.3174   41.5050 H   0  0  0  0  0  0  0  0  0  0  0  0
   45.1916   37.3192   44.3982 H   0  0  0  0  0  0  0  0  0  0  0  0
   46.0863   37.6571   42.8777 H   0  0  0  0  0  0  0  0  0  0  0  0
   44.2901   37.6388   42.8777 H   0  0  0  0  0  0  0  0  0  0  0  0
  1  6  1  0
  2  3  1  0
  2  1  1  0
  3  4  1  0
  4  5  1  0
  6  5  1  0
  6  7  1  0
  7  8  1  0
  7 11  1  0
  8  9  2  0
  9 10  1  0
 11 10  2  0
 12  1  1  0
 13 18  1  0
 13 12  1  0
 15 14  2  0
 16 15  1  0
 17 16  2  0
 17 18  1  0
 18 19  2  0
 19 14  1  0
 20 23  1  0
 20 16  1  0
 21 20  1  0
 22 20  1  0
  2 24  1  0
  2 25  1  0
  3 26  1  0
  3 27  1  0
  5 28  1  0
  5 29  1  0
  6 30  1  6
  8 31  1  0
 10 32  1  0
 12 33  1  0
 12 34  1  0
 13 35  1  0
 13 36  1  0
 14 37  1  0
 15 38  1  0
 21 39  1  0
 21 40  1  0
 21 41  1  0
 22 42  1  0
 22 43  1  0
 22 44  1  0
 23 45  1  0
 23 46  1  0
 23 47  1  0
M  ISO  8  24  13  25  13  26  13  27  13  28  13  29  13  30  13  31  14
M  ISO  8  32  14  33   8  34   8  35   8  36   8  37  14  38  14  39   8
M  ISO  8  40   8  41   8  42   8  43   8  44   8  45   8  46   8  47   8
M  END
>  <minimizedAffinity>  (1) 
-4.73961163

>  <minimizedRMSD>  (1) 
1.10105693

$$$$
