
     RDKit          3D

 37 39  0  0  1  0  0  0  0  0999 V2000
   47.2490   30.1000   45.5810 N   0  0  0  0  0  0  0  0  0  0  0  0
   48.3960   30.0030   44.6980 C   0  0  0  0  0  0  0  0  0  0  0  0
   49.4370   29.0660   45.2280 C   0  0  0  0  0  0  0  0  0  0  0  0
   49.7810   29.2480   46.5380 O   0  0  0  0  0  0  0  0  0  0  0  0
   48.6740   29.3580   47.3640 C   0  0  0  0  0  0  0  0  0  0  0  0
   47.7740   30.4640   46.8980 C   0  0  2  0  0  0  0  0  0  0  0  0
   46.7610   30.7890   47.8460 N   0  0  0  0  0  0  0  0  0  0  0  0
   45.6980   30.0850   48.2220 C   0  0  0  0  0  0  0  0  0  0  0  0
   44.9920   30.7590   49.1480 N   0  0  0  0  0  0  0  0  0  0  0  0
   45.6340   31.9170   49.3580 C   0  0  0  0  0  0  0  0  0  0  0  0
   46.6910   31.9110   48.5660 N   0  0  0  0  0  0  0  0  0  0  0  0
   46.4050   31.1650   45.1420 C   0  0  0  0  0  0  0  0  0  0  0  0
   47.0970   32.3880   44.6670 C   0  0  0  0  0  0  0  0  0  0  0  0
   44.6960   34.8970   46.0100 C   0  0  0  0  0  0  0  0  0  0  0  0
   44.4550   35.7000   44.8810 C   0  0  0  0  0  0  0  0  0  0  0  0
   45.1180   35.3490   43.7250 C   0  0  0  0  0  0  0  0  0  0  0  0
   45.9490   34.2860   43.7090 N   0  0  0  0  0  0  0  0  0  0  0  0
   46.1630   33.5320   44.8040 C   0  0  0  0  0  0  0  0  0  0  0  0
   45.5450   33.8320   45.9420 N   0  0  0  0  0  0  0  0  0  0  0  0
   44.9160   36.1350   42.5220 C   0  0  0  0  0  0  0  0  0  0  0  0
   43.9660   35.8860   41.7380 O   0  0  0  0  0  0  0  0  0  0  0  0
   48.8423   31.0020   44.5852 H   0  0  0  0  0  0  0  0  0  0  0  0
   48.0473   29.6104   43.7314 H   0  0  0  0  0  0  0  0  0  0  0  0
   49.0571   28.0397   45.1169 H   0  0  0  0  0  0  0  0  0  0  0  0
   50.3485   29.2672   44.6460 H   0  0  0  0  0  0  0  0  0  0  0  0
   48.1174   28.4093   47.3505 H   0  0  0  0  0  0  0  0  0  0  0  0
   49.0150   29.5852   48.3848 H   0  0  0  0  0  0  0  0  0  0  0  0
   48.3513   31.3956   46.8043 H   0  0  0  0  0  0  0  0  0  0  0  0
   45.4329   29.0915   47.8312 H   0  0  0  0  0  0  0  0  0  0  0  0
   45.3383   32.7160   50.0539 H   0  0  0  0  0  0  0  0  0  0  0  0
   45.7863   30.7856   44.3154 H   0  0  0  0  0  0  0  0  0  0  0  0
   45.8309   31.4737   46.0281 H   0  0  0  0  0  0  0  0  0  0  0  0
   47.3852   32.2669   43.6124 H   0  0  0  0  0  0  0  0  0  0  0  0
   48.0052   32.5658   45.2616 H   0  0  0  0  0  0  0  0  0  0  0  0
   44.1933   35.1309   46.9600 H   0  0  0  0  0  0  0  0  0  0  0  0
   43.7734   36.5626   44.9186 H   0  0  0  0  0  0  0  0  0  0  0  0
   45.6049   36.9614   42.2929 H   0  0  0  0  0  0  0  0  0  0  0  0
  1  6  1  0
  2  3  1  0
  2  1  1  0
  3  4  1  0
  4  5  1  0
  6  5  1  0
  6  7  1  0
  7  8  1  0
  7 11  1  0
  8  9  2  0
  9 10  1  0
 11 10  2  0
 12  1  1  0
 13 18  1  0
 13 12  1  0
 15 14  2  0
 16 15  1  0
 17 16  2  0
 17 18  1  0
 18 19  2  0
 19 14  1  0
 20 16  1  0
 21 20  2  0
  2 22  1  0
  2 23  1  0
  3 24  1  0
  3 25  1  0
  5 26  1  0
  5 27  1  0
  6 28  1  6
  8 29  1  0
 10 30  1  0
 12 31  1  0
 12 32  1  0
 13 33  1  0
 13 34  1  0
 14 35  1  0
 15 36  1  0
 20 37  1  0
M  ISO  8  22  13  23  13  24  13  25  13  26  13  27  13  28  13  29  14
M  ISO  8  30  14  31   8  32   8  33   8  34   8  35  14  36  14  37   6
M  END
>  <minimizedAffinity>  (1) 
-4.53234386

>  <minimizedRMSD>  (1) 
0.500031114

$$$$
