
     RDKit          3D

 42 44  0  0  1  0  0  0  0  0999 V2000
   46.1020   31.0910   46.7190 C   0  0  2  0  0  0  0  0  0  0  0  0
   44.7140   35.0140   45.7680 C   0  0  0  0  0  0  0  0  0  0  0  0
   44.5240   35.7640   44.6140 C   0  0  0  0  0  0  0  0  0  0  0  0
   45.1260   35.3230   43.4270 C   0  0  0  0  0  0  0  0  0  0  0  0
   45.8630   34.1910   43.4600 N   0  0  0  0  0  0  0  0  0  0  0  0
   46.0420   33.4640   44.6040 C   0  0  0  0  0  0  0  0  0  0  0  0
   45.4630   33.8920   45.7360 N   0  0  0  0  0  0  0  0  0  0  0  0
   46.8130   32.2870   44.6620 N   0  0  0  0  0  0  0  0  0  0  0  0
   47.6940   32.1080   43.6380 C   0  0  0  0  0  0  0  0  0  0  0  0
   48.3430   30.8890   43.9240 C   0  0  0  0  0  0  0  0  0  0  0  0
   47.8340   30.3910   45.0890 N   0  0  0  0  0  0  0  0  0  0  0  0
   46.9050   31.2600   45.5170 C   0  0  0  0  0  0  0  0  0  0  0  0
   46.8370   31.8830   47.8420 C   0  0  0  0  0  0  0  0  0  0  0  0
   46.0550   29.6620   47.1560 C   0  0  0  0  0  0  0  0  0  0  0  0
   44.9760   28.9280   46.5990 N   0  0  0  0  0  0  0  0  0  0  0  0
   44.2040   29.3410   45.5790 N   0  0  0  0  0  0  0  0  0  0  0  0
   43.2890   28.3700   45.3410 C   0  0  0  0  0  0  0  0  0  0  0  0
   43.4810   27.3170   46.2270 C   0  0  0  0  0  0  0  0  0  0  0  0
   44.5560   27.7010   47.0090 C   0  0  0  0  0  0  0  0  0  0  0  0
   45.1520   26.9090   48.1100 C   0  0  0  0  0  0  0  0  0  0  0  0
   44.1000   26.1850   48.9060 C   0  0  0  0  0  0  0  0  0  0  0  0
   46.1620   25.9060   47.6320 C   0  0  0  0  0  0  0  0  0  0  0  0
   45.0750   31.4342   46.5254 H   0  0  0  0  0  0  0  0  0  0  0  0
   44.2515   35.3365   46.7125 H   0  0  0  0  0  0  0  0  0  0  0  0
   43.9165   36.6809   44.6312 H   0  0  0  0  0  0  0  0  0  0  0  0
   45.0011   35.8858   42.4902 H   0  0  0  0  0  0  0  0  0  0  0  0
   47.8624   32.7702   42.7759 H   0  0  0  0  0  0  0  0  0  0  0  0
   49.1268   30.4189   43.3119 H   0  0  0  0  0  0  0  0  0  0  0  0
   46.5016   31.5216   48.8253 H   0  0  0  0  0  0  0  0  0  0  0  0
   47.9225   31.7323   47.7467 H   0  0  0  0  0  0  0  0  0  0  0  0
   46.6058   32.9542   47.7467 H   0  0  0  0  0  0  0  0  0  0  0  0
   46.9957   29.1767   46.8567 H   0  0  0  0  0  0  0  0  0  0  0  0
   45.9112   29.6651   48.2466 H   0  0  0  0  0  0  0  0  0  0  0  0
   42.5117   28.4095   44.5637 H   0  0  0  0  0  0  0  0  0  0  0  0
   42.9045   26.3825   46.2924 H   0  0  0  0  0  0  0  0  0  0  0  0
   45.6650   27.6443   48.7473 H   0  0  0  0  0  0  0  0  0  0  0  0
   44.2956   26.3196   49.9801 H   0  0  0  0  0  0  0  0  0  0  0  0
   43.1085   26.5929   48.6599 H   0  0  0  0  0  0  0  0  0  0  0  0
   44.1269   25.1132   48.6599 H   0  0  0  0  0  0  0  0  0  0  0  0
   46.6429   25.4284   48.4984 H   0  0  0  0  0  0  0  0  0  0  0  0
   45.6586   25.1401   47.0237 H   0  0  0  0  0  0  0  0  0  0  0  0
   46.9244   26.4147   47.0237 H   0  0  0  0  0  0  0  0  0  0  0  0
  1 14  1  0
  1 13  1  0
  3  2  2  0
  4  5  2  0
  4  3  1  0
  5  6  1  0
  6  8  1  0
  6  7  2  0
  7  2  1  0
  8 12  1  0
  9 10  2  0
  9  8  1  0
 10 11  1  0
 11 12  2  0
 12  1  1  0
 15 19  1  0
 15 14  1  0
 16 15  1  0
 17 16  2  0
 17 18  1  0
 18 19  2  0
 19 20  1  0
 20 21  1  0
 22 20  1  0
  1 23  1  6
  2 24  1  0
  3 25  1  0
  4 26  1  0
  9 27  1  0
 10 28  1  0
 13 29  1  0
 13 30  1  0
 13 31  1  0
 14 32  1  0
 14 33  1  0
 17 34  1  0
 18 35  1  0
 20 36  1  0
 21 37  1  0
 21 38  1  0
 21 39  1  0
 22 40  1  0
 22 41  1  0
 22 42  1  0
M  ISO  8  23   8  24  14  25  14  26  14  27  14  28  14  29   8  30   8
M  ISO  8  31   8  32   8  33   8  34  14  35  14  36   8  37   8  38   8
M  ISO  4  39   8  40   8  41   8  42   8
M  END
>  <minimizedAffinity>  (1) 
-4.56471348

>  <minimizedRMSD>  (1) 
0.73233819

$$$$
