
     RDKit          3D

 47 49  0  0  1  0  0  0  0  0999 V2000
   47.9960   29.5280   46.4840 N   0  0  0  0  0  0  0  0  0  0  0  0
   49.3170   29.2170   46.0130 C   0  0  0  0  0  0  0  0  0  0  0  0
   50.2580   28.8580   47.1150 C   0  0  0  0  0  0  0  0  0  0  0  0
   50.2350   29.7000   48.2050 O   0  0  0  0  0  0  0  0  0  0  0  0
   48.9520   29.9740   48.6480 C   0  0  0  0  0  0  0  0  0  0  0  0
   48.1260   30.5570   47.5230 C   0  0  2  0  0  0  0  0  0  0  0  0
   46.8990   31.0900   47.9580 N   0  0  0  0  0  0  0  0  0  0  0  0
   45.8540   30.4510   48.5330 C   0  0  0  0  0  0  0  0  0  0  0  0
   44.8760   31.3210   48.7960 N   0  0  0  0  0  0  0  0  0  0  0  0
   45.2990   32.5270   48.3870 C   0  0  0  0  0  0  0  0  0  0  0  0
   46.5140   32.3700   47.8870 N   0  0  0  0  0  0  0  0  0  0  0  0
   47.2100   30.0800   45.4250 C   0  0  0  0  0  0  0  0  0  0  0  0
   47.9710   30.7800   44.3810 C   0  0  0  0  0  0  0  0  0  0  0  0
   45.4700   33.5470   44.2510 C   0  0  0  0  0  0  0  0  0  0  0  0
   46.0350   34.3710   43.2450 C   0  0  0  0  0  0  0  0  0  0  0  0
   47.2150   33.9660   42.6630 C   0  0  0  0  0  0  0  0  0  0  0  0
   47.7840   32.8160   43.0640 N   0  0  0  0  0  0  0  0  0  0  0  0
   47.2490   32.0250   44.0250 C   0  0  0  0  0  0  0  0  0  0  0  0
   46.1120   32.3930   44.6020 N   0  0  0  0  0  0  0  0  0  0  0  0
   47.8750   34.7460   41.6120 C   0  0  0  0  0  0  0  0  0  0  0  0
   49.1240   34.1550   41.3850 F   0  0  0  0  0  0  0  0  0  0  0  0
   47.1350   34.6980   40.4260 F   0  0  0  0  0  0  0  0  0  0  0  0
   48.1300   36.0220   42.0200 F   0  0  0  0  0  0  0  0  0  0  0  0
   45.3610   35.6270   42.8490 C   0  0  0  0  0  0  0  0  0  0  0  0
   44.7880   36.2620   44.0940 C   0  0  0  0  0  0  0  0  0  0  0  0
   44.2100   35.3780   41.9000 C   0  0  0  0  0  0  0  0  0  0  0  0
   49.2505   28.3673   45.3176 H   0  0  0  0  0  0  0  0  0  0  0  0
   49.7127   30.1183   45.5220 H   0  0  0  0  0  0  0  0  0  0  0  0
   50.0047   27.8454   47.4621 H   0  0  0  0  0  0  0  0  0  0  0  0
   51.2695   28.9374   46.6900 H   0  0  0  0  0  0  0  0  0  0  0  0
   48.4822   29.0436   48.9996 H   0  0  0  0  0  0  0  0  0  0  0  0
   49.0035   30.7021   49.4709 H   0  0  0  0  0  0  0  0  0  0  0  0
   48.6387   31.4316   47.0961 H   0  0  0  0  0  0  0  0  0  0  0  0
   45.8159   29.3736   48.7515 H   0  0  0  0  0  0  0  0  0  0  0  0
   44.7392   33.4715   48.4548 H   0  0  0  0  0  0  0  0  0  0  0  0
   46.6554   29.2581   44.9487 H   0  0  0  0  0  0  0  0  0  0  0  0
   46.5607   30.8370   45.8891 H   0  0  0  0  0  0  0  0  0  0  0  0
   48.9745   31.0280   44.7570 H   0  0  0  0  0  0  0  0  0  0  0  0
   48.0721   30.1371   43.4942 H   0  0  0  0  0  0  0  0  0  0  0  0
   44.5281   33.8327   44.7420 H   0  0  0  0  0  0  0  0  0  0  0  0
   46.1009   36.2679   42.3472 H   0  0  0  0  0  0  0  0  0  0  0  0
   45.2216   35.7815   44.9835 H   0  0  0  0  0  0  0  0  0  0  0  0
   45.0294   37.3352   44.1026 H   0  0  0  0  0  0  0  0  0  0  0  0
   43.6958   36.1318   44.1026 H   0  0  0  0  0  0  0  0  0  0  0  0
   43.2949   35.1800   42.4774 H   0  0  0  0  0  0  0  0  0  0  0  0
   44.0591   36.2643   41.2662 H   0  0  0  0  0  0  0  0  0  0  0  0
   44.4389   34.5086   41.2662 H   0  0  0  0  0  0  0  0  0  0  0  0
  1  6  1  0
  2  1  1  0
  2  3  1  0
  3  4  1  0
  4  5  1  0
  6  7  1  0
  6  5  1  0
  7  8  1  0
  8  9  2  0
 10  9  1  0
 11  7  1  0
 11 10  2  0
 12  1  1  0
 13 12  1  0
 14 19  2  0
 15 14  1  0
 16 17  1  0
 16 15  2  0
 17 18  2  0
 18 13  1  0
 18 19  1  0
 20 23  1  0
 20 16  1  0
 21 20  1  0
 22 20  1  0
 24 15  1  0
 24 25  1  0
 26 24  1  0
  2 27  1  0
  2 28  1  0
  3 29  1  0
  3 30  1  0
  5 31  1  0
  5 32  1  0
  6 33  1  6
  8 34  1  0
 10 35  1  0
 12 36  1  0
 12 37  1  0
 13 38  1  0
 13 39  1  0
 14 40  1  0
 24 41  1  0
 25 42  1  0
 25 43  1  0
 25 44  1  0
 26 45  1  0
 26 46  1  0
 26 47  1  0
M  ISO  8  27  13  28  13  29  13  30  13  31  13  32  13  33  13  34  14
M  ISO  8  35  14  36   8  37   8  38   8  39   8  40  14  41   8  42   8
M  ISO  5  43   8  44   8  45   8  46   8  47   8
M  END
>  <minimizedAffinity>  (1) 
-5.34060144

>  <minimizedRMSD>  (1) 
2.26286983

$$$$
