
     RDKit          3D

 41 43  0  0  1  0  0  0  0  0999 V2000
   47.1900   30.0450   45.5910 C   0  0  0  0  0  0  0  0  0  0  0  0
   48.0260   29.3590   46.5070 N   0  0  0  0  0  0  0  0  0  0  0  0
   49.3290   29.1370   45.9040 C   0  0  0  0  0  0  0  0  0  0  0  0
   50.3470   28.6540   46.8870 C   0  0  0  0  0  0  0  0  0  0  0  0
   50.4090   29.3800   48.0660 O   0  0  0  0  0  0  0  0  0  0  0  0
   49.1700   29.5940   48.6300 C   0  0  0  0  0  0  0  0  0  0  0  0
   48.2470   30.2730   47.6500 C   0  0  2  0  0  0  0  0  0  0  0  0
   47.0590   30.7540   48.2440 N   0  0  0  0  0  0  0  0  0  0  0  0
   45.9040   30.0780   48.4440 C   0  0  0  0  0  0  0  0  0  0  0  0
   45.0120   30.8800   49.0360 N   0  0  0  0  0  0  0  0  0  0  0  0
   45.6150   32.0840   49.2130 C   0  0  0  0  0  0  0  0  0  0  0  0
   46.8500   31.9790   48.7250 N   0  0  0  0  0  0  0  0  0  0  0  0
   47.8530   30.9690   44.6620 C   0  0  0  0  0  0  0  0  0  0  0  0
   45.4170   33.7130   45.3450 C   0  0  0  0  0  0  0  0  0  0  0  0
   45.5360   34.4760   44.1520 C   0  0  0  0  0  0  0  0  0  0  0  0
   46.4170   34.0420   43.1870 C   0  0  0  0  0  0  0  0  0  0  0  0
   47.1260   32.9220   43.4000 N   0  0  0  0  0  0  0  0  0  0  0  0
   47.0160   32.1920   44.5320 C   0  0  0  0  0  0  0  0  0  0  0  0
   46.1650   32.5950   45.4870 N   0  0  0  0  0  0  0  0  0  0  0  0
   46.6030   34.7740   41.9300 C   0  0  0  0  0  0  0  0  0  0  0  0
   47.4440   33.9780   41.1300 F   0  0  0  0  0  0  0  0  0  0  0  0
   45.3890   34.9410   41.2680 F   0  0  0  0  0  0  0  0  0  0  0  0
   47.2800   35.9410   42.1270 F   0  0  0  0  0  0  0  0  0  0  0  0
   44.6950   35.6390   44.0700 C   0  0  0  0  0  0  0  0  0  0  0  0
   44.9530   36.8100   44.3550 O   0  0  0  0  0  0  0  0  0  0  0  0
   43.3960   35.7920   43.6650 O   0  0  0  0  0  0  0  0  0  0  0  0
   46.6619   29.2896   44.9906 H   0  0  0  0  0  0  0  0  0  0  0  0
   46.5361   30.6759   46.2109 H   0  0  0  0  0  0  0  0  0  0  0  0
   49.2245   28.3851   45.1080 H   0  0  0  0  0  0  0  0  0  0  0  0
   49.6806   30.1019   45.5098 H   0  0  0  0  0  0  0  0  0  0  0  0
   50.1093   27.6103   47.1403 H   0  0  0  0  0  0  0  0  0  0  0  0
   51.3264   28.7712   46.4002 H   0  0  0  0  0  0  0  0  0  0  0  0
   48.7357   28.6272   48.9244 H   0  0  0  0  0  0  0  0  0  0  0  0
   49.2899   30.2430   49.5100 H   0  0  0  0  0  0  0  0  0  0  0  0
   48.7238   31.1902   47.2740 H   0  0  0  0  0  0  0  0  0  0  0  0
   45.7259   29.0296   48.1628 H   0  0  0  0  0  0  0  0  0  0  0  0
   45.1677   32.9776   49.6728 H   0  0  0  0  0  0  0  0  0  0  0  0
   48.8454   31.2387   45.0525 H   0  0  0  0  0  0  0  0  0  0  0  0
   47.9753   30.4907   43.6790 H   0  0  0  0  0  0  0  0  0  0  0  0
   44.7265   34.0271   46.1416 H   0  0  0  0  0  0  0  0  0  0  0  0
   42.9759   36.6884   43.6775 H   0  0  0  0  0  0  0  0  0  0  0  0
  1  2  1  0
  2  7  1  0
  3  2  1  0
  3  4  1  0
  4  5  1  0
  5  6  1  0
  7  8  1  0
  7  6  1  0
  8  9  1  0
  8 12  1  0
  9 10  2  0
 10 11  1  0
 12 11  2  0
 13  1  1  0
 14 19  2  0
 15 14  1  0
 16 17  1  0
 16 15  2  0
 17 18  2  0
 18 13  1  0
 18 19  1  0
 20 23  1  0
 20 16  1  0
 21 20  1  0
 22 20  1  0
 24 15  1  0
 24 25  2  0
 26 24  1  0
  1 27  1  0
  1 28  1  0
  3 29  1  0
  3 30  1  0
  4 31  1  0
  4 32  1  0
  6 33  1  0
  6 34  1  0
  7 35  1  6
  9 36  1  0
 11 37  1  0
 13 38  1  0
 13 39  1  0
 14 40  1  0
 26 41  1  0
M  ISO  8  27   8  28   8  29  13  30  13  31  13  32  13  33  13  34  13
M  ISO  7  35  13  36  14  37  14  38   8  39   8  40  14  41   3
M  END
>  <minimizedAffinity>  (1) 
-5.5370326

>  <minimizedRMSD>  (1) 
1.59442651

$$$$
