
     RDKit          3D

 41 43  0  0  1  0  0  0  0  0999 V2000
   47.9730   29.4070   46.2460 N   0  0  0  0  0  0  0  0  0  0  0  0
   49.2600   29.3510   45.5830 C   0  0  0  0  0  0  0  0  0  0  0  0
   50.3190   28.7770   46.4690 C   0  0  0  0  0  0  0  0  0  0  0  0
   50.3950   29.3550   47.7210 O   0  0  0  0  0  0  0  0  0  0  0  0
   49.1640   29.4110   48.3510 C   0  0  0  0  0  0  0  0  0  0  0  0
   48.1760   30.1560   47.4920 C   0  0  2  0  0  0  0  0  0  0  0  0
   46.9840   30.4800   48.1740 N   0  0  0  0  0  0  0  0  0  0  0  0
   45.8350   29.7700   48.2050 C   0  0  0  0  0  0  0  0  0  0  0  0
   44.9330   30.4150   48.9670 N   0  0  0  0  0  0  0  0  0  0  0  0
   45.5260   31.5390   49.4150 C   0  0  0  0  0  0  0  0  0  0  0  0
   46.7590   31.5540   48.9240 N   0  0  0  0  0  0  0  0  0  0  0  0
   47.0450   30.1480   45.4460 C   0  0  0  0  0  0  0  0  0  0  0  0
   47.6330   31.2010   44.6050 C   0  0  0  0  0  0  0  0  0  0  0  0
   45.3880   33.8520   45.9590 C   0  0  0  0  0  0  0  0  0  0  0  0
   45.2640   34.7180   44.8340 C   0  0  0  0  0  0  0  0  0  0  0  0
   45.9450   34.3610   43.6830 C   0  0  0  0  0  0  0  0  0  0  0  0
   46.6800   33.2320   43.6740 N   0  0  0  0  0  0  0  0  0  0  0  0
   46.7880   32.4230   44.7420 C   0  0  0  0  0  0  0  0  0  0  0  0
   46.1490   32.7380   45.8590 N   0  0  0  0  0  0  0  0  0  0  0  0
   45.8970   35.1750   42.4530 C   0  0  0  0  0  0  0  0  0  0  0  0
   46.9340   34.7250   41.6290 F   0  0  0  0  0  0  0  0  0  0  0  0
   44.6830   35.0140   41.8060 F   0  0  0  0  0  0  0  0  0  0  0  0
   46.1510   36.4900   42.7500 F   0  0  0  0  0  0  0  0  0  0  0  0
   44.4570   35.9330   44.8830 C   0  0  0  0  0  0  0  0  0  0  0  0
   49.1699   28.7236   44.6840 H   0  0  0  0  0  0  0  0  0  0  0  0
   49.5539   30.3783   45.3218 H   0  0  0  0  0  0  0  0  0  0  0  0
   50.1142   27.7040   46.5981 H   0  0  0  0  0  0  0  0  0  0  0  0
   51.2813   28.9755   45.9745 H   0  0  0  0  0  0  0  0  0  0  0  0
   48.7971   28.3885   48.5241 H   0  0  0  0  0  0  0  0  0  0  0  0
   49.2745   29.9367   49.3109 H   0  0  0  0  0  0  0  0  0  0  0  0
   48.5916   31.1407   47.2319 H   0  0  0  0  0  0  0  0  0  0  0  0
   45.6637   28.8142   47.6882 H   0  0  0  0  0  0  0  0  0  0  0  0
   45.0730   32.3014   50.0658 H   0  0  0  0  0  0  0  0  0  0  0  0
   46.5247   29.4384   44.7859 H   0  0  0  0  0  0  0  0  0  0  0  0
   46.3805   30.6639   46.1547 H   0  0  0  0  0  0  0  0  0  0  0  0
   47.6502   30.8744   43.5548 H   0  0  0  0  0  0  0  0  0  0  0  0
   48.6653   31.4117   44.9210 H   0  0  0  0  0  0  0  0  0  0  0  0
   44.8696   34.0873   46.9002 H   0  0  0  0  0  0  0  0  0  0  0  0
   44.2735   36.2093   45.9318 H   0  0  0  0  0  0  0  0  0  0  0  0
   44.9928   36.7497   44.3771 H   0  0  0  0  0  0  0  0  0  0  0  0
   43.4965   35.7558   44.3771 H   0  0  0  0  0  0  0  0  0  0  0  0
  1  6  1  0
  2  1  1  0
  2  3  1  0
  3  4  1  0
  4  5  1  0
  6  7  1  0
  6  5  1  0
  7  8  1  0
  7 11  1  0
  8  9  2  0
  9 10  1  0
 11 10  2  0
 12  1  1  0
 13 18  1  0
 13 12  1  0
 15 24  1  0
 15 14  2  0
 16 15  1  0
 17 16  2  0
 17 18  1  0
 18 19  2  0
 19 14  1  0
 20 23  1  0
 20 16  1  0
 21 20  1  0
 22 20  1  0
  2 25  1  0
  2 26  1  0
  3 27  1  0
  3 28  1  0
  5 29  1  0
  5 30  1  0
  6 31  1  6
  8 32  1  0
 10 33  1  0
 12 34  1  0
 12 35  1  0
 13 36  1  0
 13 37  1  0
 14 38  1  0
 24 39  1  0
 24 40  1  0
 24 41  1  0
M  ISO  8  25  13  26  13  27  13  28  13  29  13  30  13  31  13  32  14
M  ISO  8  33  14  34   8  35   8  36   8  37   8  38  14  39   8  40   8
M  ISO  1  41   8
M  END
>  <minimizedAffinity>  (1) 
-5.07126474

>  <minimizedRMSD>  (1) 
0.992835939

$$$$
