
     RDKit          3D

 24 24  0  0  0  0  0  0  0  0999 V2000
   48.2800   34.3660   41.8910 C   0  0  0  0  0  0  0  0  0  0  0  0
   47.1000   34.5830   42.7910 C   0  0  0  0  0  0  0  0  0  0  0  0
   47.0360   33.6970   43.8640 C   0  0  0  0  0  0  0  0  0  0  0  0
   45.9590   33.8240   44.7640 C   0  0  0  0  0  0  0  0  0  0  0  0
   45.0500   34.8090   44.5240 N   0  0  0  0  0  0  0  0  0  0  0  0
   45.1420   35.6630   43.4600 C   0  0  0  0  0  0  0  0  0  0  0  0
   46.1680   35.5380   42.6080 N   0  0  0  0  0  0  0  0  0  0  0  0
   48.6420   35.6370   41.1680 C   0  0  0  0  0  0  0  0  0  0  0  0
   47.9780   33.3120   40.8340 C   0  0  0  0  0  0  0  0  0  0  0  0
   49.4280   33.8930   42.7200 C   0  0  0  0  0  0  0  0  0  0  0  0
   50.3090   35.0200   43.0170 N   0  0  0  0  0  0  0  0  0  0  0  0
   47.8032   32.9214   44.0046 H   0  0  0  0  0  0  0  0  0  0  0  0
   45.8564   33.1520   45.6288 H   0  0  0  0  0  0  0  0  0  0  0  0
   44.3824   36.4435   43.3056 H   0  0  0  0  0  0  0  0  0  0  0  0
   48.8665   36.4251   41.9019 H   0  0  0  0  0  0  0  0  0  0  0  0
   49.5257   35.4610   40.5371 H   0  0  0  0  0  0  0  0  0  0  0  0
   47.7981   35.9530   40.5371 H   0  0  0  0  0  0  0  0  0  0  0  0
   47.7070   32.3663   41.3261 H   0  0  0  0  0  0  0  0  0  0  0  0
   47.1410   33.6516   40.2062 H   0  0  0  0  0  0  0  0  0  0  0  0
   48.8678   33.1568   40.2062 H   0  0  0  0  0  0  0  0  0  0  0  0
   49.0500   33.4650   43.6602 H   0  0  0  0  0  0  0  0  0  0  0  0
   49.9882   33.1244   42.1673 H   0  0  0  0  0  0  0  0  0  0  0  0
   50.3945   35.1293   44.0376 H   0  0  0  0  0  0  0  0  0  0  0  0
   51.2394   34.8447   42.6114 H   0  0  0  0  0  0  0  0  0  0  0  0
  1 10  1  0
  1  2  1  0
  2  3  2  0
  3  4  1  0
  5  4  2  0
  6  5  1  0
  7  2  1  0
  7  6  2  0
  8  1  1  0
  9  1  1  0
 10 11  1  0
  3 12  1  0
  4 13  1  0
  6 14  1  0
  8 15  1  0
  8 16  1  0
  8 17  1  0
  9 18  1  0
  9 19  1  0
  9 20  1  0
 10 21  1  0
 10 22  1  0
 11 23  1  0
 11 24  1  0
M  ISO  8  12  14  13  14  14  14  15   8  16   8  17   8  18   8  19   8
M  ISO  5  20   8  21   8  22   8  23   5  24   5
M  END
>  <minimizedAffinity>  (1) 
-4.35737467

>  <minimizedRMSD>  (1) 
1.55785906

$$$$
