
     RDKit          3D

 40 43  0  0  1  0  0  0  0  0999 V2000
   48.6310   33.6300   40.6690 C   0  0  0  0  0  0  0  0  0  0  0  0
   47.6790   34.2380   39.6880 C   0  0  2  0  0  0  0  0  0  0  0  0
   46.6410   33.4520   39.0080 C   0  0  0  0  0  0  0  0  0  0  0  0
   47.8910   33.8380   38.2460 C   0  0  2  0  0  0  0  0  0  0  0  0
   48.8450   32.8010   37.9080 N   0  0  0  0  0  0  0  0  0  0  0  0
   49.6600   32.0010   38.6350 C   0  0  0  0  0  0  0  0  0  0  0  0
   50.3560   31.1940   37.8060 N   0  0  0  0  0  0  0  0  0  0  0  0
   50.0050   31.4550   36.5260 C   0  0  0  0  0  0  0  0  0  0  0  0
   50.4550   30.8790   35.3710 C   0  0  0  0  0  0  0  0  0  0  0  0
   49.9240   31.3430   34.2310 N   0  0  0  0  0  0  0  0  0  0  0  0
   48.9960   32.3270   34.2620 C   0  0  0  0  0  0  0  0  0  0  0  0
   48.5690   32.8780   35.4300 N   0  0  0  0  0  0  0  0  0  0  0  0
   49.0640   32.4560   36.6110 C   0  0  0  0  0  0  0  0  0  0  0  0
   48.8930   34.5140   41.8660 C   0  0  0  0  0  0  0  0  0  0  0  0
   47.7890   34.2800   42.8140 C   0  0  0  0  0  0  0  0  0  0  0  0
   46.7350   35.1730   42.6800 C   0  0  0  0  0  0  0  0  0  0  0  0
   45.6160   35.0560   43.5440 C   0  0  0  0  0  0  0  0  0  0  0  0
   45.6560   34.0490   44.4660 N   0  0  0  0  0  0  0  0  0  0  0  0
   46.6920   33.2050   44.5660 C   0  0  0  0  0  0  0  0  0  0  0  0
   47.7240   33.3310   43.7530 N   0  0  0  0  0  0  0  0  0  0  0  0
   50.2240   34.1420   42.4890 C   0  0  0  0  0  0  0  0  0  0  0  0
   49.0220   35.9250   41.4170 C   0  0  0  0  0  0  0  0  0  0  0  0
   49.5865   33.4401   40.1581 H   0  0  0  0  0  0  0  0  0  0  0  0
   48.1714   32.7023   41.0405 H   0  0  0  0  0  0  0  0  0  0  0  0
   47.6251   35.1671   40.2744 H   0  0  0  0  0  0  0  0  0  0  0  0
   46.4750   32.4023   39.2919 H   0  0  0  0  0  0  0  0  0  0  0  0
   45.5618   33.5803   38.8379 H   0  0  0  0  0  0  0  0  0  0  0  0
   48.1249   34.3750   37.3149 H   0  0  0  0  0  0  0  0  0  0  0  0
   49.7424   32.0075   39.7319 H   0  0  0  0  0  0  0  0  0  0  0  0
   51.2105   30.0795   35.3767 H   0  0  0  0  0  0  0  0  0  0  0  0
   48.5741   32.6924   33.3141 H   0  0  0  0  0  0  0  0  0  0  0  0
   46.7669   35.9614   41.9136 H   0  0  0  0  0  0  0  0  0  0  0  0
   44.7589   35.7420   43.4749 H   0  0  0  0  0  0  0  0  0  0  0  0
   46.6823   32.4084   45.3245 H   0  0  0  0  0  0  0  0  0  0  0  0
   50.1355   34.1667   43.5852 H   0  0  0  0  0  0  0  0  0  0  0  0
   50.5094   33.1297   42.1670 H   0  0  0  0  0  0  0  0  0  0  0  0
   50.9929   34.8597   42.1670 H   0  0  0  0  0  0  0  0  0  0  0  0
   49.0823   36.5851   42.2949 H   0  0  0  0  0  0  0  0  0  0  0  0
   49.9340   36.0353   40.8119 H   0  0  0  0  0  0  0  0  0  0  0  0
   48.1451   36.1989   40.8119 H   0  0  0  0  0  0  0  0  0  0  0  0
  1 14  1  0
  2  1  1  0
  3  2  1  0
  4  3  1  0
  4  2  1  0
  5  4  1  0
  5  6  1  0
  7  6  2  0
  8 13  2  0
  8  7  1  0
  9  8  1  0
 10 11  1  0
 10  9  2  0
 11 12  2  0
 12 13  1  0
 13  5  1  0
 14 21  1  0
 14 15  1  0
 15 20  1  0
 16 15  2  0
 16 17  1  0
 17 18  2  0
 18 19  1  0
 20 19  2  0
 22 14  1  0
  1 23  1  0
  1 24  1  0
  2 25  1  6
  3 26  1  0
  3 27  1  0
  4 28  1  6
  6 29  1  0
  9 30  1  0
 11 31  1  0
 16 32  1  0
 17 33  1  0
 19 34  1  0
 21 35  1  0
 21 36  1  0
 21 37  1  0
 22 38  1  0
 22 39  1  0
 22 40  1  0
M  ISO  8  23   8  24   8  25  13  26  13  27  13  28  13  29  14  30  14
M  ISO  8  31  14  32  14  33  14  34  14  35   8  36   8  37   8  38   8
M  ISO  2  39   8  40   8
M  END
>  <minimizedAffinity>  (1) 
-5.44546556

>  <minimizedRMSD>  (1) 
0.727858901

$$$$
