
     RDKit          3D

 29 30  0  0  0  0  0  0  0  0999 V2000
   48.9170   34.5030   41.8510 C   0  0  0  0  0  0  0  0  0  0  0  0
   47.7850   34.2960   42.7950 C   0  0  0  0  0  0  0  0  0  0  0  0
   46.7150   35.1960   42.6310 C   0  0  0  0  0  0  0  0  0  0  0  0
   45.5960   35.0740   43.4840 C   0  0  0  0  0  0  0  0  0  0  0  0
   45.6230   34.0880   44.4150 N   0  0  0  0  0  0  0  0  0  0  0  0
   46.6670   33.2340   44.5520 C   0  0  0  0  0  0  0  0  0  0  0  0
   47.7240   33.3470   43.7490 N   0  0  0  0  0  0  0  0  0  0  0  0
   50.2300   34.1960   42.4940 C   0  0  0  0  0  0  0  0  0  0  0  0
   48.9890   35.9440   41.3810 C   0  0  0  0  0  0  0  0  0  0  0  0
   48.6650   33.6380   40.6500 C   0  0  0  0  0  0  0  0  0  0  0  0
   47.8680   34.2860   39.5700 C   0  0  0  0  0  0  0  0  0  0  0  0
   47.1650   33.5730   38.5040 C   0  0  0  0  0  0  0  0  0  0  0  0
   48.4270   34.3550   38.1640 C   0  0  0  0  0  0  0  0  0  0  0  0
   46.7497   35.9762   41.8564 H   0  0  0  0  0  0  0  0  0  0  0  0
   44.7350   35.7530   43.3966 H   0  0  0  0  0  0  0  0  0  0  0  0
   46.6414   32.4504   45.3236 H   0  0  0  0  0  0  0  0  0  0  0  0
   50.1176   34.2223   43.5879 H   0  0  0  0  0  0  0  0  0  0  0  0
   50.5651   33.1953   42.1838 H   0  0  0  0  0  0  0  0  0  0  0  0
   50.9741   34.9444   42.1838 H   0  0  0  0  0  0  0  0  0  0  0  0
   49.0224   36.6130   42.2535 H   0  0  0  0  0  0  0  0  0  0  0  0
   49.8954   36.0870   40.7744 H   0  0  0  0  0  0  0  0  0  0  0  0
   48.1014   36.1766   40.7744 H   0  0  0  0  0  0  0  0  0  0  0  0
   49.6381   33.3453   40.2287 H   0  0  0  0  0  0  0  0  0  0  0  0
   48.0704   32.7826   41.0033 H   0  0  0  0  0  0  0  0  0  0  0  0
   47.5227   35.0014   40.3309 H   0  0  0  0  0  0  0  0  0  0  0  0
   47.1791   32.4734   38.4792 H   0  0  0  0  0  0  0  0  0  0  0  0
   46.1318   33.5720   38.1264 H   0  0  0  0  0  0  0  0  0  0  0  0
   49.3573   33.8266   37.9083 H   0  0  0  0  0  0  0  0  0  0  0  0
   48.6975   35.1537   37.4577 H   0  0  0  0  0  0  0  0  0  0  0  0
  1  8  1  0
  1  2  1  0
  2  7  1  0
  3  2  2  0
  3  4  1  0
  4  5  2  0
  5  6  1  0
  7  6  2  0
  9  1  1  0
 10  1  1  0
 11 10  1  0
 12 11  1  0
 13 12  1  0
 13 11  1  0
  3 14  1  0
  4 15  1  0
  6 16  1  0
  8 17  1  0
  8 18  1  0
  8 19  1  0
  9 20  1  0
  9 21  1  0
  9 22  1  0
 10 23  1  0
 10 24  1  0
 11 25  1  0
 12 26  1  0
 12 27  1  0
 13 28  1  0
 13 29  1  0
M  ISO  8  14  14  15  14  16  14  17   8  18   8  19   8  20   8  21   8
M  ISO  8  22   8  23   8  24   8  25  13  26  13  27  13  28  13  29  13
M  END
>  <minimizedAffinity>  (1) 
-4.29420853

>  <minimizedRMSD>  (1) 
3.1489327

$$$$
