
     RDKit          3D

 44 48  0  0  1  0  0  0  0  0999 V2000
   44.6430   35.7310   44.9000 C   0  0  0  0  0  0  0  0  0  0  0  0
   45.2000   35.6890   43.5970 C   0  0  0  0  0  0  0  0  0  0  0  0
   45.9950   34.6070   43.2850 C   0  0  0  0  0  0  0  0  0  0  0  0
   46.2040   33.6430   44.2320 N   0  0  0  0  0  0  0  0  0  0  0  0
   45.6580   33.7230   45.4510 C   0  0  0  0  0  0  0  0  0  0  0  0
   44.8840   34.7590   45.7810 N   0  0  0  0  0  0  0  0  0  0  0  0
   45.9090   32.6750   46.4380 N   0  0  0  0  0  0  0  0  0  0  0  0
   45.3170   32.7540   47.7560 C   0  0  0  0  0  0  0  0  0  0  0  0
   46.2250   32.2120   48.8250 C   0  0  0  0  0  0  0  0  0  0  0  0
   47.6260   32.1030   48.3010 C   0  0  0  0  0  0  0  0  0  0  0  0
   47.5880   31.0570   47.1970 C   0  0  0  0  0  0  0  0  0  0  0  0
   46.7630   31.5600   46.0670 C   0  0  1  0  0  0  0  0  0  0  0  0
   45.9960   30.4910   45.3610 C   0  0  0  0  0  0  0  0  0  0  0  0
   46.3680   29.7510   44.3160 N   0  0  0  0  0  0  0  0  0  0  0  0
   45.4430   28.9020   43.9740 O   0  0  0  0  0  0  0  0  0  0  0  0
   44.4370   29.0850   44.8090 C   0  0  0  0  0  0  0  0  0  0  0  0
   44.7350   30.0630   45.6910 N   0  0  0  0  0  0  0  0  0  0  0  0
   43.2020   28.3110   44.7450 C   0  0  0  0  0  0  0  0  0  0  0  0
   42.2290   28.4830   43.7820 C   0  0  0  0  0  0  0  0  0  0  0  0
   41.2400   27.6060   44.0340 N   0  0  0  0  0  0  0  0  0  0  0  0
   41.5610   26.8810   45.1350 C   0  0  0  0  0  0  0  0  0  0  0  0
   40.8600   25.8750   45.7660 C   0  0  0  0  0  0  0  0  0  0  0  0
   41.4180   25.2840   46.8980 C   0  0  0  0  0  0  0  0  0  0  0  0
   42.6630   25.7190   47.3640 C   0  0  0  0  0  0  0  0  0  0  0  0
   43.3570   26.7320   46.7210 C   0  0  0  0  0  0  0  0  0  0  0  0
   42.7900   27.3080   45.5990 C   0  0  0  0  0  0  0  0  0  0  0  0
   44.0027   36.5776   45.1887 H   0  0  0  0  0  0  0  0  0  0  0  0
   45.0058   36.4869   42.8652 H   0  0  0  0  0  0  0  0  0  0  0  0
   46.4543   34.5204   42.2893 H   0  0  0  0  0  0  0  0  0  0  0  0
   45.0955   33.8076   47.9813 H   0  0  0  0  0  0  0  0  0  0  0  0
   44.4027   32.1425   47.7505 H   0  0  0  0  0  0  0  0  0  0  0  0
   46.2119   32.8891   49.6918 H   0  0  0  0  0  0  0  0  0  0  0  0
   45.8733   31.2141   49.1258 H   0  0  0  0  0  0  0  0  0  0  0  0
   47.9583   33.0709   47.8975 H   0  0  0  0  0  0  0  0  0  0  0  0
   48.3300   31.8191   49.0971 H   0  0  0  0  0  0  0  0  0  0  0  0
   48.6109   30.8584   46.8445 H   0  0  0  0  0  0  0  0  0  0  0  0
   47.1481   30.1273   47.5872 H   0  0  0  0  0  0  0  0  0  0  0  0
   47.4947   31.9437   45.3408 H   0  0  0  0  0  0  0  0  0  0  0  0
   42.2568   29.2081   42.9553 H   0  0  0  0  0  0  0  0  0  0  0  0
   40.3779   27.5018   43.4801 H   0  0  0  0  0  0  0  0  0  0  0  0
   39.8821   25.5463   45.3843 H   0  0  0  0  0  0  0  0  0  0  0  0
   40.8819   24.4793   47.4225 H   0  0  0  0  0  0  0  0  0  0  0  0
   43.0995   25.2484   48.2574 H   0  0  0  0  0  0  0  0  0  0  0  0
   44.3351   27.0696   47.0942 H   0  0  0  0  0  0  0  0  0  0  0  0
  1  6  2  0
  2  1  1  0
  3  2  2  0
  3  4  1  0
  4  5  2  0
  5  6  1  0
  5  7  1  0
  7  8  1  0
  8  9  1  0
 10  9  1  0
 11 10  1  0
 12  7  1  0
 12 11  1  0
 13 17  1  0
 13 12  1  0
 14 13  2  0
 15 14  1  0
 15 16  1  0
 16 17  2  0
 18 16  1  0
 18 26  1  0
 19 20  1  0
 19 18  2  0
 20 21  1  0
 21 26  2  0
 21 22  1  0
 22 23  2  0
 23 24  1  0
 25 24  2  0
 26 25  1  0
  1 27  1  0
  2 28  1  0
  3 29  1  0
  8 30  1  0
  8 31  1  0
  9 32  1  0
  9 33  1  0
 10 34  1  0
 10 35  1  0
 11 36  1  0
 11 37  1  0
 12 38  1  6
 19 39  1  0
 20 40  1  0
 22 41  1  0
 23 42  1  0
 24 43  1  0
 25 44  1  0
M  ISO  8  27  14  28  14  29  14  30  13  31  13  32  13  33  13  34  13
M  ISO  8  35  13  36  13  37  13  38  13  39  14  40   9  41  14  42  14
M  ISO  2  43  14  44  14
M  END
>  <minimizedAffinity>  (1) 
-6.25926065

>  <minimizedRMSD>  (1) 
0.845552206

$$$$
