
     RDKit          3D

 30 31  0  0  1  0  0  0  0  0999 V2000
   48.8650   34.5380   41.8120 C   0  0  0  0  0  0  0  0  0  0  0  0
   47.7640   34.3080   42.7690 C   0  0  0  0  0  0  0  0  0  0  0  0
   46.7110   35.2000   42.6270 C   0  0  0  0  0  0  0  0  0  0  0  0
   45.5960   35.0830   43.4950 C   0  0  0  0  0  0  0  0  0  0  0  0
   45.6340   34.0860   44.4260 N   0  0  0  0  0  0  0  0  0  0  0  0
   46.6730   33.2410   44.5310 C   0  0  0  0  0  0  0  0  0  0  0  0
   47.7050   33.3640   43.7140 N   0  0  0  0  0  0  0  0  0  0  0  0
   50.2010   34.2020   42.4480 C   0  0  0  0  0  0  0  0  0  0  0  0
   48.9740   35.9280   41.3150 C   0  0  0  0  0  0  0  0  0  0  0  0
   48.6390   33.6290   40.6290 C   0  0  0  0  0  0  0  0  0  0  0  0
   47.7660   34.2200   39.5770 C   0  0  2  0  0  0  0  0  0  0  0  0
   46.8530   33.3680   38.7920 C   0  0  0  0  0  0  0  0  0  0  0  0
   48.1280   33.8700   38.1490 C   0  0  1  0  0  0  0  0  0  0  0  0
   47.8910   34.7170   37.1010 O   0  0  0  0  0  0  0  0  0  0  0  0
   46.7406   35.9834   41.8554 H   0  0  0  0  0  0  0  0  0  0  0  0
   44.7373   35.7665   43.4211 H   0  0  0  0  0  0  0  0  0  0  0  0
   46.6651   32.4491   45.2945 H   0  0  0  0  0  0  0  0  0  0  0  0
   50.1023   34.2268   43.5433 H   0  0  0  0  0  0  0  0  0  0  0  0
   50.5156   33.1968   42.1309 H   0  0  0  0  0  0  0  0  0  0  0  0
   50.9537   34.9388   42.1309 H   0  0  0  0  0  0  0  0  0  0  0  0
   49.0282   36.6195   42.1688 H   0  0  0  0  0  0  0  0  0  0  0  0
   49.8828   36.0285   40.7034 H   0  0  0  0  0  0  0  0  0  0  0  0
   48.0920   36.1690   40.7034 H   0  0  0  0  0  0  0  0  0  0  0  0
   49.6153   33.3956   40.1791 H   0  0  0  0  0  0  0  0  0  0  0  0
   48.1252   32.7326   41.0064 H   0  0  0  0  0  0  0  0  0  0  0  0
   47.6089   35.1379   40.1625 H   0  0  0  0  0  0  0  0  0  0  0  0
   46.7486   32.3018   39.0417 H   0  0  0  0  0  0  0  0  0  0  0  0
   45.7855   33.4149   38.5308 H   0  0  0  0  0  0  0  0  0  0  0  0
   49.0573   33.4859   37.7032 H   0  0  0  0  0  0  0  0  0  0  0  0
   47.6412   35.6098   37.4483 H   0  0  0  0  0  0  0  0  0  0  0  0
  1  8  1  0
  1  2  1  0
  2  7  1  0
  3  2  2  0
  3  4  1  0
  4  5  2  0
  5  6  1  0
  7  6  2  0
  9  1  1  0
 10  1  1  0
 11 10  1  0
 12 11  1  0
 13 12  1  0
 13 11  1  0
 14 13  1  0
  3 15  1  0
  4 16  1  0
  6 17  1  0
  8 18  1  0
  8 19  1  0
  8 20  1  0
  9 21  1  0
  9 22  1  0
  9 23  1  0
 10 24  1  0
 10 25  1  0
 11 26  1  6
 12 27  1  0
 12 28  1  0
 13 29  1  1
 14 30  1  0
M  ISO  8  15  14  16  14  17  14  18   8  19   8  20   8  21   8  22   8
M  ISO  8  23   8  24   8  25   8  26  13  27  13  28  13  29  13  30   3
M  END
>  <minimizedAffinity>  (1) 
-4.79967546

>  <minimizedRMSD>  (1) 
0.266527206

$$$$
