
     RDKit          3D

 39 41  0  0  1  0  0  0  0  0999 V2000
   48.5400   33.5200   40.6860 C   0  0  0  0  0  0  0  0  0  0  0  0
   47.6370   34.1100   39.6520 C   0  0  2  0  0  0  0  0  0  0  0  0
   46.7390   33.2970   38.8200 C   0  0  0  0  0  0  0  0  0  0  0  0
   48.0110   33.8900   38.2090 C   0  0  2  0  0  0  0  0  0  0  0  0
   48.9790   32.8960   37.8200 N   0  0  0  0  0  0  0  0  0  0  0  0
   49.6980   32.2320   38.7680 C   0  0  0  0  0  0  0  0  0  0  0  0
   50.6350   31.2730   38.4310 C   0  0  0  0  0  0  0  0  0  0  0  0
   50.8460   30.9820   37.1010 C   0  0  0  0  0  0  0  0  0  0  0  0
   51.6980   30.1110   36.8180 O   0  0  0  0  0  0  0  0  0  0  0  0
   50.1310   31.6410   36.1440 N   0  0  0  0  0  0  0  0  0  0  0  0
   49.2340   32.5630   36.5410 C   0  0  0  0  0  0  0  0  0  0  0  0
   48.6050   33.1390   35.6160 O   0  0  0  0  0  0  0  0  0  0  0  0
   48.8180   34.4710   41.8330 C   0  0  0  0  0  0  0  0  0  0  0  0
   47.7290   34.2860   42.8090 C   0  0  0  0  0  0  0  0  0  0  0  0
   46.6800   35.1830   42.6550 C   0  0  0  0  0  0  0  0  0  0  0  0
   45.5780   35.1080   43.5470 C   0  0  0  0  0  0  0  0  0  0  0  0
   45.6250   34.1440   44.5100 N   0  0  0  0  0  0  0  0  0  0  0  0
   46.6570   33.2960   44.6250 C   0  0  0  0  0  0  0  0  0  0  0  0
   47.6780   33.3780   43.7870 N   0  0  0  0  0  0  0  0  0  0  0  0
   50.1580   34.1170   42.4470 C   0  0  0  0  0  0  0  0  0  0  0  0
   48.9390   35.8570   41.3080 C   0  0  0  0  0  0  0  0  0  0  0  0
   49.4953   33.2555   40.2090 H   0  0  0  0  0  0  0  0  0  0  0  0
   48.0343   32.6365   41.1028 H   0  0  0  0  0  0  0  0  0  0  0  0
   47.4467   34.9725   40.3077 H   0  0  0  0  0  0  0  0  0  0  0  0
   46.6649   32.2126   38.9894 H   0  0  0  0  0  0  0  0  0  0  0  0
   45.6684   33.3322   38.5700 H   0  0  0  0  0  0  0  0  0  0  0  0
   48.3122   34.5784   37.4056 H   0  0  0  0  0  0  0  0  0  0  0  0
   49.5284   32.4652   39.8295 H   0  0  0  0  0  0  0  0  0  0  0  0
   51.2040   30.7497   39.2136 H   0  0  0  0  0  0  0  0  0  0  0  0
   50.2737   31.4385   35.1442 H   0  0  0  0  0  0  0  0  0  0  0  0
   46.7026   35.9385   41.8558 H   0  0  0  0  0  0  0  0  0  0  0  0
   44.7244   35.7969   43.4648 H   0  0  0  0  0  0  0  0  0  0  0  0
   46.6551   32.5318   45.4162 H   0  0  0  0  0  0  0  0  0  0  0  0
   50.0760   34.1387   43.5437 H   0  0  0  0  0  0  0  0  0  0  0  0
   50.4558   33.1094   42.1214 H   0  0  0  0  0  0  0  0  0  0  0  0
   50.9146   34.8461   42.1214 H   0  0  0  0  0  0  0  0  0  0  0  0
   49.0007   36.5635   42.1489 H   0  0  0  0  0  0  0  0  0  0  0  0
   49.8477   35.9383   40.6934 H   0  0  0  0  0  0  0  0  0  0  0  0
   48.0582   36.0945   40.6934 H   0  0  0  0  0  0  0  0  0  0  0  0
  1 13  1  0
  2  1  1  0
  3  2  1  0
  4  3  1  0
  4  2  1  0
  5  4  1  0
  5  6  1  0
  7  6  2  0
  8  7  1  0
  9  8  2  0
 10 11  1  0
 10  8  1  0
 11  5  1  0
 12 11  2  0
 13 20  1  0
 13 14  1  0
 14 19  1  0
 15 14  2  0
 15 16  1  0
 16 17  2  0
 17 18  1  0
 19 18  2  0
 21 13  1  0
  1 22  1  0
  1 23  1  0
  2 24  1  1
  3 25  1  0
  3 26  1  0
  4 27  1  6
  6 28  1  0
  7 29  1  0
 10 30  1  0
 15 31  1  0
 16 32  1  0
 18 33  1  0
 20 34  1  0
 20 35  1  0
 20 36  1  0
 21 37  1  0
 21 38  1  0
 21 39  1  0
M  ISO  8  22   8  23   8  24  13  25  13  26  13  27  13  28  14  29  14
M  ISO  8  30   9  31  14  32  14  33  14  34   8  35   8  36   8  37   8
M  ISO  2  38   8  39   8
M  END
>  <minimizedAffinity>  (1) 
-5.25546885

>  <minimizedRMSD>  (1) 
0.583432019

$$$$
