
     RDKit          3D

 36 38  0  0  1  0  0  0  0  0999 V2000
   48.8610   34.6690   41.8070 C   0  0  0  0  0  0  0  0  0  0  0  0
   48.7390   33.8560   40.5820 C   0  0  0  0  0  0  0  0  0  0  0  0
   48.0450   34.4900   39.5610 C   0  0  0  0  0  0  0  0  0  0  0  0
   47.8570   33.8000   38.3360 C   0  0  0  0  0  0  0  0  0  0  0  0
   48.3770   32.5430   38.2410 N   0  0  0  0  0  0  0  0  0  0  0  0
   49.0440   31.9660   39.2530 C   0  0  0  0  0  0  0  0  0  0  0  0
   49.2120   32.6220   40.3890 N   0  0  0  0  0  0  0  0  0  0  0  0
   49.1290   36.1210   41.4560 C   0  0  0  0  0  0  0  0  0  0  0  0
   49.9570   34.2580   42.7150 C   0  0  0  0  0  0  0  0  0  0  0  0
   47.5460   34.5710   42.5490 C   0  0  0  0  0  0  0  0  0  0  0  0
   47.5310   33.4750   43.5720 C   0  0  2  0  0  0  0  0  0  0  0  0
   47.0790   32.1160   43.2260 C   0  0  0  0  0  0  0  0  0  0  0  0
   46.1730   33.0150   44.0600 C   0  0  1  0  0  0  0  0  0  0  0  0
   45.9940   32.4940   45.3940 N   0  0  0  0  0  0  0  0  0  0  0  0
   45.7300   33.3370   46.4050 C   0  0  0  0  0  0  0  0  0  0  0  0
   45.6070   32.5900   47.5460 C   0  0  0  0  0  0  0  0  0  0  0  0
   45.7960   31.2770   47.2390 N   0  0  0  0  0  0  0  0  0  0  0  0
   46.0350   31.2430   45.8990 C   0  0  0  0  0  0  0  0  0  0  0  0
   47.6488   35.5069   39.6989 H   0  0  0  0  0  0  0  0  0  0  0  0
   47.3141   34.2600   37.4972 H   0  0  0  0  0  0  0  0  0  0  0  0
   49.4498   30.9501   39.1377 H   0  0  0  0  0  0  0  0  0  0  0  0
   49.2373   36.7077   42.3802 H   0  0  0  0  0  0  0  0  0  0  0  0
   50.0552   36.1908   40.8667 H   0  0  0  0  0  0  0  0  0  0  0  0
   48.2888   36.5169   40.8667 H   0  0  0  0  0  0  0  0  0  0  0  0
   49.6331   34.3795   43.7592 H   0  0  0  0  0  0  0  0  0  0  0  0
   50.2105   33.2037   42.5300 H   0  0  0  0  0  0  0  0  0  0  0  0
   50.8412   34.8856   42.5300 H   0  0  0  0  0  0  0  0  0  0  0  0
   47.3584   35.5280   43.0578 H   0  0  0  0  0  0  0  0  0  0  0  0
   46.7664   34.3403   41.8080 H   0  0  0  0  0  0  0  0  0  0  0  0
   48.4539   33.8579   44.0321 H   0  0  0  0  0  0  0  0  0  0  0  0
   46.8076   31.8764   42.1873 H   0  0  0  0  0  0  0  0  0  0  0  0
   47.4959   31.1060   43.3528 H   0  0  0  0  0  0  0  0  0  0  0  0
   45.1794   33.4853   44.0200 H   0  0  0  0  0  0  0  0  0  0  0  0
   45.6305   34.4299   46.3303 H   0  0  0  0  0  0  0  0  0  0  0  0
   45.3904   32.9867   48.5489 H   0  0  0  0  0  0  0  0  0  0  0  0
   46.2321   30.3319   45.3151 H   0  0  0  0  0  0  0  0  0  0  0  0
  1 10  1  0
  1  9  1  0
  2  1  1  0
  3  2  2  0
  4  3  1  0
  5  4  2  0
  5  6  1  0
  6  7  2  0
  7  2  1  0
  8  1  1  0
 10 11  1  0
 11 13  1  0
 12 11  1  0
 12 13  1  0
 13 14  1  0
 14 18  1  0
 14 15  1  0
 15 16  2  0
 17 16  1  0
 18 17  2  0
  3 19  1  0
  4 20  1  0
  6 21  1  0
  8 22  1  0
  8 23  1  0
  8 24  1  0
  9 25  1  0
  9 26  1  0
  9 27  1  0
 10 28  1  0
 10 29  1  0
 11 30  1  1
 12 31  1  0
 12 32  1  0
 13 33  1  6
 15 34  1  0
 16 35  1  0
 18 36  1  0
M  ISO  8  19  14  20  14  21  14  22   8  23   8  24   8  25   8  26   8
M  ISO  8  27   8  28   8  29   8  30  13  31  13  32  13  33  13  34  14
M  ISO  2  35  14  36  14
M  END
>  <minimizedAffinity>  (1) 
-4.67377996

>  <minimizedRMSD>  (1) 
7.02821159

$$$$
