
     RDKit          3D

 40 43  0  0  1  0  0  0  0  0999 V2000
   44.6500   35.5870   44.8840 C   0  0  0  0  0  0  0  0  0  0  0  0
   45.0310   35.3850   43.5330 C   0  0  0  0  0  0  0  0  0  0  0  0
   45.6880   34.2020   43.2340 C   0  0  0  0  0  0  0  0  0  0  0  0
   45.9320   33.3070   44.2340 N   0  0  0  0  0  0  0  0  0  0  0  0
   45.5480   33.5490   45.5010 C   0  0  0  0  0  0  0  0  0  0  0  0
   44.9150   34.6800   45.8160 N   0  0  0  0  0  0  0  0  0  0  0  0
   45.8300   32.5710   46.5480 N   0  0  0  0  0  0  0  0  0  0  0  0
   45.4130   32.8270   47.9040 C   0  0  0  0  0  0  0  0  0  0  0  0
   46.3850   32.2860   48.9210 C   0  0  0  0  0  0  0  0  0  0  0  0
   47.7020   31.9950   48.2530 C   0  0  0  0  0  0  0  0  0  0  0  0
   47.4380   30.8610   47.2650 C   0  0  0  0  0  0  0  0  0  0  0  0
   46.5340   31.3520   46.1930 C   0  0  1  0  0  0  0  0  0  0  0  0
   45.5950   30.3040   45.6930 C   0  0  0  0  0  0  0  0  0  0  0  0
   45.3500   29.9400   44.4250 N   0  0  0  0  0  0  0  0  0  0  0  0
   44.4730   28.9760   44.3740 O   0  0  0  0  0  0  0  0  0  0  0  0
   44.1310   28.6940   45.6010 C   0  0  0  0  0  0  0  0  0  0  0  0
   44.8010   29.4940   46.4680 N   0  0  0  0  0  0  0  0  0  0  0  0
   43.1610   27.6580   45.9490 C   0  0  0  0  0  0  0  0  0  0  0  0
   43.5630   26.6360   46.7820 C   0  0  0  0  0  0  0  0  0  0  0  0
   42.6600   25.6480   47.1210 C   0  0  0  0  0  0  0  0  0  0  0  0
   41.3810   25.7260   46.6100 C   0  0  0  0  0  0  0  0  0  0  0  0
   40.9340   26.7440   45.7650 C   0  0  0  0  0  0  0  0  0  0  0  0
   41.8580   27.7160   45.4430 C   0  0  0  0  0  0  0  0  0  0  0  0
   44.1253   36.5122   45.1646 H   0  0  0  0  0  0  0  0  0  0  0  0
   44.8147   36.1340   42.7570 H   0  0  0  0  0  0  0  0  0  0  0  0
   46.0085   33.9876   42.2038 H   0  0  0  0  0  0  0  0  0  0  0  0
   45.3234   33.9141   48.0458 H   0  0  0  0  0  0  0  0  0  0  0  0
   44.4507   32.3171   48.0586 H   0  0  0  0  0  0  0  0  0  0  0  0
   46.5345   33.0302   49.7171 H   0  0  0  0  0  0  0  0  0  0  0  0
   45.9822   31.3592   49.3555 H   0  0  0  0  0  0  0  0  0  0  0  0
   48.0651   32.8869   47.7214 H   0  0  0  0  0  0  0  0  0  0  0  0
   48.4708   31.7149   48.9882 H   0  0  0  0  0  0  0  0  0  0  0  0
   48.3887   30.5293   46.8221 H   0  0  0  0  0  0  0  0  0  0  0  0
   46.9680   30.0151   47.7881 H   0  0  0  0  0  0  0  0  0  0  0  0
   47.2027   31.6069   45.3576 H   0  0  0  0  0  0  0  0  0  0  0  0
   44.5911   26.6079   47.1721 H   0  0  0  0  0  0  0  0  0  0  0  0
   42.9532   24.8192   47.7822 H   0  0  0  0  0  0  0  0  0  0  0  0
   40.6674   24.9356   46.8858 H   0  0  0  0  0  0  0  0  0  0  0  0
   39.9044   26.7692   45.3785 H   0  0  0  0  0  0  0  0  0  0  0  0
   41.5674   28.5454   44.7815 H   0  0  0  0  0  0  0  0  0  0  0  0
  1  6  2  0
  2  1  1  0
  3  2  2  0
  3  4  1  0
  4  5  2  0
  5  6  1  0
  5  7  1  0
  7  8  1  0
  8  9  1  0
 10  9  1  0
 11 10  1  0
 12  7  1  0
 12 11  1  0
 13 12  1  0
 13 17  1  0
 14 13  2  0
 15 14  1  0
 15 16  1  0
 16 18  1  0
 16 17  2  0
 18 19  2  0
 19 20  1  0
 21 20  2  0
 22 21  1  0
 23 22  2  0
 23 18  1  0
  1 24  1  0
  2 25  1  0
  3 26  1  0
  8 27  1  0
  8 28  1  0
  9 29  1  0
  9 30  1  0
 10 31  1  0
 10 32  1  0
 11 33  1  0
 11 34  1  0
 12 35  1  6
 19 36  1  0
 20 37  1  0
 21 38  1  0
 22 39  1  0
 23 40  1  0
M  ISO  8  24  14  25  14  26  14  27  13  28  13  29  13  30  13  31  13
M  ISO  8  32  13  33  13  34  13  35  13  36  14  37  14  38  14  39  14
M  ISO  1  40  14
M  END
>  <minimizedAffinity>  (1) 
-6.25637436

>  <minimizedRMSD>  (1) 
0.954687893

$$$$
