
     RDKit          3D

 41 43  0  0  1  0  0  0  0  0999 V2000
   48.8520   34.5280   41.8150 C   0  0  0  0  0  0  0  0  0  0  0  0
   47.7550   34.3080   42.7750 C   0  0  0  0  0  0  0  0  0  0  0  0
   46.7190   35.2260   42.6750 C   0  0  0  0  0  0  0  0  0  0  0  0
   45.6170   35.1050   43.5620 C   0  0  0  0  0  0  0  0  0  0  0  0
   45.6500   34.0840   44.4610 N   0  0  0  0  0  0  0  0  0  0  0  0
   46.6710   33.2150   44.5250 C   0  0  0  0  0  0  0  0  0  0  0  0
   47.6950   33.3370   43.6920 N   0  0  0  0  0  0  0  0  0  0  0  0
   50.1920   34.1560   42.4200 C   0  0  0  0  0  0  0  0  0  0  0  0
   48.9840   35.9390   41.3640 C   0  0  0  0  0  0  0  0  0  0  0  0
   48.5530   33.6430   40.6220 C   0  0  0  0  0  0  0  0  0  0  0  0
   47.2770   33.9880   39.9520 C   0  0  2  0  0  0  0  0  0  0  0  0
   46.2210   32.9970   39.6600 C   0  0  0  0  0  0  0  0  0  0  0  0
   47.0460   33.5760   38.5340 C   0  0  2  0  0  0  0  0  0  0  0  0
   47.8460   32.6470   37.8110 N   0  0  0  0  0  0  0  0  0  0  0  0
   48.8510   33.1660   36.9700 C   0  0  0  0  0  0  0  0  0  0  0  0
   48.6830   32.7930   35.5060 C   0  0  0  0  0  0  0  0  0  0  0  0
   48.6880   31.3220   35.5160 N   0  0  0  0  0  0  0  0  0  0  0  0
   47.4090   30.9550   36.0600 C   0  0  0  0  0  0  0  0  0  0  0  0
   47.0060   31.6300   37.3020 C   0  0  0  0  0  0  0  0  0  0  0  0
   46.7509   36.0299   41.9248 H   0  0  0  0  0  0  0  0  0  0  0  0
   44.7715   35.8076   43.5241 H   0  0  0  0  0  0  0  0  0  0  0  0
   46.6580   32.4032   45.2672 H   0  0  0  0  0  0  0  0  0  0  0  0
   50.1173   34.1767   43.5173 H   0  0  0  0  0  0  0  0  0  0  0  0
   50.4750   33.1453   42.0908 H   0  0  0  0  0  0  0  0  0  0  0  0
   50.9555   34.8761   42.0908 H   0  0  0  0  0  0  0  0  0  0  0  0
   49.0458   36.6000   42.2411 H   0  0  0  0  0  0  0  0  0  0  0  0
   49.8961   36.0467   40.7587 H   0  0  0  0  0  0  0  0  0  0  0  0
   48.1077   36.2140   40.7587 H   0  0  0  0  0  0  0  0  0  0  0  0
   49.3709   33.7475   39.8939 H   0  0  0  0  0  0  0  0  0  0  0  0
   48.4626   32.6109   40.9917 H   0  0  0  0  0  0  0  0  0  0  0  0
   47.2837   34.9359   40.5101 H   0  0  0  0  0  0  0  0  0  0  0  0
   46.3556   31.9463   39.9565 H   0  0  0  0  0  0  0  0  0  0  0  0
   45.1452   32.9202   39.8762 H   0  0  0  0  0  0  0  0  0  0  0  0
   46.9137   34.1653   37.6147 H   0  0  0  0  0  0  0  0  0  0  0  0
   48.8384   34.2629   37.0515 H   0  0  0  0  0  0  0  0  0  0  0  0
   49.8035   32.7284   37.3035 H   0  0  0  0  0  0  0  0  0  0  0  0
   49.5166   33.1836   34.9039 H   0  0  0  0  0  0  0  0  0  0  0  0
   47.7679   33.2123   35.0624 H   0  0  0  0  0  0  0  0  0  0  0  0
   49.4415   30.6937   35.2024 H   0  0  0  0  0  0  0  0  0  0  0  0
   46.7655   30.2080   35.5723 H   0  0  0  0  0  0  0  0  0  0  0  0
   46.0769   31.3517   37.8209 H   0  0  0  0  0  0  0  0  0  0  0  0
  1  8  1  0
  1  2  1  0
  2  7  1  0
  3  2  2  0
  3  4  1  0
  4  5  2  0
  5  6  1  0
  7  6  2  0
  9  1  1  0
 10  1  1  0
 11 10  1  0
 12 11  1  0
 13 12  1  0
 13 11  1  0
 14 13  1  0
 15 14  1  0
 16 17  1  0
 16 15  1  0
 17 18  1  0
 18 19  2  0
 19 14  1  0
  3 20  1  0
  4 21  1  0
  6 22  1  0
  8 23  1  0
  8 24  1  0
  8 25  1  0
  9 26  1  0
  9 27  1  0
  9 28  1  0
 10 29  1  0
 10 30  1  0
 11 31  1  6
 12 32  1  0
 12 33  1  0
 13 34  1  6
 15 35  1  0
 15 36  1  0
 16 37  1  0
 16 38  1  0
 17 39  1  0
 18 40  1  0
 19 41  1  0
M  ISO  8  20  14  21  14  22  14  23   8  24   8  25   8  26   8  27   8
M  ISO  8  28   8  29   8  30   8  31  13  32  13  33  13  34  13  35  13
M  ISO  5  36  13  37  13  38  13  40  13  41  13
M  END
>  <minimizedAffinity>  (1) 
-4.72149467

>  <minimizedRMSD>  (1) 
1.29785228

$$$$
