
     RDKit          3D

 37 39  0  0  1  0  0  0  0  0999 V2000
   48.6670   34.3970   41.8940 C   0  0  0  0  0  0  0  0  0  0  0  0
   47.5360   34.3160   42.8330 C   0  0  0  0  0  0  0  0  0  0  0  0
   46.4910   35.1820   42.5320 C   0  0  0  0  0  0  0  0  0  0  0  0
   45.3510   35.1980   43.3740 C   0  0  0  0  0  0  0  0  0  0  0  0
   45.3540   34.3480   44.4420 N   0  0  0  0  0  0  0  0  0  0  0  0
   46.3820   33.5260   44.7000 C   0  0  0  0  0  0  0  0  0  0  0  0
   47.4360   33.5250   43.9050 N   0  0  0  0  0  0  0  0  0  0  0  0
   49.8530   35.0830   42.5390 C   0  0  0  0  0  0  0  0  0  0  0  0
   48.3750   35.1510   40.6470 C   0  0  0  0  0  0  0  0  0  0  0  0
   49.0490   32.9810   41.5250 C   0  0  0  0  0  0  0  0  0  0  0  0
   48.4700   32.5310   40.2210 C   0  0  2  0  0  0  0  0  0  0  0  0
   48.3590   31.1090   39.8660 C   0  0  0  0  0  0  0  0  0  0  0  0
   49.4600   31.9480   39.2310 C   0  0  1  0  0  0  0  0  0  0  0  0
   49.2730   32.0880   37.7810 C   0  0  0  0  0  0  0  0  0  0  0  0
   48.5410   33.1170   37.2690 C   0  0  0  0  0  0  0  0  0  0  0  0
   48.4570   33.1130   35.8760 C   0  0  0  0  0  0  0  0  0  0  0  0
   49.0220   32.2070   35.0480 N   0  0  0  0  0  0  0  0  0  0  0  0
   49.7340   31.2150   35.6350 C   0  0  0  0  0  0  0  0  0  0  0  0
   49.8400   31.1810   36.9610 N   0  0  0  0  0  0  0  0  0  0  0  0
   46.5479   35.8437   41.6551 H   0  0  0  0  0  0  0  0  0  0  0  0
   44.5004   35.8666   43.1754 H   0  0  0  0  0  0  0  0  0  0  0  0
   46.3470   32.8550   45.5710 H   0  0  0  0  0  0  0  0  0  0  0  0
   49.7578   35.0279   43.6335 H   0  0  0  0  0  0  0  0  0  0  0  0
   50.7810   34.5822   42.2260 H   0  0  0  0  0  0  0  0  0  0  0  0
   49.8817   36.1371   42.2260 H   0  0  0  0  0  0  0  0  0  0  0  0
   47.9887   36.1485   40.9036 H   0  0  0  0  0  0  0  0  0  0  0  0
   49.2976   35.2556   40.0572 H   0  0  0  0  0  0  0  0  0  0  0  0
   47.6226   34.6069   40.0572 H   0  0  0  0  0  0  0  0  0  0  0  0
   50.1454   32.9214   41.4590 H   0  0  0  0  0  0  0  0  0  0  0  0
   48.6435   32.3209   42.3059 H   0  0  0  0  0  0  0  0  0  0  0  0
   47.7265   33.3415   40.2385 H   0  0  0  0  0  0  0  0  0  0  0  0
   48.6165   30.3379   40.6070 H   0  0  0  0  0  0  0  0  0  0  0  0
   47.5523   30.4704   39.4768 H   0  0  0  0  0  0  0  0  0  0  0  0
   50.5571   32.0000   39.1708 H   0  0  0  0  0  0  0  0  0  0  0  0
   48.0599   33.8815   37.8968 H   0  0  0  0  0  0  0  0  0  0  0  0
   47.8770   33.9225   35.4087 H   0  0  0  0  0  0  0  0  0  0  0  0
   50.2207   30.4436   35.0202 H   0  0  0  0  0  0  0  0  0  0  0  0
  1  8  1  0
  1  2  1  0
  2  7  1  0
  3  2  2  0
  3  4  1  0
  4  5  2  0
  5  6  1  0
  7  6  2  0
  9  1  1  0
 10  1  1  0
 11 10  1  0
 12 11  1  0
 13 12  1  0
 13 11  1  0
 14 13  1  0
 15 14  2  0
 16 15  1  0
 17 18  1  0
 17 16  2  0
 18 19  2  0
 19 14  1  0
  3 20  1  0
  4 21  1  0
  6 22  1  0
  8 23  1  0
  8 24  1  0
  8 25  1  0
  9 26  1  0
  9 27  1  0
  9 28  1  0
 10 29  1  0
 10 30  1  0
 11 31  1  6
 12 32  1  0
 12 33  1  0
 13 34  1  1
 15 35  1  0
 16 36  1  0
 18 37  1  0
M  ISO  8  20  14  21  14  22  14  23   8  24   8  25   8  26   8  27   8
M  ISO  8  28   8  29   8  30   8  31  13  32  13  33  13  34  13  35  14
M  ISO  2  36  14  37  14
M  END
>  <minimizedAffinity>  (1) 
-4.59191227

>  <minimizedRMSD>  (1) 
2.73142123

$$$$
