
     RDKit          3D

 42 44  0  0  1  0  0  0  0  0999 V2000
   48.7490   34.4120   41.8320 C   0  0  0  0  0  0  0  0  0  0  0  0
   47.6080   34.3720   42.7660 C   0  0  0  0  0  0  0  0  0  0  0  0
   46.5900   35.2650   42.4480 C   0  0  0  0  0  0  0  0  0  0  0  0
   45.4480   35.3210   43.2880 C   0  0  0  0  0  0  0  0  0  0  0  0
   45.4220   34.4870   44.3590 N   0  0  0  0  0  0  0  0  0  0  0  0
   46.4250   33.6380   44.6320 C   0  0  0  0  0  0  0  0  0  0  0  0
   47.4880   33.5920   43.8440 N   0  0  0  0  0  0  0  0  0  0  0  0
   50.0640   34.4560   42.5910 C   0  0  0  0  0  0  0  0  0  0  0  0
   48.7630   35.5930   40.9300 C   0  0  0  0  0  0  0  0  0  0  0  0
   48.6870   33.1760   40.9870 C   0  0  0  0  0  0  0  0  0  0  0  0
   48.1000   33.3980   39.6190 C   0  0  2  0  0  0  0  0  0  0  0  0
   46.6750   33.1830   39.3360 C   0  0  0  0  0  0  0  0  0  0  0  0
   47.7150   32.1630   38.8550 C   0  0  1  0  0  0  0  0  0  0  0  0
   47.8040   31.9620   37.4150 C   0  0  0  0  0  0  0  0  0  0  0  0
   46.6120   32.2400   36.5620 C   0  0  0  0  0  0  0  0  0  0  0  0
   47.2160   32.1900   35.1730 C   0  0  0  0  0  0  0  0  0  0  0  0
   48.5640   32.8040   35.3200 C   0  0  0  0  0  0  0  0  0  0  0  0
   48.8970   32.8430   36.8000 C   0  0  0  0  0  0  0  0  0  0  0  0
   46.6688   35.9143   41.5636 H   0  0  0  0  0  0  0  0  0  0  0  0
   44.6176   36.0118   43.0800 H   0  0  0  0  0  0  0  0  0  0  0  0
   46.3638   32.9798   45.5112 H   0  0  0  0  0  0  0  0  0  0  0  0
   49.8635   34.4493   43.6726 H   0  0  0  0  0  0  0  0  0  0  0  0
   50.6704   33.5776   42.3250 H   0  0  0  0  0  0  0  0  0  0  0  0
   50.6104   35.3729   42.3250 H   0  0  0  0  0  0  0  0  0  0  0  0
   48.7739   36.5138   41.5317 H   0  0  0  0  0  0  0  0  0  0  0  0
   49.6608   35.5590   40.2953 H   0  0  0  0  0  0  0  0  0  0  0  0
   47.8646   35.5803   40.2953 H   0  0  0  0  0  0  0  0  0  0  0  0
   49.7092   32.7882   40.8659 H   0  0  0  0  0  0  0  0  0  0  0  0
   48.0241   32.4684   41.5066 H   0  0  0  0  0  0  0  0  0  0  0  0
   48.7526   34.2686   39.4570 H   0  0  0  0  0  0  0  0  0  0  0  0
   45.9854   32.9221   40.1523 H   0  0  0  0  0  0  0  0  0  0  0  0
   45.8806   33.7708   38.8528 H   0  0  0  0  0  0  0  0  0  0  0  0
   47.9971   31.1078   38.9852 H   0  0  0  0  0  0  0  0  0  0  0  0
   47.9814   30.8766   37.3963 H   0  0  0  0  0  0  0  0  0  0  0  0
   45.8371   31.4700   36.6911 H   0  0  0  0  0  0  0  0  0  0  0  0
   46.1040   33.1871   36.7963 H   0  0  0  0  0  0  0  0  0  0  0  0
   46.6036   32.7659   34.4636 H   0  0  0  0  0  0  0  0  0  0  0  0
   47.2687   31.1637   34.7807 H   0  0  0  0  0  0  0  0  0  0  0  0
   49.3109   32.1998   34.7842 H   0  0  0  0  0  0  0  0  0  0  0  0
   48.5718   33.8196   34.8975 H   0  0  0  0  0  0  0  0  0  0  0  0
   49.8969   32.4269   36.9926 H   0  0  0  0  0  0  0  0  0  0  0  0
   48.9216   33.8614   37.2151 H   0  0  0  0  0  0  0  0  0  0  0  0
  1  8  1  0
  1  2  1  0
  2  7  1  0
  3  2  2  0
  3  4  1  0
  4  5  2  0
  5  6  1  0
  7  6  2  0
  9  1  1  0
 10  1  1  0
 11 10  1  0
 12 11  1  0
 13 12  1  0
 13 11  1  0
 14 13  1  0
 15 14  1  0
 16 17  1  0
 16 15  1  0
 17 18  1  0
 18 14  1  0
  3 19  1  0
  4 20  1  0
  6 21  1  0
  8 22  1  0
  8 23  1  0
  8 24  1  0
  9 25  1  0
  9 26  1  0
  9 27  1  0
 10 28  1  0
 10 29  1  0
 11 30  1  6
 12 31  1  0
 12 32  1  0
 13 33  1  1
 14 34  1  0
 15 35  1  0
 15 36  1  0
 16 37  1  0
 16 38  1  0
 17 39  1  0
 17 40  1  0
 18 41  1  0
 18 42  1  0
M  ISO  8  19  14  20  14  21  14  22   8  23   8  24   8  25   8  26   8
M  ISO  8  27   8  28   8  29   8  30  13  31  13  32  13  33  13  34  13
M  ISO  8  35  13  36  13  37  13  38  13  39  13  40  13  41  13  42  13
M  END
>  <minimizedAffinity>  (1) 
-4.51797247

>  <minimizedRMSD>  (1) 
2.13887572

$$$$
