
     RDKit          3D

 31 32  0  0  1  0  0  0  0  0999 V2000
   48.8560   34.5380   41.8460 C   0  0  0  0  0  0  0  0  0  0  0  0
   47.7520   34.3150   42.8020 C   0  0  0  0  0  0  0  0  0  0  0  0
   46.6900   35.1960   42.6350 C   0  0  0  0  0  0  0  0  0  0  0  0
   45.5720   35.0860   43.4990 C   0  0  0  0  0  0  0  0  0  0  0  0
   45.6160   34.1080   44.4500 N   0  0  0  0  0  0  0  0  0  0  0  0
   46.6630   33.2770   44.5770 C   0  0  0  0  0  0  0  0  0  0  0  0
   47.6980   33.3890   43.7660 N   0  0  0  0  0  0  0  0  0  0  0  0
   50.1910   34.1990   42.4830 C   0  0  0  0  0  0  0  0  0  0  0  0
   48.9740   35.9240   41.3450 C   0  0  0  0  0  0  0  0  0  0  0  0
   48.6310   33.6240   40.6680 C   0  0  0  0  0  0  0  0  0  0  0  0
   47.8760   34.2540   39.5500 C   0  0  2  0  0  0  0  0  0  0  0  0
   47.0440   33.4760   38.6200 C   0  0  0  0  0  0  0  0  0  0  0  0
   48.4070   33.9790   38.1580 C   0  0  2  0  0  0  0  0  0  0  0  0
   49.4800   33.0190   37.9900 N   0  0  0  0  0  0  0  0  0  0  0  0
   46.7168   35.9636   41.8476 H   0  0  0  0  0  0  0  0  0  0  0  0
   44.7069   35.7592   43.4072 H   0  0  0  0  0  0  0  0  0  0  0  0
   46.6580   32.5022   45.3578 H   0  0  0  0  0  0  0  0  0  0  0  0
   50.0916   34.2242   43.5782 H   0  0  0  0  0  0  0  0  0  0  0  0
   50.5035   33.1930   42.1663 H   0  0  0  0  0  0  0  0  0  0  0  0
   50.9456   34.9340   42.1663 H   0  0  0  0  0  0  0  0  0  0  0  0
   49.0331   36.6179   42.1965 H   0  0  0  0  0  0  0  0  0  0  0  0
   49.8833   36.0165   40.7329 H   0  0  0  0  0  0  0  0  0  0  0  0
   48.0935   36.1688   40.7329 H   0  0  0  0  0  0  0  0  0  0  0  0
   49.6116   33.3036   40.2862 H   0  0  0  0  0  0  0  0  0  0  0  0
   48.0222   32.7821   41.0293 H   0  0  0  0  0  0  0  0  0  0  0  0
   47.6497   35.1334   40.1708 H   0  0  0  0  0  0  0  0  0  0  0  0
   46.8866   32.4012   38.7935 H   0  0  0  0  0  0  0  0  0  0  0  0
   46.0160   33.5682   38.2397 H   0  0  0  0  0  0  0  0  0  0  0  0
   48.7867   34.5894   37.3254 H   0  0  0  0  0  0  0  0  0  0  0  0
   49.8180   32.7166   38.9148 H   0  0  0  0  0  0  0  0  0  0  0  0
   49.1315   32.2024   37.4679 H   0  0  0  0  0  0  0  0  0  0  0  0
  1  8  1  0
  1  2  1  0
  2  7  1  0
  3  2  2  0
  3  4  1  0
  4  5  2  0
  5  6  1  0
  7  6  2  0
  9  1  1  0
 10  1  1  0
 11 10  1  0
 12 11  1  0
 13 12  1  0
 13 11  1  0
 14 13  1  0
  3 15  1  0
  4 16  1  0
  6 17  1  0
  8 18  1  0
  8 19  1  0
  8 20  1  0
  9 21  1  0
  9 22  1  0
  9 23  1  0
 10 24  1  0
 10 25  1  0
 11 26  1  1
 12 27  1  0
 12 28  1  0
 13 29  1  6
 14 30  1  0
 14 31  1  0
M  ISO  8  15  14  16  14  17  14  18   8  19   8  20   8  21   8  22   8
M  ISO  8  23   8  24   8  25   8  26  13  27  13  28  13  29  13  30   5
M  ISO  1  31   5
M  END
>  <minimizedAffinity>  (1) 
-4.5798049

>  <minimizedRMSD>  (1) 
0.164876223

$$$$
