
     RDKit          3D

 32 33  0  0  1  0  0  0  0  0999 V2000
   48.8930   34.5650   41.8720 C   0  0  0  0  0  0  0  0  0  0  0  0
   47.7750   34.3320   42.8020 C   0  0  0  0  0  0  0  0  0  0  0  0
   46.7060   35.2000   42.6190 C   0  0  0  0  0  0  0  0  0  0  0  0
   45.5760   35.0800   43.4660 C   0  0  0  0  0  0  0  0  0  0  0  0
   45.6130   34.1050   44.4160 N   0  0  0  0  0  0  0  0  0  0  0  0
   46.6670   33.2840   44.5590 C   0  0  0  0  0  0  0  0  0  0  0  0
   47.7140   33.4080   43.7640 N   0  0  0  0  0  0  0  0  0  0  0  0
   50.2240   34.2770   42.5430 C   0  0  0  0  0  0  0  0  0  0  0  0
   48.9840   35.9520   41.3480 C   0  0  0  0  0  0  0  0  0  0  0  0
   48.7060   33.6190   40.7040 C   0  0  0  0  0  0  0  0  0  0  0  0
   48.0280   34.2420   39.5440 C   0  0  2  0  0  0  0  0  0  0  0  0
   46.9120   33.6210   38.8060 C   0  0  0  0  0  0  0  0  0  0  0  0
   48.2840   33.6730   38.1780 C   0  0  2  0  0  0  0  0  0  0  0  0
   48.9360   32.3520   37.9830 C   0  0  0  0  0  0  0  0  0  0  0  0
   50.2570   32.6020   37.5710 F   0  0  0  0  0  0  0  0  0  0  0  0
   48.3870   31.5560   37.0120 F   0  0  0  0  0  0  0  0  0  0  0  0
   49.1220   31.6480   39.1850 F   0  0  0  0  0  0  0  0  0  0  0  0
   46.7360   35.9667   41.8308 H   0  0  0  0  0  0  0  0  0  0  0  0
   44.7066   35.7457   43.3606 H   0  0  0  0  0  0  0  0  0  0  0  0
   46.6577   32.5082   45.3387 H   0  0  0  0  0  0  0  0  0  0  0  0
   50.0975   34.3044   43.6354 H   0  0  0  0  0  0  0  0  0  0  0  0
   50.5795   33.2811   42.2399 H   0  0  0  0  0  0  0  0  0  0  0  0
   50.9594   35.0368   42.2399 H   0  0  0  0  0  0  0  0  0  0  0  0
   49.0304   36.6594   42.1891 H   0  0  0  0  0  0  0  0  0  0  0  0
   49.8907   36.0530   40.7334 H   0  0  0  0  0  0  0  0  0  0  0  0
   48.0983   36.1706   40.7334 H   0  0  0  0  0  0  0  0  0  0  0  0
   49.6959   33.2651   40.3803 H   0  0  0  0  0  0  0  0  0  0  0  0
   48.0633   32.7969   41.0522 H   0  0  0  0  0  0  0  0  0  0  0  0
   48.1304   35.2163   40.0442 H   0  0  0  0  0  0  0  0  0  0  0  0
   46.4988   32.6590   39.1433 H   0  0  0  0  0  0  0  0  0  0  0  0
   45.9068   33.9477   38.5013 H   0  0  0  0  0  0  0  0  0  0  0  0
   48.7664   34.0831   37.2785 H   0  0  0  0  0  0  0  0  0  0  0  0
  1  8  1  0
  1  2  1  0
  2  7  1  0
  3  2  2  0
  3  4  1  0
  4  5  2  0
  5  6  1  0
  7  6  2  0
  9  1  1  0
 10  1  1  0
 11 10  1  0
 12 11  1  0
 13 12  1  0
 13 11  1  0
 14 13  1  0
 14 17  1  0
 15 14  1  0
 16 14  1  0
  3 18  1  0
  4 19  1  0
  6 20  1  0
  8 21  1  0
  8 22  1  0
  8 23  1  0
  9 24  1  0
  9 25  1  0
  9 26  1  0
 10 27  1  0
 10 28  1  0
 11 29  1  6
 12 30  1  0
 12 31  1  0
 13 32  1  6
M  ISO  8  18  14  19  14  20  14  21   8  22   8  23   8  24   8  25   8
M  ISO  7  26   8  27   8  28   8  29  13  30  13  31  13  32  13
M  END
>  <minimizedAffinity>  (1) 
-4.53317451

>  <minimizedRMSD>  (1) 
0.675456762

$$$$
