
     RDKit          3D

 36 38  0  0  1  0  0  0  0  0999 V2000
   47.2920   34.1420   41.9130 C   0  0  0  0  0  0  0  0  0  0  0  0
   46.0000   34.1540   41.2020 C   0  0  0  0  0  0  0  0  0  0  0  0
   45.9450   33.2710   40.1310 C   0  0  0  0  0  0  0  0  0  0  0  0
   44.7510   33.2060   39.3680 C   0  0  0  0  0  0  0  0  0  0  0  0
   43.7240   34.0250   39.7440 N   0  0  0  0  0  0  0  0  0  0  0  0
   43.8170   34.8650   40.7860 C   0  0  0  0  0  0  0  0  0  0  0  0
   44.9380   34.9150   41.4880 N   0  0  0  0  0  0  0  0  0  0  0  0
   48.2530   35.1310   41.2850 C   0  0  0  0  0  0  0  0  0  0  0  0
   47.9850   32.8330   41.9160 C   0  0  0  0  0  0  0  0  0  0  0  0
   47.0270   34.5540   43.3440 C   0  0  0  0  0  0  0  0  0  0  0  0
   46.7570   33.3960   44.2500 C   0  0  2  0  0  0  0  0  0  0  0  0
   45.4450   32.7350   44.3260 C   0  0  0  0  0  0  0  0  0  0  0  0
   45.8730   33.6760   45.4470 C   0  0  1  0  0  0  0  0  0  0  0  0
   46.0600   32.9820   46.7000 N   0  0  0  0  0  0  0  0  0  0  0  0
   45.1550   32.8780   47.6730 N   0  0  0  0  0  0  0  0  0  0  0  0
   45.6830   32.1550   48.6950 C   0  0  0  0  0  0  0  0  0  0  0  0
   46.9570   31.8170   48.3070 C   0  0  0  0  0  0  0  0  0  0  0  0
   47.1880   32.3450   47.0440 C   0  0  0  0  0  0  0  0  0  0  0  0
   46.8079   32.6365   39.8803 H   0  0  0  0  0  0  0  0  0  0  0  0
   44.6559   32.5248   38.5096 H   0  0  0  0  0  0  0  0  0  0  0  0
   42.9665   35.5085   41.0554 H   0  0  0  0  0  0  0  0  0  0  0  0
   48.7851   35.6786   42.0769 H   0  0  0  0  0  0  0  0  0  0  0  0
   48.9799   34.5903   40.6611 H   0  0  0  0  0  0  0  0  0  0  0  0
   47.6916   35.8421   40.6611 H   0  0  0  0  0  0  0  0  0  0  0  0
   48.1556   32.5108   42.9538 H   0  0  0  0  0  0  0  0  0  0  0  0
   47.3633   32.0878   41.3982 H   0  0  0  0  0  0  0  0  0  0  0  0
   48.9508   32.9282   41.3982 H   0  0  0  0  0  0  0  0  0  0  0  0
   47.9076   35.0948   43.7209 H   0  0  0  0  0  0  0  0  0  0  0  0
   46.1252   35.1839   43.3411 H   0  0  0  0  0  0  0  0  0  0  0  0
   47.7660   32.9985   44.0660 H   0  0  0  0  0  0  0  0  0  0  0  0
   44.6405   33.0329   43.6375 H   0  0  0  0  0  0  0  0  0  0  0  0
   45.1007   31.6913   44.2811 H   0  0  0  0  0  0  0  0  0  0  0  0
   45.5568   34.6133   45.9281 H   0  0  0  0  0  0  0  0  0  0  0  0
   45.1897   31.8929   49.6426 H   0  0  0  0  0  0  0  0  0  0  0  0
   47.6734   31.2273   48.8977 H   0  0  0  0  0  0  0  0  0  0  0  0
   48.1083   32.2583   46.4477 H   0  0  0  0  0  0  0  0  0  0  0  0
  1  9  1  0
  1 10  1  0
  2  7  1  0
  2  1  1  0
  3  2  2  0
  4  5  2  0
  4  3  1  0
  5  6  1  0
  6  7  2  0
  8  1  1  0
 10 11  1  0
 11 12  1  0
 11 13  1  0
 12 13  1  0
 13 14  1  0
 14 18  1  0
 14 15  1  0
 15 16  2  0
 17 16  1  0
 18 17  2  0
  3 19  1  0
  4 20  1  0
  6 21  1  0
  8 22  1  0
  8 23  1  0
  8 24  1  0
  9 25  1  0
  9 26  1  0
  9 27  1  0
 10 28  1  0
 10 29  1  0
 11 30  1  1
 12 31  1  0
 12 32  1  0
 13 33  1  1
 16 34  1  0
 17 35  1  0
 18 36  1  0
M  ISO  8  19  14  20  14  21  14  22   8  23   8  24   8  25   8  26   8
M  ISO  8  27   8  28   8  29   8  30  13  31  13  32  13  33  13  34  14
M  ISO  2  35  14  36  14
M  END
>  <minimizedAffinity>  (1) 
-4.59677935

>  <minimizedRMSD>  (1) 
7.43621492

$$$$
