
     RDKit          3D

 30 31  0  0  1  0  0  0  0  0999 V2000
   48.7750   34.5220   41.8940 C   0  0  0  0  0  0  0  0  0  0  0  0
   47.6330   34.3990   42.8190 C   0  0  0  0  0  0  0  0  0  0  0  0
   46.5850   35.2710   42.5400 C   0  0  0  0  0  0  0  0  0  0  0  0
   45.4440   35.2380   43.3860 C   0  0  0  0  0  0  0  0  0  0  0  0
   45.4510   34.3490   44.4200 N   0  0  0  0  0  0  0  0  0  0  0  0
   46.4760   33.5200   44.6630 C   0  0  0  0  0  0  0  0  0  0  0  0
   47.5260   33.5700   43.8610 N   0  0  0  0  0  0  0  0  0  0  0  0
   50.0780   34.3110   42.6390 C   0  0  0  0  0  0  0  0  0  0  0  0
   48.8640   35.8290   41.2000 C   0  0  0  0  0  0  0  0  0  0  0  0
   48.6240   33.4330   40.8530 C   0  0  0  0  0  0  0  0  0  0  0  0
   48.1200   33.9380   39.5400 C   0  0  2  0  0  0  0  0  0  0  0  0
   46.8740   33.4610   38.9270 C   0  0  0  0  0  0  0  0  0  0  0  0
   48.2150   32.9700   38.3810 C   0  0  1  0  0  0  0  0  0  0  0  0
   48.5380   33.4970   36.7080 S   0  0  0  0  0  0  0  0  0  0  0  0
   46.6384   35.9659   41.6889 H   0  0  0  0  0  0  0  0  0  0  0  0
   44.5865   35.9050   43.2133 H   0  0  0  0  0  0  0  0  0  0  0  0
   46.4444   32.8163   45.5078 H   0  0  0  0  0  0  0  0  0  0  0  0
   49.8900   34.3414   43.7224 H   0  0  0  0  0  0  0  0  0  0  0  0
   50.5012   33.3326   42.3676 H   0  0  0  0  0  0  0  0  0  0  0  0
   50.7884   35.1058   42.3676 H   0  0  0  0  0  0  0  0  0  0  0  0
   48.9190   36.6366   41.9448 H   0  0  0  0  0  0  0  0  0  0  0  0
   49.7656   35.8491   40.5701 H   0  0  0  0  0  0  0  0  0  0  0  0
   47.9735   35.9711   40.5701 H   0  0  0  0  0  0  0  0  0  0  0  0
   49.6060   32.9638   40.6932 H   0  0  0  0  0  0  0  0  0  0  0  0
   47.8807   32.7175   41.2346 H   0  0  0  0  0  0  0  0  0  0  0  0
   48.4697   34.9535   39.7777 H   0  0  0  0  0  0  0  0  0  0  0  0
   46.2207   32.7697   39.4795 H   0  0  0  0  0  0  0  0  0  0  0  0
   45.9910   33.9484   38.4880 H   0  0  0  0  0  0  0  0  0  0  0  0
   48.7792   32.0358   38.2434 H   0  0  0  0  0  0  0  0  0  0  0  0
   49.2538   34.6649   36.7273 H   0  0  0  0  0  0  0  0  0  0  0  0
  1  8  1  0
  1  2  1  0
  2  7  1  0
  3  2  2  0
  3  4  1  0
  4  5  2  0
  5  6  1  0
  7  6  2  0
  9  1  1  0
 10  1  1  0
 11 10  1  0
 12 11  1  0
 13 12  1  0
 13 11  1  0
 14 13  1  0
  3 15  1  0
  4 16  1  0
  6 17  1  0
  8 18  1  0
  8 19  1  0
  8 20  1  0
  9 21  1  0
  9 22  1  0
  9 23  1  0
 10 24  1  0
 10 25  1  0
 11 26  1  6
 12 27  1  0
 12 28  1  0
 13 29  1  1
 14 30  1  0
M  ISO  8  15  14  16  14  17  14  18   8  19   8  20   8  21   8  22   8
M  ISO  8  23   8  24   8  25   8  26  13  27  13  28  13  29  13  30  11
M  END
>  <minimizedAffinity>  (1) 
-4.31298923

>  <minimizedRMSD>  (1) 
0.736701906

$$$$
