
     RDKit          3D

 38 39  0  0  1  0  0  0  0  0999 V2000
   48.8710   34.5030   41.8450 C   0  0  0  0  0  0  0  0  0  0  0  0
   47.7670   34.3060   42.7950 C   0  0  0  0  0  0  0  0  0  0  0  0
   46.7010   35.1750   42.6070 C   0  0  0  0  0  0  0  0  0  0  0  0
   45.5820   35.0820   43.4700 C   0  0  0  0  0  0  0  0  0  0  0  0
   45.6230   34.1290   44.4450 N   0  0  0  0  0  0  0  0  0  0  0  0
   46.6720   33.3070   44.5920 C   0  0  0  0  0  0  0  0  0  0  0  0
   47.7090   33.4060   43.7810 N   0  0  0  0  0  0  0  0  0  0  0  0
   50.2070   34.2200   42.5060 C   0  0  0  0  0  0  0  0  0  0  0  0
   48.9640   35.8710   41.2780 C   0  0  0  0  0  0  0  0  0  0  0  0
   48.6750   33.5210   40.7080 C   0  0  0  0  0  0  0  0  0  0  0  0
   48.0120   34.1340   39.5140 C   0  0  2  0  0  0  0  0  0  0  0  0
   46.7810   33.6180   38.9090 C   0  0  0  0  0  0  0  0  0  0  0  0
   48.1040   33.3540   38.2210 C   0  0  2  0  0  0  0  0  0  0  0  0
   48.6940   31.9880   38.2100 C   0  0  0  0  0  0  0  0  0  0  0  0
   50.1200   32.0700   37.7060 C   0  0  0  0  0  0  0  0  0  0  0  0
   48.0140   30.9310   37.4460 C   0  0  0  0  0  0  0  0  0  0  0  0
   46.7250   35.9234   41.8012 H   0  0  0  0  0  0  0  0  0  0  0  0
   44.7157   35.7506   43.3586 H   0  0  0  0  0  0  0  0  0  0  0  0
   46.6686   32.5492   45.3893 H   0  0  0  0  0  0  0  0  0  0  0  0
   50.0878   34.2452   43.5992 H   0  0  0  0  0  0  0  0  0  0  0  0
   50.5648   33.2261   42.1990 H   0  0  0  0  0  0  0  0  0  0  0  0
   50.9370   34.9834   42.1990 H   0  0  0  0  0  0  0  0  0  0  0  0
   49.0139   36.6045   42.0963 H   0  0  0  0  0  0  0  0  0  0  0  0
   49.8696   35.9504   40.6587 H   0  0  0  0  0  0  0  0  0  0  0  0
   48.0775   36.0723   40.6587 H   0  0  0  0  0  0  0  0  0  0  0  0
   49.6595   33.1362   40.4034 H   0  0  0  0  0  0  0  0  0  0  0  0
   48.0168   32.7197   41.0749 H   0  0  0  0  0  0  0  0  0  0  0  0
   48.2759   35.1362   39.8827 H   0  0  0  0  0  0  0  0  0  0  0  0
   46.2399   32.7902   39.3906 H   0  0  0  0  0  0  0  0  0  0  0  0
   45.8260   34.0673   38.5992 H   0  0  0  0  0  0  0  0  0  0  0  0
   48.5187   33.5299   37.2175 H   0  0  0  0  0  0  0  0  0  0  0  0
   48.5914   31.6732   39.2590 H   0  0  0  0  0  0  0  0  0  0  0  0
   50.8097   32.1097   38.5620 H   0  0  0  0  0  0  0  0  0  0  0  0
   50.3445   31.1833   37.0950 H   0  0  0  0  0  0  0  0  0  0  0  0
   50.2414   32.9766   37.0950 H   0  0  0  0  0  0  0  0  0  0  0  0
   47.5530   30.2145   38.1417 H   0  0  0  0  0  0  0  0  0  0  0  0
   47.2349   31.3800   36.8124 H   0  0  0  0  0  0  0  0  0  0  0  0
   48.7455   30.4081   36.8124 H   0  0  0  0  0  0  0  0  0  0  0  0
  1  8  1  0
  1  2  1  0
  2  7  1  0
  3  2  2  0
  3  4  1  0
  4  5  2  0
  5  6  1  0
  7  6  2  0
  9  1  1  0
 10  1  1  0
 11 10  1  0
 12 11  1  0
 13 12  1  0
 13 11  1  0
 14 13  1  0
 15 14  1  0
 16 14  1  0
  3 17  1  0
  4 18  1  0
  6 19  1  0
  8 20  1  0
  8 21  1  0
  8 22  1  0
  9 23  1  0
  9 24  1  0
  9 25  1  0
 10 26  1  0
 10 27  1  0
 11 28  1  6
 12 29  1  0
 12 30  1  0
 13 31  1  6
 14 32  1  0
 15 33  1  0
 15 34  1  0
 15 35  1  0
 16 36  1  0
 16 37  1  0
 16 38  1  0
M  ISO  8  17  14  18  14  19  14  20   8  21   8  22   8  23   8  24   8
M  ISO  8  25   8  26   8  27   8  28  13  29  13  30  13  31  13  32   8
M  ISO  6  33   8  34   8  35   8  36   8  37   8  38   8
M  END
>  <minimizedAffinity>  (1) 
-4.27140093

>  <minimizedRMSD>  (1) 
0.903456569

$$$$
