
     RDKit          3D

 42 45  0  0  1  0  0  0  0  0999 V2000
   44.5800   35.8200   44.9180 C   0  0  0  0  0  0  0  0  0  0  0  0
   45.1750   35.7790   43.6320 C   0  0  0  0  0  0  0  0  0  0  0  0
   45.9740   34.6760   43.3370 C   0  0  0  0  0  0  0  0  0  0  0  0
   46.1450   33.7050   44.2770 N   0  0  0  0  0  0  0  0  0  0  0  0
   45.5560   33.7980   45.4830 C   0  0  0  0  0  0  0  0  0  0  0  0
   44.7840   34.8390   45.8010 N   0  0  0  0  0  0  0  0  0  0  0  0
   45.7630   32.7470   46.4780 N   0  0  0  0  0  0  0  0  0  0  0  0
   45.1450   32.8260   47.7800 C   0  0  0  0  0  0  0  0  0  0  0  0
   46.0180   32.2680   48.8670 C   0  0  0  0  0  0  0  0  0  0  0  0
   47.4290   32.1370   48.3870 C   0  0  0  0  0  0  0  0  0  0  0  0
   47.4000   31.0880   47.2780 C   0  0  0  0  0  0  0  0  0  0  0  0
   46.6050   31.6170   46.1330 C   0  0  1  0  0  0  0  0  0  0  0  0
   45.8410   30.5530   45.4070 C   0  0  0  0  0  0  0  0  0  0  0  0
   45.7640   30.3300   44.0930 N   0  0  0  0  0  0  0  0  0  0  0  0
   45.0250   29.3100   43.8150 O   0  0  0  0  0  0  0  0  0  0  0  0
   44.5970   28.8390   44.9520 C   0  0  0  0  0  0  0  0  0  0  0  0
   45.0810   29.5820   45.9760 N   0  0  0  0  0  0  0  0  0  0  0  0
   43.7470   27.7130   45.1860 N   0  0  0  0  0  0  0  0  0  0  0  0
   42.5830   27.4790   44.3140 C   0  0  0  0  0  0  0  0  0  0  0  0
   41.4840   27.4990   45.3780 C   0  0  0  0  0  0  0  0  0  0  0  0
   42.0760   26.4650   46.3480 C   0  0  0  0  0  0  0  0  0  0  0  0
   43.5840   26.5730   46.0860 C   0  0  0  0  0  0  0  0  0  0  0  0
   43.9410   36.6722   45.1926 H   0  0  0  0  0  0  0  0  0  0  0  0
   45.0131   36.5829   42.8988 H   0  0  0  0  0  0  0  0  0  0  0  0
   46.4618   34.5903   42.3548 H   0  0  0  0  0  0  0  0  0  0  0  0
   44.9321   33.8813   48.0057 H   0  0  0  0  0  0  0  0  0  0  0  0
   44.2245   32.2246   47.7495 H   0  0  0  0  0  0  0  0  0  0  0  0
   45.9917   32.9428   49.7353 H   0  0  0  0  0  0  0  0  0  0  0  0
   45.6435   31.2732   49.1500 H   0  0  0  0  0  0  0  0  0  0  0  0
   47.7900   33.0989   47.9940 H   0  0  0  0  0  0  0  0  0  0  0  0
   48.1065   31.8431   49.2022 H   0  0  0  0  0  0  0  0  0  0  0  0
   48.4265   30.8727   46.9465 H   0  0  0  0  0  0  0  0  0  0  0  0
   46.9412   30.1615   47.6535 H   0  0  0  0  0  0  0  0  0  0  0  0
   47.3573   32.0036   45.4297 H   0  0  0  0  0  0  0  0  0  0  0  0
   42.4546   28.2812   43.5723 H   0  0  0  0  0  0  0  0  0  0  0  0
   42.6284   26.5704   43.6957 H   0  0  0  0  0  0  0  0  0  0  0  0
   41.3782   28.4897   45.8442 H   0  0  0  0  0  0  0  0  0  0  0  0
   40.4682   27.2827   45.0154 H   0  0  0  0  0  0  0  0  0  0  0  0
   41.8365   26.7185   47.3912 H   0  0  0  0  0  0  0  0  0  0  0  0
   41.6803   25.4500   46.1955 H   0  0  0  0  0  0  0  0  0  0  0  0
   43.9580   25.6534   45.6122 H   0  0  0  0  0  0  0  0  0  0  0  0
   44.1502   26.7077   47.0194 H   0  0  0  0  0  0  0  0  0  0  0  0
  1  6  2  0
  2  1  1  0
  3  2  2  0
  3  4  1  0
  4  5  2  0
  5  6  1  0
  5  7  1  0
  7  8  1  0
  8  9  1  0
 10  9  1  0
 11 10  1  0
 12  7  1  0
 12 11  1  0
 13 17  1  0
 13 12  1  0
 14 13  2  0
 15 14  1  0
 15 16  1  0
 16 18  1  0
 16 17  2  0
 18 22  1  0
 19 18  1  0
 19 20  1  0
 20 21  1  0
 22 21  1  0
  1 23  1  0
  2 24  1  0
  3 25  1  0
  8 26  1  0
  8 27  1  0
  9 28  1  0
  9 29  1  0
 10 30  1  0
 10 31  1  0
 11 32  1  0
 11 33  1  0
 12 34  1  6
 19 35  1  0
 19 36  1  0
 20 37  1  0
 20 38  1  0
 21 39  1  0
 21 40  1  0
 22 41  1  0
 22 42  1  0
M  ISO  8  23  14  24  14  25  14  26  13  27  13  28  13  29  13  30  13
M  ISO  8  31  13  32  13  33  13  34  13  35  13  36  13  37  13  38  13
M  ISO  4  39  13  40  13  41  13  42  13
M  END
>  <minimizedAffinity>  (1) 
-5.90435314

>  <minimizedRMSD>  (1) 
0.0658140928

$$$$
