
     RDKit          3D

 39 41  0  0  1  0  0  0  0  0999 V2000
   46.7280   34.3450   43.5070 C   0  0  0  0  0  0  0  0  0  0  0  0
   45.7190   33.7420   44.4550 C   0  0  2  0  0  0  0  0  0  0  0  0
   45.0630   34.5490   45.5130 C   0  0  0  0  0  0  0  0  0  0  0  0
   46.1740   33.5570   45.8430 C   0  0  1  0  0  0  0  0  0  0  0  0
   45.7700   32.5440   46.7480 N   0  0  0  0  0  0  0  0  0  0  0  0
   45.1660   32.6160   47.9090 N   0  0  0  0  0  0  0  0  0  0  0  0
   44.9680   31.4020   48.4470 C   0  0  0  0  0  0  0  0  0  0  0  0
   45.4900   30.5270   47.5520 C   0  0  0  0  0  0  0  0  0  0  0  0
   45.9890   31.2770   46.4880 C   0  0  0  0  0  0  0  0  0  0  0  0
   46.5920   30.4770   45.4680 C   0  0  0  0  0  0  0  0  0  0  0  0
   47.7630   30.5080   44.9550 O   0  0  0  0  0  0  0  0  0  0  0  0
   46.8240   29.5550   44.5060 O   0  0  0  0  0  0  0  0  0  0  0  0
   46.5130   33.8460   42.0860 C   0  0  0  0  0  0  0  0  0  0  0  0
   45.1350   34.1890   41.7200 C   0  0  0  0  0  0  0  0  0  0  0  0
   44.4250   33.1250   41.2030 C   0  0  0  0  0  0  0  0  0  0  0  0
   43.0730   33.3310   40.8090 C   0  0  0  0  0  0  0  0  0  0  0  0
   42.5600   34.5850   40.9690 N   0  0  0  0  0  0  0  0  0  0  0  0
   43.2800   35.6020   41.4770 C   0  0  0  0  0  0  0  0  0  0  0  0
   44.5310   35.3870   41.8360 N   0  0  0  0  0  0  0  0  0  0  0  0
   47.4960   34.5710   41.1730 C   0  0  0  0  0  0  0  0  0  0  0  0
   46.8540   32.4120   42.0120 C   0  0  0  0  0  0  0  0  0  0  0  0
   46.6252   35.4401   43.5223 H   0  0  0  0  0  0  0  0  0  0  0  0
   47.7351   34.0458   43.8331 H   0  0  0  0  0  0  0  0  0  0  0  0
   45.3041   33.1079   43.6577 H   0  0  0  0  0  0  0  0  0  0  0  0
   45.2489   35.6311   45.5796 H   0  0  0  0  0  0  0  0  0  0  0  0
   44.0286   34.7115   45.8500 H   0  0  0  0  0  0  0  0  0  0  0  0
   47.1966   33.5097   46.2455 H   0  0  0  0  0  0  0  0  0  0  0  0
   44.4859   31.1674   49.4075 H   0  0  0  0  0  0  0  0  0  0  0  0
   45.5150   29.4314   47.6476 H   0  0  0  0  0  0  0  0  0  0  0  0
   47.7076   29.5151   44.0614 H   0  0  0  0  0  0  0  0  0  0  0  0
   44.8950   32.1361   41.0973 H   0  0  0  0  0  0  0  0  0  0  0  0
   42.4668   32.5130   40.3927 H   0  0  0  0  0  0  0  0  0  0  0  0
   42.8312   36.5997   41.5914 H   0  0  0  0  0  0  0  0  0  0  0  0
   48.2321   35.1139   41.7842 H   0  0  0  0  0  0  0  0  0  0  0  0
   48.0156   33.8382   40.5381 H   0  0  0  0  0  0  0  0  0  0  0  0
   46.9494   35.2839   40.5381 H   0  0  0  0  0  0  0  0  0  0  0  0
   46.9507   32.0051   43.0294 H   0  0  0  0  0  0  0  0  0  0  0  0
   46.0589   31.8732   41.4757 H   0  0  0  0  0  0  0  0  0  0  0  0
   47.8065   32.2888   41.4757 H   0  0  0  0  0  0  0  0  0  0  0  0
  1  2  1  0
  2  3  1  0
  2  4  1  0
  3  4  1  0
  4  5  1  0
  5  6  1  0
  6  7  2  0
  8  7  1  0
  9  5  1  0
  9  8  2  0
 10  9  1  0
 11 10  2  0
 12 10  1  0
 13  1  1  0
 14 19  1  0
 14 13  1  0
 15 14  2  0
 16 17  2  0
 16 15  1  0
 17 18  1  0
 18 19  2  0
 20 13  1  0
 21 13  1  0
  1 22  1  0
  1 23  1  0
  2 24  1  6
  3 25  1  0
  3 26  1  0
  4 27  1  6
  7 28  1  0
  8 29  1  0
 12 30  1  0
 15 31  1  0
 16 32  1  0
 18 33  1  0
 20 34  1  0
 20 35  1  0
 20 36  1  0
 21 37  1  0
 21 38  1  0
 21 39  1  0
M  ISO  8  22   8  23   8  24  13  25  13  26  13  27  13  28  14  29  14
M  ISO  8  30   3  31  14  32  14  33  14  34   8  35   8  36   8  37   8
M  ISO  2  38   8  39   8
M  END
>  <minimizedAffinity>  (1) 
-4.62835741

>  <minimizedRMSD>  (1) 
1.7361809

$$$$
