
     RDKit          3D

 49 52  0  0  1  0  0  0  0  0999 V2000
   47.2850   34.3020   43.3700 C   0  0  0  0  0  0  0  0  0  0  0  0
   46.6730   33.1580   44.1440 C   0  0  2  0  0  0  0  0  0  0  0  0
   45.2100   33.0120   44.3020 C   0  0  0  0  0  0  0  0  0  0  0  0
   46.0720   33.5400   45.4500 C   0  0  1  0  0  0  0  0  0  0  0  0
   46.0240   32.6750   46.6110 N   0  0  0  0  0  0  0  0  0  0  0  0
   45.2610   32.8420   47.7140 N   0  0  0  0  0  0  0  0  0  0  0  0
   45.4850   31.8200   48.5460 C   0  0  0  0  0  0  0  0  0  0  0  0
   46.4020   31.0450   47.9080 C   0  0  0  0  0  0  0  0  0  0  0  0
   46.7560   31.5700   46.6850 C   0  0  0  0  0  0  0  0  0  0  0  0
   47.7500   30.8030   45.9050 C   0  0  0  0  0  0  0  0  0  0  0  0
   48.2930   29.6100   46.6550 C   0  0  0  0  0  0  0  0  0  0  0  0
   47.0580   28.6930   46.6520 C   0  0  0  0  0  0  0  0  0  0  0  0
   46.5440   28.8600   45.2470 C   0  0  0  0  0  0  0  0  0  0  0  0
   47.2000   30.0910   44.6870 C   0  0  0  0  0  0  0  0  0  0  0  0
   47.1770   34.0630   41.8690 C   0  0  0  0  0  0  0  0  0  0  0  0
   45.8000   34.4380   41.4800 C   0  0  0  0  0  0  0  0  0  0  0  0
   45.2830   33.6310   40.4620 C   0  0  0  0  0  0  0  0  0  0  0  0
   43.9630   33.8960   39.9990 C   0  0  0  0  0  0  0  0  0  0  0  0
   43.2920   34.9320   40.5900 N   0  0  0  0  0  0  0  0  0  0  0  0
   43.8380   35.6830   41.5720 C   0  0  0  0  0  0  0  0  0  0  0  0
   45.0620   35.4380   42.0030 N   0  0  0  0  0  0  0  0  0  0  0  0
   48.1840   34.9390   41.1590 C   0  0  0  0  0  0  0  0  0  0  0  0
   47.5470   32.6720   41.5640 C   0  0  0  0  0  0  0  0  0  0  0  0
   46.7570   35.2326   43.6253 H   0  0  0  0  0  0  0  0  0  0  0  0
   48.3492   34.3778   43.6379 H   0  0  0  0  0  0  0  0  0  0  0  0
   47.4346   32.4527   43.7799 H   0  0  0  0  0  0  0  0  0  0  0  0
   44.5268   33.6889   43.7681 H   0  0  0  0  0  0  0  0  0  0  0  0
   44.4880   32.1912   44.1793 H   0  0  0  0  0  0  0  0  0  0  0  0
   46.2162   34.4377   46.0691 H   0  0  0  0  0  0  0  0  0  0  0  0
   45.0277   31.6445   49.5309 H   0  0  0  0  0  0  0  0  0  0  0  0
   46.8120   30.1108   48.3193 H   0  0  0  0  0  0  0  0  0  0  0  0
   48.4741   31.5968   45.6694 H   0  0  0  0  0  0  0  0  0  0  0  0
   49.1417   29.1503   46.1274 H   0  0  0  0  0  0  0  0  0  0  0  0
   48.6922   29.8389   47.6541 H   0  0  0  0  0  0  0  0  0  0  0  0
   47.3362   27.6481   46.8537 H   0  0  0  0  0  0  0  0  0  0  0  0
   46.3184   28.9445   47.4264 H   0  0  0  0  0  0  0  0  0  0  0  0
   46.8080   27.9812   44.6404 H   0  0  0  0  0  0  0  0  0  0  0  0
   45.4484   28.9578   45.2370 H   0  0  0  0  0  0  0  0  0  0  0  0
   48.0101   29.8207   43.9937 H   0  0  0  0  0  0  0  0  0  0  0  0
   46.5019   30.7167   44.1116 H   0  0  0  0  0  0  0  0  0  0  0  0
   45.8797   32.8138   40.0307 H   0  0  0  0  0  0  0  0  0  0  0  0
   43.5027   33.2945   39.2013 H   0  0  0  0  0  0  0  0  0  0  0  0
   43.2579   36.5054   42.0161 H   0  0  0  0  0  0  0  0  0  0  0  0
   48.7957   35.4711   41.9024 H   0  0  0  0  0  0  0  0  0  0  0  0
   48.8340   34.3140   40.5290 H   0  0  0  0  0  0  0  0  0  0  0  0
   47.6550   35.6693   40.5290 H   0  0  0  0  0  0  0  0  0  0  0  0
   47.6945   32.1176   42.5026 H   0  0  0  0  0  0  0  0  0  0  0  0
   46.7436   32.1984   40.9807 H   0  0  0  0  0  0  0  0  0  0  0  0
   48.4795   32.6601   40.9807 H   0  0  0  0  0  0  0  0  0  0  0  0
  1  2  1  0
  2  3  1  0
  2  4  1  0
  3  4  1  0
  4  5  1  0
  5  9  1  0
  5  6  1  0
  6  7  2  0
  8  7  1  0
  9  8  2  0
 10 11  1  0
 10  9  1  0
 12 11  1  0
 13 12  1  0
 14 13  1  0
 14 10  1  0
 15  1  1  0
 16 15  1  0
 16 21  1  0
 17 16  2  0
 18 17  1  0
 18 19  2  0
 19 20  1  0
 20 21  2  0
 22 15  1  0
 23 15  1  0
  1 24  1  0
  1 25  1  0
  2 26  1  1
  3 27  1  0
  3 28  1  0
  4 29  1  1
  7 30  1  0
  8 31  1  0
 10 32  1  0
 11 33  1  0
 11 34  1  0
 12 35  1  0
 12 36  1  0
 13 37  1  0
 13 38  1  0
 14 39  1  0
 14 40  1  0
 17 41  1  0
 18 42  1  0
 20 43  1  0
 22 44  1  0
 22 45  1  0
 22 46  1  0
 23 47  1  0
 23 48  1  0
 23 49  1  0
M  ISO  8  24   8  25   8  26  13  27  13  28  13  29  13  30  14  31  14
M  ISO  8  32  13  33  13  34  13  35  13  36  13  37  13  38  13  39  13
M  ISO  8  40  13  41  14  42  14  43  14  44   8  45   8  46   8  47   8
M  ISO  2  48   8  49   8
M  END
>  <minimizedAffinity>  (1) 
-4.74706364

>  <minimizedRMSD>  (1) 
1.16604841

$$$$
