
     RDKit          3D

 45 47  0  0  1  0  0  0  0  0999 V2000
   48.1060   33.8570   43.1880 C   0  0  0  0  0  0  0  0  0  0  0  0
   47.5340   32.5010   43.5110 C   0  0  2  0  0  0  0  0  0  0  0  0
   46.1320   32.3380   43.9510 C   0  0  0  0  0  0  0  0  0  0  0  0
   47.2840   32.2550   44.9620 C   0  0  1  0  0  0  0  0  0  0  0  0
   47.3570   30.9690   45.5950 N   0  0  0  0  0  0  0  0  0  0  0  0
   47.7230   29.7840   45.0700 N   0  0  0  0  0  0  0  0  0  0  0  0
   47.6950   28.8620   46.0260 C   0  0  0  0  0  0  0  0  0  0  0  0
   47.3020   29.4830   47.1720 C   0  0  0  0  0  0  0  0  0  0  0  0
   47.0830   30.8300   46.8940 C   0  0  0  0  0  0  0  0  0  0  0  0
   46.6040   31.6200   48.0540 C   0  0  0  0  0  0  0  0  0  0  0  0
   45.1260   31.3530   48.3840 C   0  0  0  0  0  0  0  0  0  0  0  0
   47.3470   31.1110   49.3000 C   0  0  0  0  0  0  0  0  0  0  0  0
   47.6970   34.3200   41.7960 C   0  0  0  0  0  0  0  0  0  0  0  0
   46.3190   34.8270   41.9010 C   0  0  0  0  0  0  0  0  0  0  0  0
   45.4790   34.3220   40.9040 C   0  0  0  0  0  0  0  0  0  0  0  0
   44.1220   34.7400   40.9000 C   0  0  0  0  0  0  0  0  0  0  0  0
   43.7340   35.6130   41.8820 N   0  0  0  0  0  0  0  0  0  0  0  0
   44.5820   36.0740   42.8240 C   0  0  0  0  0  0  0  0  0  0  0  0
   45.8400   35.6780   42.8180 N   0  0  0  0  0  0  0  0  0  0  0  0
   48.6290   35.4440   41.3720 C   0  0  0  0  0  0  0  0  0  0  0  0
   47.8890   33.2150   40.8400 C   0  0  0  0  0  0  0  0  0  0  0  0
   47.7406   34.5842   43.9280 H   0  0  0  0  0  0  0  0  0  0  0  0
   49.2032   33.7841   43.2182 H   0  0  0  0  0  0  0  0  0  0  0  0
   48.1001   32.0204   42.6995 H   0  0  0  0  0  0  0  0  0  0  0  0
   45.4521   33.2027   43.9590 H   0  0  0  0  0  0  0  0  0  0  0  0
   45.2941   31.6850   43.6655 H   0  0  0  0  0  0  0  0  0  0  0  0
   47.6826   32.7622   45.8530 H   0  0  0  0  0  0  0  0  0  0  0  0
   47.9429   27.7963   45.9128 H   0  0  0  0  0  0  0  0  0  0  0  0
   47.1782   29.0015   48.1532 H   0  0  0  0  0  0  0  0  0  0  0  0
   46.7622   32.6799   47.8059 H   0  0  0  0  0  0  0  0  0  0  0  0
   44.9926   31.3289   49.4756 H   0  0  0  0  0  0  0  0  0  0  0  0
   44.5044   32.1534   47.9562 H   0  0  0  0  0  0  0  0  0  0  0  0
   44.8237   30.3857   47.9562 H   0  0  0  0  0  0  0  0  0  0  0  0
   46.8308   31.4646   50.2047 H   0  0  0  0  0  0  0  0  0  0  0  0
   47.3633   30.0111   49.2934 H   0  0  0  0  0  0  0  0  0  0  0  0
   48.3785   31.4930   49.2934 H   0  0  0  0  0  0  0  0  0  0  0  0
   45.8581   33.6216   40.1452 H   0  0  0  0  0  0  0  0  0  0  0  0
   43.4127   34.3784   40.1410 H   0  0  0  0  0  0  0  0  0  0  0  0
   44.2265   36.7760   43.5926 H   0  0  0  0  0  0  0  0  0  0  0  0
   49.0384   35.9377   42.2657 H   0  0  0  0  0  0  0  0  0  0  0  0
   49.4528   35.0305   40.7718 H   0  0  0  0  0  0  0  0  0  0  0  0
   48.0701   36.1770   40.7718 H   0  0  0  0  0  0  0  0  0  0  0  0
   48.0519   32.2772   41.3914 H   0  0  0  0  0  0  0  0  0  0  0  0
   46.9943   33.1177   40.2075 H   0  0  0  0  0  0  0  0  0  0  0  0
   48.7641   33.4252   40.2075 H   0  0  0  0  0  0  0  0  0  0  0  0
  1  2  1  0
  2  3  1  0
  2  4  1  0
  3  4  1  0
  4  5  1  0
  5  9  1  0
  6  5  1  0
  6  7  2  0
  7  8  1  0
  9  8  2  0
  9 10  1  0
 10 11  1  0
 10 12  1  0
 13 14  1  0
 13  1  1  0
 14 19  1  0
 15 14  2  0
 16 15  1  0
 16 17  2  0
 17 18  1  0
 19 18  2  0
 20 13  1  0
 21 13  1  0
  1 22  1  0
  1 23  1  0
  2 24  1  6
  3 25  1  0
  3 26  1  0
  4 27  1  1
  7 28  1  0
  8 29  1  0
 10 30  1  0
 11 31  1  0
 11 32  1  0
 11 33  1  0
 12 34  1  0
 12 35  1  0
 12 36  1  0
 15 37  1  0
 16 38  1  0
 18 39  1  0
 20 40  1  0
 20 41  1  0
 20 42  1  0
 21 43  1  0
 21 44  1  0
 21 45  1  0
M  ISO  8  22   8  23   8  24  13  25  13  26  13  27  13  28  14  29  14
M  ISO  8  30   8  31   8  32   8  33   8  34   8  35   8  36   8  37  14
M  ISO  8  38  14  39  14  40   8  41   8  42   8  43   8  44   8  45   8
M  END
>  <minimizedAffinity>  (1) 
-4.7370944

>  <minimizedRMSD>  (1) 
2.60497308

$$$$
