
     RDKit          3D

 37 40  0  0  1  0  0  0  0  0999 V2000
   44.6560   35.5960   44.8790 C   0  0  0  0  0  0  0  0  0  0  0  0
   45.0430   35.3880   43.5310 C   0  0  0  0  0  0  0  0  0  0  0  0
   45.6840   34.2030   43.2360 C   0  0  0  0  0  0  0  0  0  0  0  0
   45.9110   33.3030   44.2390 N   0  0  0  0  0  0  0  0  0  0  0  0
   45.5280   33.5440   45.5000 C   0  0  0  0  0  0  0  0  0  0  0  0
   44.9060   34.6810   45.8160 N   0  0  0  0  0  0  0  0  0  0  0  0
   45.7960   32.5580   46.5450 N   0  0  0  0  0  0  0  0  0  0  0  0
   45.3740   32.8070   47.9120 C   0  0  0  0  0  0  0  0  0  0  0  0
   46.3410   32.2610   48.9210 C   0  0  0  0  0  0  0  0  0  0  0  0
   47.6490   31.9590   48.2660 C   0  0  0  0  0  0  0  0  0  0  0  0
   47.3810   30.8340   47.2670 C   0  0  0  0  0  0  0  0  0  0  0  0
   46.4900   31.3340   46.1880 C   0  0  1  0  0  0  0  0  0  0  0  0
   45.5420   30.3020   45.6780 C   0  0  0  0  0  0  0  0  0  0  0  0
   45.2420   29.9800   44.4200 N   0  0  0  0  0  0  0  0  0  0  0  0
   44.3810   29.0220   44.3500 O   0  0  0  0  0  0  0  0  0  0  0  0
   44.0820   28.6800   45.5930 C   0  0  0  0  0  0  0  0  0  0  0  0
   44.7830   29.4520   46.4480 N   0  0  0  0  0  0  0  0  0  0  0  0
   43.1510   27.6420   45.8920 N   0  0  0  0  0  0  0  0  0  0  0  0
   43.5410   26.7190   46.7550 N   0  0  0  0  0  0  0  0  0  0  0  0
   42.6000   25.8060   46.9580 C   0  0  0  0  0  0  0  0  0  0  0  0
   41.5380   26.1980   46.1530 C   0  0  0  0  0  0  0  0  0  0  0  0
   41.8990   27.3700   45.4790 C   0  0  0  0  0  0  0  0  0  0  0  0
   44.1410   36.5276   45.1564 H   0  0  0  0  0  0  0  0  0  0  0  0
   44.8407   36.1396   42.7537 H   0  0  0  0  0  0  0  0  0  0  0  0
   46.0080   33.9853   42.2076 H   0  0  0  0  0  0  0  0  0  0  0  0
   45.2845   33.8932   48.0611 H   0  0  0  0  0  0  0  0  0  0  0  0
   44.4110   32.2971   48.0624 H   0  0  0  0  0  0  0  0  0  0  0  0
   46.4955   33.0047   49.7166 H   0  0  0  0  0  0  0  0  0  0  0  0
   45.9302   31.3349   49.3495 H   0  0  0  0  0  0  0  0  0  0  0  0
   48.0275   32.8498   47.7434 H   0  0  0  0  0  0  0  0  0  0  0  0
   48.4070   31.6632   49.0062 H   0  0  0  0  0  0  0  0  0  0  0  0
   48.3325   30.4966   46.8303 H   0  0  0  0  0  0  0  0  0  0  0  0
   46.8964   29.9921   47.7830 H   0  0  0  0  0  0  0  0  0  0  0  0
   47.1681   31.5784   45.3571 H   0  0  0  0  0  0  0  0  0  0  0  0
   42.6500   24.9290   47.6201 H   0  0  0  0  0  0  0  0  0  0  0  0
   40.5748   25.6749   46.0608 H   0  0  0  0  0  0  0  0  0  0  0  0
   41.2907   27.9451   44.7654 H   0  0  0  0  0  0  0  0  0  0  0  0
  1  6  2  0
  2  1  1  0
  3  2  2  0
  3  4  1  0
  4  5  2  0
  5  6  1  0
  5  7  1  0
  7  8  1  0
  8  9  1  0
 10  9  1  0
 11 10  1  0
 12  7  1  0
 12 11  1  0
 13 12  1  0
 13 17  1  0
 14 13  2  0
 15 14  1  0
 15 16  1  0
 16 18  1  0
 16 17  2  0
 18 19  1  0
 19 20  2  0
 21 20  1  0
 22 18  1  0
 22 21  2  0
  1 23  1  0
  2 24  1  0
  3 25  1  0
  8 26  1  0
  8 27  1  0
  9 28  1  0
  9 29  1  0
 10 30  1  0
 10 31  1  0
 11 32  1  0
 11 33  1  0
 12 34  1  6
 20 35  1  0
 21 36  1  0
 22 37  1  0
M  ISO  8  23  14  24  14  25  14  26  13  27  13  28  13  29  13  30  13
M  ISO  7  31  13  32  13  33  13  34  13  35  14  36  14  37  14
M  END
>  <minimizedAffinity>  (1) 
-5.8444562

>  <minimizedRMSD>  (1) 
0.752615392

$$$$
