
     RDKit          3D

 38 41  0  0  1  0  0  0  0  0999 V2000
   44.6700   35.6560   44.8740 C   0  0  0  0  0  0  0  0  0  0  0  0
   45.1500   35.4960   43.5500 C   0  0  0  0  0  0  0  0  0  0  0  0
   45.8490   34.3400   43.2670 C   0  0  0  0  0  0  0  0  0  0  0  0
   46.0370   33.4270   44.2700 N   0  0  0  0  0  0  0  0  0  0  0  0
   45.5690   33.6190   45.5000 C   0  0  0  0  0  0  0  0  0  0  0  0
   44.8900   34.7260   45.8020 N   0  0  0  0  0  0  0  0  0  0  0  0
   45.8000   32.6170   46.5390 N   0  0  0  0  0  0  0  0  0  0  0  0
   45.2950   32.8160   47.8750 C   0  0  0  0  0  0  0  0  0  0  0  0
   46.2030   32.2640   48.9330 C   0  0  0  0  0  0  0  0  0  0  0  0
   47.5670   32.0290   48.3500 C   0  0  0  0  0  0  0  0  0  0  0  0
   47.3970   30.9180   47.3140 C   0  0  0  0  0  0  0  0  0  0  0  0
   46.5480   31.4190   46.2010 C   0  0  1  0  0  0  0  0  0  0  0  0
   45.6740   30.3690   45.5980 C   0  0  0  0  0  0  0  0  0  0  0  0
   45.5750   29.9900   44.3240 N   0  0  0  0  0  0  0  0  0  0  0  0
   44.7140   29.0280   44.1760 O   0  0  0  0  0  0  0  0  0  0  0  0
   44.2300   28.7620   45.3750 C   0  0  0  0  0  0  0  0  0  0  0  0
   44.8090   29.5810   46.2830 N   0  0  0  0  0  0  0  0  0  0  0  0
   43.2290   27.7640   45.7730 C   0  0  0  0  0  0  0  0  0  0  0  0
   41.9280   27.7610   45.3160 C   0  0  0  0  0  0  0  0  0  0  0  0
   41.0760   26.7530   45.7740 C   0  0  0  0  0  0  0  0  0  0  0  0
   41.5110   25.8150   46.6310 N   0  0  0  0  0  0  0  0  0  0  0  0
   42.7830   25.8310   47.0660 C   0  0  0  0  0  0  0  0  0  0  0  0
   43.6290   26.8070   46.6310 N   0  0  0  0  0  0  0  0  0  0  0  0
   44.1067   36.5628   45.1395 H   0  0  0  0  0  0  0  0  0  0  0  0
   44.9728   36.2613   42.7800 H   0  0  0  0  0  0  0  0  0  0  0  0
   46.2463   34.1562   42.2579 H   0  0  0  0  0  0  0  0  0  0  0  0
   45.1729   33.8957   48.0463 H   0  0  0  0  0  0  0  0  0  0  0  0
   44.3386   32.2777   47.9487 H   0  0  0  0  0  0  0  0  0  0  0  0
   46.2778   32.9820   49.7630 H   0  0  0  0  0  0  0  0  0  0  0  0
   45.7952   31.3130   49.3062 H   0  0  0  0  0  0  0  0  0  0  0  0
   47.9404   32.9455   47.8698 H   0  0  0  0  0  0  0  0  0  0  0  0
   48.2939   31.7480   49.1263 H   0  0  0  0  0  0  0  0  0  0  0  0
   48.3824   30.6247   46.9228 H   0  0  0  0  0  0  0  0  0  0  0  0
   46.9192   30.0443   47.7813 H   0  0  0  0  0  0  0  0  0  0  0  0
   47.2647   31.7103   45.4190 H   0  0  0  0  0  0  0  0  0  0  0  0
   41.5721   28.5283   44.6128 H   0  0  0  0  0  0  0  0  0  0  0  0
   40.0324   26.7272   45.4272 H   0  0  0  0  0  0  0  0  0  0  0  0
   43.1383   25.0621   47.7678 H   0  0  0  0  0  0  0  0  0  0  0  0
  1  6  2  0
  2  1  1  0
  3  2  2  0
  3  4  1  0
  4  5  2  0
  5  6  1  0
  5  7  1  0
  7  8  1  0
  8  9  1  0
 10  9  1  0
 11 10  1  0
 12  7  1  0
 12 11  1  0
 13 12  1  0
 13 17  1  0
 14 13  2  0
 15 14  1  0
 15 16  1  0
 16 18  1  0
 16 17  2  0
 18 23  1  0
 19 18  2  0
 19 20  1  0
 20 21  2  0
 21 22  1  0
 23 22  2  0
  1 24  1  0
  2 25  1  0
  3 26  1  0
  8 27  1  0
  8 28  1  0
  9 29  1  0
  9 30  1  0
 10 31  1  0
 10 32  1  0
 11 33  1  0
 11 34  1  0
 12 35  1  6
 19 36  1  0
 20 37  1  0
 22 38  1  0
M  ISO  8  24  14  25  14  26  14  27  13  28  13  29  13  30  13  31  13
M  ISO  7  32  13  33  13  34  13  35  13  36  14  37  14  38  14
M  END
>  <minimizedAffinity>  (1) 
-5.83080149

>  <minimizedRMSD>  (1) 
0.654123664

$$$$
