
     RDKit          3D

 49 52  0  0  1  0  0  0  0  0999 V2000
   46.7050   34.0580   41.9590 C   0  0  1  0  0  0  0  0  0  0  0  0
   45.3740   34.3580   41.4600 C   0  0  0  0  0  0  0  0  0  0  0  0
   44.9180   33.3930   40.5670 C   0  0  0  0  0  0  0  0  0  0  0  0
   43.6030   33.5870   40.0420 C   0  0  0  0  0  0  0  0  0  0  0  0
   42.8840   34.6830   40.4330 N   0  0  0  0  0  0  0  0  0  0  0  0
   43.3750   35.5760   41.2920 C   0  0  0  0  0  0  0  0  0  0  0  0
   44.5900   35.3860   41.7710 N   0  0  0  0  0  0  0  0  0  0  0  0
   47.7350   34.8960   41.1470 C   0  0  0  0  0  0  0  0  0  0  0  0
   46.8150   34.6160   43.3800 C   0  0  0  0  0  0  0  0  0  0  0  0
   45.8170   33.9190   44.2940 C   0  0  2  0  0  0  0  0  0  0  0  0
   44.9990   34.5950   45.2900 C   0  0  0  0  0  0  0  0  0  0  0  0
   46.2030   33.7480   45.7040 C   0  0  1  0  0  0  0  0  0  0  0  0
   45.8460   32.6340   46.5280 N   0  0  0  0  0  0  0  0  0  0  0  0
   45.2450   32.6700   47.7170 N   0  0  0  0  0  0  0  0  0  0  0  0
   45.0800   31.4070   48.1700 C   0  0  0  0  0  0  0  0  0  0  0  0
   45.6070   30.5890   47.2060 C   0  0  0  0  0  0  0  0  0  0  0  0
   46.0870   31.3880   46.1760 C   0  0  0  0  0  0  0  0  0  0  0  0
   46.6730   30.7670   45.0780 N   0  0  0  0  0  0  0  0  0  0  0  0
   47.1650   32.6870   41.9270 C   0  0  0  0  0  0  0  0  0  0  0  0
   48.5850   32.5340   41.8040 N   0  0  0  0  0  0  0  0  0  0  0  0
   49.6380   32.7790   42.5450 C   0  0  0  0  0  0  0  0  0  0  0  0
   50.9490   32.5560   42.2060 C   0  0  0  0  0  0  0  0  0  0  0  0
   51.3070   32.0290   41.0070 C   0  0  0  0  0  0  0  0  0  0  0  0
   52.6630   31.8160   40.6960 N   0  0  0  0  0  0  0  0  0  0  0  0
   50.2660   31.7470   40.1790 N   0  0  0  0  0  0  0  0  0  0  0  0
   48.9990   31.9990   40.5930 C   0  0  0  0  0  0  0  0  0  0  0  0
   48.2510   31.6310   39.6140 O   0  0  0  0  0  0  0  0  0  0  0  0
   45.5355   32.5288   40.2810 H   0  0  0  0  0  0  0  0  0  0  0  0
   43.1744   32.8640   39.3324 H   0  0  0  0  0  0  0  0  0  0  0  0
   42.7813   36.4511   41.5947 H   0  0  0  0  0  0  0  0  0  0  0  0
   48.3973   35.4349   41.8405 H   0  0  0  0  0  0  0  0  0  0  0  0
   48.3346   34.2260   40.5133 H   0  0  0  0  0  0  0  0  0  0  0  0
   47.2010   35.6194   40.5133 H   0  0  0  0  0  0  0  0  0  0  0  0
   47.8340   34.4485   43.7589 H   0  0  0  0  0  0  0  0  0  0  0  0
   46.5951   35.6936   43.3618 H   0  0  0  0  0  0  0  0  0  0  0  0
   45.5302   33.2691   43.4541 H   0  0  0  0  0  0  0  0  0  0  0  0
   45.0353   35.6904   45.3840 H   0  0  0  0  0  0  0  0  0  0  0  0
   43.9289   34.6125   45.5441 H   0  0  0  0  0  0  0  0  0  0  0  0
   47.1831   33.8298   46.1966 H   0  0  0  0  0  0  0  0  0  0  0  0
   44.6170   31.0991   49.1191 H   0  0  0  0  0  0  0  0  0  0  0  0
   45.6438   29.4902   47.2413 H   0  0  0  0  0  0  0  0  0  0  0  0
   46.7425   29.7399   45.0436 H   0  0  0  0  0  0  0  0  0  0  0  0
   47.0374   31.3342   44.2993 H   0  0  0  0  0  0  0  0  0  0  0  0
   46.8471   32.1972   42.8592 H   0  0  0  0  0  0  0  0  0  0  0  0
   46.7246   32.2326   41.0272 H   0  0  0  0  0  0  0  0  0  0  0  0
   49.4518   33.2074   43.5409 H   0  0  0  0  0  0  0  0  0  0  0  0
   51.7363   32.8129   42.9300 H   0  0  0  0  0  0  0  0  0  0  0  0
   52.9255   31.4157   39.7840 H   0  0  0  0  0  0  0  0  0  0  0  0
   53.3929   32.0604   41.3804 H   0  0  0  0  0  0  0  0  0  0  0  0
  1  8  1  6
  1  9  1  0
  2  7  1  0
  2  1  1  0
  3  2  2  0
  4  5  2  0
  4  3  1  0
  5  6  1  0
  6  7  2  0
  9 10  1  0
 10 11  1  0
 10 12  1  0
 11 12  1  0
 12 13  1  0
 13 14  1  0
 14 15  2  0
 16 15  1  0
 17 13  1  0
 17 16  2  0
 18 17  1  0
 19  1  1  0
 20 19  1  0
 20 21  1  0
 22 21  2  0
 23 22  1  0
 24 23  1  0
 25 26  1  0
 25 23  2  0
 26 20  1  0
 27 26  2  0
  3 28  1  0
  4 29  1  0
  6 30  1  0
  8 31  1  0
  8 32  1  0
  8 33  1  0
  9 34  1  0
  9 35  1  0
 10 36  1  6
 11 37  1  0
 11 38  1  0
 12 39  1  6
 15 40  1  0
 16 41  1  0
 18 42  1  0
 18 43  1  0
 19 44  1  0
 19 45  1  0
 21 46  1  0
 22 47  1  0
 24 48  1  0
 24 49  1  0
M  ISO  8  28  14  29  14  30  14  31   8  32   8  33   8  34   8  35   8
M  ISO  8  36  13  37  13  38  13  39  13  40  14  41  14  44   8  45   8
M  ISO  2  46  14  47  14
M  END
>  <minimizedAffinity>  (1) 
-5.85049629

>  <minimizedRMSD>  (1) 
0.828723013

$$$$
