
     RDKit          3D

 38 41  0  0  1  0  0  0  0  0999 V2000
   44.6430   35.6370   44.8780 C   0  0  0  0  0  0  0  0  0  0  0  0
   45.0770   35.4500   43.5300 C   0  0  0  0  0  0  0  0  0  0  0  0
   45.7580   34.2830   43.2320 C   0  0  0  0  0  0  0  0  0  0  0  0
   45.9790   33.3760   44.2320 N   0  0  0  0  0  0  0  0  0  0  0  0
   45.5550   33.5920   45.4820 C   0  0  0  0  0  0  0  0  0  0  0  0
   44.8960   34.7060   45.8010 N   0  0  0  0  0  0  0  0  0  0  0  0
   45.8160   32.6010   46.5230 N   0  0  0  0  0  0  0  0  0  0  0  0
   45.3490   32.8190   47.8800 C   0  0  0  0  0  0  0  0  0  0  0  0
   46.2970   32.2770   48.9060 C   0  0  0  0  0  0  0  0  0  0  0  0
   47.6340   32.0240   48.2870 C   0  0  0  0  0  0  0  0  0  0  0  0
   47.4300   30.9070   47.2590 C   0  0  0  0  0  0  0  0  0  0  0  0
   46.5540   31.4010   46.1660 C   0  0  1  0  0  0  0  0  0  0  0  0
   45.6380   30.3450   45.6230 C   0  0  0  0  0  0  0  0  0  0  0  0
   45.4290   29.9930   44.3510 N   0  0  0  0  0  0  0  0  0  0  0  0
   44.5750   29.0320   44.2470 O   0  0  0  0  0  0  0  0  0  0  0  0
   44.1940   28.7200   45.4740 C   0  0  0  0  0  0  0  0  0  0  0  0
   44.8310   29.5140   46.3610 N   0  0  0  0  0  0  0  0  0  0  0  0
   43.2390   27.6930   45.8730 C   0  0  0  0  0  0  0  0  0  0  0  0
   41.9420   27.6540   45.4070 C   0  0  0  0  0  0  0  0  0  0  0  0
   41.0250   26.6910   45.7740 C   0  0  0  0  0  0  0  0  0  0  0  0
   41.4440   25.7300   46.6480 N   0  0  0  0  0  0  0  0  0  0  0  0
   42.7080   25.7600   47.1070 C   0  0  0  0  0  0  0  0  0  0  0  0
   43.6130   26.7150   46.7430 N   0  0  0  0  0  0  0  0  0  0  0  0
   44.0984   36.5512   45.1566 H   0  0  0  0  0  0  0  0  0  0  0  0
   44.8770   36.2064   42.7568 H   0  0  0  0  0  0  0  0  0  0  0  0
   46.1151   34.0881   42.2100 H   0  0  0  0  0  0  0  0  0  0  0  0
   45.2323   33.9005   48.0437 H   0  0  0  0  0  0  0  0  0  0  0  0
   44.3926   32.2877   47.9942 H   0  0  0  0  0  0  0  0  0  0  0  0
   46.4060   33.0065   49.7220 H   0  0  0  0  0  0  0  0  0  0  0  0
   45.8981   31.3309   49.3007 H   0  0  0  0  0  0  0  0  0  0  0  0
   48.0023   32.9344   47.7915 H   0  0  0  0  0  0  0  0  0  0  0  0
   48.3769   31.7370   49.0457 H   0  0  0  0  0  0  0  0  0  0  0  0
   48.4034   30.6078   46.8432 H   0  0  0  0  0  0  0  0  0  0  0  0
   46.9596   30.0396   47.7452 H   0  0  0  0  0  0  0  0  0  0  0  0
   47.2454   31.6769   45.3561 H   0  0  0  0  0  0  0  0  0  0  0  0
   41.6202   28.4351   44.7026 H   0  0  0  0  0  0  0  0  0  0  0  0
   39.9985   26.6973   45.3786 H   0  0  0  0  0  0  0  0  0  0  0  0
   43.0281   24.9768   47.8100 H   0  0  0  0  0  0  0  0  0  0  0  0
  1  6  2  0
  2  1  1  0
  3  2  2  0
  3  4  1  0
  4  5  2  0
  5  6  1  0
  5  7  1  0
  7  8  1  0
  8  9  1  0
 10  9  1  0
 11 10  1  0
 12  7  1  0
 12 11  1  0
 13 12  1  0
 13 17  1  0
 14 13  2  0
 15 14  1  0
 15 16  1  0
 16 18  1  0
 16 17  2  0
 18 23  2  0
 19 20  2  0
 19 18  1  0
 20 21  1  0
 21 22  2  0
 23 22  1  0
  1 24  1  0
  2 25  1  0
  3 26  1  0
  8 27  1  0
  8 28  1  0
  9 29  1  0
  9 30  1  0
 10 31  1  0
 10 32  1  0
 11 33  1  0
 11 34  1  0
 12 35  1  6
 19 36  1  0
 20 37  1  0
 22 38  1  0
M  ISO  8  24  14  25  14  26  14  27  13  28  13  29  13  30  13  31  13
M  ISO  7  32  13  33  13  34  13  35  13  36  14  37  14  38  14
M  END
>  <minimizedAffinity>  (1) 
-5.82692766

>  <minimizedRMSD>  (1) 
0.816235781

$$$$
