
     RDKit          3D

 45 47  0  0  1  0  0  0  0  0999 V2000
   43.8110   34.2540   41.1940 C   0  0  1  0  0  0  0  0  0  0  0  0
   42.5190   34.7670   40.6900 C   0  0  0  0  0  0  0  0  0  0  0  0
   42.5030   35.0000   39.3230 C   0  0  0  0  0  0  0  0  0  0  0  0
   41.3110   35.4870   38.7420 C   0  0  0  0  0  0  0  0  0  0  0  0
   40.2490   35.7010   39.5440 N   0  0  0  0  0  0  0  0  0  0  0  0
   40.2930   35.4680   40.8630 C   0  0  0  0  0  0  0  0  0  0  0  0
   41.4090   35.0140   41.3920 N   0  0  0  0  0  0  0  0  0  0  0  0
   44.7180   33.9480   40.0070 C   0  0  0  0  0  0  0  0  0  0  0  0
   44.4330   35.3910   41.9780 C   0  0  0  0  0  0  0  0  0  0  0  0
   44.2580   35.2130   43.4580 C   0  0  2  0  0  0  0  0  0  0  0  0
   44.6770   36.2110   44.4250 C   0  0  0  0  0  0  0  0  0  0  0  0
   45.5130   34.9630   44.2230 C   0  0  1  0  0  0  0  0  0  0  0  0
   45.5770   34.1500   45.4130 N   0  0  0  0  0  0  0  0  0  0  0  0
   44.8140   34.2590   46.4980 N   0  0  0  0  0  0  0  0  0  0  0  0
   45.1690   33.3250   47.3900 C   0  0  0  0  0  0  0  0  0  0  0  0
   46.2000   32.6180   46.8140 C   0  0  0  0  0  0  0  0  0  0  0  0
   46.4400   33.1640   45.5560 C   0  0  0  0  0  0  0  0  0  0  0  0
   47.4480   32.6160   44.7700 N   0  0  0  0  0  0  0  0  0  0  0  0
   43.7430   33.0530   41.9870 C   0  0  0  0  0  0  0  0  0  0  0  0
   42.6300   32.2200   42.1120 N   0  0  0  0  0  0  0  0  0  0  0  0
   42.9880   31.0140   42.8410 C   0  0  0  0  0  0  0  0  0  0  0  0
   44.0950   30.6750   43.4630 N   0  0  0  0  0  0  0  0  0  0  0  0
   42.3070   29.8130   43.1370 N   0  0  0  0  0  0  0  0  0  0  0  0
   44.9010   31.3170   43.4880 H   0  0  0  0  0  0  0  0  0  0  0  0
   43.3948   34.8106   38.7075 H   0  0  0  0  0  0  0  0  0  0  0  0
   41.2510   35.6866   37.6619 H   0  0  0  0  0  0  0  0  0  0  0  0
   39.4106   35.6533   41.4931 H   0  0  0  0  0  0  0  0  0  0  0  0
   45.7010   33.6164   40.3726 H   0  0  0  0  0  0  0  0  0  0  0  0
   44.2665   33.1524   39.3961 H   0  0  0  0  0  0  0  0  0  0  0  0
   44.8407   34.8545   39.3961 H   0  0  0  0  0  0  0  0  0  0  0  0
   45.5082   35.4337   41.7498 H   0  0  0  0  0  0  0  0  0  0  0  0
   43.9277   36.3231   41.6850 H   0  0  0  0  0  0  0  0  0  0  0  0
   43.2881   34.7164   43.3077 H   0  0  0  0  0  0  0  0  0  0  0  0
   45.0530   37.1857   44.0805 H   0  0  0  0  0  0  0  0  0  0  0  0
   44.2060   36.6978   45.2917 H   0  0  0  0  0  0  0  0  0  0  0  0
   46.5133   34.6460   43.8930 H   0  0  0  0  0  0  0  0  0  0  0  0
   44.7260   33.1569   48.3827 H   0  0  0  0  0  0  0  0  0  0  0  0
   46.7383   31.7724   47.2669 H   0  0  0  0  0  0  0  0  0  0  0  0
   48.0001   31.8206   45.1213 H   0  0  0  0  0  0  0  0  0  0  0  0
   47.6424   33.0055   43.8365 H   0  0  0  0  0  0  0  0  0  0  0  0
   44.5465   32.4070   41.6035 H   0  0  0  0  0  0  0  0  0  0  0  0
   43.7676   33.4900   42.9962 H   0  0  0  0  0  0  0  0  0  0  0  0
   41.6919   32.4292   41.7418 H   0  0  0  0  0  0  0  0  0  0  0  0
   42.7750   29.0772   43.6852 H   0  0  0  0  0  0  0  0  0  0  0  0
   41.3422   29.6727   42.8047 H   0  0  0  0  0  0  0  0  0  0  0  0
  1  8  1  6
  1  9  1  0
  1 19  1  0
  2  1  1  0
  2  7  1  0
  3  2  2  0
  4  3  1  0
  4  5  2  0
  5  6  1  0
  6  7  2  0
  9 10  1  0
 10 12  1  0
 10 11  1  0
 12 11  1  0
 12 13  1  0
 13 17  1  0
 13 14  1  0
 14 15  2  0
 16 15  1  0
 17 16  2  0
 18 17  1  0
 19 20  1  0
 20 21  1  0
 21 23  1  0
 21 22  2  0
 22 24  1  0
  3 25  1  0
  4 26  1  0
  6 27  1  0
  8 28  1  0
  8 29  1  0
  8 30  1  0
  9 31  1  0
  9 32  1  0
 10 33  1  6
 11 34  1  0
 11 35  1  0
 12 36  1  6
 15 37  1  0
 16 38  1  0
 18 39  1  0
 18 40  1  0
 19 41  1  0
 19 42  1  0
 20 43  1  0
 23 44  1  0
 23 45  1  0
M  ISO  8  25  14  26  14  27  14  28   8  29   8  30   8  31   8  32   8
M  ISO  8  33  13  34  13  35  13  36  13  37  14  38  14  41   8  42   8
M  END
>  <minimizedAffinity>  (1) 
-5.10545731

>  <minimizedRMSD>  (1) 
3.43540955

$$$$
