
     RDKit          3D

 50 53  0  0  1  0  0  0  0  0999 V2000
   46.9480   34.2220   41.8310 C   0  0  1  0  0  0  0  0  0  0  0  0
   45.5840   34.4240   41.3290 C   0  0  0  0  0  0  0  0  0  0  0  0
   45.1800   33.5670   40.3400 C   0  0  0  0  0  0  0  0  0  0  0  0
   43.8850   33.6800   39.7860 C   0  0  0  0  0  0  0  0  0  0  0  0
   43.0820   34.6590   40.2750 N   0  0  0  0  0  0  0  0  0  0  0  0
   43.4840   35.4870   41.2360 C   0  0  0  0  0  0  0  0  0  0  0  0
   44.6990   35.3530   41.7300 N   0  0  0  0  0  0  0  0  0  0  0  0
   47.9000   35.1440   41.1050 C   0  0  0  0  0  0  0  0  0  0  0  0
   46.9140   34.6130   43.3060 C   0  0  0  0  0  0  0  0  0  0  0  0
   46.0390   33.6990   44.1280 C   0  0  2  0  0  0  0  0  0  0  0  0
   45.2810   34.1730   45.2790 C   0  0  0  0  0  0  0  0  0  0  0  0
   46.5650   33.3630   45.4710 C   0  0  1  0  0  0  0  0  0  0  0  0
   46.3440   32.1250   46.1580 N   0  0  0  0  0  0  0  0  0  0  0  0
   45.6320   31.9110   47.2550 N   0  0  0  0  0  0  0  0  0  0  0  0
   45.6760   30.6090   47.5820 C   0  0  0  0  0  0  0  0  0  0  0  0
   46.4650   30.0060   46.6190 C   0  0  0  0  0  0  0  0  0  0  0  0
   46.8730   30.9880   45.7330 C   0  0  0  0  0  0  0  0  0  0  0  0
   47.6940   30.6200   44.6480 N   0  0  0  0  0  0  0  0  0  0  0  0
   47.4190   32.8420   41.7050 C   0  0  0  0  0  0  0  0  0  0  0  0
   48.6760   32.4770   42.2180 N   0  0  0  0  0  0  0  0  0  0  0  0
   49.4100   31.9190   41.0620 C   0  0  0  0  0  0  0  0  0  0  0  0
   50.8480   32.0620   41.3500 C   0  0  0  0  0  0  0  0  0  0  0  0
   50.9190   33.2550   42.2650 C   0  0  0  0  0  0  0  0  0  0  0  0
   49.5130   33.4430   42.8040 C   0  0  0  0  0  0  0  0  0  0  0  0
   45.8660   32.7881   39.9757 H   0  0  0  0  0  0  0  0  0  0  0  0
   43.5416   33.0021   38.9907 H   0  0  0  0  0  0  0  0  0  0  0  0
   42.8121   36.2722   41.6129 H   0  0  0  0  0  0  0  0  0  0  0  0
   48.4889   35.7144   41.8384 H   0  0  0  0  0  0  0  0  0  0  0  0
   48.5769   34.5492   40.4741 H   0  0  0  0  0  0  0  0  0  0  0  0
   47.3272   35.8396   40.4741 H   0  0  0  0  0  0  0  0  0  0  0  0
   47.9383   34.5729   43.7049 H   0  0  0  0  0  0  0  0  0  0  0  0
   46.4924   35.6268   43.3725 H   0  0  0  0  0  0  0  0  0  0  0  0
   45.7158   33.1506   43.2309 H   0  0  0  0  0  0  0  0  0  0  0  0
   45.2631   35.2451   45.5243 H   0  0  0  0  0  0  0  0  0  0  0  0
   44.2397   34.0799   45.6211 H   0  0  0  0  0  0  0  0  0  0  0  0
   47.5800   33.4441   45.8872 H   0  0  0  0  0  0  0  0  0  0  0  0
   45.1860   30.1228   48.4384 H   0  0  0  0  0  0  0  0  0  0  0  0
   46.7220   28.9377   46.5667 H   0  0  0  0  0  0  0  0  0  0  0  0
   47.9807   29.6379   44.5290 H   0  0  0  0  0  0  0  0  0  0  0  0
   48.0072   31.3332   43.9741 H   0  0  0  0  0  0  0  0  0  0  0  0
   46.6748   32.2058   42.2065 H   0  0  0  0  0  0  0  0  0  0  0  0
   47.5437   32.7164   40.6193 H   0  0  0  0  0  0  0  0  0  0  0  0
   49.1516   32.4736   40.1479 H   0  0  0  0  0  0  0  0  0  0  0  0
   49.1461   30.8629   40.9042 H   0  0  0  0  0  0  0  0  0  0  0  0
   51.2382   31.1627   41.8490 H   0  0  0  0  0  0  0  0  0  0  0  0
   51.4515   32.1903   40.4393 H   0  0  0  0  0  0  0  0  0  0  0  0
   51.6233   33.0655   43.0884 H   0  0  0  0  0  0  0  0  0  0  0  0
   51.2745   34.1517   41.7363 H   0  0  0  0  0  0  0  0  0  0  0  0
   49.1505   34.4503   42.5509 H   0  0  0  0  0  0  0  0  0  0  0  0
   49.5111   33.3286   43.8980 H   0  0  0  0  0  0  0  0  0  0  0  0
  1  8  1  6
  1  9  1  0
  2  7  1  0
  2  1  1  0
  3  2  2  0
  4  5  2  0
  4  3  1  0
  5  6  1  0
  6  7  2  0
  9 10  1  0
 10 11  1  0
 10 12  1  0
 11 12  1  0
 12 13  1  0
 13 14  1  0
 14 15  2  0
 16 15  1  0
 17 13  1  0
 17 16  2  0
 18 17  1  0
 19  1  1  0
 19 20  1  0
 20 24  1  0
 21 22  1  0
 21 20  1  0
 22 23  1  0
 23 24  1  0
  3 25  1  0
  4 26  1  0
  6 27  1  0
  8 28  1  0
  8 29  1  0
  8 30  1  0
  9 31  1  0
  9 32  1  0
 10 33  1  6
 11 34  1  0
 11 35  1  0
 12 36  1  1
 15 37  1  0
 16 38  1  0
 18 39  1  0
 18 40  1  0
 19 41  1  0
 19 42  1  0
 21 43  1  0
 21 44  1  0
 22 45  1  0
 22 46  1  0
 23 47  1  0
 23 48  1  0
 24 49  1  0
 24 50  1  0
M  ISO  8  25  14  26  14  27  14  28   8  29   8  30   8  31   8  32   8
M  ISO  8  33  13  34  13  35  13  36  13  37  14  38  14  41   8  42   8
M  ISO  8  43  13  44  13  45  13  46  13  47  13  48  13  49  13  50  13
M  END
>  <minimizedAffinity>  (1) 
-4.97216225

>  <minimizedRMSD>  (1) 
0.82789135

$$$$
