
     RDKit          3D

 44 47  0  0  1  0  0  0  0  0999 V2000
   46.6360   34.0250   41.9620 C   0  0  1  0  0  0  0  0  0  0  0  0
   45.3380   34.3970   41.4360 C   0  0  0  0  0  0  0  0  0  0  0  0
   44.8790   33.6200   40.4050 C   0  0  0  0  0  0  0  0  0  0  0  0
   43.6160   33.9140   39.8300 C   0  0  0  0  0  0  0  0  0  0  0  0
   42.9180   34.9580   40.3290 N   0  0  0  0  0  0  0  0  0  0  0  0
   43.3840   35.7050   41.3380 C   0  0  0  0  0  0  0  0  0  0  0  0
   44.5610   35.4100   41.8530 N   0  0  0  0  0  0  0  0  0  0  0  0
   47.7540   34.6800   41.1490 C   0  0  0  0  0  0  0  0  0  0  0  0
   46.7230   34.5700   43.3850 C   0  0  0  0  0  0  0  0  0  0  0  0
   45.7450   33.8900   44.3140 C   0  0  2  0  0  0  0  0  0  0  0  0
   45.0100   34.6000   45.3530 C   0  0  0  0  0  0  0  0  0  0  0  0
   46.2020   33.7040   45.6980 C   0  0  1  0  0  0  0  0  0  0  0  0
   45.8420   32.6070   46.5590 N   0  0  0  0  0  0  0  0  0  0  0  0
   45.2310   32.6640   47.7420 N   0  0  0  0  0  0  0  0  0  0  0  0
   45.0750   31.4170   48.2240 C   0  0  0  0  0  0  0  0  0  0  0  0
   45.6190   30.5890   47.2830 C   0  0  0  0  0  0  0  0  0  0  0  0
   46.1040   31.3570   46.2290 C   0  0  0  0  0  0  0  0  0  0  0  0
   46.7080   30.7280   45.1450 N   0  0  0  0  0  0  0  0  0  0  0  0
   46.9220   32.5920   41.9890 C   0  0  0  0  0  0  0  0  0  0  0  0
   48.3400   32.3140   41.5790 C   0  0  0  0  0  0  0  0  0  0  0  0
   49.2720   32.2730   42.6260 C   0  0  0  0  0  0  0  0  0  0  0  0
   50.8360   31.9270   41.7890 S   0  0  0  0  0  0  0  0  0  0  0  0
   49.9640   31.8910   40.0980 C   0  0  0  0  0  0  0  0  0  0  0  0
   48.9110   32.0980   40.4270 N   0  0  0  0  0  0  0  0  0  0  0  0
   45.4814   32.7801   40.0285 H   0  0  0  0  0  0  0  0  0  0  0  0
   43.2165   33.3098   39.0021 H   0  0  0  0  0  0  0  0  0  0  0  0
   42.7961   36.5483   41.7294 H   0  0  0  0  0  0  0  0  0  0  0  0
   48.4976   35.1156   41.8326 H   0  0  0  0  0  0  0  0  0  0  0  0
   48.2382   33.9227   40.5149 H   0  0  0  0  0  0  0  0  0  0  0  0
   47.3302   35.4726   40.5149 H   0  0  0  0  0  0  0  0  0  0  0  0
   47.7429   34.4098   43.7646 H   0  0  0  0  0  0  0  0  0  0  0  0
   46.4726   35.6407   43.3539 H   0  0  0  0  0  0  0  0  0  0  0  0
   45.3868   33.2505   43.4938 H   0  0  0  0  0  0  0  0  0  0  0  0
   45.0954   35.6930   45.4424 H   0  0  0  0  0  0  0  0  0  0  0  0
   43.9576   34.6610   45.6672 H   0  0  0  0  0  0  0  0  0  0  0  0
   47.2137   33.7415   46.1281 H   0  0  0  0  0  0  0  0  0  0  0  0
   44.6075   31.1255   49.1761 H   0  0  0  0  0  0  0  0  0  0  0  0
   45.6660   29.4919   47.3482 H   0  0  0  0  0  0  0  0  0  0  0  0
   46.7930   29.7017   45.1270 H   0  0  0  0  0  0  0  0  0  0  0  0
   47.0701   31.2886   44.3605 H   0  0  0  0  0  0  0  0  0  0  0  0
   46.7626   32.2133   43.0094 H   0  0  0  0  0  0  0  0  0  0  0  0
   46.2489   32.0887   41.2793 H   0  0  0  0  0  0  0  0  0  0  0  0
   49.0935   32.4172   43.7018 H   0  0  0  0  0  0  0  0  0  0  0  0
   50.3727   31.7178   39.0915 H   0  0  0  0  0  0  0  0  0  0  0  0
  1  8  1  6
  1 19  1  0
  1  9  1  0
  2  7  1  0
  2  1  1  0
  3  2  2  0
  4  5  2  0
  4  3  1  0
  5  6  1  0
  6  7  2  0
  9 10  1  0
 10 11  1  0
 10 12  1  0
 11 12  1  0
 12 13  1  0
 13 14  1  0
 14 15  2  0
 16 15  1  0
 17 13  1  0
 17 16  2  0
 18 17  1  0
 20 19  1  0
 20 21  2  0
 22 21  1  0
 23 24  2  0
 23 22  1  0
 24 20  1  0
  3 25  1  0
  4 26  1  0
  6 27  1  0
  8 28  1  0
  8 29  1  0
  8 30  1  0
  9 31  1  0
  9 32  1  0
 10 33  1  6
 11 34  1  0
 11 35  1  0
 12 36  1  6
 15 37  1  0
 16 38  1  0
 18 39  1  0
 18 40  1  0
 19 41  1  0
 19 42  1  0
 21 43  1  0
 23 44  1  0
M  ISO  8  25  14  26  14  27  14  28   8  29   8  30   8  31   8  32   8
M  ISO  8  33  13  34  13  35  13  36  13  37  14  38  14  41   8  42   8
M  ISO  2  43  14  44  14
M  END
>  <minimizedAffinity>  (1) 
-5.07559776

>  <minimizedRMSD>  (1) 
0.997294009

$$$$
