
     RDKit          3D

 43 46  0  0  1  0  0  0  0  0999 V2000
   44.5770   35.8370   44.9170 C   0  0  0  0  0  0  0  0  0  0  0  0
   45.1760   35.7930   43.6270 C   0  0  0  0  0  0  0  0  0  0  0  0
   45.9730   34.7060   43.3310 C   0  0  0  0  0  0  0  0  0  0  0  0
   46.1480   33.7370   44.2770 N   0  0  0  0  0  0  0  0  0  0  0  0
   45.5610   33.8190   45.4850 C   0  0  0  0  0  0  0  0  0  0  0  0
   44.7850   34.8570   45.8000 N   0  0  0  0  0  0  0  0  0  0  0  0
   45.7770   32.7620   46.4710 N   0  0  0  0  0  0  0  0  0  0  0  0
   45.1400   32.8360   47.7750 C   0  0  0  0  0  0  0  0  0  0  0  0
   46.0030   32.2800   48.8670 C   0  0  0  0  0  0  0  0  0  0  0  0
   47.4190   32.1600   48.3900 C   0  0  0  0  0  0  0  0  0  0  0  0
   47.4120   31.1190   47.2730 C   0  0  0  0  0  0  0  0  0  0  0  0
   46.6380   31.6460   46.1180 C   0  0  1  0  0  0  0  0  0  0  0  0
   45.8730   30.5840   45.3890 C   0  0  0  0  0  0  0  0  0  0  0  0
   45.8830   30.2910   44.0890 N   0  0  0  0  0  0  0  0  0  0  0  0
   45.1100   29.3070   43.7990 O   0  0  0  0  0  0  0  0  0  0  0  0
   44.5510   28.9110   44.9310 C   0  0  0  0  0  0  0  0  0  0  0  0
   45.0010   29.6820   45.9480 N   0  0  0  0  0  0  0  0  0  0  0  0
   41.8020   25.7200   45.2570 C   0  0  0  0  0  0  0  0  0  0  0  0
   42.5850   26.1000   46.3340 C   0  0  0  0  0  0  0  0  0  0  0  0
   43.4950   27.1460   46.2480 C   0  0  0  0  0  0  0  0  0  0  0  0
   43.5980   27.8080   45.0390 C   0  0  0  0  0  0  0  0  0  0  0  0
   42.8370   27.4620   43.9390 C   0  0  0  0  0  0  0  0  0  0  0  0
   41.9390   26.4120   44.0640 C   0  0  0  0  0  0  0  0  0  0  0  0
   40.6610   24.3960   45.3930 S   0  0  0  0  0  0  0  0  0  0  0  0
   41.3890   23.0610   45.3440 O   0  0  0  0  0  0  0  0  0  0  0  0
   39.6920   24.4020   44.2630 O   0  0  0  0  0  0  0  0  0  0  0  0
   43.9354   36.6878   45.1899 H   0  0  0  0  0  0  0  0  0  0  0  0
   45.0100   36.5954   42.8932 H   0  0  0  0  0  0  0  0  0  0  0  0
   46.4598   34.6215   42.3482 H   0  0  0  0  0  0  0  0  0  0  0  0
   44.9201   33.8898   48.0010 H   0  0  0  0  0  0  0  0  0  0  0  0
   44.2219   32.2315   47.7336 H   0  0  0  0  0  0  0  0  0  0  0  0
   45.9674   32.9518   49.7373 H   0  0  0  0  0  0  0  0  0  0  0  0
   45.6313   31.2840   49.1494 H   0  0  0  0  0  0  0  0  0  0  0  0
   47.7741   33.1276   48.0058 H   0  0  0  0  0  0  0  0  0  0  0  0
   48.0910   31.8618   49.2082 H   0  0  0  0  0  0  0  0  0  0  0  0
   48.4452   30.9097   46.9587 H   0  0  0  0  0  0  0  0  0  0  0  0
   46.9474   30.1905   47.6363 H   0  0  0  0  0  0  0  0  0  0  0  0
   47.3981   32.0312   45.4224 H   0  0  0  0  0  0  0  0  0  0  0  0
   42.4834   25.5576   47.2856 H   0  0  0  0  0  0  0  0  0  0  0  0
   44.1116   27.4371   47.1112 H   0  0  0  0  0  0  0  0  0  0  0  0
   42.9405   28.0053   42.9882 H   0  0  0  0  0  0  0  0  0  0  0  0
   41.3236   26.1230   43.1993 H   0  0  0  0  0  0  0  0  0  0  0  0
   40.0049   24.5581   46.5847 H   0  0  0  0  0  0  0  0  0  0  0  0
  1  6  2  0
  2  1  1  0
  3  2  2  0
  3  4  1  0
  4  5  2  0
  5  6  1  0
  5  7  1  0
  7  8  1  0
  8  9  1  0
 10  9  1  0
 11 10  1  0
 12  7  1  0
 12 11  1  0
 13 17  1  0
 13 12  1  0
 14 13  2  0
 15 14  1  0
 15 16  1  0
 16 21  1  0
 16 17  2  0
 18 24  1  0
 18 19  2  0
 20 19  1  0
 21 20  2  0
 22 23  2  0
 22 21  1  0
 23 18  1  0
 25 24  2  0
 26 24  2  0
  1 27  1  0
  2 28  1  0
  3 29  1  0
  8 30  1  0
  8 31  1  0
  9 32  1  0
  9 33  1  0
 10 34  1  0
 10 35  1  0
 11 36  1  0
 11 37  1  0
 12 38  1  6
 19 39  1  0
 20 40  1  0
 22 41  1  0
 23 42  1  0
 24 43  1  0
M  ISO  8  27  14  28  14  29  14  30  13  31  13  32  13  33  13  34  13
M  ISO  8  35  13  36  13  37  13  38  13  39  14  40  14  41  14  42  14
M  ISO  1  43  11
M  END
>  <minimizedAffinity>  (1) 
-5.80869246

>  <minimizedRMSD>  (1) 
0.536721587

$$$$
