
     RDKit          3D

 45 48  0  0  1  0  0  0  0  0999 V2000
   47.0710   34.1070   41.7660 C   0  0  1  0  0  0  0  0  0  0  0  0
   45.7170   34.4280   41.3570 C   0  0  0  0  0  0  0  0  0  0  0  0
   45.2180   33.6070   40.3610 C   0  0  0  0  0  0  0  0  0  0  0  0
   43.8920   33.8480   39.9120 C   0  0  0  0  0  0  0  0  0  0  0  0
   43.1870   34.8700   40.4840 N   0  0  0  0  0  0  0  0  0  0  0  0
   43.7110   35.6440   41.4490 C   0  0  0  0  0  0  0  0  0  0  0  0
   44.9470   35.4000   41.8520 N   0  0  0  0  0  0  0  0  0  0  0  0
   48.0630   35.0620   41.0790 C   0  0  0  0  0  0  0  0  0  0  0  0
   47.1990   34.3590   43.2590 C   0  0  0  0  0  0  0  0  0  0  0  0
   46.6070   33.2100   44.0620 C   0  0  2  0  0  0  0  0  0  0  0  0
   45.1770   32.9720   44.1930 C   0  0  0  0  0  0  0  0  0  0  0  0
   45.9850   33.5760   45.3500 C   0  0  1  0  0  0  0  0  0  0  0  0
   45.9680   32.7580   46.5260 N   0  0  0  0  0  0  0  0  0  0  0  0
   45.2520   32.9320   47.6310 N   0  0  0  0  0  0  0  0  0  0  0  0
   45.5200   31.9480   48.4980 C   0  0  0  0  0  0  0  0  0  0  0  0
   46.4530   31.1290   47.8840 C   0  0  0  0  0  0  0  0  0  0  0  0
   46.7150   31.6770   46.6250 C   0  0  0  0  0  0  0  0  0  0  0  0
   47.6380   31.0250   45.8010 N   0  0  0  0  0  0  0  0  0  0  0  0
   47.5510   32.7600   41.4730 C   0  0  0  0  0  0  0  0  0  0  0  0
   48.9960   32.6480   41.5960 N   0  0  0  0  0  0  0  0  0  0  0  0
   49.9210   32.9970   42.4280 N   0  0  0  0  0  0  0  0  0  0  0  0
   51.1530   32.6540   42.0960 C   0  0  0  0  0  0  0  0  0  0  0  0
   51.0890   31.9900   40.8970 C   0  0  0  0  0  0  0  0  0  0  0  0
   49.7390   32.0130   40.6310 C   0  0  0  0  0  0  0  0  0  0  0  0
   45.8263   32.7969   39.9324 H   0  0  0  0  0  0  0  0  0  0  0  0
   43.4432   33.2270   39.1228 H   0  0  0  0  0  0  0  0  0  0  0  0
   43.1255   36.4621   41.8939 H   0  0  0  0  0  0  0  0  0  0  0  0
   48.6329   35.6107   41.8433 H   0  0  0  0  0  0  0  0  0  0  0  0
   48.7555   34.4820   40.4513 H   0  0  0  0  0  0  0  0  0  0  0  0
   47.5097   35.7760   40.4513 H   0  0  0  0  0  0  0  0  0  0  0  0
   48.2634   34.4653   43.5153 H   0  0  0  0  0  0  0  0  0  0  0  0
   46.6477   35.2782   43.5064 H   0  0  0  0  0  0  0  0  0  0  0  0
   47.4118   32.5441   43.7172 H   0  0  0  0  0  0  0  0  0  0  0  0
   44.4602   33.5934   43.6362 H   0  0  0  0  0  0  0  0  0  0  0  0
   44.5133   32.1033   44.0710 H   0  0  0  0  0  0  0  0  0  0  0  0
   46.0731   34.4894   45.9566 H   0  0  0  0  0  0  0  0  0  0  0  0
   45.0853   31.8160   49.4998 H   0  0  0  0  0  0  0  0  0  0  0  0
   46.9030   30.2189   48.3073 H   0  0  0  0  0  0  0  0  0  0  0  0
   48.1009   30.1643   46.1264 H   0  0  0  0  0  0  0  0  0  0  0  0
   47.8549   31.4055   44.8687 H   0  0  0  0  0  0  0  0  0  0  0  0
   47.2625   32.4980   40.4443 H   0  0  0  0  0  0  0  0  0  0  0  0
   47.0977   32.0755   42.2051 H   0  0  0  0  0  0  0  0  0  0  0  0
   52.0644   32.8628   42.6755 H   0  0  0  0  0  0  0  0  0  0  0  0
   51.9049   31.5528   40.3027 H   0  0  0  0  0  0  0  0  0  0  0  0
   49.2962   31.5646   39.7294 H   0  0  0  0  0  0  0  0  0  0  0  0
  1  8  1  6
  1  9  1  0
  2  1  1  0
  2  7  1  0
  3  2  2  0
  4  3  1  0
  4  5  2  0
  5  6  1  0
  6  7  2  0
  9 10  1  0
 10 11  1  0
 10 12  1  0
 11 12  1  0
 12 13  1  0
 13 17  1  0
 13 14  1  0
 14 15  2  0
 16 15  1  0
 17 16  2  0
 18 17  1  0
 19 20  1  0
 19  1  1  0
 20 21  1  0
 22 21  2  0
 23 22  1  0
 24 23  2  0
 24 20  1  0
  3 25  1  0
  4 26  1  0
  6 27  1  0
  8 28  1  0
  8 29  1  0
  8 30  1  0
  9 31  1  0
  9 32  1  0
 10 33  1  1
 11 34  1  0
 11 35  1  0
 12 36  1  1
 15 37  1  0
 16 38  1  0
 18 39  1  0
 18 40  1  0
 19 41  1  0
 19 42  1  0
 22 43  1  0
 23 44  1  0
 24 45  1  0
M  ISO  8  25  14  26  14  27  14  28   8  29   8  30   8  31   8  32   8
M  ISO  8  33  13  34  13  35  13  36  13  37  14  38  14  41   8  42   8
M  ISO  3  43  14  44  14  45  14
M  END
>  <minimizedAffinity>  (1) 
-5.01649857

>  <minimizedRMSD>  (1) 
0.292999536

$$$$
