
     RDKit          3D

 43 46  0  0  1  0  0  0  0  0999 V2000
   47.1550   34.0750   41.8760 C   0  0  1  0  0  0  0  0  0  0  0  0
   45.8040   34.4360   41.4730 C   0  0  0  0  0  0  0  0  0  0  0  0
   45.3130   33.6370   40.4590 C   0  0  0  0  0  0  0  0  0  0  0  0
   43.9860   33.9090   39.9980 C   0  0  0  0  0  0  0  0  0  0  0  0
   43.2950   34.9310   40.5850 N   0  0  0  0  0  0  0  0  0  0  0  0
   43.8250   35.6760   41.5690 C   0  0  0  0  0  0  0  0  0  0  0  0
   45.0540   35.4050   41.9780 N   0  0  0  0  0  0  0  0  0  0  0  0
   48.1670   35.0240   41.2090 C   0  0  0  0  0  0  0  0  0  0  0  0
   47.2900   34.2970   43.3720 C   0  0  0  0  0  0  0  0  0  0  0  0
   46.6620   33.1580   44.1600 C   0  0  2  0  0  0  0  0  0  0  0  0
   45.2220   32.9540   44.2700 C   0  0  0  0  0  0  0  0  0  0  0  0
   46.0260   33.5310   45.4420 C   0  0  1  0  0  0  0  0  0  0  0  0
   45.9900   32.7030   46.6120 N   0  0  0  0  0  0  0  0  0  0  0  0
   45.2520   32.8770   47.7010 N   0  0  0  0  0  0  0  0  0  0  0  0
   45.5080   31.8780   48.5750 C   0  0  0  0  0  0  0  0  0  0  0  0
   46.4450   31.0720   47.9710 C   0  0  0  0  0  0  0  0  0  0  0  0
   46.7330   31.6190   46.7240 C   0  0  0  0  0  0  0  0  0  0  0  0
   47.6710   30.9650   45.9150 N   0  0  0  0  0  0  0  0  0  0  0  0
   47.6180   32.7250   41.5620 C   0  0  0  0  0  0  0  0  0  0  0  0
   49.1070   32.6970   41.6460 C   0  0  0  0  0  0  0  0  0  0  0  0
   50.0650   33.2180   42.4220 N   0  0  0  0  0  0  0  0  0  0  0  0
   51.2460   32.8890   42.0680 O   0  0  0  0  0  0  0  0  0  0  0  0
   51.1700   32.1130   41.0180 C   0  0  0  0  0  0  0  0  0  0  0  0
   49.8630   31.9890   40.7510 N   0  0  0  0  0  0  0  0  0  0  0  0
   45.9163   32.8263   40.0244 H   0  0  0  0  0  0  0  0  0  0  0  0
   43.5343   33.3113   39.1926 H   0  0  0  0  0  0  0  0  0  0  0  0
   43.2492   36.4946   42.0255 H   0  0  0  0  0  0  0  0  0  0  0  0
   48.7358   35.5574   41.9848 H   0  0  0  0  0  0  0  0  0  0  0  0
   48.8585   34.4412   40.5828 H   0  0  0  0  0  0  0  0  0  0  0  0
   47.6298   35.7515   40.5828 H   0  0  0  0  0  0  0  0  0  0  0  0
   48.3574   34.3644   43.6291 H   0  0  0  0  0  0  0  0  0  0  0  0
   46.7666   35.2287   43.6327 H   0  0  0  0  0  0  0  0  0  0  0  0
   47.4572   32.4761   43.8242 H   0  0  0  0  0  0  0  0  0  0  0  0
   44.5286   33.5959   43.7068 H   0  0  0  0  0  0  0  0  0  0  0  0
   44.5395   32.1023   44.1332 H   0  0  0  0  0  0  0  0  0  0  0  0
   46.1158   34.4394   46.0559 H   0  0  0  0  0  0  0  0  0  0  0  0
   45.0578   31.7378   49.5688 H   0  0  0  0  0  0  0  0  0  0  0  0
   46.8871   30.1593   48.3970 H   0  0  0  0  0  0  0  0  0  0  0  0
   48.1259   30.1028   46.2477 H   0  0  0  0  0  0  0  0  0  0  0  0
   47.9059   31.3463   44.9874 H   0  0  0  0  0  0  0  0  0  0  0  0
   47.2997   32.4519   40.5451 H   0  0  0  0  0  0  0  0  0  0  0  0
   47.1893   32.0067   42.2764 H   0  0  0  0  0  0  0  0  0  0  0  0
   52.0061   31.6566   40.4679 H   0  0  0  0  0  0  0  0  0  0  0  0
  1  8  1  6
  1  9  1  0
  2  1  1  0
  2  7  1  0
  3  2  2  0
  4  3  1  0
  4  5  2  0
  5  6  1  0
  6  7  2  0
  9 10  1  0
 10 11  1  0
 10 12  1  0
 11 12  1  0
 12 13  1  0
 13 17  1  0
 13 14  1  0
 14 15  2  0
 16 15  1  0
 17 16  2  0
 18 17  1  0
 19 20  1  0
 19  1  1  0
 20 21  2  0
 22 21  1  0
 23 22  1  0
 24 23  2  0
 24 20  1  0
  3 25  1  0
  4 26  1  0
  6 27  1  0
  8 28  1  0
  8 29  1  0
  8 30  1  0
  9 31  1  0
  9 32  1  0
 10 33  1  1
 11 34  1  0
 11 35  1  0
 12 36  1  1
 15 37  1  0
 16 38  1  0
 18 39  1  0
 18 40  1  0
 19 41  1  0
 19 42  1  0
 23 43  1  0
M  ISO  8  25  14  26  14  27  14  28   8  29   8  30   8  31   8  32   8
M  ISO  8  33  13  34  13  35  13  36  13  37  14  38  14  41   8  42   8
M  ISO  1  43  14
M  END
>  <minimizedAffinity>  (1) 
-5.07787895

>  <minimizedRMSD>  (1) 
0.287626475

$$$$
