
     RDKit          3D

 51 54  0  0  1  0  0  0  0  0999 V2000
   47.4540   34.1310   41.7550 C   0  0  1  0  0  0  0  0  0  0  0  0
   46.1260   34.1830   41.1500 C   0  0  0  0  0  0  0  0  0  0  0  0
   45.9160   33.2850   40.1430 C   0  0  0  0  0  0  0  0  0  0  0  0
   44.6530   33.2700   39.4990 C   0  0  0  0  0  0  0  0  0  0  0  0
   43.7030   34.1520   39.9150 N   0  0  0  0  0  0  0  0  0  0  0  0
   43.9360   35.0130   40.8990 C   0  0  0  0  0  0  0  0  0  0  0  0
   45.1170   35.0110   41.4830 N   0  0  0  0  0  0  0  0  0  0  0  0
   48.3100   35.2690   41.2120 C   0  0  0  0  0  0  0  0  0  0  0  0
   47.2710   34.4150   43.2500 C   0  0  0  0  0  0  0  0  0  0  0  0
   46.7160   33.2260   43.9960 C   0  0  2  0  0  0  0  0  0  0  0  0
   45.2890   33.0120   44.2230 C   0  0  0  0  0  0  0  0  0  0  0  0
   46.2060   33.4750   45.3560 C   0  0  1  0  0  0  0  0  0  0  0  0
   46.2500   32.5410   46.4400 N   0  0  0  0  0  0  0  0  0  0  0  0
   45.6140   32.6210   47.6100 N   0  0  0  0  0  0  0  0  0  0  0  0
   45.9140   31.5430   48.3570 C   0  0  0  0  0  0  0  0  0  0  0  0
   46.7730   30.7770   47.5960 C   0  0  0  0  0  0  0  0  0  0  0  0
   46.9650   31.4360   46.3880 C   0  0  0  0  0  0  0  0  0  0  0  0
   47.8120   30.8490   45.4330 N   0  0  0  0  0  0  0  0  0  0  0  0
   48.1640   32.8700   41.6090 C   0  0  0  0  0  0  0  0  0  0  0  0
   49.4660   32.8280   41.1070 N   0  0  0  0  0  0  0  0  0  0  0  0
   49.7050   31.9700   39.9880 C   0  0  0  0  0  0  0  0  0  0  0  0
   51.0880   31.2820   40.1460 C   0  0  0  0  0  0  0  0  0  0  0  0
   51.1330   30.4320   41.2100 O   0  0  0  0  0  0  0  0  0  0  0  0
   50.6000   31.0160   42.3260 C   0  0  0  0  0  0  0  0  0  0  0  0
   50.4270   32.4960   42.1200 C   0  0  0  0  0  0  0  0  0  0  0  0
   46.7102   32.5878   39.8378 H   0  0  0  0  0  0  0  0  0  0  0  0
   44.4456   32.5625   38.6826 H   0  0  0  0  0  0  0  0  0  0  0  0
   43.1548   35.7171   41.2215 H   0  0  0  0  0  0  0  0  0  0  0  0
   48.7381   35.8381   42.0504 H   0  0  0  0  0  0  0  0  0  0  0  0
   49.1226   34.8553   40.5968 H   0  0  0  0  0  0  0  0  0  0  0  0
   47.6871   35.9350   40.5968 H   0  0  0  0  0  0  0  0  0  0  0  0
   48.2476   34.6790   43.6819 H   0  0  0  0  0  0  0  0  0  0  0  0
   46.5508   35.2405   43.3497 H   0  0  0  0  0  0  0  0  0  0  0  0
   47.4763   32.5812   43.5312 H   0  0  0  0  0  0  0  0  0  0  0  0
   44.5508   33.7040   43.7916 H   0  0  0  0  0  0  0  0  0  0  0  0
   44.5882   32.1774   44.0735 H   0  0  0  0  0  0  0  0  0  0  0  0
   46.3737   34.3213   46.0384 H   0  0  0  0  0  0  0  0  0  0  0  0
   45.5484   31.3178   49.3697 H   0  0  0  0  0  0  0  0  0  0  0  0
   47.2240   29.8184   47.8920 H   0  0  0  0  0  0  0  0  0  0  0  0
   48.2709   29.9493   45.6353 H   0  0  0  0  0  0  0  0  0  0  0  0
   47.9740   31.3183   44.5306 H   0  0  0  0  0  0  0  0  0  0  0  0
   48.2007   32.4150   42.6098 H   0  0  0  0  0  0  0  0  0  0  0  0
   47.5873   32.3592   40.8238 H   0  0  0  0  0  0  0  0  0  0  0  0
   49.6952   32.5641   39.0623 H   0  0  0  0  0  0  0  0  0  0  0  0
   48.9182   31.2027   39.9411 H   0  0  0  0  0  0  0  0  0  0  0  0
   51.3043   30.7119   39.2305 H   0  0  0  0  0  0  0  0  0  0  0  0
   51.8344   32.0713   40.3189 H   0  0  0  0  0  0  0  0  0  0  0  0
   49.6198   30.5637   42.5371 H   0  0  0  0  0  0  0  0  0  0  0  0
   51.2849   30.8541   43.1714 H   0  0  0  0  0  0  0  0  0  0  0  0
   51.3987   32.9224   41.8303 H   0  0  0  0  0  0  0  0  0  0  0  0
   50.0527   32.9113   43.0673 H   0  0  0  0  0  0  0  0  0  0  0  0
  1  8  1  6
  1  9  1  0
  2  7  1  0
  2  1  1  0
  3  2  2  0
  4  5  2  0
  4  3  1  0
  5  6  1  0
  6  7  2  0
  9 10  1  0
 10 11  1  0
 10 12  1  0
 11 12  1  0
 12 13  1  0
 13 14  1  0
 14 15  2  0
 16 15  1  0
 17 13  1  0
 17 16  2  0
 18 17  1  0
 19  1  1  0
 20 19  1  0
 20 25  1  0
 21 22  1  0
 21 20  1  0
 22 23  1  0
 23 24  1  0
 25 24  1  0
  3 26  1  0
  4 27  1  0
  6 28  1  0
  8 29  1  0
  8 30  1  0
  8 31  1  0
  9 32  1  0
  9 33  1  0
 10 34  1  1
 11 35  1  0
 11 36  1  0
 12 37  1  1
 15 38  1  0
 16 39  1  0
 18 40  1  0
 18 41  1  0
 19 42  1  0
 19 43  1  0
 21 44  1  0
 21 45  1  0
 22 46  1  0
 22 47  1  0
 24 48  1  0
 24 49  1  0
 25 50  1  0
 25 51  1  0
M  ISO  8  26  14  27  14  28  14  29   8  30   8  31   8  32   8  33   8
M  ISO  8  34  13  35  13  36  13  37  13  38  14  39  14  42   8  43   8
M  ISO  8  44  13  45  13  46  13  47  13  48  13  49  13  50  13  51  13
M  END
>  <minimizedAffinity>  (1) 
-4.84056377

>  <minimizedRMSD>  (1) 
1.22839046

$$$$
