
     RDKit          3D

 54 57  0  0  1  0  0  0  0  0999 V2000
   47.1940   34.1910   41.9200 C   0  0  1  0  0  0  0  0  0  0  0  0
   45.8210   34.4760   41.5020 C   0  0  0  0  0  0  0  0  0  0  0  0
   45.3330   33.6660   40.5150 C   0  0  0  0  0  0  0  0  0  0  0  0
   44.0160   33.8720   40.0470 C   0  0  0  0  0  0  0  0  0  0  0  0
   43.2820   34.8750   40.6010 N   0  0  0  0  0  0  0  0  0  0  0  0
   43.7800   35.6520   41.5610 C   0  0  0  0  0  0  0  0  0  0  0  0
   45.0080   35.4360   41.9750 N   0  0  0  0  0  0  0  0  0  0  0  0
   48.1310   35.2350   41.3280 C   0  0  0  0  0  0  0  0  0  0  0  0
   47.2440   34.3790   43.4380 C   0  0  0  0  0  0  0  0  0  0  0  0
   46.6210   33.2180   44.1820 C   0  0  2  0  0  0  0  0  0  0  0  0
   45.1860   33.0230   44.3040 C   0  0  0  0  0  0  0  0  0  0  0  0
   46.0140   33.5330   45.4870 C   0  0  1  0  0  0  0  0  0  0  0  0
   45.9820   32.6470   46.6160 N   0  0  0  0  0  0  0  0  0  0  0  0
   45.2450   32.7780   47.7220 N   0  0  0  0  0  0  0  0  0  0  0  0
   45.5010   31.7340   48.5420 C   0  0  0  0  0  0  0  0  0  0  0  0
   46.4200   30.9620   47.8950 C   0  0  0  0  0  0  0  0  0  0  0  0
   46.7160   31.5530   46.6750 C   0  0  0  0  0  0  0  0  0  0  0  0
   47.6350   30.9470   45.8270 N   0  0  0  0  0  0  0  0  0  0  0  0
   47.6800   32.8640   41.6070 C   0  0  0  0  0  0  0  0  0  0  0  0
   48.9420   32.3580   42.1860 C   0  0  0  0  0  0  0  0  0  0  0  0
   49.2330   31.0200   41.4640 C   0  0  0  0  0  0  0  0  0  0  0  0
   49.9840   31.1860   40.1960 C   0  0  0  0  0  0  0  0  0  0  0  0
   51.4360   31.4720   40.5280 C   0  0  0  0  0  0  0  0  0  0  0  0
   51.4000   32.2350   41.8430 C   0  0  0  0  0  0  0  0  0  0  0  0
   50.1810   33.1810   41.7750 C   0  0  0  0  0  0  0  0  0  0  0  0
   45.9568   32.8652   40.0912 H   0  0  0  0  0  0  0  0  0  0  0  0
   43.5942   33.2370   39.2540 H   0  0  0  0  0  0  0  0  0  0  0  0
   43.1747   36.4593   41.9990 H   0  0  0  0  0  0  0  0  0  0  0  0
   48.6260   35.7865   42.1409 H   0  0  0  0  0  0  0  0  0  0  0  0
   48.8904   34.7365   40.7077 H   0  0  0  0  0  0  0  0  0  0  0  0
   47.5536   35.9363   40.7077 H   0  0  0  0  0  0  0  0  0  0  0  0
   48.2951   34.4745   43.7480 H   0  0  0  0  0  0  0  0  0  0  0  0
   46.6684   35.2836   43.6839 H   0  0  0  0  0  0  0  0  0  0  0  0
   47.4048   32.5459   43.8027 H   0  0  0  0  0  0  0  0  0  0  0  0
   44.4905   33.6985   43.7844 H   0  0  0  0  0  0  0  0  0  0  0  0
   44.4924   32.1858   44.1366 H   0  0  0  0  0  0  0  0  0  0  0  0
   46.1276   34.4088   46.1429 H   0  0  0  0  0  0  0  0  0  0  0  0
   45.0577   31.5455   49.5309 H   0  0  0  0  0  0  0  0  0  0  0  0
   46.8545   30.0263   48.2767 H   0  0  0  0  0  0  0  0  0  0  0  0
   48.0908   30.0666   46.1063 H   0  0  0  0  0  0  0  0  0  0  0  0
   47.8604   31.3782   44.9192 H   0  0  0  0  0  0  0  0  0  0  0  0
   46.8913   32.1617   41.9148 H   0  0  0  0  0  0  0  0  0  0  0  0
   47.9197   32.9412   40.5362 H   0  0  0  0  0  0  0  0  0  0  0  0
   48.8091   32.3470   43.2779 H   0  0  0  0  0  0  0  0  0  0  0  0
   49.8232   30.3814   42.1377 H   0  0  0  0  0  0  0  0  0  0  0  0
   48.2618   30.5704   41.2097 H   0  0  0  0  0  0  0  0  0  0  0  0
   49.5627   32.0250   39.6228 H   0  0  0  0  0  0  0  0  0  0  0  0
   49.9098   30.2694   39.5923 H   0  0  0  0  0  0  0  0  0  0  0  0
   51.9981   30.5333   40.6417 H   0  0  0  0  0  0  0  0  0  0  0  0
   51.9349   32.0454   39.7328 H   0  0  0  0  0  0  0  0  0  0  0  0
   51.2900   31.5350   42.6844 H   0  0  0  0  0  0  0  0  0  0  0  0
   52.3309   32.8002   41.9977 H   0  0  0  0  0  0  0  0  0  0  0  0
   50.3196   34.0248   42.4670 H   0  0  0  0  0  0  0  0  0  0  0  0
   50.0597   33.5898   40.7610 H   0  0  0  0  0  0  0  0  0  0  0  0
  1  8  1  6
  1  9  1  0
  2  1  1  0
  2  7  1  0
  3  2  2  0
  4  3  1  0
  4  5  2  0
  5  6  1  0
  6  7  2  0
  9 10  1  0
 10 11  1  0
 10 12  1  0
 11 12  1  0
 12 13  1  0
 13 17  1  0
 13 14  1  0
 14 15  2  0
 16 15  1  0
 17 16  2  0
 18 17  1  0
 19  1  1  0
 19 20  1  0
 21 20  1  0
 22 23  1  0
 22 21  1  0
 23 24  1  0
 25 24  1  0
 25 20  1  0
  3 26  1  0
  4 27  1  0
  6 28  1  0
  8 29  1  0
  8 30  1  0
  8 31  1  0
  9 32  1  0
  9 33  1  0
 10 34  1  1
 11 35  1  0
 11 36  1  0
 12 37  1  1
 15 38  1  0
 16 39  1  0
 18 40  1  0
 18 41  1  0
 19 42  1  0
 19 43  1  0
 20 44  1  0
 21 45  1  0
 21 46  1  0
 22 47  1  0
 22 48  1  0
 23 49  1  0
 23 50  1  0
 24 51  1  0
 24 52  1  0
 25 53  1  0
 25 54  1  0
M  ISO  8  26  14  27  14  28  14  29   8  30   8  31   8  32   8  33   8
M  ISO  8  34  13  35  13  36  13  37  13  38  14  39  14  42   8  43   8
M  ISO  8  44  13  45  13  46  13  47  13  48  13  49  13  50  13  51  13
M  ISO  3  52  13  53  13  54  13
M  END
>  <minimizedAffinity>  (1) 
-5.05498314

>  <minimizedRMSD>  (1) 
0.291667163

$$$$
