
     RDKit          3D

 39 41  0  0  1  0  0  0  0  0999 V2000
   47.2910   34.3280   43.3530 C   0  0  0  0  0  0  0  0  0  0  0  0
   46.6870   33.1870   44.1180 C   0  0  2  0  0  0  0  0  0  0  0  0
   45.2560   32.9610   44.2180 C   0  0  0  0  0  0  0  0  0  0  0  0
   46.0380   33.5500   45.4000 C   0  0  1  0  0  0  0  0  0  0  0  0
   45.9970   32.6960   46.5570 N   0  0  0  0  0  0  0  0  0  0  0  0
   45.2600   32.8540   47.6490 N   0  0  0  0  0  0  0  0  0  0  0  0
   45.5030   31.8420   48.5080 C   0  0  0  0  0  0  0  0  0  0  0  0
   46.4320   31.0400   47.8970 C   0  0  0  0  0  0  0  0  0  0  0  0
   46.7300   31.6020   46.6590 C   0  0  0  0  0  0  0  0  0  0  0  0
   47.6600   30.9600   45.8420 N   0  0  0  0  0  0  0  0  0  0  0  0
   47.2830   34.0930   41.8370 C   0  0  1  0  0  0  0  0  0  0  0  0
   45.9230   34.3900   41.3910 C   0  0  0  0  0  0  0  0  0  0  0  0
   45.4690   33.5510   40.4080 C   0  0  0  0  0  0  0  0  0  0  0  0
   44.1610   33.7370   39.8900 C   0  0  0  0  0  0  0  0  0  0  0  0
   43.4170   34.7590   40.4100 N   0  0  0  0  0  0  0  0  0  0  0  0
   43.8890   35.5580   41.3660 C   0  0  0  0  0  0  0  0  0  0  0  0
   45.1090   35.3430   41.8110 N   0  0  0  0  0  0  0  0  0  0  0  0
   48.2700   35.0740   41.2110 C   0  0  0  0  0  0  0  0  0  0  0  0
   47.7920   32.7550   41.5760 C   0  0  0  0  0  0  0  0  0  0  0  0
   49.0610   32.6440   41.0130 O   0  0  0  0  0  0  0  0  0  0  0  0
   46.7173   35.2409   43.5708 H   0  0  0  0  0  0  0  0  0  0  0  0
   48.3402   34.4224   43.6695 H   0  0  0  0  0  0  0  0  0  0  0  0
   47.4924   32.5167   43.7834 H   0  0  0  0  0  0  0  0  0  0  0  0
   44.5568   33.5921   43.6498 H   0  0  0  0  0  0  0  0  0  0  0  0
   44.5895   32.0977   44.0747 H   0  0  0  0  0  0  0  0  0  0  0  0
   46.1123   34.4576   46.0170 H   0  0  0  0  0  0  0  0  0  0  0  0
   45.0479   31.6911   49.4980 H   0  0  0  0  0  0  0  0  0  0  0  0
   46.8646   30.1173   48.3111 H   0  0  0  0  0  0  0  0  0  0  0  0
   48.1093   30.0890   46.1588 H   0  0  0  0  0  0  0  0  0  0  0  0
   47.8977   31.3568   44.9217 H   0  0  0  0  0  0  0  0  0  0  0  0
   46.1101   32.7434   40.0250 H   0  0  0  0  0  0  0  0  0  0  0  0
   43.7612   33.0838   39.1004 H   0  0  0  0  0  0  0  0  0  0  0  0
   43.2755   36.3755   41.7726 H   0  0  0  0  0  0  0  0  0  0  0  0
   48.8089   35.6097   42.0064 H   0  0  0  0  0  0  0  0  0  0  0  0
   48.9894   34.5227   40.5877 H   0  0  0  0  0  0  0  0  0  0  0  0
   47.7231   35.7968   40.5877 H   0  0  0  0  0  0  0  0  0  0  0  0
   47.8100   32.2173   42.5355 H   0  0  0  0  0  0  0  0  0  0  0  0
   47.1130   32.3425   40.8152 H   0  0  0  0  0  0  0  0  0  0  0  0
   49.7376   32.5848   41.7333 H   0  0  0  0  0  0  0  0  0  0  0  0
  1  2  1  0
  2  3  1  0
  2  4  1  0
  3  4  1  0
  4  5  1  0
  5  9  1  0
  5  6  1  0
  6  7  2  0
  8  7  1  0
  9  8  2  0
 10  9  1  0
 11 18  1  6
 11  1  1  0
 12 17  1  0
 12 11  1  0
 13 12  2  0
 14 13  1  0
 14 15  2  0
 15 16  1  0
 16 17  2  0
 19 11  1  0
 20 19  1  0
  1 21  1  0
  1 22  1  0
  2 23  1  1
  3 24  1  0
  3 25  1  0
  4 26  1  1
  7 27  1  0
  8 28  1  0
 10 29  1  0
 10 30  1  0
 13 31  1  0
 14 32  1  0
 16 33  1  0
 18 34  1  0
 18 35  1  0
 18 36  1  0
 19 37  1  0
 19 38  1  0
 20 39  1  0
M  ISO  8  21   8  22   8  23  13  24  13  25  13  26  13  27  14  28  14
M  ISO  8  31  14  32  14  33  14  34   8  35   8  36   8  37   8  38   8
M  ISO  1  39   3
M  END
>  <minimizedAffinity>  (1) 
-4.48759747

>  <minimizedRMSD>  (1) 
0.395399064

$$$$
