
     RDKit          3D

 39 41  0  0  1  0  0  0  0  0999 V2000
   45.5580   34.8990   43.0830 C   0  0  0  0  0  0  0  0  0  0  0  0
   44.9400   34.3440   44.3310 C   0  0  2  0  0  0  0  0  0  0  0  0
   44.7350   35.1310   45.5320 C   0  0  0  0  0  0  0  0  0  0  0  0
   45.8760   34.1180   45.4770 C   0  0  1  0  0  0  0  0  0  0  0  0
   45.7160   33.0590   46.4370 N   0  0  0  0  0  0  0  0  0  0  0  0
   45.1190   33.1460   47.6220 N   0  0  0  0  0  0  0  0  0  0  0  0
   45.1680   31.9450   48.2280 C   0  0  0  0  0  0  0  0  0  0  0  0
   45.8280   31.0980   47.3650 C   0  0  0  0  0  0  0  0  0  0  0  0
   46.1690   31.8280   46.2300 C   0  0  0  0  0  0  0  0  0  0  0  0
   46.8490   31.1880   45.2000 N   0  0  0  0  0  0  0  0  0  0  0  0
   45.3030   34.0250   41.8720 C   0  0  1  0  0  0  0  0  0  0  0  0
   44.0200   34.4890   41.3030 C   0  0  0  0  0  0  0  0  0  0  0  0
   43.8500   34.1670   39.9640 C   0  0  0  0  0  0  0  0  0  0  0  0
   42.6540   34.5590   39.3270 C   0  0  0  0  0  0  0  0  0  0  0  0
   41.7310   35.2300   40.0500 N   0  0  0  0  0  0  0  0  0  0  0  0
   41.9210   35.5280   41.3390 C   0  0  0  0  0  0  0  0  0  0  0  0
   43.0430   35.1540   41.9160 N   0  0  0  0  0  0  0  0  0  0  0  0
   46.4130   34.3010   40.8700 C   0  0  0  0  0  0  0  0  0  0  0  0
   45.3610   32.6260   42.2260 C   0  0  0  0  0  0  0  0  0  0  0  0
   43.9650   31.5830   42.3650 S   0  0  0  0  0  0  0  0  0  0  0  0
   45.1353   35.8967   42.8935 H   0  0  0  0  0  0  0  0  0  0  0  0
   46.6458   34.9442   43.2399 H   0  0  0  0  0  0  0  0  0  0  0  0
   44.2364   33.7459   43.7334 H   0  0  0  0  0  0  0  0  0  0  0  0
   44.9565   36.2085   45.5270 H   0  0  0  0  0  0  0  0  0  0  0  0
   43.8859   35.3075   46.2086 H   0  0  0  0  0  0  0  0  0  0  0  0
   46.9735   34.0602   45.5230 H   0  0  0  0  0  0  0  0  0  0  0  0
   44.7611   31.6901   49.2177 H   0  0  0  0  0  0  0  0  0  0  0  0
   46.0465   30.0345   47.5414 H   0  0  0  0  0  0  0  0  0  0  0  0
   47.0937   30.1912   45.2858 H   0  0  0  0  0  0  0  0  0  0  0  0
   47.1081   31.7107   44.3511 H   0  0  0  0  0  0  0  0  0  0  0  0
   44.6287   33.6195   39.4128 H   0  0  0  0  0  0  0  0  0  0  0  0
   42.4772   34.3240   38.2670 H   0  0  0  0  0  0  0  0  0  0  0  0
   41.1541   36.0754   41.9067 H   0  0  0  0  0  0  0  0  0  0  0  0
   47.3438   34.5325   41.4085 H   0  0  0  0  0  0  0  0  0  0  0  0
   46.5658   33.4135   40.2383 H   0  0  0  0  0  0  0  0  0  0  0  0
   46.1323   35.1567   40.2383 H   0  0  0  0  0  0  0  0  0  0  0  0
   46.0077   32.1560   41.4704 H   0  0  0  0  0  0  0  0  0  0  0  0
   45.6709   32.6943   43.2792 H   0  0  0  0  0  0  0  0  0  0  0  0
   43.6826   31.3720   43.6889 H   0  0  0  0  0  0  0  0  0  0  0  0
  1  2  1  0
  2  4  1  0
  2  3  1  0
  4  3  1  0
  4  5  1  0
  5  6  1  0
  6  7  2  0
  8  7  1  0
  9  5  1  0
  9  8  2  0
 10  9  1  0
 11 18  1  6
 11 19  1  0
 11  1  1  0
 12 11  1  0
 12 17  1  0
 13 12  2  0
 14 13  1  0
 14 15  2  0
 15 16  1  0
 16 17  2  0
 19 20  1  0
  1 21  1  0
  1 22  1  0
  2 23  1  6
  3 24  1  0
  3 25  1  0
  4 26  1  6
  7 27  1  0
  8 28  1  0
 10 29  1  0
 10 30  1  0
 13 31  1  0
 14 32  1  0
 16 33  1  0
 18 34  1  0
 18 35  1  0
 18 36  1  0
 19 37  1  0
 19 38  1  0
 20 39  1  0
M  ISO  8  21   8  22   8  23  13  24  13  25  13  26  13  27  14  28  14
M  ISO  8  31  14  32  14  33  14  34   8  35   8  36   8  37   8  38   8
M  ISO  1  39  11
M  END
>  <minimizedAffinity>  (1) 
-4.59372091

>  <minimizedRMSD>  (1) 
1.70512486

$$$$
