
     RDKit          3D

 40 42  0  0  1  0  0  0  0  0999 V2000
   45.9140   34.8130   43.2620 C   0  0  0  0  0  0  0  0  0  0  0  0
   45.1590   34.2120   44.4110 C   0  0  2  0  0  0  0  0  0  0  0  0
   44.8020   34.9590   45.6050 C   0  0  0  0  0  0  0  0  0  0  0  0
   45.9440   33.9570   45.6530 C   0  0  1  0  0  0  0  0  0  0  0  0
   45.6920   32.8750   46.5630 N   0  0  0  0  0  0  0  0  0  0  0  0
   45.1160   32.9460   47.7600 N   0  0  0  0  0  0  0  0  0  0  0  0
   45.0620   31.7060   48.3010 C   0  0  0  0  0  0  0  0  0  0  0  0
   45.6310   30.8690   47.3820 C   0  0  0  0  0  0  0  0  0  0  0  0
   46.0250   31.6290   46.2850 C   0  0  0  0  0  0  0  0  0  0  0  0
   46.6380   30.9780   45.2100 N   0  0  0  0  0  0  0  0  0  0  0  0
   45.7460   34.0050   41.9890 C   0  0  1  0  0  0  0  0  0  0  0  0
   44.4510   34.4160   41.4140 C   0  0  0  0  0  0  0  0  0  0  0  0
   44.2350   33.9390   40.1280 C   0  0  0  0  0  0  0  0  0  0  0  0
   43.0200   34.2720   39.4870 C   0  0  0  0  0  0  0  0  0  0  0  0
   42.1310   35.0360   40.1550 N   0  0  0  0  0  0  0  0  0  0  0  0
   42.3660   35.4820   41.3960 C   0  0  0  0  0  0  0  0  0  0  0  0
   43.5030   35.1610   41.9760 N   0  0  0  0  0  0  0  0  0  0  0  0
   46.8660   34.4050   41.0350 C   0  0  0  0  0  0  0  0  0  0  0  0
   45.9020   32.5920   42.2510 C   0  0  0  0  0  0  0  0  0  0  0  0
   44.8830   31.7130   42.5600 N   0  0  0  0  0  0  0  0  0  0  0  0
   45.5420   35.8333   43.0871 H   0  0  0  0  0  0  0  0  0  0  0  0
   46.9826   34.8193   43.5228 H   0  0  0  0  0  0  0  0  0  0  0  0
   44.5427   33.6273   43.7122 H   0  0  0  0  0  0  0  0  0  0  0  0
   45.0138   36.0369   45.6627 H   0  0  0  0  0  0  0  0  0  0  0  0
   43.8760   35.1096   46.1793 H   0  0  0  0  0  0  0  0  0  0  0  0
   47.0289   33.8997   45.8253 H   0  0  0  0  0  0  0  0  0  0  0  0
   44.6452   31.4286   49.2804 H   0  0  0  0  0  0  0  0  0  0  0  0
   45.7559   29.7816   47.4910 H   0  0  0  0  0  0  0  0  0  0  0  0
   46.7877   29.9594   45.2423 H   0  0  0  0  0  0  0  0  0  0  0  0
   46.9399   31.5170   44.3858 H   0  0  0  0  0  0  0  0  0  0  0  0
   44.9892   33.3186   39.6216 H   0  0  0  0  0  0  0  0  0  0  0  0
   42.8046   33.9169   38.4684 H   0  0  0  0  0  0  0  0  0  0  0  0
   41.6244   36.1034   41.9193 H   0  0  0  0  0  0  0  0  0  0  0  0
   47.7465   34.7195   41.6145 H   0  0  0  0  0  0  0  0  0  0  0  0
   47.1319   33.5462   40.4011 H   0  0  0  0  0  0  0  0  0  0  0  0
   46.5277   35.2379   40.4011 H   0  0  0  0  0  0  0  0  0  0  0  0
   46.3761   32.1803   41.3478 H   0  0  0  0  0  0  0  0  0  0  0  0
   46.4190   32.6336   43.2211 H   0  0  0  0  0  0  0  0  0  0  0  0
   44.7942   31.6364   43.5833 H   0  0  0  0  0  0  0  0  0  0  0  0
   43.9980   32.0603   42.1636 H   0  0  0  0  0  0  0  0  0  0  0  0
  1  2  1  0
  2  3  1  0
  2  4  1  0
  3  4  1  0
  4  5  1  0
  5  6  1  0
  6  7  2  0
  8  7  1  0
  9  5  1  0
  9  8  2  0
 10  9  1  0
 11 18  1  6
 11 19  1  0
 11  1  1  0
 12 17  1  0
 12 11  1  0
 13 12  2  0
 14 13  1  0
 14 15  2  0
 15 16  1  0
 16 17  2  0
 19 20  1  0
  1 21  1  0
  1 22  1  0
  2 23  1  6
  3 24  1  0
  3 25  1  0
  4 26  1  6
  7 27  1  0
  8 28  1  0
 10 29  1  0
 10 30  1  0
 13 31  1  0
 14 32  1  0
 16 33  1  0
 18 34  1  0
 18 35  1  0
 18 36  1  0
 19 37  1  0
 19 38  1  0
 20 39  1  0
 20 40  1  0
M  ISO  8  21   8  22   8  23  13  24  13  25  13  26  13  27  14  28  14
M  ISO  8  31  14  32  14  33  14  34   8  35   8  36   8  37   8  38   8
M  ISO  2  39   5  40   5
M  END
>  <minimizedAffinity>  (1) 
-4.61336374

>  <minimizedRMSD>  (1) 
1.39237726

$$$$
