
     RDKit          3D

 48 51  0  0  1  0  0  0  0  0999 V2000
   43.6760   34.1410   41.0500 C   0  0  1  0  0  0  0  0  0  0  0  0
   42.4820   34.8800   40.6190 C   0  0  0  0  0  0  0  0  0  0  0  0
   42.2780   34.8610   39.2410 C   0  0  0  0  0  0  0  0  0  0  0  0
   41.1530   35.5450   38.7260 C   0  0  0  0  0  0  0  0  0  0  0  0
   40.3380   36.1780   39.5860 N   0  0  0  0  0  0  0  0  0  0  0  0
   40.5540   36.1830   40.9040 C   0  0  0  0  0  0  0  0  0  0  0  0
   41.6100   35.5380   41.3650 N   0  0  0  0  0  0  0  0  0  0  0  0
   44.4820   33.7290   39.8280 C   0  0  0  0  0  0  0  0  0  0  0  0
   44.5330   35.1160   41.8170 C   0  0  0  0  0  0  0  0  0  0  0  0
   44.3310   34.9910   43.2970 C   0  0  2  0  0  0  0  0  0  0  0  0
   44.7280   36.0300   44.2330 C   0  0  0  0  0  0  0  0  0  0  0  0
   45.5590   34.7660   44.1080 C   0  0  1  0  0  0  0  0  0  0  0  0
   45.5980   34.0170   45.3280 N   0  0  0  0  0  0  0  0  0  0  0  0
   44.8960   34.2280   46.4440 N   0  0  0  0  0  0  0  0  0  0  0  0
   45.2400   33.2850   47.3630 C   0  0  0  0  0  0  0  0  0  0  0  0
   46.1850   32.4910   46.7530 C   0  0  0  0  0  0  0  0  0  0  0  0
   46.4030   32.9670   45.4620 C   0  0  0  0  0  0  0  0  0  0  0  0
   47.3260   32.3180   44.6630 N   0  0  0  0  0  0  0  0  0  0  0  0
   43.4130   32.9360   41.8340 C   0  0  0  0  0  0  0  0  0  0  0  0
   42.1700   32.4060   42.0960 N   0  0  0  0  0  0  0  0  0  0  0  0
   40.9180   32.1450   41.4790 C   0  0  0  0  0  0  0  0  0  0  0  0
   41.0650   31.3310   40.3570 C   0  0  0  0  0  0  0  0  0  0  0  0
   39.9460   30.9310   39.6010 C   0  0  0  0  0  0  0  0  0  0  0  0
   38.7330   31.3450   39.9790 N   0  0  0  0  0  0  0  0  0  0  0  0
   38.5900   32.1260   41.0550 C   0  0  0  0  0  0  0  0  0  0  0  0
   39.6480   32.5330   41.8080 N   0  0  0  0  0  0  0  0  0  0  0  0
   42.9719   34.3294   38.5733 H   0  0  0  0  0  0  0  0  0  0  0  0
   40.9496   35.5586   37.6451 H   0  0  0  0  0  0  0  0  0  0  0  0
   39.8711   36.7099   41.5866 H   0  0  0  0  0  0  0  0  0  0  0  0
   45.4184   33.2504   40.1507 H   0  0  0  0  0  0  0  0  0  0  0  0
   43.8965   33.0196   39.2247 H   0  0  0  0  0  0  0  0  0  0  0  0
   44.7141   34.6190   39.2247 H   0  0  0  0  0  0  0  0  0  0  0  0
   45.5901   34.9203   41.5843 H   0  0  0  0  0  0  0  0  0  0  0  0
   44.2438   36.1342   41.5175 H   0  0  0  0  0  0  0  0  0  0  0  0
   43.3670   34.4851   43.1396 H   0  0  0  0  0  0  0  0  0  0  0  0
   45.1220   36.9862   43.8583 H   0  0  0  0  0  0  0  0  0  0  0  0
   44.2358   36.5577   45.0632 H   0  0  0  0  0  0  0  0  0  0  0  0
   46.5626   34.4221   43.8174 H   0  0  0  0  0  0  0  0  0  0  0  0
   44.8442   33.1789   48.3838 H   0  0  0  0  0  0  0  0  0  0  0  0
   46.6852   31.6241   47.2095 H   0  0  0  0  0  0  0  0  0  0  0  0
   47.8322   31.4967   45.0237 H   0  0  0  0  0  0  0  0  0  0  0  0
   47.5074   32.6558   43.7070 H   0  0  0  0  0  0  0  0  0  0  0  0
   43.9701   32.1334   41.3285 H   0  0  0  0  0  0  0  0  0  0  0  0
   43.6828   33.2973   42.8373 H   0  0  0  0  0  0  0  0  0  0  0  0
   42.1365   32.0904   43.0759 H   0  0  0  0  0  0  0  0  0  0  0  0
   42.0692   30.9963   40.0578 H   0  0  0  0  0  0  0  0  0  0  0  0
   40.0683   30.2896   38.7157 H   0  0  0  0  0  0  0  0  0  0  0  0
   37.5793   32.4517   41.3422 H   0  0  0  0  0  0  0  0  0  0  0  0
  1  8  1  6
  1  9  1  0
  1 19  1  0
  2  1  1  0
  2  7  1  0
  3  2  2  0
  4  3  1  0
  4  5  2  0
  5  6  1  0
  6  7  2  0
  9 10  1  0
 10 12  1  0
 10 11  1  0
 12 11  1  0
 12 13  1  0
 13 17  1  0
 13 14  1  0
 14 15  2  0
 16 15  1  0
 17 16  2  0
 18 17  1  0
 19 20  1  0
 21 26  1  0
 21 20  1  0
 22 21  2  0
 23 24  2  0
 23 22  1  0
 24 25  1  0
 25 26  2  0
  3 27  1  0
  4 28  1  0
  6 29  1  0
  8 30  1  0
  8 31  1  0
  8 32  1  0
  9 33  1  0
  9 34  1  0
 10 35  1  6
 11 36  1  0
 11 37  1  0
 12 38  1  6
 15 39  1  0
 16 40  1  0
 18 41  1  0
 18 42  1  0
 19 43  1  0
 19 44  1  0
 20 45  1  0
 22 46  1  0
 23 47  1  0
 25 48  1  0
M  ISO  8  27  14  28  14  29  14  30   8  31   8  32   8  33   8  34   8
M  ISO  8  35  13  36  13  37  13  38  13  39  14  40  14  43   8  44   8
M  ISO  3  46  14  47  14  48  14
M  END
>  <minimizedAffinity>  (1) 
-5.54570723

>  <minimizedRMSD>  (1) 
2.33828259

$$$$
