
     RDKit          3D

 49 52  0  0  1  0  0  0  0  0999 V2000
   43.5420   34.1290   40.9600 C   0  0  1  0  0  0  0  0  0  0  0  0
   42.3650   34.8930   40.5350 C   0  0  0  0  0  0  0  0  0  0  0  0
   42.1580   34.8750   39.1550 C   0  0  0  0  0  0  0  0  0  0  0  0
   41.0530   35.5880   38.6490 C   0  0  0  0  0  0  0  0  0  0  0  0
   40.2590   36.2450   39.5180 N   0  0  0  0  0  0  0  0  0  0  0  0
   40.4760   36.2500   40.8390 C   0  0  0  0  0  0  0  0  0  0  0  0
   41.5190   35.5750   41.2960 N   0  0  0  0  0  0  0  0  0  0  0  0
   44.3220   33.6700   39.7260 C   0  0  0  0  0  0  0  0  0  0  0  0
   44.4390   35.0980   41.6980 C   0  0  0  0  0  0  0  0  0  0  0  0
   44.4230   34.8570   43.1800 C   0  0  2  0  0  0  0  0  0  0  0  0
   44.8920   35.8550   44.1230 C   0  0  0  0  0  0  0  0  0  0  0  0
   45.7520   34.6490   43.8180 C   0  0  1  0  0  0  0  0  0  0  0  0
   45.9710   33.8020   44.9650 N   0  0  0  0  0  0  0  0  0  0  0  0
   45.3740   33.8900   46.1510 N   0  0  0  0  0  0  0  0  0  0  0  0
   45.8500   32.9020   46.9580 C   0  0  0  0  0  0  0  0  0  0  0  0
   46.7560   32.2240   46.1970 C   0  0  0  0  0  0  0  0  0  0  0  0
   46.8180   32.8100   44.9370 C   0  0  0  0  0  0  0  0  0  0  0  0
   47.6850   32.2720   44.0040 N   0  0  0  0  0  0  0  0  0  0  0  0
   43.2700   32.9400   41.7600 C   0  0  0  0  0  0  0  0  0  0  0  0
   42.0090   32.4140   41.9860 N   0  0  0  0  0  0  0  0  0  0  0  0
   40.9120   31.9830   41.1880 C   0  0  0  0  0  0  0  0  0  0  0  0
   39.6730   32.5230   41.4560 C   0  0  0  0  0  0  0  0  0  0  0  0
   38.4510   32.3070   40.8550 C   0  0  0  0  0  0  0  0  0  0  0  0
   38.5130   31.3840   39.8060 C   0  0  0  0  0  0  0  0  0  0  0  0
   39.7320   30.8040   39.4860 C   0  0  0  0  0  0  0  0  0  0  0  0
   40.8890   31.0890   40.1490 N   0  0  0  0  0  0  0  0  0  0  0  0
   42.8341   34.3232   38.4854 H   0  0  0  0  0  0  0  0  0  0  0  0
   40.8430   35.6081   37.5694 H   0  0  0  0  0  0  0  0  0  0  0  0
   39.8096   36.7970   41.5222 H   0  0  0  0  0  0  0  0  0  0  0  0
   45.2296   33.1359   40.0437 H   0  0  0  0  0  0  0  0  0  0  0  0
   43.6930   32.9980   39.1237 H   0  0  0  0  0  0  0  0  0  0  0  0
   44.6040   34.5462   39.1237 H   0  0  0  0  0  0  0  0  0  0  0  0
   45.4688   34.9807   41.3296 H   0  0  0  0  0  0  0  0  0  0  0  0
   44.0660   36.1163   41.5138 H   0  0  0  0  0  0  0  0  0  0  0  0
   43.4725   34.3079   43.1091 H   0  0  0  0  0  0  0  0  0  0  0  0
   45.1944   36.8500   43.7646 H   0  0  0  0  0  0  0  0  0  0  0  0
   44.4867   36.3073   45.0401 H   0  0  0  0  0  0  0  0  0  0  0  0
   46.7321   34.3870   43.3927 H   0  0  0  0  0  0  0  0  0  0  0  0
   45.5649   32.6951   48.0001 H   0  0  0  0  0  0  0  0  0  0  0  0
   47.3431   31.3540   46.5264 H   0  0  0  0  0  0  0  0  0  0  0  0
   48.2631   31.4555   44.2489 H   0  0  0  0  0  0  0  0  0  0  0  0
   47.7527   32.6877   43.0641 H   0  0  0  0  0  0  0  0  0  0  0  0
   43.8475   32.1301   41.2903 H   0  0  0  0  0  0  0  0  0  0  0  0
   43.5164   33.3124   42.7653 H   0  0  0  0  0  0  0  0  0  0  0  0
   41.8147   32.3070   42.9918 H   0  0  0  0  0  0  0  0  0  0  0  0
   39.6560   33.2450   42.2857 H   0  0  0  0  0  0  0  0  0  0  0  0
   37.5235   32.8086   41.1681 H   0  0  0  0  0  0  0  0  0  0  0  0
   37.6062   31.1211   39.2415 H   0  0  0  0  0  0  0  0  0  0  0  0
   39.7668   30.0801   38.6585 H   0  0  0  0  0  0  0  0  0  0  0  0
  1  8  1  6
  1  9  1  0
  1 19  1  0
  2  1  1  0
  2  7  1  0
  3  2  2  0
  4  3  1  0
  4  5  2  0
  5  6  1  0
  6  7  2  0
  9 10  1  0
 10 12  1  0
 10 11  1  0
 12 11  1  0
 12 13  1  0
 13 14  1  0
 14 15  2  0
 16 15  1  0
 17 13  1  0
 17 16  2  0
 18 17  1  0
 19 20  1  0
 21 22  2  0
 21 20  1  0
 23 22  1  0
 24 23  2  0
 25 24  1  0
 25 26  2  0
 26 21  1  0
  3 27  1  0
  4 28  1  0
  6 29  1  0
  8 30  1  0
  8 31  1  0
  8 32  1  0
  9 33  1  0
  9 34  1  0
 10 35  1  1
 11 36  1  0
 11 37  1  0
 12 38  1  6
 15 39  1  0
 16 40  1  0
 18 41  1  0
 18 42  1  0
 19 43  1  0
 19 44  1  0
 20 45  1  0
 22 46  1  0
 23 47  1  0
 24 48  1  0
 25 49  1  0
M  ISO  8  27  14  28  14  29  14  30   8  31   8  32   8  33   8  34   8
M  ISO  8  35  13  36  13  37  13  38  13  39  14  40  14  43   8  44   8
M  ISO  4  46  14  47  14  48  14  49  14
M  END
>  <minimizedAffinity>  (1) 
-5.64954233

>  <minimizedRMSD>  (1) 
2.45945311

$$$$
