
     RDKit          3D

 50 53  0  0  1  0  0  0  0  0999 V2000
   43.5080   33.9170   40.7430 C   0  0  1  0  0  0  0  0  0  0  0  0
   42.3570   34.7810   40.4500 C   0  0  0  0  0  0  0  0  0  0  0  0
   41.9820   34.8110   39.1220 C   0  0  0  0  0  0  0  0  0  0  0  0
   40.8850   35.6150   38.7440 C   0  0  0  0  0  0  0  0  0  0  0  0
   40.2540   36.3170   39.7030 N   0  0  0  0  0  0  0  0  0  0  0  0
   40.6380   36.2710   40.9860 C   0  0  0  0  0  0  0  0  0  0  0  0
   41.6630   35.5150   41.3110 N   0  0  0  0  0  0  0  0  0  0  0  0
   44.1020   33.4240   39.4170 C   0  0  0  0  0  0  0  0  0  0  0  0
   44.5670   34.7720   41.3830 C   0  0  0  0  0  0  0  0  0  0  0  0
   44.5340   34.6680   42.8790 C   0  0  2  0  0  0  0  0  0  0  0  0
   45.0500   35.7410   43.7230 C   0  0  0  0  0  0  0  0  0  0  0  0
   45.8400   34.4700   43.5510 C   0  0  1  0  0  0  0  0  0  0  0  0
   46.0200   33.7430   44.7670 N   0  0  0  0  0  0  0  0  0  0  0  0
   45.4070   33.9280   45.9410 N   0  0  0  0  0  0  0  0  0  0  0  0
   45.8580   33.0340   46.8340 C   0  0  0  0  0  0  0  0  0  0  0  0
   46.7770   32.2870   46.1750 C   0  0  0  0  0  0  0  0  0  0  0  0
   46.8830   32.7380   44.8500 C   0  0  0  0  0  0  0  0  0  0  0  0
   47.7790   32.1230   43.9790 N   0  0  0  0  0  0  0  0  0  0  0  0
   43.2150   32.7300   41.5450 C   0  0  0  0  0  0  0  0  0  0  0  0
   41.9950   32.4850   42.1490 N   0  0  0  0  0  0  0  0  0  0  0  0
   40.9050   32.0780   41.2920 C   0  0  0  0  0  0  0  0  0  0  0  0
   39.6320   32.5930   41.5720 C   0  0  0  0  0  0  0  0  0  0  0  0
   38.4980   32.2730   40.8220 C   0  0  0  0  0  0  0  0  0  0  0  0
   38.6170   31.4120   39.7520 C   0  0  0  0  0  0  0  0  0  0  0  0
   39.8540   30.8870   39.4480 C   0  0  0  0  0  0  0  0  0  0  0  0
   40.9460   31.2260   40.2100 C   0  0  0  0  0  0  0  0  0  0  0  0
   42.5278   34.2194   38.3722 H   0  0  0  0  0  0  0  0  0  0  0  0
   40.5555   35.6662   37.6958 H   0  0  0  0  0  0  0  0  0  0  0  0
   40.1060   36.8543   41.7520 H   0  0  0  0  0  0  0  0  0  0  0  0
   44.9336   32.7338   39.6219 H   0  0  0  0  0  0  0  0  0  0  0  0
   43.3255   32.9013   38.8392 H   0  0  0  0  0  0  0  0  0  0  0  0
   44.4727   34.2835   38.8392 H   0  0  0  0  0  0  0  0  0  0  0  0
   45.5542   34.4449   41.0245 H   0  0  0  0  0  0  0  0  0  0  0  0
   44.3751   35.8195   41.1075 H   0  0  0  0  0  0  0  0  0  0  0  0
   43.5639   34.1501   42.8525 H   0  0  0  0  0  0  0  0  0  0  0  0
   45.4066   36.6764   43.2671 H   0  0  0  0  0  0  0  0  0  0  0  0
   44.6650   36.3075   44.5837 H   0  0  0  0  0  0  0  0  0  0  0  0
   46.8069   34.1161   43.1640 H   0  0  0  0  0  0  0  0  0  0  0  0
   45.5464   32.9290   47.8837 H   0  0  0  0  0  0  0  0  0  0  0  0
   47.3509   31.4560   46.6110 H   0  0  0  0  0  0  0  0  0  0  0  0
   48.3537   31.3327   44.3047 H   0  0  0  0  0  0  0  0  0  0  0  0
   47.8670   32.4585   43.0091 H   0  0  0  0  0  0  0  0  0  0  0  0
   43.3975   31.8707   40.8830 H   0  0  0  0  0  0  0  0  0  0  0  0
   43.8505   32.9105   42.4245 H   0  0  0  0  0  0  0  0  0  0  0  0
   41.8689   32.5882   43.1660 H   0  0  0  0  0  0  0  0  0  0  0  0
   39.5207   33.2817   42.4225 H   0  0  0  0  0  0  0  0  0  0  0  0
   37.5199   32.7036   41.0825 H   0  0  0  0  0  0  0  0  0  0  0  0
   37.7359   31.1476   39.1488 H   0  0  0  0  0  0  0  0  0  0  0  0
   39.9671   30.1984   38.5977 H   0  0  0  0  0  0  0  0  0  0  0  0
   41.9177   30.7880   39.9380 H   0  0  0  0  0  0  0  0  0  0  0  0
  1  8  1  6
  1  9  1  0
  1 19  1  0
  2  1  1  0
  2  7  1  0
  3  2  2  0
  4  3  1  0
  4  5  2  0
  5  6  1  0
  6  7  2  0
  9 10  1  0
 10 12  1  0
 10 11  1  0
 12 11  1  0
 12 13  1  0
 13 17  1  0
 13 14  1  0
 14 15  2  0
 16 15  1  0
 17 16  2  0
 18 17  1  0
 19 20  1  0
 21 22  2  0
 21 20  1  0
 23 22  1  0
 24 23  2  0
 25 24  1  0
 25 26  2  0
 26 21  1  0
  3 27  1  0
  4 28  1  0
  6 29  1  0
  8 30  1  0
  8 31  1  0
  8 32  1  0
  9 33  1  0
  9 34  1  0
 10 35  1  1
 11 36  1  0
 11 37  1  0
 12 38  1  6
 15 39  1  0
 16 40  1  0
 18 41  1  0
 18 42  1  0
 19 43  1  0
 19 44  1  0
 20 45  1  0
 22 46  1  0
 23 47  1  0
 24 48  1  0
 25 49  1  0
 26 50  1  0
M  ISO  8  27  14  28  14  29  14  30   8  31   8  32   8  33   8  34   8
M  ISO  8  35  13  36  13  37  13  38  13  39  14  40  14  43   8  44   8
M  ISO  5  46  14  47  14  48  14  49  14  50  14
M  END
>  <minimizedAffinity>  (1) 
-5.58462381

>  <minimizedRMSD>  (1) 
3.83979344

$$$$
