
     RDKit          3D

 44 47  0  0  1  0  0  0  0  0999 V2000
   44.6590   35.7130   44.8960 C   0  0  0  0  0  0  0  0  0  0  0  0
   45.1860   35.5770   43.5810 C   0  0  0  0  0  0  0  0  0  0  0  0
   45.9120   34.4370   43.3090 C   0  0  0  0  0  0  0  0  0  0  0  0
   46.0890   33.5080   44.2980 N   0  0  0  0  0  0  0  0  0  0  0  0
   45.5740   33.6800   45.5190 C   0  0  0  0  0  0  0  0  0  0  0  0
   44.8620   34.7730   45.8230 N   0  0  0  0  0  0  0  0  0  0  0  0
   45.7800   32.6670   46.5490 N   0  0  0  0  0  0  0  0  0  0  0  0
   45.2160   32.8410   47.8780 C   0  0  0  0  0  0  0  0  0  0  0  0
   46.0960   32.2950   48.9500 C   0  0  0  0  0  0  0  0  0  0  0  0
   47.4750   32.0630   48.4200 C   0  0  0  0  0  0  0  0  0  0  0  0
   47.3630   30.9730   47.3620 C   0  0  0  0  0  0  0  0  0  0  0  0
   46.5560   31.4830   46.2230 C   0  0  1  0  0  0  0  0  0  0  0  0
   45.7070   30.4250   45.5920 C   0  0  0  0  0  0  0  0  0  0  0  0
   45.6270   30.1160   44.2850 N   0  0  0  0  0  0  0  0  0  0  0  0
   44.7890   29.1300   44.0960 O   0  0  0  0  0  0  0  0  0  0  0  0
   44.3210   28.7930   45.2770 C   0  0  0  0  0  0  0  0  0  0  0  0
   44.8660   29.5720   46.2290 N   0  0  0  0  0  0  0  0  0  0  0  0
   43.4120   27.7230   45.0920 N   0  0  0  0  0  0  0  0  0  0  0  0
   43.5370   26.3240   45.4520 C   0  0  0  0  0  0  0  0  0  0  0  0
   42.4060   25.5270   44.8520 C   0  0  0  0  0  0  0  0  0  0  0  0
   41.1380   26.0080   45.3910 N   0  0  0  0  0  0  0  0  0  0  0  0
   41.0990   27.4470   45.4590 C   0  0  0  0  0  0  0  0  0  0  0  0
   42.1150   28.0370   44.4660 C   0  0  0  0  0  0  0  0  0  0  0  0
   44.0740   36.6082   45.1536 H   0  0  0  0  0  0  0  0  0  0  0  0
   45.0211   36.3485   42.8144 H   0  0  0  0  0  0  0  0  0  0  0  0
   46.3434   34.2763   42.3100 H   0  0  0  0  0  0  0  0  0  0  0  0
   45.0655   33.9155   48.0590 H   0  0  0  0  0  0  0  0  0  0  0  0
   44.2663   32.2870   47.9121 H   0  0  0  0  0  0  0  0  0  0  0  0
   46.1429   33.0130   49.7820 H   0  0  0  0  0  0  0  0  0  0  0  0
   45.6815   31.3385   49.3012 H   0  0  0  0  0  0  0  0  0  0  0  0
   47.8686   32.9870   47.9714 H   0  0  0  0  0  0  0  0  0  0  0  0
   48.1615   31.7621   49.2251 H   0  0  0  0  0  0  0  0  0  0  0  0
   48.3676   30.6984   47.0080 H   0  0  0  0  0  0  0  0  0  0  0  0
   46.8764   30.0859   47.7935 H   0  0  0  0  0  0  0  0  0  0  0  0
   47.2951   31.7943   45.4701 H   0  0  0  0  0  0  0  0  0  0  0  0
   44.4946   25.9362   45.0745 H   0  0  0  0  0  0  0  0  0  0  0  0
   43.4989   26.2312   46.5474 H   0  0  0  0  0  0  0  0  0  0  0  0
   42.5322   24.4635   45.1031 H   0  0  0  0  0  0  0  0  0  0  0  0
   42.4106   25.6464   43.7585 H   0  0  0  0  0  0  0  0  0  0  0  0
   40.3722   25.6817   44.7844 H   0  0  0  0  0  0  0  0  0  0  0  0
   40.0889   27.7986   45.2019 H   0  0  0  0  0  0  0  0  0  0  0  0
   41.3530   27.7721   46.4787 H   0  0  0  0  0  0  0  0  0  0  0  0
   41.9796   29.1236   44.3608 H   0  0  0  0  0  0  0  0  0  0  0  0
   42.0144   27.6289   43.4495 H   0  0  0  0  0  0  0  0  0  0  0  0
  1  6  2  0
  2  1  1  0
  3  2  2  0
  3  4  1  0
  4  5  2  0
  5  6  1  0
  5  7  1  0
  7  8  1  0
  8  9  1  0
 10  9  1  0
 11 10  1  0
 12  7  1  0
 12 11  1  0
 13 12  1  0
 13 17  1  0
 14 13  2  0
 15 14  1  0
 15 16  1  0
 16 17  2  0
 18 16  1  0
 18 19  1  0
 20 21  1  0
 20 19  1  0
 21 22  1  0
 23 18  1  0
 23 22  1  0
  1 24  1  0
  2 25  1  0
  3 26  1  0
  8 27  1  0
  8 28  1  0
  9 29  1  0
  9 30  1  0
 10 31  1  0
 10 32  1  0
 11 33  1  0
 11 34  1  0
 12 35  1  6
 19 36  1  0
 19 37  1  0
 20 38  1  0
 20 39  1  0
 21 40  1  0
 22 41  1  0
 22 42  1  0
 23 43  1  0
 23 44  1  0
M  ISO  8  24  14  25  14  26  14  27  13  28  13  29  13  30  13  31  13
M  ISO  8  32  13  33  13  34  13  35  13  36  13  37  13  38  13  39  13
M  ISO  5  40   5  41  13  42  13  43  13  44  13
M  END
>  <minimizedAffinity>  (1) 
-5.70603657

>  <minimizedRMSD>  (1) 
0.435418338

$$$$
