
     RDKit          3D

 44 46  0  0  1  0  0  0  0  0999 V2000
   43.6910   34.2100   41.1360 C   0  0  1  0  0  0  0  0  0  0  0  0
   42.4880   34.8790   40.6110 C   0  0  0  0  0  0  0  0  0  0  0  0
   42.4030   34.9220   39.2270 C   0  0  0  0  0  0  0  0  0  0  0  0
   41.2920   35.5410   38.6300 C   0  0  0  0  0  0  0  0  0  0  0  0
   40.3520   36.0690   39.4360 N   0  0  0  0  0  0  0  0  0  0  0  0
   40.4490   36.0200   40.7680 C   0  0  0  0  0  0  0  0  0  0  0  0
   41.4970   35.4350   41.3060 N   0  0  0  0  0  0  0  0  0  0  0  0
   44.5630   33.7930   39.9540 C   0  0  0  0  0  0  0  0  0  0  0  0
   44.4710   35.2380   41.9000 C   0  0  0  0  0  0  0  0  0  0  0  0
   44.2840   35.0880   43.3810 C   0  0  2  0  0  0  0  0  0  0  0  0
   44.6930   36.1420   44.3060 C   0  0  0  0  0  0  0  0  0  0  0  0
   45.5200   34.8890   44.1750 C   0  0  1  0  0  0  0  0  0  0  0  0
   45.5790   34.1260   45.3870 N   0  0  0  0  0  0  0  0  0  0  0  0
   44.8200   34.2480   46.4790 N   0  0  0  0  0  0  0  0  0  0  0  0
   45.1890   33.3460   47.4010 C   0  0  0  0  0  0  0  0  0  0  0  0
   46.2090   32.6590   46.8380 C   0  0  0  0  0  0  0  0  0  0  0  0
   46.4590   33.1550   45.5510 C   0  0  0  0  0  0  0  0  0  0  0  0
   47.4840   32.6020   44.7830 N   0  0  0  0  0  0  0  0  0  0  0  0
   43.4270   33.0100   41.9290 C   0  0  0  0  0  0  0  0  0  0  0  0
   42.1880   32.4160   42.0510 N   0  0  0  0  0  0  0  0  0  0  0  0
   42.1820   31.0170   42.3030 C   0  0  0  0  0  0  0  0  0  0  0  0
   41.6670   30.2450   43.3720 N   0  0  0  0  0  0  0  0  0  0  0  0
   42.6670   30.0790   41.5790 O   0  0  0  0  0  0  0  0  0  0  0  0
   43.1945   34.4776   38.6056 H   0  0  0  0  0  0  0  0  0  0  0  0
   41.1932   35.5927   37.5357 H   0  0  0  0  0  0  0  0  0  0  0  0
   39.6665   36.4610   41.4030 H   0  0  0  0  0  0  0  0  0  0  0  0
   45.4967   33.3465   40.3267 H   0  0  0  0  0  0  0  0  0  0  0  0
   44.0228   33.0558   39.3419 H   0  0  0  0  0  0  0  0  0  0  0  0
   44.7977   34.6763   39.3419 H   0  0  0  0  0  0  0  0  0  0  0  0
   45.5390   35.1246   41.6622 H   0  0  0  0  0  0  0  0  0  0  0  0
   44.1057   36.2334   41.6071 H   0  0  0  0  0  0  0  0  0  0  0  0
   43.3300   34.5585   43.2410 H   0  0  0  0  0  0  0  0  0  0  0  0
   45.0759   37.0971   43.9173 H   0  0  0  0  0  0  0  0  0  0  0  0
   44.2134   36.6743   45.1406 H   0  0  0  0  0  0  0  0  0  0  0  0
   46.5275   34.5635   43.8769 H   0  0  0  0  0  0  0  0  0  0  0  0
   44.7550   33.1971   48.4007 H   0  0  0  0  0  0  0  0  0  0  0  0
   46.7590   31.8358   47.3174 H   0  0  0  0  0  0  0  0  0  0  0  0
   48.0439   31.8222   45.1562 H   0  0  0  0  0  0  0  0  0  0  0  0
   47.6809   32.9735   43.8427 H   0  0  0  0  0  0  0  0  0  0  0  0
   44.0897   32.2328   41.5207 H   0  0  0  0  0  0  0  0  0  0  0  0
   43.5692   33.4008   42.9474 H   0  0  0  0  0  0  0  0  0  0  0  0
   41.3154   32.9563   41.9643 H   0  0  0  0  0  0  0  0  0  0  0  0
   41.7691   29.2201   43.3630 H   0  0  0  0  0  0  0  0  0  0  0  0
   41.1902   30.7082   44.1588 H   0  0  0  0  0  0  0  0  0  0  0  0
  1  8  1  6
  1  9  1  0
  1 19  1  0
  2  1  1  0
  2  7  1  0
  3  2  2  0
  4  3  1  0
  4  5  2  0
  5  6  1  0
  6  7  2  0
  9 10  1  0
 10 12  1  0
 10 11  1  0
 12 11  1  0
 12 13  1  0
 13 17  1  0
 13 14  1  0
 14 15  2  0
 16 15  1  0
 17 16  2  0
 18 17  1  0
 19 20  1  0
 20 21  1  0
 21 22  1  0
 23 21  2  0
  3 24  1  0
  4 25  1  0
  6 26  1  0
  8 27  1  0
  8 28  1  0
  8 29  1  0
  9 30  1  0
  9 31  1  0
 10 32  1  6
 11 33  1  0
 11 34  1  0
 12 35  1  6
 15 36  1  0
 16 37  1  0
 18 38  1  0
 18 39  1  0
 19 40  1  0
 19 41  1  0
 20 42  1  0
 22 43  1  0
 22 44  1  0
M  ISO  8  24  14  25  14  26  14  27   8  28   8  29   8  30   8  31   8
M  ISO  8  32  13  33  13  34  13  35  13  36  14  37  14  40   8  41   8
M  END
>  <minimizedAffinity>  (1) 
-5.21824217

>  <minimizedRMSD>  (1) 
2.2790575

$$$$
