
     RDKit          3D

 42 44  0  0  1  0  0  0  0  0999 V2000
   43.7040   34.1800   41.0970 C   0  0  1  0  0  0  0  0  0  0  0  0
   42.4940   34.8700   40.6000 C   0  0  0  0  0  0  0  0  0  0  0  0
   42.3900   34.9210   39.2190 C   0  0  0  0  0  0  0  0  0  0  0  0
   41.2740   35.5550   38.6450 C   0  0  0  0  0  0  0  0  0  0  0  0
   40.3540   36.0870   39.4700 N   0  0  0  0  0  0  0  0  0  0  0  0
   40.4750   36.0260   40.8010 C   0  0  0  0  0  0  0  0  0  0  0  0
   41.5260   35.4290   41.3150 N   0  0  0  0  0  0  0  0  0  0  0  0
   44.5640   33.7830   39.9000 C   0  0  0  0  0  0  0  0  0  0  0  0
   44.4920   35.1930   41.8740 C   0  0  0  0  0  0  0  0  0  0  0  0
   44.3000   35.0320   43.3530 C   0  0  2  0  0  0  0  0  0  0  0  0
   44.7110   36.0800   44.2840 C   0  0  0  0  0  0  0  0  0  0  0  0
   45.5310   34.8220   44.1510 C   0  0  1  0  0  0  0  0  0  0  0  0
   45.5760   34.0490   45.3570 N   0  0  0  0  0  0  0  0  0  0  0  0
   44.8820   34.2340   46.4860 N   0  0  0  0  0  0  0  0  0  0  0  0
   45.2080   33.2970   47.3870 C   0  0  0  0  0  0  0  0  0  0  0  0
   46.1330   32.5200   46.7750 C   0  0  0  0  0  0  0  0  0  0  0  0
   46.3680   33.0000   45.4790 C   0  0  0  0  0  0  0  0  0  0  0  0
   47.2990   32.3590   44.6630 N   0  0  0  0  0  0  0  0  0  0  0  0
   43.4420   32.9650   41.8680 C   0  0  0  0  0  0  0  0  0  0  0  0
   42.1910   32.4160   42.0560 N   0  0  0  0  0  0  0  0  0  0  0  0
   42.1510   31.0270   42.3550 C   0  0  0  0  0  0  0  0  0  0  0  0
   41.1750   30.3430   42.8260 O   0  0  0  0  0  0  0  0  0  0  0  0
   43.1674   34.4730   38.5827 H   0  0  0  0  0  0  0  0  0  0  0  0
   41.1565   35.6143   37.5529 H   0  0  0  0  0  0  0  0  0  0  0  0
   39.7077   36.4681   41.4535 H   0  0  0  0  0  0  0  0  0  0  0  0
   45.5090   33.3468   40.2560 H   0  0  0  0  0  0  0  0  0  0  0  0
   44.0250   33.0426   39.2907 H   0  0  0  0  0  0  0  0  0  0  0  0
   44.7778   34.6735   39.2907 H   0  0  0  0  0  0  0  0  0  0  0  0
   45.5595   35.0711   41.6381 H   0  0  0  0  0  0  0  0  0  0  0  0
   44.1364   36.1944   41.5898 H   0  0  0  0  0  0  0  0  0  0  0  0
   43.3451   34.5060   43.2068 H   0  0  0  0  0  0  0  0  0  0  0  0
   45.1013   37.0344   43.9009 H   0  0  0  0  0  0  0  0  0  0  0  0
   44.2311   36.6119   45.1187 H   0  0  0  0  0  0  0  0  0  0  0  0
   46.5391   34.4942   43.8574 H   0  0  0  0  0  0  0  0  0  0  0  0
   44.8094   33.1833   48.4059 H   0  0  0  0  0  0  0  0  0  0  0  0
   46.6249   31.6456   47.2260 H   0  0  0  0  0  0  0  0  0  0  0  0
   47.8011   31.5286   45.0083 H   0  0  0  0  0  0  0  0  0  0  0  0
   47.4848   32.7158   43.7148 H   0  0  0  0  0  0  0  0  0  0  0  0
   44.0429   32.1765   41.3914 H   0  0  0  0  0  0  0  0  0  0  0  0
   43.6665   33.3162   42.8860 H   0  0  0  0  0  0  0  0  0  0  0  0
   41.3330   32.9813   41.9837 H   0  0  0  0  0  0  0  0  0  0  0  0
   43.0769   30.4672   42.1566 H   0  0  0  0  0  0  0  0  0  0  0  0
  1  8  1  6
  1 19  1  0
  1  9  1  0
  2  1  1  0
  2  7  1  0
  3  2  2  0
  4  3  1  0
  4  5  2  0
  5  6  1  0
  6  7  2  0
  9 10  1  0
 10 12  1  0
 10 11  1  0
 12 11  1  0
 12 13  1  0
 13 17  1  0
 13 14  1  0
 14 15  2  0
 16 15  1  0
 17 16  2  0
 18 17  1  0
 19 20  1  0
 20 21  1  0
 21 22  2  0
  3 23  1  0
  4 24  1  0
  6 25  1  0
  8 26  1  0
  8 27  1  0
  8 28  1  0
  9 29  1  0
  9 30  1  0
 10 31  1  6
 11 32  1  0
 11 33  1  0
 12 34  1  6
 15 35  1  0
 16 36  1  0
 18 37  1  0
 18 38  1  0
 19 39  1  0
 19 40  1  0
 20 41  1  0
 21 42  1  0
M  ISO  8  23  14  24  14  25  14  26   8  27   8  28   8  29   8  30   8
M  ISO  8  31  13  32  13  33  13  34  13  35  14  36  14  39   8  40   8
M  ISO  1  42   6
M  END
>  <minimizedAffinity>  (1) 
-4.98959398

>  <minimizedRMSD>  (1) 
2.21051788

$$$$
