
     RDKit          3D

 46 48  0  0  1  0  0  0  0  0999 V2000
   45.7030   34.0260   42.0020 C   0  0  1  0  0  0  0  0  0  0  0  0
   44.4080   34.4320   41.3780 C   0  0  0  0  0  0  0  0  0  0  0  0
   44.1780   33.9060   40.0920 C   0  0  0  0  0  0  0  0  0  0  0  0
   42.9930   34.2340   39.4290 C   0  0  0  0  0  0  0  0  0  0  0  0
   42.1160   35.0450   40.0470 N   0  0  0  0  0  0  0  0  0  0  0  0
   42.3460   35.5450   41.2680 C   0  0  0  0  0  0  0  0  0  0  0  0
   43.4590   35.2320   41.8790 N   0  0  0  0  0  0  0  0  0  0  0  0
   46.8230   34.3990   41.0610 C   0  0  0  0  0  0  0  0  0  0  0  0
   45.8350   34.8360   43.2490 C   0  0  0  0  0  0  0  0  0  0  0  0
   45.1070   34.2190   44.4080 C   0  0  2  0  0  0  0  0  0  0  0  0
   44.8090   34.9920   45.6080 C   0  0  0  0  0  0  0  0  0  0  0  0
   45.9430   33.9700   45.6190 C   0  0  1  0  0  0  0  0  0  0  0  0
   45.7010   32.8940   46.5370 N   0  0  0  0  0  0  0  0  0  0  0  0
   45.1110   32.9700   47.7310 N   0  0  0  0  0  0  0  0  0  0  0  0
   45.0690   31.7390   48.2810 C   0  0  0  0  0  0  0  0  0  0  0  0
   45.6750   30.9090   47.3790 C   0  0  0  0  0  0  0  0  0  0  0  0
   46.0680   31.6600   46.2740 C   0  0  0  0  0  0  0  0  0  0  0  0
   46.7120   31.0170   45.2120 N   0  0  0  0  0  0  0  0  0  0  0  0
   45.7690   32.5830   42.2310 C   0  0  0  0  0  0  0  0  0  0  0  0
   44.7930   31.7790   42.7580 N   0  0  0  0  0  0  0  0  0  0  0  0
   44.7860   30.2090   42.0570 S   0  0  0  0  0  0  0  0  0  0  0  0
   44.7280   30.0810   40.3520 C   0  0  0  0  0  0  0  0  0  0  0  0
   45.7790   29.3310   42.7720 O   0  0  0  0  0  0  0  0  0  0  0  0
   43.4320   29.6410   42.5840 O   0  0  0  0  0  0  0  0  0  0  0  0
   44.9199   33.2472   39.6171 H   0  0  0  0  0  0  0  0  0  0  0  0
   42.7820   33.8381   38.4246 H   0  0  0  0  0  0  0  0  0  0  0  0
   41.6112   36.2076   41.7487 H   0  0  0  0  0  0  0  0  0  0  0  0
   47.7084   34.6939   41.6434 H   0  0  0  0  0  0  0  0  0  0  0  0
   47.0722   33.5353   40.4270 H   0  0  0  0  0  0  0  0  0  0  0  0
   46.5046   35.2396   40.4270 H   0  0  0  0  0  0  0  0  0  0  0  0
   46.9014   34.9200   43.5052 H   0  0  0  0  0  0  0  0  0  0  0  0
   45.3891   35.8233   43.0582 H   0  0  0  0  0  0  0  0  0  0  0  0
   44.4611   33.6242   43.7455 H   0  0  0  0  0  0  0  0  0  0  0  0
   45.0374   36.0675   45.6404 H   0  0  0  0  0  0  0  0  0  0  0  0
   43.9110   35.1645   46.2194 H   0  0  0  0  0  0  0  0  0  0  0  0
   47.0331   33.9060   45.7515 H   0  0  0  0  0  0  0  0  0  0  0  0
   44.6369   31.4606   49.2535 H   0  0  0  0  0  0  0  0  0  0  0  0
   45.8270   29.8269   47.5053 H   0  0  0  0  0  0  0  0  0  0  0  0
   46.8872   30.0029   45.2540 H   0  0  0  0  0  0  0  0  0  0  0  0
   47.0111   31.5576   44.3878 H   0  0  0  0  0  0  0  0  0  0  0  0
   45.9866   32.1509   41.2431 H   0  0  0  0  0  0  0  0  0  0  0  0
   46.4742   32.5743   43.0751 H   0  0  0  0  0  0  0  0  0  0  0  0
   44.9515   31.6877   43.7716 H   0  0  0  0  0  0  0  0  0  0  0  0
   44.2890   29.1121   40.0718 H   0  0  0  0  0  0  0  0  0  0  0  0
   44.1108   30.8950   39.9440 H   0  0  0  0  0  0  0  0  0  0  0  0
   45.7469   30.1536   39.9440 H   0  0  0  0  0  0  0  0  0  0  0  0
  1  8  1  6
  1 19  1  0
  1  9  1  0
  2  7  1  0
  2  1  1  0
  3  2  2  0
  4  5  2  0
  4  3  1  0
  5  6  1  0
  6  7  2  0
  9 10  1  0
 10 11  1  0
 10 12  1  0
 11 12  1  0
 12 13  1  0
 13 14  1  0
 14 15  2  0
 16 15  1  0
 17 13  1  0
 17 16  2  0
 18 17  1  0
 19 20  1  0
 21 24  2  0
 21 20  1  0
 21 23  2  0
 22 21  1  0
  3 25  1  0
  4 26  1  0
  6 27  1  0
  8 28  1  0
  8 29  1  0
  8 30  1  0
  9 31  1  0
  9 32  1  0
 10 33  1  6
 11 34  1  0
 11 35  1  0
 12 36  1  6
 15 37  1  0
 16 38  1  0
 18 39  1  0
 18 40  1  0
 19 41  1  0
 19 42  1  0
 20 43  1  0
 22 44  1  0
 22 45  1  0
 22 46  1  0
M  ISO  8  25  14  26  14  27  14  28   8  29   8  30   8  31   8  32   8
M  ISO  8  33  13  34  13  35  13  36  13  37  14  38  14  41   8  42   8
M  ISO  4  43   5  44   8  45   8  46   8
M  END
>  <minimizedAffinity>  (1) 
-4.37093067

>  <minimizedRMSD>  (1) 
0.184550002

$$$$
