
     RDKit          3D

 50 53  0  0  1  0  0  0  0  0999 V2000
   43.4970   33.8950   40.7780 C   0  0  1  0  0  0  0  0  0  0  0  0
   42.3970   34.6930   40.1770 C   0  0  0  0  0  0  0  0  0  0  0  0
   42.4610   34.8000   38.8150 C   0  0  0  0  0  0  0  0  0  0  0  0
   41.4700   35.5420   38.1450 C   0  0  0  0  0  0  0  0  0  0  0  0
   40.5060   36.1150   38.8640 N   0  0  0  0  0  0  0  0  0  0  0  0
   40.4680   35.9920   40.2030 C   0  0  0  0  0  0  0  0  0  0  0  0
   41.4020   35.2970   40.7980 N   0  0  0  0  0  0  0  0  0  0  0  0
   44.2690   33.2250   39.6590 C   0  0  0  0  0  0  0  0  0  0  0  0
   44.4560   34.8800   41.4020 C   0  0  0  0  0  0  0  0  0  0  0  0
   44.4790   34.7640   42.8890 C   0  0  2  0  0  0  0  0  0  0  0  0
   45.0660   35.8320   43.7010 C   0  0  0  0  0  0  0  0  0  0  0  0
   45.8000   34.5360   43.5230 C   0  0  1  0  0  0  0  0  0  0  0  0
   45.9810   33.8110   44.7460 N   0  0  0  0  0  0  0  0  0  0  0  0
   45.3620   33.9760   45.9150 N   0  0  0  0  0  0  0  0  0  0  0  0
   45.8240   33.0870   46.8090 C   0  0  0  0  0  0  0  0  0  0  0  0
   46.7510   32.3590   46.1580 C   0  0  0  0  0  0  0  0  0  0  0  0
   46.8640   32.8120   44.8330 C   0  0  0  0  0  0  0  0  0  0  0  0
   47.7550   32.2190   43.9560 N   0  0  0  0  0  0  0  0  0  0  0  0
   43.0740   32.8440   41.6940 C   0  0  0  0  0  0  0  0  0  0  0  0
   41.7130   32.6440   42.0540 N   0  0  0  0  0  0  0  0  0  0  0  0
   41.2180   31.3540   41.6520 C   0  0  0  0  0  0  0  0  0  0  0  0
   40.2020   31.1390   40.9380 O   0  0  0  0  0  0  0  0  0  0  0  0
   41.8240   30.1900   42.0200 O   0  0  0  0  0  0  0  0  0  0  0  0
   41.6040   29.6290   43.2780 C   0  0  0  0  0  0  0  0  0  0  0  0
   40.3980   29.7510   43.9800 C   0  0  0  0  0  0  0  0  0  0  0  0
   40.6340   29.0440   45.1670 C   0  0  0  0  0  0  0  0  0  0  0  0
   41.9430   28.5460   45.1160 C   0  0  0  0  0  0  0  0  0  0  0  0
   42.4510   28.9350   43.9650 O   0  0  0  0  0  0  0  0  0  0  0  0
   43.2726   34.3148   38.2530 H   0  0  0  0  0  0  0  0  0  0  0  0
   41.4912   35.6465   37.0502 H   0  0  0  0  0  0  0  0  0  0  0  0
   39.6659   36.4674   40.7866 H   0  0  0  0  0  0  0  0  0  0  0  0
   45.0341   32.5610   40.0878 H   0  0  0  0  0  0  0  0  0  0  0  0
   43.5779   32.6355   39.0385 H   0  0  0  0  0  0  0  0  0  0  0  0
   44.7553   33.9922   39.0385 H   0  0  0  0  0  0  0  0  0  0  0  0
   45.4671   34.6872   41.0141 H   0  0  0  0  0  0  0  0  0  0  0  0
   44.1204   35.8951   41.1432 H   0  0  0  0  0  0  0  0  0  0  0  0
   43.4999   34.2628   42.9004 H   0  0  0  0  0  0  0  0  0  0  0  0
   45.4406   36.7469   43.2187 H   0  0  0  0  0  0  0  0  0  0  0  0
   44.7323   36.4244   44.5657 H   0  0  0  0  0  0  0  0  0  0  0  0
   46.7449   34.1502   43.1127 H   0  0  0  0  0  0  0  0  0  0  0  0
   45.5099   32.9762   47.8574 H   0  0  0  0  0  0  0  0  0  0  0  0
   47.3318   31.5345   46.5971 H   0  0  0  0  0  0  0  0  0  0  0  0
   48.3470   31.4380   44.2730 H   0  0  0  0  0  0  0  0  0  0  0  0
   47.8263   32.5586   42.9862 H   0  0  0  0  0  0  0  0  0  0  0  0
   43.4144   31.8970   41.2498 H   0  0  0  0  0  0  0  0  0  0  0  0
   43.5098   33.1857   42.6444 H   0  0  0  0  0  0  0  0  0  0  0  0
   41.1437   33.3457   42.5484 H   0  0  0  0  0  0  0  0  0  0  0  0
   39.4823   30.2772   43.6724 H   0  0  0  0  0  0  0  0  0  0  0  0
   39.9193   28.9048   45.9915 H   0  0  0  0  0  0  0  0  0  0  0  0
   42.4481   27.9465   45.8877 H   0  0  0  0  0  0  0  0  0  0  0  0
  1  8  1  6
  1  9  1  0
  1 19  1  0
  2  1  1  0
  2  7  1  0
  3  2  2  0
  4  3  1  0
  4  5  2  0
  5  6  1  0
  6  7  2  0
  9 10  1  0
 10 12  1  0
 10 11  1  0
 12 11  1  0
 12 13  1  0
 13 17  1  0
 13 14  1  0
 14 15  2  0
 16 15  1  0
 17 16  2  0
 18 17  1  0
 19 20  1  0
 21 23  1  0
 21 20  1  0
 22 21  2  0
 23 24  1  0
 24 28  1  0
 24 25  2  0
 25 26  1  0
 27 26  2  0
 28 27  1  0
  3 29  1  0
  4 30  1  0
  6 31  1  0
  8 32  1  0
  8 33  1  0
  8 34  1  0
  9 35  1  0
  9 36  1  0
 10 37  1  1
 11 38  1  0
 11 39  1  0
 12 40  1  6
 15 41  1  0
 16 42  1  0
 18 43  1  0
 18 44  1  0
 19 45  1  0
 19 46  1  0
 20 47  1  0
 25 48  1  0
 26 49  1  0
 27 50  1  0
M  ISO  8  29  14  30  14  31  14  32   8  33   8  34   8  35   8  36   8
M  ISO  8  37  13  38  13  39  13  40  13  41  14  42  14  45   8  46   8
M  ISO  3  48  14  49  14  50  14
M  END
>  <minimizedAffinity>  (1) 
-5.43031025

>  <minimizedRMSD>  (1) 
1.58514059

$$$$
