
     RDKit          3D

 59 62  0  0  1  0  0  0  0  0999 V2000
   43.4890   34.0310   41.0280 C   0  0  1  0  0  0  0  0  0  0  0  0
   42.3230   34.8280   40.5680 C   0  0  0  0  0  0  0  0  0  0  0  0
   42.2000   34.9180   39.2100 C   0  0  0  0  0  0  0  0  0  0  0  0
   41.1390   35.6560   38.6660 C   0  0  0  0  0  0  0  0  0  0  0  0
   40.2810   36.2470   39.4990 N   0  0  0  0  0  0  0  0  0  0  0  0
   40.4230   36.1430   40.8330 C   0  0  0  0  0  0  0  0  0  0  0  0
   41.4230   35.4480   41.3090 N   0  0  0  0  0  0  0  0  0  0  0  0
   44.2940   33.6170   39.8130 C   0  0  0  0  0  0  0  0  0  0  0  0
   44.3840   34.9730   41.7960 C   0  0  0  0  0  0  0  0  0  0  0  0
   44.3930   34.6470   43.2600 C   0  0  2  0  0  0  0  0  0  0  0  0
   44.7730   35.6690   44.2370 C   0  0  0  0  0  0  0  0  0  0  0  0
   45.7210   34.5560   43.9120 C   0  0  1  0  0  0  0  0  0  0  0  0
   45.9990   33.6980   45.0280 N   0  0  0  0  0  0  0  0  0  0  0  0
   45.4610   33.7160   46.2570 N   0  0  0  0  0  0  0  0  0  0  0  0
   45.9970   32.7430   47.0020 C   0  0  0  0  0  0  0  0  0  0  0  0
   46.8810   32.1180   46.2070 C   0  0  0  0  0  0  0  0  0  0  0  0
   46.8940   32.7250   44.9330 C   0  0  0  0  0  0  0  0  0  0  0  0
   47.7300   32.2630   43.9410 N   0  0  0  0  0  0  0  0  0  0  0  0
   43.1590   32.8180   41.7600 C   0  0  0  0  0  0  0  0  0  0  0  0
   41.8270   32.3770   41.9610 N   0  0  0  0  0  0  0  0  0  0  0  0
   41.7210   30.9570   42.1390 C   0  0  0  0  0  0  0  0  0  0  0  0
   40.9280   30.1900   41.5270 O   0  0  0  0  0  0  0  0  0  0  0  0
   42.4830   30.2490   43.0140 O   0  0  0  0  0  0  0  0  0  0  0  0
   41.9080   29.0330   43.5230 C   0  0  0  0  0  0  0  0  0  0  0  0
   43.0430   28.0480   43.6940 C   0  0  0  0  0  0  0  0  0  0  0  0
   43.3200   27.7480   45.1480 C   0  0  0  0  0  0  0  0  0  0  0  0
   42.1010   27.0780   45.7580 C   0  0  0  0  0  0  0  0  0  0  0  0
   40.8750   27.8040   45.3130 C   0  0  0  0  0  0  0  0  0  0  0  0
   41.1420   29.2020   44.7840 C   0  0  0  0  0  0  0  0  0  0  0  0
   42.9249   34.4173   38.5513 H   0  0  0  0  0  0  0  0  0  0  0  0
   41.0169   35.7456   37.5765 H   0  0  0  0  0  0  0  0  0  0  0  0
   39.7100   36.6343   41.5115 H   0  0  0  0  0  0  0  0  0  0  0  0
   45.2284   33.1365   40.1386 H   0  0  0  0  0  0  0  0  0  0  0  0
   43.7083   32.9083   39.2092 H   0  0  0  0  0  0  0  0  0  0  0  0
   44.5298   34.5057   39.2092 H   0  0  0  0  0  0  0  0  0  0  0  0
   45.4089   34.8917   41.4049 H   0  0  0  0  0  0  0  0  0  0  0  0
   43.9988   35.9958   41.6712 H   0  0  0  0  0  0  0  0  0  0  0  0
   43.5137   33.9937   43.1597 H   0  0  0  0  0  0  0  0  0  0  0  0
   44.9931   36.6938   43.9034 H   0  0  0  0  0  0  0  0  0  0  0  0
   44.3268   36.0654   45.1610 H   0  0  0  0  0  0  0  0  0  0  0  0
   46.7266   34.4004   43.4941 H   0  0  0  0  0  0  0  0  0  0  0  0
   45.7622   32.5039   48.0497 H   0  0  0  0  0  0  0  0  0  0  0  0
   47.5024   31.2605   46.5047 H   0  0  0  0  0  0  0  0  0  0  0  0
   48.3527   31.4631   44.1234 H   0  0  0  0  0  0  0  0  0  0  0  0
   47.7326   32.7174   43.0166 H   0  0  0  0  0  0  0  0  0  0  0  0
   43.6741   31.9987   41.2371 H   0  0  0  0  0  0  0  0  0  0  0  0
   43.4581   33.0896   42.7831 H   0  0  0  0  0  0  0  0  0  0  0  0
   41.0163   33.0122   41.9776 H   0  0  0  0  0  0  0  0  0  0  0  0
   41.1587   28.6691   42.8046 H   0  0  0  0  0  0  0  0  0  0  0  0
   42.7794   27.1106   43.1823 H   0  0  0  0  0  0  0  0  0  0  0  0
   43.9495   28.4970   43.2619 H   0  0  0  0  0  0  0  0  0  0  0  0
   44.1876   27.0764   45.2268 H   0  0  0  0  0  0  0  0  0  0  0  0
   43.5363   28.6834   45.6848 H   0  0  0  0  0  0  0  0  0  0  0  0
   42.0506   26.0306   45.4257 H   0  0  0  0  0  0  0  0  0  0  0  0
   42.1717   27.1050   46.8554 H   0  0  0  0  0  0  0  0  0  0  0  0
   40.3967   27.2177   44.5146 H   0  0  0  0  0  0  0  0  0  0  0  0
   40.2330   27.9166   46.1991 H   0  0  0  0  0  0  0  0  0  0  0  0
   41.7308   29.7786   45.5126 H   0  0  0  0  0  0  0  0  0  0  0  0
   40.2036   29.7492   44.6107 H   0  0  0  0  0  0  0  0  0  0  0  0
  1  8  1  6
  1 19  1  0
  1  9  1  0
  2  1  1  0
  2  7  1  0
  3  2  2  0
  4  3  1  0
  4  5  2  0
  5  6  1  0
  6  7  2  0
  9 10  1  0
 10 12  1  0
 10 11  1  0
 12 11  1  0
 12 13  1  0
 13 14  1  0
 14 15  2  0
 16 15  1  0
 17 13  1  0
 17 16  2  0
 18 17  1  0
 19 20  1  0
 20 21  1  0
 21 23  1  0
 22 21  2  0
 23 24  1  0
 24 25  1  0
 24 29  1  0
 25 26  1  0
 26 27  1  0
 28 27  1  0
 29 28  1  0
  3 30  1  0
  4 31  1  0
  6 32  1  0
  8 33  1  0
  8 34  1  0
  8 35  1  0
  9 36  1  0
  9 37  1  0
 10 38  1  1
 11 39  1  0
 11 40  1  0
 12 41  1  6
 15 42  1  0
 16 43  1  0
 18 44  1  0
 18 45  1  0
 19 46  1  0
 19 47  1  0
 20 48  1  0
 24 49  1  0
 25 50  1  0
 25 51  1  0
 26 52  1  0
 26 53  1  0
 27 54  1  0
 27 55  1  0
 28 56  1  0
 28 57  1  0
 29 58  1  0
 29 59  1  0
M  ISO  8  30  14  31  14  32  14  33   8  34   8  35   8  36   8  37   8
M  ISO  8  38  13  39  13  40  13  41  13  42  14  43  14  46   8  47   8
M  ISO  8  49  13  50  13  51  13  52  13  53  13  54  13  55  13  56  13
M  ISO  3  57  13  58  13  59  13
M  END
>  <minimizedAffinity>  (1) 
-5.41476011

>  <minimizedRMSD>  (1) 
1.662655

$$$$
