
     RDKit          3D

 51 54  0  0  1  0  0  0  0  0999 V2000
   43.5750   33.8860   41.1700 C   0  0  1  0  0  0  0  0  0  0  0  0
   42.4360   34.7270   40.7210 C   0  0  0  0  0  0  0  0  0  0  0  0
   42.2720   34.7880   39.3660 C   0  0  0  0  0  0  0  0  0  0  0  0
   41.2350   35.5610   38.8300 C   0  0  0  0  0  0  0  0  0  0  0  0
   40.4360   36.2170   39.6710 N   0  0  0  0  0  0  0  0  0  0  0  0
   40.6130   36.1450   41.0040 C   0  0  0  0  0  0  0  0  0  0  0  0
   41.5920   35.4120   41.4700 N   0  0  0  0  0  0  0  0  0  0  0  0
   44.4100   33.5210   39.9580 C   0  0  0  0  0  0  0  0  0  0  0  0
   44.4560   34.7720   42.0170 C   0  0  0  0  0  0  0  0  0  0  0  0
   44.6000   34.2370   43.4090 C   0  0  2  0  0  0  0  0  0  0  0  0
   44.9230   35.1410   44.5120 C   0  0  0  0  0  0  0  0  0  0  0  0
   45.9690   34.2090   43.9770 C   0  0  1  0  0  0  0  0  0  0  0  0
   46.4150   33.2370   44.9320 N   0  0  0  0  0  0  0  0  0  0  0  0
   46.4610   33.3380   46.2660 N   0  0  0  0  0  0  0  0  0  0  0  0
   46.9380   32.2060   46.7940 C   0  0  0  0  0  0  0  0  0  0  0  0
   47.1910   31.3900   45.7500 C   0  0  0  0  0  0  0  0  0  0  0  0
   46.8580   32.0440   44.5500 C   0  0  0  0  0  0  0  0  0  0  0  0
   47.0260   31.4170   43.3310 N   0  0  0  0  0  0  0  0  0  0  0  0
   43.2040   32.6410   41.8240 C   0  0  0  0  0  0  0  0  0  0  0  0
   41.8530   32.2630   42.0490 N   0  0  0  0  0  0  0  0  0  0  0  0
   41.6160   30.8650   41.8130 C   0  0  0  0  0  0  0  0  0  0  0  0
   40.7520   30.3800   41.0340 O   0  0  0  0  0  0  0  0  0  0  0  0
   42.3330   29.8880   42.4390 O   0  0  0  0  0  0  0  0  0  0  0  0
   41.7690   29.2260   43.5240 C   0  0  0  0  0  0  0  0  0  0  0  0
   40.7080   29.7690   44.2240 C   0  0  0  0  0  0  0  0  0  0  0  0
   40.2060   29.0450   45.2890 C   0  0  0  0  0  0  0  0  0  0  0  0
   40.7120   27.8380   45.6630 N   0  0  0  0  0  0  0  0  0  0  0  0
   41.7570   27.3370   44.9470 C   0  0  0  0  0  0  0  0  0  0  0  0
   42.2740   28.0240   43.8940 N   0  0  0  0  0  0  0  0  0  0  0  0
   42.9501   34.2335   38.7007 H   0  0  0  0  0  0  0  0  0  0  0  0
   41.0836   35.6252   37.7424 H   0  0  0  0  0  0  0  0  0  0  0  0
   39.9475   36.6918   41.6881 H   0  0  0  0  0  0  0  0  0  0  0  0
   45.3714   33.1007   40.2882 H   0  0  0  0  0  0  0  0  0  0  0  0
   43.8724   32.7758   39.3533 H   0  0  0  0  0  0  0  0  0  0  0  0
   44.5919   34.4217   39.3533 H   0  0  0  0  0  0  0  0  0  0  0  0
   45.4516   34.8335   41.5534 H   0  0  0  0  0  0  0  0  0  0  0  0
   43.9886   35.7660   42.0769 H   0  0  0  0  0  0  0  0  0  0  0  0
   43.7960   33.5035   43.2492 H   0  0  0  0  0  0  0  0  0  0  0  0
   45.0055   36.2227   44.3302 H   0  0  0  0  0  0  0  0  0  0  0  0
   44.4938   35.3404   45.5050 H   0  0  0  0  0  0  0  0  0  0  0  0
   46.9571   34.2373   43.4945 H   0  0  0  0  0  0  0  0  0  0  0  0
   47.0924   31.9854   47.8605 H   0  0  0  0  0  0  0  0  0  0  0  0
   47.5956   30.3699   45.8255 H   0  0  0  0  0  0  0  0  0  0  0  0
   47.3993   30.4578   43.2924 H   0  0  0  0  0  0  0  0  0  0  0  0
   46.7780   31.9086   42.4605 H   0  0  0  0  0  0  0  0  0  0  0  0
   43.6484   31.8361   41.2201 H   0  0  0  0  0  0  0  0  0  0  0  0
   43.5603   32.8141   42.8502 H   0  0  0  0  0  0  0  0  0  0  0  0
   41.1203   32.9216   42.3497 H   0  0  0  0  0  0  0  0  0  0  0  0
   40.2787   30.7422   43.9436 H   0  0  0  0  0  0  0  0  0  0  0  0
   39.3621   29.4618   45.8583 H   0  0  0  0  0  0  0  0  0  0  0  0
   42.1881   26.3638   45.2245 H   0  0  0  0  0  0  0  0  0  0  0  0
  1  8  1  6
  1 19  1  0
  1  9  1  0
  2  1  1  0
  2  7  1  0
  3  2  2  0
  4  3  1  0
  4  5  2  0
  5  6  1  0
  6  7  2  0
  9 10  1  0
 10 12  1  0
 10 11  1  0
 12 11  1  0
 12 13  1  0
 13 14  1  0
 14 15  2  0
 16 15  1  0
 17 13  1  0
 17 16  2  0
 18 17  1  0
 19 20  1  0
 21 20  1  0
 21 23  1  0
 22 21  2  0
 23 24  1  0
 24 29  1  0
 24 25  2  0
 25 26  1  0
 26 27  2  0
 28 27  1  0
 29 28  2  0
  3 30  1  0
  4 31  1  0
  6 32  1  0
  8 33  1  0
  8 34  1  0
  8 35  1  0
  9 36  1  0
  9 37  1  0
 10 38  1  1
 11 39  1  0
 11 40  1  0
 12 41  1  6
 15 42  1  0
 16 43  1  0
 18 44  1  0
 18 45  1  0
 19 46  1  0
 19 47  1  0
 20 48  1  0
 25 49  1  0
 26 50  1  0
 28 51  1  0
M  ISO  8  30  14  31  14  32  14  33   8  34   8  35   8  36   8  37   8
M  ISO  8  38  13  39  13  40  13  41  13  42  14  43  14  46   8  47   8
M  ISO  3  49  14  50  14  51  14
M  END
>  <minimizedAffinity>  (1) 
-5.19113874

>  <minimizedRMSD>  (1) 
1.63093841

$$$$
