
     RDKit          3D

 50 53  0  0  1  0  0  0  0  0999 V2000
   43.5940   33.8240   41.0680 C   0  0  1  0  0  0  0  0  0  0  0  0
   42.4510   34.6890   40.6740 C   0  0  0  0  0  0  0  0  0  0  0  0
   42.2560   34.7940   39.3260 C   0  0  0  0  0  0  0  0  0  0  0  0
   41.2100   35.5910   38.8390 C   0  0  0  0  0  0  0  0  0  0  0  0
   40.4350   36.2230   39.7190 N   0  0  0  0  0  0  0  0  0  0  0  0
   40.6440   36.1060   41.0430 C   0  0  0  0  0  0  0  0  0  0  0  0
   41.6280   35.3550   41.4620 N   0  0  0  0  0  0  0  0  0  0  0  0
   44.3570   33.4420   39.8140 C   0  0  0  0  0  0  0  0  0  0  0  0
   44.5370   34.6880   41.8650 C   0  0  0  0  0  0  0  0  0  0  0  0
   44.5310   34.3140   43.3140 C   0  0  2  0  0  0  0  0  0  0  0  0
   45.0320   35.2530   44.3190 C   0  0  0  0  0  0  0  0  0  0  0  0
   45.8480   34.0520   43.9410 C   0  0  1  0  0  0  0  0  0  0  0  0
   46.0490   33.1320   45.0220 N   0  0  0  0  0  0  0  0  0  0  0  0
   46.5470   33.3700   46.2380 N   0  0  0  0  0  0  0  0  0  0  0  0
   46.5640   32.2410   46.9560 C   0  0  0  0  0  0  0  0  0  0  0  0
   46.0580   31.2840   46.1470 C   0  0  0  0  0  0  0  0  0  0  0  0
   45.7240   31.8460   44.9030 C   0  0  0  0  0  0  0  0  0  0  0  0
   45.1860   31.0680   43.9010 N   0  0  0  0  0  0  0  0  0  0  0  0
   43.2270   32.5880   41.7400 C   0  0  0  0  0  0  0  0  0  0  0  0
   41.8810   32.2360   42.0290 N   0  0  0  0  0  0  0  0  0  0  0  0
   41.6840   30.8110   42.0940 C   0  0  0  0  0  0  0  0  0  0  0  0
   40.8420   30.1480   41.4330 O   0  0  0  0  0  0  0  0  0  0  0  0
   42.4200   30.0040   42.9140 O   0  0  0  0  0  0  0  0  0  0  0  0
   41.7280   29.3620   43.9380 C   0  0  0  0  0  0  0  0  0  0  0  0
   42.0840   28.1530   44.5090 C   0  0  0  0  0  0  0  0  0  0  0  0
   41.1670   27.8770   45.4570 N   0  0  0  0  0  0  0  0  0  0  0  0
   40.2790   28.8990   45.4530 C   0  0  0  0  0  0  0  0  0  0  0  0
   40.6020   29.8280   44.5260 N   0  0  0  0  0  0  0  0  0  0  0  0
   42.9148   34.2572   38.6275 H   0  0  0  0  0  0  0  0  0  0  0  0
   41.0340   35.6917   37.7579 H   0  0  0  0  0  0  0  0  0  0  0  0
   39.9979   36.6333   41.7603 H   0  0  0  0  0  0  0  0  0  0  0  0
   45.3081   32.9658   40.0943 H   0  0  0  0  0  0  0  0  0  0  0  0
   43.7560   32.7385   39.2191 H   0  0  0  0  0  0  0  0  0  0  0  0
   44.5602   34.3447   39.2191 H   0  0  0  0  0  0  0  0  0  0  0  0
   45.5557   34.5655   41.4684 H   0  0  0  0  0  0  0  0  0  0  0  0
   44.2056   35.7332   41.7768 H   0  0  0  0  0  0  0  0  0  0  0  0
   43.5835   33.7658   43.2055 H   0  0  0  0  0  0  0  0  0  0  0  0
   45.3605   36.2584   44.0170 H   0  0  0  0  0  0  0  0  0  0  0  0
   44.6429   35.6636   45.2624 H   0  0  0  0  0  0  0  0  0  0  0  0
   46.8238   33.7987   43.5009 H   0  0  0  0  0  0  0  0  0  0  0  0
   46.9168   32.1174   47.9905 H   0  0  0  0  0  0  0  0  0  0  0  0
   45.9275   30.2266   46.4205 H   0  0  0  0  0  0  0  0  0  0  0  0
   45.0244   30.0632   44.0597 H   0  0  0  0  0  0  0  0  0  0  0  0
   44.9454   31.4913   42.9933 H   0  0  0  0  0  0  0  0  0  0  0  0
   43.6264   31.7740   41.1172 H   0  0  0  0  0  0  0  0  0  0  0  0
   43.6326   32.7563   42.7486 H   0  0  0  0  0  0  0  0  0  0  0  0
   41.1290   32.9244   42.1758 H   0  0  0  0  0  0  0  0  0  0  0  0
   42.9523   27.5336   44.2397 H   0  0  0  0  0  0  0  0  0  0  0  0
   39.4061   28.9648   46.1191 H   0  0  0  0  0  0  0  0  0  0  0  0
   40.0997   30.7017   44.3132 H   0  0  0  0  0  0  0  0  0  0  0  0
  1  8  1  6
  1 19  1  0
  1  9  1  0
  2  1  1  0
  2  7  1  0
  3  2  2  0
  4  3  1  0
  4  5  2  0
  5  6  1  0
  6  7  2  0
  9 10  1  0
 10 12  1  0
 10 11  1  0
 12 11  1  0
 12 13  1  0
 13 14  1  0
 14 15  2  0
 16 15  1  0
 17 13  1  0
 17 16  2  0
 18 17  1  0
 19 20  1  0
 20 21  1  0
 21 23  1  0
 22 21  2  0
 23 24  1  0
 24 25  2  0
 24 28  1  0
 25 26  1  0
 27 26  2  0
 28 27  1  0
  3 29  1  0
  4 30  1  0
  6 31  1  0
  8 32  1  0
  8 33  1  0
  8 34  1  0
  9 35  1  0
  9 36  1  0
 10 37  1  1
 11 38  1  0
 11 39  1  0
 12 40  1  6
 15 41  1  0
 16 42  1  0
 18 43  1  0
 18 44  1  0
 19 45  1  0
 19 46  1  0
 20 47  1  0
 25 48  1  0
 27 49  1  0
 28 50  1  0
M  ISO  8  29  14  30  14  31  14  32   8  33   8  34   8  35   8  36   8
M  ISO  8  37  13  38  13  39  13  40  13  41  14  42  14  45   8  46   8
M  ISO  3  48  14  49  14  50   9
M  END
>  <minimizedAffinity>  (1) 
-5.21747446

>  <minimizedRMSD>  (1) 
1.55332732

$$$$
