
     RDKit          3D

 55 58  0  0  1  0  0  0  0  0999 V2000
   43.5530   34.0900   41.1240 C   0  0  1  0  0  0  0  0  0  0  0  0
   42.4100   34.8610   40.5700 C   0  0  0  0  0  0  0  0  0  0  0  0
   42.3630   34.8990   39.2050 C   0  0  0  0  0  0  0  0  0  0  0  0
   41.3260   35.6070   38.5770 C   0  0  0  0  0  0  0  0  0  0  0  0
   40.4210   36.2190   39.3380 N   0  0  0  0  0  0  0  0  0  0  0  0
   40.4890   36.1680   40.6820 C   0  0  0  0  0  0  0  0  0  0  0  0
   41.4680   35.5000   41.2370 N   0  0  0  0  0  0  0  0  0  0  0  0
   44.4510   33.6750   39.9740 C   0  0  0  0  0  0  0  0  0  0  0  0
   44.3730   35.0600   41.9410 C   0  0  0  0  0  0  0  0  0  0  0  0
   44.2710   34.7650   43.4080 C   0  0  2  0  0  0  0  0  0  0  0  0
   44.6640   35.7770   44.3870 C   0  0  0  0  0  0  0  0  0  0  0  0
   45.5490   34.5950   44.1420 C   0  0  1  0  0  0  0  0  0  0  0  0
   45.7060   33.7420   45.2860 N   0  0  0  0  0  0  0  0  0  0  0  0
   45.1920   33.8940   46.5090 N   0  0  0  0  0  0  0  0  0  0  0  0
   45.5730   32.8750   47.2900 C   0  0  0  0  0  0  0  0  0  0  0  0
   46.3430   32.0780   46.5170 C   0  0  0  0  0  0  0  0  0  0  0  0
   46.4330   32.6300   45.2260 C   0  0  0  0  0  0  0  0  0  0  0  0
   47.1660   32.0150   44.2310 N   0  0  0  0  0  0  0  0  0  0  0  0
   43.1980   32.8800   41.8450 C   0  0  0  0  0  0  0  0  0  0  0  0
   41.8620   32.4180   41.9570 N   0  0  0  0  0  0  0  0  0  0  0  0
   41.7130   31.0280   41.6450 C   0  0  0  0  0  0  0  0  0  0  0  0
   40.9060   30.5370   40.8120 O   0  0  0  0  0  0  0  0  0  0  0  0
   42.4520   30.0550   42.2410 O   0  0  0  0  0  0  0  0  0  0  0  0
   40.9030   29.9510   44.0440 N   0  0  0  0  0  0  0  0  0  0  0  0
   40.7480   29.0280   45.1990 C   0  0  0  0  0  0  0  0  0  0  0  0
   41.0270   27.7110   44.4610 C   0  0  0  0  0  0  0  0  0  0  0  0
   42.2720   28.0600   43.6970 C   0  0  0  0  0  0  0  0  0  0  0  0
   42.1850   29.4950   43.4810 C   0  0  1  0  0  0  0  0  0  0  0  0
   43.1273   34.3819   38.6063 H   0  0  0  0  0  0  0  0  0  0  0  0
   41.2626   35.6551   37.4799 H   0  0  0  0  0  0  0  0  0  0  0  0
   39.7363   36.6779   41.3013 H   0  0  0  0  0  0  0  0  0  0  0  0
   45.3817   33.2449   40.3724 H   0  0  0  0  0  0  0  0  0  0  0  0
   43.9344   32.9243   39.3579 H   0  0  0  0  0  0  0  0  0  0  0  0
   44.6880   34.5549   39.3579 H   0  0  0  0  0  0  0  0  0  0  0  0
   45.4265   34.9851   41.6336 H   0  0  0  0  0  0  0  0  0  0  0  0
   43.9853   36.0742   41.7647 H   0  0  0  0  0  0  0  0  0  0  0  0
   43.3549   34.1730   43.2655 H   0  0  0  0  0  0  0  0  0  0  0  0
   44.9759   36.7764   44.0493 H   0  0  0  0  0  0  0  0  0  0  0  0
   44.1923   36.2234   45.2748 H   0  0  0  0  0  0  0  0  0  0  0  0
   46.5644   34.3606   43.7899 H   0  0  0  0  0  0  0  0  0  0  0  0
   45.3119   32.7185   48.3470 H   0  0  0  0  0  0  0  0  0  0  0  0
   46.8237   31.1447   46.8453 H   0  0  0  0  0  0  0  0  0  0  0  0
   47.6597   31.1323   44.4258 H   0  0  0  0  0  0  0  0  0  0  0  0
   47.2192   32.4388   43.2938 H   0  0  0  0  0  0  0  0  0  0  0  0
   43.7628   32.0651   41.3686 H   0  0  0  0  0  0  0  0  0  0  0  0
   43.4229   33.1652   42.8833 H   0  0  0  0  0  0  0  0  0  0  0  0
   41.0759   33.0226   42.2354 H   0  0  0  0  0  0  0  0  0  0  0  0
   40.1338   29.8414   43.3678 H   0  0  0  0  0  0  0  0  0  0  0  0
   41.4848   29.2254   45.9916 H   0  0  0  0  0  0  0  0  0  0  0  0
   39.7904   29.0856   45.7372 H   0  0  0  0  0  0  0  0  0  0  0  0
   41.2049   26.8847   45.1650 H   0  0  0  0  0  0  0  0  0  0  0  0
   40.1950   27.3623   43.8316 H   0  0  0  0  0  0  0  0  0  0  0  0
   43.1689   27.8099   44.2826 H   0  0  0  0  0  0  0  0  0  0  0  0
   42.3497   27.5018   42.7523 H   0  0  0  0  0  0  0  0  0  0  0  0
   43.0710   29.8870   44.0019 H   0  0  0  0  0  0  0  0  0  0  0  0
  1  8  1  6
  1 19  1  0
  1  9  1  0
  2  1  1  0
  2  7  1  0
  3  2  2  0
  4  3  1  0
  4  5  2  0
  5  6  1  0
  6  7  2  0
  9 10  1  0
 10 12  1  0
 10 11  1  0
 12 11  1  0
 12 13  1  0
 13 14  1  0
 14 15  2  0
 16 15  1  0
 17 13  1  0
 17 16  2  0
 18 17  1  0
 19 20  1  0
 21 20  1  0
 21 23  1  0
 22 21  2  0
 24 25  1  0
 26 25  1  0
 27 26  1  0
 28 23  1  0
 28 27  1  0
 28 24  1  0
  3 29  1  0
  4 30  1  0
  6 31  1  0
  8 32  1  0
  8 33  1  0
  8 34  1  0
  9 35  1  0
  9 36  1  0
 10 37  1  1
 11 38  1  0
 11 39  1  0
 12 40  1  6
 15 41  1  0
 16 42  1  0
 18 43  1  0
 18 44  1  0
 19 45  1  0
 19 46  1  0
 20 47  1  0
 24 48  1  0
 25 49  1  0
 25 50  1  0
 26 51  1  0
 26 52  1  0
 27 53  1  0
 27 54  1  0
 28 55  1  1
M  ISO  8  29  14  30  14  31  14  32   8  33   8  34   8  35   8  36   8
M  ISO  8  37  13  38  13  39  13  40  13  41  14  42  14  45   8  46   8
M  ISO  8  48   5  49  13  50  13  51  13  52  13  53  13  54  13  55  13
M  END
>  <minimizedAffinity>  (1) 
-5.21408463

>  <minimizedRMSD>  (1) 
1.26953685

$$$$
