
     RDKit          3D

 48 51  0  0  1  0  0  0  0  0999 V2000
   43.5670   33.8910   41.2020 C   0  0  1  0  0  0  0  0  0  0  0  0
   42.4250   34.7260   40.7480 C   0  0  0  0  0  0  0  0  0  0  0  0
   42.2810   34.7990   39.3920 C   0  0  0  0  0  0  0  0  0  0  0  0
   41.2400   35.5680   38.8500 C   0  0  0  0  0  0  0  0  0  0  0  0
   40.4210   36.2050   39.6870 N   0  0  0  0  0  0  0  0  0  0  0  0
   40.5810   36.1160   41.0210 C   0  0  0  0  0  0  0  0  0  0  0  0
   41.5610   35.3920   41.4930 N   0  0  0  0  0  0  0  0  0  0  0  0
   44.4070   33.5340   39.9930 C   0  0  0  0  0  0  0  0  0  0  0  0
   44.4360   34.7810   42.0570 C   0  0  0  0  0  0  0  0  0  0  0  0
   44.4750   34.3160   43.4760 C   0  0  2  0  0  0  0  0  0  0  0  0
   44.9460   35.2150   44.5300 C   0  0  0  0  0  0  0  0  0  0  0  0
   45.8130   34.0800   44.0700 C   0  0  1  0  0  0  0  0  0  0  0  0
   46.0760   33.1000   45.0860 N   0  0  0  0  0  0  0  0  0  0  0  0
   46.6600   33.2820   46.2820 N   0  0  0  0  0  0  0  0  0  0  0  0
   46.7120   32.1140   46.9390 C   0  0  0  0  0  0  0  0  0  0  0  0
   46.1480   31.2110   46.1190 C   0  0  0  0  0  0  0  0  0  0  0  0
   45.7360   31.8360   44.9270 C   0  0  0  0  0  0  0  0  0  0  0  0
   45.1270   31.1150   43.9210 N   0  0  0  0  0  0  0  0  0  0  0  0
   43.1960   32.6430   41.8540 C   0  0  0  0  0  0  0  0  0  0  0  0
   41.8590   32.1660   41.9010 N   0  0  0  0  0  0  0  0  0  0  0  0
   41.7800   30.7350   41.7150 C   0  0  0  0  0  0  0  0  0  0  0  0
   41.0910   30.1360   40.8540 O   0  0  0  0  0  0  0  0  0  0  0  0
   42.4770   29.8540   42.4920 O   0  0  0  0  0  0  0  0  0  0  0  0
   41.8240   29.4210   43.6460 C   0  0  0  0  0  0  0  0  0  0  0  0
   42.1500   28.5190   44.5920 N   0  0  0  0  0  0  0  0  0  0  0  0
   41.2130   28.4550   45.4920 O   0  0  0  0  0  0  0  0  0  0  0  0
   40.2420   29.2850   45.1990 C   0  0  0  0  0  0  0  0  0  0  0  0
   40.6070   29.8810   44.0710 N   0  0  0  0  0  0  0  0  0  0  0  0
   42.9750   34.2597   38.7305 H   0  0  0  0  0  0  0  0  0  0  0  0
   41.1031   35.6434   37.7612 H   0  0  0  0  0  0  0  0  0  0  0  0
   39.8978   36.6442   41.7024 H   0  0  0  0  0  0  0  0  0  0  0  0
   45.3721   33.1238   40.3252 H   0  0  0  0  0  0  0  0  0  0  0  0
   43.8781   32.7829   39.3879 H   0  0  0  0  0  0  0  0  0  0  0  0
   44.5807   34.4361   39.3879 H   0  0  0  0  0  0  0  0  0  0  0  0
   45.4587   34.7762   41.6520 H   0  0  0  0  0  0  0  0  0  0  0  0
   44.0102   35.7951   42.0399 H   0  0  0  0  0  0  0  0  0  0  0  0
   43.5550   33.7274   43.3447 H   0  0  0  0  0  0  0  0  0  0  0  0
   45.2218   36.2516   44.2861 H   0  0  0  0  0  0  0  0  0  0  0  0
   44.5519   35.5483   45.5014 H   0  0  0  0  0  0  0  0  0  0  0  0
   46.7945   33.9036   43.6057 H   0  0  0  0  0  0  0  0  0  0  0  0
   47.1294   31.9329   47.9405 H   0  0  0  0  0  0  0  0  0  0  0  0
   46.0263   30.1415   46.3458 H   0  0  0  0  0  0  0  0  0  0  0  0
   44.9654   30.1044   44.0370 H   0  0  0  0  0  0  0  0  0  0  0  0
   44.8339   31.5872   43.0538 H   0  0  0  0  0  0  0  0  0  0  0  0
   43.7823   31.8553   41.3582 H   0  0  0  0  0  0  0  0  0  0  0  0
   43.3836   32.8811   42.9114 H   0  0  0  0  0  0  0  0  0  0  0  0
   41.0390   32.7711   42.0506 H   0  0  0  0  0  0  0  0  0  0  0  0
   39.3167   29.4527   45.7696 H   0  0  0  0  0  0  0  0  0  0  0  0
  1  8  1  6
  1 19  1  0
  1  9  1  0
  2  1  1  0
  2  7  1  0
  3  2  2  0
  4  3  1  0
  4  5  2  0
  5  6  1  0
  6  7  2  0
  9 10  1  0
 10 12  1  0
 10 11  1  0
 12 11  1  0
 12 13  1  0
 13 14  1  0
 14 15  2  0
 16 15  1  0
 17 13  1  0
 17 16  2  0
 18 17  1  0
 19 20  1  0
 21 20  1  0
 21 23  1  0
 22 21  2  0
 23 24  1  0
 24 28  1  0
 24 25  2  0
 25 26  1  0
 27 26  1  0
 28 27  2  0
  3 29  1  0
  4 30  1  0
  6 31  1  0
  8 32  1  0
  8 33  1  0
  8 34  1  0
  9 35  1  0
  9 36  1  0
 10 37  1  1
 11 38  1  0
 11 39  1  0
 12 40  1  6
 15 41  1  0
 16 42  1  0
 18 43  1  0
 18 44  1  0
 19 45  1  0
 19 46  1  0
 20 47  1  0
 27 48  1  0
M  ISO  8  29  14  30  14  31  14  32   8  33   8  34   8  35   8  36   8
M  ISO  8  37  13  38  13  39  13  40  13  41  14  42  14  45   8  46   8
M  ISO  1  48  14
M  END
>  <minimizedAffinity>  (1) 
-5.05120897

>  <minimizedRMSD>  (1) 
1.52479053

$$$$
