
     RDKit          3D

 36 39  0  0  1  0  0  0  0  0999 V2000
   44.6390   35.6730   44.8880 C   0  0  0  0  0  0  0  0  0  0  0  0
   45.1000   35.5040   43.5370 C   0  0  0  0  0  0  0  0  0  0  0  0
   45.7980   34.3410   43.2400 C   0  0  0  0  0  0  0  0  0  0  0  0
   46.0100   33.4310   44.2360 N   0  0  0  0  0  0  0  0  0  0  0  0
   45.5550   33.6380   45.4900 C   0  0  0  0  0  0  0  0  0  0  0  0
   44.8780   34.7400   45.8220 N   0  0  0  0  0  0  0  0  0  0  0  0
   45.8090   32.6350   46.5220 N   0  0  0  0  0  0  0  0  0  0  0  0
   45.3280   32.8400   47.8750 C   0  0  0  0  0  0  0  0  0  0  0  0
   46.2690   32.2930   48.9100 C   0  0  0  0  0  0  0  0  0  0  0  0
   47.6110   32.0420   48.3010 C   0  0  0  0  0  0  0  0  0  0  0  0
   47.4120   30.9310   47.2720 C   0  0  0  0  0  0  0  0  0  0  0  0
   46.5510   31.4350   46.1720 C   0  0  1  0  0  0  0  0  0  0  0  0
   45.6500   30.3880   45.6040 C   0  0  0  0  0  0  0  0  0  0  0  0
   45.4280   30.0630   44.3310 N   0  0  0  0  0  0  0  0  0  0  0  0
   44.5910   29.0950   44.2070 O   0  0  0  0  0  0  0  0  0  0  0  0
   44.2250   28.7420   45.4290 C   0  0  0  0  0  0  0  0  0  0  0  0
   44.8660   29.5270   46.2950 N   0  0  0  0  0  0  0  0  0  0  0  0
   43.2750   27.6720   45.7690 C   0  0  0  0  0  0  0  0  0  0  0  0
   41.9410   27.5840   45.1850 C   0  0  0  0  0  0  0  0  0  0  0  0
   41.2250   26.1010   45.9470 S   0  0  0  0  0  0  0  0  0  0  0  0
   42.8160   25.8170   46.9360 C   0  0  0  0  0  0  0  0  0  0  0  0
   43.4760   26.6880   46.6040 N   0  0  0  0  0  0  0  0  0  0  0  0
   44.0816   36.5814   45.1603 H   0  0  0  0  0  0  0  0  0  0  0  0
   44.9072   36.2666   42.7681 H   0  0  0  0  0  0  0  0  0  0  0  0
   46.1728   34.1563   42.2225 H   0  0  0  0  0  0  0  0  0  0  0  0
   45.2051   33.9197   48.0457 H   0  0  0  0  0  0  0  0  0  0  0  0
   44.3732   32.3030   47.9748 H   0  0  0  0  0  0  0  0  0  0  0  0
   46.3712   33.0197   49.7294 H   0  0  0  0  0  0  0  0  0  0  0  0
   45.8665   31.3459   49.2986 H   0  0  0  0  0  0  0  0  0  0  0  0
   47.9835   32.9535   47.8106 H   0  0  0  0  0  0  0  0  0  0  0  0
   48.3493   31.7538   49.0638 H   0  0  0  0  0  0  0  0  0  0  0  0
   48.3878   30.6263   46.8657 H   0  0  0  0  0  0  0  0  0  0  0  0
   46.9320   30.0647   47.7506 H   0  0  0  0  0  0  0  0  0  0  0  0
   47.2567   31.7190   45.3774 H   0  0  0  0  0  0  0  0  0  0  0  0
   41.4766   28.2603   44.4522 H   0  0  0  0  0  0  0  0  0  0  0  0
   43.0465   25.0138   47.6513 H   0  0  0  0  0  0  0  0  0  0  0  0
  1  6  2  0
  2  1  1  0
  3  2  2  0
  3  4  1  0
  4  5  2  0
  5  6  1  0
  5  7  1  0
  7  8  1  0
  8  9  1  0
 10  9  1  0
 11 10  1  0
 12  7  1  0
 12 11  1  0
 13 12  1  0
 13 17  1  0
 14 13  2  0
 15 14  1  0
 15 16  1  0
 16 18  1  0
 16 17  2  0
 18 22  1  0
 19 18  2  0
 19 20  1  0
 20 21  1  0
 22 21  2  0
  1 23  1  0
  2 24  1  0
  3 25  1  0
  8 26  1  0
  8 27  1  0
  9 28  1  0
  9 29  1  0
 10 30  1  0
 10 31  1  0
 11 32  1  0
 11 33  1  0
 12 34  1  6
 19 35  1  0
 21 36  1  0
M  ISO  8  23  14  24  14  25  14  26  13  27  13  28  13  29  13  30  13
M  ISO  6  31  13  32  13  33  13  34  13  35  14  36  14
M  END
>  <minimizedAffinity>  (1) 
-5.48188496

>  <minimizedRMSD>  (1) 
0.564813733

$$$$
