
     RDKit          3D

 30 31  0  0  0  0  0  0  0  0999 V2000
   45.6910   34.4490   43.7940 C   0  0  0  0  0  0  0  0  0  0  0  0
   45.7060   33.5480   44.9320 C   0  0  0  0  0  0  0  0  0  0  0  0
   46.0800   32.2380   44.6220 C   0  0  0  0  0  0  0  0  0  0  0  0
   46.1360   31.2760   45.6230 C   0  0  0  0  0  0  0  0  0  0  0  0
   45.8120   31.6730   46.9000 N   0  0  0  0  0  0  0  0  0  0  0  0
   45.4510   32.9470   47.1800 C   0  0  0  0  0  0  0  0  0  0  0  0
   45.4030   33.8570   46.2050 N   0  0  0  0  0  0  0  0  0  0  0  0
   46.6030   29.5880   45.3200 S   0  0  0  0  0  0  0  0  0  0  0  0
   45.8130   33.7230   42.4630 C   0  0  0  0  0  0  0  0  0  0  0  0
   47.0640   33.9170   41.8040 N   0  0  0  0  0  0  0  0  0  0  0  0
   46.7900   33.9540   40.3810 C   0  0  0  0  0  0  0  0  0  0  0  0
   48.0520   34.2470   39.5970 C   0  0  0  0  0  0  0  0  0  0  0  0
   48.5820   35.4390   40.0240 O   0  0  0  0  0  0  0  0  0  0  0  0
   48.8630   35.5210   41.3630 C   0  0  0  0  0  0  0  0  0  0  0  0
   47.7170   35.1260   42.2650 C   0  0  0  0  0  0  0  0  0  0  0  0
   44.7446   35.0097   43.8026 H   0  0  0  0  0  0  0  0  0  0  0  0
   46.5618   35.1145   43.8882 H   0  0  0  0  0  0  0  0  0  0  0  0
   46.3301   31.9682   43.5854 H   0  0  0  0  0  0  0  0  0  0  0  0
   45.1971   33.2325   48.2115 H   0  0  0  0  0  0  0  0  0  0  0  0
   46.7817   28.9421   46.5149 H   0  0  0  0  0  0  0  0  0  0  0  0
   45.6817   32.6460   42.6441 H   0  0  0  0  0  0  0  0  0  0  0  0
   45.0392   34.1412   41.8024 H   0  0  0  0  0  0  0  0  0  0  0  0
   46.3879   32.9798   40.0659 H   0  0  0  0  0  0  0  0  0  0  0  0
   46.0594   34.7523   40.1836 H   0  0  0  0  0  0  0  0  0  0  0  0
   47.8123   34.3137   38.5255 H   0  0  0  0  0  0  0  0  0  0  0  0
   48.7820   33.4397   39.7564 H   0  0  0  0  0  0  0  0  0  0  0  0
   49.7142   34.8581   41.5774 H   0  0  0  0  0  0  0  0  0  0  0  0
   49.0800   36.5784   41.5748 H   0  0  0  0  0  0  0  0  0  0  0  0
   46.9810   35.9433   42.2849 H   0  0  0  0  0  0  0  0  0  0  0  0
   48.1216   34.9353   43.2699 H   0  0  0  0  0  0  0  0  0  0  0  0
  1  2  1  0
  2  7  1  0
  3  2  2  0
  3  4  1  0
  4  5  2  0
  5  6  1  0
  7  6  2  0
  8  4  1  0
  9  1  1  0
 10 15  1  0
 10  9  1  0
 11 10  1  0
 12 13  1  0
 12 11  1  0
 13 14  1  0
 14 15  1  0
  1 16  1  0
  1 17  1  0
  3 18  1  0
  6 19  1  0
  8 20  1  0
  9 21  1  0
  9 22  1  0
 11 23  1  0
 11 24  1  0
 12 25  1  0
 12 26  1  0
 14 27  1  0
 14 28  1  0
 15 29  1  0
 15 30  1  0
M  ISO  8  16   8  17   8  18  14  19  14  20  11  21   8  22   8  23  13
M  ISO  7  24  13  25  13  26  13  27  13  28  13  29  13  30  13
M  END
>  <minimizedAffinity>  (1) 
-3.65428925

>  <minimizedRMSD>  (1) 
2.73256302

$$$$
