
     RDKit          3D

 24 25  0  0  0  0  0  0  0  0999 V2000
   46.1270   34.0480   44.3850 C   0  0  0  0  0  0  0  0  0  0  0  0
   46.1140   33.2170   45.5860 C   0  0  0  0  0  0  0  0  0  0  0  0
   46.9580   32.1070   45.5530 C   0  0  0  0  0  0  0  0  0  0  0  0
   47.0040   31.2700   46.6530 C   0  0  0  0  0  0  0  0  0  0  0  0
   46.2150   31.5640   47.7410 N   0  0  0  0  0  0  0  0  0  0  0  0
   45.4080   32.6530   47.7320 C   0  0  0  0  0  0  0  0  0  0  0  0
   45.3550   33.4760   46.6630 N   0  0  0  0  0  0  0  0  0  0  0  0
   48.0490   29.8350   46.6950 S   0  0  0  0  0  0  0  0  0  0  0  0
   46.7730   33.3300   43.2260 C   0  0  0  0  0  0  0  0  0  0  0  0
   47.8730   34.1760   42.7240 N   0  0  0  0  0  0  0  0  0  0  0  0
   49.1510   34.1340   43.0300 N   0  0  0  0  0  0  0  0  0  0  0  0
   49.8330   35.0750   42.3590 C   0  0  0  0  0  0  0  0  0  0  0  0
   48.9400   35.7670   41.5700 C   0  0  0  0  0  0  0  0  0  0  0  0
   47.7210   35.1700   41.8310 C   0  0  0  0  0  0  0  0  0  0  0  0
   45.0916   34.3037   44.1154 H   0  0  0  0  0  0  0  0  0  0  0  0
   46.7103   34.9559   44.5984 H   0  0  0  0  0  0  0  0  0  0  0  0
   47.5765   31.9008   44.6671 H   0  0  0  0  0  0  0  0  0  0  0  0
   44.7847   32.8703   48.6119 H   0  0  0  0  0  0  0  0  0  0  0  0
   48.2998   29.4906   47.9971 H   0  0  0  0  0  0  0  0  0  0  0  0
   47.1703   32.3607   43.5615 H   0  0  0  0  0  0  0  0  0  0  0  0
   46.0362   33.1475   42.4298 H   0  0  0  0  0  0  0  0  0  0  0  0
   50.9150   35.2612   42.4269 H   0  0  0  0  0  0  0  0  0  0  0  0
   49.1496   36.6040   40.8877 H   0  0  0  0  0  0  0  0  0  0  0  0
   46.7648   35.4652   41.3743 H   0  0  0  0  0  0  0  0  0  0  0  0
  1  2  1  0
  2  7  1  0
  3  2  2  0
  3  4  1  0
  4  8  1  0
  4  5  2  0
  6  5  1  0
  7  6  2  0
  9  1  1  0
 10 11  1  0
 10  9  1  0
 12 11  2  0
 13 14  2  0
 13 12  1  0
 14 10  1  0
  1 15  1  0
  1 16  1  0
  3 17  1  0
  6 18  1  0
  8 19  1  0
  9 20  1  0
  9 21  1  0
 12 22  1  0
 13 23  1  0
 14 24  1  0
M  ISO  8  15   8  16   8  17  14  18  14  19  11  20   8  21   8  22  14
M  ISO  2  23  14  24  14
M  END
>  <minimizedAffinity>  (1) 
-3.96682119

>  <minimizedRMSD>  (1) 
4.45512867

$$$$
