
     RDKit          3D

 32 33  0  0  0  0  0  0  0  0999 V2000
   47.3420   31.8030   44.7330 C   0  0  0  0  0  0  0  0  0  0  0  0
   47.3880   32.9590   43.8360 C   0  0  0  0  0  0  0  0  0  0  0  0
   46.3060   33.8410   43.9160 C   0  0  0  0  0  0  0  0  0  0  0  0
   46.3010   34.9510   43.0900 C   0  0  0  0  0  0  0  0  0  0  0  0
   47.3440   35.1450   42.2330 N   0  0  0  0  0  0  0  0  0  0  0  0
   48.3790   34.2710   42.1790 C   0  0  0  0  0  0  0  0  0  0  0  0
   48.3980   33.1840   42.9770 N   0  0  0  0  0  0  0  0  0  0  0  0
   44.9590   36.1110   43.1370 S   0  0  0  0  0  0  0  0  0  0  0  0
   46.0540   31.7790   45.5210 C   0  0  0  0  0  0  0  0  0  0  0  0
   46.2280   31.7740   46.9450 N   0  0  0  0  0  0  0  0  0  0  0  0
   47.4990   31.4900   47.4660 C   0  0  0  0  0  0  0  0  0  0  0  0
   47.3080   31.2220   48.9670 C   0  0  0  0  0  0  0  0  0  0  0  0
   45.9010   30.6840   49.2140 C   0  0  0  0  0  0  0  0  0  0  0  0
   44.8530   31.7350   48.8860 C   0  0  0  0  0  0  0  0  0  0  0  0
   45.3420   32.5720   47.7080 C   0  0  0  0  0  0  0  0  0  0  0  0
   48.1900   31.8561   45.4317 H   0  0  0  0  0  0  0  0  0  0  0  0
   47.3984   30.8870   44.1266 H   0  0  0  0  0  0  0  0  0  0  0  0
   45.4794   33.6570   44.6181 H   0  0  0  0  0  0  0  0  0  0  0  0
   49.2089   34.4497   41.4795 H   0  0  0  0  0  0  0  0  0  0  0  0
   44.6395   36.3872   44.4403 H   0  0  0  0  0  0  0  0  0  0  0  0
   45.4684   32.6697   45.2495 H   0  0  0  0  0  0  0  0  0  0  0  0
   45.5476   30.8368   45.2643 H   0  0  0  0  0  0  0  0  0  0  0  0
   47.9218   30.6024   46.9727 H   0  0  0  0  0  0  0  0  0  0  0  0
   48.1930   32.3267   47.2974 H   0  0  0  0  0  0  0  0  0  0  0  0
   48.0480   30.4812   49.3041 H   0  0  0  0  0  0  0  0  0  0  0  0
   47.4452   32.1590   49.5266 H   0  0  0  0  0  0  0  0  0  0  0  0
   45.7365   29.8009   48.5791 H   0  0  0  0  0  0  0  0  0  0  0  0
   45.8089   30.4156   50.2768 H   0  0  0  0  0  0  0  0  0  0  0  0
   43.9063   31.2418   48.6204 H   0  0  0  0  0  0  0  0  0  0  0  0
   44.6894   32.3826   49.7600 H   0  0  0  0  0  0  0  0  0  0  0  0
   45.8672   33.4654   48.0768 H   0  0  0  0  0  0  0  0  0  0  0  0
   44.4919   32.8980   47.0907 H   0  0  0  0  0  0  0  0  0  0  0  0
  1  9  1  0
  2  3  2  0
  2  1  1  0
  4  8  1  0
  4  3  1  0
  5  4  2  0
  6  5  1  0
  6  7  2  0
  7  2  1  0
  9 10  1  0
 10 11  1  0
 10 15  1  0
 11 12  1  0
 12 13  1  0
 14 13  1  0
 15 14  1  0
  1 16  1  0
  1 17  1  0
  3 18  1  0
  6 19  1  0
  8 20  1  0
  9 21  1  0
  9 22  1  0
 11 23  1  0
 11 24  1  0
 12 25  1  0
 12 26  1  0
 13 27  1  0
 13 28  1  0
 14 29  1  0
 14 30  1  0
 15 31  1  0
 15 32  1  0
M  ISO  8  16   8  17   8  18  14  19  14  20  11  21   8  22   8  23  13
M  ISO  8  24  13  25  13  26  13  27  13  28  13  29  13  30  13  31  13
M  ISO  1  32  13
M  END
>  <minimizedAffinity>  (1) 
-4.04235029

>  <minimizedRMSD>  (1) 
6.94222689

$$$$
