
     RDKit          3D

 24 25  0  0  0  0  0  0  0  0999 V2000
   45.4450   33.8440   46.0620 C   0  0  0  0  0  0  0  0  0  0  0  0
   46.3510   33.4100   45.0950 C   0  0  0  0  0  0  0  0  0  0  0  0
   46.4320   34.1050   43.9020 C   0  0  0  0  0  0  0  0  0  0  0  0
   45.6220   35.1900   43.7170 N   0  0  0  0  0  0  0  0  0  0  0  0
   44.7530   35.5840   44.6780 C   0  0  0  0  0  0  0  0  0  0  0  0
   44.6710   34.9170   45.8320 N   0  0  0  0  0  0  0  0  0  0  0  0
   45.4090   33.0640   47.2970 C   0  0  0  0  0  0  0  0  0  0  0  0
   46.7280   32.3640   47.5230 C   0  0  0  0  0  0  0  0  0  0  0  0
   46.4790   31.2990   48.5830 C   0  0  0  0  0  0  0  0  0  0  0  0
   45.3150   31.3630   49.4870 C   0  0  0  0  0  0  0  0  0  0  0  0
   45.3810   30.2960   48.4050 C   0  0  0  0  0  0  0  0  0  0  0  0
   47.5610   33.6150   42.6230 S   0  0  0  0  0  0  0  0  0  0  0  0
   46.9886   32.5324   45.2774 H   0  0  0  0  0  0  0  0  0  0  0  0
   44.1100   36.4599   44.5068 H   0  0  0  0  0  0  0  0  0  0  0  0
   45.2072   33.7367   48.1436 H   0  0  0  0  0  0  0  0  0  0  0  0
   44.6155   32.3067   47.2148 H   0  0  0  0  0  0  0  0  0  0  0  0
   47.0746   31.8967   46.5895 H   0  0  0  0  0  0  0  0  0  0  0  0
   47.5033   33.0735   47.8478 H   0  0  0  0  0  0  0  0  0  0  0  0
   47.5655   31.2407   48.7445 H   0  0  0  0  0  0  0  0  0  0  0  0
   45.4238   31.0813   50.5447 H   0  0  0  0  0  0  0  0  0  0  0  0
   44.5907   32.1414   49.7690 H   0  0  0  0  0  0  0  0  0  0  0  0
   44.7160   30.3517   47.5305 H   0  0  0  0  0  0  0  0  0  0  0  0
   45.3152   29.1983   48.3778 H   0  0  0  0  0  0  0  0  0  0  0  0
   48.7052   33.1184   43.1896 H   0  0  0  0  0  0  0  0  0  0  0  0
  1  7  1  0
  2  1  2  0
  3  2  1  0
  4  3  2  0
  4  5  1  0
  5  6  2  0
  6  1  1  0
  7  8  1  0
  8  9  1  0
  9 10  1  0
 11  9  1  0
 11 10  1  0
 12  3  1  0
  2 13  1  0
  5 14  1  0
  7 15  1  0
  7 16  1  0
  8 17  1  0
  8 18  1  0
  9 19  1  0
 10 20  1  0
 10 21  1  0
 11 22  1  0
 11 23  1  0
 12 24  1  0
M  ISO  8  13  14  14  14  15   8  16   8  17   8  18   8  19  13  20  13
M  ISO  4  21  13  22  13  23  13  24  11
M  END
>  <minimizedAffinity>  (1) 
-4.07647991

>  <minimizedRMSD>  (1) 
5.58673716

$$$$
