
     RDKit          3D

 24 25  0  0  0  0  0  0  0  0999 V2000
   44.2660   35.7730   42.0060 C   0  0  0  0  0  0  0  0  0  0  0  0
   44.6120   35.2600   43.3240 C   0  0  0  0  0  0  0  0  0  0  0  0
   45.3550   34.0780   43.3320 C   0  0  0  0  0  0  0  0  0  0  0  0
   45.7310   33.5190   44.5380 C   0  0  0  0  0  0  0  0  0  0  0  0
   45.3570   34.1530   45.6860 N   0  0  0  0  0  0  0  0  0  0  0  0
   44.6340   35.3030   45.6490 C   0  0  0  0  0  0  0  0  0  0  0  0
   44.2730   35.8390   44.4870 N   0  0  0  0  0  0  0  0  0  0  0  0
   46.6720   32.0190   44.6350 S   0  0  0  0  0  0  0  0  0  0  0  0
   43.6240   34.7170   41.1520 C   0  0  0  0  0  0  0  0  0  0  0  0
   42.3090   35.1300   40.6830 N   0  0  0  0  0  0  0  0  0  0  0  0
   41.8270   35.1010   39.4170 C   0  0  0  0  0  0  0  0  0  0  0  0
   40.5470   35.5700   39.3750 C   0  0  0  0  0  0  0  0  0  0  0  0
   40.2400   35.8910   40.6350 N   0  0  0  0  0  0  0  0  0  0  0  0
   41.2860   35.6310   41.4270 C   0  0  0  0  0  0  0  0  0  0  0  0
   43.5649   36.6126   42.1226 H   0  0  0  0  0  0  0  0  0  0  0  0
   45.1920   36.1000   41.5104 H   0  0  0  0  0  0  0  0  0  0  0  0
   45.6389   33.5955   42.3851 H   0  0  0  0  0  0  0  0  0  0  0  0
   44.3447   35.7951   46.5893 H   0  0  0  0  0  0  0  0  0  0  0  0
   46.8768   31.6926   45.9497 H   0  0  0  0  0  0  0  0  0  0  0  0
   44.2679   34.5222   40.2817 H   0  0  0  0  0  0  0  0  0  0  0  0
   43.5013   33.8101   41.7623 H   0  0  0  0  0  0  0  0  0  0  0  0
   42.3915   34.7472   38.5417 H   0  0  0  0  0  0  0  0  0  0  0  0
   39.9021   35.6643   38.4888 H   0  0  0  0  0  0  0  0  0  0  0  0
   41.3148   35.7969   42.5140 H   0  0  0  0  0  0  0  0  0  0  0  0
  1  2  1  0
  2  3  2  0
  2  7  1  0
  3  4  1  0
  4  8  1  0
  4  5  2  0
  6  5  1  0
  7  6  2  0
  9  1  1  0
 10  9  1  0
 10 14  1  0
 11 10  1  0
 12 11  2  0
 12 13  1  0
 13 14  2  0
  1 15  1  0
  1 16  1  0
  3 17  1  0
  6 18  1  0
  8 19  1  0
  9 20  1  0
  9 21  1  0
 11 22  1  0
 12 23  1  0
 14 24  1  0
M  ISO  8  15   8  16   8  17  14  18  14  19  11  20   8  21   8  22  14
M  ISO  2  23  14  24  14
M  END
>  <minimizedAffinity>  (1) 
-4.17502737

>  <minimizedRMSD>  (1) 
3.31860638

$$$$
