
     RDKit          3D

 33 35  0  0  1  0  0  0  0  0999 V2000
   44.6290   35.7630   44.9140 C   0  0  0  0  0  0  0  0  0  0  0  0
   45.1930   35.6560   43.6050 C   0  0  0  0  0  0  0  0  0  0  0  0
   45.9460   34.5350   43.3190 C   0  0  0  0  0  0  0  0  0  0  0  0
   46.1050   33.5990   44.3020 N   0  0  0  0  0  0  0  0  0  0  0  0
   45.5660   33.7300   45.5100 C   0  0  0  0  0  0  0  0  0  0  0  0
   44.8330   34.8030   45.8170 N   0  0  0  0  0  0  0  0  0  0  0  0
   45.7740   32.6990   46.5250 N   0  0  0  0  0  0  0  0  0  0  0  0
   45.1790   32.8310   47.8340 C   0  0  0  0  0  0  0  0  0  0  0  0
   46.0530   32.2810   48.9260 C   0  0  0  0  0  0  0  0  0  0  0  0
   47.4460   32.0980   48.4210 C   0  0  0  0  0  0  0  0  0  0  0  0
   47.3820   31.0240   47.3370 C   0  0  0  0  0  0  0  0  0  0  0  0
   46.5890   31.5450   46.1920 C   0  0  1  0  0  0  0  0  0  0  0  0
   45.7770   30.4840   45.5040 C   0  0  0  0  0  0  0  0  0  0  0  0
   45.7850   30.1260   44.2210 N   0  0  0  0  0  0  0  0  0  0  0  0
   44.9580   29.1560   43.9810 O   0  0  0  0  0  0  0  0  0  0  0  0
   44.3810   28.8580   45.1310 C   0  0  0  0  0  0  0  0  0  0  0  0
   44.8600   29.6600   46.1120 N   0  0  0  0  0  0  0  0  0  0  0  0
   43.3530   27.8350   45.4700 C   0  0  0  0  0  0  0  0  0  0  0  0
   43.2170   26.9040   44.4540 F   0  0  0  0  0  0  0  0  0  0  0  0
   42.0940   28.4280   45.5980 F   0  0  0  0  0  0  0  0  0  0  0  0
   43.6110   27.2550   46.6940 F   0  0  0  0  0  0  0  0  0  0  0  0
   44.0231   36.6423   45.1781 H   0  0  0  0  0  0  0  0  0  0  0  0
   45.0324   36.4406   42.8509 H   0  0  0  0  0  0  0  0  0  0  0  0
   46.4048   34.3990   42.3285 H   0  0  0  0  0  0  0  0  0  0  0  0
   44.9973   33.8976   48.0322 H   0  0  0  0  0  0  0  0  0  0  0  0
   44.2434   32.2524   47.8338 H   0  0  0  0  0  0  0  0  0  0  0  0
   46.0619   32.9821   49.7735 H   0  0  0  0  0  0  0  0  0  0  0  0
   45.6558   31.3081   49.2511 H   0  0  0  0  0  0  0  0  0  0  0  0
   47.8231   33.0411   47.9986 H   0  0  0  0  0  0  0  0  0  0  0  0
   48.1256   31.8005   49.2332 H   0  0  0  0  0  0  0  0  0  0  0  0
   48.3998   30.7777   47.0001 H   0  0  0  0  0  0  0  0  0  0  0  0
   46.9073   30.1163   47.7380 H   0  0  0  0  0  0  0  0  0  0  0  0
   47.3447   31.8924   45.4721 H   0  0  0  0  0  0  0  0  0  0  0  0
  1  6  2  0
  2  1  1  0
  3  2  2  0
  3  4  1  0
  4  5  2  0
  5  6  1  0
  5  7  1  0
  7  8  1  0
  8  9  1  0
 10  9  1  0
 11 10  1  0
 12  7  1  0
 12 11  1  0
 13 17  1  0
 13 12  1  0
 14 13  2  0
 15 14  1  0
 15 16  1  0
 16 18  1  0
 16 17  2  0
 18 20  1  0
 18 21  1  0
 19 18  1  0
  1 22  1  0
  2 23  1  0
  3 24  1  0
  8 25  1  0
  8 26  1  0
  9 27  1  0
  9 28  1  0
 10 29  1  0
 10 30  1  0
 11 31  1  0
 11 32  1  0
 12 33  1  6
M  ISO  8  22  14  23  14  24  14  25  13  26  13  27  13  28  13  29  13
M  ISO  4  30  13  31  13  32  13  33  13
M  END
>  <minimizedAffinity>  (1) 
-5.35699272

>  <minimizedRMSD>  (1) 
0.416876376

$$$$
