
     RDKit          3D

 18 18  0  0  0  0  0  0  0  0999 V2000
   45.3850   34.4420   45.1020 C   0  0  0  0  0  0  0  0  0  0  0  0
   46.2440   34.0530   44.0730 C   0  0  0  0  0  0  0  0  0  0  0  0
   47.1040   32.9810   44.2400 C   0  0  0  0  0  0  0  0  0  0  0  0
   47.0530   32.3490   45.4500 N   0  0  0  0  0  0  0  0  0  0  0  0
   46.2220   32.7270   46.4410 C   0  0  0  0  0  0  0  0  0  0  0  0
   45.4030   33.7590   46.2630 N   0  0  0  0  0  0  0  0  0  0  0  0
   44.5450   35.5830   44.7730 C   0  0  0  0  0  0  0  0  0  0  0  0
   44.9640   36.2530   43.4740 C   0  0  0  0  0  0  0  0  0  0  0  0
   44.9470   37.6390   43.5980 O   0  0  0  0  0  0  0  0  0  0  0  0
   48.2310   32.4140   42.9930 S   0  0  0  0  0  0  0  0  0  0  0  0
   46.2376   34.6033   43.1205 H   0  0  0  0  0  0  0  0  0  0  0  0
   46.2212   32.1821   47.3966 H   0  0  0  0  0  0  0  0  0  0  0  0
   43.5047   35.2395   44.6742 H   0  0  0  0  0  0  0  0  0  0  0  0
   44.6493   36.3217   45.5814 H   0  0  0  0  0  0  0  0  0  0  0  0
   44.2688   35.9550   42.6753 H   0  0  0  0  0  0  0  0  0  0  0  0
   45.9891   35.9360   43.2317 H   0  0  0  0  0  0  0  0  0  0  0  0
   44.9440   37.8845   44.5571 H   0  0  0  0  0  0  0  0  0  0  0  0
   49.3323   31.8599   43.5906 H   0  0  0  0  0  0  0  0  0  0  0  0
  1  6  2  0
  2  3  2  0
  2  1  1  0
  3  4  1  0
  4  5  2  0
  6  5  1  0
  7  1  1  0
  8  9  1  0
  8  7  1  0
 10  3  1  0
  2 11  1  0
  5 12  1  0
  7 13  1  0
  7 14  1  0
  8 15  1  0
  8 16  1  0
  9 17  1  0
 10 18  1  0
M  ISO  8  11  14  12  14  13   8  14   8  15   8  16   8  17   3  18  11
M  END
>  <minimizedAffinity>  (1) 
-3.48898315

>  <minimizedRMSD>  (1) 
0.573910356

$$$$
