
     RDKit          3D

 24 25  0  0  0  0  0  0  0  0999 V2000
   45.5630   34.8130   43.6980 C   0  0  0  0  0  0  0  0  0  0  0  0
   45.6760   33.7610   44.7060 C   0  0  0  0  0  0  0  0  0  0  0  0
   45.9850   32.4890   44.2230 C   0  0  0  0  0  0  0  0  0  0  0  0
   46.1180   31.4270   45.0990 C   0  0  0  0  0  0  0  0  0  0  0  0
   45.9350   31.6840   46.4240 N   0  0  0  0  0  0  0  0  0  0  0  0
   45.6330   32.9300   46.8740 C   0  0  0  0  0  0  0  0  0  0  0  0
   45.5070   33.9470   46.0270 N   0  0  0  0  0  0  0  0  0  0  0  0
   46.5080   29.7850   44.5630 S   0  0  0  0  0  0  0  0  0  0  0  0
   45.4450   34.2240   42.3150 C   0  0  0  0  0  0  0  0  0  0  0  0
   46.6600   34.5120   41.4980 C   0  0  0  0  0  0  0  0  0  0  0  0
   47.7880   35.1630   41.9430 C   0  0  0  0  0  0  0  0  0  0  0  0
   48.6280   35.2060   40.8870 N   0  0  0  0  0  0  0  0  0  0  0  0
   48.0370   34.6110   39.8600 C   0  0  0  0  0  0  0  0  0  0  0  0
   46.8270   34.1740   40.2000 N   0  0  0  0  0  0  0  0  0  0  0  0
   44.6694   35.4189   43.9087 H   0  0  0  0  0  0  0  0  0  0  0  0
   46.4686   35.4362   43.7380 H   0  0  0  0  0  0  0  0  0  0  0  0
   46.1231   32.3305   43.1433 H   0  0  0  0  0  0  0  0  0  0  0  0
   45.4911   33.0992   47.9516 H   0  0  0  0  0  0  0  0  0  0  0  0
   46.6989   28.9811   45.6558 H   0  0  0  0  0  0  0  0  0  0  0  0
   45.3196   33.1344   42.3990 H   0  0  0  0  0  0  0  0  0  0  0  0
   44.5758   34.6783   41.8170 H   0  0  0  0  0  0  0  0  0  0  0  0
   47.9679   35.5652   42.9509 H   0  0  0  0  0  0  0  0  0  0  0  0
   48.4859   34.4945   38.8626 H   0  0  0  0  0  0  0  0  0  0  0  0
   46.1546   33.6790   39.5969 H   0  0  0  0  0  0  0  0  0  0  0  0
  1  2  1  0
  2  7  1  0
  3  2  2  0
  3  4  1  0
  4  5  2  0
  5  6  1  0
  7  6  2  0
  8  4  1  0
  9  1  1  0
 10 11  2  0
 10  9  1  0
 12 11  1  0
 13 14  1  0
 13 12  2  0
 14 10  1  0
  1 15  1  0
  1 16  1  0
  3 17  1  0
  6 18  1  0
  8 19  1  0
  9 20  1  0
  9 21  1  0
 11 22  1  0
 13 23  1  0
 14 24  1  0
M  ISO  8  15   8  16   8  17  14  18  14  19  11  20   8  21   8  22  14
M  ISO  2  23  14  24   9
M  END
>  <minimizedAffinity>  (1) 
-3.59099793

>  <minimizedRMSD>  (1) 
3.90428686

$$$$
