
     RDKit          3D

 22 23  0  0  0  0  0  0  0  0999 V2000
   46.7920   33.3110   44.7730 C   0  0  0  0  0  0  0  0  0  0  0  0
   45.9930   33.5830   43.5850 C   0  0  0  0  0  0  0  0  0  0  0  0
   44.9660   32.6720   43.3360 C   0  0  0  0  0  0  0  0  0  0  0  0
   44.1610   32.8650   42.2310 C   0  0  0  0  0  0  0  0  0  0  0  0
   44.3960   33.9380   41.4240 N   0  0  0  0  0  0  0  0  0  0  0  0
   45.4130   34.8080   41.7020 C   0  0  0  0  0  0  0  0  0  0  0  0
   46.1910   34.6270   42.7640 N   0  0  0  0  0  0  0  0  0  0  0  0
   42.8320   31.7640   41.8210 S   0  0  0  0  0  0  0  0  0  0  0  0
   45.9680   33.4250   46.0240 C   0  0  0  0  0  0  0  0  0  0  0  0
   46.4390   32.4980   47.0890 C   0  0  0  0  0  0  0  0  0  0  0  0
   45.7320   31.3810   47.3620 N   0  0  0  0  0  0  0  0  0  0  0  0
   46.3210   30.7360   48.3110 O   0  0  0  0  0  0  0  0  0  0  0  0
   47.3870   31.3740   48.6820 C   0  0  0  0  0  0  0  0  0  0  0  0
   47.4890   32.4930   47.9270 N   0  0  0  0  0  0  0  0  0  0  0  0
   47.6191   34.0346   44.8217 H   0  0  0  0  0  0  0  0  0  0  0  0
   47.1772   32.2830   44.7040 H   0  0  0  0  0  0  0  0  0  0  0  0
   44.8008   31.8163   44.0072 H   0  0  0  0  0  0  0  0  0  0  0  0
   45.5894   35.6678   41.0390 H   0  0  0  0  0  0  0  0  0  0  0  0
   42.2600   31.2901   42.9721 H   0  0  0  0  0  0  0  0  0  0  0  0
   46.0318   34.4574   46.3983 H   0  0  0  0  0  0  0  0  0  0  0  0
   44.9314   33.1556   45.7735 H   0  0  0  0  0  0  0  0  0  0  0  0
   48.0859   31.0610   49.4717 H   0  0  0  0  0  0  0  0  0  0  0  0
  1  9  1  0
  2  1  1  0
  3  2  2  0
  4  3  1  0
  5  6  1  0
  5  4  2  0
  6  7  2  0
  7  2  1  0
  8  4  1  0
  9 10  1  0
 10 11  2  0
 10 14  1  0
 11 12  1  0
 12 13  1  0
 14 13  2  0
  1 15  1  0
  1 16  1  0
  3 17  1  0
  6 18  1  0
  8 19  1  0
  9 20  1  0
  9 21  1  0
 13 22  1  0
M  ISO  8  15   8  16   8  17  14  18  14  19  11  20   8  21   8  22  14
M  END
>  <minimizedAffinity>  (1) 
-3.46858001

>  <minimizedRMSD>  (1) 
6.38647699

$$$$
