
     RDKit          3D

 43 46  0  0  1  0  0  0  0  0999 V2000
   46.3430   34.2140   42.1810 N   0  0  0  0  0  0  0  0  0  0  0  0
   47.1650   35.4270   42.1830 C   0  0  0  0  0  0  0  0  0  0  0  0
   48.3850   35.1370   41.3600 C   0  0  0  0  0  0  0  0  0  0  0  0
   47.8700   34.1630   40.3280 C   0  0  0  0  0  0  0  0  0  0  0  0
   46.7170   33.4860   40.9870 C   0  0  2  0  0  0  0  0  0  0  0  0
   45.5700   33.5120   40.0970 N   0  0  0  0  0  0  0  0  0  0  0  0
   45.4380   33.0770   38.8310 C   0  0  0  0  0  0  0  0  0  0  0  0
   44.1940   33.2930   38.3650 N   0  0  0  0  0  0  0  0  0  0  0  0
   43.4950   33.8850   39.3460 C   0  0  0  0  0  0  0  0  0  0  0  0
   42.1730   34.3150   39.3850 C   0  0  0  0  0  0  0  0  0  0  0  0
   41.4450   34.1630   38.3710 O   0  0  0  0  0  0  0  0  0  0  0  0
   41.7440   34.8760   40.5110 N   0  0  0  0  0  0  0  0  0  0  0  0
   42.5850   35.0070   41.5650 C   0  0  0  0  0  0  0  0  0  0  0  0
   41.9820   35.6270   42.7050 N   0  0  0  0  0  0  0  0  0  0  0  0
   43.8730   34.5900   41.5380 N   0  0  0  0  0  0  0  0  0  0  0  0
   44.3550   34.0170   40.4180 C   0  0  0  0  0  0  0  0  0  0  0  0
   46.6310   33.4210   43.3550 C   0  0  0  0  0  0  0  0  0  0  0  0
   45.9180   34.0520   44.5450 C   0  0  0  0  0  0  0  0  0  0  0  0
   46.0000   33.1890   45.7140 C   0  0  0  0  0  0  0  0  0  0  0  0
   46.8560   32.1040   45.6370 C   0  0  0  0  0  0  0  0  0  0  0  0
   47.0200   31.2130   46.6810 C   0  0  0  0  0  0  0  0  0  0  0  0
   46.2810   31.4590   47.8200 N   0  0  0  0  0  0  0  0  0  0  0  0
   45.4510   32.5100   47.8980 C   0  0  0  0  0  0  0  0  0  0  0  0
   45.3160   33.3520   46.8670 N   0  0  0  0  0  0  0  0  0  0  0  0
   48.1180   29.8270   46.6190 S   0  0  0  0  0  0  0  0  0  0  0  0
   46.6032   36.2638   41.7423 H   0  0  0  0  0  0  0  0  0  0  0  0
   47.4439   35.7082   43.2092 H   0  0  0  0  0  0  0  0  0  0  0  0
   48.7686   36.0518   40.8845 H   0  0  0  0  0  0  0  0  0  0  0  0
   49.2243   34.7415   41.9508 H   0  0  0  0  0  0  0  0  0  0  0  0
   48.6482   33.4324   40.0620 H   0  0  0  0  0  0  0  0  0  0  0  0
   47.5789   34.6636   39.3927 H   0  0  0  0  0  0  0  0  0  0  0  0
   47.0080   32.4536   41.2308 H   0  0  0  0  0  0  0  0  0  0  0  0
   46.2442   32.6048   38.2505 H   0  0  0  0  0  0  0  0  0  0  0  0
   40.7726   35.2110   40.5822 H   0  0  0  0  0  0  0  0  0  0  0  0
   42.5333   35.7755   43.5623 H   0  0  0  0  0  0  0  0  0  0  0  0
   40.9967   35.9248   42.6683 H   0  0  0  0  0  0  0  0  0  0  0  0
   46.2694   32.3927   43.2072 H   0  0  0  0  0  0  0  0  0  0  0  0
   47.7157   33.3908   43.5354 H   0  0  0  0  0  0  0  0  0  0  0  0
   46.3893   35.0186   44.7766 H   0  0  0  0  0  0  0  0  0  0  0  0
   44.8585   34.1947   44.2859 H   0  0  0  0  0  0  0  0  0  0  0  0
   47.4271   31.9448   44.7104 H   0  0  0  0  0  0  0  0  0  0  0  0
   44.8752   32.6814   48.8195 H   0  0  0  0  0  0  0  0  0  0  0  0
   48.4295   29.4338   47.8939 H   0  0  0  0  0  0  0  0  0  0  0  0
  1  2  1  0
  1 17  1  0
  3  2  1  0
  4  5  1  0
  4  3  1  0
  5  1  1  0
  6 16  1  0
  6  5  1  0
  7  6  1  0
  8  7  2  0
  8  9  1  0
  9 10  1  0
  9 16  2  0
 10 12  1  0
 11 10  2  0
 12 13  1  0
 13 14  1  0
 15 13  2  0
 16 15  1  0
 17 18  1  0
 18 19  1  0
 19 24  1  0
 20 19  2  0
 20 21  1  0
 21 22  2  0
 22 23  1  0
 24 23  2  0
 25 21  1  0
  2 26  1  0
  2 27  1  0
  3 28  1  0
  3 29  1  0
  4 30  1  0
  4 31  1  0
  5 32  1  1
  7 33  1  0
 12 34  1  0
 14 35  1  0
 14 36  1  0
 17 37  1  0
 17 38  1  0
 18 39  1  0
 18 40  1  0
 20 41  1  0
 23 42  1  0
 25 43  1  0
M  ISO  8  26  13  27  13  28  13  29  13  30  13  31  13  32  13  33  14
M  ISO  8  34   9  37   8  38   8  39   8  40   8  41  14  42  14  43  11
M  END
>  <minimizedAffinity>  (1) 
-5.94483948

>  <minimizedRMSD>  (1) 
3.38564444

$$$$
