
     RDKit          3D

 37 40  0  0  1  0  0  0  0  0999 V2000
   44.5240   35.9520   44.8900 C   0  0  0  0  0  0  0  0  0  0  0  0
   45.0980   35.9690   43.5940 C   0  0  0  0  0  0  0  0  0  0  0  0
   45.9160   34.8930   43.2410 C   0  0  0  0  0  0  0  0  0  0  0  0
   46.1170   33.8980   44.1530 N   0  0  0  0  0  0  0  0  0  0  0  0
   45.5470   33.9350   45.3720 C   0  0  0  0  0  0  0  0  0  0  0  0
   44.7610   34.9500   45.7320 N   0  0  0  0  0  0  0  0  0  0  0  0
   45.7930   32.8520   46.3230 N   0  0  0  0  0  0  0  0  0  0  0  0
   45.1820   32.8790   47.6410 C   0  0  0  0  0  0  0  0  0  0  0  0
   46.0690   32.3000   48.6990 C   0  0  0  0  0  0  0  0  0  0  0  0
   47.4770   32.2170   48.1900 C   0  0  0  0  0  0  0  0  0  0  0  0
   47.4680   31.2150   47.0440 C   0  0  0  0  0  0  0  0  0  0  0  0
   46.6570   31.7570   45.9210 C   0  0  1  0  0  0  0  0  0  0  0  0
   45.8920   30.7020   45.1770 C   0  0  0  0  0  0  0  0  0  0  0  0
   45.6910   30.6050   43.8630 N   0  0  0  0  0  0  0  0  0  0  0  0
   44.9890   29.5490   43.5620 O   0  0  0  0  0  0  0  0  0  0  0  0
   44.7220   28.9380   44.7030 C   0  0  0  0  0  0  0  0  0  0  0  0
   45.2660   29.6260   45.7280 N   0  0  0  0  0  0  0  0  0  0  0  0
   43.9450   27.6820   44.9050 C   0  0  0  0  0  0  0  0  0  0  0  0
   43.5560   27.2920   46.2950 C   0  0  0  0  0  0  0  0  0  0  0  0
   42.4970   27.7800   45.3580 C   0  0  0  0  0  0  0  0  0  0  0  0
   43.8723   36.7805   45.2043 H   0  0  0  0  0  0  0  0  0  0  0  0
   44.9070   36.7961   42.8944 H   0  0  0  0  0  0  0  0  0  0  0  0
   46.3883   34.8487   42.2485 H   0  0  0  0  0  0  0  0  0  0  0  0
   44.9562   33.9231   47.9033 H   0  0  0  0  0  0  0  0  0  0  0  0
   44.2703   32.2651   47.5981 H   0  0  0  0  0  0  0  0  0  0  0  0
   46.0404   32.9423   49.5916 H   0  0  0  0  0  0  0  0  0  0  0  0
   45.7157   31.2909   48.9578 H   0  0  0  0  0  0  0  0  0  0  0  0
   47.8089   33.2020   47.8301 H   0  0  0  0  0  0  0  0  0  0  0  0
   48.1682   31.9025   48.9859 H   0  0  0  0  0  0  0  0  0  0  0  0
   48.4985   31.0398   46.7015 H   0  0  0  0  0  0  0  0  0  0  0  0
   47.0311   30.2661   47.3886 H   0  0  0  0  0  0  0  0  0  0  0  0
   47.3936   32.1690   45.2156 H   0  0  0  0  0  0  0  0  0  0  0  0
   44.4712   27.1901   44.0737 H   0  0  0  0  0  0  0  0  0  0  0  0
   43.5776   26.2331   46.5923 H   0  0  0  0  0  0  0  0  0  0  0  0
   43.8909   27.5857   47.3008 H   0  0  0  0  0  0  0  0  0  0  0  0
   42.0335   28.7652   45.5144 H   0  0  0  0  0  0  0  0  0  0  0  0
   41.5361   27.3884   44.9930 H   0  0  0  0  0  0  0  0  0  0  0  0
  1  6  2  0
  2  1  1  0
  3  2  2  0
  3  4  1  0
  4  5  2  0
  5  6  1  0
  5  7  1  0
  7  8  1  0
  8  9  1  0
 10  9  1  0
 11 10  1  0
 12  7  1  0
 12 11  1  0
 13 17  1  0
 13 12  1  0
 14 13  2  0
 15 14  1  0
 15 16  1  0
 16 18  1  0
 16 17  2  0
 18 20  1  0
 18 19  1  0
 20 19  1  0
  1 21  1  0
  2 22  1  0
  3 23  1  0
  8 24  1  0
  8 25  1  0
  9 26  1  0
  9 27  1  0
 10 28  1  0
 10 29  1  0
 11 30  1  0
 11 31  1  0
 12 32  1  6
 18 33  1  0
 19 34  1  0
 19 35  1  0
 20 36  1  0
 20 37  1  0
M  ISO  8  21  14  22  14  23  14  24  13  25  13  26  13  27  13  28  13
M  ISO  8  29  13  30  13  31  13  32  13  33  13  34  13  35  13  36  13
M  ISO  1  37  13
M  END
>  <minimizedAffinity>  (1) 
-5.2812705

>  <minimizedRMSD>  (1) 
0.255426317

$$$$
