
     RDKit          3D

 45 48  0  0  1  0  0  0  0  0999 V2000
   45.5940   34.4460   42.7340 N   0  0  0  0  0  0  0  0  0  0  0  0
   45.6550   34.3440   44.1760 C   0  0  0  0  0  0  0  0  0  0  0  0
   44.8370   35.4680   44.7460 C   0  0  0  0  0  0  0  0  0  0  0  0
   43.7510   35.6190   43.7260 C   0  0  0  0  0  0  0  0  0  0  0  0
   44.3690   35.1930   42.4310 C   0  0  2  0  0  0  0  0  0  0  0  0
   43.4970   34.2370   41.7060 C   0  0  0  0  0  0  0  0  0  0  0  0
   43.8920   32.9080   41.5080 C   0  0  0  0  0  0  0  0  0  0  0  0
   43.1520   31.9530   40.8470 C   0  0  0  0  0  0  0  0  0  0  0  0
   41.9300   32.3150   40.3380 C   0  0  0  0  0  0  0  0  0  0  0  0
   41.4970   33.5960   40.5030 C   0  0  0  0  0  0  0  0  0  0  0  0
   40.2710   33.9870   40.0020 C   0  0  0  0  0  0  0  0  0  0  0  0
   39.7740   35.2860   40.1410 C   0  0  0  0  0  0  0  0  0  0  0  0
   40.5590   36.2150   40.8160 C   0  0  0  0  0  0  0  0  0  0  0  0
   41.7830   35.7970   41.3090 C   0  0  0  0  0  0  0  0  0  0  0  0
   42.2710   34.5150   41.1700 C   0  0  0  0  0  0  0  0  0  0  0  0
   46.7330   35.2060   42.2410 C   0  0  0  0  0  0  0  0  0  0  0  0
   47.2700   34.4950   41.0110 C   0  0  0  0  0  0  0  0  0  0  0  0
   48.5700   33.8830   41.2920 C   0  0  0  0  0  0  0  0  0  0  0  0
   48.9050   32.7580   40.5220 C   0  0  0  0  0  0  0  0  0  0  0  0
   50.1070   32.1240   40.7330 C   0  0  0  0  0  0  0  0  0  0  0  0
   50.9540   32.6160   41.7040 N   0  0  0  0  0  0  0  0  0  0  0  0
   50.6140   33.6970   42.4330 C   0  0  0  0  0  0  0  0  0  0  0  0
   49.4460   34.3320   42.2430 N   0  0  0  0  0  0  0  0  0  0  0  0
   50.5870   30.6950   39.8030 S   0  0  0  0  0  0  0  0  0  0  0  0
   45.2427   33.3775   44.5014 H   0  0  0  0  0  0  0  0  0  0  0  0
   46.6964   34.4090   44.5241 H   0  0  0  0  0  0  0  0  0  0  0  0
   44.4250   35.2018   45.7306 H   0  0  0  0  0  0  0  0  0  0  0  0
   45.4125   36.3896   44.9174 H   0  0  0  0  0  0  0  0  0  0  0  0
   42.8949   34.9749   43.9755 H   0  0  0  0  0  0  0  0  0  0  0  0
   43.3691   36.6496   43.6806 H   0  0  0  0  0  0  0  0  0  0  0  0
   44.5407   36.0954   41.8258 H   0  0  0  0  0  0  0  0  0  0  0  0
   44.8689   32.6034   41.9117 H   0  0  0  0  0  0  0  0  0  0  0  0
   43.5305   30.9268   40.7301 H   0  0  0  0  0  0  0  0  0  0  0  0
   41.3087   31.5808   39.8041 H   0  0  0  0  0  0  0  0  0  0  0  0
   39.6588   33.2437   39.4703 H   0  0  0  0  0  0  0  0  0  0  0  0
   38.7928   35.5649   39.7295 H   0  0  0  0  0  0  0  0  0  0  0  0
   40.2171   37.2514   40.9539 H   0  0  0  0  0  0  0  0  0  0  0  0
   42.4034   36.5314   41.8436 H   0  0  0  0  0  0  0  0  0  0  0  0
   46.4157   36.2251   41.9751 H   0  0  0  0  0  0  0  0  0  0  0  0
   47.5118   35.2753   43.0147 H   0  0  0  0  0  0  0  0  0  0  0  0
   47.3828   35.2228   40.1939 H   0  0  0  0  0  0  0  0  0  0  0  0
   46.5620   33.7039   40.7231 H   0  0  0  0  0  0  0  0  0  0  0  0
   48.2103   32.3859   39.7546 H   0  0  0  0  0  0  0  0  0  0  0  0
   51.3088   34.0677   43.2010 H   0  0  0  0  0  0  0  0  0  0  0  0
   50.9267   29.6837   40.6625 H   0  0  0  0  0  0  0  0  0  0  0  0
  1  2  1  0
  2  3  1  0
  4  3  1  0
  5  1  1  0
  5  4  1  0
  6  5  1  0
  7  6  2  0
  8  7  1  0
  9 10  1  0
  9  8  2  0
 10 15  2  0
 11 12  2  0
 11 10  1  0
 12 13  1  0
 13 14  2  0
 15 14  1  0
 15  6  1  0
 16  1  1  0
 17 18  1  0
 17 16  1  0
 18 23  2  0
 19 20  2  0
 19 18  1  0
 20 21  1  0
 21 22  2  0
 23 22  1  0
 24 20  1  0
  2 25  1  0
  2 26  1  0
  3 27  1  0
  3 28  1  0
  4 29  1  0
  4 30  1  0
  5 31  1  6
  7 32  1  0
  8 33  1  0
  9 34  1  0
 11 35  1  0
 12 36  1  0
 13 37  1  0
 14 38  1  0
 16 39  1  0
 16 40  1  0
 17 41  1  0
 17 42  1  0
 19 43  1  0
 22 44  1  0
 24 45  1  0
M  ISO  8  25  13  26  13  27  13  28  13  29  13  30  13  31  13  32  14
M  ISO  8  33  14  34  14  35  14  36  14  37  14  38  14  39   8  40   8
M  ISO  5  41   8  42   8  43  14  44  14  45  11
M  END
>  <minimizedAffinity>  (1) 
-5.72409248

>  <minimizedRMSD>  (1) 
4.8865056

$$$$
