
     RDKit          3D

 36 38  0  0  1  0  0  0  0  0999 V2000
   46.5240   34.8570   42.7580 N   0  0  0  0  0  0  0  0  0  0  0  0
   47.7380   35.3390   42.1300 C   0  0  0  0  0  0  0  0  0  0  0  0
   48.0380   34.4720   40.9520 C   0  0  0  0  0  0  0  0  0  0  0  0
   46.6710   34.0690   40.4900 C   0  0  0  0  0  0  0  0  0  0  0  0
   45.8230   34.1110   41.7240 C   0  0  2  0  0  0  0  0  0  0  0  0
   44.4660   34.6900   41.4410 C   0  0  0  0  0  0  0  0  0  0  0  0
   43.6470   34.4860   40.3450 C   0  0  0  0  0  0  0  0  0  0  0  0
   42.4820   35.2010   40.4650 C   0  0  0  0  0  0  0  0  0  0  0  0
   42.6020   35.8460   41.6550 N   0  0  0  0  0  0  0  0  0  0  0  0
   43.7450   35.5490   42.2120 N   0  0  0  0  0  0  0  0  0  0  0  0
   46.8490   33.9290   43.8340 C   0  0  0  0  0  0  0  0  0  0  0  0
   45.7590   33.9990   44.8740 C   0  0  0  0  0  0  0  0  0  0  0  0
   45.9710   33.0200   45.9480 C   0  0  0  0  0  0  0  0  0  0  0  0
   46.8460   31.9890   45.6510 C   0  0  0  0  0  0  0  0  0  0  0  0
   47.1200   31.0080   46.5930 C   0  0  0  0  0  0  0  0  0  0  0  0
   46.4910   31.1100   47.8140 N   0  0  0  0  0  0  0  0  0  0  0  0
   45.6460   32.1190   48.0800 C   0  0  0  0  0  0  0  0  0  0  0  0
   45.3830   33.0700   47.1630 N   0  0  0  0  0  0  0  0  0  0  0  0
   48.2320   29.6600   46.2730 S   0  0  0  0  0  0  0  0  0  0  0  0
   47.5972   36.3786   41.7994 H   0  0  0  0  0  0  0  0  0  0  0  0
   48.5723   35.3042   42.8460 H   0  0  0  0  0  0  0  0  0  0  0  0
   48.5722   35.0331   40.1711 H   0  0  0  0  0  0  0  0  0  0  0  0
   48.6899   33.6186   41.1901 H   0  0  0  0  0  0  0  0  0  0  0  0
   46.2930   34.7748   39.7357 H   0  0  0  0  0  0  0  0  0  0  0  0
   46.6682   33.0757   40.0175 H   0  0  0  0  0  0  0  0  0  0  0  0
   45.6524   33.0842   42.0799 H   0  0  0  0  0  0  0  0  0  0  0  0
   43.8962   33.8377   39.4920 H   0  0  0  0  0  0  0  0  0  0  0  0
   41.6407   35.2427   39.7575 H   0  0  0  0  0  0  0  0  0  0  0  0
   41.8948   36.4768   42.0585 H   0  0  0  0  0  0  0  0  0  0  0  0
   46.9150   32.9063   43.4343 H   0  0  0  0  0  0  0  0  0  0  0  0
   47.8160   34.1983   44.2838 H   0  0  0  0  0  0  0  0  0  0  0  0
   45.7458   35.0090   45.3095 H   0  0  0  0  0  0  0  0  0  0  0  0
   44.8014   33.7692   44.3839 H   0  0  0  0  0  0  0  0  0  0  0  0
   47.3267   31.9474   44.6625 H   0  0  0  0  0  0  0  0  0  0  0  0
   45.1594   32.1700   49.0652 H   0  0  0  0  0  0  0  0  0  0  0  0
   48.6659   29.1340   47.4613 H   0  0  0  0  0  0  0  0  0  0  0  0
  1 11  1  0
  2  1  1  0
  3  2  1  0
  4  3  1  0
  4  5  1  0
  5  1  1  0
  6  5  1  0
  6 10  2  0
  7  8  2  0
  7  6  1  0
  8  9  1  0
  9 10  1  0
 11 12  1  0
 12 13  1  0
 13 18  1  0
 14 13  2  0
 14 15  1  0
 15 16  2  0
 16 17  1  0
 18 17  2  0
 19 15  1  0
  2 20  1  0
  2 21  1  0
  3 22  1  0
  3 23  1  0
  4 24  1  0
  4 25  1  0
  5 26  1  1
  7 27  1  0
  8 28  1  0
  9 29  1  0
 11 30  1  0
 11 31  1  0
 12 32  1  0
 12 33  1  0
 14 34  1  0
 17 35  1  0
 19 36  1  0
M  ISO  8  20  13  21  13  22  13  23  13  24  13  25  13  26  13  27  14
M  ISO  8  28  14  29   9  30   8  31   8  32   8  33   8  34  14  35  14
M  ISO  1  36  11
M  END
>  <minimizedAffinity>  (1) 
-4.93353367

>  <minimizedRMSD>  (1) 
0.861156106

$$$$
