
     RDKit          3D

 39 41  0  0  1  0  0  0  0  0999 V2000
   46.4360   34.7750   42.6090 N   0  0  0  0  0  0  0  0  0  0  0  0
   47.6420   35.4130   42.1170 C   0  0  0  0  0  0  0  0  0  0  0  0
   48.1950   34.5560   41.0020 C   0  0  0  0  0  0  0  0  0  0  0  0
   46.9590   33.9530   40.4040 C   0  0  0  0  0  0  0  0  0  0  0  0
   45.9670   33.9150   41.5190 C   0  0  2  0  0  0  0  0  0  0  0  0
   44.6040   34.3430   41.0690 C   0  0  0  0  0  0  0  0  0  0  0  0
   43.8160   35.2460   41.7560 C   0  0  0  0  0  0  0  0  0  0  0  0
   42.5630   35.6090   41.2970 C   0  0  0  0  0  0  0  0  0  0  0  0
   42.0540   35.0700   40.1200 C   0  0  0  0  0  0  0  0  0  0  0  0
   42.8230   34.1550   39.4020 C   0  0  0  0  0  0  0  0  0  0  0  0
   44.0480   33.8350   39.8980 C   0  0  0  0  0  0  0  0  0  0  0  0
   46.7530   33.9280   43.7440 C   0  0  0  0  0  0  0  0  0  0  0  0
   45.6580   34.1090   44.7890 C   0  0  0  0  0  0  0  0  0  0  0  0
   45.8420   33.2060   45.9250 C   0  0  0  0  0  0  0  0  0  0  0  0
   46.7210   32.1550   45.7250 C   0  0  0  0  0  0  0  0  0  0  0  0
   46.9810   31.2290   46.7240 C   0  0  0  0  0  0  0  0  0  0  0  0
   46.3270   31.4080   47.9180 N   0  0  0  0  0  0  0  0  0  0  0  0
   45.4710   32.4390   48.1020 C   0  0  0  0  0  0  0  0  0  0  0  0
   45.2230   33.3310   47.1290 N   0  0  0  0  0  0  0  0  0  0  0  0
   48.0980   29.8610   46.5270 S   0  0  0  0  0  0  0  0  0  0  0  0
   47.4053   36.4171   41.7352 H   0  0  0  0  0  0  0  0  0  0  0  0
   48.3804   35.5152   42.9259 H   0  0  0  0  0  0  0  0  0  0  0  0
   48.7355   35.1664   40.2636 H   0  0  0  0  0  0  0  0  0  0  0  0
   48.9223   33.8067   41.3477 H   0  0  0  0  0  0  0  0  0  0  0  0
   46.5868   34.5754   39.5769 H   0  0  0  0  0  0  0  0  0  0  0  0
   47.1485   32.9532   39.9863 H   0  0  0  0  0  0  0  0  0  0  0  0
   45.8808   32.8761   41.8701 H   0  0  0  0  0  0  0  0  0  0  0  0
   44.1941   35.6867   42.6902 H   0  0  0  0  0  0  0  0  0  0  0  0
   41.9624   36.3317   41.8688 H   0  0  0  0  0  0  0  0  0  0  0  0
   41.0565   35.3622   39.7599 H   0  0  0  0  0  0  0  0  0  0  0  0
   42.4520   33.7080   38.4679 H   0  0  0  0  0  0  0  0  0  0  0  0
   44.6504   33.1141   39.3259 H   0  0  0  0  0  0  0  0  0  0  0  0
   46.7937   32.8762   43.4247 H   0  0  0  0  0  0  0  0  0  0  0  0
   47.7312   34.2040   44.1646 H   0  0  0  0  0  0  0  0  0  0  0  0
   45.6789   35.1473   45.1515 H   0  0  0  0  0  0  0  0  0  0  0  0
   44.6916   33.8762   44.3180 H   0  0  0  0  0  0  0  0  0  0  0  0
   47.2242   32.0523   44.7522 H   0  0  0  0  0  0  0  0  0  0  0  0
   44.9654   32.5496   49.0726 H   0  0  0  0  0  0  0  0  0  0  0  0
   48.4756   29.3985   47.7601 H   0  0  0  0  0  0  0  0  0  0  0  0
  1 12  1  0
  2  1  1  0
  3  2  1  0
  4  3  1  0
  4  5  1  0
  5  1  1  0
  6  5  1  0
  6  7  2  0
  8  7  1  0
  9  8  2  0
 10 11  2  0
 10  9  1  0
 11  6  1  0
 12 13  1  0
 13 14  1  0
 14 19  1  0
 15 14  2  0
 15 16  1  0
 16 17  2  0
 17 18  1  0
 19 18  2  0
 20 16  1  0
  2 21  1  0
  2 22  1  0
  3 23  1  0
  3 24  1  0
  4 25  1  0
  4 26  1  0
  5 27  1  1
  7 28  1  0
  8 29  1  0
  9 30  1  0
 10 31  1  0
 11 32  1  0
 12 33  1  0
 12 34  1  0
 13 35  1  0
 13 36  1  0
 15 37  1  0
 18 38  1  0
 20 39  1  0
M  ISO  8  21  13  22  13  23  13  24  13  25  13  26  13  27  13  28  14
M  ISO  8  29  14  30  14  31  14  32  14  33   8  34   8  35   8  36   8
M  ISO  3  37  14  38  14  39  11
M  END
>  <minimizedAffinity>  (1) 
-5.04924154

>  <minimizedRMSD>  (1) 
1.40800345

$$$$
