
     RDKit          3D

 44 46  0  0  1  0  0  0  0  0999 V2000
   46.7180   34.5860   43.2360 N   0  0  0  0  0  0  0  0  0  0  0  0
   48.1460   34.3100   43.0290 C   0  0  0  0  0  0  0  0  0  0  0  0
   48.2830   33.7160   41.6520 C   0  0  0  0  0  0  0  0  0  0  0  0
   47.1960   34.4470   40.8880 C   0  0  0  0  0  0  0  0  0  0  0  0
   46.1710   34.7810   41.9350 C   0  0  1  0  0  0  0  0  0  0  0  0
   44.8470   34.3740   41.6630 N   0  0  0  0  0  0  0  0  0  0  0  0
   43.9990   35.5910   41.6370 C   0  0  0  0  0  0  0  0  0  0  0  0
   42.5490   35.2620   41.8380 C   0  0  0  0  0  0  0  0  0  0  0  0
   42.1720   34.2460   40.7760 C   0  0  0  0  0  0  0  0  0  0  0  0
   43.2800   34.2570   39.7520 C   0  0  0  0  0  0  0  0  0  0  0  0
   44.5750   33.7380   40.4050 C   0  0  0  0  0  0  0  0  0  0  0  0
   46.1140   33.4930   43.9400 C   0  0  0  0  0  0  0  0  0  0  0  0
   45.5840   33.9770   45.2510 C   0  0  0  0  0  0  0  0  0  0  0  0
   45.8370   33.0330   46.3280 C   0  0  0  0  0  0  0  0  0  0  0  0
   46.7750   32.0500   46.0670 C   0  0  0  0  0  0  0  0  0  0  0  0
   47.0780   31.1040   47.0180 C   0  0  0  0  0  0  0  0  0  0  0  0
   46.4140   31.1750   48.2330 N   0  0  0  0  0  0  0  0  0  0  0  0
   45.5060   32.1330   48.4770 C   0  0  0  0  0  0  0  0  0  0  0  0
   45.2170   33.0520   47.5410 N   0  0  0  0  0  0  0  0  0  0  0  0
   48.2770   29.8170   46.7340 S   0  0  0  0  0  0  0  0  0  0  0  0
   48.7251   35.2427   43.0977 H   0  0  0  0  0  0  0  0  0  0  0  0
   48.5280   33.6191   43.7950 H   0  0  0  0  0  0  0  0  0  0  0  0
   49.2768   33.9180   41.2259 H   0  0  0  0  0  0  0  0  0  0  0  0
   48.1841   32.6207   41.6280 H   0  0  0  0  0  0  0  0  0  0  0  0
   47.5929   35.3622   40.4245 H   0  0  0  0  0  0  0  0  0  0  0  0
   46.7794   33.8444   40.0674 H   0  0  0  0  0  0  0  0  0  0  0  0
   45.9577   35.8594   41.8954 H   0  0  0  0  0  0  0  0  0  0  0  0
   44.3249   36.2697   42.4390 H   0  0  0  0  0  0  0  0  0  0  0  0
   44.1094   36.0646   40.6503 H   0  0  0  0  0  0  0  0  0  0  0  0
   42.3940   34.8358   42.8402 H   0  0  0  0  0  0  0  0  0  0  0  0
   41.9268   36.1653   41.7548 H   0  0  0  0  0  0  0  0  0  0  0  0
   42.0800   33.2457   41.2242 H   0  0  0  0  0  0  0  0  0  0  0  0
   41.2050   34.4960   40.3151 H   0  0  0  0  0  0  0  0  0  0  0  0
   43.4362   35.2837   39.3893 H   0  0  0  0  0  0  0  0  0  0  0  0
   43.0077   33.6109   38.9044 H   0  0  0  0  0  0  0  0  0  0  0  0
   44.4775   32.6549   40.5706 H   0  0  0  0  0  0  0  0  0  0  0  0
   45.4088   33.9687   39.7256 H   0  0  0  0  0  0  0  0  0  0  0  0
   45.2887   33.0817   43.3402 H   0  0  0  0  0  0  0  0  0  0  0  0
   46.8658   32.7094   44.1152 H   0  0  0  0  0  0  0  0  0  0  0  0
   46.0680   34.9336   45.4974 H   0  0  0  0  0  0  0  0  0  0  0  0
   44.4946   34.0932   45.1527 H   0  0  0  0  0  0  0  0  0  0  0  0
   47.2823   32.0250   45.0913 H   0  0  0  0  0  0  0  0  0  0  0  0
   44.9949   32.1657   49.4505 H   0  0  0  0  0  0  0  0  0  0  0  0
   48.7246   29.3365   47.9363 H   0  0  0  0  0  0  0  0  0  0  0  0
  1 12  1  0
  2  1  1  0
  3  2  1  0
  4  3  1  0
  4  5  1  0
  5  1  1  0
  6  5  1  0
  7  6  1  0
  7  8  1  0
  9  8  1  0
 10 11  1  0
 10  9  1  0
 11  6  1  0
 12 13  1  0
 13 14  1  0
 14 19  1  0
 15 14  2  0
 15 16  1  0
 16 17  2  0
 17 18  1  0
 19 18  2  0
 20 16  1  0
  2 21  1  0
  2 22  1  0
  3 23  1  0
  3 24  1  0
  4 25  1  0
  4 26  1  0
  5 27  1  1
  7 28  1  0
  7 29  1  0
  8 30  1  0
  8 31  1  0
  9 32  1  0
  9 33  1  0
 10 34  1  0
 10 35  1  0
 11 36  1  0
 11 37  1  0
 12 38  1  0
 12 39  1  0
 13 40  1  0
 13 41  1  0
 15 42  1  0
 18 43  1  0
 20 44  1  0
M  ISO  8  21  13  22  13  23  13  24  13  25  13  26  13  27  13  28  13
M  ISO  8  29  13  30  13  31  13  32  13  33  13  34  13  35  13  36  13
M  ISO  8  37  13  38   8  39   8  40   8  41   8  42  14  43  14  44  11
M  END
>  <minimizedAffinity>  (1) 
-4.84158182

>  <minimizedRMSD>  (1) 
1.84845984

$$$$
