
     RDKit          3D

 35 37  0  0  1  0  0  0  0  0999 V2000
   46.5370   34.8390   42.5960 N   0  0  0  0  0  0  0  0  0  0  0  0
   47.7940   35.4210   42.1540 C   0  0  0  0  0  0  0  0  0  0  0  0
   48.3060   34.5910   41.0090 C   0  0  0  0  0  0  0  0  0  0  0  0
   47.0200   34.1280   40.3510 C   0  0  0  0  0  0  0  0  0  0  0  0
   46.0420   34.0830   41.4660 C   0  0  2  0  0  0  0  0  0  0  0  0
   44.6920   34.5040   41.0950 N   0  0  0  0  0  0  0  0  0  0  0  0
   44.0150   35.4320   41.7960 C   0  0  0  0  0  0  0  0  0  0  0  0
   42.8060   35.6270   41.2400 N   0  0  0  0  0  0  0  0  0  0  0  0
   42.7550   34.8000   40.1810 C   0  0  0  0  0  0  0  0  0  0  0  0
   43.9110   34.1290   40.1150 N   0  0  0  0  0  0  0  0  0  0  0  0
   46.7820   33.9140   43.6960 C   0  0  0  0  0  0  0  0  0  0  0  0
   45.7230   34.1710   44.7620 C   0  0  0  0  0  0  0  0  0  0  0  0
   45.8740   33.2510   45.8840 C   0  0  0  0  0  0  0  0  0  0  0  0
   46.7630   32.1830   45.6780 C   0  0  0  0  0  0  0  0  0  0  0  0
   46.9780   31.2560   46.6770 C   0  0  0  0  0  0  0  0  0  0  0  0
   46.3020   31.4160   47.8610 N   0  0  0  0  0  0  0  0  0  0  0  0
   45.4440   32.4580   48.0440 C   0  0  0  0  0  0  0  0  0  0  0  0
   45.2240   33.3660   47.0840 N   0  0  0  0  0  0  0  0  0  0  0  0
   48.0700   29.8880   46.4890 S   0  0  0  0  0  0  0  0  0  0  0  0
   47.6307   36.4569   41.8219 H   0  0  0  0  0  0  0  0  0  0  0  0
   48.5234   35.4323   42.9774 H   0  0  0  0  0  0  0  0  0  0  0  0
   48.9128   35.1949   40.3183 H   0  0  0  0  0  0  0  0  0  0  0  0
   48.9651   33.7671   41.3201 H   0  0  0  0  0  0  0  0  0  0  0  0
   46.6982   34.8405   39.5772 H   0  0  0  0  0  0  0  0  0  0  0  0
   47.1293   33.1577   39.8444 H   0  0  0  0  0  0  0  0  0  0  0  0
   45.9440   33.0244   41.7483 H   0  0  0  0  0  0  0  0  0  0  0  0
   44.3931   35.9522   42.6884 H   0  0  0  0  0  0  0  0  0  0  0  0
   41.9079   34.6932   39.4875 H   0  0  0  0  0  0  0  0  0  0  0  0
   46.7082   32.8769   43.3369 H   0  0  0  0  0  0  0  0  0  0  0  0
   47.7899   34.0655   44.1097 H   0  0  0  0  0  0  0  0  0  0  0  0
   45.8244   35.2035   45.1277 H   0  0  0  0  0  0  0  0  0  0  0  0
   44.7306   34.0157   44.3136 H   0  0  0  0  0  0  0  0  0  0  0  0
   47.2894   32.0855   44.7171 H   0  0  0  0  0  0  0  0  0  0  0  0
   44.9181   32.5564   49.0051 H   0  0  0  0  0  0  0  0  0  0  0  0
   48.4393   29.4253   47.7245 H   0  0  0  0  0  0  0  0  0  0  0  0
  1 11  1  0
  2  1  1  0
  3  2  1  0
  4  3  1  0
  4  5  1  0
  5  1  1  0
  6  5  1  0
  6  7  1  0
  8  7  2  0
  9  8  1  0
 10  9  2  0
 10  6  1  0
 11 12  1  0
 12 13  1  0
 13 18  1  0
 14 13  2  0
 14 15  1  0
 15 16  2  0
 16 17  1  0
 18 17  2  0
 19 15  1  0
  2 20  1  0
  2 21  1  0
  3 22  1  0
  3 23  1  0
  4 24  1  0
  4 25  1  0
  5 26  1  1
  7 27  1  0
  9 28  1  0
 11 29  1  0
 11 30  1  0
 12 31  1  0
 12 32  1  0
 14 33  1  0
 17 34  1  0
 19 35  1  0
M  ISO  8  20  13  21  13  22  13  23  13  24  13  25  13  26  13  27  14
M  ISO  8  28  14  29   8  30   8  31   8  32   8  33  14  34  14  35  11
M  END
>  <minimizedAffinity>  (1) 
-4.72912169

>  <minimizedRMSD>  (1) 
0.931428432

$$$$
