
     RDKit          3D

 36 38  0  0  1  0  0  0  0  0999 V2000
   46.6110   34.7750   42.6060 N   0  0  0  0  0  0  0  0  0  0  0  0
   47.8000   35.4950   42.1700 C   0  0  0  0  0  0  0  0  0  0  0  0
   48.4090   34.7490   41.0240 C   0  0  0  0  0  0  0  0  0  0  0  0
   47.1960   34.1410   40.3550 C   0  0  0  0  0  0  0  0  0  0  0  0
   46.1940   34.0010   41.4490 C   0  0  2  0  0  0  0  0  0  0  0  0
   44.8300   34.4720   41.0930 C   0  0  0  0  0  0  0  0  0  0  0  0
   44.1210   35.3820   41.8520 C   0  0  0  0  0  0  0  0  0  0  0  0
   42.8980   35.5740   41.2040 C   0  0  0  0  0  0  0  0  0  0  0  0
   42.9360   34.7660   40.0870 C   0  0  0  0  0  0  0  0  0  0  0  0
   44.0770   34.1470   40.0660 O   0  0  0  0  0  0  0  0  0  0  0  0
   46.9440   33.8610   43.6890 C   0  0  0  0  0  0  0  0  0  0  0  0
   45.8850   34.0320   44.7640 C   0  0  0  0  0  0  0  0  0  0  0  0
   46.0730   33.0500   45.8310 C   0  0  0  0  0  0  0  0  0  0  0  0
   46.9450   31.9880   45.5630 C   0  0  0  0  0  0  0  0  0  0  0  0
   47.1810   31.0160   46.5080 C   0  0  0  0  0  0  0  0  0  0  0  0
   46.5280   31.1330   47.7210 N   0  0  0  0  0  0  0  0  0  0  0  0
   45.6950   32.1560   47.9680 C   0  0  0  0  0  0  0  0  0  0  0  0
   45.4740   33.0940   47.0400 N   0  0  0  0  0  0  0  0  0  0  0  0
   48.2850   29.6490   46.2080 S   0  0  0  0  0  0  0  0  0  0  0  0
   47.5229   36.5096   41.8478 H   0  0  0  0  0  0  0  0  0  0  0  0
   48.5207   35.5716   42.9975 H   0  0  0  0  0  0  0  0  0  0  0  0
   48.9405   35.4298   40.3428 H   0  0  0  0  0  0  0  0  0  0  0  0
   49.1612   34.0073   41.3308 H   0  0  0  0  0  0  0  0  0  0  0  0
   46.8164   34.8035   39.5631 H   0  0  0  0  0  0  0  0  0  0  0  0
   47.4240   33.1791   39.8725 H   0  0  0  0  0  0  0  0  0  0  0  0
   46.1463   32.9210   41.6522 H   0  0  0  0  0  0  0  0  0  0  0  0
   44.4538   35.8618   42.7842 H   0  0  0  0  0  0  0  0  0  0  0  0
   42.0756   36.2329   41.5194 H   0  0  0  0  0  0  0  0  0  0  0  0
   42.1350   34.6634   39.3401 H   0  0  0  0  0  0  0  0  0  0  0  0
   46.9431   32.8244   43.3208 H   0  0  0  0  0  0  0  0  0  0  0  0
   47.9451   34.0790   44.0895 H   0  0  0  0  0  0  0  0  0  0  0  0
   45.9594   35.0446   45.1872 H   0  0  0  0  0  0  0  0  0  0  0  0
   44.8933   33.8806   44.3128 H   0  0  0  0  0  0  0  0  0  0  0  0
   47.4471   31.9299   44.5860 H   0  0  0  0  0  0  0  0  0  0  0  0
   45.1893   32.2238   48.9425 H   0  0  0  0  0  0  0  0  0  0  0  0
   48.7044   29.1297   47.4044 H   0  0  0  0  0  0  0  0  0  0  0  0
  1 11  1  0
  2  1  1  0
  3  2  1  0
  4  3  1  0
  4  5  1  0
  5  1  1  0
  6  5  1  0
  6  7  2  0
  8  7  1  0
  9  8  2  0
 10  9  1  0
 10  6  1  0
 11 12  1  0
 12 13  1  0
 13 18  1  0
 14 13  2  0
 14 15  1  0
 15 16  2  0
 16 17  1  0
 18 17  2  0
 19 15  1  0
  2 20  1  0
  2 21  1  0
  3 22  1  0
  3 23  1  0
  4 24  1  0
  4 25  1  0
  5 26  1  1
  7 27  1  0
  8 28  1  0
  9 29  1  0
 11 30  1  0
 11 31  1  0
 12 32  1  0
 12 33  1  0
 14 34  1  0
 17 35  1  0
 19 36  1  0
M  ISO  8  20  13  21  13  22  13  23  13  24  13  25  13  26  13  27  14
M  ISO  8  28  14  29  14  30   8  31   8  32   8  33   8  34  14  35  14
M  ISO  1  36  11
M  END
>  <minimizedAffinity>  (1) 
-4.80805874

>  <minimizedRMSD>  (1) 
1.0479635

$$$$
