
     RDKit          3D

 36 38  0  0  1  0  0  0  0  0999 V2000
   46.5280   34.8260   42.5950 N   0  0  0  0  0  0  0  0  0  0  0  0
   47.7710   35.4070   42.1040 C   0  0  0  0  0  0  0  0  0  0  0  0
   48.2750   34.5330   40.9860 C   0  0  0  0  0  0  0  0  0  0  0  0
   46.9970   34.0580   40.3720 C   0  0  0  0  0  0  0  0  0  0  0  0
   46.0170   34.0020   41.4950 C   0  0  2  0  0  0  0  0  0  0  0  0
   44.6660   34.4240   41.1340 C   0  0  0  0  0  0  0  0  0  0  0  0
   43.8550   35.3490   41.6620 C   0  0  0  0  0  0  0  0  0  0  0  0
   42.6080   35.5970   41.1700 C   0  0  0  0  0  0  0  0  0  0  0  0
   42.2500   34.7840   40.0500 C   0  0  0  0  0  0  0  0  0  0  0  0
   43.7110   33.7230   39.7700 S   0  0  0  0  0  0  0  0  0  0  0  0
   46.8120   33.9390   43.7270 C   0  0  0  0  0  0  0  0  0  0  0  0
   45.7000   34.1370   44.7400 C   0  0  0  0  0  0  0  0  0  0  0  0
   45.8720   33.2270   45.8720 C   0  0  0  0  0  0  0  0  0  0  0  0
   46.7390   32.1640   45.6950 C   0  0  0  0  0  0  0  0  0  0  0  0
   46.9730   31.2430   46.6950 C   0  0  0  0  0  0  0  0  0  0  0  0
   46.2990   31.4340   47.8840 N   0  0  0  0  0  0  0  0  0  0  0  0
   45.4600   32.4670   48.0510 C   0  0  0  0  0  0  0  0  0  0  0  0
   45.2500   33.3470   47.0640 N   0  0  0  0  0  0  0  0  0  0  0  0
   48.0830   29.8770   46.5120 S   0  0  0  0  0  0  0  0  0  0  0  0
   47.5866   36.4248   41.7298 H   0  0  0  0  0  0  0  0  0  0  0  0
   48.5146   35.4653   42.9125 H   0  0  0  0  0  0  0  0  0  0  0  0
   48.8756   35.1089   40.2666 H   0  0  0  0  0  0  0  0  0  0  0  0
   48.9390   33.7215   41.3186 H   0  0  0  0  0  0  0  0  0  0  0  0
   46.6564   34.7619   39.5983 H   0  0  0  0  0  0  0  0  0  0  0  0
   47.1160   33.0800   39.8828 H   0  0  0  0  0  0  0  0  0  0  0  0
   45.9213   32.9471   41.7917 H   0  0  0  0  0  0  0  0  0  0  0  0
   44.2083   35.9312   42.5258 H   0  0  0  0  0  0  0  0  0  0  0  0
   41.9363   36.3561   41.5973 H   0  0  0  0  0  0  0  0  0  0  0  0
   41.3069   34.7947   39.4839 H   0  0  0  0  0  0  0  0  0  0  0  0
   46.8331   32.8922   43.3898 H   0  0  0  0  0  0  0  0  0  0  0  0
   47.7912   34.1722   44.1705 H   0  0  0  0  0  0  0  0  0  0  0  0
   45.7215   35.1751   45.1032 H   0  0  0  0  0  0  0  0  0  0  0  0
   44.7352   33.9252   44.2560 H   0  0  0  0  0  0  0  0  0  0  0  0
   47.2559   32.0499   44.7308 H   0  0  0  0  0  0  0  0  0  0  0  0
   44.9378   32.5928   49.0110 H   0  0  0  0  0  0  0  0  0  0  0  0
   48.4537   29.4208   47.7495 H   0  0  0  0  0  0  0  0  0  0  0  0
  1 11  1  0
  2  1  1  0
  3  2  1  0
  4  3  1  0
  4  5  1  0
  5  1  1  0
  6  5  1  0
  6  7  2  0
  8  7  1  0
  9  8  2  0
 10  9  1  0
 10  6  1  0
 11 12  1  0
 12 13  1  0
 13 18  1  0
 14 13  2  0
 14 15  1  0
 15 16  2  0
 16 17  1  0
 18 17  2  0
 19 15  1  0
  2 20  1  0
  2 21  1  0
  3 22  1  0
  3 23  1  0
  4 24  1  0
  4 25  1  0
  5 26  1  1
  7 27  1  0
  8 28  1  0
  9 29  1  0
 11 30  1  0
 11 31  1  0
 12 32  1  0
 12 33  1  0
 14 34  1  0
 17 35  1  0
 19 36  1  0
M  ISO  8  20  13  21  13  22  13  23  13  24  13  25  13  26  13  27  14
M  ISO  8  28  14  29  14  30   8  31   8  32   8  33   8  34  14  35  14
M  ISO  1  36  11
M  END
>  <minimizedAffinity>  (1) 
-4.78833389

>  <minimizedRMSD>  (1) 
0.997991204

$$$$
