
     RDKit          3D

 38 39  0  0  1  0  0  0  0  0999 V2000
   46.6980   33.2110   44.7310 C   0  0  0  0  0  0  0  0  0  0  0  0
   46.5980   34.3020   43.7630 N   0  0  0  0  0  0  0  0  0  0  0  0
   47.7920   34.3140   42.9330 C   0  0  0  0  0  0  0  0  0  0  0  0
   47.5230   33.5340   41.6930 C   0  0  0  0  0  0  0  0  0  0  0  0
   46.0480   33.7550   41.4820 C   0  0  0  0  0  0  0  0  0  0  0  0
   45.5090   34.0260   42.8460 C   0  0  2  0  0  0  0  0  0  0  0  0
   44.5010   35.1480   42.8840 C   0  0  0  0  0  0  0  0  0  0  0  0
   44.9950   36.4170   43.4830 C   0  0  0  0  0  0  0  0  0  0  0  0
   43.9640   35.4120   41.5140 C   0  0  0  0  0  0  0  0  0  0  0  0
   45.7770   33.5440   45.8960 C   0  0  0  0  0  0  0  0  0  0  0  0
   46.0240   32.6500   47.0250 C   0  0  0  0  0  0  0  0  0  0  0  0
   47.1170   31.8070   46.9080 C   0  0  0  0  0  0  0  0  0  0  0  0
   47.4470   30.9190   47.9100 C   0  0  0  0  0  0  0  0  0  0  0  0
   46.6350   30.9110   49.0380 N   0  0  0  0  0  0  0  0  0  0  0  0
   45.5780   31.7310   49.1460 C   0  0  0  0  0  0  0  0  0  0  0  0
   45.2630   32.5950   48.1600 N   0  0  0  0  0  0  0  0  0  0  0  0
   48.8420   29.8270   47.7930 S   0  0  0  0  0  0  0  0  0  0  0  0
   47.7348   33.1191   45.0868 H   0  0  0  0  0  0  0  0  0  0  0  0
   46.4067   32.2563   44.2687 H   0  0  0  0  0  0  0  0  0  0  0  0
   48.0484   35.3507   42.6692 H   0  0  0  0  0  0  0  0  0  0  0  0
   48.6329   33.8649   43.4818 H   0  0  0  0  0  0  0  0  0  0  0  0
   48.1081   33.9206   40.8455 H   0  0  0  0  0  0  0  0  0  0  0  0
   47.8001   32.4726   41.7740 H   0  0  0  0  0  0  0  0  0  0  0  0
   45.8753   34.6150   40.8183 H   0  0  0  0  0  0  0  0  0  0  0  0
   45.5610   32.8917   41.0051 H   0  0  0  0  0  0  0  0  0  0  0  0
   44.9724   33.1173   43.1564 H   0  0  0  0  0  0  0  0  0  0  0  0
   43.7042   34.7925   43.5540 H   0  0  0  0  0  0  0  0  0  0  0  0
   44.9653   36.3406   44.5799 H   0  0  0  0  0  0  0  0  0  0  0  0
   46.0295   36.5985   43.1560 H   0  0  0  0  0  0  0  0  0  0  0  0
   44.3555   37.2502   43.1560 H   0  0  0  0  0  0  0  0  0  0  0  0
   42.9794   35.8960   41.5931 H   0  0  0  0  0  0  0  0  0  0  0  0
   44.6550   36.0731   40.9704 H   0  0  0  0  0  0  0  0  0  0  0  0
   43.8625   34.4611   40.9704 H   0  0  0  0  0  0  0  0  0  0  0  0
   45.9565   34.5822   46.2122 H   0  0  0  0  0  0  0  0  0  0  0  0
   44.7345   33.4182   45.5683 H   0  0  0  0  0  0  0  0  0  0  0  0
   47.7337   31.8468   45.9980 H   0  0  0  0  0  0  0  0  0  0  0  0
   44.9583   31.6976   50.0542 H   0  0  0  0  0  0  0  0  0  0  0  0
   49.2678   29.4937   49.0517 H   0  0  0  0  0  0  0  0  0  0  0  0
  1 10  1  0
  2  1  1  0
  3  2  1  0
  4  3  1  0
  5  4  1  0
  5  6  1  0
  6  7  1  0
  6  2  1  0
  7  8  1  0
  9  7  1  0
 10 11  1  0
 11 16  1  0
 12 11  2  0
 12 13  1  0
 13 14  2  0
 14 15  1  0
 16 15  2  0
 17 13  1  0
  1 18  1  0
  1 19  1  0
  3 20  1  0
  3 21  1  0
  4 22  1  0
  4 23  1  0
  5 24  1  0
  5 25  1  0
  6 26  1  1
  7 27  1  0
  8 28  1  0
  8 29  1  0
  8 30  1  0
  9 31  1  0
  9 32  1  0
  9 33  1  0
 10 34  1  0
 10 35  1  0
 12 36  1  0
 15 37  1  0
 17 38  1  0
M  ISO  8  18   8  19   8  20  13  21  13  22  13  23  13  24  13  25  13
M  ISO  8  26  13  27   8  28   8  29   8  30   8  31   8  32   8  33   8
M  ISO  5  34   8  35   8  36  14  37  14  38  11
M  END
>  <minimizedAffinity>  (1) 
-4.60434961

>  <minimizedRMSD>  (1) 
1.30603468

$$$$
