
     RDKit          3D

 34 36  0  0  1  0  0  0  0  0999 V2000
   46.5010   34.8560   42.6630 N   0  0  0  0  0  0  0  0  0  0  0  0
   47.7330   35.3850   42.1220 C   0  0  0  0  0  0  0  0  0  0  0  0
   48.1580   34.5010   40.9850 C   0  0  0  0  0  0  0  0  0  0  0  0
   46.8520   34.0230   40.4310 C   0  0  0  0  0  0  0  0  0  0  0  0
   45.9070   34.0590   41.5850 C   0  0  2  0  0  0  0  0  0  0  0  0
   44.5650   34.6120   41.2050 C   0  0  0  0  0  0  0  0  0  0  0  0
   43.8540   35.5380   41.8480 N   0  0  0  0  0  0  0  0  0  0  0  0
   42.7520   35.7590   41.2260 O   0  0  0  0  0  0  0  0  0  0  0  0
   42.7250   34.9880   40.1740 C   0  0  0  0  0  0  0  0  0  0  0  0
   43.8530   34.2340   40.1070 N   0  0  0  0  0  0  0  0  0  0  0  0
   46.7800   33.9560   43.7840 C   0  0  0  0  0  0  0  0  0  0  0  0
   45.6680   34.1070   44.7930 C   0  0  0  0  0  0  0  0  0  0  0  0
   45.8410   33.2100   45.9300 C   0  0  0  0  0  0  0  0  0  0  0  0
   46.7220   32.1540   45.7200 C   0  0  0  0  0  0  0  0  0  0  0  0
   46.9810   31.2240   46.7120 C   0  0  0  0  0  0  0  0  0  0  0  0
   46.3310   31.3930   47.9080 N   0  0  0  0  0  0  0  0  0  0  0  0
   45.4710   32.4280   48.1050 C   0  0  0  0  0  0  0  0  0  0  0  0
   45.2300   33.3220   47.1310 N   0  0  0  0  0  0  0  0  0  0  0  0
   48.0840   29.8610   46.5200 S   0  0  0  0  0  0  0  0  0  0  0  0
   47.5708   36.4101   41.7574 H   0  0  0  0  0  0  0  0  0  0  0  0
   48.5118   35.4097   42.8985 H   0  0  0  0  0  0  0  0  0  0  0  0
   48.7240   35.0687   40.2318 H   0  0  0  0  0  0  0  0  0  0  0  0
   48.8252   33.6832   41.2949 H   0  0  0  0  0  0  0  0  0  0  0  0
   46.5060   34.6892   39.6270 H   0  0  0  0  0  0  0  0  0  0  0  0
   46.9320   33.0169   39.9936 H   0  0  0  0  0  0  0  0  0  0  0  0
   45.7394   33.0261   41.9242 H   0  0  0  0  0  0  0  0  0  0  0  0
   41.9035   34.9533   39.4432 H   0  0  0  0  0  0  0  0  0  0  0  0
   46.8208   32.9165   43.4266 H   0  0  0  0  0  0  0  0  0  0  0  0
   47.7480   34.2065   44.2426 H   0  0  0  0  0  0  0  0  0  0  0  0
   45.6565   35.1449   45.1572 H   0  0  0  0  0  0  0  0  0  0  0  0
   44.7201   33.8507   44.2972 H   0  0  0  0  0  0  0  0  0  0  0  0
   47.2231   32.0561   44.7457 H   0  0  0  0  0  0  0  0  0  0  0  0
   44.9652   32.5349   49.0759 H   0  0  0  0  0  0  0  0  0  0  0  0
   48.4580   29.3988   47.7543 H   0  0  0  0  0  0  0  0  0  0  0  0
  1 11  1  0
  2  1  1  0
  3  2  1  0
  4  3  1  0
  4  5  1  0
  5  1  1  0
  6  5  1  0
  6  7  2  0
  8  7  1  0
  9  8  1  0
 10  9  2  0
 10  6  1  0
 11 12  1  0
 12 13  1  0
 13 18  1  0
 14 13  2  0
 14 15  1  0
 15 16  2  0
 16 17  1  0
 18 17  2  0
 19 15  1  0
  2 20  1  0
  2 21  1  0
  3 22  1  0
  3 23  1  0
  4 24  1  0
  4 25  1  0
  5 26  1  1
  9 27  1  0
 11 28  1  0
 11 29  1  0
 12 30  1  0
 12 31  1  0
 14 32  1  0
 17 33  1  0
 19 34  1  0
M  ISO  8  20  13  21  13  22  13  23  13  24  13  25  13  26  13  27  14
M  ISO  7  28   8  29   8  30   8  31   8  32  14  33  14  34  11
M  END
>  <minimizedAffinity>  (1) 
-4.7296896

>  <minimizedRMSD>  (1) 
0.870882332

$$$$
