
     RDKit          3D

 36 38  0  0  1  0  0  0  0  0999 V2000
   46.5470   34.8330   42.6700 N   0  0  0  0  0  0  0  0  0  0  0  0
   47.7870   35.3820   42.1110 C   0  0  0  0  0  0  0  0  0  0  0  0
   48.1910   34.5180   40.9580 C   0  0  0  0  0  0  0  0  0  0  0  0
   46.8720   34.0550   40.4220 C   0  0  0  0  0  0  0  0  0  0  0  0
   45.9440   34.0650   41.6040 C   0  0  2  0  0  0  0  0  0  0  0  0
   44.6160   34.5540   41.2380 N   0  0  0  0  0  0  0  0  0  0  0  0
   43.8920   34.1120   40.1830 C   0  0  0  0  0  0  0  0  0  0  0  0
   42.6960   34.7960   40.1460 C   0  0  0  0  0  0  0  0  0  0  0  0
   42.7090   35.6410   41.1790 N   0  0  0  0  0  0  0  0  0  0  0  0
   43.8730   35.5110   41.8610 C   0  0  0  0  0  0  0  0  0  0  0  0
   46.8760   33.9320   43.7780 C   0  0  0  0  0  0  0  0  0  0  0  0
   45.7370   34.0030   44.7670 C   0  0  0  0  0  0  0  0  0  0  0  0
   45.9520   33.0800   45.8910 C   0  0  0  0  0  0  0  0  0  0  0  0
   46.8290   32.0270   45.6460 C   0  0  0  0  0  0  0  0  0  0  0  0
   47.1120   31.0970   46.6180 C   0  0  0  0  0  0  0  0  0  0  0  0
   46.4940   31.2510   47.8410 N   0  0  0  0  0  0  0  0  0  0  0  0
   45.6390   32.2800   48.0730 C   0  0  0  0  0  0  0  0  0  0  0  0
   45.3680   33.1920   47.1030 N   0  0  0  0  0  0  0  0  0  0  0  0
   48.2110   29.7420   46.3780 S   0  0  0  0  0  0  0  0  0  0  0  0
   47.6175   36.4124   41.7651 H   0  0  0  0  0  0  0  0  0  0  0  0
   48.5785   35.3983   42.8747 H   0  0  0  0  0  0  0  0  0  0  0  0
   48.7459   35.0954   40.2039 H   0  0  0  0  0  0  0  0  0  0  0  0
   48.8626   33.6942   41.2416 H   0  0  0  0  0  0  0  0  0  0  0  0
   46.5104   34.7403   39.6412 H   0  0  0  0  0  0  0  0  0  0  0  0
   46.9413   33.0588   39.9607 H   0  0  0  0  0  0  0  0  0  0  0  0
   45.7930   33.0361   41.9627 H   0  0  0  0  0  0  0  0  0  0  0  0
   44.2067   33.3342   39.4717 H   0  0  0  0  0  0  0  0  0  0  0  0
   41.8888   34.6701   39.4094 H   0  0  0  0  0  0  0  0  0  0  0  0
   44.1656   36.0772   42.7576 H   0  0  0  0  0  0  0  0  0  0  0  0
   46.9880   32.9029   43.4059 H   0  0  0  0  0  0  0  0  0  0  0  0
   47.8233   34.2277   44.2526 H   0  0  0  0  0  0  0  0  0  0  0  0
   45.6618   35.0296   45.1548 H   0  0  0  0  0  0  0  0  0  0  0  0
   44.8090   33.7147   44.2515 H   0  0  0  0  0  0  0  0  0  0  0  0
   47.3037   31.9376   44.6577 H   0  0  0  0  0  0  0  0  0  0  0  0
   45.1598   32.3765   49.0584 H   0  0  0  0  0  0  0  0  0  0  0  0
   48.6069   29.2539   47.5954 H   0  0  0  0  0  0  0  0  0  0  0  0
  1 11  1  0
  2  1  1  0
  3  2  1  0
  4  3  1  0
  4  5  1  0
  5  1  1  0
  6  5  1  0
  6 10  1  0
  7  6  1  0
  8  7  2  0
  8  9  1  0
  9 10  2  0
 11 12  1  0
 12 13  1  0
 13 18  1  0
 14 13  2  0
 14 15  1  0
 15 16  2  0
 16 17  1  0
 18 17  2  0
 19 15  1  0
  2 20  1  0
  2 21  1  0
  3 22  1  0
  3 23  1  0
  4 24  1  0
  4 25  1  0
  5 26  1  1
  7 27  1  0
  8 28  1  0
 10 29  1  0
 11 30  1  0
 11 31  1  0
 12 32  1  0
 12 33  1  0
 14 34  1  0
 17 35  1  0
 19 36  1  0
M  ISO  8  20  13  21  13  22  13  23  13  24  13  25  13  26  13  27  14
M  ISO  8  28  14  29  14  30   8  31   8  32   8  33   8  34  14  35  14
M  ISO  1  36  11
M  END
>  <minimizedAffinity>  (1) 
-4.69484425

>  <minimizedRMSD>  (1) 
0.831275463

$$$$
