
     RDKit          3D

 30 31  0  0  1  0  0  0  0  0999 V2000
   46.7830   33.8570   43.4190 C   0  0  0  0  0  0  0  0  0  0  0  0
   46.6490   34.8420   42.3560 N   0  0  0  0  0  0  0  0  0  0  0  0
   47.9440   35.4910   42.1140 C   0  0  0  0  0  0  0  0  0  0  0  0
   48.6040   34.7530   40.9970 C   0  0  0  0  0  0  0  0  0  0  0  0
   47.4440   34.2860   40.1730 C   0  0  0  0  0  0  0  0  0  0  0  0
   46.3010   34.1710   41.1290 C   0  0  1  0  0  0  0  0  0  0  0  0
   45.9280   32.4220   41.3000 S   0  0  0  0  0  0  0  0  0  0  0  0
   45.8620   34.2770   44.5370 C   0  0  0  0  0  0  0  0  0  0  0  0
   45.9320   33.3610   45.6700 C   0  0  0  0  0  0  0  0  0  0  0  0
   46.7690   32.2680   45.5170 C   0  0  0  0  0  0  0  0  0  0  0  0
   46.9240   31.3320   46.5110 C   0  0  0  0  0  0  0  0  0  0  0  0
   46.1990   31.5310   47.6810 N   0  0  0  0  0  0  0  0  0  0  0  0
   45.3900   32.5910   47.8220 C   0  0  0  0  0  0  0  0  0  0  0  0
   45.2610   33.4880   46.8340 N   0  0  0  0  0  0  0  0  0  0  0  0
   47.9900   29.9130   46.3570 S   0  0  0  0  0  0  0  0  0  0  0  0
   47.8225   33.8291   43.7778 H   0  0  0  0  0  0  0  0  0  0  0  0
   46.5214   32.8525   43.0549 H   0  0  0  0  0  0  0  0  0  0  0  0
   47.7917   36.5434   41.8326 H   0  0  0  0  0  0  0  0  0  0  0  0
   48.5678   35.4690   43.0197 H   0  0  0  0  0  0  0  0  0  0  0  0
   49.2597   35.4183   40.4161 H   0  0  0  0  0  0  0  0  0  0  0  0
   49.2508   33.9324   41.3409 H   0  0  0  0  0  0  0  0  0  0  0  0
   47.2137   35.0163   39.3834 H   0  0  0  0  0  0  0  0  0  0  0  0
   47.6562   33.3304   39.6712 H   0  0  0  0  0  0  0  0  0  0  0  0
   45.3840   34.6659   40.7766 H   0  0  0  0  0  0  0  0  0  0  0  0
   45.8588   32.0977   42.6293 H   0  0  0  0  0  0  0  0  0  0  0  0
   46.1485   35.2838   44.8750 H   0  0  0  0  0  0  0  0  0  0  0  0
   44.8314   34.2671   44.1527 H   0  0  0  0  0  0  0  0  0  0  0  0
   47.3241   32.1461   44.5752 H   0  0  0  0  0  0  0  0  0  0  0  0
   44.8268   32.7259   48.7572 H   0  0  0  0  0  0  0  0  0  0  0  0
   48.3303   29.4600   47.6043 H   0  0  0  0  0  0  0  0  0  0  0  0
  1  8  1  0
  2  1  1  0
  3  2  1  0
  4  3  1  0
  5  4  1  0
  5  6  1  0
  6  7  1  0
  6  2  1  0
  8  9  1  0
  9 14  1  0
 10  9  2  0
 10 11  1  0
 11 12  2  0
 12 13  1  0
 14 13  2  0
 15 11  1  0
  1 16  1  0
  1 17  1  0
  3 18  1  0
  3 19  1  0
  4 20  1  0
  4 21  1  0
  5 22  1  0
  5 23  1  0
  6 24  1  6
  7 25  1  0
  8 26  1  0
  8 27  1  0
 10 28  1  0
 13 29  1  0
 15 30  1  0
M  ISO  8  16   8  17   8  18  13  19  13  20  13  21  13  22  13  23  13
M  ISO  7  24  13  25  11  26   8  27   8  28  14  29  14  30  11
M  END
>  <minimizedAffinity>  (1) 
-3.81610227

>  <minimizedRMSD>  (1) 
0.560151815

$$$$
