
     RDKit          3D

 36 38  0  0  1  0  0  0  0  0999 V2000
   46.6830   33.9640   43.9490 C   0  0  0  0  0  0  0  0  0  0  0  0
   46.3960   34.9090   42.8830 N   0  0  0  0  0  0  0  0  0  0  0  0
   47.6100   35.1610   42.1170 C   0  0  0  0  0  0  0  0  0  0  0  0
   47.6190   34.2040   40.9450 C   0  0  0  0  0  0  0  0  0  0  0  0
   46.1320   34.1880   40.6310 C   0  0  0  0  0  0  0  0  0  0  0  0
   45.4570   34.2750   41.9450 C   0  0  2  0  0  0  0  0  0  0  0  0
   44.1220   34.9350   41.9670 C   0  0  0  0  0  0  0  0  0  0  0  0
   43.4360   35.3730   40.7320 C   0  0  0  0  0  0  0  0  0  0  0  0
   42.9580   34.1320   41.4750 C   0  0  0  0  0  0  0  0  0  0  0  0
   45.6680   34.1680   45.0480 C   0  0  0  0  0  0  0  0  0  0  0  0
   45.8500   33.1780   46.1230 C   0  0  0  0  0  0  0  0  0  0  0  0
   46.7580   32.1490   45.8600 C   0  0  0  0  0  0  0  0  0  0  0  0
   46.9810   31.1830   46.8140 C   0  0  0  0  0  0  0  0  0  0  0  0
   46.2960   31.2670   48.0000 N   0  0  0  0  0  0  0  0  0  0  0  0
   45.4250   32.2620   48.2380 C   0  0  0  0  0  0  0  0  0  0  0  0
   45.1960   33.2150   47.3160 N   0  0  0  0  0  0  0  0  0  0  0  0
   48.1250   29.8400   46.5450 S   0  0  0  0  0  0  0  0  0  0  0  0
   47.6957   34.1407   44.3403 H   0  0  0  0  0  0  0  0  0  0  0  0
   46.6275   32.9337   43.5678 H   0  0  0  0  0  0  0  0  0  0  0  0
   47.6153   36.1992   41.7535 H   0  0  0  0  0  0  0  0  0  0  0  0
   48.5007   35.0110   42.7448 H   0  0  0  0  0  0  0  0  0  0  0  0
   48.2130   34.5898   40.1034 H   0  0  0  0  0  0  0  0  0  0  0  0
   48.0685   33.2200   41.1444 H   0  0  0  0  0  0  0  0  0  0  0  0
   45.8616   35.0480   40.0007 H   0  0  0  0  0  0  0  0  0  0  0  0
   45.8385   33.2841   40.0771 H   0  0  0  0  0  0  0  0  0  0  0  0
   45.2068   33.2459   42.2422 H   0  0  0  0  0  0  0  0  0  0  0  0
   44.3920   35.4699   42.8895 H   0  0  0  0  0  0  0  0  0  0  0  0
   43.9378   35.2726   39.7583 H   0  0  0  0  0  0  0  0  0  0  0  0
   42.9649   36.3071   40.3920 H   0  0  0  0  0  0  0  0  0  0  0  0
   42.0039   34.1473   42.0221 H   0  0  0  0  0  0  0  0  0  0  0  0
   42.7851   33.0776   41.2137 H   0  0  0  0  0  0  0  0  0  0  0  0
   45.7876   35.1787   45.4654 H   0  0  0  0  0  0  0  0  0  0  0  0
   44.6609   34.0439   44.6233 H   0  0  0  0  0  0  0  0  0  0  0  0
   47.2902   32.1116   44.8980 H   0  0  0  0  0  0  0  0  0  0  0  0
   44.8919   32.2980   49.1995 H   0  0  0  0  0  0  0  0  0  0  0  0
   48.5440   29.3481   47.7531 H   0  0  0  0  0  0  0  0  0  0  0  0
  1 10  1  0
  2  1  1  0
  3  2  1  0
  4  3  1  0
  5  4  1  0
  5  6  1  0
  6  7  1  0
  6  2  1  0
  8  9  1  0
  8  7  1  0
  9  7  1  0
 10 11  1  0
 11 16  1  0
 12 11  2  0
 12 13  1  0
 13 14  2  0
 14 15  1  0
 16 15  2  0
 17 13  1  0
  1 18  1  0
  1 19  1  0
  3 20  1  0
  3 21  1  0
  4 22  1  0
  4 23  1  0
  5 24  1  0
  5 25  1  0
  6 26  1  1
  7 27  1  0
  8 28  1  0
  8 29  1  0
  9 30  1  0
  9 31  1  0
 10 32  1  0
 10 33  1  0
 12 34  1  0
 15 35  1  0
 17 36  1  0
M  ISO  8  18   8  19   8  20  13  21  13  22  13  23  13  24  13  25  13
M  ISO  8  26  13  27  13  28  13  29  13  30  13  31  13  32   8  33   8
M  ISO  3  34  14  35  14  36  11
M  END
>  <minimizedAffinity>  (1) 
-4.34467602

>  <minimizedRMSD>  (1) 
0.705958307

$$$$
