
     RDKit          3D

 35 36  0  0  1  0  0  0  0  0999 V2000
   46.6260   33.6380   44.1950 C   0  0  0  0  0  0  0  0  0  0  0  0
   46.4970   34.7670   43.2660 N   0  0  0  0  0  0  0  0  0  0  0  0
   47.6950   34.8260   42.4210 C   0  0  0  0  0  0  0  0  0  0  0  0
   47.4120   34.0750   41.1660 C   0  0  0  0  0  0  0  0  0  0  0  0
   45.9350   34.2760   40.9830 C   0  0  0  0  0  0  0  0  0  0  0  0
   45.4100   34.4670   42.3530 C   0  0  2  0  0  0  0  0  0  0  0  0
   44.3600   35.5280   42.4740 C   0  0  0  0  0  0  0  0  0  0  0  0
   43.4230   35.5740   41.3130 C   0  0  0  0  0  0  0  0  0  0  0  0
   45.6980   33.9030   45.3560 C   0  0  0  0  0  0  0  0  0  0  0  0
   45.8990   32.9600   46.4440 C   0  0  0  0  0  0  0  0  0  0  0  0
   46.8600   31.9880   46.2200 C   0  0  0  0  0  0  0  0  0  0  0  0
   47.1500   31.0270   47.1760 C   0  0  0  0  0  0  0  0  0  0  0  0
   46.4400   31.0830   48.3580 N   0  0  0  0  0  0  0  0  0  0  0  0
   45.5090   32.0320   48.5640 C   0  0  0  0  0  0  0  0  0  0  0  0
   45.2470   32.9500   47.6240 N   0  0  0  0  0  0  0  0  0  0  0  0
   48.3780   29.7580   46.9340 S   0  0  0  0  0  0  0  0  0  0  0  0
   47.6635   33.5614   44.5524 H   0  0  0  0  0  0  0  0  0  0  0  0
   46.3660   32.6924   43.6968 H   0  0  0  0  0  0  0  0  0  0  0  0
   47.9328   35.8734   42.1835 H   0  0  0  0  0  0  0  0  0  0  0  0
   48.5542   34.3826   42.9456 H   0  0  0  0  0  0  0  0  0  0  0  0
   47.9765   34.4921   40.3190 H   0  0  0  0  0  0  0  0  0  0  0  0
   47.7040   33.0157   41.2175 H   0  0  0  0  0  0  0  0  0  0  0  0
   45.7379   35.1641   40.3646 H   0  0  0  0  0  0  0  0  0  0  0  0
   45.4597   33.4273   40.4695 H   0  0  0  0  0  0  0  0  0  0  0  0
   44.9226   33.5161   42.6142 H   0  0  0  0  0  0  0  0  0  0  0  0
   43.7753   35.3367   43.3859 H   0  0  0  0  0  0  0  0  0  0  0  0
   44.8810   36.4962   42.5077 H   0  0  0  0  0  0  0  0  0  0  0  0
   42.3871   35.6249   41.6796 H   0  0  0  0  0  0  0  0  0  0  0  0
   43.6397   36.4626   40.7019 H   0  0  0  0  0  0  0  0  0  0  0  0
   43.5516   34.6685   40.7019 H   0  0  0  0  0  0  0  0  0  0  0  0
   45.8807   34.9209   45.7308 H   0  0  0  0  0  0  0  0  0  0  0  0
   44.6648   33.7892   44.9961 H   0  0  0  0  0  0  0  0  0  0  0  0
   47.4041   31.9785   45.2641 H   0  0  0  0  0  0  0  0  0  0  0  0
   44.9566   32.0545   49.5150 H   0  0  0  0  0  0  0  0  0  0  0  0
   48.8146   29.3068   48.1517 H   0  0  0  0  0  0  0  0  0  0  0  0
  1  9  1  0
  2  1  1  0
  3  2  1  0
  4  3  1  0
  5  4  1  0
  5  6  1  0
  6  7  1  0
  6  2  1  0
  8  7  1  0
  9 10  1  0
 10 15  1  0
 11 10  2  0
 11 12  1  0
 12 13  2  0
 13 14  1  0
 15 14  2  0
 16 12  1  0
  1 17  1  0
  1 18  1  0
  3 19  1  0
  3 20  1  0
  4 21  1  0
  4 22  1  0
  5 23  1  0
  5 24  1  0
  6 25  1  1
  7 26  1  0
  7 27  1  0
  8 28  1  0
  8 29  1  0
  8 30  1  0
  9 31  1  0
  9 32  1  0
 11 33  1  0
 14 34  1  0
 16 35  1  0
M  ISO  8  17   8  18   8  19  13  20  13  21  13  22  13  23  13  24  13
M  ISO  8  25  13  26   8  27   8  28   8  29   8  30   8  31   8  32   8
M  ISO  3  33  14  34  14  35  11
M  END
>  <minimizedAffinity>  (1) 
-4.29891729

>  <minimizedRMSD>  (1) 
0.849962234

$$$$
