
     RDKit          3D

 34 36  0  0  0  0  0  0  0  0999 V2000
   44.7580   35.1650   42.9770 C   0  0  0  0  0  0  0  0  0  0  0  0
   45.9360   34.4730   42.7620 C   0  0  0  0  0  0  0  0  0  0  0  0
   46.6080   33.9710   43.9020 C   0  0  0  0  0  0  0  0  0  0  0  0
   46.0720   34.1930   45.1100 N   0  0  0  0  0  0  0  0  0  0  0  0
   44.9260   34.8700   45.2880 C   0  0  0  0  0  0  0  0  0  0  0  0
   44.2660   35.3580   44.2230 N   0  0  0  0  0  0  0  0  0  0  0  0
   46.5290   34.2250   41.4530 C   0  0  0  0  0  0  0  0  0  0  0  0
   47.7510   34.7780   41.0800 C   0  0  0  0  0  0  0  0  0  0  0  0
   48.0530   34.3930   39.8460 N   0  0  0  0  0  0  0  0  0  0  0  0
   47.0870   33.6080   39.3800 C   0  0  0  0  0  0  0  0  0  0  0  0
   46.1810   33.5270   40.3740 N   0  0  0  0  0  0  0  0  0  0  0  0
   43.8400   35.8480   41.6100 S   0  0  0  0  0  0  0  0  0  0  0  0
   42.6280   34.6950   40.9320 C   0  0  0  0  0  0  0  0  0  0  0  0
   42.5410   34.9990   39.4590 C   0  0  0  0  0  0  0  0  0  0  0  0
   41.1590   34.8380   38.8930 C   0  0  0  0  0  0  0  0  0  0  0  0
   40.1070   35.5890   39.6490 C   0  0  0  0  0  0  0  0  0  0  0  0
   40.6760   36.1230   40.9430 C   0  0  0  0  0  0  0  0  0  0  0  0
   41.3220   34.9310   41.6500 C   0  0  0  0  0  0  0  0  0  0  0  0
   47.5492   33.4111   43.7987 H   0  0  0  0  0  0  0  0  0  0  0  0
   44.5285   35.0248   46.3019 H   0  0  0  0  0  0  0  0  0  0  0  0
   48.3705   35.4328   41.7104 H   0  0  0  0  0  0  0  0  0  0  0  0
   47.0376   33.1265   38.3922 H   0  0  0  0  0  0  0  0  0  0  0  0
   45.3098   32.9818   40.3062 H   0  0  0  0  0  0  0  0  0  0  0  0
   42.8954   33.6364   41.0661 H   0  0  0  0  0  0  0  0  0  0  0  0
   42.8637   36.0383   39.2986 H   0  0  0  0  0  0  0  0  0  0  0  0
   43.1882   34.2757   38.9413 H   0  0  0  0  0  0  0  0  0  0  0  0
   41.1650   35.1998   37.8542 H   0  0  0  0  0  0  0  0  0  0  0  0
   40.9051   33.7701   38.9644 H   0  0  0  0  0  0  0  0  0  0  0  0
   39.7485   36.4288   39.0357 H   0  0  0  0  0  0  0  0  0  0  0  0
   39.2737   34.9082   39.8770 H   0  0  0  0  0  0  0  0  0  0  0  0
   41.4290   36.8980   40.7372 H   0  0  0  0  0  0  0  0  0  0  0  0
   39.8936   36.5819   41.5654 H   0  0  0  0  0  0  0  0  0  0  0  0
   40.6763   34.0436   41.5750 H   0  0  0  0  0  0  0  0  0  0  0  0
   41.4752   35.1265   42.7216 H   0  0  0  0  0  0  0  0  0  0  0  0
  1  6  2  0
  2  1  1  0
  2  3  2  0
  3  4  1  0
  4  5  2  0
  6  5  1  0
  7  2  1  0
  8  7  2  0
  9  8  1  0
 10  9  2  0
 10 11  1  0
 11  7  1  0
 12  1  1  0
 13 12  1  0
 13 18  1  0
 14 13  1  0
 15 14  1  0
 15 16  1  0
 16 17  1  0
 17 18  1  0
  3 19  1  0
  5 20  1  0
  8 21  1  0
 10 22  1  0
 11 23  1  0
 13 24  1  0
 14 25  1  0
 14 26  1  0
 15 27  1  0
 15 28  1  0
 16 29  1  0
 16 30  1  0
 17 31  1  0
 17 32  1  0
 18 33  1  0
 18 34  1  0
M  ISO  8  19  14  20  14  21  14  22  14  23   9  24  13  25  13  26  13
M  ISO  8  27  13  28  13  29  13  30  13  31  13  32  13  33  13  34  13
M  END
>  <minimizedAffinity>  (1) 
-4.98829651

>  <minimizedRMSD>  (1) 
1.74778128

$$$$
