
     RDKit          3D

 27 29  0  0  0  0  0  0  0  0999 V2000
   45.5690   34.8640   43.8240 C   0  0  0  0  0  0  0  0  0  0  0  0
   46.7160   34.2470   43.3650 C   0  0  0  0  0  0  0  0  0  0  0  0
   47.3070   33.2970   44.2280 C   0  0  0  0  0  0  0  0  0  0  0  0
   46.7370   33.0520   45.4170 N   0  0  0  0  0  0  0  0  0  0  0  0
   45.6130   33.6800   45.8260 C   0  0  0  0  0  0  0  0  0  0  0  0
   45.0190   34.5970   45.0240 N   0  0  0  0  0  0  0  0  0  0  0  0
   47.3430   34.4940   42.0890 C   0  0  0  0  0  0  0  0  0  0  0  0
   48.3530   35.4260   41.9170 C   0  0  0  0  0  0  0  0  0  0  0  0
   48.7520   35.4540   40.6490 N   0  0  0  0  0  0  0  0  0  0  0  0
   48.0370   34.5620   39.9570 C   0  0  0  0  0  0  0  0  0  0  0  0
   47.2000   34.0010   40.8440 N   0  0  0  0  0  0  0  0  0  0  0  0
   44.7360   36.0950   42.8110 S   0  0  0  0  0  0  0  0  0  0  0  0
   43.5350   35.3200   41.7210 C   0  0  0  0  0  0  0  0  0  0  0  0
   42.1610   35.3540   41.8140 C   0  0  0  0  0  0  0  0  0  0  0  0
   41.4250   34.6840   40.8610 C   0  0  0  0  0  0  0  0  0  0  0  0
   42.0990   34.0040   39.8510 C   0  0  0  0  0  0  0  0  0  0  0  0
   43.4770   33.9730   39.7640 C   0  0  0  0  0  0  0  0  0  0  0  0
   44.1740   34.6470   40.7220 N   0  0  0  0  0  0  0  0  0  0  0  0
   48.2224   32.7655   43.9286 H   0  0  0  0  0  0  0  0  0  0  0  0
   45.1799   33.4471   46.8100 H   0  0  0  0  0  0  0  0  0  0  0  0
   48.7675   36.0556   42.7182 H   0  0  0  0  0  0  0  0  0  0  0  0
   48.1175   34.3347   38.8838 H   0  0  0  0  0  0  0  0  0  0  0  0
   46.5186   33.2689   40.5977 H   0  0  0  0  0  0  0  0  0  0  0  0
   41.6641   35.9020   42.6282 H   0  0  0  0  0  0  0  0  0  0  0  0
   40.3256   34.6866   40.8979 H   0  0  0  0  0  0  0  0  0  0  0  0
   41.5102   33.4694   39.0910 H   0  0  0  0  0  0  0  0  0  0  0  0
   43.9894   33.4284   38.9572 H   0  0  0  0  0  0  0  0  0  0  0  0
  1  6  2  0
  2  1  1  0
  2  3  2  0
  3  4  1  0
  4  5  2  0
  6  5  1  0
  7  2  1  0
  8  7  2  0
  9  8  1  0
 10  9  2  0
 10 11  1  0
 11  7  1  0
 12  1  1  0
 13 14  2  0
 13 12  1  0
 15 14  1  0
 16 15  2  0
 17 16  1  0
 17 18  2  0
 18 13  1  0
  3 19  1  0
  5 20  1  0
  8 21  1  0
 10 22  1  0
 11 23  1  0
 14 24  1  0
 15 25  1  0
 16 26  1  0
 17 27  1  0
M  ISO  8  19  14  20  14  21  14  22  14  23   9  24  14  25  14  26  14
M  ISO  1  27  14
M  END
>  <minimizedAffinity>  (1) 
-4.85030317

>  <minimizedRMSD>  (1) 
0.209873483

$$$$
