
     RDKit          3D

 34 37  0  0  0  0  0  0  0  0999 V2000
   46.3690   32.1600   45.0470 C   0  0  0  0  0  0  0  0  0  0  0  0
   45.7210   30.9490   45.3190 C   0  0  0  0  0  0  0  0  0  0  0  0
   45.7300   30.4850   46.6470 C   0  0  0  0  0  0  0  0  0  0  0  0
   46.3590   31.2270   47.5850 N   0  0  0  0  0  0  0  0  0  0  0  0
   46.9720   32.3850   47.2990 C   0  0  0  0  0  0  0  0  0  0  0  0
   46.9840   32.8580   46.0430 N   0  0  0  0  0  0  0  0  0  0  0  0
   45.0490   30.1550   44.3100 C   0  0  0  0  0  0  0  0  0  0  0  0
   45.6440   29.0300   43.7420 C   0  0  0  0  0  0  0  0  0  0  0  0
   44.8170   28.4890   42.8470 N   0  0  0  0  0  0  0  0  0  0  0  0
   43.7010   29.2070   42.7990 C   0  0  0  0  0  0  0  0  0  0  0  0
   43.8690   30.2010   43.6890 N   0  0  0  0  0  0  0  0  0  0  0  0
   46.4190   32.8510   43.4060 S   0  0  0  0  0  0  0  0  0  0  0  0
   48.0130   33.4320   42.9330 C   0  0  0  0  0  0  0  0  0  0  0  0
   48.4500   34.7190   42.8060 C   0  0  0  0  0  0  0  0  0  0  0  0
   49.7170   35.0730   42.4240 C   0  0  0  0  0  0  0  0  0  0  0  0
   50.6060   34.0310   42.1540 C   0  0  0  0  0  0  0  0  0  0  0  0
   50.2190   32.7130   42.2670 C   0  0  0  0  0  0  0  0  0  0  0  0
   51.1810   31.7560   41.9740 C   0  0  0  0  0  0  0  0  0  0  0  0
   50.8340   30.4290   42.0750 C   0  0  0  0  0  0  0  0  0  0  0  0
   49.5560   30.0900   42.4590 C   0  0  0  0  0  0  0  0  0  0  0  0
   48.6360   31.0710   42.7390 C   0  0  0  0  0  0  0  0  0  0  0  0
   48.9080   32.4160   42.6610 C   0  0  0  0  0  0  0  0  0  0  0  0
   45.2362   29.5395   46.9158 H   0  0  0  0  0  0  0  0  0  0  0  0
   47.4689   32.9517   48.1002 H   0  0  0  0  0  0  0  0  0  0  0  0
   46.6438   28.6467   43.9938 H   0  0  0  0  0  0  0  0  0  0  0  0
   42.8217   29.0262   42.1633 H   0  0  0  0  0  0  0  0  0  0  0  0
   43.1590   30.9242   43.8726 H   0  0  0  0  0  0  0  0  0  0  0  0
   47.7362   35.5267   43.0253 H   0  0  0  0  0  0  0  0  0  0  0  0
   50.0192   36.1269   42.3344 H   0  0  0  0  0  0  0  0  0  0  0  0
   51.6352   34.2664   41.8451 H   0  0  0  0  0  0  0  0  0  0  0  0
   52.1956   32.0517   41.6686 H   0  0  0  0  0  0  0  0  0  0  0  0
   51.5718   29.6446   41.8507 H   0  0  0  0  0  0  0  0  0  0  0  0
   49.2709   29.0308   42.5418 H   0  0  0  0  0  0  0  0  0  0  0  0
   47.6247   30.7627   43.0427 H   0  0  0  0  0  0  0  0  0  0  0  0
  1  2  1  0
  1  6  2  0
  2  3  2  0
  3  4  1  0
  5  4  2  0
  6  5  1  0
  7  2  1  0
  8  7  2  0
  9  8  1  0
 10  9  2  0
 10 11  1  0
 11  7  1  0
 12  1  1  0
 13 12  1  0
 14 13  2  0
 15 14  1  0
 16 17  1  0
 16 15  2  0
 17 22  2  0
 18 19  2  0
 18 17  1  0
 19 20  1  0
 20 21  2  0
 22 21  1  0
 22 13  1  0
  3 23  1  0
  5 24  1  0
  8 25  1  0
 10 26  1  0
 11 27  1  0
 14 28  1  0
 15 29  1  0
 16 30  1  0
 18 31  1  0
 19 32  1  0
 20 33  1  0
 21 34  1  0
M  ISO  8  23  14  24  14  25  14  26  14  27   9  28  14  29  14  30  14
M  ISO  4  31  14  32  14  33  14  34  14
M  END
>  <minimizedAffinity>  (1) 
-4.18544531

>  <minimizedRMSD>  (1) 
5.86672401

$$$$
