
     RDKit          3D

 23 25  0  0  0  0  0  0  0  0999 V2000
   45.6580   34.7920   43.9180 C   0  0  0  0  0  0  0  0  0  0  0  0
   46.7760   34.1560   43.4040 C   0  0  0  0  0  0  0  0  0  0  0  0
   47.3760   33.1570   44.1990 C   0  0  0  0  0  0  0  0  0  0  0  0
   46.8200   32.8900   45.4060 N   0  0  0  0  0  0  0  0  0  0  0  0
   45.7370   33.5250   45.8740 C   0  0  0  0  0  0  0  0  0  0  0  0
   45.1390   34.4920   45.1280 N   0  0  0  0  0  0  0  0  0  0  0  0
   47.3660   34.4410   42.1190 C   0  0  0  0  0  0  0  0  0  0  0  0
   48.3760   35.3840   41.9420 C   0  0  0  0  0  0  0  0  0  0  0  0
   48.7320   35.4440   40.6590 N   0  0  0  0  0  0  0  0  0  0  0  0
   47.9970   34.5740   39.9680 C   0  0  0  0  0  0  0  0  0  0  0  0
   47.1870   33.9860   40.8650 N   0  0  0  0  0  0  0  0  0  0  0  0
   44.8250   36.0770   42.9840 S   0  0  0  0  0  0  0  0  0  0  0  0
   43.6730   35.3860   41.8090 C   0  0  0  0  0  0  0  0  0  0  0  0
   42.3270   35.3520   41.7130 N   0  0  0  0  0  0  0  0  0  0  0  0
   41.9670   34.7120   40.6490 O   0  0  0  0  0  0  0  0  0  0  0  0
   43.0430   34.3030   40.0020 C   0  0  0  0  0  0  0  0  0  0  0  0
   44.1320   34.7160   40.7150 N   0  0  0  0  0  0  0  0  0  0  0  0
   48.2660   32.6125   43.8507 H   0  0  0  0  0  0  0  0  0  0  0  0
   45.3312   33.2639   46.8625 H   0  0  0  0  0  0  0  0  0  0  0  0
   48.8166   35.9920   42.7459 H   0  0  0  0  0  0  0  0  0  0  0  0
   48.0434   34.3775   38.8867 H   0  0  0  0  0  0  0  0  0  0  0  0
   46.4989   33.2606   40.6178 H   0  0  0  0  0  0  0  0  0  0  0  0
   43.0592   33.7338   39.0609 H   0  0  0  0  0  0  0  0  0  0  0  0
  1  6  2  0
  2  1  1  0
  2  3  2  0
  3  4  1  0
  4  5  2  0
  6  5  1  0
  7  2  1  0
  8  7  2  0
  9  8  1  0
 10  9  2  0
 10 11  1  0
 11  7  1  0
 12  1  1  0
 13 12  1  0
 14 13  2  0
 15 14  1  0
 16 15  1  0
 16 17  2  0
 17 13  1  0
  3 18  1  0
  5 19  1  0
  8 20  1  0
 10 21  1  0
 11 22  1  0
 16 23  1  0
M  ISO  6  18  14  19  14  20  14  21  14  22   9  23  14
M  END
>  <minimizedAffinity>  (1) 
-4.67961264

>  <minimizedRMSD>  (1) 
0.204881251

$$$$
