
     RDKit          3D

 26 28  0  0  0  0  0  0  0  0999 V2000
   45.6010   34.8220   43.8470 C   0  0  0  0  0  0  0  0  0  0  0  0
   46.7410   34.2060   43.3620 C   0  0  0  0  0  0  0  0  0  0  0  0
   47.3410   33.2500   44.2020 C   0  0  0  0  0  0  0  0  0  0  0  0
   46.7890   32.9880   45.4090 N   0  0  0  0  0  0  0  0  0  0  0  0
   45.6770   33.6140   45.8390 C   0  0  0  0  0  0  0  0  0  0  0  0
   45.0760   34.5360   45.0610 N   0  0  0  0  0  0  0  0  0  0  0  0
   47.3520   34.4670   42.0760 C   0  0  0  0  0  0  0  0  0  0  0  0
   48.3620   35.4140   41.9170 C   0  0  0  0  0  0  0  0  0  0  0  0
   48.7490   35.4580   40.6430 N   0  0  0  0  0  0  0  0  0  0  0  0
   48.0270   34.5680   39.9500 C   0  0  0  0  0  0  0  0  0  0  0  0
   47.2030   33.9950   40.8430 N   0  0  0  0  0  0  0  0  0  0  0  0
   44.7510   36.0640   42.8530 S   0  0  0  0  0  0  0  0  0  0  0  0
   43.5740   35.3070   41.7600 C   0  0  0  0  0  0  0  0  0  0  0  0
   42.1960   35.3120   41.8160 C   0  0  0  0  0  0  0  0  0  0  0  0
   41.4700   34.6530   40.8520 C   0  0  0  0  0  0  0  0  0  0  0  0
   42.0670   33.9940   39.8430 N   0  0  0  0  0  0  0  0  0  0  0  0
   43.4270   33.9890   39.7870 C   0  0  0  0  0  0  0  0  0  0  0  0
   44.1630   34.6340   40.7280 N   0  0  0  0  0  0  0  0  0  0  0  0
   48.2501   32.7207   43.8804 H   0  0  0  0  0  0  0  0  0  0  0  0
   45.2583   33.3724   46.8271 H   0  0  0  0  0  0  0  0  0  0  0  0
   48.7784   36.0339   42.7246 H   0  0  0  0  0  0  0  0  0  0  0  0
   48.0946   34.3513   38.8737 H   0  0  0  0  0  0  0  0  0  0  0  0
   46.5228   33.2620   40.5961 H   0  0  0  0  0  0  0  0  0  0  0  0
   41.6791   35.8418   42.6297 H   0  0  0  0  0  0  0  0  0  0  0  0
   40.3715   34.6651   40.9076 H   0  0  0  0  0  0  0  0  0  0  0  0
   43.9356   33.4563   38.9700 H   0  0  0  0  0  0  0  0  0  0  0  0
  1  6  2  0
  2  1  1  0
  2  3  2  0
  3  4  1  0
  4  5  2  0
  6  5  1  0
  7  2  1  0
  8  7  2  0
  9  8  1  0
 10  9  2  0
 10 11  1  0
 11  7  1  0
 12  1  1  0
 13 14  2  0
 13 12  1  0
 15 14  1  0
 16 15  2  0
 17 16  1  0
 17 18  2  0
 18 13  1  0
  3 19  1  0
  5 20  1  0
  8 21  1  0
 10 22  1  0
 11 23  1  0
 14 24  1  0
 15 25  1  0
 17 26  1  0
M  ISO  8  19  14  20  14  21  14  22  14  23   9  24  14  25  14  26  14
M  END
>  <minimizedAffinity>  (1) 
-4.82825565

>  <minimizedRMSD>  (1) 
0.265882909

$$$$
