
     RDKit          3D

 32 34  0  0  1  0  0  0  0  0999 V2000
   44.5800   35.8140   44.9030 C   0  0  0  0  0  0  0  0  0  0  0  0
   45.1700   35.7560   43.6170 C   0  0  0  0  0  0  0  0  0  0  0  0
   45.9640   34.6660   43.3300 C   0  0  0  0  0  0  0  0  0  0  0  0
   46.1460   33.7020   44.2810 N   0  0  0  0  0  0  0  0  0  0  0  0
   45.5620   33.8010   45.4920 C   0  0  0  0  0  0  0  0  0  0  0  0
   44.7890   34.8440   45.7960 N   0  0  0  0  0  0  0  0  0  0  0  0
   45.7800   32.7560   46.4890 N   0  0  0  0  0  0  0  0  0  0  0  0
   45.1580   32.8500   47.7870 C   0  0  0  0  0  0  0  0  0  0  0  0
   46.0230   32.2990   48.8870 C   0  0  0  0  0  0  0  0  0  0  0  0
   47.4290   32.1710   48.4070 C   0  0  0  0  0  0  0  0  0  0  0  0
   47.4240   31.1200   47.2980 C   0  0  0  0  0  0  0  0  0  0  0  0
   46.6300   31.6290   46.1480 C   0  0  1  0  0  0  0  0  0  0  0  0
   45.8660   30.5610   45.4280 C   0  0  0  0  0  0  0  0  0  0  0  0
   45.8370   30.2980   44.1210 N   0  0  0  0  0  0  0  0  0  0  0  0
   45.0670   29.2800   43.8530 O   0  0  0  0  0  0  0  0  0  0  0  0
   44.5790   28.8660   45.0040 C   0  0  0  0  0  0  0  0  0  0  0  0
   45.0460   29.6300   46.0200 N   0  0  0  0  0  0  0  0  0  0  0  0
   43.6850   27.7800   45.2350 N   0  0  0  0  0  0  0  0  0  0  0  0
   43.9414   36.6691   45.1695 H   0  0  0  0  0  0  0  0  0  0  0  0
   45.0012   36.5505   42.8751 H   0  0  0  0  0  0  0  0  0  0  0  0
   46.4460   34.5734   42.3456 H   0  0  0  0  0  0  0  0  0  0  0  0
   44.9485   33.9085   48.0009 H   0  0  0  0  0  0  0  0  0  0  0  0
   44.2362   32.2505   47.7576 H   0  0  0  0  0  0  0  0  0  0  0  0
   45.9925   32.9790   49.7511 H   0  0  0  0  0  0  0  0  0  0  0  0
   45.6481   31.3079   49.1823 H   0  0  0  0  0  0  0  0  0  0  0  0
   47.7838   33.1349   48.0134 H   0  0  0  0  0  0  0  0  0  0  0  0
   48.1002   31.8758   49.2270 H   0  0  0  0  0  0  0  0  0  0  0  0
   48.4563   30.9218   46.9738 H   0  0  0  0  0  0  0  0  0  0  0  0
   46.9766   30.1878   47.6732 H   0  0  0  0  0  0  0  0  0  0  0  0
   47.3839   32.0040   45.4402 H   0  0  0  0  0  0  0  0  0  0  0  0
   43.3781   27.5605   46.1934 H   0  0  0  0  0  0  0  0  0  0  0  0
   43.3459   27.2148   44.4435 H   0  0  0  0  0  0  0  0  0  0  0  0
  1  6  2  0
  2  1  1  0
  3  2  2  0
  3  4  1  0
  4  5  2  0
  5  6  1  0
  5  7  1  0
  7  8  1  0
  8  9  1  0
 10  9  1  0
 11 10  1  0
 12  7  1  0
 12 11  1  0
 13 17  1  0
 13 12  1  0
 14 13  2  0
 15 14  1  0
 15 16  1  0
 16 18  1  0
 16 17  2  0
  1 19  1  0
  2 20  1  0
  3 21  1  0
  8 22  1  0
  8 23  1  0
  9 24  1  0
  9 25  1  0
 10 26  1  0
 10 27  1  0
 11 28  1  0
 11 29  1  0
 12 30  1  6
 18 31  1  0
 18 32  1  0
M  ISO  8  19  14  20  14  21  14  22  13  23  13  24  13  25  13  26  13
M  ISO  4  27  13  28  13  29  13  30  13
M  END
>  <minimizedAffinity>  (1) 
-5.07840681

>  <minimizedRMSD>  (1) 
0.0708598942

$$$$
