
     RDKit          3D

 24 25  0  0  0  0  0  0  0  0999 V2000
   45.6770   34.7400   43.9300 C   0  0  0  0  0  0  0  0  0  0  0  0
   46.7960   34.1210   43.4100 C   0  0  0  0  0  0  0  0  0  0  0  0
   47.4010   33.1310   44.2090 C   0  0  0  0  0  0  0  0  0  0  0  0
   46.8640   32.8500   45.4130 N   0  0  0  0  0  0  0  0  0  0  0  0
   45.7680   33.4800   45.8820 C   0  0  0  0  0  0  0  0  0  0  0  0
   45.1600   34.4370   45.1430 N   0  0  0  0  0  0  0  0  0  0  0  0
   47.3840   34.4090   42.1220 C   0  0  0  0  0  0  0  0  0  0  0  0
   48.3420   35.3910   41.9310 C   0  0  0  0  0  0  0  0  0  0  0  0
   48.7080   35.4420   40.6560 N   0  0  0  0  0  0  0  0  0  0  0  0
   48.0200   34.5190   39.9730 C   0  0  0  0  0  0  0  0  0  0  0  0
   47.2320   33.9140   40.8790 N   0  0  0  0  0  0  0  0  0  0  0  0
   44.8280   36.0210   42.9960 S   0  0  0  0  0  0  0  0  0  0  0  0
   43.3840   35.3310   42.1390 C   0  0  0  0  0  0  0  0  0  0  0  0
   43.7900   34.9080   40.7380 C   0  0  0  0  0  0  0  0  0  0  0  0
   48.2957   32.5968   43.8566 H   0  0  0  0  0  0  0  0  0  0  0  0
   45.3658   33.2146   46.8708 H   0  0  0  0  0  0  0  0  0  0  0  0
   48.7434   36.0381   42.7248 H   0  0  0  0  0  0  0  0  0  0  0  0
   48.0855   34.3012   38.8968 H   0  0  0  0  0  0  0  0  0  0  0  0
   46.5800   33.1513   40.6465 H   0  0  0  0  0  0  0  0  0  0  0  0
   43.0099   34.4575   42.6932 H   0  0  0  0  0  0  0  0  0  0  0  0
   42.5909   36.0910   42.0804 H   0  0  0  0  0  0  0  0  0  0  0  0
   44.5505   34.1157   40.8001 H   0  0  0  0  0  0  0  0  0  0  0  0
   42.9088   34.5291   40.1996 H   0  0  0  0  0  0  0  0  0  0  0  0
   44.2048   35.7729   40.1996 H   0  0  0  0  0  0  0  0  0  0  0  0
  1  6  2  0
  2  1  1  0
  2  3  2  0
  3  4  1  0
  4  5  2  0
  6  5  1  0
  7  2  1  0
  8  7  2  0
  9  8  1  0
 10  9  2  0
 10 11  1  0
 11  7  1  0
 12  1  1  0
 13 12  1  0
 14 13  1  0
  3 15  1  0
  5 16  1  0
  8 17  1  0
 10 18  1  0
 11 19  1  0
 13 20  1  0
 13 21  1  0
 14 22  1  0
 14 23  1  0
 14 24  1  0
M  ISO  8  15  14  16  14  17  14  18  14  19   9  20   8  21   8  22   8
M  ISO  2  23   8  24   8
M  END
>  <minimizedAffinity>  (1) 
-4.01734829

>  <minimizedRMSD>  (1) 
0.146156281

$$$$
