
     RDKit          3D

 30 31  0  0  0  0  0  0  0  0999 V2000
   45.7530   34.3900   44.2300 C   0  0  0  0  0  0  0  0  0  0  0  0
   46.7580   33.4460   44.3030 C   0  0  0  0  0  0  0  0  0  0  0  0
   46.9200   32.7770   45.5390 C   0  0  0  0  0  0  0  0  0  0  0  0
   46.0860   33.1010   46.5580 N   0  0  0  0  0  0  0  0  0  0  0  0
   45.1240   34.0220   46.4420 C   0  0  0  0  0  0  0  0  0  0  0  0
   44.9450   34.6800   45.2690 N   0  0  0  0  0  0  0  0  0  0  0  0
   47.6510   33.0940   43.2270 C   0  0  0  0  0  0  0  0  0  0  0  0
   48.7670   33.8460   42.9030 C   0  0  0  0  0  0  0  0  0  0  0  0
   49.4110   33.2950   41.8730 N   0  0  0  0  0  0  0  0  0  0  0  0
   48.7690   32.1990   41.4940 C   0  0  0  0  0  0  0  0  0  0  0  0
   47.7120   32.0980   42.3240 N   0  0  0  0  0  0  0  0  0  0  0  0
   45.4780   35.3000   42.7140 S   0  0  0  0  0  0  0  0  0  0  0  0
   44.5540   34.3900   41.5030 C   0  0  0  0  0  0  0  0  0  0  0  0
   43.8070   33.1960   41.9980 C   0  0  0  0  0  0  0  0  0  0  0  0
   43.5010   35.3460   40.9300 C   0  0  0  0  0  0  0  0  0  0  0  0
   45.4950   34.0460   40.3540 C   0  0  0  0  0  0  0  0  0  0  0  0
   47.7017   32.0143   45.6700 H   0  0  0  0  0  0  0  0  0  0  0  0
   44.4749   34.2473   47.3010 H   0  0  0  0  0  0  0  0  0  0  0  0
   49.0780   34.7656   43.4204 H   0  0  0  0  0  0  0  0  0  0  0  0
   49.0413   31.5165   40.6754 H   0  0  0  0  0  0  0  0  0  0  0  0
   47.0210   31.3359   42.2725 H   0  0  0  0  0  0  0  0  0  0  0  0
   43.8059   33.1943   43.0980 H   0  0  0  0  0  0  0  0  0  0  0  0
   42.7709   33.2333   41.6304 H   0  0  0  0  0  0  0  0  0  0  0  0
   44.2937   32.2806   41.6304 H   0  0  0  0  0  0  0  0  0  0  0  0
   42.9623   35.8351   41.7549 H   0  0  0  0  0  0  0  0  0  0  0  0
   43.9964   36.1093   40.3120 H   0  0  0  0  0  0  0  0  0  0  0  0
   42.7889   34.7794   40.3120 H   0  0  0  0  0  0  0  0  0  0  0  0
   46.4555   33.6949   40.7592 H   0  0  0  0  0  0  0  0  0  0  0  0
   45.0459   33.2539   39.7368 H   0  0  0  0  0  0  0  0  0  0  0  0
   45.6626   34.9410   39.7368 H   0  0  0  0  0  0  0  0  0  0  0  0
  1  2  2  0
  1  6  1  0
  2  3  1  0
  3  4  2  0
  5  4  1  0
  6  5  2  0
  7  2  1  0
  8  7  2  0
  9  8  1  0
 10  9  2  0
 10 11  1  0
 11  7  1  0
 12  1  1  0
 13 14  1  0
 13 12  1  0
 15 13  1  0
 16 13  1  0
  3 17  1  0
  5 18  1  0
  8 19  1  0
 10 20  1  0
 11 21  1  0
 14 22  1  0
 14 23  1  0
 14 24  1  0
 15 25  1  0
 15 26  1  0
 15 27  1  0
 16 28  1  0
 16 29  1  0
 16 30  1  0
M  ISO  8  17  14  18  14  19  14  20  14  21   9  22   8  23   8  24   8
M  ISO  6  25   8  26   8  27   8  28   8  29   8  30   8
M  END
>  <minimizedAffinity>  (1) 
-3.75356507

>  <minimizedRMSD>  (1) 
2.61392808

$$$$
