
     RDKit          3D

 44 48  0  0  1  0  0  0  0  0999 V2000
   42.7570   33.9230   39.0970 N   0  0  0  0  0  0  0  0  0  0  0  0
   43.6050   33.0860   39.8330 C   0  0  0  0  0  0  0  0  0  0  0  0
   44.0240   33.6180   41.1860 C   0  0  0  0  0  0  0  0  0  0  0  0
   43.9390   35.1180   41.2330 C   0  0  1  0  0  0  0  0  0  0  0  0
   42.4550   35.4020   41.0870 C   0  0  0  0  0  0  0  0  0  0  0  0
   42.0100   34.9050   39.7740 C   0  0  2  0  0  0  0  0  0  0  0  0
   40.6500   34.4040   39.9070 N   0  0  0  0  0  0  0  0  0  0  0  0
   39.4770   34.9050   39.4740 C   0  0  0  0  0  0  0  0  0  0  0  0
   38.4550   34.1030   39.8250 N   0  0  0  0  0  0  0  0  0  0  0  0
   38.9440   33.0510   40.5010 C   0  0  0  0  0  0  0  0  0  0  0  0
   38.3640   31.9410   41.0850 C   0  0  0  0  0  0  0  0  0  0  0  0
   39.1700   31.0360   41.7130 N   0  0  0  0  0  0  0  0  0  0  0  0
   40.5120   31.2770   41.7310 C   0  0  0  0  0  0  0  0  0  0  0  0
   41.1110   32.3480   41.1710 N   0  0  0  0  0  0  0  0  0  0  0  0
   40.3060   33.2530   40.5440 C   0  0  0  0  0  0  0  0  0  0  0  0
   44.6360   35.8270   42.7040 S   0  0  0  0  0  0  0  0  0  0  0  0
   45.5640   34.7150   43.7280 C   0  0  0  0  0  0  0  0  0  0  0  0
   46.8020   34.1820   43.3150 C   0  0  0  0  0  0  0  0  0  0  0  0
   47.4410   33.3130   44.2120 C   0  0  0  0  0  0  0  0  0  0  0  0
   46.8670   33.0300   45.3950 N   0  0  0  0  0  0  0  0  0  0  0  0
   45.6790   33.5560   45.7640 C   0  0  0  0  0  0  0  0  0  0  0  0
   45.0180   34.3990   44.9390 N   0  0  0  0  0  0  0  0  0  0  0  0
   47.4310   34.4770   42.0540 C   0  0  0  0  0  0  0  0  0  0  0  0
   48.3650   35.5130   41.9170 C   0  0  0  0  0  0  0  0  0  0  0  0
   48.7770   35.5540   40.6410 N   0  0  0  0  0  0  0  0  0  0  0  0
   48.1530   34.5980   39.9510 C   0  0  0  0  0  0  0  0  0  0  0  0
   47.3600   33.9810   40.8370 N   0  0  0  0  0  0  0  0  0  0  0  0
   42.0838   33.3157   38.6081 H   0  0  0  0  0  0  0  0  0  0  0  0
   43.0855   32.1292   39.9901 H   0  0  0  0  0  0  0  0  0  0  0  0
   44.5288   32.9943   39.2429 H   0  0  0  0  0  0  0  0  0  0  0  0
   43.3620   33.1972   41.9572 H   0  0  0  0  0  0  0  0  0  0  0  0
   45.0683   33.3235   41.3668 H   0  0  0  0  0  0  0  0  0  0  0  0
   44.5386   35.5848   40.4377 H   0  0  0  0  0  0  0  0  0  0  0  0
   41.8989   34.8891   41.8856 H   0  0  0  0  0  0  0  0  0  0  0  0
   42.2695   36.4836   41.1627 H   0  0  0  0  0  0  0  0  0  0  0  0
   42.1382   35.7948   39.1401 H   0  0  0  0  0  0  0  0  0  0  0  0
   39.3691   35.8430   38.9097 H   0  0  0  0  0  0  0  0  0  0  0  0
   37.2752   31.7899   41.0446 H   0  0  0  0  0  0  0  0  0  0  0  0
   41.1541   30.5432   42.2402 H   0  0  0  0  0  0  0  0  0  0  0  0
   48.4099   32.8638   43.9483 H   0  0  0  0  0  0  0  0  0  0  0  0
   45.2465   33.2970   46.7417 H   0  0  0  0  0  0  0  0  0  0  0  0
   48.7039   36.1815   42.7221 H   0  0  0  0  0  0  0  0  0  0  0  0
   48.2657   34.3657   38.8817 H   0  0  0  0  0  0  0  0  0  0  0  0
   46.7496   33.1896   40.5882 H   0  0  0  0  0  0  0  0  0  0  0  0
  1  6  1  0
  1  2  1  0
  2  3  1  0
  3  4  1  0
  4 16  1  0
  5  4  1  0
  6  7  1  0
  6  5  1  0
  7 15  1  0
  8  9  2  0
  8  7  1  0
  9 10  1  0
 10 15  2  0
 10 11  1  0
 11 12  2  0
 12 13  1  0
 14 13  2  0
 15 14  1  0
 16 17  1  0
 17 22  2  0
 18 17  1  0
 18 19  2  0
 19 20  1  0
 20 21  2  0
 22 21  1  0
 23 18  1  0
 24 23  2  0
 25 24  1  0
 26 25  2  0
 26 27  1  0
 27 23  1  0
  1 28  1  0
  2 29  1  0
  2 30  1  0
  3 31  1  0
  3 32  1  0
  4 33  1  6
  5 34  1  0
  5 35  1  0
  6 36  1  6
  8 37  1  0
 11 38  1  0
 13 39  1  0
 19 40  1  0
 21 41  1  0
 24 42  1  0
 26 43  1  0
 27 44  1  0
M  ISO  8  28   5  29  13  30  13  31  13  32  13  33  13  34  13  35  13
M  ISO  8  36  13  37  14  38  14  39  14  40  14  41  14  42  14  43  14
M  ISO  1  44   9
M  END
>  <minimizedAffinity>  (1) 
-6.60231638

>  <minimizedRMSD>  (1) 
0.63847661

$$$$
