
     RDKit          3D

 44 47  0  0  1  0  0  0  0  0999 V2000
   42.4810   34.1700   39.2480 N   0  0  0  0  0  0  0  0  0  0  0  0
   43.7940   33.7100   39.3870 C   0  0  0  0  0  0  0  0  0  0  0  0
   44.4890   34.1060   40.6740 C   0  0  0  0  0  0  0  0  0  0  0  0
   43.8960   35.3660   41.2400 C   0  0  1  0  0  0  0  0  0  0  0  0
   42.4680   34.9610   41.6000 C   0  0  0  0  0  0  0  0  0  0  0  0
   41.7550   34.6650   40.3430 C   0  0  2  0  0  0  0  0  0  0  0  0
   40.6060   33.8070   40.5740 N   0  0  0  0  0  0  0  0  0  0  0  0
   39.3770   34.1250   40.1260 C   0  0  0  0  0  0  0  0  0  0  0  0
   38.2690   33.3260   40.3330 C   0  0  0  0  0  0  0  0  0  0  0  0
   38.4250   32.1490   41.0300 C   0  0  0  0  0  0  0  0  0  0  0  0
   37.3220   31.2880   41.2730 N   0  0  0  0  0  0  0  0  0  0  0  0
   39.6510   31.8220   41.4820 N   0  0  0  0  0  0  0  0  0  0  0  0
   40.6920   32.6430   41.2470 C   0  0  0  0  0  0  0  0  0  0  0  0
   41.7820   32.2600   41.7030 O   0  0  0  0  0  0  0  0  0  0  0  0
   44.7960   36.0380   42.6040 S   0  0  0  0  0  0  0  0  0  0  0  0
   45.6470   34.8550   43.6200 C   0  0  0  0  0  0  0  0  0  0  0  0
   46.8870   34.3150   43.2430 C   0  0  0  0  0  0  0  0  0  0  0  0
   47.4570   33.3890   44.1310 C   0  0  0  0  0  0  0  0  0  0  0  0
   46.8190   33.0650   45.2710 N   0  0  0  0  0  0  0  0  0  0  0  0
   45.6200   33.6070   45.6050 C   0  0  0  0  0  0  0  0  0  0  0  0
   45.0310   34.5000   44.7860 N   0  0  0  0  0  0  0  0  0  0  0  0
   47.5860   34.6500   42.0320 C   0  0  0  0  0  0  0  0  0  0  0  0
   48.5200   35.6960   41.9840 C   0  0  0  0  0  0  0  0  0  0  0  0
   49.0070   35.7770   40.7370 N   0  0  0  0  0  0  0  0  0  0  0  0
   48.4340   34.8390   39.9830 C   0  0  0  0  0  0  0  0  0  0  0  0
   47.5940   34.1910   40.7990 N   0  0  0  0  0  0  0  0  0  0  0  0
   42.5118   34.9296   38.5531 H   0  0  0  0  0  0  0  0  0  0  0  0
   43.7759   32.6114   39.3353 H   0  0  0  0  0  0  0  0  0  0  0  0
   44.3677   34.1815   38.5755 H   0  0  0  0  0  0  0  0  0  0  0  0
   44.3770   33.2943   41.4079 H   0  0  0  0  0  0  0  0  0  0  0  0
   45.5525   34.2853   40.4575 H   0  0  0  0  0  0  0  0  0  0  0  0
   43.9316   36.1943   40.5170 H   0  0  0  0  0  0  0  0  0  0  0  0
   42.4825   34.0677   42.2417 H   0  0  0  0  0  0  0  0  0  0  0  0
   41.9641   35.7715   42.1469 H   0  0  0  0  0  0  0  0  0  0  0  0
   41.4690   35.6792   40.0272 H   0  0  0  0  0  0  0  0  0  0  0  0
   39.2489   35.0649   39.5691 H   0  0  0  0  0  0  0  0  0  0  0  0
   37.2824   33.6242   39.9488 H   0  0  0  0  0  0  0  0  0  0  0  0
   37.4584   30.4115   41.7965 H   0  0  0  0  0  0  0  0  0  0  0  0
   36.3856   31.5401   40.9257 H   0  0  0  0  0  0  0  0  0  0  0  0
   48.4270   32.9273   43.8946 H   0  0  0  0  0  0  0  0  0  0  0  0
   45.1288   33.3167   46.5454 H   0  0  0  0  0  0  0  0  0  0  0  0
   48.8051   36.3415   42.8278 H   0  0  0  0  0  0  0  0  0  0  0  0
   48.6135   34.6397   38.9162 H   0  0  0  0  0  0  0  0  0  0  0  0
   47.0065   33.4036   40.4895 H   0  0  0  0  0  0  0  0  0  0  0  0
  1  2  1  0
  1  6  1  0
  2  3  1  0
  3  4  1  0
  4  5  1  0
  4 15  1  0
  6  7  1  0
  6  5  1  0
  7 13  1  0
  8  9  2  0
  8  7  1  0
  9 10  1  0
 10 11  1  0
 10 12  2  0
 13 12  1  0
 13 14  2  0
 15 16  1  0
 16 21  2  0
 17 16  1  0
 17 18  2  0
 18 19  1  0
 19 20  2  0
 21 20  1  0
 22 17  1  0
 23 22  2  0
 24 23  1  0
 25 24  2  0
 25 26  1  0
 26 22  1  0
  1 27  1  0
  2 28  1  0
  2 29  1  0
  3 30  1  0
  3 31  1  0
  4 32  1  6
  5 33  1  0
  5 34  1  0
  6 35  1  6
  8 36  1  0
  9 37  1  0
 11 38  1  0
 11 39  1  0
 18 40  1  0
 20 41  1  0
 23 42  1  0
 25 43  1  0
 26 44  1  0
M  ISO  8  27   5  28  13  29  13  30  13  31  13  32  13  33  13  34  13
M  ISO  8  35  13  36  14  37  14  40  14  41  14  42  14  43  14  44   9
M  END
>  <minimizedAffinity>  (1) 
-6.44440985

>  <minimizedRMSD>  (1) 
1.42048347

$$$$
