
     RDKit          3D

 41 44  0  0  1  0  0  0  0  0999 V2000
   42.7500   34.3090   39.1900 N   0  0  0  0  0  0  0  0  0  0  0  0
   43.9120   33.6160   39.5570 C   0  0  0  0  0  0  0  0  0  0  0  0
   44.4590   33.9440   40.9270 C   0  0  0  0  0  0  0  0  0  0  0  0
   44.0490   35.3240   41.3570 C   0  0  1  0  0  0  0  0  0  0  0  0
   42.5300   35.2020   41.4920 C   0  0  0  0  0  0  0  0  0  0  0  0
   41.9800   34.9930   40.1440 C   0  0  2  0  0  0  0  0  0  0  0  0
   40.6440   34.3510   40.2370 C   0  0  0  0  0  0  0  0  0  0  0  0
   39.4700   34.5920   39.5520 C   0  0  0  0  0  0  0  0  0  0  0  0
   38.3550   33.8360   39.8420 C   0  0  0  0  0  0  0  0  0  0  0  0
   38.3760   32.8690   40.7710 N   0  0  0  0  0  0  0  0  0  0  0  0
   39.5090   32.6340   41.4340 C   0  0  0  0  0  0  0  0  0  0  0  0
   40.6140   33.3570   41.1730 N   0  0  0  0  0  0  0  0  0  0  0  0
   44.8380   35.8760   42.8470 S   0  0  0  0  0  0  0  0  0  0  0  0
   45.7340   34.6200   43.7470 C   0  0  0  0  0  0  0  0  0  0  0  0
   46.9760   34.1450   43.2990 C   0  0  0  0  0  0  0  0  0  0  0  0
   47.5890   33.1560   44.0910 C   0  0  0  0  0  0  0  0  0  0  0  0
   46.9890   32.7130   45.2070 N   0  0  0  0  0  0  0  0  0  0  0  0
   45.7900   33.1930   45.6110 C   0  0  0  0  0  0  0  0  0  0  0  0
   45.1510   34.1460   44.8890 N   0  0  0  0  0  0  0  0  0  0  0  0
   47.6460   34.6020   42.1120 C   0  0  0  0  0  0  0  0  0  0  0  0
   48.5640   35.6620   42.1420 C   0  0  0  0  0  0  0  0  0  0  0  0
   49.0250   35.8660   40.8990 N   0  0  0  0  0  0  0  0  0  0  0  0
   48.4480   34.9900   40.0740 C   0  0  0  0  0  0  0  0  0  0  0  0
   47.6350   34.2580   40.8420 N   0  0  0  0  0  0  0  0  0  0  0  0
   43.0358   35.0081   38.4896 H   0  0  0  0  0  0  0  0  0  0  0  0
   43.6874   32.5395   39.5305 H   0  0  0  0  0  0  0  0  0  0  0  0
   44.6872   33.9247   38.8402 H   0  0  0  0  0  0  0  0  0  0  0  0
   44.0736   33.2123   41.6523 H   0  0  0  0  0  0  0  0  0  0  0  0
   45.5574   33.9035   40.8835 H   0  0  0  0  0  0  0  0  0  0  0  0
   44.3581   36.0954   40.6363 H   0  0  0  0  0  0  0  0  0  0  0  0
   42.2780   34.3472   42.1368 H   0  0  0  0  0  0  0  0  0  0  0  0
   42.1078   36.1110   41.9452 H   0  0  0  0  0  0  0  0  0  0  0  0
   41.9498   36.0190   39.7486 H   0  0  0  0  0  0  0  0  0  0  0  0
   39.4251   35.3781   38.7839 H   0  0  0  0  0  0  0  0  0  0  0  0
   37.4205   34.0314   39.2956 H   0  0  0  0  0  0  0  0  0  0  0  0
   39.5407   31.8443   42.1991 H   0  0  0  0  0  0  0  0  0  0  0  0
   48.5647   32.7440   43.7939 H   0  0  0  0  0  0  0  0  0  0  0  0
   45.3302   32.8068   46.5326 H   0  0  0  0  0  0  0  0  0  0  0  0
   48.8572   36.2314   43.0363 H   0  0  0  0  0  0  0  0  0  0  0  0
   48.6078   34.8912   38.9902 H   0  0  0  0  0  0  0  0  0  0  0  0
   47.0522   33.4932   40.4728 H   0  0  0  0  0  0  0  0  0  0  0  0
  1  2  1  0
  1  6  1  0
  2  3  1  0
  3  4  1  0
  4  5  1  0
  4 13  1  0
  6  7  1  0
  6  5  1  0
  7 12  2  0
  8  9  2  0
  8  7  1  0
  9 10  1  0
 10 11  2  0
 12 11  1  0
 13 14  1  0
 14 19  2  0
 15 14  1  0
 15 16  2  0
 16 17  1  0
 17 18  2  0
 19 18  1  0
 20 21  2  0
 20 15  1  0
 22 21  1  0
 23 24  1  0
 23 22  2  0
 24 20  1  0
  1 25  1  0
  2 26  1  0
  2 27  1  0
  3 28  1  0
  3 29  1  0
  4 30  1  6
  5 31  1  0
  5 32  1  0
  6 33  1  6
  8 34  1  0
  9 35  1  0
 11 36  1  0
 16 37  1  0
 18 38  1  0
 21 39  1  0
 23 40  1  0
 24 41  1  0
M  ISO  8  25   5  26  13  27  13  28  13  29  13  30  13  31  13  32  13
M  ISO  8  33  13  34  14  35  14  36  14  37  14  38  14  39  14  40  14
M  ISO  1  41   9
M  END
>  <minimizedAffinity>  (1) 
-6.04804659

>  <minimizedRMSD>  (1) 
0.799076974

$$$$
