
     RDKit          3D

 43 46  0  0  1  0  0  0  0  0999 V2000
   43.2470   34.0260   38.8550 N   0  0  0  0  0  0  0  0  0  0  0  0
   43.9610   33.1430   39.6780 C   0  0  0  0  0  0  0  0  0  0  0  0
   44.1910   33.6260   41.0920 C   0  0  0  0  0  0  0  0  0  0  0  0
   44.1560   35.1260   41.1730 C   0  0  1  0  0  0  0  0  0  0  0  0
   42.7200   35.4750   40.8100 C   0  0  0  0  0  0  0  0  0  0  0  0
   42.4900   35.0580   39.4010 C   0  0  2  0  0  0  0  0  0  0  0  0
   41.0460   34.7240   39.2480 C   0  0  0  0  0  0  0  0  0  0  0  0
   40.4550   34.5950   38.0090 C   0  0  0  0  0  0  0  0  0  0  0  0
   39.1300   34.2880   37.7800 C   0  0  0  0  0  0  0  0  0  0  0  0
   38.3290   34.0940   38.9020 C   0  0  0  0  0  0  0  0  0  0  0  0
   38.8530   34.2070   40.1510 C   0  0  0  0  0  0  0  0  0  0  0  0
   40.1860   34.5160   40.3250 C   0  0  0  0  0  0  0  0  0  0  0  0
   44.6540   35.7700   42.7460 S   0  0  0  0  0  0  0  0  0  0  0  0
   45.5870   34.6660   43.7690 C   0  0  0  0  0  0  0  0  0  0  0  0
   46.8370   34.1590   43.3660 C   0  0  0  0  0  0  0  0  0  0  0  0
   47.4830   33.2910   44.2620 C   0  0  0  0  0  0  0  0  0  0  0  0
   46.9000   32.9850   45.4380 N   0  0  0  0  0  0  0  0  0  0  0  0
   45.6960   33.4890   45.7990 C   0  0  0  0  0  0  0  0  0  0  0  0
   45.0370   34.3270   44.9710 N   0  0  0  0  0  0  0  0  0  0  0  0
   47.4780   34.4760   42.1150 C   0  0  0  0  0  0  0  0  0  0  0  0
   48.3560   35.5640   41.9910 C   0  0  0  0  0  0  0  0  0  0  0  0
   48.7900   35.6120   40.7230 N   0  0  0  0  0  0  0  0  0  0  0  0
   48.2390   34.6170   40.0320 C   0  0  0  0  0  0  0  0  0  0  0  0
   47.4630   33.9660   40.9030 N   0  0  0  0  0  0  0  0  0  0  0  0
   42.5993   33.4497   38.2989 H   0  0  0  0  0  0  0  0  0  0  0  0
   43.4021   32.1969   39.7281 H   0  0  0  0  0  0  0  0  0  0  0  0
   44.9577   33.0404   39.2241 H   0  0  0  0  0  0  0  0  0  0  0  0
   43.4055   33.2143   41.7428 H   0  0  0  0  0  0  0  0  0  0  0  0
   45.1855   33.2855   41.4160 H   0  0  0  0  0  0  0  0  0  0  0  0
   44.8860   35.5889   40.4927 H   0  0  0  0  0  0  0  0  0  0  0  0
   42.0260   34.9411   41.4758 H   0  0  0  0  0  0  0  0  0  0  0  0
   42.5483   36.5557   40.9225 H   0  0  0  0  0  0  0  0  0  0  0  0
   42.8341   35.9301   38.8256 H   0  0  0  0  0  0  0  0  0  0  0  0
   41.0949   34.7502   37.1279 H   0  0  0  0  0  0  0  0  0  0  0  0
   38.7259   34.2007   36.7606 H   0  0  0  0  0  0  0  0  0  0  0  0
   37.2643   33.8475   38.7768 H   0  0  0  0  0  0  0  0  0  0  0  0
   38.2095   34.0509   41.0293 H   0  0  0  0  0  0  0  0  0  0  0  0
   40.5833   34.6011   41.3472 H   0  0  0  0  0  0  0  0  0  0  0  0
   48.4626   32.8620   44.0043 H   0  0  0  0  0  0  0  0  0  0  0  0
   45.2544   33.2151   46.7685 H   0  0  0  0  0  0  0  0  0  0  0  0
   48.6395   36.2582   42.7958 H   0  0  0  0  0  0  0  0  0  0  0  0
   48.3905   34.3806   38.9684 H   0  0  0  0  0  0  0  0  0  0  0  0
   46.9036   33.1395   40.6483 H   0  0  0  0  0  0  0  0  0  0  0  0
  1  6  1  0
  1  2  1  0
  2  3  1  0
  3  4  1  0
  4 13  1  0
  5  4  1  0
  6  5  1  0
  7  6  1  0
  7 12  1  0
  8  7  2  0
  9  8  1  0
  9 10  2  0
 10 11  1  0
 11 12  2  0
 13 14  1  0
 14 19  2  0
 15 14  1  0
 15 16  2  0
 16 17  1  0
 17 18  2  0
 19 18  1  0
 20 15  1  0
 21 20  2  0
 22 21  1  0
 23 22  2  0
 23 24  1  0
 24 20  1  0
  1 25  1  0
  2 26  1  0
  2 27  1  0
  3 28  1  0
  3 29  1  0
  4 30  1  6
  5 31  1  0
  5 32  1  0
  6 33  1  6
  8 34  1  0
  9 35  1  0
 10 36  1  0
 11 37  1  0
 12 38  1  0
 16 39  1  0
 18 40  1  0
 21 41  1  0
 23 42  1  0
 24 43  1  0
M  ISO  8  25   5  26  13  27  13  28  13  29  13  30  13  31  13  32  13
M  ISO  8  33  13  34  14  35  14  36  14  37  14  38  14  39  14  40  14
M  ISO  3  41  14  42  14  43   9
M  END
>  <minimizedAffinity>  (1) 
-6.63947678

>  <minimizedRMSD>  (1) 
1.07034767

$$$$
