
     RDKit          3D

 40 43  0  0  1  0  0  0  0  0999 V2000
   42.6680   33.6310   39.1900 N   0  0  0  0  0  0  0  0  0  0  0  0
   43.7660   32.9790   39.7500 C   0  0  0  0  0  0  0  0  0  0  0  0
   44.2500   33.5270   41.0710 C   0  0  0  0  0  0  0  0  0  0  0  0
   43.8980   34.9810   41.2170 C   0  0  1  0  0  0  0  0  0  0  0  0
   42.3720   34.9750   41.2550 C   0  0  0  0  0  0  0  0  0  0  0  0
   41.9110   34.5610   39.8970 C   0  0  2  0  0  0  0  0  0  0  0  0
   40.5050   34.2090   39.9920 N   0  0  0  0  0  0  0  0  0  0  0  0
   39.9790   33.2890   40.8150 N   0  0  0  0  0  0  0  0  0  0  0  0
   38.6590   33.1970   40.6670 C   0  0  0  0  0  0  0  0  0  0  0  0
   38.2720   34.1050   39.6860 C   0  0  0  0  0  0  0  0  0  0  0  0
   39.4640   34.7040   39.3070 C   0  0  0  0  0  0  0  0  0  0  0  0
   44.6270   35.7760   42.6180 S   0  0  0  0  0  0  0  0  0  0  0  0
   45.5630   34.7170   43.6900 C   0  0  0  0  0  0  0  0  0  0  0  0
   46.8330   34.2260   43.3210 C   0  0  0  0  0  0  0  0  0  0  0  0
   47.4760   33.3970   44.2530 C   0  0  0  0  0  0  0  0  0  0  0  0
   46.8820   33.1070   45.4240 N   0  0  0  0  0  0  0  0  0  0  0  0
   45.6580   33.5970   45.7490 C   0  0  0  0  0  0  0  0  0  0  0  0
   44.9990   34.3970   44.8910 N   0  0  0  0  0  0  0  0  0  0  0  0
   47.4880   34.5250   42.0760 C   0  0  0  0  0  0  0  0  0  0  0  0
   48.4080   35.5800   41.9580 C   0  0  0  0  0  0  0  0  0  0  0  0
   48.8480   35.6160   40.6910 N   0  0  0  0  0  0  0  0  0  0  0  0
   48.2630   34.6470   39.9930 C   0  0  0  0  0  0  0  0  0  0  0  0
   47.4590   34.0200   40.8610 N   0  0  0  0  0  0  0  0  0  0  0  0
   43.0216   34.1234   38.3573 H   0  0  0  0  0  0  0  0  0  0  0  0
   43.4915   31.9247   39.9018 H   0  0  0  0  0  0  0  0  0  0  0  0
   44.5951   33.1271   39.0425 H   0  0  0  0  0  0  0  0  0  0  0  0
   43.7805   32.9602   41.8885 H   0  0  0  0  0  0  0  0  0  0  0  0
   45.3448   33.4277   41.1096 H   0  0  0  0  0  0  0  0  0  0  0  0
   44.3041   35.5807   40.3891 H   0  0  0  0  0  0  0  0  0  0  0  0
   42.0144   34.2605   42.0110 H   0  0  0  0  0  0  0  0  0  0  0  0
   41.9788   35.9673   41.5210 H   0  0  0  0  0  0  0  0  0  0  0  0
   42.0705   35.4367   39.2506 H   0  0  0  0  0  0  0  0  0  0  0  0
   37.9916   32.5218   41.2226 H   0  0  0  0  0  0  0  0  0  0  0  0
   37.2600   34.3012   39.3020 H   0  0  0  0  0  0  0  0  0  0  0  0
   39.5454   35.4879   38.5396 H   0  0  0  0  0  0  0  0  0  0  0  0
   48.4693   32.9830   44.0249 H   0  0  0  0  0  0  0  0  0  0  0  0
   45.2037   33.3390   46.7170 H   0  0  0  0  0  0  0  0  0  0  0  0
   48.7151   36.2602   42.7661 H   0  0  0  0  0  0  0  0  0  0  0  0
   48.4086   34.4107   38.9286 H   0  0  0  0  0  0  0  0  0  0  0  0
   46.8710   33.2152   40.6013 H   0  0  0  0  0  0  0  0  0  0  0  0
  1  2  1  0
  1  6  1  0
  2  3  1  0
  3  4  1  0
  4  5  1  0
  4 12  1  0
  6  7  1  0
  6  5  1  0
  7  8  1  0
  9  8  2  0
 10  9  1  0
 11 10  2  0
 11  7  1  0
 12 13  1  0
 13 18  2  0
 14 13  1  0
 14 15  2  0
 15 16  1  0
 16 17  2  0
 18 17  1  0
 19 14  1  0
 20 19  2  0
 21 20  1  0
 22 21  2  0
 22 23  1  0
 23 19  1  0
  1 24  1  0
  2 25  1  0
  2 26  1  0
  3 27  1  0
  3 28  1  0
  4 29  1  6
  5 30  1  0
  5 31  1  0
  6 32  1  6
  9 33  1  0
 10 34  1  0
 11 35  1  0
 15 36  1  0
 17 37  1  0
 20 38  1  0
 22 39  1  0
 23 40  1  0
M  ISO  8  24   5  25  13  26  13  27  13  28  13  29  13  30  13  31  13
M  ISO  8  32  13  33  14  34  14  35  14  36  14  37  14  38  14  39  14
M  ISO  1  40   9
M  END
>  <minimizedAffinity>  (1) 
-5.69508791

>  <minimizedRMSD>  (1) 
0.749415815

$$$$
