
     RDKit          3D

 45 48  0  0  1  0  0  0  0  0999 V2000
   42.2200   33.2730   39.3850 N   0  0  0  0  0  0  0  0  0  0  0  0
   43.5070   32.7670   39.6850 C   0  0  0  0  0  0  0  0  0  0  0  0
   44.2010   33.4210   40.8510 C   0  0  0  0  0  0  0  0  0  0  0  0
   43.6720   34.8040   41.1140 C   0  0  1  0  0  0  0  0  0  0  0  0
   42.2320   34.5280   41.5170 C   0  0  0  0  0  0  0  0  0  0  0  0
   41.5010   34.0250   40.3370 C   0  0  1  0  0  0  0  0  0  0  0  0
   40.7340   34.9880   39.6200 N   0  0  0  0  0  0  0  0  0  0  0  0
   40.8410   34.8780   38.1910 C   0  0  0  0  0  0  0  0  0  0  0  0
   39.5340   34.2600   37.7340 C   0  0  0  0  0  0  0  0  0  0  0  0
   38.6180   34.2330   38.9410 C   0  0  0  0  0  0  0  0  0  0  0  0
   39.3710   35.1470   39.8770 C   0  0  0  0  0  0  0  0  0  0  0  0
   44.5860   35.6950   42.3480 S   0  0  0  0  0  0  0  0  0  0  0  0
   45.5520   34.7020   43.4510 C   0  0  0  0  0  0  0  0  0  0  0  0
   46.8450   34.2570   43.1140 C   0  0  0  0  0  0  0  0  0  0  0  0
   47.5100   33.4750   44.0760 C   0  0  0  0  0  0  0  0  0  0  0  0
   46.9100   33.1920   45.2430 N   0  0  0  0  0  0  0  0  0  0  0  0
   45.6610   33.6360   45.5420 C   0  0  0  0  0  0  0  0  0  0  0  0
   44.9760   34.3920   44.6520 N   0  0  0  0  0  0  0  0  0  0  0  0
   47.5050   34.5560   41.8730 C   0  0  0  0  0  0  0  0  0  0  0  0
   48.4660   35.5750   41.7780 C   0  0  0  0  0  0  0  0  0  0  0  0
   48.9090   35.6290   40.5120 N   0  0  0  0  0  0  0  0  0  0  0  0
   48.2820   34.6980   39.7920 C   0  0  0  0  0  0  0  0  0  0  0  0
   47.4560   34.0850   40.6450 N   0  0  0  0  0  0  0  0  0  0  0  0
   42.3265   33.8739   38.5553 H   0  0  0  0  0  0  0  0  0  0  0  0
   43.4069   31.6944   39.9074 H   0  0  0  0  0  0  0  0  0  0  0  0
   44.1297   32.9785   38.8033 H   0  0  0  0  0  0  0  0  0  0  0  0
   44.0462   32.8043   41.7486 H   0  0  0  0  0  0  0  0  0  0  0  0
   45.2705   33.5054   40.6078 H   0  0  0  0  0  0  0  0  0  0  0  0
   43.7613   35.4692   40.2425 H   0  0  0  0  0  0  0  0  0  0  0  0
   42.2091   33.7730   42.3167 H   0  0  0  0  0  0  0  0  0  0  0  0
   41.7612   35.4514   41.8853 H   0  0  0  0  0  0  0  0  0  0  0  0
   40.8357   33.3357   40.8776 H   0  0  0  0  0  0  0  0  0  0  0  0
   40.9759   35.8712   37.7379 H   0  0  0  0  0  0  0  0  0  0  0  0
   41.7071   34.2694   37.8920 H   0  0  0  0  0  0  0  0  0  0  0  0
   39.0874   34.8673   36.9330 H   0  0  0  0  0  0  0  0  0  0  0  0
   39.6937   33.2469   37.3364 H   0  0  0  0  0  0  0  0  0  0  0  0
   37.6198   34.6288   38.7024 H   0  0  0  0  0  0  0  0  0  0  0  0
   38.4180   33.2287   39.3427 H   0  0  0  0  0  0  0  0  0  0  0  0
   39.1525   34.8769   40.9207 H   0  0  0  0  0  0  0  0  0  0  0  0
   39.0688   36.1930   39.7202 H   0  0  0  0  0  0  0  0  0  0  0  0
   48.5220   33.0953   43.8718 H   0  0  0  0  0  0  0  0  0  0  0  0
   45.2052   33.3804   46.5100 H   0  0  0  0  0  0  0  0  0  0  0  0
   48.8001   36.2212   42.6031 H   0  0  0  0  0  0  0  0  0  0  0  0
   48.4163   34.4806   38.7221 H   0  0  0  0  0  0  0  0  0  0  0  0
   46.8354   33.3117   40.3659 H   0  0  0  0  0  0  0  0  0  0  0  0
  1  2  1  0
  1  6  1  0
  2  3  1  0
  3  4  1  0
  4  5  1  0
  4 12  1  0
  6  5  1  0
  7  8  1  0
  7 11  1  0
  7  6  1  0
  9  8  1  0
  9 10  1  0
 10 11  1  0
 12 13  1  0
 13 18  2  0
 14 13  1  0
 14 15  2  0
 15 16  1  0
 16 17  2  0
 18 17  1  0
 19 14  1  0
 20 19  2  0
 21 20  1  0
 22 21  2  0
 22 23  1  0
 23 19  1  0
  1 24  1  0
  2 25  1  0
  2 26  1  0
  3 27  1  0
  3 28  1  0
  4 29  1  6
  5 30  1  0
  5 31  1  0
  6 32  1  1
  8 33  1  0
  8 34  1  0
  9 35  1  0
  9 36  1  0
 10 37  1  0
 10 38  1  0
 11 39  1  0
 11 40  1  0
 15 41  1  0
 17 42  1  0
 20 43  1  0
 22 44  1  0
 23 45  1  0
M  ISO  8  24   5  25  13  26  13  27  13  28  13  29  13  30  13  31  13
M  ISO  8  32  13  33  13  34  13  35  13  36  13  37  13  38  13  39  13
M  ISO  6  40  13  41  14  42  14  43  14  44  14  45   9
M  END
>  <minimizedAffinity>  (1) 
-5.70635366

>  <minimizedRMSD>  (1) 
1.09580314

$$$$
