
     RDKit          3D

 47 51  0  0  1  0  0  0  0  0999 V2000
   42.6870   30.9770   39.6960 N   0  0  0  0  0  0  0  0  0  0  0  0
   44.0100   30.9780   39.2350 C   0  0  0  0  0  0  0  0  0  0  0  0
   44.9470   31.9150   39.9600 C   0  0  0  0  0  0  0  0  0  0  0  0
   44.1990   33.0510   40.5980 C   0  0  1  0  0  0  0  0  0  0  0  0
   43.3470   32.3670   41.6590 C   0  0  0  0  0  0  0  0  0  0  0  0
   42.3810   31.4890   40.9700 C   0  0  1  0  0  0  0  0  0  0  0  0
   41.0640   32.1870   40.9870 C   0  0  0  0  0  0  0  0  0  0  0  0
   40.1060   32.1510   41.9790 C   0  0  0  0  0  0  0  0  0  0  0  0
   39.0400   32.9200   41.6220 N   0  0  0  0  0  0  0  0  0  0  0  0
   39.2840   33.4670   40.3990 C   0  0  0  0  0  0  0  0  0  0  0  0
   38.6040   34.3080   39.5410 C   0  0  0  0  0  0  0  0  0  0  0  0
   39.1490   34.6930   38.3200 C   0  0  0  0  0  0  0  0  0  0  0  0
   40.4000   34.2330   37.9370 C   0  0  0  0  0  0  0  0  0  0  0  0
   41.1100   33.3840   38.7810 C   0  0  0  0  0  0  0  0  0  0  0  0
   40.5270   33.0210   40.0010 C   0  0  0  0  0  0  0  0  0  0  0  0
   45.2560   34.3130   41.2680 S   0  0  0  0  0  0  0  0  0  0  0  0
   45.1500   34.5570   43.0160 C   0  0  0  0  0  0  0  0  0  0  0  0
   45.7960   33.6930   43.9250 C   0  0  0  0  0  0  0  0  0  0  0  0
   45.6380   33.9900   45.2900 C   0  0  0  0  0  0  0  0  0  0  0  0
   44.9030   35.0500   45.6690 N   0  0  0  0  0  0  0  0  0  0  0  0
   44.2970   35.8620   44.7730 C   0  0  0  0  0  0  0  0  0  0  0  0
   44.4150   35.6230   43.4450 N   0  0  0  0  0  0  0  0  0  0  0  0
   46.5900   32.5570   43.5420 C   0  0  0  0  0  0  0  0  0  0  0  0
   47.9760   32.6570   43.3430 C   0  0  0  0  0  0  0  0  0  0  0  0
   48.4430   31.4480   42.9930 N   0  0  0  0  0  0  0  0  0  0  0  0
   47.4330   30.5830   42.9590 C   0  0  0  0  0  0  0  0  0  0  0  0
   46.3450   31.2880   43.2930 N   0  0  0  0  0  0  0  0  0  0  0  0
   42.3706   29.9968   39.6866 H   0  0  0  0  0  0  0  0  0  0  0  0
   44.4056   29.9566   39.3363 H   0  0  0  0  0  0  0  0  0  0  0  0
   43.9688   31.3345   38.1952 H   0  0  0  0  0  0  0  0  0  0  0  0
   45.4807   31.3540   40.7413 H   0  0  0  0  0  0  0  0  0  0  0  0
   45.6541   32.3330   39.2283 H   0  0  0  0  0  0  0  0  0  0  0  0
   43.5975   33.6097   39.8658 H   0  0  0  0  0  0  0  0  0  0  0  0
   43.9874   31.7687   42.3238 H   0  0  0  0  0  0  0  0  0  0  0  0
   42.8178   33.1161   42.2663 H   0  0  0  0  0  0  0  0  0  0  0  0
   42.3965   30.5506   41.5438 H   0  0  0  0  0  0  0  0  0  0  0  0
   40.1905   31.5853   42.9186 H   0  0  0  0  0  0  0  0  0  0  0  0
   38.1893   33.0641   42.1845 H   0  0  0  0  0  0  0  0  0  0  0  0
   37.6102   34.6817   39.8287 H   0  0  0  0  0  0  0  0  0  0  0  0
   38.5854   35.3648   37.6559 H   0  0  0  0  0  0  0  0  0  0  0  0
   40.8290   34.5376   36.9710 H   0  0  0  0  0  0  0  0  0  0  0  0
   42.1038   33.0078   38.4967 H   0  0  0  0  0  0  0  0  0  0  0  0
   46.1166   33.3540   46.0493 H   0  0  0  0  0  0  0  0  0  0  0  0
   43.7056   36.7204   45.1244 H   0  0  0  0  0  0  0  0  0  0  0  0
   48.5775   33.5711   43.4549 H   0  0  0  0  0  0  0  0  0  0  0  0
   47.4816   29.5129   42.7089 H   0  0  0  0  0  0  0  0  0  0  0  0
   45.4030   30.8753   43.3499 H   0  0  0  0  0  0  0  0  0  0  0  0
  1  6  1  0
  2  1  1  0
  2  3  1  0
  3  4  1  0
  4 16  1  0
  4  5  1  0
  6  7  1  0
  6  5  1  0
  7  8  2  0
  9  8  1  0
 10  9  1  0
 11 10  2  0
 12 11  1  0
 13 12  2  0
 13 14  1  0
 14 15  2  0
 15 10  1  0
 15  7  1  0
 16 17  1  0
 17 22  2  0
 17 18  1  0
 18 19  2  0
 19 20  1  0
 21 20  2  0
 22 21  1  0
 23 18  1  0
 24 23  2  0
 25 24  1  0
 26 25  2  0
 26 27  1  0
 27 23  1  0
  1 28  1  0
  2 29  1  0
  2 30  1  0
  3 31  1  0
  3 32  1  0
  4 33  1  6
  5 34  1  0
  5 35  1  0
  6 36  1  1
  8 37  1  0
  9 38  1  0
 11 39  1  0
 12 40  1  0
 13 41  1  0
 14 42  1  0
 19 43  1  0
 21 44  1  0
 24 45  1  0
 26 46  1  0
 27 47  1  0
M  ISO  8  28   5  29  13  30  13  31  13  32  13  33  13  34  13  35  13
M  ISO  8  36  13  37  14  38   9  39  14  40  14  41  14  42  14  43  14
M  ISO  4  44  14  45  14  46  14  47   9
M  END
>  <minimizedAffinity>  (1) 
-5.9114995

>  <minimizedRMSD>  (1) 
3.84918737

$$$$
