
     RDKit          3D

 42 44  0  0  1  0  0  0  0  0999 V2000
   41.7850   33.1830   39.7400 N   0  0  0  0  0  0  0  0  0  0  0  0
   43.0050   32.5840   40.0850 C   0  0  0  0  0  0  0  0  0  0  0  0
   43.7910   33.2880   41.1650 C   0  0  0  0  0  0  0  0  0  0  0  0
   43.4330   34.7450   41.2410 C   0  0  1  0  0  0  0  0  0  0  0  0
   41.9790   34.7370   41.6890 C   0  0  0  0  0  0  0  0  0  0  0  0
   41.1750   34.1110   40.6050 C   0  0  1  0  0  0  0  0  0  0  0  0
   40.5170   35.1810   39.7280 C   0  0  0  0  0  0  0  0  0  0  0  0
   39.2000   34.6680   39.1740 C   0  0  0  0  0  0  0  0  0  0  0  0
   40.1530   36.4020   40.5720 C   0  0  0  0  0  0  0  0  0  0  0  0
   44.4830   35.6780   42.3300 S   0  0  0  0  0  0  0  0  0  0  0  0
   45.4590   34.7200   43.4650 C   0  0  0  0  0  0  0  0  0  0  0  0
   46.7280   34.2240   43.1100 C   0  0  0  0  0  0  0  0  0  0  0  0
   47.4050   33.4810   44.0880 C   0  0  0  0  0  0  0  0  0  0  0  0
   46.8440   33.2710   45.2910 N   0  0  0  0  0  0  0  0  0  0  0  0
   45.6160   33.7660   45.5990 C   0  0  0  0  0  0  0  0  0  0  0  0
   44.9210   34.4850   44.6990 N   0  0  0  0  0  0  0  0  0  0  0  0
   47.3550   34.4390   41.8340 C   0  0  0  0  0  0  0  0  0  0  0  0
   48.3530   35.4120   41.6590 C   0  0  0  0  0  0  0  0  0  0  0  0
   48.7470   35.3870   40.3760 N   0  0  0  0  0  0  0  0  0  0  0  0
   48.0570   34.4540   39.7250 C   0  0  0  0  0  0  0  0  0  0  0  0
   47.2380   33.9130   40.6340 N   0  0  0  0  0  0  0  0  0  0  0  0
   41.9378   33.6698   38.8453 H   0  0  0  0  0  0  0  0  0  0  0  0
   42.7948   31.5611   40.4306 H   0  0  0  0  0  0  0  0  0  0  0  0
   43.6292   32.6261   39.1803 H   0  0  0  0  0  0  0  0  0  0  0  0
   43.5721   32.8145   42.1335 H   0  0  0  0  0  0  0  0  0  0  0  0
   44.8611   33.2062   40.9240 H   0  0  0  0  0  0  0  0  0  0  0  0
   43.5757   35.2524   40.2755 H   0  0  0  0  0  0  0  0  0  0  0  0
   41.8759   34.1542   42.6162 H   0  0  0  0  0  0  0  0  0  0  0  0
   41.6305   35.7619   41.8843 H   0  0  0  0  0  0  0  0  0  0  0  0
   40.4684   33.5138   41.2000 H   0  0  0  0  0  0  0  0  0  0  0  0
   41.2292   35.4311   38.9278 H   0  0  0  0  0  0  0  0  0  0  0  0
   38.5292   34.4067   40.0058 H   0  0  0  0  0  0  0  0  0  0  0  0
   38.7322   35.4497   38.5574 H   0  0  0  0  0  0  0  0  0  0  0  0
   39.3842   33.7759   38.5574 H   0  0  0  0  0  0  0  0  0  0  0  0
   40.2293   36.1461   41.6391 H   0  0  0  0  0  0  0  0  0  0  0  0
   40.8446   37.2260   40.3422 H   0  0  0  0  0  0  0  0  0  0  0  0
   39.1231   36.7128   40.3422 H   0  0  0  0  0  0  0  0  0  0  0  0
   48.4007   33.0678   43.8692 H   0  0  0  0  0  0  0  0  0  0  0  0
   45.1864   33.5768   46.5938 H   0  0  0  0  0  0  0  0  0  0  0  0
   48.7447   36.0803   42.4400 H   0  0  0  0  0  0  0  0  0  0  0  0
   48.1421   34.1840   38.6620 H   0  0  0  0  0  0  0  0  0  0  0  0
   46.5767   33.1545   40.4145 H   0  0  0  0  0  0  0  0  0  0  0  0
  1  2  1  0
  1  6  1  0
  2  3  1  0
  3  4  1  0
  4  5  1  0
  4 10  1  0
  6  5  1  0
  7  9  1  0
  7  6  1  0
  8  7  1  0
 10 11  1  0
 11 16  2  0
 12 11  1  0
 12 13  2  0
 13 14  1  0
 14 15  2  0
 16 15  1  0
 17 12  1  0
 18 17  2  0
 19 18  1  0
 20 19  2  0
 20 21  1  0
 21 17  1  0
  1 22  1  0
  2 23  1  0
  2 24  1  0
  3 25  1  0
  3 26  1  0
  4 27  1  6
  5 28  1  0
  5 29  1  0
  6 30  1  1
  7 31  1  0
  8 32  1  0
  8 33  1  0
  8 34  1  0
  9 35  1  0
  9 36  1  0
  9 37  1  0
 13 38  1  0
 15 39  1  0
 18 40  1  0
 20 41  1  0
 21 42  1  0
M  ISO  8  22   5  23  13  24  13  25  13  26  13  27  13  28  13  29  13
M  ISO  8  30  13  31   8  32   8  33   8  34   8  35   8  36   8  37   8
M  ISO  5  38  14  39  14  40  14  41  14  42   9
M  END
>  <minimizedAffinity>  (1) 
-5.47309399

>  <minimizedRMSD>  (1) 
0.925365806

$$$$
