
     RDKit          3D

 39 41  0  0  1  0  0  0  0  0999 V2000
   41.6780   33.6930   39.7780 N   0  0  0  0  0  0  0  0  0  0  0  0
   42.7620   32.9280   40.2310 C   0  0  0  0  0  0  0  0  0  0  0  0
   43.5680   33.5490   41.3490 C   0  0  0  0  0  0  0  0  0  0  0  0
   43.4380   35.0470   41.3420 C   0  0  1  0  0  0  0  0  0  0  0  0
   41.9720   35.2890   41.6650 C   0  0  0  0  0  0  0  0  0  0  0  0
   41.1550   34.7220   40.5550 C   0  0  1  0  0  0  0  0  0  0  0  0
   44.5370   35.8830   42.4420 S   0  0  0  0  0  0  0  0  0  0  0  0
   45.4660   34.8290   43.5370 C   0  0  0  0  0  0  0  0  0  0  0  0
   46.6890   34.2550   43.1480 C   0  0  0  0  0  0  0  0  0  0  0  0
   47.3280   33.4410   44.0990 C   0  0  0  0  0  0  0  0  0  0  0  0
   46.7720   33.2430   45.3050 N   0  0  0  0  0  0  0  0  0  0  0  0
   45.5830   33.8150   45.6500 C   0  0  0  0  0  0  0  0  0  0  0  0
   44.9340   34.6010   44.7750 N   0  0  0  0  0  0  0  0  0  0  0  0
   47.3090   34.4560   41.8650 C   0  0  0  0  0  0  0  0  0  0  0  0
   48.3380   35.3930   41.6850 C   0  0  0  0  0  0  0  0  0  0  0  0
   48.7160   35.3640   40.3980 N   0  0  0  0  0  0  0  0  0  0  0  0
   47.9870   34.4610   39.7460 C   0  0  0  0  0  0  0  0  0  0  0  0
   47.1590   33.9430   40.6620 N   0  0  0  0  0  0  0  0  0  0  0  0
   40.7160   35.8510   39.6110 C   0  0  0  0  0  0  0  0  0  0  0  0
   41.2460   35.6780   38.2210 C   0  0  0  0  0  0  0  0  0  0  0  0
   41.9713   34.1184   38.8870 H   0  0  0  0  0  0  0  0  0  0  0  0
   42.3717   31.9637   40.5884 H   0  0  0  0  0  0  0  0  0  0  0  0
   43.4480   32.8360   39.3760 H   0  0  0  0  0  0  0  0  0  0  0  0
   43.2047   33.1613   42.3122 H   0  0  0  0  0  0  0  0  0  0  0  0
   44.6268   33.2893   41.2026 H   0  0  0  0  0  0  0  0  0  0  0  0
   43.7333   35.4678   40.3695 H   0  0  0  0  0  0  0  0  0  0  0  0
   41.7115   34.7924   42.6113 H   0  0  0  0  0  0  0  0  0  0  0  0
   41.7772   36.3665   41.7704 H   0  0  0  0  0  0  0  0  0  0  0  0
   40.3346   34.2385   41.1056 H   0  0  0  0  0  0  0  0  0  0  0  0
   48.2884   32.9638   43.8541 H   0  0  0  0  0  0  0  0  0  0  0  0
   45.1546   33.6324   46.6466 H   0  0  0  0  0  0  0  0  0  0  0  0
   48.7624   36.0409   42.4661 H   0  0  0  0  0  0  0  0  0  0  0  0
   48.0512   34.1963   38.6802 H   0  0  0  0  0  0  0  0  0  0  0  0
   46.4682   33.2104   40.4452 H   0  0  0  0  0  0  0  0  0  0  0  0
   39.6169   35.8681   39.5694 H   0  0  0  0  0  0  0  0  0  0  0  0
   41.1216   36.7935   40.0074 H   0  0  0  0  0  0  0  0  0  0  0  0
   42.2908   35.3370   38.2668 H   0  0  0  0  0  0  0  0  0  0  0  0
   40.6395   34.9312   37.6876 H   0  0  0  0  0  0  0  0  0  0  0  0
   41.1969   36.6388   37.6876 H   0  0  0  0  0  0  0  0  0  0  0  0
  1  2  1  0
  1  6  1  0
  2  3  1  0
  4  3  1  0
  4  5  1  0
  4  7  1  0
  6  5  1  0
  7  8  1  0
  8 13  2  0
  9  8  1  0
  9 10  2  0
 10 11  1  0
 11 12  2  0
 13 12  1  0
 14  9  1  0
 15 14  2  0
 16 15  1  0
 17 16  2  0
 17 18  1  0
 18 14  1  0
 19  6  1  0
 20 19  1  0
  1 21  1  0
  2 22  1  0
  2 23  1  0
  3 24  1  0
  3 25  1  0
  4 26  1  6
  5 27  1  0
  5 28  1  0
  6 29  1  1
 10 30  1  0
 12 31  1  0
 15 32  1  0
 17 33  1  0
 18 34  1  0
 19 35  1  0
 19 36  1  0
 20 37  1  0
 20 38  1  0
 20 39  1  0
M  ISO  8  21   5  22  13  23  13  24  13  25  13  26  13  27  13  28  13
M  ISO  8  29  13  30  14  31  14  32  14  33  14  34   9  35   8  36   8
M  ISO  3  37   8  38   8  39   8
M  END
>  <minimizedAffinity>  (1) 
-5.21941662

>  <minimizedRMSD>  (1) 
0.584392011

$$$$
