
     RDKit          3D

 40 43  0  0  1  0  0  0  0  0999 V2000
   41.7840   32.4860   39.8460 N   0  0  0  0  0  0  0  0  0  0  0  0
   42.7300   31.8600   40.6990 C   0  0  0  0  0  0  0  0  0  0  0  0
   43.3780   32.7820   41.7100 C   0  0  0  0  0  0  0  0  0  0  0  0
   43.3620   34.2120   41.2490 C   0  0  1  0  0  0  0  0  0  0  0  0
   41.8780   34.5470   41.2300 C   0  0  0  0  0  0  0  0  0  0  0  0
   41.2330   33.7200   40.1760 C   0  0  1  0  0  0  0  0  0  0  0  0
   41.0650   34.5960   39.0160 N   0  0  0  0  0  0  0  0  0  0  0  0
   41.8830   35.5990   38.6240 C   0  0  0  0  0  0  0  0  0  0  0  0
   41.3900   36.2030   37.4780 C   0  0  0  0  0  0  0  0  0  0  0  0
   40.2510   35.5450   37.1800 N   0  0  0  0  0  0  0  0  0  0  0  0
   40.0710   34.6020   38.0930 C   0  0  0  0  0  0  0  0  0  0  0  0
   44.3230   35.3070   42.2540 S   0  0  0  0  0  0  0  0  0  0  0  0
   45.3990   34.5220   43.4310 C   0  0  0  0  0  0  0  0  0  0  0  0
   46.7060   34.1230   43.0770 C   0  0  0  0  0  0  0  0  0  0  0  0
   47.4680   33.5130   44.0880 C   0  0  0  0  0  0  0  0  0  0  0  0
   46.9460   33.3370   45.3130 N   0  0  0  0  0  0  0  0  0  0  0  0
   45.6830   33.7330   45.6180 C   0  0  0  0  0  0  0  0  0  0  0  0
   44.9040   34.3270   44.6820 N   0  0  0  0  0  0  0  0  0  0  0  0
   47.2900   34.3040   41.7760 C   0  0  0  0  0  0  0  0  0  0  0  0
   48.2600   35.2900   41.5350 C   0  0  0  0  0  0  0  0  0  0  0  0
   48.6190   35.2260   40.2430 N   0  0  0  0  0  0  0  0  0  0  0  0
   47.9300   34.2510   39.6470 C   0  0  0  0  0  0  0  0  0  0  0  0
   47.1500   33.7290   40.6000 N   0  0  0  0  0  0  0  0  0  0  0  0
   40.9964   31.8293   39.7491 H   0  0  0  0  0  0  0  0  0  0  0  0
   42.2173   31.0561   41.2476 H   0  0  0  0  0  0  0  0  0  0  0  0
   43.5388   31.4935   40.0498 H   0  0  0  0  0  0  0  0  0  0  0  0
   42.8311   32.7082   42.6616 H   0  0  0  0  0  0  0  0  0  0  0  0
   44.4266   32.4732   41.8327 H   0  0  0  0  0  0  0  0  0  0  0  0
   43.8421   34.3405   40.2677 H   0  0  0  0  0  0  0  0  0  0  0  0
   41.4313   34.3186   42.2089 H   0  0  0  0  0  0  0  0  0  0  0  0
   41.7307   35.6166   41.0196 H   0  0  0  0  0  0  0  0  0  0  0  0
   40.2834   33.3644   40.6024 H   0  0  0  0  0  0  0  0  0  0  0  0
   42.8081   35.8936   39.1411 H   0  0  0  0  0  0  0  0  0  0  0  0
   41.8351   37.0441   36.9263 H   0  0  0  0  0  0  0  0  0  0  0  0
   39.2181   33.9074   38.1015 H   0  0  0  0  0  0  0  0  0  0  0  0
   48.4943   33.1789   43.8756 H   0  0  0  0  0  0  0  0  0  0  0  0
   45.2897   33.5703   46.6323 H   0  0  0  0  0  0  0  0  0  0  0  0
   48.6584   35.9956   42.2789 H   0  0  0  0  0  0  0  0  0  0  0  0
   47.9907   33.9415   38.5932 H   0  0  0  0  0  0  0  0  0  0  0  0
   46.4995   32.9488   40.4294 H   0  0  0  0  0  0  0  0  0  0  0  0
  1  6  1  0
  1  2  1  0
  2  3  1  0
  4  3  1  0
  4 12  1  0
  5  4  1  0
  6  5  1  0
  7  6  1  0
  8  7  1  0
  9  8  2  0
 10  9  1  0
 10 11  2  0
 11  7  1  0
 12 13  1  0
 13 18  2  0
 14 13  1  0
 14 15  2  0
 15 16  1  0
 16 17  2  0
 18 17  1  0
 19 14  1  0
 20 19  2  0
 21 20  1  0
 22 21  2  0
 22 23  1  0
 23 19  1  0
  1 24  1  0
  2 25  1  0
  2 26  1  0
  3 27  1  0
  3 28  1  0
  4 29  1  6
  5 30  1  0
  5 31  1  0
  6 32  1  1
  8 33  1  0
  9 34  1  0
 11 35  1  0
 15 36  1  0
 17 37  1  0
 20 38  1  0
 22 39  1  0
 23 40  1  0
M  ISO  8  24   5  25  13  26  13  27  13  28  13  29  13  30  13  31  13
M  ISO  8  32  13  33  14  34  14  35  14  36  14  37  14  38  14  39  14
M  ISO  1  40   9
M  END
>  <minimizedAffinity>  (1) 
-5.14715767

>  <minimizedRMSD>  (1) 
1.3759675

$$$$
