
     RDKit          3D

 36 38  0  0  1  0  0  0  0  0999 V2000
   44.5110   35.8280   42.4240 S   0  0  0  0  0  0  0  0  0  0  0  0
   41.5700   33.5690   39.9000 N   0  0  0  0  0  0  0  0  0  0  0  0
   42.6150   32.7870   40.4370 C   0  0  0  0  0  0  0  0  0  0  0  0
   43.4470   33.4690   41.4970 C   0  0  0  0  0  0  0  0  0  0  0  0
   43.3800   34.9640   41.3630 C   0  0  1  0  0  0  0  0  0  0  0  0
   41.9240   35.2820   41.6760 C   0  0  0  0  0  0  0  0  0  0  0  0
   41.0900   34.6770   40.6020 C   0  0  1  0  0  0  0  0  0  0  0  0
   40.7200   35.7960   39.6470 C   0  0  0  0  0  0  0  0  0  0  0  0
   45.4580   34.7990   43.5330 C   0  0  0  0  0  0  0  0  0  0  0  0
   46.6890   34.2390   43.1510 C   0  0  0  0  0  0  0  0  0  0  0  0
   47.3360   33.4480   44.1110 C   0  0  0  0  0  0  0  0  0  0  0  0
   46.7880   33.2530   45.3200 N   0  0  0  0  0  0  0  0  0  0  0  0
   45.5910   33.8130   45.6530 C   0  0  0  0  0  0  0  0  0  0  0  0
   44.9220   34.5810   44.7740 N   0  0  0  0  0  0  0  0  0  0  0  0
   47.3030   34.4350   41.8670 C   0  0  0  0  0  0  0  0  0  0  0  0
   48.3290   35.3730   41.6750 C   0  0  0  0  0  0  0  0  0  0  0  0
   48.7010   35.3360   40.3850 N   0  0  0  0  0  0  0  0  0  0  0  0
   47.9710   34.4280   39.7450 C   0  0  0  0  0  0  0  0  0  0  0  0
   47.1490   33.9140   40.6680 N   0  0  0  0  0  0  0  0  0  0  0  0
   41.8980   33.9156   38.9872 H   0  0  0  0  0  0  0  0  0  0  0  0
   42.1710   31.8840   40.8812 H   0  0  0  0  0  0  0  0  0  0  0  0
   43.2983   32.5742   39.6016 H   0  0  0  0  0  0  0  0  0  0  0  0
   43.0701   33.1806   42.4894 H   0  0  0  0  0  0  0  0  0  0  0  0
   44.4939   33.1551   41.3730 H   0  0  0  0  0  0  0  0  0  0  0  0
   43.6879   35.3000   40.3618 H   0  0  0  0  0  0  0  0  0  0  0  0
   41.6479   34.8542   42.6511 H   0  0  0  0  0  0  0  0  0  0  0  0
   41.7672   36.3699   41.7201 H   0  0  0  0  0  0  0  0  0  0  0  0
   40.2386   34.2244   41.1315 H   0  0  0  0  0  0  0  0  0  0  0  0
   40.4256   36.6864   40.2219 H   0  0  0  0  0  0  0  0  0  0  0  0
   41.5858   36.0385   39.0133 H   0  0  0  0  0  0  0  0  0  0  0  0
   39.8803   35.4746   39.0133 H   0  0  0  0  0  0  0  0  0  0  0  0
   48.3031   32.9824   43.8704 H   0  0  0  0  0  0  0  0  0  0  0  0
   45.1669   33.6350   46.6522 H   0  0  0  0  0  0  0  0  0  0  0  0
   48.7559   36.0273   42.4494 H   0  0  0  0  0  0  0  0  0  0  0  0
   48.0300   34.1562   38.6807 H   0  0  0  0  0  0  0  0  0  0  0  0
   46.4592   33.1782   40.4592 H   0  0  0  0  0  0  0  0  0  0  0  0
  1  9  1  0
  2  3  1  0
  2  7  1  0
  3  4  1  0
  5  4  1  0
  5  6  1  0
  5  1  1  0
  7  6  1  0
  8  7  1  0
  9 14  2  0
 10  9  1  0
 10 11  2  0
 11 12  1  0
 12 13  2  0
 14 13  1  0
 15 10  1  0
 16 15  2  0
 17 16  1  0
 18 17  2  0
 18 19  1  0
 19 15  1  0
  2 20  1  0
  3 21  1  0
  3 22  1  0
  4 23  1  0
  4 24  1  0
  5 25  1  6
  6 26  1  0
  6 27  1  0
  7 28  1  1
  8 29  1  0
  8 30  1  0
  8 31  1  0
 11 32  1  0
 13 33  1  0
 16 34  1  0
 18 35  1  0
 19 36  1  0
M  ISO  8  20   5  21  13  22  13  23  13  24  13  25  13  26  13  27  13
M  ISO  8  28  13  29   8  30   8  31   8  32  14  33  14  34  14  35  14
M  ISO  1  36   9
M  END
>  <minimizedAffinity>  (1) 
-5.01852655

>  <minimizedRMSD>  (1) 
0.526343524

$$$$
