
     RDKit          3D

 39 42  0  0  1  0  0  0  0  0999 V2000
   41.6660   32.1870   40.1480 N   0  0  0  0  0  0  0  0  0  0  0  0
   42.6850   31.6110   40.9320 C   0  0  0  0  0  0  0  0  0  0  0  0
   43.3840   32.5370   41.9000 C   0  0  0  0  0  0  0  0  0  0  0  0
   43.2830   33.9690   41.4530 C   0  0  1  0  0  0  0  0  0  0  0  0
   41.7850   34.2460   41.5430 C   0  0  0  0  0  0  0  0  0  0  0  0
   41.1290   33.4310   40.5030 C   0  0  1  0  0  0  0  0  0  0  0  0
   40.9240   34.2850   39.2990 C   0  0  0  0  0  0  0  0  0  0  0  0
   41.8810   35.3300   39.0530 C   0  0  0  0  0  0  0  0  0  0  0  0
   41.3240   36.1340   37.5600 S   0  0  0  0  0  0  0  0  0  0  0  0
   39.8390   34.9380   37.4460 C   0  0  0  0  0  0  0  0  0  0  0  0
   40.0110   34.3040   38.3530 N   0  0  0  0  0  0  0  0  0  0  0  0
   44.2660   35.1030   42.4000 S   0  0  0  0  0  0  0  0  0  0  0  0
   45.4090   34.3580   43.5290 C   0  0  0  0  0  0  0  0  0  0  0  0
   46.6990   33.9550   43.1220 C   0  0  0  0  0  0  0  0  0  0  0  0
   47.5100   33.3740   44.1090 C   0  0  0  0  0  0  0  0  0  0  0  0
   47.0470   33.2270   45.3630 N   0  0  0  0  0  0  0  0  0  0  0  0
   45.8000   33.6250   45.7220 C   0  0  0  0  0  0  0  0  0  0  0  0
   44.9800   34.1890   44.8120 N   0  0  0  0  0  0  0  0  0  0  0  0
   47.2130   34.1090   41.7890 C   0  0  0  0  0  0  0  0  0  0  0  0
   48.1250   35.1220   41.4590 C   0  0  0  0  0  0  0  0  0  0  0  0
   48.4190   35.0150   40.1530 N   0  0  0  0  0  0  0  0  0  0  0  0
   47.7520   33.9970   39.6330 C   0  0  0  0  0  0  0  0  0  0  0  0
   47.0410   33.4810   40.6440 N   0  0  0  0  0  0  0  0  0  0  0  0
   40.8837   31.5171   40.1381 H   0  0  0  0  0  0  0  0  0  0  0  0
   42.2383   30.7915   41.5142 H   0  0  0  0  0  0  0  0  0  0  0  0
   43.4593   31.2897   40.2198 H   0  0  0  0  0  0  0  0  0  0  0  0
   42.9184   32.4371   42.8916 H   0  0  0  0  0  0  0  0  0  0  0  0
   44.4476   32.2594   41.9407 H   0  0  0  0  0  0  0  0  0  0  0  0
   43.6922   34.1187   40.4430 H   0  0  0  0  0  0  0  0  0  0  0  0
   41.4083   33.9634   42.5371 H   0  0  0  0  0  0  0  0  0  0  0  0
   41.5752   35.3152   41.3922 H   0  0  0  0  0  0  0  0  0  0  0  0
   40.1941   33.1096   40.9854 H   0  0  0  0  0  0  0  0  0  0  0  0
   42.7665   35.5802   39.6558 H   0  0  0  0  0  0  0  0  0  0  0  0
   39.0360   34.8862   36.6960 H   0  0  0  0  0  0  0  0  0  0  0  0
   48.5265   33.0381   43.8564 H   0  0  0  0  0  0  0  0  0  0  0  0
   45.4573   33.4871   46.7581 H   0  0  0  0  0  0  0  0  0  0  0  0
   48.5300   35.8750   42.1511 H   0  0  0  0  0  0  0  0  0  0  0  0
   47.7764   33.6481   38.5901 H   0  0  0  0  0  0  0  0  0  0  0  0
   46.4174   32.6683   40.5361 H   0  0  0  0  0  0  0  0  0  0  0  0
  1  6  1  0
  1  2  1  0
  2  3  1  0
  4  5  1  0
  4  3  1  0
  4 12  1  0
  6  5  1  0
  7  6  1  0
  8  7  2  0
  9  8  1  0
 10  9  1  0
 10 11  2  0
 11  7  1  0
 12 13  1  0
 13 18  2  0
 14 13  1  0
 14 15  2  0
 15 16  1  0
 16 17  2  0
 18 17  1  0
 19 14  1  0
 20 19  2  0
 21 20  1  0
 22 21  2  0
 22 23  1  0
 23 19  1  0
  1 24  1  0
  2 25  1  0
  2 26  1  0
  3 27  1  0
  3 28  1  0
  4 29  1  6
  5 30  1  0
  5 31  1  0
  6 32  1  1
  8 33  1  0
 10 34  1  0
 15 35  1  0
 17 36  1  0
 20 37  1  0
 22 38  1  0
 23 39  1  0
M  ISO  8  24   5  25  13  26  13  27  13  28  13  29  13  30  13  31  13
M  ISO  8  32  13  33  14  34  14  35  14  36  14  37  14  38  14  39   9
M  END
>  <minimizedAffinity>  (1) 
-4.84298134

>  <minimizedRMSD>  (1) 
1.56314504

$$$$
