
     RDKit          3D

 33 35  0  0  0  0  0  0  0  0999 V2000
   46.6320   34.7630   42.0720 C   0  0  0  0  0  0  0  0  0  0  0  0
   47.9750   35.1390   42.0190 C   0  0  0  0  0  0  0  0  0  0  0  0
   48.6680   34.9510   40.8250 C   0  0  0  0  0  0  0  0  0  0  0  0
   48.0730   34.4120   39.7110 C   0  0  0  0  0  0  0  0  0  0  0  0
   46.7510   34.0470   39.7800 C   0  0  0  0  0  0  0  0  0  0  0  0
   46.0530   34.2260   40.9490 C   0  0  0  0  0  0  0  0  0  0  0  0
   45.4190   34.1290   45.4500 C   0  0  0  0  0  0  0  0  0  0  0  0
   44.6130   35.2280   45.7480 C   0  0  0  0  0  0  0  0  0  0  0  0
   44.4970   36.2000   44.7430 C   0  0  0  0  0  0  0  0  0  0  0  0
   45.1540   36.0360   43.5660 N   0  0  0  0  0  0  0  0  0  0  0  0
   45.9210   34.9630   43.3210 C   0  0  0  0  0  0  0  0  0  0  0  0
   46.0530   34.0090   44.2640 N   0  0  0  0  0  0  0  0  0  0  0  0
   41.9950   32.9270   41.1020 C   0  0  0  0  0  0  0  0  0  0  0  0
   42.3110   34.1810   40.6780 C   0  0  0  0  0  0  0  0  0  0  0  0
   43.6040   34.6490   40.6090 C   0  0  0  0  0  0  0  0  0  0  0  0
   44.6500   33.8260   40.9840 C   0  0  0  0  0  0  0  0  0  0  0  0
   44.3550   32.5400   41.4220 C   0  0  0  0  0  0  0  0  0  0  0  0
   43.0460   32.0900   41.4840 C   0  0  0  0  0  0  0  0  0  0  0  0
   40.3600   32.3070   41.2000 S   0  0  0  0  0  0  0  0  0  0  0  0
   39.3570   33.4210   41.2780 O   0  0  0  0  0  0  0  0  0  0  0  0
   40.1660   31.4710   42.4350 O   0  0  0  0  0  0  0  0  0  0  0  0
   48.4740   35.5730   42.8980 H   0  0  0  0  0  0  0  0  0  0  0  0
   49.7270   35.2441   40.7730 H   0  0  0  0  0  0  0  0  0  0  0  0
   48.6444   34.2752   38.7811 H   0  0  0  0  0  0  0  0  0  0  0  0
   46.2524   33.6123   38.9011 H   0  0  0  0  0  0  0  0  0  0  0  0
   45.5416   33.3370   46.2034 H   0  0  0  0  0  0  0  0  0  0  0  0
   44.0982   35.3267   46.7151 H   0  0  0  0  0  0  0  0  0  0  0  0
   43.8755   37.0925   44.9080 H   0  0  0  0  0  0  0  0  0  0  0  0
   41.4941   34.8529   40.3759 H   0  0  0  0  0  0  0  0  0  0  0  0
   43.8038   35.6720   40.2575 H   0  0  0  0  0  0  0  0  0  0  0  0
   45.1732   31.8696   41.7239 H   0  0  0  0  0  0  0  0  0  0  0  0
   42.8336   31.0695   41.8355 H   0  0  0  0  0  0  0  0  0  0  0  0
   40.1711   31.5586   40.0681 H   0  0  0  0  0  0  0  0  0  0  0  0
  1 11  1  0
  2  1  2  0
  3  2  1  0
  4  5  1  0
  4  3  2  0
  5  6  2  0
  6 16  1  0
  6  1  1  0
  7  8  2  0
  9  8  1  0
 10  9  2  0
 11 10  1  0
 11 12  2  0
 12  7  1  0
 13 19  1  0
 13 18  2  0
 14 13  1  0
 15 14  2  0
 15 16  1  0
 16 17  2  0
 17 18  1  0
 19 20  2  0
 19 21  2  0
  2 22  1  0
  3 23  1  0
  4 24  1  0
  5 25  1  0
  7 26  1  0
  8 27  1  0
  9 28  1  0
 14 29  1  0
 15 30  1  0
 17 31  1  0
 18 32  1  0
 19 33  1  0
M  ISO  8  22  14  23  14  24  14  25  14  26  14  27  14  28  14  29  14
M  ISO  4  30  14  31  14  32  14  33  11
M  END
>  <minimizedAffinity>  (1) 
-6.04905462

>  <minimizedRMSD>  (1) 
1.04883981

$$$$
