
     RDKit          3D

 29 31  0  0  0  0  0  0  0  0999 V2000
   46.6850   34.7630   42.0190 C   0  0  0  0  0  0  0  0  0  0  0  0
   47.9680   35.2700   41.9310 C   0  0  0  0  0  0  0  0  0  0  0  0
   48.6640   35.1100   40.7390 C   0  0  0  0  0  0  0  0  0  0  0  0
   48.1060   34.4580   39.6440 C   0  0  0  0  0  0  0  0  0  0  0  0
   46.8250   33.9610   39.7570 C   0  0  0  0  0  0  0  0  0  0  0  0
   46.1420   34.1190   40.9300 C   0  0  0  0  0  0  0  0  0  0  0  0
   45.4710   34.0920   45.3990 C   0  0  0  0  0  0  0  0  0  0  0  0
   44.6390   35.1770   45.6950 C   0  0  0  0  0  0  0  0  0  0  0  0
   44.5030   36.1550   44.6950 C   0  0  0  0  0  0  0  0  0  0  0  0
   45.1680   36.0060   43.5180 N   0  0  0  0  0  0  0  0  0  0  0  0
   45.9660   34.9370   43.2740 C   0  0  0  0  0  0  0  0  0  0  0  0
   46.1020   33.9990   44.2210 N   0  0  0  0  0  0  0  0  0  0  0  0
   44.7810   33.5880   41.0350 C   0  0  0  0  0  0  0  0  0  0  0  0
   43.7690   34.4180   40.5550 C   0  0  0  0  0  0  0  0  0  0  0  0
   42.4340   34.0030   40.6110 C   0  0  0  0  0  0  0  0  0  0  0  0
   42.1270   32.7640   41.1470 C   0  0  0  0  0  0  0  0  0  0  0  0
   43.1680   31.9770   41.6110 C   0  0  0  0  0  0  0  0  0  0  0  0
   44.4710   32.3830   41.5560 N   0  0  0  0  0  0  0  0  0  0  0  0
   48.4276   35.7884   42.7854 H   0  0  0  0  0  0  0  0  0  0  0  0
   49.6854   35.5103   40.6589 H   0  0  0  0  0  0  0  0  0  0  0  0
   48.6740   34.3417   38.7092 H   0  0  0  0  0  0  0  0  0  0  0  0
   46.3560   33.4409   38.9088 H   0  0  0  0  0  0  0  0  0  0  0  0
   45.6099   33.2992   46.1488 H   0  0  0  0  0  0  0  0  0  0  0  0
   44.1183   35.2603   46.6604 H   0  0  0  0  0  0  0  0  0  0  0  0
   43.8636   37.0342   44.8629 H   0  0  0  0  0  0  0  0  0  0  0  0
   44.0206   35.4014   40.1313 H   0  0  0  0  0  0  0  0  0  0  0  0
   41.6343   34.6563   40.2320 H   0  0  0  0  0  0  0  0  0  0  0  0
   41.0855   32.4144   41.2028 H   0  0  0  0  0  0  0  0  0  0  0  0
   42.9373   30.9902   42.0389 H   0  0  0  0  0  0  0  0  0  0  0  0
  1 11  1  0
  2  1  2  0
  3  2  1  0
  4  5  1  0
  4  3  2  0
  5  6  2  0
  6 13  1  0
  6  1  1  0
  7  8  2  0
  9  8  1  0
 10  9  2  0
 11 10  1  0
 11 12  2  0
 12  7  1  0
 13 18  2  0
 14 15  2  0
 14 13  1  0
 15 16  1  0
 16 17  2  0
 18 17  1  0
  2 19  1  0
  3 20  1  0
  4 21  1  0
  5 22  1  0
  7 23  1  0
  8 24  1  0
  9 25  1  0
 14 26  1  0
 15 27  1  0
 16 28  1  0
 17 29  1  0
M  ISO  8  19  14  20  14  21  14  22  14  23  14  24  14  25  14  26  14
M  ISO  3  27  14  28  14  29  14
M  END
>  <minimizedAffinity>  (1) 
-5.62933445

>  <minimizedRMSD>  (1) 
0.366188914

$$$$
