
     RDKit          3D

 30 32  0  0  0  0  0  0  0  0999 V2000
   46.6910   34.7880   42.0300 C   0  0  0  0  0  0  0  0  0  0  0  0
   47.9980   35.2650   41.9710 C   0  0  0  0  0  0  0  0  0  0  0  0
   48.6970   35.0990   40.7700 C   0  0  0  0  0  0  0  0  0  0  0  0
   48.1350   34.4880   39.6650 C   0  0  0  0  0  0  0  0  0  0  0  0
   46.8490   34.0320   39.7570 C   0  0  0  0  0  0  0  0  0  0  0  0
   46.1420   34.1830   40.9270 C   0  0  0  0  0  0  0  0  0  0  0  0
   45.4730   34.0970   45.3980 C   0  0  0  0  0  0  0  0  0  0  0  0
   44.6410   35.1800   45.6920 C   0  0  0  0  0  0  0  0  0  0  0  0
   44.5040   36.1650   44.6960 C   0  0  0  0  0  0  0  0  0  0  0  0
   45.1770   36.0070   43.5320 N   0  0  0  0  0  0  0  0  0  0  0  0
   45.9690   34.9580   43.2770 C   0  0  0  0  0  0  0  0  0  0  0  0
   46.1190   33.9960   44.2160 N   0  0  0  0  0  0  0  0  0  0  0  0
   44.7740   33.6760   40.9600 C   0  0  0  0  0  0  0  0  0  0  0  0
   44.4800   32.3860   41.4020 C   0  0  0  0  0  0  0  0  0  0  0  0
   43.1670   31.9530   41.4110 C   0  0  0  0  0  0  0  0  0  0  0  0
   42.1050   32.7410   40.9990 C   0  0  0  0  0  0  0  0  0  0  0  0
   42.4260   34.0270   40.5610 C   0  0  0  0  0  0  0  0  0  0  0  0
   43.7250   34.4700   40.5470 C   0  0  0  0  0  0  0  0  0  0  0  0
   48.4647   35.7552   42.8381 H   0  0  0  0  0  0  0  0  0  0  0  0
   49.7310   35.4681   40.7031 H   0  0  0  0  0  0  0  0  0  0  0  0
   48.7085   34.3713   38.7336 H   0  0  0  0  0  0  0  0  0  0  0  0
   46.3782   33.5425   38.8917 H   0  0  0  0  0  0  0  0  0  0  0  0
   45.6057   33.3048   46.1496 H   0  0  0  0  0  0  0  0  0  0  0  0
   44.1177   35.2592   46.6563 H   0  0  0  0  0  0  0  0  0  0  0  0
   43.8638   37.0444   44.8599 H   0  0  0  0  0  0  0  0  0  0  0  0
   45.2862   31.7187   41.7406 H   0  0  0  0  0  0  0  0  0  0  0  0
   42.9553   30.9324   41.7627 H   0  0  0  0  0  0  0  0  0  0  0  0
   41.0680   32.3744   41.0160 H   0  0  0  0  0  0  0  0  0  0  0  0
   41.6232   34.6976   40.2208 H   0  0  0  0  0  0  0  0  0  0  0  0
   43.9359   35.4907   40.1952 H   0  0  0  0  0  0  0  0  0  0  0  0
  1 11  1  0
  2  1  2  0
  3  2  1  0
  4  5  1  0
  4  3  2  0
  5  6  2  0
  6 13  1  0
  6  1  1  0
  7  8  2  0
  9  8  1  0
 10  9  2  0
 11 10  1  0
 11 12  2  0
 12  7  1  0
 13 14  2  0
 14 15  1  0
 16 15  2  0
 17 16  1  0
 18 17  2  0
 18 13  1  0
  2 19  1  0
  3 20  1  0
  4 21  1  0
  5 22  1  0
  7 23  1  0
  8 24  1  0
  9 25  1  0
 14 26  1  0
 15 27  1  0
 16 28  1  0
 17 29  1  0
 18 30  1  0
M  ISO  8  19  14  20  14  21  14  22  14  23  14  24  14  25  14  26  14
M  ISO  4  27  14  28  14  29  14  30  14
M  END
>  <minimizedAffinity>  (1) 
-5.60263157

>  <minimizedRMSD>  (1) 
0.490266055

$$$$
