
     RDKit          3D

 27 29  0  0  0  0  0  0  0  0999 V2000
   46.6950   34.7730   42.0270 C   0  0  0  0  0  0  0  0  0  0  0  0
   47.9780   35.2790   41.9390 C   0  0  0  0  0  0  0  0  0  0  0  0
   48.6710   35.1250   40.7490 C   0  0  0  0  0  0  0  0  0  0  0  0
   48.1250   34.4900   39.6610 C   0  0  0  0  0  0  0  0  0  0  0  0
   46.8560   33.9960   39.7660 C   0  0  0  0  0  0  0  0  0  0  0  0
   46.1530   34.1390   40.9370 C   0  0  0  0  0  0  0  0  0  0  0  0
   45.4930   34.0600   45.4040 C   0  0  0  0  0  0  0  0  0  0  0  0
   44.6450   35.1510   45.7060 C   0  0  0  0  0  0  0  0  0  0  0  0
   44.5060   36.1350   44.7060 C   0  0  0  0  0  0  0  0  0  0  0  0
   45.1750   35.9920   43.5330 N   0  0  0  0  0  0  0  0  0  0  0  0
   45.9690   34.9400   43.2910 C   0  0  0  0  0  0  0  0  0  0  0  0
   46.1210   33.9910   44.2190 N   0  0  0  0  0  0  0  0  0  0  0  0
   44.7960   33.6180   41.0520 C   0  0  0  0  0  0  0  0  0  0  0  0
   43.8190   34.4230   40.4550 C   0  0  0  0  0  0  0  0  0  0  0  0
   42.5760   33.8110   40.6390 C   0  0  0  0  0  0  0  0  0  0  0  0
   42.8830   32.6670   41.3410 C   0  0  0  0  0  0  0  0  0  0  0  0
   44.1620   32.5900   41.5590 O   0  0  0  0  0  0  0  0  0  0  0  0
   48.4392   35.7930   42.7952 H   0  0  0  0  0  0  0  0  0  0  0  0
   49.6929   35.5249   40.6735 H   0  0  0  0  0  0  0  0  0  0  0  0
   48.6960   34.3817   38.7270 H   0  0  0  0  0  0  0  0  0  0  0  0
   46.3954   33.4818   38.9096 H   0  0  0  0  0  0  0  0  0  0  0  0
   45.6393   33.2613   46.1461 H   0  0  0  0  0  0  0  0  0  0  0  0
   44.1215   35.2277   46.6704 H   0  0  0  0  0  0  0  0  0  0  0  0
   43.8616   37.0104   44.8744 H   0  0  0  0  0  0  0  0  0  0  0  0
   43.9985   35.3735   39.9313 H   0  0  0  0  0  0  0  0  0  0  0  0
   41.5883   34.1599   40.3032 H   0  0  0  0  0  0  0  0  0  0  0  0
   42.1464   31.9202   41.6721 H   0  0  0  0  0  0  0  0  0  0  0  0
  1 11  1  0
  2  1  2  0
  3  2  1  0
  4  5  1  0
  4  3  2  0
  5  6  2  0
  6 13  1  0
  6  1  1  0
  7  8  2  0
  9  8  1  0
 10  9  2  0
 11 10  1  0
 11 12  2  0
 12  7  1  0
 13 17  1  0
 14 15  1  0
 14 13  2  0
 15 16  2  0
 16 17  1  0
  2 18  1  0
  3 19  1  0
  4 20  1  0
  5 21  1  0
  7 22  1  0
  8 23  1  0
  9 24  1  0
 14 25  1  0
 15 26  1  0
 16 27  1  0
M  ISO  8  18  14  19  14  20  14  21  14  22  14  23  14  24  14  25  14
M  ISO  2  26  14  27  14
M  END
>  <minimizedAffinity>  (1) 
-5.45362997

>  <minimizedRMSD>  (1) 
0.358114302

$$$$
