
     RDKit          3D

 36 38  0  0  0  0  0  0  0  0999 V2000
   46.9500   34.8870   41.9530 C   0  0  0  0  0  0  0  0  0  0  0  0
   48.1980   35.4780   41.9510 C   0  0  0  0  0  0  0  0  0  0  0  0
   48.9520   35.3740   40.7880 C   0  0  0  0  0  0  0  0  0  0  0  0
   48.5060   34.7180   39.6650 C   0  0  0  0  0  0  0  0  0  0  0  0
   47.2680   34.1420   39.6900 C   0  0  0  0  0  0  0  0  0  0  0  0
   46.4780   34.2180   40.8270 C   0  0  0  0  0  0  0  0  0  0  0  0
   45.5700   34.0630   45.2340 C   0  0  0  0  0  0  0  0  0  0  0  0
   44.6560   35.0840   45.5000 C   0  0  0  0  0  0  0  0  0  0  0  0
   44.5160   36.0850   44.5110 C   0  0  0  0  0  0  0  0  0  0  0  0
   45.2720   35.9750   43.3980 N   0  0  0  0  0  0  0  0  0  0  0  0
   46.1420   34.9840   43.1680 C   0  0  0  0  0  0  0  0  0  0  0  0
   46.2930   34.0160   44.0970 N   0  0  0  0  0  0  0  0  0  0  0  0
   45.1360   33.5800   40.8190 C   0  0  0  0  0  0  0  0  0  0  0  0
   44.9770   32.7740   42.0960 C   0  0  0  0  0  0  0  0  0  0  0  0
   43.6570   32.0920   42.1930 C   0  0  0  0  0  0  0  0  0  0  0  0
   42.5220   32.9100   41.6110 C   0  0  0  0  0  0  0  0  0  0  0  0
   42.9610   34.3600   41.7330 C   0  0  0  0  0  0  0  0  0  0  0  0
   44.0080   34.5400   40.6240 C   0  0  0  0  0  0  0  0  0  0  0  0
   48.5802   36.0100   42.8347 H   0  0  0  0  0  0  0  0  0  0  0  0
   49.9496   35.8370   40.7650 H   0  0  0  0  0  0  0  0  0  0  0  0
   49.1341   34.6583   38.7639 H   0  0  0  0  0  0  0  0  0  0  0  0
   46.8944   33.6133   38.8007 H   0  0  0  0  0  0  0  0  0  0  0  0
   45.7055   33.2665   45.9805 H   0  0  0  0  0  0  0  0  0  0  0  0
   44.0735   35.1087   46.4328 H   0  0  0  0  0  0  0  0  0  0  0  0
   43.8162   36.9232   44.6438 H   0  0  0  0  0  0  0  0  0  0  0  0
   45.0829   32.9175   39.9425 H   0  0  0  0  0  0  0  0  0  0  0  0
   45.7689   32.0113   42.1300 H   0  0  0  0  0  0  0  0  0  0  0  0
   45.0471   33.4766   42.9394 H   0  0  0  0  0  0  0  0  0  0  0  0
   43.7152   31.1374   41.6496 H   0  0  0  0  0  0  0  0  0  0  0  0
   43.4413   31.9447   43.2615 H   0  0  0  0  0  0  0  0  0  0  0  0
   41.5953   32.7400   42.1788 H   0  0  0  0  0  0  0  0  0  0  0  0
   42.3139   32.6335   40.5669 H   0  0  0  0  0  0  0  0  0  0  0  0
   42.1092   35.0384   41.5773 H   0  0  0  0  0  0  0  0  0  0  0  0
   43.3638   34.5924   42.7299 H   0  0  0  0  0  0  0  0  0  0  0  0
   44.3968   35.5686   40.6547 H   0  0  0  0  0  0  0  0  0  0  0  0
   43.5359   34.3461   39.6496 H   0  0  0  0  0  0  0  0  0  0  0  0
  1 11  1  0
  2  1  2  0
  3  2  1  0
  4  5  1  0
  4  3  2  0
  5  6  2  0
  6  1  1  0
  7  8  2  0
  9  8  1  0
 10  9  2  0
 11 10  1  0
 11 12  2  0
 12  7  1  0
 13  6  1  0
 13 14  1  0
 14 15  1  0
 16 17  1  0
 16 15  1  0
 18 13  1  0
 18 17  1  0
  2 19  1  0
  3 20  1  0
  4 21  1  0
  5 22  1  0
  7 23  1  0
  8 24  1  0
  9 25  1  0
 13 26  1  0
 14 27  1  0
 14 28  1  0
 15 29  1  0
 15 30  1  0
 16 31  1  0
 16 32  1  0
 17 33  1  0
 17 34  1  0
 18 35  1  0
 18 36  1  0
M  ISO  8  19  14  20  14  21  14  22  14  23  14  24  14  25  14  26  13
M  ISO  8  27  13  28  13  29  13  30  13  31  13  32  13  33  13  34  13
M  ISO  2  35  13  36  13
M  END
>  <minimizedAffinity>  (1) 
-5.58232975

>  <minimizedRMSD>  (1) 
0.423584789

$$$$
