
     RDKit          3D

 27 29  0  0  0  0  0  0  0  0999 V2000
   46.7410   34.7860   42.0820 C   0  0  0  0  0  0  0  0  0  0  0  0
   48.0250   35.3220   42.0060 C   0  0  0  0  0  0  0  0  0  0  0  0
   48.7280   35.2030   40.8180 C   0  0  0  0  0  0  0  0  0  0  0  0
   48.2100   34.5780   39.7100 C   0  0  0  0  0  0  0  0  0  0  0  0
   46.9510   34.0590   39.8020 C   0  0  0  0  0  0  0  0  0  0  0  0
   46.2110   34.1540   40.9680 C   0  0  0  0  0  0  0  0  0  0  0  0
   45.5530   33.9920   45.4390 C   0  0  0  0  0  0  0  0  0  0  0  0
   44.6750   35.0360   45.7450 C   0  0  0  0  0  0  0  0  0  0  0  0
   44.4930   36.0430   44.7540 C   0  0  0  0  0  0  0  0  0  0  0  0
   45.1740   35.9340   43.5840 N   0  0  0  0  0  0  0  0  0  0  0  0
   46.0060   34.9130   43.3340 C   0  0  0  0  0  0  0  0  0  0  0  0
   46.2020   33.9410   44.2520 N   0  0  0  0  0  0  0  0  0  0  0  0
   44.8360   33.6070   41.1210 C   0  0  0  0  0  0  0  0  0  0  0  0
   44.0220   33.1460   39.9980 C   0  0  0  0  0  0  0  0  0  0  0  0
   43.7490   34.5090   40.5240 C   0  0  0  0  0  0  0  0  0  0  0  0
   48.4722   35.8302   42.8731 H   0  0  0  0  0  0  0  0  0  0  0  0
   49.7417   35.6261   40.7598 H   0  0  0  0  0  0  0  0  0  0  0  0
   48.7907   34.4984   38.7792 H   0  0  0  0  0  0  0  0  0  0  0  0
   46.5138   33.5530   38.9286 H   0  0  0  0  0  0  0  0  0  0  0  0
   45.7201   33.1950   46.1785 H   0  0  0  0  0  0  0  0  0  0  0  0
   44.1475   35.0780   46.7093 H   0  0  0  0  0  0  0  0  0  0  0  0
   43.8153   36.8908   44.9326 H   0  0  0  0  0  0  0  0  0  0  0  0
   45.0943   33.1226   42.0743 H   0  0  0  0  0  0  0  0  0  0  0  0
   43.2838   32.3459   40.1556 H   0  0  0  0  0  0  0  0  0  0  0  0
   44.2569   32.7477   38.9999 H   0  0  0  0  0  0  0  0  0  0  0  0
   44.0246   35.3971   39.9363 H   0  0  0  0  0  0  0  0  0  0  0  0
   42.8692   35.0462   40.9080 H   0  0  0  0  0  0  0  0  0  0  0  0
  1 11  1  0
  2  1  2  0
  3  2  1  0
  4  5  1  0
  4  3  2  0
  5  6  2  0
  6 13  1  0
  6  1  1  0
  7  8  2  0
  9  8  1  0
 10  9  2  0
 11 10  1  0
 11 12  2  0
 12  7  1  0
 14 15  1  0
 14 13  1  0
 15 13  1  0
  2 16  1  0
  3 17  1  0
  4 18  1  0
  5 19  1  0
  7 20  1  0
  8 21  1  0
  9 22  1  0
 13 23  1  0
 14 24  1  0
 14 25  1  0
 15 26  1  0
 15 27  1  0
M  ISO  8  16  14  17  14  18  14  19  14  20  14  21  14  22  14  23  13
M  ISO  4  24  13  25  13  26  13  27  13
M  END
>  <minimizedAffinity>  (1) 
-5.15346861

>  <minimizedRMSD>  (1) 
0.535245359

$$$$
