
     RDKit          3D

 35 37  0  0  0  0  0  0  0  0999 V2000
   46.7290   34.7960   42.0030 C   0  0  0  0  0  0  0  0  0  0  0  0
   48.0230   35.2620   41.9480 C   0  0  0  0  0  0  0  0  0  0  0  0
   48.7250   35.1100   40.7570 C   0  0  0  0  0  0  0  0  0  0  0  0
   48.1730   34.5110   39.6380 C   0  0  0  0  0  0  0  0  0  0  0  0
   46.8860   34.0580   39.7270 C   0  0  0  0  0  0  0  0  0  0  0  0
   46.1670   34.1960   40.8940 C   0  0  0  0  0  0  0  0  0  0  0  0
   45.4710   34.0480   45.3510 C   0  0  0  0  0  0  0  0  0  0  0  0
   44.6450   35.1380   45.6610 C   0  0  0  0  0  0  0  0  0  0  0  0
   44.5300   36.1410   44.6860 C   0  0  0  0  0  0  0  0  0  0  0  0
   45.2090   36.0190   43.5070 N   0  0  0  0  0  0  0  0  0  0  0  0
   45.9910   34.9560   43.2540 C   0  0  0  0  0  0  0  0  0  0  0  0
   46.1210   33.9700   44.1750 N   0  0  0  0  0  0  0  0  0  0  0  0
   44.8270   33.7060   40.9330 N   0  0  0  0  0  0  0  0  0  0  0  0
   44.3210   32.3660   41.2570 C   0  0  0  0  0  0  0  0  0  0  0  0
   43.1920   31.9340   40.3970 C   0  0  0  0  0  0  0  0  0  0  0  0
   43.3030   32.6970   39.0730 C   0  0  0  0  0  0  0  0  0  0  0  0
   42.9050   34.1230   39.4570 C   0  0  0  0  0  0  0  0  0  0  0  0
   43.7050   34.5670   40.6240 C   0  0  0  0  0  0  0  0  0  0  0  0
   48.4889   35.7413   42.8216 H   0  0  0  0  0  0  0  0  0  0  0  0
   49.7593   35.4803   40.7022 H   0  0  0  0  0  0  0  0  0  0  0  0
   48.7505   34.4030   38.7080 H   0  0  0  0  0  0  0  0  0  0  0  0
   46.4185   33.5770   38.8552 H   0  0  0  0  0  0  0  0  0  0  0  0
   45.5904   33.2382   46.0858 H   0  0  0  0  0  0  0  0  0  0  0  0
   44.1131   35.2037   46.6216 H   0  0  0  0  0  0  0  0  0  0  0  0
   43.8962   37.0210   44.8703 H   0  0  0  0  0  0  0  0  0  0  0  0
   45.1438   31.6455   41.1388 H   0  0  0  0  0  0  0  0  0  0  0  0
   43.9439   32.4043   42.2896 H   0  0  0  0  0  0  0  0  0  0  0  0
   43.2532   30.8513   40.2127 H   0  0  0  0  0  0  0  0  0  0  0  0
   42.2297   32.1452   40.8862 H   0  0  0  0  0  0  0  0  0  0  0  0
   42.6145   32.2843   38.3210 H   0  0  0  0  0  0  0  0  0  0  0  0
   44.3045   32.6352   38.6222 H   0  0  0  0  0  0  0  0  0  0  0  0
   43.0922   34.7964   38.6076 H   0  0  0  0  0  0  0  0  0  0  0  0
   41.8365   34.1459   39.7173 H   0  0  0  0  0  0  0  0  0  0  0  0
   44.0908   35.5756   40.4148 H   0  0  0  0  0  0  0  0  0  0  0  0
   43.0353   34.5410   41.4963 H   0  0  0  0  0  0  0  0  0  0  0  0
  1 11  1  0
  2  1  2  0
  3  2  1  0
  4  5  1  0
  4  3  2  0
  5  6  2  0
  6 13  1  0
  6  1  1  0
  7  8  2  0
  9  8  1  0
 10  9  2  0
 11 10  1  0
 11 12  2  0
 12  7  1  0
 13 14  1  0
 15 14  1  0
 16 17  1  0
 16 15  1  0
 17 18  1  0
 18 13  1  0
  2 19  1  0
  3 20  1  0
  4 21  1  0
  5 22  1  0
  7 23  1  0
  8 24  1  0
  9 25  1  0
 14 26  1  0
 14 27  1  0
 15 28  1  0
 15 29  1  0
 16 30  1  0
 16 31  1  0
 17 32  1  0
 17 33  1  0
 18 34  1  0
 18 35  1  0
M  ISO  8  19  14  20  14  21  14  22  14  23  14  24  14  25  14  26  13
M  ISO  8  27  13  28  13  29  13  30  13  31  13  32  13  33  13  34  13
M  ISO  1  35  13
M  END
>  <minimizedAffinity>  (1) 
-5.36036158

>  <minimizedRMSD>  (1) 
0.796320796

$$$$
