
     RDKit          3D

 23 24  0  0  0  0  0  0  0  0999 V2000
   46.7470   34.7780   42.0760 C   0  0  0  0  0  0  0  0  0  0  0  0
   48.0290   35.2910   42.0060 C   0  0  0  0  0  0  0  0  0  0  0  0
   48.7300   35.1700   40.8170 C   0  0  0  0  0  0  0  0  0  0  0  0
   48.1940   34.5600   39.7050 C   0  0  0  0  0  0  0  0  0  0  0  0
   46.9260   34.0570   39.7830 C   0  0  0  0  0  0  0  0  0  0  0  0
   46.2340   34.1750   40.9560 C   0  0  0  0  0  0  0  0  0  0  0  0
   45.5880   34.0210   45.4490 C   0  0  0  0  0  0  0  0  0  0  0  0
   44.6770   35.0400   45.7410 C   0  0  0  0  0  0  0  0  0  0  0  0
   44.4660   36.0090   44.7370 C   0  0  0  0  0  0  0  0  0  0  0  0
   45.1450   35.9010   43.5680 N   0  0  0  0  0  0  0  0  0  0  0  0
   46.0140   34.9040   43.3230 C   0  0  0  0  0  0  0  0  0  0  0  0
   46.2440   33.9550   44.2620 N   0  0  0  0  0  0  0  0  0  0  0  0
   44.8840   33.6200   40.9890 C   0  0  0  0  0  0  0  0  0  0  0  0
   44.0470   33.5880   40.0780 O   0  0  0  0  0  0  0  0  0  0  0  0
   44.2760   33.0170   42.0690 O   0  0  0  0  0  0  0  0  0  0  0  0
   48.4835   35.7855   42.8772 H   0  0  0  0  0  0  0  0  0  0  0  0
   49.7509   35.5756   40.7594 H   0  0  0  0  0  0  0  0  0  0  0  0
   48.7741   34.4794   38.7739 H   0  0  0  0  0  0  0  0  0  0  0  0
   46.4679   33.5635   38.9132 H   0  0  0  0  0  0  0  0  0  0  0  0
   45.7800   33.2465   46.2062 H   0  0  0  0  0  0  0  0  0  0  0  0
   44.1505   35.0845   46.7058 H   0  0  0  0  0  0  0  0  0  0  0  0
   43.7622   36.8385   44.8999 H   0  0  0  0  0  0  0  0  0  0  0  0
   43.3518   32.6715   41.9875 H   0  0  0  0  0  0  0  0  0  0  0  0
  1 11  1  0
  2  1  2  0
  3  2  1  0
  4  5  1  0
  4  3  2  0
  5  6  2  0
  6 13  1  0
  6  1  1  0
  7  8  2  0
  9  8  1  0
 10  9  2  0
 11 10  1  0
 11 12  2  0
 12  7  1  0
 13 15  1  0
 14 13  2  0
  2 16  1  0
  3 17  1  0
  4 18  1  0
  5 19  1  0
  7 20  1  0
  8 21  1  0
  9 22  1  0
 15 23  1  0
M  ISO  8  16  14  17  14  18  14  19  14  20  14  21  14  22  14  23   3
M  END
>  <minimizedAffinity>  (1) 
-5.00108576

>  <minimizedRMSD>  (1) 
0.245405123

$$$$
