
     RDKit          3D

 21 22  0  0  0  0  0  0  0  0999 V2000
   46.7380   34.6950   42.0130 C   0  0  0  0  0  0  0  0  0  0  0  0
   47.9730   35.3300   41.8770 C   0  0  0  0  0  0  0  0  0  0  0  0
   48.6520   35.2010   40.6710 C   0  0  0  0  0  0  0  0  0  0  0  0
   48.1530   34.4760   39.6140 C   0  0  0  0  0  0  0  0  0  0  0  0
   46.9280   33.8540   39.7650 C   0  0  0  0  0  0  0  0  0  0  0  0
   46.2460   33.9700   40.9460 C   0  0  0  0  0  0  0  0  0  0  0  0
   45.6100   33.9700   45.3980 C   0  0  0  0  0  0  0  0  0  0  0  0
   44.7060   35.0170   45.6970 C   0  0  0  0  0  0  0  0  0  0  0  0
   44.5010   35.9850   44.6790 C   0  0  0  0  0  0  0  0  0  0  0  0
   45.1730   35.8460   43.5080 N   0  0  0  0  0  0  0  0  0  0  0  0
   46.0220   34.8290   43.2800 C   0  0  0  0  0  0  0  0  0  0  0  0
   46.2410   33.8980   44.2130 N   0  0  0  0  0  0  0  0  0  0  0  0
   44.6490   33.1660   41.1590 S   0  0  0  0  0  0  0  0  0  0  0  0
   48.3986   35.9180   42.7035 H   0  0  0  0  0  0  0  0  0  0  0  0
   49.6266   35.6982   40.5575 H   0  0  0  0  0  0  0  0  0  0  0  0
   48.7149   34.3933   38.6720 H   0  0  0  0  0  0  0  0  0  0  0  0
   46.5021   33.2671   38.9379 H   0  0  0  0  0  0  0  0  0  0  0  0
   45.8014   33.1950   46.1548 H   0  0  0  0  0  0  0  0  0  0  0  0
   44.1898   35.0775   46.6664 H   0  0  0  0  0  0  0  0  0  0  0  0
   43.8129   36.8288   44.8357 H   0  0  0  0  0  0  0  0  0  0  0  0
   44.3805   33.0308   42.4956 H   0  0  0  0  0  0  0  0  0  0  0  0
  1 11  1  0
  2  1  2  0
  3  2  1  0
  4  5  1  0
  4  3  2  0
  5  6  2  0
  6 13  1  0
  6  1  1  0
  7  8  2  0
  9  8  1  0
 10  9  2  0
 11 10  1  0
 11 12  2  0
 12  7  1  0
  2 14  1  0
  3 15  1  0
  4 16  1  0
  5 17  1  0
  7 18  1  0
  8 19  1  0
  9 20  1  0
 13 21  1  0
M  ISO  8  14  14  15  14  16  14  17  14  18  14  19  14  20  14  21  11
M  END
>  <minimizedAffinity>  (1) 
-4.89715004

>  <minimizedRMSD>  (1) 
0.0777870938

$$$$
