
     RDKit          3D

 22 23  0  0  0  0  0  0  0  0999 V2000
   46.7670   34.7220   42.0080 C   0  0  0  0  0  0  0  0  0  0  0  0
   47.9820   35.3680   41.8850 C   0  0  0  0  0  0  0  0  0  0  0  0
   48.6850   35.2450   40.6800 C   0  0  0  0  0  0  0  0  0  0  0  0
   48.2090   34.5090   39.6230 C   0  0  0  0  0  0  0  0  0  0  0  0
   47.0050   33.8750   39.7620 C   0  0  0  0  0  0  0  0  0  0  0  0
   46.3030   33.9860   40.9410 C   0  0  0  0  0  0  0  0  0  0  0  0
   45.6450   33.9670   45.3920 C   0  0  0  0  0  0  0  0  0  0  0  0
   44.7250   34.9850   45.6840 C   0  0  0  0  0  0  0  0  0  0  0  0
   44.5010   35.9420   44.6810 C   0  0  0  0  0  0  0  0  0  0  0  0
   45.1700   35.8450   43.4940 N   0  0  0  0  0  0  0  0  0  0  0  0
   46.0420   34.8510   43.2610 C   0  0  0  0  0  0  0  0  0  0  0  0
   46.2790   33.9140   44.2080 N   0  0  0  0  0  0  0  0  0  0  0  0
   45.0330   33.3160   41.0820 N   0  0  0  0  0  0  0  0  0  0  0  0
   48.3880   35.9654   42.7146 H   0  0  0  0  0  0  0  0  0  0  0  0
   49.6534   35.7564   40.5766 H   0  0  0  0  0  0  0  0  0  0  0  0
   48.7820   34.4312   38.6873 H   0  0  0  0  0  0  0  0  0  0  0  0
   46.5983   33.2773   38.9329 H   0  0  0  0  0  0  0  0  0  0  0  0
   45.8520   33.1955   46.1483 H   0  0  0  0  0  0  0  0  0  0  0  0
   44.2043   35.0314   46.6518 H   0  0  0  0  0  0  0  0  0  0  0  0
   43.7910   36.7649   44.8502 H   0  0  0  0  0  0  0  0  0  0  0  0
   44.5036   33.3957   41.9619 H   0  0  0  0  0  0  0  0  0  0  0  0
   44.6558   32.7580   40.3027 H   0  0  0  0  0  0  0  0  0  0  0  0
  1 11  1  0
  2  1  2  0
  3  2  1  0
  4  5  1  0
  4  3  2  0
  5  6  2  0
  6 13  1  0
  6  1  1  0
  7  8  2  0
  9  8  1  0
 10  9  2  0
 11 10  1  0
 11 12  2  0
 12  7  1  0
  2 14  1  0
  3 15  1  0
  4 16  1  0
  5 17  1  0
  7 18  1  0
  8 19  1  0
  9 20  1  0
 13 21  1  0
 13 22  1  0
M  ISO  7  14  14  15  14  16  14  17  14  18  14  19  14  20  14
M  END
>  <minimizedAffinity>  (1) 
-4.9116416

>  <minimizedRMSD>  (1) 
0.0626045391

$$$$
