
     RDKit          3D

 25 26  0  0  0  0  0  0  0  0999 V2000
   47.3210   34.0340   41.1600 C   0  0  0  0  0  0  0  0  0  0  0  0
   48.3100   34.9480   40.8690 C   0  0  0  0  0  0  0  0  0  0  0  0
   48.7420   35.1010   39.5530 C   0  0  0  0  0  0  0  0  0  0  0  0
   48.2050   34.3590   38.5260 C   0  0  0  0  0  0  0  0  0  0  0  0
   47.2150   33.4460   38.8190 C   0  0  0  0  0  0  0  0  0  0  0  0
   46.7960   33.3030   40.1210 C   0  0  0  0  0  0  0  0  0  0  0  0
   47.1690   32.7710   44.5690 C   0  0  0  0  0  0  0  0  0  0  0  0
   46.1460   33.5330   45.1740 C   0  0  0  0  0  0  0  0  0  0  0  0
   45.5270   34.4820   44.3640 C   0  0  0  0  0  0  0  0  0  0  0  0
   45.9170   34.6320   43.0730 N   0  0  0  0  0  0  0  0  0  0  0  0
   46.8870   33.8920   42.5380 C   0  0  0  0  0  0  0  0  0  0  0  0
   47.5230   32.9530   43.2830 N   0  0  0  0  0  0  0  0  0  0  0  0
   44.4680   35.2830   44.9620 C   0  0  0  0  0  0  0  0  0  0  0  0
   44.4590   35.3740   46.2100 O   0  0  0  0  0  0  0  0  0  0  0  0
   43.5100   35.9160   44.1830 O   0  0  0  0  0  0  0  0  0  0  0  0
   45.7580   32.3460   40.4330 N   0  0  0  0  0  0  0  0  0  0  0  0
   48.7563   35.5538   41.6713 H   0  0  0  0  0  0  0  0  0  0  0  0
   49.5320   35.8331   39.3296 H   0  0  0  0  0  0  0  0  0  0  0  0
   48.5585   34.4918   37.4928 H   0  0  0  0  0  0  0  0  0  0  0  0
   46.7649   32.8383   38.0201 H   0  0  0  0  0  0  0  0  0  0  0  0
   47.6911   32.0077   45.1647 H   0  0  0  0  0  0  0  0  0  0  0  0
   45.8546   33.3857   46.2244 H   0  0  0  0  0  0  0  0  0  0  0  0
   42.7997   36.4552   44.6129 H   0  0  0  0  0  0  0  0  0  0  0  0
   45.4379   32.2321   41.4053 H   0  0  0  0  0  0  0  0  0  0  0  0
   45.3387   31.7782   39.6829 H   0  0  0  0  0  0  0  0  0  0  0  0
  1 11  1  0
  2  1  2  0
  3  2  1  0
  4  5  1  0
  4  3  2  0
  5  6  2  0
  6 16  1  0
  6  1  1  0
  7  8  2  0
  9 13  1  0
  9  8  1  0
 10  9  2  0
 11 10  1  0
 11 12  2  0
 12  7  1  0
 13 14  2  0
 15 13  1  0
  2 17  1  0
  3 18  1  0
  4 19  1  0
  5 20  1  0
  7 21  1  0
  8 22  1  0
 15 23  1  0
 16 24  1  0
 16 25  1  0
M  ISO  7  17  14  18  14  19  14  20  14  21  14  22  14  23   3
M  END
>  <minimizedAffinity>  (1) 
-4.87796021

>  <minimizedRMSD>  (1) 
1.62572467

$$$$
