
     RDKit          3D

 25 26  0  0  0  0  0  0  0  0999 V2000
   47.3830   34.1920   42.0340 C   0  0  0  0  0  0  0  0  0  0  0  0
   48.2860   35.2360   41.8760 C   0  0  0  0  0  0  0  0  0  0  0  0
   48.7740   35.5140   40.5970 C   0  0  0  0  0  0  0  0  0  0  0  0
   48.3840   34.7820   39.4890 C   0  0  0  0  0  0  0  0  0  0  0  0
   47.4920   33.7550   39.6590 C   0  0  0  0  0  0  0  0  0  0  0  0
   47.0130   33.4810   40.9120 C   0  0  0  0  0  0  0  0  0  0  0  0
   46.9740   32.4960   45.2270 C   0  0  0  0  0  0  0  0  0  0  0  0
   46.0080   33.2630   45.8950 C   0  0  0  0  0  0  0  0  0  0  0  0
   45.5060   34.3730   45.2180 C   0  0  0  0  0  0  0  0  0  0  0  0
   45.9510   34.6820   43.9590 N   0  0  0  0  0  0  0  0  0  0  0  0
   46.8810   33.9090   43.3610 C   0  0  0  0  0  0  0  0  0  0  0  0
   47.3780   32.8340   43.9940 N   0  0  0  0  0  0  0  0  0  0  0  0
   44.4880   35.3030   45.7490 C   0  0  0  0  0  0  0  0  0  0  0  0
   46.0690   32.3920   41.0890 N   0  0  0  0  0  0  0  0  0  0  0  0
   48.6105   35.8323   42.7416 H   0  0  0  0  0  0  0  0  0  0  0  0
   49.4895   36.3392   40.4666 H   0  0  0  0  0  0  0  0  0  0  0  0
   48.7820   35.0197   38.4915 H   0  0  0  0  0  0  0  0  0  0  0  0
   47.1640   33.1564   38.7964 H   0  0  0  0  0  0  0  0  0  0  0  0
   47.4033   31.6105   45.7185 H   0  0  0  0  0  0  0  0  0  0  0  0
   45.6628   33.0006   46.9059 H   0  0  0  0  0  0  0  0  0  0  0  0
   44.5105   35.2824   46.8486 H   0  0  0  0  0  0  0  0  0  0  0  0
   44.7036   36.3226   45.3969 H   0  0  0  0  0  0  0  0  0  0  0  0
   43.4920   34.9964   45.3969 H   0  0  0  0  0  0  0  0  0  0  0  0
   45.7016   32.1762   42.0267 H   0  0  0  0  0  0  0  0  0  0  0  0
   45.7668   31.8353   40.2768 H   0  0  0  0  0  0  0  0  0  0  0  0
  1 11  1  0
  2  1  2  0
  3  2  1  0
  4  5  1  0
  4  3  2  0
  5  6  2  0
  6 14  1  0
  6  1  1  0
  7  8  2  0
  9 13  1  0
  9  8  1  0
 10  9  2  0
 11 10  1  0
 11 12  2  0
 12  7  1  0
  2 15  1  0
  3 16  1  0
  4 17  1  0
  5 18  1  0
  7 19  1  0
  8 20  1  0
 13 21  1  0
 13 22  1  0
 13 23  1  0
 14 24  1  0
 14 25  1  0
M  ISO  8  15  14  16  14  17  14  18  14  19  14  20  14  21   8  22   8
M  ISO  1  23   8
M  END
>  <minimizedAffinity>  (1) 
-4.49300194

>  <minimizedRMSD>  (1) 
1.3987174

$$$$
