
     RDKit          3D

 38 40  0  0  0  0  0  0  0  0999 V2000
   44.9460   35.0480   44.5510 C   0  0  0  0  0  0  0  0  0  0  0  0
   44.0600   35.4740   43.5830 C   0  0  0  0  0  0  0  0  0  0  0  0
   44.4990   35.3790   42.2540 C   0  0  0  0  0  0  0  0  0  0  0  0
   45.7370   34.8880   41.9700 N   0  0  0  0  0  0  0  0  0  0  0  0
   46.5590   34.4870   42.9580 C   0  0  0  0  0  0  0  0  0  0  0  0
   46.1570   34.5690   44.2430 N   0  0  0  0  0  0  0  0  0  0  0  0
   47.8800   33.9610   42.7010 C   0  0  0  0  0  0  0  0  0  0  0  0
   48.9440   34.8460   42.6410 C   0  0  0  0  0  0  0  0  0  0  0  0
   50.2310   34.3670   42.3950 C   0  0  0  0  0  0  0  0  0  0  0  0
   50.4670   33.0360   42.2120 C   0  0  0  0  0  0  0  0  0  0  0  0
   49.4190   32.1530   42.2690 C   0  0  0  0  0  0  0  0  0  0  0  0
   48.1320   32.6310   42.5150 C   0  0  0  0  0  0  0  0  0  0  0  0
   47.0300   31.7180   42.5750 N   0  0  0  0  0  0  0  0  0  0  0  0
   43.7850   35.7480   41.1170 O   0  0  0  0  0  0  0  0  0  0  0  0
   40.2630   33.5540   40.9360 N   0  0  0  0  0  0  0  0  0  0  0  0
   40.5240   34.7770   41.6520 C   0  0  0  0  0  0  0  0  0  0  0  0
   41.4390   35.7120   40.9020 C   0  0  0  0  0  0  0  0  0  0  0  0
   42.7520   35.0630   40.5190 C   0  0  0  0  0  0  0  0  0  0  0  0
   42.7140   33.5850   40.8170 C   0  0  0  0  0  0  0  0  0  0  0  0
   41.4100   33.0850   40.1900 C   0  0  0  0  0  0  0  0  0  0  0  0
   44.6478   35.1038   45.6083 H   0  0  0  0  0  0  0  0  0  0  0  0
   43.0647   35.8663   43.8391 H   0  0  0  0  0  0  0  0  0  0  0  0
   48.7747   35.9231   42.7869 H   0  0  0  0  0  0  0  0  0  0  0  0
   51.0709   35.0757   42.3477 H   0  0  0  0  0  0  0  0  0  0  0  0
   51.4880   32.6743   42.0205 H   0  0  0  0  0  0  0  0  0  0  0  0
   49.5921   31.0767   42.1219 H   0  0  0  0  0  0  0  0  0  0  0  0
   46.0791   32.0697   42.7566 H   0  0  0  0  0  0  0  0  0  0  0  0
   47.1884   30.7097   42.4366 H   0  0  0  0  0  0  0  0  0  0  0  0
   39.9919   32.8274   41.6138 H   0  0  0  0  0  0  0  0  0  0  0  0
   39.5676   35.2901   41.8306 H   0  0  0  0  0  0  0  0  0  0  0  0
   41.0261   34.5080   42.5930 H   0  0  0  0  0  0  0  0  0  0  0  0
   40.9293   36.0426   39.9850 H   0  0  0  0  0  0  0  0  0  0  0  0
   41.6681   36.5572   41.5677 H   0  0  0  0  0  0  0  0  0  0  0  0
   42.9258   35.1286   39.4348 H   0  0  0  0  0  0  0  0  0  0  0  0
   43.5791   33.0776   40.3652 H   0  0  0  0  0  0  0  0  0  0  0  0
   42.7566   33.3812   41.8971 H   0  0  0  0  0  0  0  0  0  0  0  0
   41.3427   33.4552   39.1564 H   0  0  0  0  0  0  0  0  0  0  0  0
   41.4126   31.9851   40.2060 H   0  0  0  0  0  0  0  0  0  0  0  0
  2  1  2  0
  3  2  1  0
  4  3  2  0
  4  5  1  0
  5  6  2  0
  6  1  1  0
  7  5  1  0
  8  7  2  0
  9  8  1  0
 10 11  1  0
 10  9  2  0
 11 12  2  0
 12 13  1  0
 12  7  1  0
 14  3  1  0
 15 16  1  0
 17 16  1  0
 18 19  1  0
 18 17  1  0
 18 14  1  0
 20 19  1  0
 20 15  1  0
  1 21  1  0
  2 22  1  0
  8 23  1  0
  9 24  1  0
 10 25  1  0
 11 26  1  0
 13 27  1  0
 13 28  1  0
 15 29  1  0
 16 30  1  0
 16 31  1  0
 17 32  1  0
 17 33  1  0
 18 34  1  0
 19 35  1  0
 19 36  1  0
 20 37  1  0
 20 38  1  0
M  ISO  8  21  14  22  14  23  14  24  14  25  14  26  14  29   5  30  13
M  ISO  8  31  13  32  13  33  13  34  13  35  13  36  13  37  13  38  13
M  END
>  <minimizedAffinity>  (1) 
-5.24733353

>  <minimizedRMSD>  (1) 
2.9407258

$$$$
