
     RDKit          3D

 39 41  0  0  1  0  0  0  0  0999 V2000
   45.5630   30.8100   48.3800 C   0  0  0  0  0  0  0  0  0  0  0  0
   46.7890   30.8180   49.0480 C   0  0  0  0  0  0  0  0  0  0  0  0
   47.7680   31.7440   48.6380 C   0  0  0  0  0  0  0  0  0  0  0  0
   47.4850   32.5900   47.6130 N   0  0  0  0  0  0  0  0  0  0  0  0
   46.2770   32.5480   46.9910 C   0  0  0  0  0  0  0  0  0  0  0  0
   45.3220   31.6700   47.3650 N   0  0  0  0  0  0  0  0  0  0  0  0
   45.9690   33.4510   45.9000 C   0  0  0  0  0  0  0  0  0  0  0  0
   46.6720   33.3400   44.7350 C   0  0  0  0  0  0  0  0  0  0  0  0
   46.3840   34.2040   43.6800 C   0  0  0  0  0  0  0  0  0  0  0  0
   45.4340   35.1580   43.7520 C   0  0  0  0  0  0  0  0  0  0  0  0
   44.7220   35.2780   44.9170 C   0  0  0  0  0  0  0  0  0  0  0  0
   44.9980   34.4250   45.9730 C   0  0  0  0  0  0  0  0  0  0  0  0
   44.2470   34.5510   47.1950 N   0  0  0  0  0  0  0  0  0  0  0  0
   48.9650   31.8390   49.2070 O   0  0  0  0  0  0  0  0  0  0  0  0
   49.6710   30.7720   49.7470 C   0  0  2  0  0  0  0  0  0  0  0  0
   50.5350   31.3910   50.8960 C   0  0  0  0  0  0  0  0  0  0  0  0
   50.6840   30.2550   48.7690 C   0  0  0  0  0  0  0  0  0  0  0  0
   51.3590   29.1010   49.2970 C   0  0  0  0  0  0  0  0  0  0  0  0
   52.6580   28.7580   49.5130 C   0  0  0  0  0  0  0  0  0  0  0  0
   53.0020   27.5450   50.0480 C   0  0  0  0  0  0  0  0  0  0  0  0
   51.8970   26.6810   50.3550 C   0  0  0  0  0  0  0  0  0  0  0  0
   50.4270   27.6360   49.8690 S   0  0  0  0  0  0  0  0  0  0  0  0
   44.7837   30.0953   48.6832 H   0  0  0  0  0  0  0  0  0  0  0  0
   46.9855   30.1185   49.8739 H   0  0  0  0  0  0  0  0  0  0  0  0
   47.4573   32.5769   44.6301 H   0  0  0  0  0  0  0  0  0  0  0  0
   46.9575   34.1031   42.7468 H   0  0  0  0  0  0  0  0  0  0  0  0
   45.2356   35.8226   42.8982 H   0  0  0  0  0  0  0  0  0  0  0  0
   43.9388   36.0444   45.0125 H   0  0  0  0  0  0  0  0  0  0  0  0
   43.5148   35.2707   47.2776 H   0  0  0  0  0  0  0  0  0  0  0  0
   44.4420   33.9215   47.9866 H   0  0  0  0  0  0  0  0  0  0  0  0
   48.9725   29.9762   50.0450 H   0  0  0  0  0  0  0  0  0  0  0  0
   50.1185   31.0926   51.8694 H   0  0  0  0  0  0  0  0  0  0  0  0
   51.5699   31.0276   50.8130 H   0  0  0  0  0  0  0  0  0  0  0  0
   50.5238   32.4878   50.8130 H   0  0  0  0  0  0  0  0  0  0  0  0
   51.4234   31.0434   48.5646 H   0  0  0  0  0  0  0  0  0  0  0  0
   50.1655   29.9676   47.8424 H   0  0  0  0  0  0  0  0  0  0  0  0
   53.4519   29.4730   49.2513 H   0  0  0  0  0  0  0  0  0  0  0  0
   54.0473   27.2542   50.2291 H   0  0  0  0  0  0  0  0  0  0  0  0
   51.9316   25.6698   50.7867 H   0  0  0  0  0  0  0  0  0  0  0  0
  1  2  2  0
  3  2  1  0
  3 14  1  0
  4  3  2  0
  5  6  2  0
  5  4  1  0
  6  1  1  0
  7 12  1  0
  7  5  1  0
  8  7  2  0
  9 10  2  0
  9  8  1  0
 10 11  1  0
 11 12  2  0
 12 13  1  0
 14 15  1  0
 15 16  1  0
 17 18  1  0
 17 15  1  0
 18 19  2  0
 18 22  1  0
 19 20  1  0
 20 21  2  0
 22 21  1  0
  1 23  1  0
  2 24  1  0
  8 25  1  0
  9 26  1  0
 10 27  1  0
 11 28  1  0
 13 29  1  0
 13 30  1  0
 15 31  1  1
 16 32  1  0
 16 33  1  0
 16 34  1  0
 17 35  1  0
 17 36  1  0
 19 37  1  0
 20 38  1  0
 21 39  1  0
M  ISO  8  23  14  24  14  25  14  26  14  27  14  28  14  31   8  32   8
M  ISO  7  33   8  34   8  35   8  36   8  37  14  38  14  39  14
M  END
>  <minimizedAffinity>  (1) 
-5.7432766

>  <minimizedRMSD>  (1) 
6.01275349

$$$$
