
     RDKit          3D

 40 42  0  0  1  0  0  0  0  0999 V2000
   49.9070   29.9210   43.2580 C   0  0  0  0  0  0  0  0  0  0  0  0
   48.9220   29.5330   44.1700 C   0  0  0  0  0  0  0  0  0  0  0  0
   47.8780   30.4370   44.4430 C   0  0  0  0  0  0  0  0  0  0  0  0
   47.8670   31.6420   43.8130 N   0  0  0  0  0  0  0  0  0  0  0  0
   48.8490   31.9740   42.9320 C   0  0  0  0  0  0  0  0  0  0  0  0
   49.8600   31.1260   42.6530 N   0  0  0  0  0  0  0  0  0  0  0  0
   48.8380   33.2540   42.2530 C   0  0  0  0  0  0  0  0  0  0  0  0
   49.5490   34.2900   42.7870 C   0  0  0  0  0  0  0  0  0  0  0  0
   49.5460   35.5180   42.1500 C   0  0  0  0  0  0  0  0  0  0  0  0
   48.8590   35.7520   40.9960 C   0  0  0  0  0  0  0  0  0  0  0  0
   48.1440   34.7190   40.4530 C   0  0  0  0  0  0  0  0  0  0  0  0
   48.1420   33.4860   41.0870 C   0  0  0  0  0  0  0  0  0  0  0  0
   47.3880   32.4040   40.5110 N   0  0  0  0  0  0  0  0  0  0  0  0
   46.8890   30.1690   45.2860 O   0  0  0  0  0  0  0  0  0  0  0  0
   46.2900   28.9250   45.4360 C   0  0  2  0  0  0  0  0  0  0  0  0
   44.8020   29.1340   44.9870 C   0  0  0  0  0  0  0  0  0  0  0  0
   46.1830   28.5640   46.8850 C   0  0  0  0  0  0  0  0  0  0  0  0
   46.1420   29.8790   47.6200 C   0  0  0  0  0  0  0  0  0  0  0  0
   47.3250   30.4270   48.1260 C   0  0  0  0  0  0  0  0  0  0  0  0
   47.2370   31.6280   48.7880 C   0  0  0  0  0  0  0  0  0  0  0  0
   46.0470   32.2600   48.9460 N   0  0  0  0  0  0  0  0  0  0  0  0
   44.8970   31.7210   48.4500 C   0  0  0  0  0  0  0  0  0  0  0  0
   44.9950   30.5560   47.8100 N   0  0  0  0  0  0  0  0  0  0  0  0
   50.7342   29.2328   43.0296 H   0  0  0  0  0  0  0  0  0  0  0  0
   48.9613   28.5493   44.6606 H   0  0  0  0  0  0  0  0  0  0  0  0
   50.1199   34.1493   43.7167 H   0  0  0  0  0  0  0  0  0  0  0  0
   50.1235   36.3421   42.5943 H   0  0  0  0  0  0  0  0  0  0  0  0
   48.8787   36.7414   40.5157 H   0  0  0  0  0  0  0  0  0  0  0  0
   47.5763   34.8656   39.5223 H   0  0  0  0  0  0  0  0  0  0  0  0
   47.3769   31.4822   40.9704 H   0  0  0  0  0  0  0  0  0  0  0  0
   46.8595   32.5514   39.6393 H   0  0  0  0  0  0  0  0  0  0  0  0
   46.8590   28.1639   44.8819 H   0  0  0  0  0  0  0  0  0  0  0  0
   44.1601   29.2242   45.8757 H   0  0  0  0  0  0  0  0  0  0  0  0
   44.7260   30.0516   44.3852 H   0  0  0  0  0  0  0  0  0  0  0  0
   44.4762   28.2728   44.3852 H   0  0  0  0  0  0  0  0  0  0  0  0
   45.2640   27.9891   47.0721 H   0  0  0  0  0  0  0  0  0  0  0  0
   47.0238   27.9359   47.2145 H   0  0  0  0  0  0  0  0  0  0  0  0
   48.2905   29.9155   47.9988 H   0  0  0  0  0  0  0  0  0  0  0  0
   48.1493   32.0859   49.1978 H   0  0  0  0  0  0  0  0  0  0  0  0
   43.9280   32.2269   48.5730 H   0  0  0  0  0  0  0  0  0  0  0  0
  1  2  2  0
  2  3  1  0
  3 14  1  0
  4  3  2  0
  5  4  1  0
  6  5  2  0
  6  1  1  0
  7  8  2  0
  7  5  1  0
  9  8  1  0
 10  9  2  0
 11 10  1  0
 11 12  2  0
 12  7  1  0
 13 12  1  0
 14 15  1  0
 15 17  1  0
 16 15  1  0
 17 18  1  0
 18 23  1  0
 18 19  2  0
 19 20  1  0
 20 21  2  0
 22 21  1  0
 23 22  2  0
  1 24  1  0
  2 25  1  0
  8 26  1  0
  9 27  1  0
 10 28  1  0
 11 29  1  0
 13 30  1  0
 13 31  1  0
 15 32  1  6
 16 33  1  0
 16 34  1  0
 16 35  1  0
 17 36  1  0
 17 37  1  0
 19 38  1  0
 20 39  1  0
 22 40  1  0
M  ISO  8  24  14  25  14  26  14  27  14  28  14  29  14  32   8  33   8
M  ISO  7  34   8  35   8  36   8  37   8  38  14  39  14  40  14
M  END
>  <minimizedAffinity>  (1) 
-4.96794081

>  <minimizedRMSD>  (1) 
3.10568166

$$$$
