
     RDKit          3D

 45 49  0  0  1  0  0  0  0  0999 V2000
   44.6020   35.7540   44.9000 C   0  0  0  0  0  0  0  0  0  0  0  0
   45.1960   35.6800   43.6090 C   0  0  0  0  0  0  0  0  0  0  0  0
   45.9880   34.5930   43.3430 C   0  0  0  0  0  0  0  0  0  0  0  0
   46.1560   33.6560   44.3260 N   0  0  0  0  0  0  0  0  0  0  0  0
   45.5860   33.7590   45.5190 C   0  0  0  0  0  0  0  0  0  0  0  0
   44.8150   34.7950   45.8120 N   0  0  0  0  0  0  0  0  0  0  0  0
   45.8110   32.7200   46.5370 N   0  0  0  0  0  0  0  0  0  0  0  0
   45.1880   32.8210   47.8290 C   0  0  0  0  0  0  0  0  0  0  0  0
   46.0710   32.2880   48.9270 C   0  0  0  0  0  0  0  0  0  0  0  0
   47.4840   32.1700   48.4430 C   0  0  0  0  0  0  0  0  0  0  0  0
   47.4740   31.1040   47.3480 C   0  0  0  0  0  0  0  0  0  0  0  0
   46.6810   31.5900   46.2030 C   0  0  1  0  0  0  0  0  0  0  0  0
   45.9270   30.5140   45.4840 C   0  0  0  0  0  0  0  0  0  0  0  0
   46.0500   30.1060   44.2290 N   0  0  0  0  0  0  0  0  0  0  0  0
   45.2380   29.1360   43.9530 O   0  0  0  0  0  0  0  0  0  0  0  0
   44.5540   28.8940   45.0620 C   0  0  0  0  0  0  0  0  0  0  0  0
   44.9510   29.7280   46.0310 N   0  0  0  0  0  0  0  0  0  0  0  0
   43.3020   27.6100   45.1340 S   0  0  0  0  0  0  0  0  0  0  0  0
   41.7290   28.2810   44.6060 C   0  0  0  0  0  0  0  0  0  0  0  0
   40.6540   28.3610   45.4670 C   0  0  0  0  0  0  0  0  0  0  0  0
   39.5800   28.9020   44.8380 N   0  0  0  0  0  0  0  0  0  0  0  0
   39.9540   29.1750   43.5700 C   0  0  0  0  0  0  0  0  0  0  0  0
   39.3050   29.7260   42.4660 C   0  0  0  0  0  0  0  0  0  0  0  0
   40.0250   29.8600   41.2900 C   0  0  0  0  0  0  0  0  0  0  0  0
   41.3360   29.4770   41.1610 C   0  0  0  0  0  0  0  0  0  0  0  0
   41.9970   28.9280   42.2430 C   0  0  0  0  0  0  0  0  0  0  0  0
   41.2710   28.8000   43.4110 C   0  0  0  0  0  0  0  0  0  0  0  0
   43.9592   36.6100   45.1530 H   0  0  0  0  0  0  0  0  0  0  0  0
   45.0266   36.4630   42.8552 H   0  0  0  0  0  0  0  0  0  0  0  0
   46.4761   34.4770   42.3641 H   0  0  0  0  0  0  0  0  0  0  0  0
   44.9662   33.8787   48.0341 H   0  0  0  0  0  0  0  0  0  0  0  0
   44.2689   32.2169   47.8101 H   0  0  0  0  0  0  0  0  0  0  0  0
   46.0372   32.9744   49.7859 H   0  0  0  0  0  0  0  0  0  0  0  0
   45.7100   31.2932   49.2270 H   0  0  0  0  0  0  0  0  0  0  0  0
   47.8286   33.1318   48.0353 H   0  0  0  0  0  0  0  0  0  0  0  0
   48.1658   31.8962   49.2617 H   0  0  0  0  0  0  0  0  0  0  0  0
   48.5050   30.9022   47.0219 H   0  0  0  0  0  0  0  0  0  0  0  0
   47.0279   30.1777   47.7390 H   0  0  0  0  0  0  0  0  0  0  0  0
   47.4364   31.9629   45.4957 H   0  0  0  0  0  0  0  0  0  0  0  0
   40.6658   28.0322   46.5167 H   0  0  0  0  0  0  0  0  0  0  0  0
   38.6521   29.0726   45.2513 H   0  0  0  0  0  0  0  0  0  0  0  0
   38.2539   30.0445   42.5268 H   0  0  0  0  0  0  0  0  0  0  0  0
   39.5199   30.2956   40.4153 H   0  0  0  0  0  0  0  0  0  0  0  0
   41.8581   29.6063   40.2014 H   0  0  0  0  0  0  0  0  0  0  0  0
   43.0477   28.6092   42.1775 H   0  0  0  0  0  0  0  0  0  0  0  0
  1  6  2  0
  2  1  1  0
  3  2  2  0
  3  4  1  0
  4  5  2  0
  5  6  1  0
  5  7  1  0
  7  8  1  0
  8  9  1  0
 10  9  1  0
 11 10  1  0
 12  7  1  0
 12 11  1  0
 13 17  1  0
 13 12  1  0
 14 13  2  0
 15 14  1  0
 15 16  1  0
 16 18  1  0
 16 17  2  0
 19 18  1  0
 19 20  2  0
 21 20  1  0
 22 21  1  0
 23 22  2  0
 24 23  1  0
 25 24  2  0
 25 26  1  0
 26 27  2  0
 27 22  1  0
 27 19  1  0
  1 28  1  0
  2 29  1  0
  3 30  1  0
  8 31  1  0
  8 32  1  0
  9 33  1  0
  9 34  1  0
 10 35  1  0
 10 36  1  0
 11 37  1  0
 11 38  1  0
 12 39  1  6
 20 40  1  0
 21 41  1  0
 23 42  1  0
 24 43  1  0
 25 44  1  0
 26 45  1  0
M  ISO  8  28  14  29  14  30  14  31  13  32  13  33  13  34  13  35  13
M  ISO  8  36  13  37  13  38  13  39  13  40  14  41   9  42  14  43  14
M  ISO  2  44  14  45  14
M  END
>  <minimizedAffinity>  (1) 
-6.2733593

>  <minimizedRMSD>  (1) 
2.91898561

$$$$
