
     RDKit          3D

 39 41  0  0  1  0  0  0  0  0999 V2000
   49.6960   29.9140   43.3960 C   0  0  0  0  0  0  0  0  0  0  0  0
   48.7040   29.5830   44.3280 C   0  0  0  0  0  0  0  0  0  0  0  0
   47.7010   30.5400   44.5800 C   0  0  0  0  0  0  0  0  0  0  0  0
   47.7450   31.7240   43.9150 N   0  0  0  0  0  0  0  0  0  0  0  0
   48.7310   31.9920   43.0200 C   0  0  0  0  0  0  0  0  0  0  0  0
   49.6930   31.1040   42.7630 N   0  0  0  0  0  0  0  0  0  0  0  0
   48.7630   33.2520   42.3100 C   0  0  0  0  0  0  0  0  0  0  0  0
   49.5030   34.2830   42.8090 C   0  0  0  0  0  0  0  0  0  0  0  0
   49.5360   35.4890   42.1390 C   0  0  0  0  0  0  0  0  0  0  0  0
   48.8540   35.7040   40.9800 C   0  0  0  0  0  0  0  0  0  0  0  0
   48.1080   34.6880   40.4620 C   0  0  0  0  0  0  0  0  0  0  0  0
   48.0740   33.4750   41.1370 C   0  0  0  0  0  0  0  0  0  0  0  0
   47.2700   32.3940   40.5930 N   0  0  0  0  0  0  0  0  0  0  0  0
   46.7030   30.3450   45.4390 O   0  0  0  0  0  0  0  0  0  0  0  0
   46.1450   29.0950   45.7300 C   0  0  2  0  0  0  0  0  0  0  0  0
   44.6750   29.1760   45.2070 C   0  0  0  0  0  0  0  0  0  0  0  0
   46.0000   28.9310   47.2150 C   0  0  0  0  0  0  0  0  0  0  0  0
   46.0560   30.3200   47.7950 C   0  0  0  0  0  0  0  0  0  0  0  0
   45.0880   31.2400   48.0970 C   0  0  0  0  0  0  0  0  0  0  0  0
   45.7530   32.3360   48.6050 C   0  0  0  0  0  0  0  0  0  0  0  0
   47.0980   32.0490   48.5980 C   0  0  0  0  0  0  0  0  0  0  0  0
   47.2230   30.8450   48.1100 O   0  0  0  0  0  0  0  0  0  0  0  0
   50.4931   29.1885   43.1764 H   0  0  0  0  0  0  0  0  0  0  0  0
   48.7079   28.6116   44.8442 H   0  0  0  0  0  0  0  0  0  0  0  0
   50.0714   34.1539   43.7419 H   0  0  0  0  0  0  0  0  0  0  0  0
   50.1372   36.3094   42.5578 H   0  0  0  0  0  0  0  0  0  0  0  0
   48.9043   36.6784   40.4721 H   0  0  0  0  0  0  0  0  0  0  0  0
   47.5440   34.8261   39.5277 H   0  0  0  0  0  0  0  0  0  0  0  0
   47.2313   31.4864   41.0784 H   0  0  0  0  0  0  0  0  0  0  0  0
   46.7388   32.5353   39.7220 H   0  0  0  0  0  0  0  0  0  0  0  0
   46.7598   28.2905   45.3001 H   0  0  0  0  0  0  0  0  0  0  0  0
   43.9834   29.2141   46.0615 H   0  0  0  0  0  0  0  0  0  0  0  0
   44.5527   30.0822   44.5956 H   0  0  0  0  0  0  0  0  0  0  0  0
   44.4539   28.2887   44.5956 H   0  0  0  0  0  0  0  0  0  0  0  0
   45.0374   28.4556   47.4546 H   0  0  0  0  0  0  0  0  0  0  0  0
   46.7928   28.2902   47.6283 H   0  0  0  0  0  0  0  0  0  0  0  0
   44.0021   31.1278   47.9620 H   0  0  0  0  0  0  0  0  0  0  0  0
   45.2909   33.2715   48.9532 H   0  0  0  0  0  0  0  0  0  0  0  0
   47.9113   32.7070   48.9380 H   0  0  0  0  0  0  0  0  0  0  0  0
  1  2  2  0
  2  3  1  0
  3 14  1  0
  4  3  2  0
  5  4  1  0
  6  5  2  0
  6  1  1  0
  7  8  2  0
  7  5  1  0
  9  8  1  0
 10  9  2  0
 11 10  1  0
 11 12  2  0
 12  7  1  0
 13 12  1  0
 14 15  1  0
 15 17  1  0
 16 15  1  0
 17 18  1  0
 18 19  2  0
 18 22  1  0
 19 20  1  0
 21 20  2  0
 22 21  1  0
  1 23  1  0
  2 24  1  0
  8 25  1  0
  9 26  1  0
 10 27  1  0
 11 28  1  0
 13 29  1  0
 13 30  1  0
 15 31  1  6
 16 32  1  0
 16 33  1  0
 16 34  1  0
 17 35  1  0
 17 36  1  0
 19 37  1  0
 20 38  1  0
 21 39  1  0
M  ISO  8  23  14  24  14  25  14  26  14  27  14  28  14  31   8  32   8
M  ISO  7  33   8  34   8  35   8  36   8  37  14  38  14  39  14
M  END
>  <minimizedAffinity>  (1) 
-4.80170155

>  <minimizedRMSD>  (1) 
2.87248468

$$$$
