
     RDKit          3D

 36 37  0  0  1  0  0  0  0  0999 V2000
   50.2470   30.0950   43.1930 C   0  0  0  0  0  0  0  0  0  0  0  0
   49.2000   29.6460   44.0300 C   0  0  0  0  0  0  0  0  0  0  0  0
   48.0490   30.4760   44.2020 C   0  0  0  0  0  0  0  0  0  0  0  0
   48.0170   31.6500   43.5550 N   0  0  0  0  0  0  0  0  0  0  0  0
   49.0370   32.0590   42.7560 C   0  0  0  0  0  0  0  0  0  0  0  0
   50.1470   31.2990   42.5670 N   0  0  0  0  0  0  0  0  0  0  0  0
   48.9680   33.3270   42.0640 C   0  0  0  0  0  0  0  0  0  0  0  0
   49.5060   34.4250   42.6470 C   0  0  0  0  0  0  0  0  0  0  0  0
   49.4340   35.6430   41.9690 C   0  0  0  0  0  0  0  0  0  0  0  0
   48.8480   35.7890   40.7420 C   0  0  0  0  0  0  0  0  0  0  0  0
   48.3150   34.6870   40.1720 C   0  0  0  0  0  0  0  0  0  0  0  0
   48.3720   33.4770   40.8180 C   0  0  0  0  0  0  0  0  0  0  0  0
   47.7940   32.3110   40.1840 N   0  0  0  0  0  0  0  0  0  0  0  0
   47.1220   30.0350   44.9690 O   0  0  0  0  0  0  0  0  0  0  0  0
   46.1630   30.8170   45.6610 C   0  0  2  0  0  0  0  0  0  0  0  0
   47.0530   31.9530   46.3400 C   0  0  0  0  0  0  0  0  0  0  0  0
   45.7010   30.0250   46.8230 C   0  0  0  0  0  0  0  0  0  0  0  0
   45.1390   30.7190   47.8430 O   0  0  0  0  0  0  0  0  0  0  0  0
   45.5800   30.9640   49.0950 C   0  0  0  0  0  0  0  0  0  0  0  0
   44.9720   31.4960   50.0370 O   0  0  0  0  0  0  0  0  0  0  0  0
   46.8200   30.6730   49.6090 O   0  0  0  0  0  0  0  0  0  0  0  0
   51.1417   29.4717   43.0479 H   0  0  0  0  0  0  0  0  0  0  0  0
   49.2699   28.6741   44.5404 H   0  0  0  0  0  0  0  0  0  0  0  0
   49.9890   34.3583   43.6330 H   0  0  0  0  0  0  0  0  0  0  0  0
   49.8716   36.5320   42.4467 H   0  0  0  0  0  0  0  0  0  0  0  0
   48.8122   36.7665   40.2388 H   0  0  0  0  0  0  0  0  0  0  0  0
   47.8331   34.7591   39.1858 H   0  0  0  0  0  0  0  0  0  0  0  0
   47.8295   31.3968   40.6571 H   0  0  0  0  0  0  0  0  0  0  0  0
   47.3472   32.3956   39.2598 H   0  0  0  0  0  0  0  0  0  0  0  0
   45.3382   31.1518   45.0147 H   0  0  0  0  0  0  0  0  0  0  0  0
   46.9853   31.8666   47.4345 H   0  0  0  0  0  0  0  0  0  0  0  0
   48.1008   31.8340   46.0269 H   0  0  0  0  0  0  0  0  0  0  0  0
   46.6868   32.9419   46.0269 H   0  0  0  0  0  0  0  0  0  0  0  0
   44.9555   29.3023   46.4598 H   0  0  0  0  0  0  0  0  0  0  0  0
   46.6094   29.5709   47.2455 H   0  0  0  0  0  0  0  0  0  0  0  0
   47.0322   30.9008   50.5488 H   0  0  0  0  0  0  0  0  0  0  0  0
  1  2  2  0
  2  3  1  0
  3 14  1  0
  4  3  2  0
  5  4  1  0
  6  5  2  0
  6  1  1  0
  7  8  2  0
  7  5  1  0
  9  8  1  0
 10  9  2  0
 11 10  1  0
 11 12  2  0
 12  7  1  0
 13 12  1  0
 14 15  1  0
 15 16  1  0
 15 17  1  0
 17 18  1  0
 18 19  1  0
 19 21  1  0
 19 20  2  0
  1 22  1  0
  2 23  1  0
  8 24  1  0
  9 25  1  0
 10 26  1  0
 11 27  1  0
 13 28  1  0
 13 29  1  0
 15 30  1  6
 16 31  1  0
 16 32  1  0
 16 33  1  0
 17 34  1  0
 17 35  1  0
 21 36  1  0
M  ISO  8  22  14  23  14  24  14  25  14  26  14  27  14  30   8  31   8
M  ISO  5  32   8  33   8  34   8  35   8  36   3
M  END
>  <minimizedAffinity>  (1) 
-4.72065544

>  <minimizedRMSD>  (1) 
2.08839059

$$$$
