
     RDKit          3D

 37 38  0  0  1  0  0  0  0  0999 V2000
   48.7400   30.3470   43.6880 C   0  0  0  0  0  0  0  0  0  0  0  0
   47.6890   30.3800   44.6290 C   0  0  0  0  0  0  0  0  0  0  0  0
   46.8570   31.5410   44.6870 C   0  0  0  0  0  0  0  0  0  0  0  0
   47.1150   32.5510   43.8400 N   0  0  0  0  0  0  0  0  0  0  0  0
   48.1430   32.4810   42.9430 C   0  0  0  0  0  0  0  0  0  0  0  0
   48.9480   31.4050   42.8590 N   0  0  0  0  0  0  0  0  0  0  0  0
   48.3950   33.5850   42.0410 C   0  0  0  0  0  0  0  0  0  0  0  0
   48.9430   34.7230   42.5250 C   0  0  0  0  0  0  0  0  0  0  0  0
   49.1790   35.7850   41.6360 C   0  0  0  0  0  0  0  0  0  0  0  0
   48.8870   35.7330   40.3210 C   0  0  0  0  0  0  0  0  0  0  0  0
   48.3340   34.5830   39.8380 C   0  0  0  0  0  0  0  0  0  0  0  0
   48.0960   33.5320   40.6860 C   0  0  0  0  0  0  0  0  0  0  0  0
   47.5220   32.3180   40.1500 N   0  0  0  0  0  0  0  0  0  0  0  0
   45.9100   31.5420   45.5530 O   0  0  0  0  0  0  0  0  0  0  0  0
   45.7490   32.3970   46.6310 C   0  0  2  0  0  0  0  0  0  0  0  0
   45.4760   33.8140   45.9180 C   0  0  0  0  0  0  0  0  0  0  0  0
   47.0420   32.6200   47.2940 C   0  0  0  0  0  0  0  0  0  0  0  0
   47.0280   32.4450   48.6680 O   0  0  0  0  0  0  0  0  0  0  0  0
   46.8810   31.1910   49.2440 C   0  0  0  0  0  0  0  0  0  0  0  0
   47.9970   30.3840   49.6190 N   0  0  0  0  0  0  0  0  0  0  0  0
   45.7750   30.6430   49.4930 O   0  0  0  0  0  0  0  0  0  0  0  0
   49.3925   29.4637   43.6248 H   0  0  0  0  0  0  0  0  0  0  0  0
   47.5135   29.5296   45.3042 H   0  0  0  0  0  0  0  0  0  0  0  0
   49.1982   34.8149   43.5910 H   0  0  0  0  0  0  0  0  0  0  0  0
   49.6258   36.7080   42.0342 H   0  0  0  0  0  0  0  0  0  0  0  0
   49.0878   36.5888   39.6597 H   0  0  0  0  0  0  0  0  0  0  0  0
   48.0797   34.4992   38.7711 H   0  0  0  0  0  0  0  0  0  0  0  0
   47.3362   31.5180   40.7716 H   0  0  0  0  0  0  0  0  0  0  0  0
   47.2989   32.2531   39.1465 H   0  0  0  0  0  0  0  0  0  0  0  0
   44.9937   32.0177   47.3351 H   0  0  0  0  0  0  0  0  0  0  0  0
   45.3269   34.5879   46.6854 H   0  0  0  0  0  0  0  0  0  0  0  0
   46.3392   34.0812   45.2907 H   0  0  0  0  0  0  0  0  0  0  0  0
   44.5753   33.7413   45.2907 H   0  0  0  0  0  0  0  0  0  0  0  0
   47.7715   31.9162   46.8668 H   0  0  0  0  0  0  0  0  0  0  0  0
   47.3021   33.6743   47.1187 H   0  0  0  0  0  0  0  0  0  0  0  0
   47.8436   29.4584   50.0440 H   0  0  0  0  0  0  0  0  0  0  0  0
   48.9558   30.7273   49.4646 H   0  0  0  0  0  0  0  0  0  0  0  0
  1  2  2  0
  2  3  1  0
  3 14  1  0
  4  3  2  0
  5  4  1  0
  6  5  2  0
  6  1  1  0
  7  8  2  0
  7  5  1  0
  9  8  1  0
 10  9  2  0
 11 10  1  0
 11 12  2  0
 12  7  1  0
 13 12  1  0
 14 15  1  0
 15 17  1  0
 16 15  1  0
 17 18  1  0
 18 19  1  0
 19 21  2  0
 19 20  1  0
  1 22  1  0
  2 23  1  0
  8 24  1  0
  9 25  1  0
 10 26  1  0
 11 27  1  0
 13 28  1  0
 13 29  1  0
 15 30  1  1
 16 31  1  0
 16 32  1  0
 16 33  1  0
 17 34  1  0
 17 35  1  0
 20 36  1  0
 20 37  1  0
M  ISO  8  22  14  23  14  24  14  25  14  26  14  27  14  30   8  31   8
M  ISO  4  32   8  33   8  34   8  35   8
M  END
>  <minimizedAffinity>  (1) 
-4.78878641

>  <minimizedRMSD>  (1) 
1.83638096

$$$$
