
     RDKit          3D

 35 36  0  0  1  0  0  0  0  0999 V2000
   45.8180   30.3550   44.9400 C   0  0  0  0  0  0  0  0  0  0  0  0
   46.4750   30.2070   46.1820 C   0  0  0  0  0  0  0  0  0  0  0  0
   46.8540   31.3780   46.9090 C   0  0  0  0  0  0  0  0  0  0  0  0
   46.5650   32.5760   46.3750 N   0  0  0  0  0  0  0  0  0  0  0  0
   45.9280   32.6880   45.1710 C   0  0  0  0  0  0  0  0  0  0  0  0
   45.5550   31.5960   44.4550 N   0  0  0  0  0  0  0  0  0  0  0  0
   45.6230   33.9890   44.6240 C   0  0  0  0  0  0  0  0  0  0  0  0
   46.0830   34.3130   43.3940 C   0  0  0  0  0  0  0  0  0  0  0  0
   45.7740   35.5810   42.8820 C   0  0  0  0  0  0  0  0  0  0  0  0
   45.0390   36.5060   43.5550 C   0  0  0  0  0  0  0  0  0  0  0  0
   44.5840   36.1720   44.7880 C   0  0  0  0  0  0  0  0  0  0  0  0
   44.8730   34.9380   45.3060 C   0  0  0  0  0  0  0  0  0  0  0  0
   44.3720   34.6050   46.6320 N   0  0  0  0  0  0  0  0  0  0  0  0
   47.4470   31.2060   48.0310 O   0  0  0  0  0  0  0  0  0  0  0  0
   48.8260   30.9950   48.2320 C   0  0  2  0  0  0  0  0  0  0  0  0
   48.9140   29.4060   48.4390 C   0  0  0  0  0  0  0  0  0  0  0  0
   49.1810   31.5140   49.5720 C   0  0  0  0  0  0  0  0  0  0  0  0
   50.5180   31.6360   49.8190 O   0  0  0  0  0  0  0  0  0  0  0  0
   51.3390   32.6750   50.0620 C   0  0  0  0  0  0  0  0  0  0  0  0
   52.5240   32.6430   49.7200 O   0  0  0  0  0  0  0  0  0  0  0  0
   45.5196   29.4653   44.3660 H   0  0  0  0  0  0  0  0  0  0  0  0
   46.6916   29.2060   46.5834 H   0  0  0  0  0  0  0  0  0  0  0  0
   46.6840   33.6000   42.8105 H   0  0  0  0  0  0  0  0  0  0  0  0
   46.1467   35.8420   41.8805 H   0  0  0  0  0  0  0  0  0  0  0  0
   44.8212   37.4903   43.1149 H   0  0  0  0  0  0  0  0  0  0  0  0
   43.9856   36.8890   45.3692 H   0  0  0  0  0  0  0  0  0  0  0  0
   43.8132   35.2914   47.1588 H   0  0  0  0  0  0  0  0  0  0  0  0
   44.5764   33.6830   47.0432 H   0  0  0  0  0  0  0  0  0  0  0  0
   49.4396   31.4346   47.4318 H   0  0  0  0  0  0  0  0  0  0  0  0
   48.9267   29.1765   49.5147 H   0  0  0  0  0  0  0  0  0  0  0  0
   48.0410   28.9265   47.9721 H   0  0  0  0  0  0  0  0  0  0  0  0
   49.8346   29.0258   47.9721 H   0  0  0  0  0  0  0  0  0  0  0  0
   48.7237   32.5083   49.6825 H   0  0  0  0  0  0  0  0  0  0  0  0
   48.8070   30.7717   50.2925 H   0  0  0  0  0  0  0  0  0  0  0  0
   50.9471   33.5665   50.5735 H   0  0  0  0  0  0  0  0  0  0  0  0
  1  2  2  0
  2  3  1  0
  3 14  1  0
  4  3  2  0
  5  4  1  0
  6  1  1  0
  6  5  2  0
  7  5  1  0
  7 12  1  0
  8  7  2  0
  9  8  1  0
  9 10  2  0
 10 11  1  0
 11 12  2  0
 12 13  1  0
 14 15  1  0
 15 16  1  0
 15 17  1  0
 17 18  1  0
 18 19  1  0
 20 19  2  0
  1 21  1  0
  2 22  1  0
  8 23  1  0
  9 24  1  0
 10 25  1  0
 11 26  1  0
 13 27  1  0
 13 28  1  0
 15 29  1  6
 16 30  1  0
 16 31  1  0
 16 32  1  0
 17 33  1  0
 17 34  1  0
 19 35  1  0
M  ISO  8  21  14  22  14  23  14  24  14  25  14  26  14  29   8  30   8
M  ISO  5  31   8  32   8  33   8  34   8  35   6
M  END
>  <minimizedAffinity>  (1) 
-4.76299858

>  <minimizedRMSD>  (1) 
3.97733212

$$$$
