
     RDKit          3D

 45 49  0  0  1  0  0  0  0  0999 V2000
   44.6410   35.6640   44.8690 C   0  0  0  0  0  0  0  0  0  0  0  0
   45.1810   35.5170   43.5600 C   0  0  0  0  0  0  0  0  0  0  0  0
   45.9240   34.3940   43.3070 C   0  0  0  0  0  0  0  0  0  0  0  0
   46.1030   33.4880   44.3110 N   0  0  0  0  0  0  0  0  0  0  0  0
   45.5820   33.6580   45.5270 C   0  0  0  0  0  0  0  0  0  0  0  0
   44.8600   34.7310   45.8030 N   0  0  0  0  0  0  0  0  0  0  0  0
   45.8110   32.6600   46.5670 N   0  0  0  0  0  0  0  0  0  0  0  0
   45.2540   32.8230   47.8930 C   0  0  0  0  0  0  0  0  0  0  0  0
   46.1680   32.3160   48.9660 C   0  0  0  0  0  0  0  0  0  0  0  0
   47.5450   32.1150   48.4270 C   0  0  0  0  0  0  0  0  0  0  0  0
   47.4520   31.0070   47.3730 C   0  0  0  0  0  0  0  0  0  0  0  0
   46.6200   31.4810   46.2510 C   0  0  1  0  0  0  0  0  0  0  0  0
   45.7880   30.4120   45.6130 C   0  0  0  0  0  0  0  0  0  0  0  0
   45.5600   30.1840   44.3110 N   0  0  0  0  0  0  0  0  0  0  0  0
   44.7930   29.1460   44.1340 O   0  0  0  0  0  0  0  0  0  0  0  0
   44.5150   28.6880   45.3300 C   0  0  0  0  0  0  0  0  0  0  0  0
   45.1010   29.4300   46.2820 N   0  0  0  0  0  0  0  0  0  0  0  0
   43.4710   27.2350   45.5480 S   0  0  0  0  0  0  0  0  0  0  0  0
   44.6240   25.9230   46.0200 C   0  0  0  0  0  0  0  0  0  0  0  0
   45.3480   25.1740   45.1710 N   0  0  0  0  0  0  0  0  0  0  0  0
   46.1640   24.2350   45.6820 C   0  0  0  0  0  0  0  0  0  0  0  0
   46.2870   24.0140   47.0090 N   0  0  0  0  0  0  0  0  0  0  0  0
   45.5800   24.7470   47.8750 C   0  0  0  0  0  0  0  0  0  0  0  0
   45.6780   24.5570   49.2190 C   0  0  0  0  0  0  0  0  0  0  0  0
   44.9630   25.2930   50.1610 C   0  0  0  0  0  0  0  0  0  0  0  0
   44.1010   26.2810   49.6760 C   0  0  0  0  0  0  0  0  0  0  0  0
   43.9950   26.4830   48.3160 C   0  0  0  0  0  0  0  0  0  0  0  0
   44.7140   25.7390   47.3970 C   0  0  0  0  0  0  0  0  0  0  0  0
   44.0391   36.5514   45.1146 H   0  0  0  0  0  0  0  0  0  0  0  0
   45.0085   36.2754   42.7821 H   0  0  0  0  0  0  0  0  0  0  0  0
   46.3672   34.2263   42.3143 H   0  0  0  0  0  0  0  0  0  0  0  0
   45.0650   33.8926   48.0671 H   0  0  0  0  0  0  0  0  0  0  0  0
   44.3255   32.2350   47.9398 H   0  0  0  0  0  0  0  0  0  0  0  0
   46.2036   33.0475   49.7868 H   0  0  0  0  0  0  0  0  0  0  0  0
   45.7854   31.3524   49.3335 H   0  0  0  0  0  0  0  0  0  0  0  0
   47.9109   33.0449   47.9672 H   0  0  0  0  0  0  0  0  0  0  0  0
   48.2456   31.8385   49.2287 H   0  0  0  0  0  0  0  0  0  0  0  0
   48.4596   30.7607   47.0068 H   0  0  0  0  0  0  0  0  0  0  0  0
   47.0000   30.1080   47.8174 H   0  0  0  0  0  0  0  0  0  0  0  0
   47.3612   31.7946   45.5012 H   0  0  0  0  0  0  0  0  0  0  0  0
   46.7572   23.6201   44.9892 H   0  0  0  0  0  0  0  0  0  0  0  0
   46.3621   23.7762   49.5829 H   0  0  0  0  0  0  0  0  0  0  0  0
   45.0719   25.1050   51.2393 H   0  0  0  0  0  0  0  0  0  0  0  0
   43.5114   26.8930   50.3744 H   0  0  0  0  0  0  0  0  0  0  0  0
   43.3138   27.2644   47.9481 H   0  0  0  0  0  0  0  0  0  0  0  0
  1  6  2  0
  2  1  1  0
  3  2  2  0
  3  4  1  0
  4  5  2  0
  5  6  1  0
  5  7  1  0
  7  8  1  0
  8  9  1  0
 10  9  1  0
 11 10  1  0
 12  7  1  0
 12 11  1  0
 13 12  1  0
 13 17  1  0
 14 13  2  0
 15 14  1  0
 15 16  1  0
 16 18  1  0
 16 17  2  0
 18 19  1  0
 19 28  2  0
 20 21  2  0
 20 19  1  0
 21 22  1  0
 22 23  2  0
 23 24  1  0
 24 25  2  0
 26 25  1  0
 27 26  2  0
 28 23  1  0
 28 27  1  0
  1 29  1  0
  2 30  1  0
  3 31  1  0
  8 32  1  0
  8 33  1  0
  9 34  1  0
  9 35  1  0
 10 36  1  0
 10 37  1  0
 11 38  1  0
 11 39  1  0
 12 40  1  6
 21 41  1  0
 24 42  1  0
 25 43  1  0
 26 44  1  0
 27 45  1  0
M  ISO  8  29  14  30  14  31  14  32  13  33  13  34  13  35  13  36  13
M  ISO  8  37  13  38  13  39  13  40  13  41  14  42  14  43  14  44  14
M  ISO  1  45  14
M  END
>  <minimizedAffinity>  (1) 
-6.1109066

>  <minimizedRMSD>  (1) 
0.813163698

$$$$
