
     RDKit          3D

 41 44  0  0  1  0  0  0  0  0999 V2000
   44.4900   35.9800   44.8240 C   0  0  0  0  0  0  0  0  0  0  0  0
   45.1120   36.0250   43.5450 C   0  0  0  0  0  0  0  0  0  0  0  0
   45.9740   35.0080   43.2280 C   0  0  0  0  0  0  0  0  0  0  0  0
   46.1870   34.0160   44.1520 N   0  0  0  0  0  0  0  0  0  0  0  0
   45.5820   34.0160   45.3380 C   0  0  0  0  0  0  0  0  0  0  0  0
   44.7420   34.9800   45.6820 N   0  0  0  0  0  0  0  0  0  0  0  0
   45.8500   32.9290   46.2930 N   0  0  0  0  0  0  0  0  0  0  0  0
   45.1970   32.9060   47.5730 C   0  0  0  0  0  0  0  0  0  0  0  0
   46.0820   32.3620   48.6580 C   0  0  0  0  0  0  0  0  0  0  0  0
   47.5160   32.3680   48.1970 C   0  0  0  0  0  0  0  0  0  0  0  0
   47.5960   31.3730   47.0430 C   0  0  0  0  0  0  0  0  0  0  0  0
   46.7970   31.8780   45.9110 C   0  0  1  0  0  0  0  0  0  0  0  0
   46.1250   30.8080   45.1050 C   0  0  0  0  0  0  0  0  0  0  0  0
   46.2890   30.4960   43.8300 N   0  0  0  0  0  0  0  0  0  0  0  0
   45.5450   29.4940   43.4770 O   0  0  0  0  0  0  0  0  0  0  0  0
   44.8700   29.1340   44.5540 C   0  0  0  0  0  0  0  0  0  0  0  0
   45.2000   29.9250   45.5890 N   0  0  0  0  0  0  0  0  0  0  0  0
   43.7040   27.7630   44.5180 S   0  0  0  0  0  0  0  0  0  0  0  0
   43.7550   27.0520   46.1580 C   0  0  0  0  0  0  0  0  0  0  0  0
   42.6660   26.2240   46.4240 C   0  0  0  0  0  0  0  0  0  0  0  0
   42.5860   25.6100   47.6680 C   0  0  0  0  0  0  0  0  0  0  0  0
   43.5450   25.7900   48.6420 C   0  0  0  0  0  0  0  0  0  0  0  0
   44.6220   26.6280   48.3390 C   0  0  0  0  0  0  0  0  0  0  0  0
   44.7240   27.2490   47.1110 C   0  0  0  0  0  0  0  0  0  0  0  0
   43.7910   36.7783   45.1140 H   0  0  0  0  0  0  0  0  0  0  0  0
   44.9090   36.8436   42.8388 H   0  0  0  0  0  0  0  0  0  0  0  0
   46.4843   34.9872   42.2537 H   0  0  0  0  0  0  0  0  0  0  0  0
   44.9033   33.9324   47.8382 H   0  0  0  0  0  0  0  0  0  0  0  0
   44.3219   32.2446   47.4911 H   0  0  0  0  0  0  0  0  0  0  0  0
   45.9847   32.9883   49.5571 H   0  0  0  0  0  0  0  0  0  0  0  0
   45.7794   31.3304   48.8907 H   0  0  0  0  0  0  0  0  0  0  0  0
   47.8022   33.3733   47.8543 H   0  0  0  0  0  0  0  0  0  0  0  0
   48.2005   32.0920   49.0126 H   0  0  0  0  0  0  0  0  0  0  0  0
   48.6441   31.2558   46.7303 H   0  0  0  0  0  0  0  0  0  0  0  0
   47.2025   30.3984   47.3674 H   0  0  0  0  0  0  0  0  0  0  0  0
   47.5449   32.3368   45.2475 H   0  0  0  0  0  0  0  0  0  0  0  0
   41.8865   26.0600   45.6654 H   0  0  0  0  0  0  0  0  0  0  0  0
   41.7272   24.9573   47.8832 H   0  0  0  0  0  0  0  0  0  0  0  0
   43.4657   25.2932   49.6202 H   0  0  0  0  0  0  0  0  0  0  0  0
   45.4037   26.7957   49.0945 H   0  0  0  0  0  0  0  0  0  0  0  0
   45.5822   27.9024   46.8952 H   0  0  0  0  0  0  0  0  0  0  0  0
  1  6  2  0
  2  1  1  0
  3  2  2  0
  3  4  1  0
  4  5  2  0
  5  6  1  0
  5  7  1  0
  7  8  1  0
  8  9  1  0
 10  9  1  0
 11 10  1  0
 12  7  1  0
 12 11  1  0
 13 17  1  0
 13 12  1  0
 14 13  2  0
 15 14  1  0
 15 16  1  0
 16 17  2  0
 18 16  1  0
 18 19  1  0
 19 20  2  0
 19 24  1  0
 20 21  1  0
 21 22  2  0
 23 22  1  0
 24 23  2  0
  1 25  1  0
  2 26  1  0
  3 27  1  0
  8 28  1  0
  8 29  1  0
  9 30  1  0
  9 31  1  0
 10 32  1  0
 10 33  1  0
 11 34  1  0
 11 35  1  0
 12 36  1  6
 20 37  1  0
 21 38  1  0
 22 39  1  0
 23 40  1  0
 24 41  1  0
M  ISO  8  25  14  26  14  27  14  28  13  29  13  30  13  31  13  32  13
M  ISO  8  33  13  34  13  35  13  36  13  37  14  38  14  39  14  40  14
M  ISO  1  41  14
M  END
>  <minimizedAffinity>  (1) 
-5.96924543

>  <minimizedRMSD>  (1) 
1.62156963

$$$$
