
     RDKit          3D

 38 39  0  0  1  0  0  0  0  0999 V2000
   48.5930   30.4140   43.7970 C   0  0  0  0  0  0  0  0  0  0  0  0
   47.4990   30.4440   44.6920 C   0  0  0  0  0  0  0  0  0  0  0  0
   46.6640   31.5920   44.6820 C   0  0  0  0  0  0  0  0  0  0  0  0
   46.9560   32.5940   43.8210 N   0  0  0  0  0  0  0  0  0  0  0  0
   48.0210   32.5190   42.9780 C   0  0  0  0  0  0  0  0  0  0  0  0
   48.8370   31.4530   42.9530 N   0  0  0  0  0  0  0  0  0  0  0  0
   48.3110   33.6040   42.0690 C   0  0  0  0  0  0  0  0  0  0  0  0
   48.9050   34.7220   42.5430 C   0  0  0  0  0  0  0  0  0  0  0  0
   49.1850   35.7710   41.6570 C   0  0  0  0  0  0  0  0  0  0  0  0
   48.8900   35.7250   40.3420 C   0  0  0  0  0  0  0  0  0  0  0  0
   48.2930   34.6000   39.8680 C   0  0  0  0  0  0  0  0  0  0  0  0
   48.0130   33.5640   40.7240 C   0  0  0  0  0  0  0  0  0  0  0  0
   47.3730   32.3750   40.1950 N   0  0  0  0  0  0  0  0  0  0  0  0
   45.6550   31.6480   45.4860 O   0  0  0  0  0  0  0  0  0  0  0  0
   45.3770   32.5660   46.4620 C   0  0  2  0  0  0  0  0  0  0  0  0
   45.5210   33.9270   45.6260 C   0  0  0  0  0  0  0  0  0  0  0  0
   46.5100   32.6240   47.4430 C   0  0  1  0  0  0  0  0  0  0  0  0
   47.5080   33.4230   47.4430 O   0  0  0  0  0  0  0  0  0  0  0  0
   46.1020   32.2330   48.6710 O   0  0  0  0  0  0  0  0  0  0  0  0
   46.4480   31.0290   49.2490 C   0  0  0  0  0  0  0  0  0  0  0  0
   47.6490   30.4470   49.6300 N   0  0  0  0  0  0  0  0  0  0  0  0
   45.4720   30.2560   49.5020 O   0  0  0  0  0  0  0  0  0  0  0  0
   49.2571   29.5372   43.7827 H   0  0  0  0  0  0  0  0  0  0  0  0
   47.3011   29.6044   45.3745 H   0  0  0  0  0  0  0  0  0  0  0  0
   49.1647   34.8071   43.6085 H   0  0  0  0  0  0  0  0  0  0  0  0
   49.6689   36.6758   42.0534 H   0  0  0  0  0  0  0  0  0  0  0  0
   49.1244   36.5687   39.6762 H   0  0  0  0  0  0  0  0  0  0  0  0
   48.0349   34.5198   38.8017 H   0  0  0  0  0  0  0  0  0  0  0  0
   47.1543   31.5863   40.8204 H   0  0  0  0  0  0  0  0  0  0  0  0
   47.1371   32.3192   39.1939 H   0  0  0  0  0  0  0  0  0  0  0  0
   44.4300   32.3705   46.9863 H   0  0  0  0  0  0  0  0  0  0  0  0
   45.6108   34.7758   46.3199 H   0  0  0  0  0  0  0  0  0  0  0  0
   46.4186   33.8749   44.9923 H   0  0  0  0  0  0  0  0  0  0  0  0
   44.6323   34.0639   44.9923 H   0  0  0  0  0  0  0  0  0  0  0  0
   47.1452   31.9418   46.8589 H   0  0  0  0  0  0  0  0  0  0  0  0
   47.7656   33.6292   48.3764 H   0  0  0  0  0  0  0  0  0  0  0  0
   47.6547   29.5086   50.0546 H   0  0  0  0  0  0  0  0  0  0  0  0
   48.5346   30.9535   49.4882 H   0  0  0  0  0  0  0  0  0  0  0  0
  1  2  2  0
  3  2  1  0
  3 14  1  0
  4  3  2  0
  5  4  1  0
  6  5  2  0
  6  1  1  0
  7  8  2  0
  7  5  1  0
  9  8  1  0
 10  9  2  0
 11 10  1  0
 11 12  2  0
 12  7  1  0
 13 12  1  0
 14 15  1  0
 15 17  1  0
 16 15  1  0
 17 18  1  0
 17 19  1  0
 19 20  1  0
 20 22  2  0
 20 21  1  0
  1 23  1  0
  2 24  1  0
  8 25  1  0
  9 26  1  0
 10 27  1  0
 11 28  1  0
 13 29  1  0
 13 30  1  0
 15 31  1  1
 16 32  1  0
 16 33  1  0
 16 34  1  0
 17 35  1  6
 18 36  1  0
 21 37  1  0
 21 38  1  0
M  ISO  8  23  14  24  14  25  14  26  14  27  14  28  14  31   8  32   8
M  ISO  4  33   8  34   8  35   8  36   3
M  END
>  <minimizedAffinity>  (1) 
-4.92309427

>  <minimizedRMSD>  (1) 
0.372982413

$$$$
