
     RDKit          3D

 28 30  0  0  0  0  0  0  0  0999 V2000
   44.5010   35.9750   44.5910 C   0  0  0  0  0  0  0  0  0  0  0  0
   45.2100   35.9090   43.3820 C   0  0  0  0  0  0  0  0  0  0  0  0
   46.1410   34.8820   43.2200 C   0  0  0  0  0  0  0  0  0  0  0  0
   46.3110   33.9950   44.2500 N   0  0  0  0  0  0  0  0  0  0  0  0
   45.6160   34.0840   45.3990 C   0  0  0  0  0  0  0  0  0  0  0  0
   44.7140   35.0750   45.5630 N   0  0  0  0  0  0  0  0  0  0  0  0
   45.8730   33.1080   46.4070 N   0  0  0  0  0  0  0  0  0  0  0  0
   45.0980   33.1660   47.5060 C   0  0  0  0  0  0  0  0  0  0  0  0
   45.3430   32.2230   48.4830 C   0  0  0  0  0  0  0  0  0  0  0  0
   46.3450   31.3200   48.2500 C   0  0  0  0  0  0  0  0  0  0  0  0
   46.6270   30.3320   49.2330 N   0  0  0  0  0  0  0  0  0  0  0  0
   47.1040   31.2960   47.1260 N   0  0  0  0  0  0  0  0  0  0  0  0
   46.8640   32.2230   46.1630 C   0  0  0  0  0  0  0  0  0  0  0  0
   47.5150   32.2850   45.0830 O   0  0  0  0  0  0  0  0  0  0  0  0
   46.9000   34.7800   41.9720 C   0  0  0  0  0  0  0  0  0  0  0  0
   46.4390   34.1010   40.8650 C   0  0  0  0  0  0  0  0  0  0  0  0
   47.4260   34.2440   39.9340 N   0  0  0  0  0  0  0  0  0  0  0  0
   48.4040   34.9690   40.4810 C   0  0  0  0  0  0  0  0  0  0  0  0
   48.1050   35.3150   41.7430 N   0  0  0  0  0  0  0  0  0  0  0  0
   43.7613   36.7746   44.7438 H   0  0  0  0  0  0  0  0  0  0  0  0
   45.0369   36.6462   42.5841 H   0  0  0  0  0  0  0  0  0  0  0  0
   44.3104   33.9255   47.6193 H   0  0  0  0  0  0  0  0  0  0  0  0
   44.7560   32.1978   49.4129 H   0  0  0  0  0  0  0  0  0  0  0  0
   47.3779   29.6454   49.0725 H   0  0  0  0  0  0  0  0  0  0  0  0
   46.0804   30.3029   50.1055 H   0  0  0  0  0  0  0  0  0  0  0  0
   45.4859   33.5627   40.7561 H   0  0  0  0  0  0  0  0  0  0  0  0
   49.3346   35.2470   39.9645 H   0  0  0  0  0  0  0  0  0  0  0  0
   48.6782   35.8711   42.3934 H   0  0  0  0  0  0  0  0  0  0  0  0
  1  6  2  0
  2  1  1  0
  3  2  2  0
  3  4  1  0
  4  5  2  0
  5  6  1  0
  5  7  1  0
  7  8  1  0
  8  9  2  0
 10  9  1  0
 10 11  1  0
 12 10  2  0
 13  7  1  0
 13 12  1  0
 14 13  2  0
 15  3  1  0
 16 15  2  0
 17 18  2  0
 17 16  1  0
 18 19  1  0
 19 15  1  0
  1 20  1  0
  2 21  1  0
  8 22  1  0
  9 23  1  0
 11 24  1  0
 11 25  1  0
 16 26  1  0
 18 27  1  0
 19 28  1  0
M  ISO  7  20  14  21  14  22  14  23  14  26  14  27  14  28   9
M  END
>  <minimizedAffinity>  (1) 
-6.41587353

>  <minimizedRMSD>  (1) 
0.143450558

$$$$
