
     RDKit          3D

 27 29  0  0  0  0  0  0  0  0999 V2000
   44.4930   35.9510   44.3540 C   0  0  0  0  0  0  0  0  0  0  0  0
   45.2410   35.8890   43.1630 C   0  0  0  0  0  0  0  0  0  0  0  0
   46.2210   34.9210   43.0610 C   0  0  0  0  0  0  0  0  0  0  0  0
   46.4220   34.0660   44.1210 N   0  0  0  0  0  0  0  0  0  0  0  0
   45.6910   34.1490   45.2500 C   0  0  0  0  0  0  0  0  0  0  0  0
   44.7420   35.0750   45.3670 N   0  0  0  0  0  0  0  0  0  0  0  0
   45.9300   33.2440   46.3240 N   0  0  0  0  0  0  0  0  0  0  0  0
   46.9070   32.3260   46.2300 C   0  0  0  0  0  0  0  0  0  0  0  0
   47.2160   31.4070   47.2140 C   0  0  0  0  0  0  0  0  0  0  0  0
   46.4230   31.5060   48.3390 C   0  0  0  0  0  0  0  0  0  0  0  0
   46.6130   30.7120   49.3150 O   0  0  0  0  0  0  0  0  0  0  0  0
   45.4280   32.4110   48.4840 N   0  0  0  0  0  0  0  0  0  0  0  0
   45.2020   33.2730   47.4570 C   0  0  0  0  0  0  0  0  0  0  0  0
   44.2730   34.1340   47.5670 O   0  0  0  0  0  0  0  0  0  0  0  0
   47.0290   34.8150   41.8380 C   0  0  0  0  0  0  0  0  0  0  0  0
   46.6340   34.1160   40.7280 C   0  0  0  0  0  0  0  0  0  0  0  0
   47.6440   34.2630   39.8340 N   0  0  0  0  0  0  0  0  0  0  0  0
   48.5960   35.0240   40.4090 C   0  0  0  0  0  0  0  0  0  0  0  0
   48.2480   35.3910   41.6640 N   0  0  0  0  0  0  0  0  0  0  0  0
   43.7045   36.7097   44.4670 H   0  0  0  0  0  0  0  0  0  0  0  0
   45.0506   36.5909   42.3377 H   0  0  0  0  0  0  0  0  0  0  0  0
   47.5021   32.3049   45.3051 H   0  0  0  0  0  0  0  0  0  0  0  0
   48.0206   30.6642   47.1103 H   0  0  0  0  0  0  0  0  0  0  0  0
   44.8609   32.4459   49.3431 H   0  0  0  0  0  0  0  0  0  0  0  0
   45.6977   33.5552   40.5908 H   0  0  0  0  0  0  0  0  0  0  0  0
   49.5382   35.3110   39.9193 H   0  0  0  0  0  0  0  0  0  0  0  0
   48.7803   35.9695   42.3295 H   0  0  0  0  0  0  0  0  0  0  0  0
  1  6  2  0
  2  1  1  0
  3  2  2  0
  3  4  1  0
  4  5  2  0
  5  6  1  0
  5  7  1  0
  7 13  1  0
  8  7  1  0
  8  9  2  0
  9 10  1  0
 10 12  1  0
 10 11  2  0
 13 14  2  0
 13 12  1  0
 15  3  1  0
 16 15  2  0
 17 18  2  0
 17 16  1  0
 18 19  1  0
 19 15  1  0
  1 20  1  0
  2 21  1  0
  8 22  1  0
  9 23  1  0
 12 24  1  0
 16 25  1  0
 18 26  1  0
 19 27  1  0
M  ISO  8  20  14  21  14  22  14  23  14  24   9  25  14  26  14  27   9
M  END
>  <minimizedAffinity>  (1) 
-6.11810207

>  <minimizedRMSD>  (1) 
0.295184135

$$$$
