
     RDKit          3D

 42 46  0  0  1  0  0  0  0  0999 V2000
   44.5180   35.8360   44.8690 C   0  0  0  0  0  0  0  0  0  0  0  0
   45.1740   35.8490   43.6040 C   0  0  0  0  0  0  0  0  0  0  0  0
   46.0510   34.8230   43.3410 C   0  0  0  0  0  0  0  0  0  0  0  0
   46.2400   33.8620   44.2950 N   0  0  0  0  0  0  0  0  0  0  0  0
   45.6020   33.8910   45.4690 C   0  0  0  0  0  0  0  0  0  0  0  0
   44.7510   34.8640   45.7550 N   0  0  0  0  0  0  0  0  0  0  0  0
   45.8500   32.8330   46.4610 N   0  0  0  0  0  0  0  0  0  0  0  0
   45.1600   32.8460   47.7240 C   0  0  0  0  0  0  0  0  0  0  0  0
   46.0230   32.3380   48.8490 C   0  0  0  0  0  0  0  0  0  0  0  0
   47.4620   32.3360   48.4320 C   0  0  0  0  0  0  0  0  0  0  0  0
   47.5800   31.3070   47.3010 C   0  0  0  0  0  0  0  0  0  0  0  0
   46.8100   31.7770   46.1340 C   0  0  1  0  0  0  0  0  0  0  0  0
   46.1630   30.6790   45.3440 C   0  0  0  0  0  0  0  0  0  0  0  0
   45.8160   30.6650   44.0670 N   0  0  0  0  0  0  0  0  0  0  0  0
   45.2880   29.5220   43.7280 O   0  0  0  0  0  0  0  0  0  0  0  0
   45.2900   28.7730   44.8090 C   0  0  0  0  0  0  0  0  0  0  0  0
   45.8250   29.4490   45.8440 N   0  0  0  0  0  0  0  0  0  0  0  0
   44.6420   27.0970   44.7740 S   0  0  0  0  0  0  0  0  0  0  0  0
   46.9340   25.6230   48.9320 N   0  0  0  0  0  0  0  0  0  0  0  0
   47.7980   25.9740   47.9360 C   0  0  0  0  0  0  0  0  0  0  0  0
   47.0590   26.3560   46.8590 N   0  0  0  0  0  0  0  0  0  0  0  0
   45.7880   26.2310   47.2190 C   0  0  0  0  0  0  0  0  0  0  0  0
   44.6670   26.5000   46.4590 C   0  0  0  0  0  0  0  0  0  0  0  0
   43.4650   26.2870   47.0640 N   0  0  0  0  0  0  0  0  0  0  0  0
   43.3650   25.8370   48.3360 C   0  0  0  0  0  0  0  0  0  0  0  0
   44.4550   25.5690   49.0910 N   0  0  0  0  0  0  0  0  0  0  0  0
   45.6490   25.7730   48.5110 C   0  0  0  0  0  0  0  0  0  0  0  0
   43.8089   36.6387   45.1196 H   0  0  0  0  0  0  0  0  0  0  0  0
   44.9868   36.6459   42.8692 H   0  0  0  0  0  0  0  0  0  0  0  0
   46.5894   34.7764   42.3829 H   0  0  0  0  0  0  0  0  0  0  0  0
   44.8545   33.8782   47.9502 H   0  0  0  0  0  0  0  0  0  0  0  0
   44.2886   32.1800   47.6396 H   0  0  0  0  0  0  0  0  0  0  0  0
   45.8990   32.9903   49.7260 H   0  0  0  0  0  0  0  0  0  0  0  0
   45.7193   31.3112   49.1010 H   0  0  0  0  0  0  0  0  0  0  0  0
   47.7558   33.3331   48.0722 H   0  0  0  0  0  0  0  0  0  0  0  0
   48.1224   32.0823   49.2743 H   0  0  0  0  0  0  0  0  0  0  0  0
   48.6370   31.1884   47.0206 H   0  0  0  0  0  0  0  0  0  0  0  0
   47.1826   30.3389   47.6398 H   0  0  0  0  0  0  0  0  0  0  0  0
   47.5718   32.2214   45.4766 H   0  0  0  0  0  0  0  0  0  0  0  0
   47.2139   25.2926   49.8666 H   0  0  0  0  0  0  0  0  0  0  0  0
   48.8963   25.9521   47.9934 H   0  0  0  0  0  0  0  0  0  0  0  0
   42.3658   25.6842   48.7699 H   0  0  0  0  0  0  0  0  0  0  0  0
  1  6  2  0
  2  1  1  0
  3  2  2  0
  3  4  1  0
  4  5  2  0
  5  6  1  0
  5  7  1  0
  7  8  1  0
  8  9  1  0
 10  9  1  0
 11 10  1  0
 12  7  1  0
 12 11  1  0
 13 17  1  0
 13 12  1  0
 14 13  2  0
 15 14  1  0
 15 16  1  0
 16 17  2  0
 18 16  1  0
 18 23  1  0
 20 19  1  0
 21 22  1  0
 21 20  2  0
 22 27  2  0
 23 24  2  0
 23 22  1  0
 24 25  1  0
 25 26  2  0
 27 19  1  0
 27 26  1  0
  1 28  1  0
  2 29  1  0
  3 30  1  0
  8 31  1  0
  8 32  1  0
  9 33  1  0
  9 34  1  0
 10 35  1  0
 10 36  1  0
 11 37  1  0
 11 38  1  0
 12 39  1  6
 19 40  1  0
 20 41  1  0
 25 42  1  0
M  ISO  8  28  14  29  14  30  14  31  13  32  13  33  13  34  13  35  13
M  ISO  7  36  13  37  13  38  13  39  13  40   9  41  14  42  14
M  END
>  <minimizedAffinity>  (1) 
-5.96766853

>  <minimizedRMSD>  (1) 
2.40784001

$$$$
