
     RDKit          3D

 30 33  0  0  0  0  0  0  0  0999 V2000
   44.6080   36.0720   44.5280 C   0  0  0  0  0  0  0  0  0  0  0  0
   45.3650   36.0280   43.3500 C   0  0  0  0  0  0  0  0  0  0  0  0
   46.2080   34.9520   43.1330 C   0  0  0  0  0  0  0  0  0  0  0  0
   46.2500   33.9870   44.0940 N   0  0  0  0  0  0  0  0  0  0  0  0
   45.5190   34.0380   45.2210 C   0  0  0  0  0  0  0  0  0  0  0  0
   44.7070   35.0720   45.4320 N   0  0  0  0  0  0  0  0  0  0  0  0
   45.6400   32.9620   46.1700 N   0  0  0  0  0  0  0  0  0  0  0  0
   45.2230   33.0110   47.4700 C   0  0  0  0  0  0  0  0  0  0  0  0
   45.5080   31.8070   48.0410 N   0  0  0  0  0  0  0  0  0  0  0  0
   46.0930   31.0370   47.1000 C   0  0  0  0  0  0  0  0  0  0  0  0
   46.5910   29.7500   47.0840 C   0  0  0  0  0  0  0  0  0  0  0  0
   47.1370   29.2110   45.9780 N   0  0  0  0  0  0  0  0  0  0  0  0
   47.2180   29.9270   44.8230 C   0  0  0  0  0  0  0  0  0  0  0  0
   46.7290   31.1810   44.8450 N   0  0  0  0  0  0  0  0  0  0  0  0
   46.1800   31.7520   45.9230 C   0  0  0  0  0  0  0  0  0  0  0  0
   47.0160   34.8760   41.9100 C   0  0  0  0  0  0  0  0  0  0  0  0
   46.6100   34.1740   40.7930 C   0  0  0  0  0  0  0  0  0  0  0  0
   47.6270   34.3520   39.8940 N   0  0  0  0  0  0  0  0  0  0  0  0
   48.5710   35.1230   40.4800 C   0  0  0  0  0  0  0  0  0  0  0  0
   48.2090   35.4590   41.7310 N   0  0  0  0  0  0  0  0  0  0  0  0
   46.5470   28.9430   48.2340 N   0  0  0  0  0  0  0  0  0  0  0  0
   43.9334   36.9200   44.7172 H   0  0  0  0  0  0  0  0  0  0  0  0
   45.2905   36.8369   42.6083 H   0  0  0  0  0  0  0  0  0  0  0  0
   44.7437   33.8677   47.9663 H   0  0  0  0  0  0  0  0  0  0  0  0
   47.6632   29.4999   43.9123 H   0  0  0  0  0  0  0  0  0  0  0  0
   45.6806   33.6017   40.6563 H   0  0  0  0  0  0  0  0  0  0  0  0
   49.5096   35.4338   39.9979 H   0  0  0  0  0  0  0  0  0  0  0  0
   48.7333   36.0370   42.4032 H   0  0  0  0  0  0  0  0  0  0  0  0
   46.9230   27.9845   48.2053 H   0  0  0  0  0  0  0  0  0  0  0  0
   46.1387   29.3101   49.1055 H   0  0  0  0  0  0  0  0  0  0  0  0
  1  6  2  0
  2  1  1  0
  3  2  2  0
  3  4  1  0
  4  5  2  0
  5  6  1  0
  5  7  1  0
  7  8  1  0
  8  9  2  0
 10  9  1  0
 11 10  2  0
 11 21  1  0
 12 11  1  0
 13 14  1  0
 13 12  2  0
 14 15  2  0
 15  7  1  0
 15 10  1  0
 16  3  1  0
 17 16  2  0
 18 19  2  0
 18 17  1  0
 19 20  1  0
 20 16  1  0
  1 22  1  0
  2 23  1  0
  8 24  1  0
 13 25  1  0
 17 26  1  0
 19 27  1  0
 20 28  1  0
 21 29  1  0
 21 30  1  0
M  ISO  7  22  14  23  14  24  14  25  14  26  14  27  14  28   9
M  END
>  <minimizedAffinity>  (1) 
-6.10923767

>  <minimizedRMSD>  (1) 
0.323407173

$$$$
