
     RDKit          3D

 24 26  0  0  0  0  0  0  0  0999 V2000
   44.4350   36.1610   44.5080 C   0  0  0  0  0  0  0  0  0  0  0  0
   45.1660   36.0410   43.3060 C   0  0  0  0  0  0  0  0  0  0  0  0
   46.0650   34.9730   43.2070 C   0  0  0  0  0  0  0  0  0  0  0  0
   46.1890   34.1130   44.2590 N   0  0  0  0  0  0  0  0  0  0  0  0
   45.4690   34.2630   45.3920 C   0  0  0  0  0  0  0  0  0  0  0  0
   44.6060   35.2670   45.5200 N   0  0  0  0  0  0  0  0  0  0  0  0
   46.8530   34.8030   41.9780 C   0  0  0  0  0  0  0  0  0  0  0  0
   46.4120   34.1140   40.8810 C   0  0  0  0  0  0  0  0  0  0  0  0
   47.4420   34.2020   39.9820 N   0  0  0  0  0  0  0  0  0  0  0  0
   48.4290   34.9160   40.5510 C   0  0  0  0  0  0  0  0  0  0  0  0
   48.1000   35.3060   41.7910 N   0  0  0  0  0  0  0  0  0  0  0  0
   45.6800   33.2860   46.4550 C   0  0  0  0  0  0  0  0  0  0  0  0
   46.5880   32.2480   46.5050 C   0  0  0  0  0  0  0  0  0  0  0  0
   46.4340   31.5980   47.6750 N   0  0  0  0  0  0  0  0  0  0  0  0
   45.4380   32.2150   48.3660 C   0  0  0  0  0  0  0  0  0  0  0  0
   44.9850   33.2440   47.6110 N   0  0  0  0  0  0  0  0  0  0  0  0
   43.7186   36.9870   44.6280 H   0  0  0  0  0  0  0  0  0  0  0  0
   45.0344   36.7572   42.4816 H   0  0  0  0  0  0  0  0  0  0  0  0
   45.4464   33.6036   40.7503 H   0  0  0  0  0  0  0  0  0  0  0  0
   49.3856   35.1506   40.0612 H   0  0  0  0  0  0  0  0  0  0  0  0
   48.6643   35.8604   42.4507 H   0  0  0  0  0  0  0  0  0  0  0  0
   47.3160   31.9938   45.7205 H   0  0  0  0  0  0  0  0  0  0  0  0
   45.0665   31.9290   49.3611 H   0  0  0  0  0  0  0  0  0  0  0  0
   44.2297   33.8919   47.8769 H   0  0  0  0  0  0  0  0  0  0  0  0
  1  6  2  0
  2  1  1  0
  3  2  2  0
  3  4  1  0
  4  5  2  0
  5  6  1  0
  5 12  1  0
  7  3  1  0
  8  7  2  0
  9 10  2  0
  9  8  1  0
 10 11  1  0
 11  7  1  0
 12 13  2  0
 12 16  1  0
 13 14  1  0
 14 15  2  0
 16 15  1  0
  1 17  1  0
  2 18  1  0
  8 19  1  0
 10 20  1  0
 11 21  1  0
 13 22  1  0
 15 23  1  0
 16 24  1  0
M  ISO  8  17  14  18  14  19  14  20  14  21   9  22  14  23  14  24   9
M  END
>  <minimizedAffinity>  (1) 
-5.72314119

>  <minimizedRMSD>  (1) 
0.732577801

$$$$
