
     RDKit          3D

 26 28  0  0  0  0  0  0  0  0999 V2000
   44.4670   35.8910   44.6910 C   0  0  0  0  0  0  0  0  0  0  0  0
   45.1760   35.8290   43.4820 C   0  0  0  0  0  0  0  0  0  0  0  0
   46.1290   34.8400   43.3230 C   0  0  0  0  0  0  0  0  0  0  0  0
   46.3330   33.9710   44.3510 N   0  0  0  0  0  0  0  0  0  0  0  0
   45.6380   34.0460   45.5090 C   0  0  0  0  0  0  0  0  0  0  0  0
   44.7190   34.9950   45.6730 N   0  0  0  0  0  0  0  0  0  0  0  0
   46.8930   34.7470   42.0660 C   0  0  0  0  0  0  0  0  0  0  0  0
   46.4380   34.0840   40.9570 C   0  0  0  0  0  0  0  0  0  0  0  0
   47.4240   34.2290   40.0240 N   0  0  0  0  0  0  0  0  0  0  0  0
   48.4090   34.9550   40.5890 C   0  0  0  0  0  0  0  0  0  0  0  0
   48.1010   35.2830   41.8480 N   0  0  0  0  0  0  0  0  0  0  0  0
   45.9570   33.0500   46.5320 C   0  0  0  0  0  0  0  0  0  0  0  0
   45.1930   32.9150   47.6780 C   0  0  0  0  0  0  0  0  0  0  0  0
   45.5250   31.9620   48.6230 C   0  0  0  0  0  0  0  0  0  0  0  0
   46.6300   31.1820   48.3590 C   0  0  0  0  0  0  0  0  0  0  0  0
   47.3910   31.3010   47.2390 C   0  0  0  0  0  0  0  0  0  0  0  0
   47.0180   32.2540   46.3450 N   0  0  0  0  0  0  0  0  0  0  0  0
   43.7046   36.6697   44.8409 H   0  0  0  0  0  0  0  0  0  0  0  0
   44.9778   36.5522   42.6772 H   0  0  0  0  0  0  0  0  0  0  0  0
   45.4833   33.5496   40.8428 H   0  0  0  0  0  0  0  0  0  0  0  0
   49.3425   35.2399   40.0816 H   0  0  0  0  0  0  0  0  0  0  0  0
   48.6706   35.8306   42.5087 H   0  0  0  0  0  0  0  0  0  0  0  0
   44.3210   33.5664   47.8371 H   0  0  0  0  0  0  0  0  0  0  0  0
   44.9349   31.8325   49.5423 H   0  0  0  0  0  0  0  0  0  0  0  0
   46.9129   30.4181   49.0982 H   0  0  0  0  0  0  0  0  0  0  0  0
   48.2659   30.6574   47.0649 H   0  0  0  0  0  0  0  0  0  0  0  0
  1  6  2  0
  2  1  1  0
  3  2  2  0
  3  4  1  0
  4  5  2  0
  5  6  1  0
  5 12  1  0
  7  3  1  0
  8  7  2  0
  9 10  2  0
  9  8  1  0
 10 11  1  0
 11  7  1  0
 12 13  2  0
 13 14  1  0
 15 14  2  0
 16 15  1  0
 17 12  1  0
 17 16  2  0
  1 18  1  0
  2 19  1  0
  8 20  1  0
 10 21  1  0
 11 22  1  0
 13 23  1  0
 14 24  1  0
 15 25  1  0
 16 26  1  0
M  ISO  8  18  14  19  14  20  14  21  14  22   9  23  14  24  14  25  14
M  ISO  1  26  14
M  END
>  <minimizedAffinity>  (1) 
-5.69933271

>  <minimizedRMSD>  (1) 
0.527775526

$$$$
