
     RDKit          3D

 31 33  0  0  0  0  0  0  0  0999 V2000
   44.5300   35.5270   45.2450 C   0  0  0  0  0  0  0  0  0  0  0  0
   45.1780   35.5670   43.9980 C   0  0  0  0  0  0  0  0  0  0  0  0
   46.1150   34.5770   43.7310 C   0  0  0  0  0  0  0  0  0  0  0  0
   46.3590   33.6250   44.6760 N   0  0  0  0  0  0  0  0  0  0  0  0
   45.7180   33.6210   45.8570 C   0  0  0  0  0  0  0  0  0  0  0  0
   44.8130   34.5610   46.1400 N   0  0  0  0  0  0  0  0  0  0  0  0
   45.9900   32.6150   46.8330 N   0  0  0  0  0  0  0  0  0  0  0  0
   47.2960   31.9920   46.9300 C   0  0  0  0  0  0  0  0  0  0  0  0
   47.7970   32.2620   48.3390 C   0  0  0  0  0  0  0  0  0  0  0  0
   46.9410   31.4490   49.2100 N   0  0  0  0  0  0  0  0  0  0  0  0
   45.6080   31.9800   49.1780 C   0  0  0  0  0  0  0  0  0  0  0  0
   45.0410   32.1280   47.7850 C   0  0  0  0  0  0  0  0  0  0  0  0
   46.8190   34.5760   42.4400 C   0  0  0  0  0  0  0  0  0  0  0  0
   46.2210   34.2160   41.2530 C   0  0  0  0  0  0  0  0  0  0  0  0
   47.1880   34.3460   40.3050 N   0  0  0  0  0  0  0  0  0  0  0  0
   48.3130   34.7700   40.9290 C   0  0  0  0  0  0  0  0  0  0  0  0
   48.0990   34.9160   42.2390 N   0  0  0  0  0  0  0  0  0  0  0  0
   43.7821   36.2946   45.4930 H   0  0  0  0  0  0  0  0  0  0  0  0
   44.9516   36.3524   43.2618 H   0  0  0  0  0  0  0  0  0  0  0  0
   47.2146   30.9089   46.7563 H   0  0  0  0  0  0  0  0  0  0  0  0
   47.9877   32.3968   46.1766 H   0  0  0  0  0  0  0  0  0  0  0  0
   48.8496   31.9588   48.4396 H   0  0  0  0  0  0  0  0  0  0  0  0
   47.7506   33.3306   48.5958 H   0  0  0  0  0  0  0  0  0  0  0  0
   46.9333   30.4748   48.8756 H   0  0  0  0  0  0  0  0  0  0  0  0
   44.9528   31.3056   49.7488 H   0  0  0  0  0  0  0  0  0  0  0  0
   45.6560   32.9896   49.6121 H   0  0  0  0  0  0  0  0  0  0  0  0
   44.1961   32.8311   47.8257 H   0  0  0  0  0  0  0  0  0  0  0  0
   44.7332   31.1257   47.4522 H   0  0  0  0  0  0  0  0  0  0  0  0
   45.1807   33.8917   41.1030 H   0  0  0  0  0  0  0  0  0  0  0  0
   49.2711   34.9670   40.4258 H   0  0  0  0  0  0  0  0  0  0  0  0
   48.7781   35.2261   42.9486 H   0  0  0  0  0  0  0  0  0  0  0  0
  1  6  2  0
  2  1  1  0
  3  2  2  0
  3  4  1  0
  4  5  2  0
  5  6  1  0
  5  7  1  0
  7  8  1  0
  7 12  1  0
  8  9  1  0
  9 10  1  0
 11 10  1  0
 12 11  1  0
 13  3  1  0
 14 13  2  0
 15 16  2  0
 15 14  1  0
 16 17  1  0
 17 13  1  0
  1 18  1  0
  2 19  1  0
  8 20  1  0
  8 21  1  0
  9 22  1  0
  9 23  1  0
 10 24  1  0
 11 25  1  0
 11 26  1  0
 12 27  1  0
 12 28  1  0
 14 29  1  0
 16 30  1  0
 17 31  1  0
M  ISO  8  18  14  19  14  20  13  21  13  22  13  23  13  24   5  25  13
M  ISO  6  26  13  27  13  28  13  29  14  30  14  31   9
M  END
>  <minimizedAffinity>  (1) 
-5.75485516

>  <minimizedRMSD>  (1) 
0.686927915

$$$$
