
     RDKit          3D

 44 47  0  0  1  0  0  0  0  0999 V2000
   44.5250   35.9650   44.8690 C   0  0  0  0  0  0  0  0  0  0  0  0
   45.1030   35.9590   43.5690 C   0  0  0  0  0  0  0  0  0  0  0  0
   45.9020   34.8970   43.2340 C   0  0  0  0  0  0  0  0  0  0  0  0
   46.1040   33.9060   44.1540 N   0  0  0  0  0  0  0  0  0  0  0  0
   45.5400   33.9500   45.3710 C   0  0  0  0  0  0  0  0  0  0  0  0
   44.7640   34.9640   45.7210 N   0  0  0  0  0  0  0  0  0  0  0  0
   45.7900   32.8630   46.3310 N   0  0  0  0  0  0  0  0  0  0  0  0
   45.1870   32.8920   47.6360 C   0  0  0  0  0  0  0  0  0  0  0  0
   46.0950   32.3210   48.6930 C   0  0  0  0  0  0  0  0  0  0  0  0
   47.4940   32.2360   48.1810 C   0  0  0  0  0  0  0  0  0  0  0  0
   47.4810   31.2270   47.0320 C   0  0  0  0  0  0  0  0  0  0  0  0
   46.6650   31.7600   45.9250 C   0  0  1  0  0  0  0  0  0  0  0  0
   45.9090   30.7160   45.1650 C   0  0  0  0  0  0  0  0  0  0  0  0
   45.7930   30.5590   43.8540 N   0  0  0  0  0  0  0  0  0  0  0  0
   45.0670   29.5290   43.5480 O   0  0  0  0  0  0  0  0  0  0  0  0
   44.6910   28.9860   44.7010 C   0  0  0  0  0  0  0  0  0  0  0  0
   45.1920   29.6920   45.7320 N   0  0  0  0  0  0  0  0  0  0  0  0
   43.6600   27.5160   44.7630 S   0  0  0  0  0  0  0  0  0  0  0  0
   45.3650   25.0850   48.2190 C   0  0  0  0  0  0  0  0  0  0  0  0
   44.0750   25.5560   48.3330 C   0  0  0  0  0  0  0  0  0  0  0  0
   43.4800   26.3000   47.3350 C   0  0  0  0  0  0  0  0  0  0  0  0
   44.1960   26.5820   46.1880 C   0  0  0  0  0  0  0  0  0  0  0  0
   45.5040   26.1000   46.0820 C   0  0  0  0  0  0  0  0  0  0  0  0
   46.0990   25.3550   47.0800 C   0  0  0  0  0  0  0  0  0  0  0  0
   46.0650   24.1430   49.5270 S   0  0  0  0  0  0  0  0  0  0  0  0
   47.5310   24.4100   49.6570 O   0  0  0  0  0  0  0  0  0  0  0  0
   45.3700   24.5440   50.8180 O   0  0  0  0  0  0  0  0  0  0  0  0
   43.8769   36.7995   45.1748 H   0  0  0  0  0  0  0  0  0  0  0  0
   44.9154   36.7773   42.8583 H   0  0  0  0  0  0  0  0  0  0  0  0
   46.3729   34.8429   42.2414 H   0  0  0  0  0  0  0  0  0  0  0  0
   44.9529   33.9350   47.8954 H   0  0  0  0  0  0  0  0  0  0  0  0
   44.2770   32.2750   47.6022 H   0  0  0  0  0  0  0  0  0  0  0  0
   46.0720   32.9701   49.5808 H   0  0  0  0  0  0  0  0  0  0  0  0
   45.7477   31.3110   48.9564 H   0  0  0  0  0  0  0  0  0  0  0  0
   47.8251   33.2200   47.8176 H   0  0  0  0  0  0  0  0  0  0  0  0
   48.1875   31.9223   48.9751 H   0  0  0  0  0  0  0  0  0  0  0  0
   48.5095   31.0561   46.6813 H   0  0  0  0  0  0  0  0  0  0  0  0
   47.0524   30.2760   47.3813 H   0  0  0  0  0  0  0  0  0  0  0  0
   47.4055   32.1730   45.2242 H   0  0  0  0  0  0  0  0  0  0  0  0
   43.5033   25.3324   49.2458 H   0  0  0  0  0  0  0  0  0  0  0  0
   42.4485   26.6640   47.4513 H   0  0  0  0  0  0  0  0  0  0  0  0
   46.0792   26.3223   45.1711 H   0  0  0  0  0  0  0  0  0  0  0  0
   47.1296   24.9862   46.9715 H   0  0  0  0  0  0  0  0  0  0  0  0
   45.8952   22.8090   49.2653 H   0  0  0  0  0  0  0  0  0  0  0  0
  1  6  2  0
  2  1  1  0
  3  2  2  0
  3  4  1  0
  4  5  2  0
  5  6  1  0
  5  7  1  0
  7  8  1  0
  8  9  1  0
 10  9  1  0
 11 10  1  0
 12  7  1  0
 12 11  1  0
 13 17  1  0
 13 12  1  0
 14 13  2  0
 15 14  1  0
 15 16  1  0
 16 18  1  0
 16 17  2  0
 18 22  1  0
 19 20  2  0
 19 25  1  0
 21 20  1  0
 22 21  2  0
 23 22  1  0
 23 24  2  0
 24 19  1  0
 25 26  2  0
 25 27  2  0
  1 28  1  0
  2 29  1  0
  3 30  1  0
  8 31  1  0
  8 32  1  0
  9 33  1  0
  9 34  1  0
 10 35  1  0
 10 36  1  0
 11 37  1  0
 11 38  1  0
 12 39  1  6
 20 40  1  0
 21 41  1  0
 23 42  1  0
 24 43  1  0
 25 44  1  0
M  ISO  8  28  14  29  14  30  14  31  13  32  13  33  13  34  13  35  13
M  ISO  8  36  13  37  13  38  13  39  13  40  14  41  14  42  14  43  14
M  ISO  1  44  11
M  END
>  <minimizedAffinity>  (1) 
-5.91992903

>  <minimizedRMSD>  (1) 
2.13522339

$$$$
