
     RDKit          3D

 22 24  0  0  0  0  0  0  0  0999 V2000
   44.4610   35.9930   44.5910 C   0  0  0  0  0  0  0  0  0  0  0  0
   45.1840   35.9080   43.3920 C   0  0  0  0  0  0  0  0  0  0  0  0
   46.1180   34.8960   43.2560 C   0  0  0  0  0  0  0  0  0  0  0  0
   46.2920   34.0330   44.2900 N   0  0  0  0  0  0  0  0  0  0  0  0
   45.5840   34.1350   45.4350 C   0  0  0  0  0  0  0  0  0  0  0  0
   44.6790   35.1020   45.5850 N   0  0  0  0  0  0  0  0  0  0  0  0
   46.8980   34.7770   42.0070 C   0  0  0  0  0  0  0  0  0  0  0  0
   46.4330   34.0980   40.9040 C   0  0  0  0  0  0  0  0  0  0  0  0
   47.4470   34.2280   39.9850 N   0  0  0  0  0  0  0  0  0  0  0  0
   48.4270   34.9420   40.5450 C   0  0  0  0  0  0  0  0  0  0  0  0
   48.1150   35.2970   41.8000 N   0  0  0  0  0  0  0  0  0  0  0  0
   45.9070   33.1130   46.4400 C   0  0  0  0  0  0  0  0  0  0  0  0
   46.9290   32.2370   46.4330 N   0  0  0  0  0  0  0  0  0  0  0  0
   46.8730   31.4960   47.5000 O   0  0  0  0  0  0  0  0  0  0  0  0
   45.8640   31.8190   48.2430 C   0  0  0  0  0  0  0  0  0  0  0  0
   45.2430   32.8360   47.5920 N   0  0  0  0  0  0  0  0  0  0  0  0
   43.7128   36.7884   44.7236 H   0  0  0  0  0  0  0  0  0  0  0  0
   45.0126   36.6288   42.5790 H   0  0  0  0  0  0  0  0  0  0  0  0
   45.4734   33.5734   40.7854 H   0  0  0  0  0  0  0  0  0  0  0  0
   49.3690   35.2051   40.0415 H   0  0  0  0  0  0  0  0  0  0  0  0
   48.6846   35.8473   42.4585 H   0  0  0  0  0  0  0  0  0  0  0  0
   45.5708   31.3649   49.2011 H   0  0  0  0  0  0  0  0  0  0  0  0
  1  6  2  0
  2  1  1  0
  3  2  2  0
  3  4  1  0
  4  5  2  0
  5  6  1  0
  5 12  1  0
  7  3  1  0
  8  7  2  0
  9 10  2  0
  9  8  1  0
 10 11  1  0
 11  7  1  0
 12 16  1  0
 13 12  2  0
 13 14  1  0
 14 15  1  0
 16 15  2  0
  1 17  1  0
  2 18  1  0
  8 19  1  0
 10 20  1  0
 11 21  1  0
 15 22  1  0
M  ISO  6  17  14  18  14  19  14  20  14  21   9  22  14
M  END
>  <minimizedAffinity>  (1) 
-5.22751904

>  <minimizedRMSD>  (1) 
0.182921901

$$$$
