
     RDKit          3D

 30 32  0  0  0  0  0  0  0  0999 V2000
   44.6060   35.8220   44.8680 C   0  0  0  0  0  0  0  0  0  0  0  0
   45.3250   35.8390   43.6660 C   0  0  0  0  0  0  0  0  0  0  0  0
   46.1610   34.7700   43.3890 C   0  0  0  0  0  0  0  0  0  0  0  0
   46.2500   33.7550   44.2900 N   0  0  0  0  0  0  0  0  0  0  0  0
   45.5520   33.7510   45.4450 C   0  0  0  0  0  0  0  0  0  0  0  0
   44.7330   34.7810   45.7330 N   0  0  0  0  0  0  0  0  0  0  0  0
   46.9310   34.7540   42.1360 C   0  0  0  0  0  0  0  0  0  0  0  0
   46.4940   34.1250   40.9850 C   0  0  0  0  0  0  0  0  0  0  0  0
   47.4800   34.3400   40.0710 N   0  0  0  0  0  0  0  0  0  0  0  0
   48.4530   35.0640   40.6690 C   0  0  0  0  0  0  0  0  0  0  0  0
   48.1340   35.3290   41.9400 N   0  0  0  0  0  0  0  0  0  0  0  0
   45.6970   32.6050   46.3870 C   0  0  0  0  0  0  0  0  0  0  0  0
   47.1530   32.2800   46.5630 C   0  0  0  0  0  0  0  0  0  0  0  0
   47.4870   32.4040   48.0240 C   0  0  0  0  0  0  0  0  0  0  0  0
   46.1570   32.2800   48.7020 C   0  0  0  0  0  0  0  0  0  0  0  0
   45.1560   32.9270   47.7530 C   0  0  0  0  0  0  0  0  0  0  0  0
   43.9336   36.6572   45.1138 H   0  0  0  0  0  0  0  0  0  0  0  0
   45.2284   36.6782   42.9615 H   0  0  0  0  0  0  0  0  0  0  0  0
   45.5546   33.5715   40.8394 H   0  0  0  0  0  0  0  0  0  0  0  0
   49.3809   35.3905   40.1766 H   0  0  0  0  0  0  0  0  0  0  0  0
   48.6903   35.8605   42.6249 H   0  0  0  0  0  0  0  0  0  0  0  0
   45.1348   31.7638   45.9553 H   0  0  0  0  0  0  0  0  0  0  0  0
   47.3495   31.2529   46.2216 H   0  0  0  0  0  0  0  0  0  0  0  0
   47.7715   32.9707   45.9711 H   0  0  0  0  0  0  0  0  0  0  0  0
   48.1660   31.5988   48.3412 H   0  0  0  0  0  0  0  0  0  0  0  0
   48.0035   33.3446   48.2657 H   0  0  0  0  0  0  0  0  0  0  0  0
   45.9049   31.2216   48.8638 H   0  0  0  0  0  0  0  0  0  0  0  0
   46.1552   32.7639   49.6898 H   0  0  0  0  0  0  0  0  0  0  0  0
   45.1128   34.0147   47.9110 H   0  0  0  0  0  0  0  0  0  0  0  0
   44.1299   32.5595   47.9017 H   0  0  0  0  0  0  0  0  0  0  0  0
  1  6  2  0
  2  1  1  0
  3  2  2  0
  3  4  1  0
  4  5  2  0
  5  6  1  0
  5 12  1  0
  7  3  1  0
  8  7  2  0
  9 10  2  0
  9  8  1  0
 10 11  1  0
 11  7  1  0
 12 13  1  0
 12 16  1  0
 13 14  1  0
 14 15  1  0
 16 15  1  0
  1 17  1  0
  2 18  1  0
  8 19  1  0
 10 20  1  0
 11 21  1  0
 12 22  1  0
 13 23  1  0
 13 24  1  0
 14 25  1  0
 14 26  1  0
 15 27  1  0
 15 28  1  0
 16 29  1  0
 16 30  1  0
M  ISO  8  17  14  18  14  19  14  20  14  21   9  22  13  23  13  24  13
M  ISO  6  25  13  26  13  27  13  28  13  29  13  30  13
M  END
>  <minimizedAffinity>  (1) 
-5.28699827

>  <minimizedRMSD>  (1) 
0.754441619

$$$$
