
     RDKit          3D

 23 25  0  0  0  0  0  0  0  0999 V2000
   44.4470   36.0690   44.5480 C   0  0  0  0  0  0  0  0  0  0  0  0
   45.1810   35.9790   43.3560 C   0  0  0  0  0  0  0  0  0  0  0  0
   46.0970   34.9430   43.2320 C   0  0  0  0  0  0  0  0  0  0  0  0
   46.2280   34.0770   44.2750 N   0  0  0  0  0  0  0  0  0  0  0  0
   45.5130   34.1840   45.4060 C   0  0  0  0  0  0  0  0  0  0  0  0
   44.6290   35.1720   45.5440 N   0  0  0  0  0  0  0  0  0  0  0  0
   45.7380   33.2160   46.4290 N   0  0  0  0  0  0  0  0  0  0  0  0
   46.6520   32.2050   46.3600 C   0  0  0  0  0  0  0  0  0  0  0  0
   46.6340   31.4630   47.4630 N   0  0  0  0  0  0  0  0  0  0  0  0
   45.6860   32.0130   48.2570 C   0  0  0  0  0  0  0  0  0  0  0  0
   45.1510   33.0780   47.6120 N   0  0  0  0  0  0  0  0  0  0  0  0
   46.8920   34.8030   42.0030 C   0  0  0  0  0  0  0  0  0  0  0  0
   46.4330   34.1120   40.8910 C   0  0  0  0  0  0  0  0  0  0  0  0
   47.4440   34.2110   39.9810 N   0  0  0  0  0  0  0  0  0  0  0  0
   48.4350   34.9280   40.5520 C   0  0  0  0  0  0  0  0  0  0  0  0
   48.1160   35.3040   41.8020 N   0  0  0  0  0  0  0  0  0  0  0  0
   43.7140   36.8794   44.6744 H   0  0  0  0  0  0  0  0  0  0  0  0
   45.0353   36.7070   42.5443 H   0  0  0  0  0  0  0  0  0  0  0  0
   47.3176   32.0270   45.5025 H   0  0  0  0  0  0  0  0  0  0  0  0
   45.3984   31.6559   49.2569 H   0  0  0  0  0  0  0  0  0  0  0  0
   45.4679   33.5983   40.7701 H   0  0  0  0  0  0  0  0  0  0  0  0
   49.3854   35.1739   40.0558 H   0  0  0  0  0  0  0  0  0  0  0  0
   48.6867   35.8551   42.4589 H   0  0  0  0  0  0  0  0  0  0  0  0
  1  6  2  0
  2  1  1  0
  3  2  2  0
  3  4  1  0
  4  5  2  0
  5  6  1  0
  5  7  1  0
  7 11  1  0
  8  7  1  0
  8  9  2  0
  9 10  1  0
 11 10  2  0
 12  3  1  0
 13 12  2  0
 14 15  2  0
 14 13  1  0
 15 16  1  0
 16 12  1  0
  1 17  1  0
  2 18  1  0
  8 19  1  0
 10 20  1  0
 13 21  1  0
 15 22  1  0
 16 23  1  0
M  ISO  7  17  14  18  14  19  14  20  14  21  14  22  14  23   9
M  END
>  <minimizedAffinity>  (1) 
-5.52744198

>  <minimizedRMSD>  (1) 
0.126240715

$$$$
