
     RDKit          3D

 24 26  0  0  0  0  0  0  0  0999 V2000
   44.4760   35.8820   44.6630 C   0  0  0  0  0  0  0  0  0  0  0  0
   45.1860   35.8450   43.4440 C   0  0  0  0  0  0  0  0  0  0  0  0
   46.1450   34.8590   43.2960 C   0  0  0  0  0  0  0  0  0  0  0  0
   46.3480   33.9910   44.3230 N   0  0  0  0  0  0  0  0  0  0  0  0
   45.6620   34.0420   45.4790 C   0  0  0  0  0  0  0  0  0  0  0  0
   44.7340   34.9830   45.6400 N   0  0  0  0  0  0  0  0  0  0  0  0
   45.9320   33.0970   46.5080 N   0  0  0  0  0  0  0  0  0  0  0  0
   45.2060   32.9280   47.6370 C   0  0  0  0  0  0  0  0  0  0  0  0
   45.7880   31.9190   48.3770 C   0  0  0  0  0  0  0  0  0  0  0  0
   46.8530   31.4990   47.6820 N   0  0  0  0  0  0  0  0  0  0  0  0
   46.9380   32.2170   46.5490 C   0  0  0  0  0  0  0  0  0  0  0  0
   46.9140   34.7740   42.0460 C   0  0  0  0  0  0  0  0  0  0  0  0
   46.4490   34.1070   40.9210 C   0  0  0  0  0  0  0  0  0  0  0  0
   47.4370   34.2570   39.9910 N   0  0  0  0  0  0  0  0  0  0  0  0
   48.4270   34.9820   40.5640 C   0  0  0  0  0  0  0  0  0  0  0  0
   48.1210   35.3060   41.8210 N   0  0  0  0  0  0  0  0  0  0  0  0
   43.7045   36.6502   44.8203 H   0  0  0  0  0  0  0  0  0  0  0  0
   44.9848   36.5716   42.6430 H   0  0  0  0  0  0  0  0  0  0  0  0
   44.3070   33.4967   47.9168 H   0  0  0  0  0  0  0  0  0  0  0  0
   45.4441   31.5345   49.3486 H   0  0  0  0  0  0  0  0  0  0  0  0
   47.7129   32.0993   45.7772 H   0  0  0  0  0  0  0  0  0  0  0  0
   45.4937   33.5743   40.8044 H   0  0  0  0  0  0  0  0  0  0  0  0
   49.3616   35.2665   40.0586 H   0  0  0  0  0  0  0  0  0  0  0  0
   48.6939   35.8516   42.4806 H   0  0  0  0  0  0  0  0  0  0  0  0
  1  6  2  0
  2  1  1  0
  3  2  2  0
  3  4  1  0
  4  5  2  0
  5  6  1  0
  5  7  1  0
  7 11  1  0
  7  8  1  0
  8  9  2  0
 10  9  1  0
 11 10  2  0
 12  3  1  0
 13 12  2  0
 14 15  2  0
 14 13  1  0
 15 16  1  0
 16 12  1  0
  1 17  1  0
  2 18  1  0
  8 19  1  0
  9 20  1  0
 11 21  1  0
 13 22  1  0
 15 23  1  0
 16 24  1  0
M  ISO  8  17  14  18  14  19  14  20  14  21  14  22  14  23  14  24   9
M  END
>  <minimizedAffinity>  (1) 
-5.49012041

>  <minimizedRMSD>  (1) 
0.207697049

$$$$
