
     RDKit          3D

 23 25  0  0  0  0  0  0  0  0999 V2000
   44.5160   35.8220   44.6890 C   0  0  0  0  0  0  0  0  0  0  0  0
   45.2220   35.7900   43.4810 C   0  0  0  0  0  0  0  0  0  0  0  0
   46.1870   34.8080   43.2910 C   0  0  0  0  0  0  0  0  0  0  0  0
   46.4060   33.9170   44.2890 N   0  0  0  0  0  0  0  0  0  0  0  0
   45.7100   33.9680   45.4480 C   0  0  0  0  0  0  0  0  0  0  0  0
   44.7810   34.9080   45.6390 N   0  0  0  0  0  0  0  0  0  0  0  0
   46.9400   34.7560   42.0320 C   0  0  0  0  0  0  0  0  0  0  0  0
   46.4910   34.1130   40.9000 C   0  0  0  0  0  0  0  0  0  0  0  0
   47.4740   34.3010   39.9700 N   0  0  0  0  0  0  0  0  0  0  0  0
   48.4550   35.0280   40.5500 C   0  0  0  0  0  0  0  0  0  0  0  0
   48.1510   35.3200   41.8150 N   0  0  0  0  0  0  0  0  0  0  0  0
   45.9580   32.9870   46.5330 C   0  0  0  0  0  0  0  0  0  0  0  0
   45.2070   32.7960   47.7740 C   0  0  0  0  0  0  0  0  0  0  0  0
   46.1620   31.4560   48.4620 S   0  0  0  0  0  0  0  0  0  0  0  0
   47.3390   31.3280   47.1300 C   0  0  0  0  0  0  0  0  0  0  0  0
   47.0270   32.2400   46.2270 N   0  0  0  0  0  0  0  0  0  0  0  0
   43.7483   36.5909   44.8604 H   0  0  0  0  0  0  0  0  0  0  0  0
   45.0163   36.5306   42.6941 H   0  0  0  0  0  0  0  0  0  0  0  0
   45.5452   33.5661   40.7722 H   0  0  0  0  0  0  0  0  0  0  0  0
   49.3818   35.3378   40.0450 H   0  0  0  0  0  0  0  0  0  0  0  0
   48.7174   35.8600   42.4847 H   0  0  0  0  0  0  0  0  0  0  0  0
   44.3220   33.3199   48.1643 H   0  0  0  0  0  0  0  0  0  0  0  0
   48.1758   30.6165   47.0705 H   0  0  0  0  0  0  0  0  0  0  0  0
  1  6  2  0
  2  1  1  0
  3  2  2  0
  3  4  1  0
  4  5  2  0
  5  6  1  0
  5 12  1  0
  7  3  1  0
  8  7  2  0
  9 10  2  0
  9  8  1  0
 10 11  1  0
 11  7  1  0
 12 13  2  0
 13 14  1  0
 15 14  1  0
 16 12  1  0
 16 15  2  0
  1 17  1  0
  2 18  1  0
  8 19  1  0
 10 20  1  0
 11 21  1  0
 13 22  1  0
 15 23  1  0
M  ISO  7  17  14  18  14  19  14  20  14  21   9  22  14  23  14
M  END
>  <minimizedAffinity>  (1) 
-5.20715523

>  <minimizedRMSD>  (1) 
0.319755405

$$$$
