
     RDKit          3D

 24 26  0  0  0  0  0  0  0  0999 V2000
   44.4940   36.0700   44.6450 C   0  0  0  0  0  0  0  0  0  0  0  0
   45.2240   35.9800   43.4400 C   0  0  0  0  0  0  0  0  0  0  0  0
   46.0900   34.9010   43.2860 C   0  0  0  0  0  0  0  0  0  0  0  0
   46.1830   34.0020   44.2980 N   0  0  0  0  0  0  0  0  0  0  0  0
   45.4790   34.1010   45.4420 C   0  0  0  0  0  0  0  0  0  0  0  0
   44.6370   35.1410   45.6060 N   0  0  0  0  0  0  0  0  0  0  0  0
   46.8630   34.7760   42.0490 C   0  0  0  0  0  0  0  0  0  0  0  0
   46.3990   34.0980   40.9370 C   0  0  0  0  0  0  0  0  0  0  0  0
   47.4080   34.2200   40.0210 N   0  0  0  0  0  0  0  0  0  0  0  0
   48.4000   34.9330   40.5830 C   0  0  0  0  0  0  0  0  0  0  0  0
   48.0990   35.2980   41.8420 N   0  0  0  0  0  0  0  0  0  0  0  0
   45.6650   33.0560   46.4760 C   0  0  0  0  0  0  0  0  0  0  0  0
   46.1860   31.7580   45.9410 C   0  0  0  0  0  0  0  0  0  0  0  0
   46.9900   32.6130   46.9100 C   0  0  0  0  0  0  0  0  0  0  0  0
   43.8004   36.9097   44.7993 H   0  0  0  0  0  0  0  0  0  0  0  0
   45.1123   36.7368   42.6496 H   0  0  0  0  0  0  0  0  0  0  0  0
   45.4370   33.5784   40.8161 H   0  0  0  0  0  0  0  0  0  0  0  0
   49.3422   35.1867   40.0752 H   0  0  0  0  0  0  0  0  0  0  0  0
   48.6735   35.8467   42.4976 H   0  0  0  0  0  0  0  0  0  0  0  0
   44.8011   33.4116   47.0568 H   0  0  0  0  0  0  0  0  0  0  0  0
   45.7484   30.8048   46.2725 H   0  0  0  0  0  0  0  0  0  0  0  0
   46.3534   31.3253   44.9436 H   0  0  0  0  0  0  0  0  0  0  0  0
   47.8884   33.1427   46.5603 H   0  0  0  0  0  0  0  0  0  0  0  0
   47.4706   32.4397   47.8842 H   0  0  0  0  0  0  0  0  0  0  0  0
  1  6  2  0
  2  1  1  0
  3  2  2  0
  3  4  1  0
  4  5  2  0
  5  6  1  0
  5 12  1  0
  7  3  1  0
  8  7  2  0
  9 10  2  0
  9  8  1  0
 10 11  1  0
 11  7  1  0
 12 14  1  0
 13 12  1  0
 13 14  1  0
  1 15  1  0
  2 16  1  0
  8 17  1  0
 10 18  1  0
 11 19  1  0
 12 20  1  0
 13 21  1  0
 13 22  1  0
 14 23  1  0
 14 24  1  0
M  ISO  8  15  14  16  14  17  14  18  14  19   9  20  13  21  13  22  13
M  ISO  2  23  13  24  13
M  END
>  <minimizedAffinity>  (1) 
-4.73273325

>  <minimizedRMSD>  (1) 
0.110907711

$$$$
