
     RDKit          3D

 18 19  0  0  0  0  0  0  0  0999 V2000
   44.5110   36.1600   44.5830 C   0  0  0  0  0  0  0  0  0  0  0  0
   45.2550   36.0660   43.3970 C   0  0  0  0  0  0  0  0  0  0  0  0
   46.0720   34.9620   43.2290 C   0  0  0  0  0  0  0  0  0  0  0  0
   46.1200   34.0160   44.2160 N   0  0  0  0  0  0  0  0  0  0  0  0
   45.3880   34.1350   45.3500 C   0  0  0  0  0  0  0  0  0  0  0  0
   44.5940   35.1960   45.5280 N   0  0  0  0  0  0  0  0  0  0  0  0
   46.8650   34.8190   42.0090 C   0  0  0  0  0  0  0  0  0  0  0  0
   46.4140   34.1260   40.8940 C   0  0  0  0  0  0  0  0  0  0  0  0
   47.4280   34.2200   39.9810 N   0  0  0  0  0  0  0  0  0  0  0  0
   48.4170   34.9360   40.5500 C   0  0  0  0  0  0  0  0  0  0  0  0
   48.0890   35.3110   41.7900 N   0  0  0  0  0  0  0  0  0  0  0  0
   45.4460   33.1620   46.3500 O   0  0  0  0  0  0  0  0  0  0  0  0
   43.8535   37.0267   44.7458 H   0  0  0  0  0  0  0  0  0  0  0  0
   45.1907   36.8463   42.6243 H   0  0  0  0  0  0  0  0  0  0  0  0
   45.4492   33.6121   40.7712 H   0  0  0  0  0  0  0  0  0  0  0  0
   49.3702   35.1801   40.0582 H   0  0  0  0  0  0  0  0  0  0  0  0
   48.6614   35.8651   42.4429 H   0  0  0  0  0  0  0  0  0  0  0  0
   44.9045   33.2645   47.1724 H   0  0  0  0  0  0  0  0  0  0  0  0
  1  6  2  0
  2  1  1  0
  3  2  2  0
  3  4  1  0
  4  5  2  0
  5  6  1  0
  5 12  1  0
  7  3  1  0
  8  7  2  0
  9 10  2  0
  9  8  1  0
 10 11  1  0
 11  7  1  0
  1 13  1  0
  2 14  1  0
  8 15  1  0
 10 16  1  0
 11 17  1  0
 12 18  1  0
M  ISO  6  13  14  14  14  15  14  16  14  17   9  18   3
M  END
>  <minimizedAffinity>  (1) 
-4.46537304

>  <minimizedRMSD>  (1) 
0.124053262

$$$$
