
     RDKit          3D

 20 21  0  0  0  0  0  0  0  0999 V2000
   44.4930   35.9800   44.5730 C   0  0  0  0  0  0  0  0  0  0  0  0
   45.2110   35.9190   43.3620 C   0  0  0  0  0  0  0  0  0  0  0  0
   46.1460   34.8810   43.2230 C   0  0  0  0  0  0  0  0  0  0  0  0
   46.3280   33.9850   44.2330 N   0  0  0  0  0  0  0  0  0  0  0  0
   45.6120   34.0890   45.3790 C   0  0  0  0  0  0  0  0  0  0  0  0
   44.7170   35.0580   45.5490 N   0  0  0  0  0  0  0  0  0  0  0  0
   46.9200   34.7830   41.9720 C   0  0  0  0  0  0  0  0  0  0  0  0
   46.4870   34.1160   40.8600 C   0  0  0  0  0  0  0  0  0  0  0  0
   47.4810   34.2660   39.9440 N   0  0  0  0  0  0  0  0  0  0  0  0
   48.4650   35.0040   40.5180 C   0  0  0  0  0  0  0  0  0  0  0  0
   48.1450   35.3380   41.7710 N   0  0  0  0  0  0  0  0  0  0  0  0
   45.8570   33.0800   46.4440 C   0  0  0  0  0  0  0  0  0  0  0  0
   43.7493   36.7751   44.7301 H   0  0  0  0  0  0  0  0  0  0  0  0
   45.0459   36.6533   42.5598 H   0  0  0  0  0  0  0  0  0  0  0  0
   45.5381   33.5742   40.7333 H   0  0  0  0  0  0  0  0  0  0  0  0
   49.4020   35.2893   40.0174 H   0  0  0  0  0  0  0  0  0  0  0  0
   48.7020   35.8925   42.4367 H   0  0  0  0  0  0  0  0  0  0  0  0
   45.7422   33.5529   47.4305 H   0  0  0  0  0  0  0  0  0  0  0  0
   45.1322   32.2585   46.3446 H   0  0  0  0  0  0  0  0  0  0  0  0
   46.8778   32.6824   46.3446 H   0  0  0  0  0  0  0  0  0  0  0  0
  1  6  2  0
  2  1  1  0
  3  2  2  0
  3  4  1  0
  4  5  2  0
  5  6  1  0
  5 12  1  0
  7  3  1  0
  8  7  2  0
  9 10  2  0
  9  8  1  0
 10 11  1  0
 11  7  1  0
  1 13  1  0
  2 14  1  0
  8 15  1  0
 10 16  1  0
 11 17  1  0
 12 18  1  0
 12 19  1  0
 12 20  1  0
M  ISO  8  13  14  14  14  15  14  16  14  17   9  18   8  19   8  20   8
M  END
>  <minimizedAffinity>  (1) 
-4.40286589

>  <minimizedRMSD>  (1) 
0.0489049442

$$$$
