
     RDKit          3D

 20 21  0  0  0  0  0  0  0  0999 V2000
   44.5460   35.6520   44.7400 C   0  0  0  0  0  0  0  0  0  0  0  0
   45.2180   35.6720   43.5040 C   0  0  0  0  0  0  0  0  0  0  0  0
   46.2520   34.7450   43.3270 C   0  0  0  0  0  0  0  0  0  0  0  0
   46.5660   33.8750   44.3320 N   0  0  0  0  0  0  0  0  0  0  0  0
   45.8810   33.9050   45.5010 C   0  0  0  0  0  0  0  0  0  0  0  0
   44.8910   34.7690   45.7130 N   0  0  0  0  0  0  0  0  0  0  0  0
   46.9810   34.7310   42.0480 C   0  0  0  0  0  0  0  0  0  0  0  0
   46.5070   34.0920   40.9170 C   0  0  0  0  0  0  0  0  0  0  0  0
   47.4690   34.3190   39.9700 N   0  0  0  0  0  0  0  0  0  0  0  0
   48.4420   35.0490   40.5290 C   0  0  0  0  0  0  0  0  0  0  0  0
   48.1650   35.3150   41.8060 N   0  0  0  0  0  0  0  0  0  0  0  0
   46.2940   32.9350   46.5090 C   0  0  0  0  0  0  0  0  0  0  0  0
   45.7350   31.8080   46.5520 O   0  0  0  0  0  0  0  0  0  0  0  0
   47.2870   33.1810   47.4460 O   0  0  0  0  0  0  0  0  0  0  0  0
   43.7271   36.3637   44.9216 H   0  0  0  0  0  0  0  0  0  0  0  0
   44.9432   36.3843   42.7121 H   0  0  0  0  0  0  0  0  0  0  0  0
   45.5690   33.5287   40.8039 H   0  0  0  0  0  0  0  0  0  0  0  0
   49.3490   35.3846   40.0049 H   0  0  0  0  0  0  0  0  0  0  0  0
   48.7395   35.8556   42.4682 H   0  0  0  0  0  0  0  0  0  0  0  0
   47.5266   32.4847   48.1078 H   0  0  0  0  0  0  0  0  0  0  0  0
  1  6  2  0
  2  1  1  0
  3  2  2  0
  3  4  1  0
  4  5  2  0
  5  6  1  0
  5 12  1  0
  7  3  1  0
  8  7  2  0
  9 10  2  0
  9  8  1  0
 10 11  1  0
 11  7  1  0
 12 13  2  0
 12 14  1  0
  1 15  1  0
  2 16  1  0
  8 17  1  0
 10 18  1  0
 11 19  1  0
 14 20  1  0
M  ISO  6  15  14  16  14  17  14  18  14  19   9  20   3
M  END
>  <minimizedAffinity>  (1) 
-5.05764914

>  <minimizedRMSD>  (1) 
0.442756414

$$$$
