
     RDKit          3D

 30 32  0  0  0  0  0  0  0  0999 V2000
   44.5500   35.6670   44.4700 C   0  0  0  0  0  0  0  0  0  0  0  0
   45.2440   35.6830   43.2450 C   0  0  0  0  0  0  0  0  0  0  0  0
   46.3340   34.8170   43.1300 C   0  0  0  0  0  0  0  0  0  0  0  0
   46.6760   34.0140   44.1760 N   0  0  0  0  0  0  0  0  0  0  0  0
   45.9740   34.0350   45.3390 C   0  0  0  0  0  0  0  0  0  0  0  0
   44.9360   34.8420   45.4830 N   0  0  0  0  0  0  0  0  0  0  0  0
   47.0950   34.7970   41.8620 C   0  0  0  0  0  0  0  0  0  0  0  0
   46.6820   34.1150   40.7460 C   0  0  0  0  0  0  0  0  0  0  0  0
   47.6580   34.3550   39.8140 N   0  0  0  0  0  0  0  0  0  0  0  0
   48.5830   35.1400   40.3770 C   0  0  0  0  0  0  0  0  0  0  0  0
   48.2570   35.4250   41.6410 N   0  0  0  0  0  0  0  0  0  0  0  0
   46.3590   33.1590   46.4620 C   0  0  0  0  0  0  0  0  0  0  0  0
   45.2190   33.0180   47.4620 C   0  0  0  0  0  0  0  0  0  0  0  0
   45.1330   31.6340   47.9870 C   0  0  0  0  0  0  0  0  0  0  0  0
   45.1870   31.1710   49.2960 C   0  0  0  0  0  0  0  0  0  0  0  0
   45.0620   29.8350   49.2160 N   0  0  0  0  0  0  0  0  0  0  0  0
   44.9330   29.4560   47.9300 C   0  0  0  0  0  0  0  0  0  0  0  0
   44.9770   30.5660   47.1700 N   0  0  0  0  0  0  0  0  0  0  0  0
   43.6838   36.3301   44.6111 H   0  0  0  0  0  0  0  0  0  0  0  0
   44.9428   36.3446   42.4195 H   0  0  0  0  0  0  0  0  0  0  0  0
   45.7709   33.5104   40.6257 H   0  0  0  0  0  0  0  0  0  0  0  0
   49.4889   35.5018   39.8686 H   0  0  0  0  0  0  0  0  0  0  0  0
   48.7879   36.0057   42.3058 H   0  0  0  0  0  0  0  0  0  0  0  0
   46.6180   32.1645   46.0697 H   0  0  0  0  0  0  0  0  0  0  0  0
   47.2216   33.6080   46.9760 H   0  0  0  0  0  0  0  0  0  0  0  0
   45.3897   33.7096   48.3002 H   0  0  0  0  0  0  0  0  0  0  0  0
   44.2751   33.2548   46.9491 H   0  0  0  0  0  0  0  0  0  0  0  0
   45.3072   31.7731   50.2087 H   0  0  0  0  0  0  0  0  0  0  0  0
   44.8132   28.4248   47.5663 H   0  0  0  0  0  0  0  0  0  0  0  0
   44.9044   30.5974   46.1430 H   0  0  0  0  0  0  0  0  0  0  0  0
  1  6  2  0
  2  1  1  0
  3  2  2  0
  3  4  1  0
  4  5  2  0
  5  6  1  0
  5 12  1  0
  7  3  1  0
  8  7  2  0
  9 10  2  0
  9  8  1  0
 10 11  1  0
 11  7  1  0
 12 13  1  0
 13 14  1  0
 14 15  2  0
 16 15  1  0
 17 16  2  0
 18 17  1  0
 18 14  1  0
  1 19  1  0
  2 20  1  0
  8 21  1  0
 10 22  1  0
 11 23  1  0
 12 24  1  0
 12 25  1  0
 13 26  1  0
 13 27  1  0
 15 28  1  0
 17 29  1  0
 18 30  1  0
M  ISO  8  19  14  20  14  21  14  22  14  23   9  24   8  25   8  26   8
M  ISO  4  27   8  28  14  29  14  30   9
M  END
>  <minimizedAffinity>  (1) 
-5.28526115

>  <minimizedRMSD>  (1) 
0.844570339

$$$$
