
     RDKit          3D

 31 33  0  0  0  0  0  0  0  0999 V2000
   44.5910   35.4200   44.7990 C   0  0  0  0  0  0  0  0  0  0  0  0
   45.2180   35.4910   43.5330 C   0  0  0  0  0  0  0  0  0  0  0  0
   46.3270   34.6680   43.3390 C   0  0  0  0  0  0  0  0  0  0  0  0
   46.7380   33.8620   44.3520 N   0  0  0  0  0  0  0  0  0  0  0  0
   46.1120   33.8240   45.5470 C   0  0  0  0  0  0  0  0  0  0  0  0
   45.0490   34.5960   45.7680 N   0  0  0  0  0  0  0  0  0  0  0  0
   47.0250   34.6930   42.0470 C   0  0  0  0  0  0  0  0  0  0  0  0
   46.5470   34.0750   40.9220 C   0  0  0  0  0  0  0  0  0  0  0  0
   47.4700   34.3290   39.9500 N   0  0  0  0  0  0  0  0  0  0  0  0
   48.4500   35.0730   40.5030 C   0  0  0  0  0  0  0  0  0  0  0  0
   48.1990   35.3150   41.8070 N   0  0  0  0  0  0  0  0  0  0  0  0
   46.5860   32.9380   46.6350 C   0  0  0  0  0  0  0  0  0  0  0  0
   45.4230   32.3640   47.4330 C   0  0  0  0  0  0  0  0  0  0  0  0
   45.4140   30.8890   47.2590 C   0  0  0  0  0  0  0  0  0  0  0  0
   45.0980   30.0230   48.3000 C   0  0  0  0  0  0  0  0  0  0  0  0
   45.1070   28.6590   48.0750 C   0  0  0  0  0  0  0  0  0  0  0  0
   45.4250   28.2010   46.8450 N   0  0  0  0  0  0  0  0  0  0  0  0
   45.7250   29.0640   45.8690 C   0  0  0  0  0  0  0  0  0  0  0  0
   45.7270   30.3970   46.0470 N   0  0  0  0  0  0  0  0  0  0  0  0
   43.7113   36.0492   44.9995 H   0  0  0  0  0  0  0  0  0  0  0  0
   44.8497   36.1610   42.7421 H   0  0  0  0  0  0  0  0  0  0  0  0
   45.6165   33.4967   40.8232 H   0  0  0  0  0  0  0  0  0  0  0  0
   49.3370   35.4349   39.9624 H   0  0  0  0  0  0  0  0  0  0  0  0
   48.7742   35.8535   42.4703 H   0  0  0  0  0  0  0  0  0  0  0  0
   47.1620   32.1098   46.1964 H   0  0  0  0  0  0  0  0  0  0  0  0
   47.2124   33.5324   47.3164 H   0  0  0  0  0  0  0  0  0  0  0  0
   45.5459   32.6112   48.4978 H   0  0  0  0  0  0  0  0  0  0  0  0
   44.4742   32.7912   47.0763 H   0  0  0  0  0  0  0  0  0  0  0  0
   44.8431   30.4197   49.2938 H   0  0  0  0  0  0  0  0  0  0  0  0
   44.8590   27.9576   48.8853 H   0  0  0  0  0  0  0  0  0  0  0  0
   45.9816   28.6660   44.8761 H   0  0  0  0  0  0  0  0  0  0  0  0
  1  6  2  0
  2  1  1  0
  3  2  2  0
  3  4  1  0
  4  5  2  0
  5  6  1  0
  5 12  1  0
  7  3  1  0
  8  7  2  0
  9 10  2  0
  9  8  1  0
 10 11  1  0
 11  7  1  0
 12 13  1  0
 14 13  1  0
 14 15  2  0
 16 15  1  0
 17 16  2  0
 18 19  2  0
 18 17  1  0
 19 14  1  0
  1 20  1  0
  2 21  1  0
  8 22  1  0
 10 23  1  0
 11 24  1  0
 12 25  1  0
 12 26  1  0
 13 27  1  0
 13 28  1  0
 15 29  1  0
 16 30  1  0
 18 31  1  0
M  ISO  8  20  14  21  14  22  14  23  14  24   9  25   8  26   8  27   8
M  ISO  4  28   8  29  14  30  14  31  14
M  END
>  <minimizedAffinity>  (1) 
-4.97706938

>  <minimizedRMSD>  (1) 
1.88026249

$$$$
