
     RDKit          3D

 37 40  0  0  0  0  0  0  0  0999 V2000
   46.9840   33.3300   44.7930 C   0  0  0  0  0  0  0  0  0  0  0  0
   44.4690   34.8000   42.5500 C   0  0  0  0  0  0  0  0  0  0  0  0
   45.0720   34.7130   41.2790 C   0  0  0  0  0  0  0  0  0  0  0  0
   46.3590   34.1470   41.2210 C   0  0  0  0  0  0  0  0  0  0  0  0
   46.9510   33.7170   42.3690 N   0  0  0  0  0  0  0  0  0  0  0  0
   46.3240   33.8240   43.5710 C   0  0  0  0  0  0  0  0  0  0  0  0
   45.1150   34.3500   43.6670 N   0  0  0  0  0  0  0  0  0  0  0  0
   47.0260   34.0280   39.9160 C   0  0  0  0  0  0  0  0  0  0  0  0
   46.5410   33.1830   38.9190 C   0  0  0  0  0  0  0  0  0  0  0  0
   47.4210   33.3580   37.8930 N   0  0  0  0  0  0  0  0  0  0  0  0
   48.3520   34.2470   38.2720 C   0  0  0  0  0  0  0  0  0  0  0  0
   48.1210   34.6750   39.5330 N   0  0  0  0  0  0  0  0  0  0  0  0
   46.0250   33.1550   45.9350 C   0  0  0  0  0  0  0  0  0  0  0  0
   46.6380   32.1950   46.8900 C   0  0  0  0  0  0  0  0  0  0  0  0
   47.5150   32.5440   47.8520 N   0  0  0  0  0  0  0  0  0  0  0  0
   48.0660   31.6460   48.6640 C   0  0  0  0  0  0  0  0  0  0  0  0
   47.7670   30.3520   48.5570 N   0  0  0  0  0  0  0  0  0  0  0  0
   46.9000   29.9490   47.6170 C   0  0  0  0  0  0  0  0  0  0  0  0
   46.5910   28.5950   47.5220 C   0  0  0  0  0  0  0  0  0  0  0  0
   45.6980   28.1370   46.5760 C   0  0  0  0  0  0  0  0  0  0  0  0
   45.1010   29.0300   45.7120 C   0  0  0  0  0  0  0  0  0  0  0  0
   45.4320   30.3790   45.8350 C   0  0  0  0  0  0  0  0  0  0  0  0
   46.3100   30.8630   46.7560 C   0  0  0  0  0  0  0  0  0  0  0  0
   47.7594   34.0511   45.0910 H   0  0  0  0  0  0  0  0  0  0  0  0
   47.4145   32.3439   44.5645 H   0  0  0  0  0  0  0  0  0  0  0  0
   43.4637   35.2365   42.6442 H   0  0  0  0  0  0  0  0  0  0  0  0
   44.5599   35.0712   40.3738 H   0  0  0  0  0  0  0  0  0  0  0  0
   45.6569   32.5294   38.9524 H   0  0  0  0  0  0  0  0  0  0  0  0
   49.1893   34.5818   37.6421 H   0  0  0  0  0  0  0  0  0  0  0  0
   48.6726   35.3535   40.0772 H   0  0  0  0  0  0  0  0  0  0  0  0
   45.8527   34.1210   46.4321 H   0  0  0  0  0  0  0  0  0  0  0  0
   45.0571   32.7774   45.5737 H   0  0  0  0  0  0  0  0  0  0  0  0
   48.7783   31.9762   49.4344 H   0  0  0  0  0  0  0  0  0  0  0  0
   47.0655   27.8806   48.2108 H   0  0  0  0  0  0  0  0  0  0  0  0
   45.4633   27.0643   46.5112 H   0  0  0  0  0  0  0  0  0  0  0  0
   44.3856   28.6890   44.9491 H   0  0  0  0  0  0  0  0  0  0  0  0
   44.9559   31.0938   45.1477 H   0  0  0  0  0  0  0  0  0  0  0  0
  1 13  1  0
  2  7  2  0
  3  2  1  0
  4  3  2  0
  4  5  1  0
  5  6  2  0
  6  7  1  0
  6  1  1  0
  8  4  1  0
  9  8  2  0
 10 11  2  0
 10  9  1  0
 11 12  1  0
 12  8  1  0
 13 14  1  0
 14 15  2  0
 15 16  1  0
 17 16  2  0
 18 17  1  0
 19 18  2  0
 20 19  1  0
 21 22  1  0
 21 20  2  0
 22 23  2  0
 23 14  1  0
 23 18  1  0
  1 24  1  0
  1 25  1  0
  2 26  1  0
  3 27  1  0
  9 28  1  0
 11 29  1  0
 12 30  1  0
 13 31  1  0
 13 32  1  0
 16 33  1  0
 19 34  1  0
 20 35  1  0
 21 36  1  0
 22 37  1  0
M  ISO  8  24   8  25   8  26  14  27  14  28  14  29  14  30   9  31   8
M  ISO  6  32   8  33  14  34  14  35  14  36  14  37  14
M  END
>  <minimizedAffinity>  (1) 
-4.97379351

>  <minimizedRMSD>  (1) 
2.36094856

$$$$
