
     RDKit          3D

 39 41  0  0  0  0  0  0  0  0999 V2000
   44.6180   35.4740   44.7700 C   0  0  0  0  0  0  0  0  0  0  0  0
   45.2680   35.5640   43.5140 C   0  0  0  0  0  0  0  0  0  0  0  0
   46.3610   34.6950   43.3170 C   0  0  0  0  0  0  0  0  0  0  0  0
   46.7320   33.8380   44.3060 N   0  0  0  0  0  0  0  0  0  0  0  0
   46.0670   33.7990   45.4920 C   0  0  0  0  0  0  0  0  0  0  0  0
   45.0340   34.5990   45.7200 N   0  0  0  0  0  0  0  0  0  0  0  0
   47.0790   34.7400   42.0270 C   0  0  0  0  0  0  0  0  0  0  0  0
   46.6110   34.0830   40.8990 C   0  0  0  0  0  0  0  0  0  0  0  0
   47.5420   34.3690   39.9390 N   0  0  0  0  0  0  0  0  0  0  0  0
   48.4910   35.1480   40.4930 C   0  0  0  0  0  0  0  0  0  0  0  0
   48.2160   35.3900   41.7950 N   0  0  0  0  0  0  0  0  0  0  0  0
   46.4940   32.8490   46.5430 C   0  0  0  0  0  0  0  0  0  0  0  0
   45.4440   32.6610   47.5990 C   0  0  0  0  0  0  0  0  0  0  0  0
   45.0100   31.2360   47.6710 C   0  0  0  0  0  0  0  0  0  0  0  0
   45.3230   30.5480   48.9570 C   0  0  0  0  0  0  0  0  0  0  0  0
   44.9090   29.0970   48.8870 C   0  0  0  0  0  0  0  0  0  0  0  0
   45.5630   28.4060   47.7090 C   0  0  0  0  0  0  0  0  0  0  0  0
   45.0240   29.0660   46.4480 C   0  0  0  0  0  0  0  0  0  0  0  0
   45.5280   30.5020   46.4610 C   0  0  0  0  0  0  0  0  0  0  0  0
   43.7581   36.1273   44.9792 H   0  0  0  0  0  0  0  0  0  0  0  0
   44.9391   36.2707   42.7378 H   0  0  0  0  0  0  0  0  0  0  0  0
   45.7012   33.4728   40.7994 H   0  0  0  0  0  0  0  0  0  0  0  0
   49.3710   35.5352   39.9586 H   0  0  0  0  0  0  0  0  0  0  0  0
   48.7655   35.9531   42.4598 H   0  0  0  0  0  0  0  0  0  0  0  0
   46.7048   31.8756   46.0760 H   0  0  0  0  0  0  0  0  0  0  0  0
   47.3901   33.2632   47.0282 H   0  0  0  0  0  0  0  0  0  0  0  0
   45.8558   32.9616   48.5737 H   0  0  0  0  0  0  0  0  0  0  0  0
   44.5725   33.2810   47.3420 H   0  0  0  0  0  0  0  0  0  0  0  0
   43.9101   31.2266   47.6568 H   0  0  0  0  0  0  0  0  0  0  0  0
   46.4047   30.6084   49.1474 H   0  0  0  0  0  0  0  0  0  0  0  0
   44.7702   31.0399   49.7709 H   0  0  0  0  0  0  0  0  0  0  0  0
   45.2118   28.5906   49.8154 H   0  0  0  0  0  0  0  0  0  0  0  0
   43.8172   29.0481   48.7620 H   0  0  0  0  0  0  0  0  0  0  0  0
   46.6553   28.5255   47.7602 H   0  0  0  0  0  0  0  0  0  0  0  0
   45.3398   27.3289   47.7134 H   0  0  0  0  0  0  0  0  0  0  0  0
   43.9241   29.0495   46.4511 H   0  0  0  0  0  0  0  0  0  0  0  0
   45.3618   28.5346   45.5461 H   0  0  0  0  0  0  0  0  0  0  0  0
   46.6278   30.4988   46.4837 H   0  0  0  0  0  0  0  0  0  0  0  0
   45.1671   31.0123   45.5558 H   0  0  0  0  0  0  0  0  0  0  0  0
  1  6  2  0
  2  1  1  0
  3  2  2  0
  3  4  1  0
  4  5  2  0
  5  6  1  0
  5 12  1  0
  7  3  1  0
  8  7  2  0
  9 10  2  0
  9  8  1  0
 10 11  1  0
 11  7  1  0
 12 13  1  0
 13 14  1  0
 14 15  1  0
 16 15  1  0
 17 16  1  0
 18 19  1  0
 18 17  1  0
 19 14  1  0
  1 20  1  0
  2 21  1  0
  8 22  1  0
 10 23  1  0
 11 24  1  0
 12 25  1  0
 12 26  1  0
 13 27  1  0
 13 28  1  0
 14 29  1  0
 15 30  1  0
 15 31  1  0
 16 32  1  0
 16 33  1  0
 17 34  1  0
 17 35  1  0
 18 36  1  0
 18 37  1  0
 19 38  1  0
 19 39  1  0
M  ISO  8  20  14  21  14  22  14  23  14  24   9  25   8  26   8  27   8
M  ISO  8  28   8  29  13  30  13  31  13  32  13  33  13  34  13  35  13
M  ISO  4  36  13  37  13  38  13  39  13
M  END
>  <minimizedAffinity>  (1) 
-5.17955112

>  <minimizedRMSD>  (1) 
1.45366919

$$$$
