
     RDKit          3D

 33 35  0  0  0  0  0  0  0  0999 V2000
   44.5910   35.5170   44.6630 C   0  0  0  0  0  0  0  0  0  0  0  0
   45.2440   35.5770   43.4140 C   0  0  0  0  0  0  0  0  0  0  0  0
   46.3460   34.7320   43.2500 C   0  0  0  0  0  0  0  0  0  0  0  0
   46.7220   33.9210   44.2710 N   0  0  0  0  0  0  0  0  0  0  0  0
   46.0760   33.8920   45.4450 C   0  0  0  0  0  0  0  0  0  0  0  0
   45.0270   34.6730   45.6440 N   0  0  0  0  0  0  0  0  0  0  0  0
   47.0730   34.7500   41.9610 C   0  0  0  0  0  0  0  0  0  0  0  0
   46.6340   34.0880   40.8470 C   0  0  0  0  0  0  0  0  0  0  0  0
   47.5640   34.3450   39.8840 N   0  0  0  0  0  0  0  0  0  0  0  0
   48.5060   35.1340   40.4380 C   0  0  0  0  0  0  0  0  0  0  0  0
   48.2220   35.3940   41.7150 N   0  0  0  0  0  0  0  0  0  0  0  0
   46.4870   33.0120   46.5440 C   0  0  0  0  0  0  0  0  0  0  0  0
   45.3800   32.7000   47.5140 C   0  0  0  0  0  0  0  0  0  0  0  0
   45.3160   31.2180   47.6500 C   0  0  0  0  0  0  0  0  0  0  0  0
   45.0180   30.6300   48.8630 C   0  0  0  0  0  0  0  0  0  0  0  0
   44.9730   29.2330   48.9270 C   0  0  0  0  0  0  0  0  0  0  0  0
   45.2310   28.5110   47.7610 C   0  0  0  0  0  0  0  0  0  0  0  0
   45.5280   29.1030   46.5520 C   0  0  0  0  0  0  0  0  0  0  0  0
   45.5730   30.4880   46.4890 C   0  0  0  0  0  0  0  0  0  0  0  0
   43.7178   36.1595   44.8494 H   0  0  0  0  0  0  0  0  0  0  0  0
   44.9051   36.2511   42.6135 H   0  0  0  0  0  0  0  0  0  0  0  0
   45.7239   33.4780   40.7492 H   0  0  0  0  0  0  0  0  0  0  0  0
   49.3917   35.5132   39.9072 H   0  0  0  0  0  0  0  0  0  0  0  0
   48.7695   35.9678   42.3722 H   0  0  0  0  0  0  0  0  0  0  0  0
   46.8497   32.0664   46.1148 H   0  0  0  0  0  0  0  0  0  0  0  0
   47.2681   33.5436   47.1072 H   0  0  0  0  0  0  0  0  0  0  0  0
   45.5945   33.1589   48.4905 H   0  0  0  0  0  0  0  0  0  0  0  0
   44.4211   33.1001   47.1529 H   0  0  0  0  0  0  0  0  0  0  0  0
   44.8213   31.2431   49.7549 H   0  0  0  0  0  0  0  0  0  0  0  0
   44.7406   28.7179   49.8707 H   0  0  0  0  0  0  0  0  0  0  0  0
   45.1955   27.4126   47.8091 H   0  0  0  0  0  0  0  0  0  0  0  0
   45.7246   28.4918   45.6588 H   0  0  0  0  0  0  0  0  0  0  0  0
   45.8064   30.9999   45.5438 H   0  0  0  0  0  0  0  0  0  0  0  0
  1  6  2  0
  2  1  1  0
  3  2  2  0
  3  4  1  0
  4  5  2  0
  5  6  1  0
  5 12  1  0
  7  3  1  0
  8  7  2  0
  9 10  2  0
  9  8  1  0
 10 11  1  0
 11  7  1  0
 12 13  1  0
 13 14  1  0
 14 15  2  0
 15 16  1  0
 17 16  2  0
 18 17  1  0
 19 18  2  0
 19 14  1  0
  1 20  1  0
  2 21  1  0
  8 22  1  0
 10 23  1  0
 11 24  1  0
 12 25  1  0
 12 26  1  0
 13 27  1  0
 13 28  1  0
 15 29  1  0
 16 30  1  0
 17 31  1  0
 18 32  1  0
 19 33  1  0
M  ISO  8  20  14  21  14  22  14  23  14  24   9  25   8  26   8  27   8
M  ISO  6  28   8  29  14  30  14  31  14  32  14  33  14
M  END
>  <minimizedAffinity>  (1) 
-5.23626423

>  <minimizedRMSD>  (1) 
1.3391993

$$$$
