
     RDKit          3D

 33 35  0  0  0  0  0  0  0  0999 V2000
   44.5050   36.1180   44.5830 C   0  0  0  0  0  0  0  0  0  0  0  0
   45.2230   36.0090   43.3650 C   0  0  0  0  0  0  0  0  0  0  0  0
   46.0730   34.8990   43.2260 C   0  0  0  0  0  0  0  0  0  0  0  0
   46.1360   34.0360   44.2510 N   0  0  0  0  0  0  0  0  0  0  0  0
   45.4440   34.1600   45.4010 C   0  0  0  0  0  0  0  0  0  0  0  0
   44.6310   35.1990   45.5640 N   0  0  0  0  0  0  0  0  0  0  0  0
   46.8390   34.7360   41.9890 C   0  0  0  0  0  0  0  0  0  0  0  0
   48.0950   35.2820   41.8240 C   0  0  0  0  0  0  0  0  0  0  0  0
   48.4540   34.9020   40.5510 N   0  0  0  0  0  0  0  0  0  0  0  0
   47.4630   34.1910   40.0420 C   0  0  0  0  0  0  0  0  0  0  0  0
   46.4320   34.0610   40.9070 N   0  0  0  0  0  0  0  0  0  0  0  0
   45.5530   33.1800   46.4950 C   0  0  0  0  0  0  0  0  0  0  0  0
   46.9830   32.7580   46.7470 C   0  0  0  0  0  0  0  0  0  0  0  0
   47.0460   31.8550   48.3190 S   0  0  0  0  0  0  0  0  0  0  0  0
   46.5750   30.1550   47.9450 C   0  0  0  0  0  0  0  0  0  0  0  0
   45.2300   29.7770   47.9990 C   0  0  0  0  0  0  0  0  0  0  0  0
   44.9490   28.4520   47.6970 C   0  0  0  0  0  0  0  0  0  0  0  0
   46.0150   27.6180   47.3690 C   0  0  0  0  0  0  0  0  0  0  0  0
   47.3360   28.0110   47.3220 C   0  0  0  0  0  0  0  0  0  0  0  0
   47.5820   29.3000   47.6180 N   0  0  0  0  0  0  0  0  0  0  0  0
   43.8286   36.9725   44.7322 H   0  0  0  0  0  0  0  0  0  0  0  0
   45.1193   36.7584   42.5665 H   0  0  0  0  0  0  0  0  0  0  0  0
   48.6742   35.8811   42.5421 H   0  0  0  0  0  0  0  0  0  0  0  0
   47.4755   33.7556   39.0319 H   0  0  0  0  0  0  0  0  0  0  0  0
   45.5428   33.5605   40.7665 H   0  0  0  0  0  0  0  0  0  0  0  0
   45.1497   33.6297   47.4143 H   0  0  0  0  0  0  0  0  0  0  0  0
   44.9845   32.2848   46.2028 H   0  0  0  0  0  0  0  0  0  0  0  0
   47.3273   32.1064   45.9304 H   0  0  0  0  0  0  0  0  0  0  0  0
   47.6352   33.6426   46.7933 H   0  0  0  0  0  0  0  0  0  0  0  0
   44.4374   30.4913   48.2664 H   0  0  0  0  0  0  0  0  0  0  0  0
   43.9167   28.0724   47.7161 H   0  0  0  0  0  0  0  0  0  0  0  0
   45.7865   26.5689   47.1299 H   0  0  0  0  0  0  0  0  0  0  0  0
   48.1421   27.3108   47.0577 H   0  0  0  0  0  0  0  0  0  0  0  0
  1  6  2  0
  2  1  1  0
  3  2  2  0
  3  4  1  0
  4  5  2  0
  5  6  1  0
  5 12  1  0
  7  3  1  0
  8  7  2  0
  9  8  1  0
 10  9  2  0
 10 11  1  0
 11  7  1  0
 12 13  1  0
 13 14  1  0
 15 16  2  0
 15 14  1  0
 17 16  1  0
 18 17  2  0
 19 18  1  0
 19 20  2  0
 20 15  1  0
  1 21  1  0
  2 22  1  0
  8 23  1  0
 10 24  1  0
 11 25  1  0
 12 26  1  0
 12 27  1  0
 13 28  1  0
 13 29  1  0
 16 30  1  0
 17 31  1  0
 18 32  1  0
 19 33  1  0
M  ISO  8  21  14  22  14  23  14  24  14  25   9  26   8  27   8  28   8
M  ISO  5  29   8  30  14  31  14  32  14  33  14
M  END
>  <minimizedAffinity>  (1) 
-5.22717857

>  <minimizedRMSD>  (1) 
2.48128676

$$$$
