
     RDKit          3D

 37 39  0  0  0  0  0  0  0  0999 V2000
   44.5010   36.1570   44.4850 C   0  0  0  0  0  0  0  0  0  0  0  0
   45.2160   36.0440   43.2790 C   0  0  0  0  0  0  0  0  0  0  0  0
   46.0760   34.9470   43.1670 C   0  0  0  0  0  0  0  0  0  0  0  0
   46.1750   34.0750   44.1930 N   0  0  0  0  0  0  0  0  0  0  0  0
   45.4620   34.2240   45.3440 C   0  0  0  0  0  0  0  0  0  0  0  0
   44.6290   35.2650   45.4830 N   0  0  0  0  0  0  0  0  0  0  0  0
   46.8580   34.7690   41.9240 C   0  0  0  0  0  0  0  0  0  0  0  0
   48.1220   35.2990   41.7680 C   0  0  0  0  0  0  0  0  0  0  0  0
   48.4810   34.9090   40.4980 N   0  0  0  0  0  0  0  0  0  0  0  0
   47.4870   34.2100   39.9820 C   0  0  0  0  0  0  0  0  0  0  0  0
   46.4400   34.0920   40.8390 N   0  0  0  0  0  0  0  0  0  0  0  0
   45.5770   33.2670   46.4570 C   0  0  0  0  0  0  0  0  0  0  0  0
   46.9320   32.6340   46.5250 C   0  0  0  0  0  0  0  0  0  0  0  0
   47.2490   32.0270   48.1980 S   0  0  0  0  0  0  0  0  0  0  0  0
   46.8010   30.2530   48.2170 C   0  0  0  0  0  0  0  0  0  0  0  0
   45.3110   30.1080   48.3620 C   0  0  0  0  0  0  0  0  0  0  0  0
   45.0960   28.6780   47.9060 C   0  0  0  0  0  0  0  0  0  0  0  0
   46.1430   28.4370   46.8330 C   0  0  0  0  0  0  0  0  0  0  0  0
   47.0590   29.6520   46.8520 C   0  0  0  0  0  0  0  0  0  0  0  0
   43.8128   37.0050   44.6164 H   0  0  0  0  0  0  0  0  0  0  0  0
   45.1047   36.7787   42.4679 H   0  0  0  0  0  0  0  0  0  0  0  0
   48.7047   35.8925   42.4879 H   0  0  0  0  0  0  0  0  0  0  0  0
   47.5048   33.7729   38.9727 H   0  0  0  0  0  0  0  0  0  0  0  0
   45.5448   33.6036   40.6938 H   0  0  0  0  0  0  0  0  0  0  0  0
   45.3871   33.7983   47.4013 H   0  0  0  0  0  0  0  0  0  0  0  0
   44.8402   32.4674   46.2904 H   0  0  0  0  0  0  0  0  0  0  0  0
   46.9767   31.7926   45.8179 H   0  0  0  0  0  0  0  0  0  0  0  0
   47.6936   33.3832   46.2629 H   0  0  0  0  0  0  0  0  0  0  0  0
   47.3733   29.7795   49.0284 H   0  0  0  0  0  0  0  0  0  0  0  0
   44.9941   30.2480   49.4060 H   0  0  0  0  0  0  0  0  0  0  0  0
   44.7324   30.8503   47.7925 H   0  0  0  0  0  0  0  0  0  0  0  0
   45.2369   27.9808   48.7451 H   0  0  0  0  0  0  0  0  0  0  0  0
   44.0760   28.5179   47.5265 H   0  0  0  0  0  0  0  0  0  0  0  0
   45.6634   28.3366   45.8482 H   0  0  0  0  0  0  0  0  0  0  0  0
   46.7038   27.5097   47.0217 H   0  0  0  0  0  0  0  0  0  0  0  0
   48.1125   29.3544   46.7440 H   0  0  0  0  0  0  0  0  0  0  0  0
   46.8657   30.3530   46.0266 H   0  0  0  0  0  0  0  0  0  0  0  0
  1  6  2  0
  2  1  1  0
  3  2  2  0
  3  4  1  0
  4  5  2  0
  5  6  1  0
  5 12  1  0
  7  3  1  0
  8  7  2  0
  9  8  1  0
 10  9  2  0
 10 11  1  0
 11  7  1  0
 12 13  1  0
 13 14  1  0
 14 15  1  0
 15 16  1  0
 17 16  1  0
 18 19  1  0
 18 17  1  0
 19 15  1  0
  1 20  1  0
  2 21  1  0
  8 22  1  0
 10 23  1  0
 11 24  1  0
 12 25  1  0
 12 26  1  0
 13 27  1  0
 13 28  1  0
 15 29  1  0
 16 30  1  0
 16 31  1  0
 17 32  1  0
 17 33  1  0
 18 34  1  0
 18 35  1  0
 19 36  1  0
 19 37  1  0
M  ISO  8  20  14  21  14  22  14  23  14  24   9  25   8  26   8  27   8
M  ISO  8  28   8  29  13  30  13  31  13  32  13  33  13  34  13  35  13
M  ISO  2  36  13  37  13
M  END
>  <minimizedAffinity>  (1) 
-5.14550734

>  <minimizedRMSD>  (1) 
1.90382433

$$$$
