
     RDKit          3D

 40 42  0  0  0  0  0  0  0  0999 V2000
   44.5090   36.1550   44.3530 C   0  0  0  0  0  0  0  0  0  0  0  0
   45.2570   36.0510   43.1600 C   0  0  0  0  0  0  0  0  0  0  0  0
   46.1620   34.9660   43.0650 C   0  0  0  0  0  0  0  0  0  0  0  0
   46.2570   34.1050   44.1120 N   0  0  0  0  0  0  0  0  0  0  0  0
   45.5260   34.2440   45.2330 C   0  0  0  0  0  0  0  0  0  0  0  0
   44.6560   35.2610   45.3570 N   0  0  0  0  0  0  0  0  0  0  0  0
   46.9640   34.8040   41.8370 C   0  0  0  0  0  0  0  0  0  0  0  0
   48.1990   35.3490   41.6810 C   0  0  0  0  0  0  0  0  0  0  0  0
   48.5610   34.9660   40.4170 N   0  0  0  0  0  0  0  0  0  0  0  0
   47.5900   34.2470   39.8890 C   0  0  0  0  0  0  0  0  0  0  0  0
   46.5430   34.1060   40.7420 N   0  0  0  0  0  0  0  0  0  0  0  0
   45.6600   33.2880   46.3390 C   0  0  0  0  0  0  0  0  0  0  0  0
   47.0010   32.6180   46.3890 C   0  0  0  0  0  0  0  0  0  0  0  0
   47.4080   32.2390   48.1200 S   0  0  0  0  0  0  0  0  0  0  0  0
   46.8640   30.6490   48.6960 C   0  0  0  0  0  0  0  0  0  0  0  0
   47.2730   29.5630   47.7190 C   0  0  0  0  0  0  0  0  0  0  0  0
   46.2480   29.2380   46.6850 C   0  0  0  0  0  0  0  0  0  0  0  0
   44.9860   28.6530   47.2840 C   0  0  0  0  0  0  0  0  0  0  0  0
   44.8990   29.1250   48.7120 C   0  0  0  0  0  0  0  0  0  0  0  0
   45.3360   30.5690   48.7940 C   0  0  0  0  0  0  0  0  0  0  0  0
   43.7914   36.9807   44.4682 H   0  0  0  0  0  0  0  0  0  0  0  0
   45.1422   36.7785   42.3429 H   0  0  0  0  0  0  0  0  0  0  0  0
   48.7718   35.9540   42.3993 H   0  0  0  0  0  0  0  0  0  0  0  0
   47.6241   33.8134   38.8786 H   0  0  0  0  0  0  0  0  0  0  0  0
   45.6568   33.6010   40.5992 H   0  0  0  0  0  0  0  0  0  0  0  0
   45.5037   33.8260   47.2856 H   0  0  0  0  0  0  0  0  0  0  0  0
   44.9094   32.4999   46.1794 H   0  0  0  0  0  0  0  0  0  0  0  0
   46.9700   31.6865   45.8048 H   0  0  0  0  0  0  0  0  0  0  0  0
   47.7660   33.2847   45.9644 H   0  0  0  0  0  0  0  0  0  0  0  0
   47.3243   30.5101   49.6854 H   0  0  0  0  0  0  0  0  0  0  0  0
   48.1875   29.8920   47.2037 H   0  0  0  0  0  0  0  0  0  0  0  0
   47.4169   28.6483   48.3128 H   0  0  0  0  0  0  0  0  0  0  0  0
   46.6756   28.5086   45.9813 H   0  0  0  0  0  0  0  0  0  0  0  0
   45.9745   30.1755   46.1788 H   0  0  0  0  0  0  0  0  0  0  0  0
   44.1074   28.9996   46.7201 H   0  0  0  0  0  0  0  0  0  0  0  0
   45.0111   27.5541   47.2410 H   0  0  0  0  0  0  0  0  0  0  0  0
   43.8610   29.0357   49.0649 H   0  0  0  0  0  0  0  0  0  0  0  0
   45.5556   28.5074   49.3424 H   0  0  0  0  0  0  0  0  0  0  0  0
   45.0075   30.9973   49.7525 H   0  0  0  0  0  0  0  0  0  0  0  0
   44.8861   31.1350   47.9650 H   0  0  0  0  0  0  0  0  0  0  0  0
  1  6  2  0
  2  1  1  0
  3  2  2  0
  3  4  1  0
  4  5  2  0
  5  6  1  0
  5 12  1  0
  7  3  1  0
  8  7  2  0
  9  8  1  0
 10  9  2  0
 10 11  1  0
 11  7  1  0
 12 13  1  0
 13 14  1  0
 14 15  1  0
 15 20  1  0
 16 15  1  0
 17 18  1  0
 17 16  1  0
 18 19  1  0
 19 20  1  0
  1 21  1  0
  2 22  1  0
  8 23  1  0
 10 24  1  0
 11 25  1  0
 12 26  1  0
 12 27  1  0
 13 28  1  0
 13 29  1  0
 15 30  1  0
 16 31  1  0
 16 32  1  0
 17 33  1  0
 17 34  1  0
 18 35  1  0
 18 36  1  0
 19 37  1  0
 19 38  1  0
 20 39  1  0
 20 40  1  0
M  ISO  8  21  14  22  14  23  14  24  14  25   9  26   8  27   8  28   8
M  ISO  8  29   8  30  13  31  13  32  13  33  13  34  13  35  13  36  13
M  ISO  4  37  13  38  13  39  13  40  13
M  END
>  <minimizedAffinity>  (1) 
-5.23601913

>  <minimizedRMSD>  (1) 
1.01641238

$$$$
