
     RDKit          3D

 32 34  0  0  0  0  0  0  0  0999 V2000
   44.5070   36.1380   44.5570 C   0  0  0  0  0  0  0  0  0  0  0  0
   45.2350   36.0360   43.3420 C   0  0  0  0  0  0  0  0  0  0  0  0
   46.0790   34.9300   43.2170 C   0  0  0  0  0  0  0  0  0  0  0  0
   46.1510   34.0430   44.2320 N   0  0  0  0  0  0  0  0  0  0  0  0
   45.4340   34.1810   45.3810 C   0  0  0  0  0  0  0  0  0  0  0  0
   44.6230   35.2240   45.5310 N   0  0  0  0  0  0  0  0  0  0  0  0
   46.8640   34.7630   41.9780 C   0  0  0  0  0  0  0  0  0  0  0  0
   48.1150   35.2850   41.8110 C   0  0  0  0  0  0  0  0  0  0  0  0
   48.4730   34.9010   40.5410 N   0  0  0  0  0  0  0  0  0  0  0  0
   47.4650   34.1930   40.0170 C   0  0  0  0  0  0  0  0  0  0  0  0
   46.4410   34.0830   40.8800 N   0  0  0  0  0  0  0  0  0  0  0  0
   45.5420   33.1890   46.4680 C   0  0  0  0  0  0  0  0  0  0  0  0
   46.9760   32.7810   46.7380 C   0  0  0  0  0  0  0  0  0  0  0  0
   47.0610   31.8930   48.3040 S   0  0  0  0  0  0  0  0  0  0  0  0
   46.6900   30.1610   47.9480 C   0  0  0  0  0  0  0  0  0  0  0  0
   45.3600   29.7580   48.0940 C   0  0  0  0  0  0  0  0  0  0  0  0
   45.0100   28.4480   47.8390 C   0  0  0  0  0  0  0  0  0  0  0  0
   45.9280   27.5540   47.4540 N   0  0  0  0  0  0  0  0  0  0  0  0
   47.2180   27.9620   47.3190 C   0  0  0  0  0  0  0  0  0  0  0  0
   47.6010   29.2310   47.5560 N   0  0  0  0  0  0  0  0  0  0  0  0
   43.8285   36.9914   44.7032 H   0  0  0  0  0  0  0  0  0  0  0  0
   45.1396   36.7865   42.5434 H   0  0  0  0  0  0  0  0  0  0  0  0
   48.7017   35.8772   42.5287 H   0  0  0  0  0  0  0  0  0  0  0  0
   47.4739   33.7564   39.0074 H   0  0  0  0  0  0  0  0  0  0  0  0
   45.5438   33.5963   40.7415 H   0  0  0  0  0  0  0  0  0  0  0  0
   45.1197   33.6236   47.3860 H   0  0  0  0  0  0  0  0  0  0  0  0
   44.9905   32.2895   46.1569 H   0  0  0  0  0  0  0  0  0  0  0  0
   47.3310   32.1287   45.9265 H   0  0  0  0  0  0  0  0  0  0  0  0
   47.6099   33.6785   46.7897 H   0  0  0  0  0  0  0  0  0  0  0  0
   44.5952   30.4823   48.4110 H   0  0  0  0  0  0  0  0  0  0  0  0
   43.9619   28.1343   47.9538 H   0  0  0  0  0  0  0  0  0  0  0  0
   47.9759   27.2292   47.0049 H   0  0  0  0  0  0  0  0  0  0  0  0
  1  6  2  0
  2  1  1  0
  3  2  2  0
  3  4  1  0
  4  5  2  0
  5  6  1  0
  5 12  1  0
  7  3  1  0
  8  7  2  0
  9  8  1  0
 10  9  2  0
 10 11  1  0
 11  7  1  0
 12 13  1  0
 13 14  1  0
 15 16  2  0
 15 14  1  0
 17 16  1  0
 18 17  2  0
 19 18  1  0
 19 20  2  0
 20 15  1  0
  1 21  1  0
  2 22  1  0
  8 23  1  0
 10 24  1  0
 11 25  1  0
 12 26  1  0
 12 27  1  0
 13 28  1  0
 13 29  1  0
 16 30  1  0
 17 31  1  0
 19 32  1  0
M  ISO  8  21  14  22  14  23  14  24  14  25   9  26   8  27   8  28   8
M  ISO  4  29   8  30  14  31  14  32  14
M  END
>  <minimizedAffinity>  (1) 
-5.12271547

>  <minimizedRMSD>  (1) 
1.39974868

$$$$
