
     RDKit          3D

 33 34  0  0  0  0  0  0  0  0999 V2000
   44.5190   36.1660   44.4540 C   0  0  0  0  0  0  0  0  0  0  0  0
   45.2430   36.0490   43.2470 C   0  0  0  0  0  0  0  0  0  0  0  0
   46.1060   34.9450   43.1440 C   0  0  0  0  0  0  0  0  0  0  0  0
   46.1910   34.0840   44.1770 N   0  0  0  0  0  0  0  0  0  0  0  0
   45.4800   34.2270   45.3200 C   0  0  0  0  0  0  0  0  0  0  0  0
   44.6470   35.2670   45.4570 N   0  0  0  0  0  0  0  0  0  0  0  0
   46.8890   34.7710   41.9060 C   0  0  0  0  0  0  0  0  0  0  0  0
   48.1530   35.3130   41.7470 C   0  0  0  0  0  0  0  0  0  0  0  0
   48.5060   34.9180   40.4770 N   0  0  0  0  0  0  0  0  0  0  0  0
   47.5070   34.2030   39.9600 C   0  0  0  0  0  0  0  0  0  0  0  0
   46.4860   34.0920   40.8220 N   0  0  0  0  0  0  0  0  0  0  0  0
   45.5920   33.2780   46.4230 C   0  0  0  0  0  0  0  0  0  0  0  0
   46.8710   32.4730   46.3840 C   0  0  0  0  0  0  0  0  0  0  0  0
   47.4230   32.1600   48.0780 S   0  0  0  0  0  0  0  0  0  0  0  0
   46.4990   30.7850   48.8100 C   0  0  0  0  0  0  0  0  0  0  0  0
   46.1340   29.7950   47.7260 C   0  0  0  0  0  0  0  0  0  0  0  0
   45.2930   31.3630   49.5150 C   0  0  0  0  0  0  0  0  0  0  0  0
   43.8301   37.0138   44.5825 H   0  0  0  0  0  0  0  0  0  0  0  0
   45.1372   36.7813   42.4330 H   0  0  0  0  0  0  0  0  0  0  0  0
   48.7341   35.9136   42.4623 H   0  0  0  0  0  0  0  0  0  0  0  0
   47.5187   33.7599   38.9533 H   0  0  0  0  0  0  0  0  0  0  0  0
   45.5935   33.5969   40.6830 H   0  0  0  0  0  0  0  0  0  0  0  0
   45.5583   33.8363   47.3702 H   0  0  0  0  0  0  0  0  0  0  0  0
   44.7553   32.5696   46.3330 H   0  0  0  0  0  0  0  0  0  0  0  0
   46.6889   31.5161   45.8729 H   0  0  0  0  0  0  0  0  0  0  0  0
   47.6453   33.0324   45.8386 H   0  0  0  0  0  0  0  0  0  0  0  0
   47.0974   30.2339   49.5504 H   0  0  0  0  0  0  0  0  0  0  0  0
   45.7885   28.8578   48.1866 H   0  0  0  0  0  0  0  0  0  0  0  0
   45.3314   30.2144   47.1016 H   0  0  0  0  0  0  0  0  0  0  0  0
   47.0168   29.5930   47.1016 H   0  0  0  0  0  0  0  0  0  0  0  0
   45.4366   31.2942   50.6034 H   0  0  0  0  0  0  0  0  0  0  0  0
   45.1706   32.4176   49.2273 H   0  0  0  0  0  0  0  0  0  0  0  0
   44.3943   30.7978   49.2273 H   0  0  0  0  0  0  0  0  0  0  0  0
  1  6  2  0
  2  1  1  0
  3  2  2  0
  3  4  1  0
  4  5  2  0
  5  6  1  0
  5 12  1  0
  7  3  1  0
  8  7  2  0
  9  8  1  0
 10  9  2  0
 10 11  1  0
 11  7  1  0
 13 12  1  0
 13 14  1  0
 14 15  1  0
 15 17  1  0
 16 15  1  0
  1 18  1  0
  2 19  1  0
  8 20  1  0
 10 21  1  0
 11 22  1  0
 12 23  1  0
 12 24  1  0
 13 25  1  0
 13 26  1  0
 15 27  1  0
 16 28  1  0
 16 29  1  0
 16 30  1  0
 17 31  1  0
 17 32  1  0
 17 33  1  0
M  ISO  8  18  14  19  14  20  14  21  14  22   9  23   8  24   8  25   8
M  ISO  8  26   8  27   8  28   8  29   8  30   8  31   8  32   8  33   8
M  END
>  <minimizedAffinity>  (1) 
-5.10159731

>  <minimizedRMSD>  (1) 
1.61986303

$$$$
