
     RDKit          3D

 27 28  0  0  0  0  0  0  0  0999 V2000
   44.4930   36.1080   44.5490 C   0  0  0  0  0  0  0  0  0  0  0  0
   45.2120   36.0130   43.3250 C   0  0  0  0  0  0  0  0  0  0  0  0
   46.0730   34.9230   43.2060 C   0  0  0  0  0  0  0  0  0  0  0  0
   46.1790   34.0380   44.2320 N   0  0  0  0  0  0  0  0  0  0  0  0
   45.4680   34.1770   45.3810 C   0  0  0  0  0  0  0  0  0  0  0  0
   44.6380   35.2040   45.5280 N   0  0  0  0  0  0  0  0  0  0  0  0
   46.8490   34.7570   41.9690 C   0  0  0  0  0  0  0  0  0  0  0  0
   48.1190   35.2890   41.8000 C   0  0  0  0  0  0  0  0  0  0  0  0
   48.4650   34.9060   40.5350 N   0  0  0  0  0  0  0  0  0  0  0  0
   47.4720   34.2070   40.0170 C   0  0  0  0  0  0  0  0  0  0  0  0
   46.4450   34.0890   40.8760 N   0  0  0  0  0  0  0  0  0  0  0  0
   45.6040   33.1990   46.4780 C   0  0  0  0  0  0  0  0  0  0  0  0
   46.9170   32.4800   46.4360 C   0  0  0  0  0  0  0  0  0  0  0  0
   47.4850   32.1210   48.1060 S   0  0  0  0  0  0  0  0  0  0  0  0
   48.0800   30.3980   48.1480 C   0  0  0  0  0  0  0  0  0  0  0  0
   43.7979   36.9477   44.6962 H   0  0  0  0  0  0  0  0  0  0  0  0
   45.0956   36.7548   42.5211 H   0  0  0  0  0  0  0  0  0  0  0  0
   48.7087   35.8802   42.5161 H   0  0  0  0  0  0  0  0  0  0  0  0
   47.4837   33.7740   39.0059 H   0  0  0  0  0  0  0  0  0  0  0  0
   45.5515   33.5980   40.7295 H   0  0  0  0  0  0  0  0  0  0  0  0
   45.5214   33.7298   47.4379 H   0  0  0  0  0  0  0  0  0  0  0  0
   44.8057   32.4508   46.3640 H   0  0  0  0  0  0  0  0  0  0  0  0
   46.7969   31.5369   45.8827 H   0  0  0  0  0  0  0  0  0  0  0  0
   47.6592   33.1185   45.9347 H   0  0  0  0  0  0  0  0  0  0  0  0
   48.1919   30.0741   49.1933 H   0  0  0  0  0  0  0  0  0  0  0  0
   47.3546   29.7470   47.6380 H   0  0  0  0  0  0  0  0  0  0  0  0
   49.0525   30.3334   47.6380 H   0  0  0  0  0  0  0  0  0  0  0  0
  1  6  2  0
  2  1  1  0
  3  2  2  0
  3  4  1  0
  4  5  2  0
  5  6  1  0
  5 12  1  0
  7  3  1  0
  8  7  2  0
  9  8  1  0
 10  9  2  0
 10 11  1  0
 11  7  1  0
 13 12  1  0
 13 14  1  0
 14 15  1  0
  1 16  1  0
  2 17  1  0
  8 18  1  0
 10 19  1  0
 11 20  1  0
 12 21  1  0
 12 22  1  0
 13 23  1  0
 13 24  1  0
 15 25  1  0
 15 26  1  0
 15 27  1  0
M  ISO  8  16  14  17  14  18  14  19  14  20   9  21   8  22   8  23   8
M  ISO  4  24   8  25   8  26   8  27   8
M  END
>  <minimizedAffinity>  (1) 
-4.51735926

>  <minimizedRMSD>  (1) 
0.337503374

$$$$
