
     RDKit          3D

 36 37  0  0  0  0  0  0  0  0999 V2000
   44.4990   36.2790   44.2810 C   0  0  0  0  0  0  0  0  0  0  0  0
   45.2610   36.1420   43.0910 C   0  0  0  0  0  0  0  0  0  0  0  0
   46.1210   35.0240   43.0250 C   0  0  0  0  0  0  0  0  0  0  0  0
   46.1690   34.1800   44.0610 N   0  0  0  0  0  0  0  0  0  0  0  0
   45.4250   34.3470   45.1840 C   0  0  0  0  0  0  0  0  0  0  0  0
   44.6030   35.3810   45.2890 N   0  0  0  0  0  0  0  0  0  0  0  0
   46.9320   34.8340   41.8170 C   0  0  0  0  0  0  0  0  0  0  0  0
   48.1840   35.3590   41.6600 C   0  0  0  0  0  0  0  0  0  0  0  0
   48.5650   34.9430   40.4030 N   0  0  0  0  0  0  0  0  0  0  0  0
   47.5850   34.2240   39.8780 C   0  0  0  0  0  0  0  0  0  0  0  0
   46.5530   34.1340   40.7270 N   0  0  0  0  0  0  0  0  0  0  0  0
   45.5080   33.3900   46.3070 C   0  0  0  0  0  0  0  0  0  0  0  0
   46.7380   32.5380   46.2440 C   0  0  0  0  0  0  0  0  0  0  0  0
   47.4920   32.3710   47.8610 S   0  0  0  0  0  0  0  0  0  0  0  0
   47.1660   30.7820   48.6170 C   0  0  0  0  0  0  0  0  0  0  0  0
   48.3440   30.5000   49.5620 C   0  0  0  0  0  0  0  0  0  0  0  0
   47.0950   29.6290   47.6490 C   0  0  0  0  0  0  0  0  0  0  0  0
   45.8660   30.8000   49.4150 C   0  0  0  0  0  0  0  0  0  0  0  0
   43.8110   37.1309   44.3861 H   0  0  0  0  0  0  0  0  0  0  0  0
   45.1857   36.8663   42.2665 H   0  0  0  0  0  0  0  0  0  0  0  0
   48.7554   35.9720   42.3725 H   0  0  0  0  0  0  0  0  0  0  0  0
   47.6144   33.7630   38.8797 H   0  0  0  0  0  0  0  0  0  0  0  0
   45.6625   33.6378   40.5799 H   0  0  0  0  0  0  0  0  0  0  0  0
   45.5175   33.9541   47.2513 H   0  0  0  0  0  0  0  0  0  0  0  0
   44.6355   32.7231   46.2433 H   0  0  0  0  0  0  0  0  0  0  0  0
   46.4648   31.5401   45.8704 H   0  0  0  0  0  0  0  0  0  0  0  0
   47.4616   33.0192   45.5696 H   0  0  0  0  0  0  0  0  0  0  0  0
   48.0047   30.5812   50.6052 H   0  0  0  0  0  0  0  0  0  0  0  0
   48.7263   29.4850   49.3787 H   0  0  0  0  0  0  0  0  0  0  0  0
   49.1444   31.2319   49.3787 H   0  0  0  0  0  0  0  0  0  0  0  0
   47.0368   28.6837   48.2084 H   0  0  0  0  0  0  0  0  0  0  0  0
   46.2017   29.7361   47.0160 H   0  0  0  0  0  0  0  0  0  0  0  0
   47.9946   29.6257   47.0160 H   0  0  0  0  0  0  0  0  0  0  0  0
   46.0960   30.7968   50.4907 H   0  0  0  0  0  0  0  0  0  0  0  0
   45.2947   31.7061   49.1649 H   0  0  0  0  0  0  0  0  0  0  0  0
   45.2699   29.9100   49.1649 H   0  0  0  0  0  0  0  0  0  0  0  0
  1  6  2  0
  2  1  1  0
  3  2  2  0
  3  4  1  0
  4  5  2  0
  5  6  1  0
  5 12  1  0
  7  3  1  0
  8  7  2  0
  9  8  1  0
 10  9  2  0
 10 11  1  0
 11  7  1  0
 13 12  1  0
 13 14  1  0
 14 15  1  0
 15 18  1  0
 15 16  1  0
 17 15  1  0
  1 19  1  0
  2 20  1  0
  8 21  1  0
 10 22  1  0
 11 23  1  0
 12 24  1  0
 12 25  1  0
 13 26  1  0
 13 27  1  0
 16 28  1  0
 16 29  1  0
 16 30  1  0
 17 31  1  0
 17 32  1  0
 17 33  1  0
 18 34  1  0
 18 35  1  0
 18 36  1  0
M  ISO  8  19  14  20  14  21  14  22  14  23   9  24   8  25   8  26   8
M  ISO  8  27   8  28   8  29   8  30   8  31   8  32   8  33   8  34   8
M  ISO  2  35   8  36   8
M  END
>  <minimizedAffinity>  (1) 
-4.85953999

>  <minimizedRMSD>  (1) 
0.538341284

$$$$
