
     RDKit          3D

 31 33  0  0  0  0  0  0  0  0999 V2000
   47.6260   33.3070   43.4310 C   0  0  0  0  0  0  0  0  0  0  0  0
   47.2730   32.6460   44.6290 C   0  0  0  0  0  0  0  0  0  0  0  0
   46.1690   33.1610   45.3230 C   0  0  0  0  0  0  0  0  0  0  0  0
   45.5110   34.2380   44.8270 N   0  0  0  0  0  0  0  0  0  0  0  0
   45.8990   34.8390   43.6600 C   0  0  0  0  0  0  0  0  0  0  0  0
   46.9390   34.3670   42.9880 N   0  0  0  0  0  0  0  0  0  0  0  0
   45.7450   32.5190   46.5790 C   0  0  0  0  0  0  0  0  0  0  0  0
   46.0110   31.1970   46.8790 C   0  0  0  0  0  0  0  0  0  0  0  0
   45.4490   31.0210   48.1150 N   0  0  0  0  0  0  0  0  0  0  0  0
   44.9000   32.1650   48.4930 C   0  0  0  0  0  0  0  0  0  0  0  0
   45.0610   33.1280   47.5680 N   0  0  0  0  0  0  0  0  0  0  0  0
   45.1600   36.0140   43.1520 C   0  0  0  0  0  0  0  0  0  0  0  0
   43.7170   35.7340   42.8720 C   0  0  0  0  0  0  0  0  0  0  0  0
   43.5330   35.2740   41.1150 S   0  0  0  0  0  0  0  0  0  0  0  0
   41.8050   34.9990   40.7310 C   0  0  0  0  0  0  0  0  0  0  0  0
   40.8090   35.2770   39.8190 C   0  0  0  0  0  0  0  0  0  0  0  0
   39.6730   34.6810   40.2350 N   0  0  0  0  0  0  0  0  0  0  0  0
   39.9290   34.0250   41.3990 C   0  0  0  0  0  0  0  0  0  0  0  0
   41.2300   34.2230   41.6980 N   0  0  0  0  0  0  0  0  0  0  0  0
   48.4852   32.9421   42.8490 H   0  0  0  0  0  0  0  0  0  0  0  0
   47.8341   31.7744   44.9972 H   0  0  0  0  0  0  0  0  0  0  0  0
   46.5490   30.4579   46.2673 H   0  0  0  0  0  0  0  0  0  0  0  0
   44.3752   32.3104   49.4488 H   0  0  0  0  0  0  0  0  0  0  0  0
   44.7367   34.1048   47.6065 H   0  0  0  0  0  0  0  0  0  0  0  0
   45.2202   36.8151   43.9034 H   0  0  0  0  0  0  0  0  0  0  0  0
   45.6255   36.3023   42.1980 H   0  0  0  0  0  0  0  0  0  0  0  0
   43.3714   34.9061   43.5085 H   0  0  0  0  0  0  0  0  0  0  0  0
   43.1154   36.6293   43.0875 H   0  0  0  0  0  0  0  0  0  0  0  0
   40.9218   35.8820   38.9072 H   0  0  0  0  0  0  0  0  0  0  0  0
   39.2076   33.4402   41.9886 H   0  0  0  0  0  0  0  0  0  0  0  0
   41.7142   33.8477   42.5260 H   0  0  0  0  0  0  0  0  0  0  0  0
  1  2  2  0
  2  3  1  0
  3  7  1  0
  4  3  2  0
  5  4  1  0
  6  1  1  0
  6  5  2  0
  7  8  2  0
  7 11  1  0
  8  9  1  0
  9 10  2  0
 11 10  1  0
 12  5  1  0
 13 12  1  0
 14 13  1  0
 15 14  1  0
 15 19  1  0
 16 17  1  0
 16 15  2  0
 17 18  2  0
 18 19  1  0
  1 20  1  0
  2 21  1  0
  8 22  1  0
 10 23  1  0
 11 24  1  0
 12 25  1  0
 12 26  1  0
 13 27  1  0
 13 28  1  0
 16 29  1  0
 18 30  1  0
 19 31  1  0
M  ISO  8  20  14  21  14  22  14  23  14  24   9  25   8  26   8  27   8
M  ISO  4  28   8  29  14  30  14  31   9
M  END
>  <minimizedAffinity>  (1) 
-4.98074913

>  <minimizedRMSD>  (1) 
7.39414167

$$$$
