
     RDKit          3D

 39 42  0  0  1  0  0  0  0  0999 V2000
   44.4890   35.9480   44.8510 C   0  0  0  0  0  0  0  0  0  0  0  0
   45.1180   36.0000   43.5740 C   0  0  0  0  0  0  0  0  0  0  0  0
   45.9880   34.9770   43.2520 C   0  0  0  0  0  0  0  0  0  0  0  0
   46.1920   33.9830   44.1690 N   0  0  0  0  0  0  0  0  0  0  0  0
   45.5790   33.9760   45.3570 C   0  0  0  0  0  0  0  0  0  0  0  0
   44.7410   34.9430   45.6920 N   0  0  0  0  0  0  0  0  0  0  0  0
   45.8440   32.8830   46.3060 N   0  0  0  0  0  0  0  0  0  0  0  0
   45.1850   32.8610   47.5930 C   0  0  0  0  0  0  0  0  0  0  0  0
   46.0660   32.3080   48.6750 C   0  0  0  0  0  0  0  0  0  0  0  0
   47.4990   32.3090   48.2240 C   0  0  0  0  0  0  0  0  0  0  0  0
   47.5730   31.3190   47.0580 C   0  0  0  0  0  0  0  0  0  0  0  0
   46.7850   31.8300   45.9190 C   0  0  1  0  0  0  0  0  0  0  0  0
   46.1130   30.7680   45.1210 C   0  0  0  0  0  0  0  0  0  0  0  0
   46.1820   30.5400   43.8130 N   0  0  0  0  0  0  0  0  0  0  0  0
   45.4690   29.5090   43.4620 O   0  0  0  0  0  0  0  0  0  0  0  0
   44.9150   29.0430   44.5670 C   0  0  0  0  0  0  0  0  0  0  0  0
   45.2860   29.7910   45.6160 N   0  0  0  0  0  0  0  0  0  0  0  0
   43.8400   27.6080   44.5450 S   0  0  0  0  0  0  0  0  0  0  0  0
   44.1340   26.7500   46.0870 C   0  0  0  0  0  0  0  0  0  0  0  0
   43.0530   26.3190   46.8400 C   0  0  0  0  0  0  0  0  0  0  0  0
   43.2370   25.6440   48.0520 C   0  0  0  0  0  0  0  0  0  0  0  0
   44.4880   25.4170   48.4830 N   0  0  0  0  0  0  0  0  0  0  0  0
   45.5510   25.8420   47.7420 C   0  0  0  0  0  0  0  0  0  0  0  0
   45.3910   26.5010   46.5580 N   0  0  0  0  0  0  0  0  0  0  0  0
   43.7892   36.7435   45.1466 H   0  0  0  0  0  0  0  0  0  0  0  0
   44.9185   36.8229   42.8718 H   0  0  0  0  0  0  0  0  0  0  0  0
   46.5047   34.9620   42.2810 H   0  0  0  0  0  0  0  0  0  0  0  0
   44.8982   33.8885   47.8611 H   0  0  0  0  0  0  0  0  0  0  0  0
   44.3046   32.2069   47.5090 H   0  0  0  0  0  0  0  0  0  0  0  0
   45.9680   32.9295   49.5773 H   0  0  0  0  0  0  0  0  0  0  0  0
   45.7589   31.2753   48.8970 H   0  0  0  0  0  0  0  0  0  0  0  0
   47.7946   33.3149   47.8912 H   0  0  0  0  0  0  0  0  0  0  0  0
   48.1793   32.0234   49.0399 H   0  0  0  0  0  0  0  0  0  0  0  0
   48.6217   31.1946   46.7503 H   0  0  0  0  0  0  0  0  0  0  0  0
   47.1637   30.3493   47.3776 H   0  0  0  0  0  0  0  0  0  0  0  0
   47.5326   32.2842   45.2521 H   0  0  0  0  0  0  0  0  0  0  0  0
   42.0320   26.5110   46.4784 H   0  0  0  0  0  0  0  0  0  0  0  0
   42.3719   25.3054   48.6411 H   0  0  0  0  0  0  0  0  0  0  0  0
   46.5691   25.6475   48.1103 H   0  0  0  0  0  0  0  0  0  0  0  0
  1  6  2  0
  2  1  1  0
  3  2  2  0
  3  4  1  0
  4  5  2  0
  5  6  1  0
  5  7  1  0
  7  8  1  0
  8  9  1  0
 10  9  1  0
 11 10  1  0
 12  7  1  0
 12 11  1  0
 13 17  1  0
 13 12  1  0
 14 13  2  0
 15 14  1  0
 15 16  1  0
 16 17  2  0
 18 16  1  0
 18 19  1  0
 19 24  1  0
 19 20  2  0
 20 21  1  0
 21 22  2  0
 23 22  1  0
 24 23  2  0
  1 25  1  0
  2 26  1  0
  3 27  1  0
  8 28  1  0
  8 29  1  0
  9 30  1  0
  9 31  1  0
 10 32  1  0
 10 33  1  0
 11 34  1  0
 11 35  1  0
 12 36  1  6
 20 37  1  0
 21 38  1  0
 23 39  1  0
M  ISO  8  25  14  26  14  27  14  28  13  29  13  30  13  31  13  32  13
M  ISO  7  33  13  34  13  35  13  36  13  37  14  38  14  39  14
M  END
>  <minimizedAffinity>  (1) 
-5.49104595

>  <minimizedRMSD>  (1) 
1.36154914

$$$$
