
     RDKit          3D

 50 54  0  0  0  0  0  0  0  0999 V2000
   46.9220   32.7610   46.7810 C   0  0  0  0  0  0  0  0  0  0  0  0
   45.5180   33.1380   46.3930 C   0  0  0  0  0  0  0  0  0  0  0  0
   44.5250   36.1480   44.5610 C   0  0  0  0  0  0  0  0  0  0  0  0
   45.2500   36.0360   43.3470 C   0  0  0  0  0  0  0  0  0  0  0  0
   46.0860   34.9180   43.2050 C   0  0  0  0  0  0  0  0  0  0  0  0
   46.1430   34.0310   44.2240 N   0  0  0  0  0  0  0  0  0  0  0  0
   45.4390   34.1770   45.3530 C   0  0  0  0  0  0  0  0  0  0  0  0
   44.6390   35.2160   45.5300 N   0  0  0  0  0  0  0  0  0  0  0  0
   46.8610   34.7500   41.9600 C   0  0  0  0  0  0  0  0  0  0  0  0
   48.1120   35.2920   41.8030 C   0  0  0  0  0  0  0  0  0  0  0  0
   48.4730   34.9100   40.5370 N   0  0  0  0  0  0  0  0  0  0  0  0
   47.4790   34.1940   40.0200 C   0  0  0  0  0  0  0  0  0  0  0  0
   46.4540   34.0730   40.8790 N   0  0  0  0  0  0  0  0  0  0  0  0
   46.8880   32.0510   48.4480 S   0  0  0  0  0  0  0  0  0  0  0  0
   48.3120   31.0950   48.8120 C   0  0  0  0  0  0  0  0  0  0  0  0
   49.4470   31.3100   49.6050 C   0  0  0  0  0  0  0  0  0  0  0  0
   50.3190   30.2730   49.4620 N   0  0  0  0  0  0  0  0  0  0  0  0
   49.7190   29.3990   48.5680 C   0  0  0  0  0  0  0  0  0  0  0  0
   50.2900   28.1790   48.1560 C   0  0  0  0  0  0  0  0  0  0  0  0
   49.5130   27.4270   47.2740 C   0  0  0  0  0  0  0  0  0  0  0  0
   48.2530   27.9020   46.8660 C   0  0  0  0  0  0  0  0  0  0  0  0
   47.8110   29.1020   47.3450 C   0  0  0  0  0  0  0  0  0  0  0  0
   48.4900   29.9160   48.1880 C   0  0  0  0  0  0  0  0  0  0  0  0
   46.4330   29.0250   47.0170 N   0  0  0  0  0  0  0  0  0  0  0  0
   45.4930   28.3050   47.9050 C   0  0  0  0  0  0  0  0  0  0  0  0
   44.4950   27.7250   46.9010 C   0  0  0  0  0  0  0  0  0  0  0  0
   44.2770   29.0140   46.0880 C   0  0  0  0  0  0  0  0  0  0  0  0
   45.7110   29.3790   45.8170 C   0  0  0  0  0  0  0  0  0  0  0  0
   47.5622   33.6555   46.7718 H   0  0  0  0  0  0  0  0  0  0  0  0
   47.3258   32.0276   46.0675 H   0  0  0  0  0  0  0  0  0  0  0  0
   45.0091   32.2369   46.0201 H   0  0  0  0  0  0  0  0  0  0  0  0
   45.0416   33.5540   47.2930 H   0  0  0  0  0  0  0  0  0  0  0  0
   43.8584   37.0094   44.7151 H   0  0  0  0  0  0  0  0  0  0  0  0
   45.1609   36.7916   42.5526 H   0  0  0  0  0  0  0  0  0  0  0  0
   48.6887   35.8913   42.5229 H   0  0  0  0  0  0  0  0  0  0  0  0
   47.4944   33.7545   39.0118 H   0  0  0  0  0  0  0  0  0  0  0  0
   45.5630   33.5756   40.7390 H   0  0  0  0  0  0  0  0  0  0  0  0
   49.6100   32.1871   50.2485 H   0  0  0  0  0  0  0  0  0  0  0  0
   51.2337   30.1614   49.9222 H   0  0  0  0  0  0  0  0  0  0  0  0
   51.2778   27.8431   48.5046 H   0  0  0  0  0  0  0  0  0  0  0  0
   49.8856   26.4628   46.8977 H   0  0  0  0  0  0  0  0  0  0  0  0
   47.6333   27.3156   46.1717 H   0  0  0  0  0  0  0  0  0  0  0  0
   46.0034   27.5093   48.4675 H   0  0  0  0  0  0  0  0  0  0  0  0
   45.0315   28.9413   48.6745 H   0  0  0  0  0  0  0  0  0  0  0  0
   44.9287   26.9145   46.2968 H   0  0  0  0  0  0  0  0  0  0  0  0
   43.5961   27.2486   47.3193 H   0  0  0  0  0  0  0  0  0  0  0  0
   43.7188   28.8244   45.1593 H   0  0  0  0  0  0  0  0  0  0  0  0
   43.6821   29.7908   46.5907 H   0  0  0  0  0  0  0  0  0  0  0  0
   46.0956   28.8128   44.9559 H   0  0  0  0  0  0  0  0  0  0  0  0
   45.8215   30.4462   45.5742 H   0  0  0  0  0  0  0  0  0  0  0  0
  1 14  1  0
  2  1  1  0
  3  8  2  0
  4  3  1  0
  5  4  2  0
  5  6  1  0
  6  7  2  0
  7  8  1  0
  7  2  1  0
  9  5  1  0
 10  9  2  0
 11 10  1  0
 12 11  2  0
 12 13  1  0
 13  9  1  0
 14 15  1  0
 15 16  2  0
 17 16  1  0
 18 17  1  0
 19 18  2  0
 20 19  1  0
 21 20  2  0
 21 22  1  0
 22 23  2  0
 23 18  1  0
 23 15  1  0
 24 22  1  0
 24 25  1  0
 26 25  1  0
 27 26  1  0
 28 27  1  0
 28 24  1  0
  1 29  1  0
  1 30  1  0
  2 31  1  0
  2 32  1  0
  3 33  1  0
  4 34  1  0
 10 35  1  0
 12 36  1  0
 13 37  1  0
 16 38  1  0
 17 39  1  0
 19 40  1  0
 20 41  1  0
 21 42  1  0
 25 43  1  0
 25 44  1  0
 26 45  1  0
 26 46  1  0
 27 47  1  0
 27 48  1  0
 28 49  1  0
 28 50  1  0
M  ISO  8  29   8  30   8  31   8  32   8  33  14  34  14  35  14  36  14
M  ISO  8  37   9  38  14  39   9  40  14  41  14  42  14  43  13  44  13
M  ISO  6  45  13  46  13  47  13  48  13  49  13  50  13
M  END
>  <minimizedAffinity>  (1) 
-5.89713764

>  <minimizedRMSD>  (1) 
2.58984137

$$$$
