
     RDKit          3D

 45 49  0  0  0  0  0  0  0  0999 V2000
   47.0090   32.7570   46.8370 C   0  0  0  0  0  0  0  0  0  0  0  0
   45.6040   33.0460   46.4050 C   0  0  0  0  0  0  0  0  0  0  0  0
   44.5310   36.0510   44.6170 C   0  0  0  0  0  0  0  0  0  0  0  0
   45.2400   35.9630   43.3890 C   0  0  0  0  0  0  0  0  0  0  0  0
   46.0980   34.8610   43.2240 C   0  0  0  0  0  0  0  0  0  0  0  0
   46.1800   33.9710   44.2410 N   0  0  0  0  0  0  0  0  0  0  0  0
   45.4880   34.0970   45.3850 C   0  0  0  0  0  0  0  0  0  0  0  0
   44.6720   35.1200   45.5810 N   0  0  0  0  0  0  0  0  0  0  0  0
   46.8610   34.7200   41.9710 C   0  0  0  0  0  0  0  0  0  0  0  0
   48.0970   35.2980   41.8050 C   0  0  0  0  0  0  0  0  0  0  0  0
   48.4540   34.9330   40.5290 N   0  0  0  0  0  0  0  0  0  0  0  0
   47.4700   34.1940   40.0240 C   0  0  0  0  0  0  0  0  0  0  0  0
   46.4550   34.0380   40.8970 N   0  0  0  0  0  0  0  0  0  0  0  0
   46.9970   32.0830   48.5150 S   0  0  0  0  0  0  0  0  0  0  0  0
   48.4530   31.1790   48.9060 C   0  0  0  0  0  0  0  0  0  0  0  0
   49.5540   31.4150   49.7360 C   0  0  0  0  0  0  0  0  0  0  0  0
   50.4570   30.4080   49.6060 N   0  0  0  0  0  0  0  0  0  0  0  0
   49.9230   29.5240   48.6860 C   0  0  0  0  0  0  0  0  0  0  0  0
   50.5400   28.3350   48.2650 C   0  0  0  0  0  0  0  0  0  0  0  0
   49.8230   27.5780   47.3380 C   0  0  0  0  0  0  0  0  0  0  0  0
   48.5640   28.0190   46.8910 C   0  0  0  0  0  0  0  0  0  0  0  0
   48.0700   29.1920   47.3830 C   0  0  0  0  0  0  0  0  0  0  0  0
   48.6830   30.0120   48.2690 C   0  0  0  0  0  0  0  0  0  0  0  0
   46.7140   29.1080   47.0340 N   0  0  0  0  0  0  0  0  0  0  0  0
   45.5280   28.8950   47.5970 C   0  0  0  0  0  0  0  0  0  0  0  0
   44.4700   29.0290   46.6980 C   0  0  0  0  0  0  0  0  0  0  0  0
   45.0400   29.3430   45.5210 N   0  0  0  0  0  0  0  0  0  0  0  0
   46.3650   29.3840   45.7450 C   0  0  0  0  0  0  0  0  0  0  0  0
   47.5966   33.6867   46.8195 H   0  0  0  0  0  0  0  0  0  0  0  0
   47.4604   32.0251   46.1510 H   0  0  0  0  0  0  0  0  0  0  0  0
   45.1722   32.1205   45.9964 H   0  0  0  0  0  0  0  0  0  0  0  0
   45.0702   33.4110   47.2948 H   0  0  0  0  0  0  0  0  0  0  0  0
   43.8509   36.8991   44.7849 H   0  0  0  0  0  0  0  0  0  0  0  0
   45.1231   36.7229   42.6023 H   0  0  0  0  0  0  0  0  0  0  0  0
   48.6653   35.9077   42.5228 H   0  0  0  0  0  0  0  0  0  0  0  0
   47.4831   33.7611   39.0128 H   0  0  0  0  0  0  0  0  0  0  0  0
   45.5760   33.5171   40.7668 H   0  0  0  0  0  0  0  0  0  0  0  0
   49.6714   32.2869   50.3963 H   0  0  0  0  0  0  0  0  0  0  0  0
   51.3592   30.3204   50.0951 H   0  0  0  0  0  0  0  0  0  0  0  0
   51.5246   28.0208   48.6416 H   0  0  0  0  0  0  0  0  0  0  0  0
   50.2424   26.6355   46.9563 H   0  0  0  0  0  0  0  0  0  0  0  0
   47.9899   27.4305   46.1602 H   0  0  0  0  0  0  0  0  0  0  0  0
   45.3955   28.6402   48.6589 H   0  0  0  0  0  0  0  0  0  0  0  0
   43.3973   28.9043   46.9072 H   0  0  0  0  0  0  0  0  0  0  0  0
   47.0998   29.6186   44.9608 H   0  0  0  0  0  0  0  0  0  0  0  0
  1 14  1  0
  2  1  1  0
  3  8  2  0
  4  3  1  0
  5  4  2  0
  5  6  1  0
  6  7  2  0
  7  8  1  0
  7  2  1  0
  9  5  1  0
 10  9  2  0
 11 10  1  0
 12 11  2  0
 12 13  1  0
 13  9  1  0
 14 15  1  0
 15 16  2  0
 17 16  1  0
 18 17  1  0
 19 18  2  0
 20 19  1  0
 21 20  2  0
 21 22  1  0
 22 23  2  0
 23 18  1  0
 23 15  1  0
 24 22  1  0
 24 25  1  0
 26 25  2  0
 27 28  2  0
 27 26  1  0
 28 24  1  0
  1 29  1  0
  1 30  1  0
  2 31  1  0
  2 32  1  0
  3 33  1  0
  4 34  1  0
 10 35  1  0
 12 36  1  0
 13 37  1  0
 16 38  1  0
 17 39  1  0
 19 40  1  0
 20 41  1  0
 21 42  1  0
 25 43  1  0
 26 44  1  0
 28 45  1  0
M  ISO  8  29   8  30   8  31   8  32   8  33  14  34  14  35  14  36  14
M  ISO  8  37   9  38  14  39   9  40  14  41  14  42  14  43  14  44  14
M  ISO  1  45  14
M  END
>  <minimizedAffinity>  (1) 
-5.84189844

>  <minimizedRMSD>  (1) 
2.62900376

$$$$
