
     RDKit          3D

 44 48  0  0  0  0  0  0  0  0999 V2000
   47.0180   32.7490   46.8350 C   0  0  0  0  0  0  0  0  0  0  0  0
   45.6120   33.0380   46.4130 C   0  0  0  0  0  0  0  0  0  0  0  0
   44.5270   36.0430   44.6230 C   0  0  0  0  0  0  0  0  0  0  0  0
   45.2390   35.9570   43.4010 C   0  0  0  0  0  0  0  0  0  0  0  0
   46.1030   34.8600   43.2370 C   0  0  0  0  0  0  0  0  0  0  0  0
   46.1870   33.9740   44.2510 N   0  0  0  0  0  0  0  0  0  0  0  0
   45.4950   34.0900   45.3910 C   0  0  0  0  0  0  0  0  0  0  0  0
   44.6720   35.1070   45.5890 N   0  0  0  0  0  0  0  0  0  0  0  0
   46.8650   34.7210   41.9830 C   0  0  0  0  0  0  0  0  0  0  0  0
   48.0980   35.2970   41.8070 C   0  0  0  0  0  0  0  0  0  0  0  0
   48.4450   34.9290   40.5310 N   0  0  0  0  0  0  0  0  0  0  0  0
   47.4600   34.1900   40.0280 C   0  0  0  0  0  0  0  0  0  0  0  0
   46.4550   34.0370   40.9030 N   0  0  0  0  0  0  0  0  0  0  0  0
   47.0120   32.0910   48.5240 S   0  0  0  0  0  0  0  0  0  0  0  0
   48.4710   31.1890   48.9110 C   0  0  0  0  0  0  0  0  0  0  0  0
   49.5770   31.4360   49.7320 C   0  0  0  0  0  0  0  0  0  0  0  0
   50.4760   30.4240   49.6070 N   0  0  0  0  0  0  0  0  0  0  0  0
   49.9350   29.5300   48.7000 C   0  0  0  0  0  0  0  0  0  0  0  0
   50.5500   28.3340   48.2930 C   0  0  0  0  0  0  0  0  0  0  0  0
   49.8220   27.5700   47.3780 C   0  0  0  0  0  0  0  0  0  0  0  0
   48.5630   28.0070   46.9320 C   0  0  0  0  0  0  0  0  0  0  0  0
   48.0750   29.1880   47.4120 C   0  0  0  0  0  0  0  0  0  0  0  0
   48.6970   30.0160   48.2860 C   0  0  0  0  0  0  0  0  0  0  0  0
   46.7200   29.1140   47.0550 N   0  0  0  0  0  0  0  0  0  0  0  0
   46.3980   29.3570   45.7490 C   0  0  0  0  0  0  0  0  0  0  0  0
   45.0560   29.3240   45.5330 N   0  0  0  0  0  0  0  0  0  0  0  0
   44.5240   29.0530   46.7400 C   0  0  0  0  0  0  0  0  0  0  0  0
   45.5480   28.9390   47.6040 N   0  0  0  0  0  0  0  0  0  0  0  0
   47.6092   33.6761   46.8037 H   0  0  0  0  0  0  0  0  0  0  0  0
   47.4634   32.0100   46.1528 H   0  0  0  0  0  0  0  0  0  0  0  0
   45.1760   32.1129   46.0078 H   0  0  0  0  0  0  0  0  0  0  0  0
   45.0820   33.4027   47.3052 H   0  0  0  0  0  0  0  0  0  0  0  0
   43.8425   36.8878   44.7896 H   0  0  0  0  0  0  0  0  0  0  0  0
   45.1208   36.7163   42.6140 H   0  0  0  0  0  0  0  0  0  0  0  0
   48.6718   35.9083   42.5191 H   0  0  0  0  0  0  0  0  0  0  0  0
   47.4686   33.7568   39.0169 H   0  0  0  0  0  0  0  0  0  0  0  0
   45.5751   33.5168   40.7761 H   0  0  0  0  0  0  0  0  0  0  0  0
   49.7003   32.3160   50.3804 H   0  0  0  0  0  0  0  0  0  0  0  0
   51.3809   30.3394   50.0916 H   0  0  0  0  0  0  0  0  0  0  0  0
   51.5355   28.0214   48.6686 H   0  0  0  0  0  0  0  0  0  0  0  0
   50.2361   26.6217   47.0047 H   0  0  0  0  0  0  0  0  0  0  0  0
   47.9836   27.4105   46.2120 H   0  0  0  0  0  0  0  0  0  0  0  0
   47.1403   29.5566   44.9621 H   0  0  0  0  0  0  0  0  0  0  0  0
   43.4547   28.9453   46.9746 H   0  0  0  0  0  0  0  0  0  0  0  0
  1 14  1  0
  2  1  1  0
  3  8  2  0
  4  3  1  0
  5  4  2  0
  5  6  1  0
  6  7  2  0
  7  8  1  0
  7  2  1  0
  9  5  1  0
 10  9  2  0
 11 10  1  0
 12 11  2  0
 12 13  1  0
 13  9  1  0
 14 15  1  0
 15 16  2  0
 17 16  1  0
 18 17  1  0
 19 18  2  0
 20 19  1  0
 21 20  2  0
 21 22  1  0
 22 23  2  0
 23 18  1  0
 23 15  1  0
 24 22  1  0
 24 28  1  0
 25 24  1  0
 26 25  2  0
 26 27  1  0
 27 28  2  0
  1 29  1  0
  1 30  1  0
  2 31  1  0
  2 32  1  0
  3 33  1  0
  4 34  1  0
 10 35  1  0
 12 36  1  0
 13 37  1  0
 16 38  1  0
 17 39  1  0
 19 40  1  0
 20 41  1  0
 21 42  1  0
 25 43  1  0
 27 44  1  0
M  ISO  8  29   8  30   8  31   8  32   8  33  14  34  14  35  14  36  14
M  ISO  8  37   9  38  14  39   9  40  14  41  14  42  14  43  14  44  14
M  END
>  <minimizedAffinity>  (1) 
-5.84490776

>  <minimizedRMSD>  (1) 
2.63008261

$$$$
