
     RDKit          3D

 43 47  0  0  0  0  0  0  0  0999 V2000
   46.9870   32.7970   46.8040 C   0  0  0  0  0  0  0  0  0  0  0  0
   45.5830   33.1290   46.4330 C   0  0  0  0  0  0  0  0  0  0  0  0
   44.4960   36.0970   44.5860 C   0  0  0  0  0  0  0  0  0  0  0  0
   45.2060   35.9900   43.3720 C   0  0  0  0  0  0  0  0  0  0  0  0
   46.0690   34.8870   43.2230 C   0  0  0  0  0  0  0  0  0  0  0  0
   46.1540   34.0150   44.2500 N   0  0  0  0  0  0  0  0  0  0  0  0
   45.4620   34.1550   45.3850 C   0  0  0  0  0  0  0  0  0  0  0  0
   44.6450   35.1780   45.5560 N   0  0  0  0  0  0  0  0  0  0  0  0
   46.8400   34.7310   41.9750 C   0  0  0  0  0  0  0  0  0  0  0  0
   48.0920   35.2840   41.8220 C   0  0  0  0  0  0  0  0  0  0  0  0
   48.4520   34.9080   40.5530 N   0  0  0  0  0  0  0  0  0  0  0  0
   47.4610   34.1910   40.0360 C   0  0  0  0  0  0  0  0  0  0  0  0
   46.4370   34.0590   40.8930 N   0  0  0  0  0  0  0  0  0  0  0  0
   46.9950   32.0620   48.4750 S   0  0  0  0  0  0  0  0  0  0  0  0
   48.5100   31.2500   48.8410 C   0  0  0  0  0  0  0  0  0  0  0  0
   49.6090   31.5420   49.6670 C   0  0  0  0  0  0  0  0  0  0  0  0
   50.5730   30.5950   49.5100 N   0  0  0  0  0  0  0  0  0  0  0  0
   50.0860   29.6980   48.5800 C   0  0  0  0  0  0  0  0  0  0  0  0
   50.7750   28.5600   48.1240 C   0  0  0  0  0  0  0  0  0  0  0  0
   50.0970   27.7800   47.1860 C   0  0  0  0  0  0  0  0  0  0  0  0
   48.8060   28.1400   46.7580 C   0  0  0  0  0  0  0  0  0  0  0  0
   48.2420   29.2730   47.2870 C   0  0  0  0  0  0  0  0  0  0  0  0
   48.8060   30.1170   48.1840 C   0  0  0  0  0  0  0  0  0  0  0  0
   46.8240   29.1320   47.0180 C   0  0  0  0  0  0  0  0  0  0  0  0
   45.7450   28.8880   47.7410 N   0  0  0  0  0  0  0  0  0  0  0  0
   44.6540   29.0450   47.0170 O   0  0  0  0  0  0  0  0  0  0  0  0
   44.9890   29.3960   45.8030 C   0  0  0  0  0  0  0  0  0  0  0  0
   46.3190   29.4380   45.8400 N   0  0  0  0  0  0  0  0  0  0  0  0
   47.5970   33.7124   46.7997 H   0  0  0  0  0  0  0  0  0  0  0  0
   47.4065   32.0835   46.0795 H   0  0  0  0  0  0  0  0  0  0  0  0
   45.0946   32.2108   46.0747 H   0  0  0  0  0  0  0  0  0  0  0  0
   45.1070   33.5411   47.3350 H   0  0  0  0  0  0  0  0  0  0  0  0
   43.8112   36.9437   44.7413 H   0  0  0  0  0  0  0  0  0  0  0  0
   45.0904   36.7379   42.5737 H   0  0  0  0  0  0  0  0  0  0  0  0
   48.6657   35.8834   42.5442 H   0  0  0  0  0  0  0  0  0  0  0  0
   47.4776   33.7569   39.0254 H   0  0  0  0  0  0  0  0  0  0  0  0
   45.5488   33.5574   40.7502 H   0  0  0  0  0  0  0  0  0  0  0  0
   49.6793   32.4085   50.3410 H   0  0  0  0  0  0  0  0  0  0  0  0
   51.4839   30.5551   49.9890 H   0  0  0  0  0  0  0  0  0  0  0  0
   51.7821   28.3016   48.4830 H   0  0  0  0  0  0  0  0  0  0  0  0
   50.5755   26.8773   46.7784 H   0  0  0  0  0  0  0  0  0  0  0  0
   48.2642   27.5302   46.0200 H   0  0  0  0  0  0  0  0  0  0  0  0
   44.3268   29.6072   44.9504 H   0  0  0  0  0  0  0  0  0  0  0  0
  1 14  1  0
  2  1  1  0
  3  8  2  0
  4  3  1  0
  5  4  2  0
  5  6  1  0
  6  7  2  0
  7  8  1  0
  7  2  1  0
  9  5  1  0
 10  9  2  0
 11 10  1  0
 12 11  2  0
 12 13  1  0
 13  9  1  0
 14 15  1  0
 15 16  2  0
 17 16  1  0
 18 17  1  0
 19 18  2  0
 20 19  1  0
 21 20  2  0
 21 22  1  0
 22 23  2  0
 23 18  1  0
 23 15  1  0
 24 22  1  0
 24 25  2  0
 26 25  1  0
 27 28  2  0
 27 26  1  0
 28 24  1  0
  1 29  1  0
  1 30  1  0
  2 31  1  0
  2 32  1  0
  3 33  1  0
  4 34  1  0
 10 35  1  0
 12 36  1  0
 13 37  1  0
 16 38  1  0
 17 39  1  0
 19 40  1  0
 20 41  1  0
 21 42  1  0
 27 43  1  0
M  ISO  8  29   8  30   8  31   8  32   8  33  14  34  14  35  14  36  14
M  ISO  7  37   9  38  14  39   9  40  14  41  14  42  14  43  14
M  END
>  <minimizedAffinity>  (1) 
-5.8862443

>  <minimizedRMSD>  (1) 
2.70860767

$$$$
