
     RDKit          3D

 41 44  0  0  0  0  0  0  0  0999 V2000
   46.9850   32.5840   46.4450 C   0  0  0  0  0  0  0  0  0  0  0  0
   45.6580   33.2540   46.4160 C   0  0  0  0  0  0  0  0  0  0  0  0
   44.4590   36.1170   44.4690 C   0  0  0  0  0  0  0  0  0  0  0  0
   45.1830   36.0070   43.2580 C   0  0  0  0  0  0  0  0  0  0  0  0
   46.0950   34.9380   43.1590 C   0  0  0  0  0  0  0  0  0  0  0  0
   46.2150   34.1010   44.2140 N   0  0  0  0  0  0  0  0  0  0  0  0
   45.5050   34.2480   45.3430 C   0  0  0  0  0  0  0  0  0  0  0  0
   44.6390   35.2320   45.4850 N   0  0  0  0  0  0  0  0  0  0  0  0
   46.8720   34.7690   41.9200 C   0  0  0  0  0  0  0  0  0  0  0  0
   48.1260   35.3060   41.7610 C   0  0  0  0  0  0  0  0  0  0  0  0
   48.4770   34.9180   40.4910 N   0  0  0  0  0  0  0  0  0  0  0  0
   47.4780   34.2090   39.9750 C   0  0  0  0  0  0  0  0  0  0  0  0
   46.4580   34.0930   40.8360 N   0  0  0  0  0  0  0  0  0  0  0  0
   47.3740   32.0530   48.1270 S   0  0  0  0  0  0  0  0  0  0  0  0
   48.2340   30.5260   48.2010 C   0  0  0  0  0  0  0  0  0  0  0  0
   49.5530   30.1620   48.4860 C   0  0  0  0  0  0  0  0  0  0  0  0
   49.7100   28.8260   48.3060 N   0  0  0  0  0  0  0  0  0  0  0  0
   48.4920   28.3290   47.9060 C   0  0  0  0  0  0  0  0  0  0  0  0
   48.2230   26.9860   47.5890 C   0  0  0  0  0  0  0  0  0  0  0  0
   46.9120   26.7190   47.1860 C   0  0  0  0  0  0  0  0  0  0  0  0
   45.9560   27.7360   47.1250 C   0  0  0  0  0  0  0  0  0  0  0  0
   46.3310   28.9990   47.4620 C   0  0  0  0  0  0  0  0  0  0  0  0
   47.5730   29.4030   47.8490 C   0  0  0  0  0  0  0  0  0  0  0  0
   45.0840   29.7510   47.7270 C   0  0  0  0  0  0  0  0  0  0  0  0
   47.7558   33.2878   46.0980 H   0  0  0  0  0  0  0  0  0  0  0  0
   46.9589   31.7037   45.7860 H   0  0  0  0  0  0  0  0  0  0  0  0
   44.8853   32.4824   46.2834 H   0  0  0  0  0  0  0  0  0  0  0  0
   45.5595   33.7989   47.3665 H   0  0  0  0  0  0  0  0  0  0  0  0
   43.7351   36.9362   44.5907 H   0  0  0  0  0  0  0  0  0  0  0  0
   45.0405   36.7216   42.4340 H   0  0  0  0  0  0  0  0  0  0  0  0
   48.7088   35.9030   42.4779 H   0  0  0  0  0  0  0  0  0  0  0  0
   47.4875   33.7715   38.9658 H   0  0  0  0  0  0  0  0  0  0  0  0
   45.5642   33.6000   40.6985 H   0  0  0  0  0  0  0  0  0  0  0  0
   50.3449   30.8543   48.8078 H   0  0  0  0  0  0  0  0  0  0  0  0
   50.5769   28.2868   48.4430 H   0  0  0  0  0  0  0  0  0  0  0  0
   48.9905   26.2007   47.6537 H   0  0  0  0  0  0  0  0  0  0  0  0
   46.6282   25.6920   46.9125 H   0  0  0  0  0  0  0  0  0  0  0  0
   44.9239   27.5201   46.8116 H   0  0  0  0  0  0  0  0  0  0  0  0
   44.9341   29.8414   48.8130 H   0  0  0  0  0  0  0  0  0  0  0  0
   45.1594   30.7544   47.2825 H   0  0  0  0  0  0  0  0  0  0  0  0
   44.2318   29.2161   47.2825 H   0  0  0  0  0  0  0  0  0  0  0  0
  1 14  1  0
  2  1  1  0
  3  8  2  0
  4  3  1  0
  5  4  2  0
  5  6  1  0
  6  7  2  0
  7  8  1  0
  7  2  1  0
  9  5  1  0
 10  9  2  0
 11 10  1  0
 12 11  2  0
 12 13  1  0
 13  9  1  0
 14 15  1  0
 15 16  2  0
 17 16  1  0
 18 17  1  0
 19 18  2  0
 20 19  1  0
 21 20  2  0
 21 22  1  0
 22 24  1  0
 22 23  2  0
 23 18  1  0
 23 15  1  0
  1 25  1  0
  1 26  1  0
  2 27  1  0
  2 28  1  0
  3 29  1  0
  4 30  1  0
 10 31  1  0
 12 32  1  0
 13 33  1  0
 16 34  1  0
 17 35  1  0
 19 36  1  0
 20 37  1  0
 21 38  1  0
 24 39  1  0
 24 40  1  0
 24 41  1  0
M  ISO  8  25   8  26   8  27   8  28   8  29  14  30  14  31  14  32  14
M  ISO  8  33   9  34  14  35   9  36  14  37  14  38  14  39   8  40   8
M  ISO  1  41   8
M  END
>  <minimizedAffinity>  (1) 
-5.6204958

>  <minimizedRMSD>  (1) 
1.1532892

$$$$
