
     RDKit          3D

 45 49  0  0  0  0  0  0  0  0999 V2000
   46.9830   32.7950   46.6850 C   0  0  0  0  0  0  0  0  0  0  0  0
   45.5890   33.1300   46.2740 C   0  0  0  0  0  0  0  0  0  0  0  0
   44.5560   36.1280   44.4540 C   0  0  0  0  0  0  0  0  0  0  0  0
   45.2850   36.0330   43.2420 C   0  0  0  0  0  0  0  0  0  0  0  0
   46.1470   34.9280   43.0960 C   0  0  0  0  0  0  0  0  0  0  0  0
   46.2130   34.0410   44.1170 N   0  0  0  0  0  0  0  0  0  0  0  0
   45.5000   34.1770   45.2460 C   0  0  0  0  0  0  0  0  0  0  0  0
   44.6810   35.2000   45.4250 N   0  0  0  0  0  0  0  0  0  0  0  0
   46.9370   34.7800   41.8610 C   0  0  0  0  0  0  0  0  0  0  0  0
   48.1820   35.3480   41.7270 C   0  0  0  0  0  0  0  0  0  0  0  0
   48.5610   34.9760   40.4570 N   0  0  0  0  0  0  0  0  0  0  0  0
   47.5820   34.2490   39.9290 C   0  0  0  0  0  0  0  0  0  0  0  0
   46.5510   34.1050   40.7750 N   0  0  0  0  0  0  0  0  0  0  0  0
   47.0160   32.3370   48.4330 S   0  0  0  0  0  0  0  0  0  0  0  0
   48.2800   31.1880   48.8280 C   0  0  0  0  0  0  0  0  0  0  0  0
   49.4680   31.2490   49.5700 C   0  0  0  0  0  0  0  0  0  0  0  0
   50.1370   30.0730   49.4700 N   0  0  0  0  0  0  0  0  0  0  0  0
   49.3820   29.2500   48.6650 C   0  0  0  0  0  0  0  0  0  0  0  0
   49.7250   27.9400   48.2870 C   0  0  0  0  0  0  0  0  0  0  0  0
   48.8000   27.3060   47.4510 C   0  0  0  0  0  0  0  0  0  0  0  0
   47.6380   27.9350   47.0540 C   0  0  0  0  0  0  0  0  0  0  0  0
   47.4010   29.2040   47.4820 C   0  0  0  0  0  0  0  0  0  0  0  0
   48.2190   29.9560   48.2770 C   0  0  0  0  0  0  0  0  0  0  0  0
   45.9500   29.4920   47.2950 C   0  0  0  0  0  0  0  0  0  0  0  0
   44.9330   28.3840   47.3380 C   0  0  0  0  0  0  0  0  0  0  0  0
   44.9770   29.2930   48.4770 C   0  0  0  0  0  0  0  0  0  0  0  0
   47.6306   33.6696   46.5249 H   0  0  0  0  0  0  0  0  0  0  0  0
   47.3448   31.9490   46.0822 H   0  0  0  0  0  0  0  0  0  0  0  0
   45.1168   32.2181   45.8797 H   0  0  0  0  0  0  0  0  0  0  0  0
   45.0805   33.5202   47.1680 H   0  0  0  0  0  0  0  0  0  0  0  0
   43.8734   36.9771   44.6060 H   0  0  0  0  0  0  0  0  0  0  0  0
   45.1822   36.7892   42.4498 H   0  0  0  0  0  0  0  0  0  0  0  0
   48.7397   35.9528   42.4573 H   0  0  0  0  0  0  0  0  0  0  0  0
   47.6133   33.8166   38.9181 H   0  0  0  0  0  0  0  0  0  0  0  0
   45.6695   33.5943   40.6230 H   0  0  0  0  0  0  0  0  0  0  0  0
   49.8074   32.1213   50.1478 H   0  0  0  0  0  0  0  0  0  0  0  0
   51.0378   29.8403   49.9120 H   0  0  0  0  0  0  0  0  0  0  0  0
   50.6509   27.4506   48.6233 H   0  0  0  0  0  0  0  0  0  0  0  0
   49.0036   26.2828   47.1022 H   0  0  0  0  0  0  0  0  0  0  0  0
   46.9164   27.4195   46.4032 H   0  0  0  0  0  0  0  0  0  0  0  0
   46.2042   30.2999   46.5931 H   0  0  0  0  0  0  0  0  0  0  0  0
   44.0713   28.4123   46.6548 H   0  0  0  0  0  0  0  0  0  0  0  0
   44.9939   27.2906   47.2341 H   0  0  0  0  0  0  0  0  0  0  0  0
   45.3559   28.9403   49.4476 H   0  0  0  0  0  0  0  0  0  0  0  0
   44.2420   29.9274   48.9941 H   0  0  0  0  0  0  0  0  0  0  0  0
  1 14  1  0
  2  1  1  0
  3  8  2  0
  4  3  1  0
  5  4  2  0
  5  6  1  0
  6  7  2  0
  7  8  1  0
  7  2  1  0
  9  5  1  0
 10  9  2  0
 11 10  1  0
 12 11  2  0
 12 13  1  0
 13  9  1  0
 14 15  1  0
 15 16  2  0
 17 16  1  0
 18 17  1  0
 19 18  2  0
 20 19  1  0
 21 20  2  0
 21 22  1  0
 22 23  2  0
 23 18  1  0
 23 15  1  0
 24 25  1  0
 24 22  1  0
 24 26  1  0
 25 26  1  0
  1 27  1  0
  1 28  1  0
  2 29  1  0
  2 30  1  0
  3 31  1  0
  4 32  1  0
 10 33  1  0
 12 34  1  0
 13 35  1  0
 16 36  1  0
 17 37  1  0
 19 38  1  0
 20 39  1  0
 21 40  1  0
 24 41  1  0
 25 42  1  0
 25 43  1  0
 26 44  1  0
 26 45  1  0
M  ISO  8  27   8  28   8  29   8  30   8  31  14  32  14  33  14  34  14
M  ISO  8  35   9  36  14  37   9  38  14  39  14  40  14  41  13  42  13
M  ISO  3  43  13  44  13  45  13
M  END
>  <minimizedAffinity>  (1) 
-5.740026

>  <minimizedRMSD>  (1) 
2.05056787

$$$$
