
     RDKit          3D

 40 43  0  0  0  0  0  0  0  0999 V2000
   47.2080   34.9210   41.9100 C   0  0  0  0  0  0  0  0  0  0  0  0
   48.4970   35.4450   41.8180 C   0  0  0  0  0  0  0  0  0  0  0  0
   48.9990   35.1870   40.5970 N   0  0  0  0  0  0  0  0  0  0  0  0
   48.0610   34.5180   39.9200 C   0  0  0  0  0  0  0  0  0  0  0  0
   48.0810   34.0230   38.6260 C   0  0  0  0  0  0  0  0  0  0  0  0
   46.9740   33.3660   38.1640 C   0  0  0  0  0  0  0  0  0  0  0  0
   45.8010   33.1480   38.9110 C   0  0  0  0  0  0  0  0  0  0  0  0
   45.8440   33.6630   40.1880 C   0  0  0  0  0  0  0  0  0  0  0  0
   46.9090   34.3230   40.7040 C   0  0  0  0  0  0  0  0  0  0  0  0
   44.6340   36.1370   44.3070 C   0  0  0  0  0  0  0  0  0  0  0  0
   45.4620   36.0940   43.1840 C   0  0  0  0  0  0  0  0  0  0  0  0
   46.3410   34.9950   43.0620 C   0  0  0  0  0  0  0  0  0  0  0  0
   46.3280   34.0400   44.0580 N   0  0  0  0  0  0  0  0  0  0  0  0
   45.5050   34.1420   45.1170 C   0  0  0  0  0  0  0  0  0  0  0  0
   44.6570   35.1810   45.2530 N   0  0  0  0  0  0  0  0  0  0  0  0
   44.6010   33.4440   40.9560 C   0  0  0  0  0  0  0  0  0  0  0  0
   43.5810   34.5250   40.5510 C   0  0  0  0  0  0  0  0  0  0  0  0
   42.3230   34.2820   41.3570 C   0  0  0  0  0  0  0  0  0  0  0  0
   41.6280   33.1080   40.7180 C   0  0  0  0  0  0  0  0  0  0  0  0
   42.6040   32.1980   40.0430 C   0  0  0  0  0  0  0  0  0  0  0  0
   43.9460   32.1040   40.6840 C   0  0  0  0  0  0  0  0  0  0  0  0
   49.0218   35.9855   42.6195 H   0  0  0  0  0  0  0  0  0  0  0  0
   49.9309   35.4547   40.2494 H   0  0  0  0  0  0  0  0  0  0  0  0
   48.9657   34.1552   37.9858 H   0  0  0  0  0  0  0  0  0  0  0  0
   47.0023   32.9801   37.1343 H   0  0  0  0  0  0  0  0  0  0  0  0
   44.9270   32.6135   38.5104 H   0  0  0  0  0  0  0  0  0  0  0  0
   43.9388   36.9817   44.4223 H   0  0  0  0  0  0  0  0  0  0  0  0
   45.4311   36.8868   42.4221 H   0  0  0  0  0  0  0  0  0  0  0  0
   45.5244   33.3595   45.8899 H   0  0  0  0  0  0  0  0  0  0  0  0
   44.8804   33.4814   42.0193 H   0  0  0  0  0  0  0  0  0  0  0  0
   43.9834   35.5243   40.7735 H   0  0  0  0  0  0  0  0  0  0  0  0
   43.3683   34.4751   39.4729 H   0  0  0  0  0  0  0  0  0  0  0  0
   42.5792   34.0500   42.4013 H   0  0  0  0  0  0  0  0  0  0  0  0
   41.6765   35.1719   41.3648 H   0  0  0  0  0  0  0  0  0  0  0  0
   41.0907   32.5440   41.4947 H   0  0  0  0  0  0  0  0  0  0  0  0
   40.9290   33.4902   39.9595 H   0  0  0  0  0  0  0  0  0  0  0  0
   42.7453   32.5574   39.0130 H   0  0  0  0  0  0  0  0  0  0  0  0
   42.1689   31.1897   40.1064 H   0  0  0  0  0  0  0  0  0  0  0  0
   43.8344   31.5741   41.6415 H   0  0  0  0  0  0  0  0  0  0  0  0
   44.5978   31.5720   39.9753 H   0  0  0  0  0  0  0  0  0  0  0  0
  1 12  1  0
  2  1  2  0
  3  2  1  0
  4  3  1  0
  4  9  2  0
  5  4  1  0
  6  5  2  0
  6  7  1  0
  7  8  2  0
  8  9  1  0
  8 16  1  0
  9  1  1  0
 10 15  2  0
 11 10  1  0
 12 11  2  0
 12 13  1  0
 13 14  2  0
 14 15  1  0
 17 16  1  0
 17 18  1  0
 19 18  1  0
 20 21  1  0
 20 19  1  0
 21 16  1  0
  2 22  1  0
  3 23  1  0
  5 24  1  0
  6 25  1  0
  7 26  1  0
 10 27  1  0
 11 28  1  0
 14 29  1  0
 16 30  1  0
 17 31  1  0
 17 32  1  0
 18 33  1  0
 18 34  1  0
 19 35  1  0
 19 36  1  0
 20 37  1  0
 20 38  1  0
 21 39  1  0
 21 40  1  0
M  ISO  8  22  14  23   9  24  14  25  14  26  14  27  14  28  14  29  14
M  ISO  8  30  13  31  13  32  13  33  13  34  13  35  13  36  13  37  13
M  ISO  3  38  13  39  13  40  13
M  END
>  <minimizedAffinity>  (1) 
-6.351161

>  <minimizedRMSD>  (1) 
0.574268341

$$$$
