
     RDKit          3D

 31 34  0  0  0  0  0  0  0  0999 V2000
   47.2560   34.9230   41.9060 C   0  0  0  0  0  0  0  0  0  0  0  0
   48.4930   35.5650   41.7840 C   0  0  0  0  0  0  0  0  0  0  0  0
   48.9750   35.3650   40.5480 N   0  0  0  0  0  0  0  0  0  0  0  0
   48.0690   34.6100   39.8820 C   0  0  0  0  0  0  0  0  0  0  0  0
   48.1170   34.1230   38.5980 C   0  0  0  0  0  0  0  0  0  0  0  0
   47.0910   33.3540   38.1590 C   0  0  0  0  0  0  0  0  0  0  0  0
   45.9720   33.0200   38.9280 C   0  0  0  0  0  0  0  0  0  0  0  0
   45.9690   33.5380   40.2210 C   0  0  0  0  0  0  0  0  0  0  0  0
   46.9700   34.3100   40.7070 C   0  0  0  0  0  0  0  0  0  0  0  0
   44.6500   35.8610   44.3930 C   0  0  0  0  0  0  0  0  0  0  0  0
   45.4670   35.8870   43.2520 C   0  0  0  0  0  0  0  0  0  0  0  0
   46.4240   34.8970   43.0920 C   0  0  0  0  0  0  0  0  0  0  0  0
   46.5330   33.9260   44.0680 N   0  0  0  0  0  0  0  0  0  0  0  0
   45.7320   33.9270   45.1550 C   0  0  0  0  0  0  0  0  0  0  0  0
   44.7900   34.8940   45.3190 N   0  0  0  0  0  0  0  0  0  0  0  0
   44.8020   33.0440   40.9220 C   0  0  0  0  0  0  0  0  0  0  0  0
   44.3720   32.0050   41.6790 C   0  0  0  0  0  0  0  0  0  0  0  0
   43.1100   32.1080   42.1840 C   0  0  0  0  0  0  0  0  0  0  0  0
   42.7210   33.2950   41.7130 N   0  0  0  0  0  0  0  0  0  0  0  0
   43.6780   33.8320   40.9960 N   0  0  0  0  0  0  0  0  0  0  0  0
   48.9917   36.1425   42.5763 H   0  0  0  0  0  0  0  0  0  0  0  0
   49.8674   35.7194   40.1752 H   0  0  0  0  0  0  0  0  0  0  0  0
   48.9691   34.3522   37.9412 H   0  0  0  0  0  0  0  0  0  0  0  0
   47.1419   32.9673   37.1305 H   0  0  0  0  0  0  0  0  0  0  0  0
   45.1544   32.3944   38.5405 H   0  0  0  0  0  0  0  0  0  0  0  0
   43.8861   36.6402   44.5322 H   0  0  0  0  0  0  0  0  0  0  0  0
   45.3499   36.6792   42.4979 H   0  0  0  0  0  0  0  0  0  0  0  0
   45.8424   33.1389   45.9144 H   0  0  0  0  0  0  0  0  0  0  0  0
   45.0060   31.1277   41.8749 H   0  0  0  0  0  0  0  0  0  0  0  0
   42.5562   31.3977   42.8154 H   0  0  0  0  0  0  0  0  0  0  0  0
   41.8021   33.7263   41.8877 H   0  0  0  0  0  0  0  0  0  0  0  0
  1 12  1  0
  2  1  2  0
  3  2  1  0
  4  3  1  0
  4  9  2  0
  5  4  1  0
  6  5  2  0
  6  7  1  0
  7  8  2  0
  8  9  1  0
  8 16  1  0
  9  1  1  0
 10 15  2  0
 11 10  1  0
 12 11  2  0
 12 13  1  0
 13 14  2  0
 14 15  1  0
 16 20  2  0
 16 17  1  0
 17 18  2  0
 19 18  1  0
 20 19  1  0
  2 21  1  0
  3 22  1  0
  5 23  1  0
  6 24  1  0
  7 25  1  0
 10 26  1  0
 11 27  1  0
 14 28  1  0
 17 29  1  0
 18 30  1  0
 19 31  1  0
M  ISO  8  21  14  22   9  23  14  24  14  25  14  26  14  27  14  28  14
M  ISO  3  29  14  30  14  31   9
M  END
>  <minimizedAffinity>  (1) 
-6.19614887

>  <minimizedRMSD>  (1) 
0.154569358

$$$$
