
     RDKit          3D

 39 42  0  0  0  0  0  0  0  0999 V2000
   47.0160   34.8230   41.9730 C   0  0  0  0  0  0  0  0  0  0  0  0
   48.3190   35.2990   41.7980 C   0  0  0  0  0  0  0  0  0  0  0  0
   48.7390   34.9780   40.5620 N   0  0  0  0  0  0  0  0  0  0  0  0
   47.7400   34.3160   39.9510 C   0  0  0  0  0  0  0  0  0  0  0  0
   47.6710   33.7800   38.6810 C   0  0  0  0  0  0  0  0  0  0  0  0
   46.5170   33.1500   38.3060 C   0  0  0  0  0  0  0  0  0  0  0  0
   45.3800   32.9970   39.1090 C   0  0  0  0  0  0  0  0  0  0  0  0
   45.5350   33.5640   40.3680 C   0  0  0  0  0  0  0  0  0  0  0  0
   46.6510   34.2040   40.8080 C   0  0  0  0  0  0  0  0  0  0  0  0
   44.5820   36.1750   44.4550 C   0  0  0  0  0  0  0  0  0  0  0  0
   45.3570   36.0610   43.2980 C   0  0  0  0  0  0  0  0  0  0  0  0
   46.2080   34.9610   43.1680 C   0  0  0  0  0  0  0  0  0  0  0  0
   46.2330   34.0460   44.2000 N   0  0  0  0  0  0  0  0  0  0  0  0
   45.4700   34.1990   45.2950 C   0  0  0  0  0  0  0  0  0  0  0  0
   44.6390   35.2600   45.4350 N   0  0  0  0  0  0  0  0  0  0  0  0
   44.3660   33.3860   41.1720 N   0  0  0  0  0  0  0  0  0  0  0  0
   43.9420   32.4300   42.1750 C   0  0  0  0  0  0  0  0  0  0  0  0
   42.7970   31.6280   41.5700 C   0  0  0  0  0  0  0  0  0  0  0  0
   41.6630   32.4620   41.1260 C   0  0  0  0  0  0  0  0  0  0  0  0
   42.0180   33.7840   40.5220 C   0  0  0  0  0  0  0  0  0  0  0  0
   43.2920   34.3740   41.0020 C   0  0  0  0  0  0  0  0  0  0  0  0
   48.9054   35.8473   42.5499 H   0  0  0  0  0  0  0  0  0  0  0  0
   49.6595   35.1990   40.1561 H   0  0  0  0  0  0  0  0  0  0  0  0
   48.5222   33.8577   37.9886 H   0  0  0  0  0  0  0  0  0  0  0  0
   46.4785   32.7289   37.2905 H   0  0  0  0  0  0  0  0  0  0  0  0
   44.4645   32.4841   38.7792 H   0  0  0  0  0  0  0  0  0  0  0  0
   43.9077   37.0371   44.5654 H   0  0  0  0  0  0  0  0  0  0  0  0
   45.2982   36.8219   42.5058 H   0  0  0  0  0  0  0  0  0  0  0  0
   45.5210   33.4464   46.0956 H   0  0  0  0  0  0  0  0  0  0  0  0
   44.7755   31.7611   42.4355 H   0  0  0  0  0  0  0  0  0  0  0  0
   43.6201   32.9419   43.0939 H   0  0  0  0  0  0  0  0  0  0  0  0
   43.1816   31.0729   40.7017 H   0  0  0  0  0  0  0  0  0  0  0  0
   42.4182   30.9606   42.3581 H   0  0  0  0  0  0  0  0  0  0  0  0
   41.0981   31.8898   40.3753 H   0  0  0  0  0  0  0  0  0  0  0  0
   41.0923   32.6958   42.0369 H   0  0  0  0  0  0  0  0  0  0  0  0
   41.2074   34.4916   40.7505 H   0  0  0  0  0  0  0  0  0  0  0  0
   42.1511   33.6028   39.4452 H   0  0  0  0  0  0  0  0  0  0  0  0
   43.6238   35.1275   40.2725 H   0  0  0  0  0  0  0  0  0  0  0  0
   43.0942   34.8116   41.9916 H   0  0  0  0  0  0  0  0  0  0  0  0
  1 12  1  0
  2  1  2  0
  3  2  1  0
  4  3  1  0
  4  9  2  0
  5  4  1  0
  6  5  2  0
  6  7  1  0
  7  8  2  0
  8  9  1  0
  8 16  1  0
  9  1  1  0
 10 15  2  0
 11 10  1  0
 12 11  2  0
 12 13  1  0
 13 14  2  0
 14 15  1  0
 16 17  1  0
 18 17  1  0
 19 18  1  0
 20 21  1  0
 20 19  1  0
 21 16  1  0
  2 22  1  0
  3 23  1  0
  5 24  1  0
  6 25  1  0
  7 26  1  0
 10 27  1  0
 11 28  1  0
 14 29  1  0
 17 30  1  0
 17 31  1  0
 18 32  1  0
 18 33  1  0
 19 34  1  0
 19 35  1  0
 20 36  1  0
 20 37  1  0
 21 38  1  0
 21 39  1  0
M  ISO  8  22  14  23   9  24  14  25  14  26  14  27  14  28  14  29  14
M  ISO  8  30  13  31  13  32  13  33  13  34  13  35  13  36  13  37  13
M  ISO  2  38  13  39  13
M  END
>  <minimizedAffinity>  (1) 
-6.21744823

>  <minimizedRMSD>  (1) 
1.12808001

$$$$
