
     RDKit          3D

 37 40  0  0  0  0  0  0  0  0999 V2000
   47.2040   34.9320   41.9090 C   0  0  0  0  0  0  0  0  0  0  0  0
   48.4840   35.4820   41.8030 C   0  0  0  0  0  0  0  0  0  0  0  0
   48.9760   35.2300   40.5880 N   0  0  0  0  0  0  0  0  0  0  0  0
   48.0440   34.5330   39.9130 C   0  0  0  0  0  0  0  0  0  0  0  0
   48.0780   34.0380   38.6190 C   0  0  0  0  0  0  0  0  0  0  0  0
   46.9780   33.3510   38.1700 C   0  0  0  0  0  0  0  0  0  0  0  0
   45.8130   33.1100   38.9230 C   0  0  0  0  0  0  0  0  0  0  0  0
   45.8630   33.6360   40.1960 C   0  0  0  0  0  0  0  0  0  0  0  0
   46.9160   34.3250   40.7060 C   0  0  0  0  0  0  0  0  0  0  0  0
   44.6580   36.1600   44.3350 C   0  0  0  0  0  0  0  0  0  0  0  0
   45.4870   36.1030   43.2110 C   0  0  0  0  0  0  0  0  0  0  0  0
   46.3390   34.9880   43.0680 C   0  0  0  0  0  0  0  0  0  0  0  0
   46.3170   34.0070   44.0360 N   0  0  0  0  0  0  0  0  0  0  0  0
   45.4830   34.1300   45.1040 C   0  0  0  0  0  0  0  0  0  0  0  0
   44.6610   35.1890   45.2590 N   0  0  0  0  0  0  0  0  0  0  0  0
   44.6290   33.3960   40.9850 C   0  0  0  0  0  0  0  0  0  0  0  0
   43.6270   34.5280   40.8180 C   0  0  0  0  0  0  0  0  0  0  0  0
   42.8360   34.2180   39.5730 C   0  0  0  0  0  0  0  0  0  0  0  0
   42.7210   32.7130   39.6450 C   0  0  0  0  0  0  0  0  0  0  0  0
   43.8470   32.1960   40.4760 C   0  0  0  0  0  0  0  0  0  0  0  0
   49.0052   36.0365   42.5973 H   0  0  0  0  0  0  0  0  0  0  0  0
   49.8993   35.5165   40.2326 H   0  0  0  0  0  0  0  0  0  0  0  0
   48.9561   34.1904   37.9742 H   0  0  0  0  0  0  0  0  0  0  0  0
   47.0089   32.9585   37.1429 H   0  0  0  0  0  0  0  0  0  0  0  0
   44.9467   32.5555   38.5330 H   0  0  0  0  0  0  0  0  0  0  0  0
   43.9872   37.0222   44.4643 H   0  0  0  0  0  0  0  0  0  0  0  0
   45.4753   36.9055   42.4588 H   0  0  0  0  0  0  0  0  0  0  0  0
   45.4786   33.3385   45.8679 H   0  0  0  0  0  0  0  0  0  0  0  0
   44.9902   33.2729   42.0167 H   0  0  0  0  0  0  0  0  0  0  0  0
   42.9590   34.5763   41.6906 H   0  0  0  0  0  0  0  0  0  0  0  0
   44.1348   35.5003   40.7353 H   0  0  0  0  0  0  0  0  0  0  0  0
   43.3739   34.5355   38.6676 H   0  0  0  0  0  0  0  0  0  0  0  0
   41.8672   34.7363   39.5208 H   0  0  0  0  0  0  0  0  0  0  0  0
   41.7612   32.4350   40.1049 H   0  0  0  0  0  0  0  0  0  0  0  0
   42.7664   32.2808   38.6345 H   0  0  0  0  0  0  0  0  0  0  0  0
   43.4526   31.6176   41.3245 H   0  0  0  0  0  0  0  0  0  0  0  0
   44.4953   31.5355   39.8815 H   0  0  0  0  0  0  0  0  0  0  0  0
  1 12  1  0
  2  1  2  0
  3  2  1  0
  4  3  1  0
  4  9  2  0
  5  4  1  0
  6  5  2  0
  6  7  1  0
  7  8  2  0
  8  9  1  0
  8 16  1  0
  9  1  1  0
 10 15  2  0
 11 10  1  0
 12 11  2  0
 12 13  1  0
 13 14  2  0
 14 15  1  0
 17 16  1  0
 18 19  1  0
 18 17  1  0
 19 20  1  0
 20 16  1  0
  2 21  1  0
  3 22  1  0
  5 23  1  0
  6 24  1  0
  7 25  1  0
 10 26  1  0
 11 27  1  0
 14 28  1  0
 16 29  1  0
 17 30  1  0
 17 31  1  0
 18 32  1  0
 18 33  1  0
 19 34  1  0
 19 35  1  0
 20 36  1  0
 20 37  1  0
M  ISO  8  21  14  22   9  23  14  24  14  25  14  26  14  27  14  28  14
M  ISO  8  29  13  30  13  31  13  32  13  33  13  34  13  35  13  36  13
M  ISO  1  37  13
M  END
>  <minimizedAffinity>  (1) 
-6.19150066

>  <minimizedRMSD>  (1) 
1.13975608

$$$$
