
     RDKit          3D

 38 42  0  0  0  0  0  0  0  0999 V2000
   47.2340   34.9330   41.7130 C   0  0  0  0  0  0  0  0  0  0  0  0
   48.4650   35.5770   41.6380 C   0  0  0  0  0  0  0  0  0  0  0  0
   49.0230   35.3310   40.4390 N   0  0  0  0  0  0  0  0  0  0  0  0
   48.1730   34.5470   39.7610 C   0  0  0  0  0  0  0  0  0  0  0  0
   48.2690   34.0100   38.4810 C   0  0  0  0  0  0  0  0  0  0  0  0
   47.2430   33.2300   38.0180 C   0  0  0  0  0  0  0  0  0  0  0  0
   46.0750   32.9210   38.7430 C   0  0  0  0  0  0  0  0  0  0  0  0
   46.0590   33.4920   39.9970 C   0  0  0  0  0  0  0  0  0  0  0  0
   47.0330   34.2750   40.5310 C   0  0  0  0  0  0  0  0  0  0  0  0
   44.8850   33.2030   40.7750 N   0  0  0  0  0  0  0  0  0  0  0  0
   44.6230   32.4980   41.9160 C   0  0  0  0  0  0  0  0  0  0  0  0
   43.3030   32.5920   42.1620 N   0  0  0  0  0  0  0  0  0  0  0  0
   42.6750   33.3310   41.2290 C   0  0  0  0  0  0  0  0  0  0  0  0
   41.3640   33.6880   41.0730 C   0  0  0  0  0  0  0  0  0  0  0  0
   40.4650   33.3450   41.8550 O   0  0  0  0  0  0  0  0  0  0  0  0
   41.0090   34.4530   40.0210 N   0  0  0  0  0  0  0  0  0  0  0  0
   41.9900   34.8280   39.1680 C   0  0  0  0  0  0  0  0  0  0  0  0
   41.8110   35.6410   37.9900 N   0  0  0  0  0  0  0  0  0  0  0  0
   43.2810   34.4790   39.3150 N   0  0  0  0  0  0  0  0  0  0  0  0
   43.6840   33.7070   40.3660 C   0  0  0  0  0  0  0  0  0  0  0  0
   44.3980   35.9150   43.9300 C   0  0  0  0  0  0  0  0  0  0  0  0
   45.2780   35.8950   42.8420 C   0  0  0  0  0  0  0  0  0  0  0  0
   46.3260   34.9530   42.8400 C   0  0  0  0  0  0  0  0  0  0  0  0
   46.4320   34.0960   43.9140 N   0  0  0  0  0  0  0  0  0  0  0  0
   45.5520   34.1600   44.9420 C   0  0  0  0  0  0  0  0  0  0  0  0
   44.5410   35.0530   44.9660 N   0  0  0  0  0  0  0  0  0  0  0  0
   48.9117   36.1908   42.4340 H   0  0  0  0  0  0  0  0  0  0  0  0
   49.9327   35.6796   40.1046 H   0  0  0  0  0  0  0  0  0  0  0  0
   49.1508   34.2079   37.8539 H   0  0  0  0  0  0  0  0  0  0  0  0
   47.3378   32.8136   37.0043 H   0  0  0  0  0  0  0  0  0  0  0  0
   45.2630   32.2915   38.3501 H   0  0  0  0  0  0  0  0  0  0  0  0
   45.3589   31.9517   42.5243 H   0  0  0  0  0  0  0  0  0  0  0  0
   40.0310   34.7402   39.8728 H   0  0  0  0  0  0  0  0  0  0  0  0
   40.8737   35.9881   37.7414 H   0  0  0  0  0  0  0  0  0  0  0  0
   42.6205   35.8744   37.3975 H   0  0  0  0  0  0  0  0  0  0  0  0
   43.5746   36.6442   43.9446 H   0  0  0  0  0  0  0  0  0  0  0  0
   45.1543   36.5995   42.0063 H   0  0  0  0  0  0  0  0  0  0  0  0
   45.6654   33.4615   45.7841 H   0  0  0  0  0  0  0  0  0  0  0  0
  1 23  1  0
  2  1  2  0
  3  2  1  0
  4  3  1  0
  4  9  2  0
  5  4  1  0
  6  5  2  0
  6  7  1  0
  7  8  2  0
  8  9  1  0
  8 10  1  0
  9  1  1  0
 10 11  1  0
 11 12  2  0
 13 12  1  0
 14 13  1  0
 14 15  2  0
 16 14  1  0
 17 19  2  0
 17 16  1  0
 18 17  1  0
 19 20  1  0
 20 10  1  0
 20 13  2  0
 21 26  2  0
 22 21  1  0
 23 22  2  0
 23 24  1  0
 24 25  2  0
 25 26  1  0
  2 27  1  0
  3 28  1  0
  5 29  1  0
  6 30  1  0
  7 31  1  0
 11 32  1  0
 16 33  1  0
 18 34  1  0
 18 35  1  0
 21 36  1  0
 22 37  1  0
 25 38  1  0
M  ISO  8  27  14  28   9  29  14  30  14  31  14  32  14  33   9  36  14
M  ISO  2  37  14  38  14
M  END
>  <minimizedAffinity>  (1) 
-7.19961262

>  <minimizedRMSD>  (1) 
1.02764511

$$$$
