
     RDKit          3D

 33 36  0  0  0  0  0  0  0  0999 V2000
   47.3640   34.9330   41.7780 C   0  0  0  0  0  0  0  0  0  0  0  0
   48.5510   35.6660   41.6720 C   0  0  0  0  0  0  0  0  0  0  0  0
   49.0530   35.5280   40.4380 N   0  0  0  0  0  0  0  0  0  0  0  0
   48.2140   34.7250   39.7550 C   0  0  0  0  0  0  0  0  0  0  0  0
   48.2770   34.2880   38.4470 C   0  0  0  0  0  0  0  0  0  0  0  0
   47.2800   33.4780   37.9850 C   0  0  0  0  0  0  0  0  0  0  0  0
   46.1980   33.0580   38.7410 C   0  0  0  0  0  0  0  0  0  0  0  0
   46.1750   33.5200   40.0470 C   0  0  0  0  0  0  0  0  0  0  0  0
   47.1330   34.3270   40.5670 C   0  0  0  0  0  0  0  0  0  0  0  0
   44.6660   35.6770   44.2400 C   0  0  0  0  0  0  0  0  0  0  0  0
   45.4740   35.7980   43.0880 C   0  0  0  0  0  0  0  0  0  0  0  0
   46.5150   34.8430   42.9560 C   0  0  0  0  0  0  0  0  0  0  0  0
   46.7140   33.8570   43.9110 N   0  0  0  0  0  0  0  0  0  0  0  0
   45.8750   33.8290   44.9870 C   0  0  0  0  0  0  0  0  0  0  0  0
   44.8620   34.7180   45.1630 N   0  0  0  0  0  0  0  0  0  0  0  0
   45.0040   33.0600   40.7700 C   0  0  0  0  0  0  0  0  0  0  0  0
   45.0370   31.8630   41.4930 C   0  0  0  0  0  0  0  0  0  0  0  0
   44.0290   31.2570   42.1890 C   0  0  0  0  0  0  0  0  0  0  0  0
   42.8030   31.8740   42.2070 C   0  0  0  0  0  0  0  0  0  0  0  0
   42.7230   33.0470   41.5130 C   0  0  0  0  0  0  0  0  0  0  0  0
   43.7770   33.4940   40.8990 N   0  0  0  0  0  0  0  0  0  0  0  0
   49.0023   36.2635   42.4778 H   0  0  0  0  0  0  0  0  0  0  0  0
   49.9183   35.9556   40.0785 H   0  0  0  0  0  0  0  0  0  0  0  0
   49.1101   34.5852   37.7931 H   0  0  0  0  0  0  0  0  0  0  0  0
   47.3400   33.1356   36.9414 H   0  0  0  0  0  0  0  0  0  0  0  0
   45.4129   32.4042   38.3335 H   0  0  0  0  0  0  0  0  0  0  0  0
   43.8452   36.3941   44.3882 H   0  0  0  0  0  0  0  0  0  0  0  0
   45.3064   36.5852   42.3382 H   0  0  0  0  0  0  0  0  0  0  0  0
   46.0258   33.0496   45.7484 H   0  0  0  0  0  0  0  0  0  0  0  0
   46.0042   31.3391   41.5027 H   0  0  0  0  0  0  0  0  0  0  0  0
   44.1947   30.3064   42.7172 H   0  0  0  0  0  0  0  0  0  0  0  0
   41.9418   31.4512   42.7451 H   0  0  0  0  0  0  0  0  0  0  0  0
   41.7771   33.6071   41.4742 H   0  0  0  0  0  0  0  0  0  0  0  0
  1 12  1  0
  2  1  2  0
  3  2  1  0
  4  3  1  0
  4  9  2  0
  5  4  1  0
  6  5  2  0
  6  7  1  0
  7  8  2  0
  8  9  1  0
  8 16  1  0
  9  1  1  0
 10 15  2  0
 11 10  1  0
 12 11  2  0
 12 13  1  0
 13 14  2  0
 14 15  1  0
 16 21  1  0
 16 17  2  0
 17 18  1  0
 18 19  2  0
 20 19  1  0
 21 20  2  0
  2 22  1  0
  3 23  1  0
  5 24  1  0
  6 25  1  0
  7 26  1  0
 10 27  1  0
 11 28  1  0
 14 29  1  0
 17 30  1  0
 18 31  1  0
 19 32  1  0
 20 33  1  0
M  ISO  8  22  14  23   9  24  14  25  14  26  14  27  14  28  14  29  14
M  ISO  4  30  14  31  14  32  14  33  14
M  END
>  <minimizedAffinity>  (1) 
-5.96674347

>  <minimizedRMSD>  (1) 
0.345494837

$$$$
