
     RDKit          3D

 30 33  0  0  0  0  0  0  0  0999 V2000
   47.3590   34.9450   41.7910 C   0  0  0  0  0  0  0  0  0  0  0  0
   48.5620   35.6480   41.6840 C   0  0  0  0  0  0  0  0  0  0  0  0
   49.0500   35.4890   40.4420 N   0  0  0  0  0  0  0  0  0  0  0  0
   48.1910   34.7050   39.7620 C   0  0  0  0  0  0  0  0  0  0  0  0
   48.2510   34.2620   38.4620 C   0  0  0  0  0  0  0  0  0  0  0  0
   47.2180   33.4610   38.0110 C   0  0  0  0  0  0  0  0  0  0  0  0
   46.1120   33.0620   38.7780 C   0  0  0  0  0  0  0  0  0  0  0  0
   46.1440   33.5560   40.0640 C   0  0  0  0  0  0  0  0  0  0  0  0
   47.1160   34.3470   40.5860 C   0  0  0  0  0  0  0  0  0  0  0  0
   44.6600   35.7360   44.2620 C   0  0  0  0  0  0  0  0  0  0  0  0
   45.4790   35.8140   43.1250 C   0  0  0  0  0  0  0  0  0  0  0  0
   46.5090   34.8610   42.9690 C   0  0  0  0  0  0  0  0  0  0  0  0
   46.6590   33.9140   43.9270 N   0  0  0  0  0  0  0  0  0  0  0  0
   45.8400   33.8810   45.0090 C   0  0  0  0  0  0  0  0  0  0  0  0
   44.8520   34.7750   45.1800 N   0  0  0  0  0  0  0  0  0  0  0  0
   45.0350   33.1800   40.8970 N   0  0  0  0  0  0  0  0  0  0  0  0
   44.7300   32.2690   41.8050 C   0  0  0  0  0  0  0  0  0  0  0  0
   43.4600   32.4810   42.2190 N   0  0  0  0  0  0  0  0  0  0  0  0
   42.9740   33.5520   41.5460 C   0  0  0  0  0  0  0  0  0  0  0  0
   43.9690   33.9740   40.7260 N   0  0  0  0  0  0  0  0  0  0  0  0
   49.0328   36.2358   42.4858 H   0  0  0  0  0  0  0  0  0  0  0  0
   49.9235   35.8937   40.0759 H   0  0  0  0  0  0  0  0  0  0  0  0
   49.0899   34.5347   37.8048 H   0  0  0  0  0  0  0  0  0  0  0  0
   47.2667   33.1090   36.9700 H   0  0  0  0  0  0  0  0  0  0  0  0
   45.3045   32.4221   38.3928 H   0  0  0  0  0  0  0  0  0  0  0  0
   43.8525   36.4696   44.4026 H   0  0  0  0  0  0  0  0  0  0  0  0
   45.3219   36.6003   42.3720 H   0  0  0  0  0  0  0  0  0  0  0  0
   45.9897   33.0992   45.7682 H   0  0  0  0  0  0  0  0  0  0  0  0
   45.3975   31.4718   42.1639 H   0  0  0  0  0  0  0  0  0  0  0  0
   41.9708   33.9923   41.6450 H   0  0  0  0  0  0  0  0  0  0  0  0
  1 12  1  0
  2  1  2  0
  3  2  1  0
  4  3  1  0
  4  9  2  0
  5  4  1  0
  6  5  2  0
  6  7  1  0
  7  8  2  0
  8  9  1  0
  8 16  1  0
  9  1  1  0
 10 15  2  0
 11 10  1  0
 12 11  2  0
 12 13  1  0
 13 14  2  0
 14 15  1  0
 16 17  1  0
 17 18  2  0
 19 18  1  0
 20 16  1  0
 20 19  2  0
  2 21  1  0
  3 22  1  0
  5 23  1  0
  6 24  1  0
  7 25  1  0
 10 26  1  0
 11 27  1  0
 14 28  1  0
 17 29  1  0
 19 30  1  0
M  ISO  8  21  14  22   9  23  14  24  14  25  14  26  14  27  14  28  14
M  ISO  2  29  14  30  14
M  END
>  <minimizedAffinity>  (1) 
-5.97248983

>  <minimizedRMSD>  (1) 
0.255341023

$$$$
