
     RDKit          3D

 32 35  0  0  0  0  0  0  0  0999 V2000
   47.3560   34.9500   41.7730 C   0  0  0  0  0  0  0  0  0  0  0  0
   48.5570   35.6650   41.6790 C   0  0  0  0  0  0  0  0  0  0  0  0
   49.0690   35.5230   40.4520 N   0  0  0  0  0  0  0  0  0  0  0  0
   48.2240   34.7340   39.7590 C   0  0  0  0  0  0  0  0  0  0  0  0
   48.2900   34.2900   38.4470 C   0  0  0  0  0  0  0  0  0  0  0  0
   47.2850   33.4930   37.9790 C   0  0  0  0  0  0  0  0  0  0  0  0
   46.1910   33.0920   38.7310 C   0  0  0  0  0  0  0  0  0  0  0  0
   46.1660   33.5560   40.0290 C   0  0  0  0  0  0  0  0  0  0  0  0
   47.1290   34.3500   40.5580 C   0  0  0  0  0  0  0  0  0  0  0  0
   44.6510   35.7000   44.2200 C   0  0  0  0  0  0  0  0  0  0  0  0
   45.4650   35.8180   43.0730 C   0  0  0  0  0  0  0  0  0  0  0  0
   46.5060   34.8660   42.9420 C   0  0  0  0  0  0  0  0  0  0  0  0
   46.6900   33.8860   43.9060 N   0  0  0  0  0  0  0  0  0  0  0  0
   45.8520   33.8520   44.9820 C   0  0  0  0  0  0  0  0  0  0  0  0
   44.8390   34.7470   45.1420 N   0  0  0  0  0  0  0  0  0  0  0  0
   44.9830   33.1110   40.7470 C   0  0  0  0  0  0  0  0  0  0  0  0
   43.7510   33.7610   40.5800 C   0  0  0  0  0  0  0  0  0  0  0  0
   42.5650   33.5110   41.1940 C   0  0  0  0  0  0  0  0  0  0  0  0
   42.5290   32.5180   42.0840 N   0  0  0  0  0  0  0  0  0  0  0  0
   43.6650   31.8400   42.3090 C   0  0  0  0  0  0  0  0  0  0  0  0
   44.7340   32.1920   41.6420 N   0  0  0  0  0  0  0  0  0  0  0  0
   49.0097   36.2534   42.4907 H   0  0  0  0  0  0  0  0  0  0  0  0
   49.9443   35.9383   40.1023 H   0  0  0  0  0  0  0  0  0  0  0  0
   49.1322   34.5732   37.7985 H   0  0  0  0  0  0  0  0  0  0  0  0
   47.3472   33.1462   36.9370 H   0  0  0  0  0  0  0  0  0  0  0  0
   45.3987   32.4488   38.3206 H   0  0  0  0  0  0  0  0  0  0  0  0
   43.8304   36.4186   44.3621 H   0  0  0  0  0  0  0  0  0  0  0  0
   45.3003   36.6053   42.3226 H   0  0  0  0  0  0  0  0  0  0  0  0
   46.0000   33.0749   45.7463 H   0  0  0  0  0  0  0  0  0  0  0  0
   43.7443   34.5859   39.8524 H   0  0  0  0  0  0  0  0  0  0  0  0
   41.6680   34.1053   40.9657 H   0  0  0  0  0  0  0  0  0  0  0  0
   43.6964   31.0125   43.0331 H   0  0  0  0  0  0  0  0  0  0  0  0
  1 12  1  0
  2  1  2  0
  3  2  1  0
  4  3  1  0
  4  9  2  0
  5  4  1  0
  6  5  2  0
  6  7  1  0
  7  8  2  0
  8  9  1  0
  8 16  1  0
  9  1  1  0
 10 15  2  0
 11 10  1  0
 12 11  2  0
 12 13  1  0
 13 14  2  0
 14 15  1  0
 16 21  1  0
 17 16  2  0
 17 18  1  0
 18 19  2  0
 19 20  1  0
 21 20  2  0
  2 22  1  0
  3 23  1  0
  5 24  1  0
  6 25  1  0
  7 26  1  0
 10 27  1  0
 11 28  1  0
 14 29  1  0
 17 30  1  0
 18 31  1  0
 20 32  1  0
M  ISO  8  22  14  23   9  24  14  25  14  26  14  27  14  28  14  29  14
M  ISO  3  30  14  31  14  32  14
M  END
>  <minimizedAffinity>  (1) 
-6.02337408

>  <minimizedRMSD>  (1) 
0.459575474

$$$$
