
     RDKit          3D

 27 29  0  0  0  0  0  0  0  0999 V2000
   47.2340   34.9270   41.9010 C   0  0  0  0  0  0  0  0  0  0  0  0
   48.4930   35.5130   41.8110 C   0  0  0  0  0  0  0  0  0  0  0  0
   48.9990   35.2800   40.5820 N   0  0  0  0  0  0  0  0  0  0  0  0
   48.0760   34.5580   39.9020 C   0  0  0  0  0  0  0  0  0  0  0  0
   48.1230   34.0860   38.6120 C   0  0  0  0  0  0  0  0  0  0  0  0
   47.0410   33.3830   38.1550 C   0  0  0  0  0  0  0  0  0  0  0  0
   45.8960   33.1140   38.9100 C   0  0  0  0  0  0  0  0  0  0  0  0
   45.9080   33.6110   40.1910 C   0  0  0  0  0  0  0  0  0  0  0  0
   46.9440   34.3150   40.7060 C   0  0  0  0  0  0  0  0  0  0  0  0
   44.6210   36.0800   44.2920 C   0  0  0  0  0  0  0  0  0  0  0  0
   45.4440   36.0370   43.1760 C   0  0  0  0  0  0  0  0  0  0  0  0
   46.3680   34.9710   43.0460 C   0  0  0  0  0  0  0  0  0  0  0  0
   46.3870   34.0360   44.0600 N   0  0  0  0  0  0  0  0  0  0  0  0
   45.5690   34.1280   45.1190 C   0  0  0  0  0  0  0  0  0  0  0  0
   44.6810   35.1410   45.2480 N   0  0  0  0  0  0  0  0  0  0  0  0
   44.6750   33.3090   40.9680 C   0  0  0  0  0  0  0  0  0  0  0  0
   43.6760   32.7220   40.2420 F   0  0  0  0  0  0  0  0  0  0  0  0
   44.9070   32.7690   42.2080 F   0  0  0  0  0  0  0  0  0  0  0  0
   44.0540   34.5310   41.3460 F   0  0  0  0  0  0  0  0  0  0  0  0
   48.9947   36.0753   42.6123 H   0  0  0  0  0  0  0  0  0  0  0  0
   49.9144   35.5922   40.2276 H   0  0  0  0  0  0  0  0  0  0  0  0
   48.9980   34.2666   37.9703 H   0  0  0  0  0  0  0  0  0  0  0  0
   47.0750   33.0039   37.1230 H   0  0  0  0  0  0  0  0  0  0  0  0
   45.0454   32.5447   38.5072 H   0  0  0  0  0  0  0  0  0  0  0  0
   43.9009   36.9051   44.3955 H   0  0  0  0  0  0  0  0  0  0  0  0
   45.3801   36.8182   42.4043 H   0  0  0  0  0  0  0  0  0  0  0  0
   45.6214   33.3592   45.9039 H   0  0  0  0  0  0  0  0  0  0  0  0
  1 12  1  0
  2  1  2  0
  3  2  1  0
  4  3  1  0
  4  9  2  0
  5  4  1  0
  6  5  2  0
  6  7  1  0
  7  8  2  0
  8  9  1  0
  8 16  1  0
  9  1  1  0
 10 15  2  0
 11 10  1  0
 12 11  2  0
 12 13  1  0
 13 14  2  0
 14 15  1  0
 16 19  1  0
 16 18  1  0
 17 16  1  0
  2 20  1  0
  3 21  1  0
  5 22  1  0
  6 23  1  0
  7 24  1  0
 10 25  1  0
 11 26  1  0
 14 27  1  0
M  ISO  8  20  14  21   9  22  14  23  14  24  14  25  14  26  14  27  14
M  END
>  <minimizedAffinity>  (1) 
-5.88269281

>  <minimizedRMSD>  (1) 
0.356600195

$$$$
