
     RDKit          3D

 37 40  0  0  0  0  0  0  0  0999 V2000
   47.6450   34.7500   41.6920 C   0  0  0  0  0  0  0  0  0  0  0  0
   48.6590   35.7040   41.5880 C   0  0  0  0  0  0  0  0  0  0  0  0
   49.0800   35.7570   40.3130 N   0  0  0  0  0  0  0  0  0  0  0  0
   48.3610   34.8670   39.6100 C   0  0  0  0  0  0  0  0  0  0  0  0
   48.4200   34.5500   38.2660 C   0  0  0  0  0  0  0  0  0  0  0  0
   47.5650   33.5910   37.7980 C   0  0  0  0  0  0  0  0  0  0  0  0
   46.6270   32.8940   38.5640 C   0  0  0  0  0  0  0  0  0  0  0  0
   46.6290   33.2690   39.9020 C   0  0  0  0  0  0  0  0  0  0  0  0
   47.4520   34.2170   40.4430 C   0  0  0  0  0  0  0  0  0  0  0  0
   45.6900   32.5920   40.7380 N   0  0  0  0  0  0  0  0  0  0  0  0
   45.8530   31.5340   41.5510 C   0  0  0  0  0  0  0  0  0  0  0  0
   44.7720   31.0620   42.2600 C   0  0  0  0  0  0  0  0  0  0  0  0
   45.0290   29.8900   43.1390 C   0  0  0  0  0  0  0  0  0  0  0  0
   43.5360   31.6370   42.1650 C   0  0  0  0  0  0  0  0  0  0  0  0
   42.6260   31.1200   42.8590 O   0  0  0  0  0  0  0  0  0  0  0  0
   43.4070   32.7020   41.3350 N   0  0  0  0  0  0  0  0  0  0  0  0
   44.4510   33.1580   40.6490 C   0  0  0  0  0  0  0  0  0  0  0  0
   44.1570   34.1640   39.9180 O   0  0  0  0  0  0  0  0  0  0  0  0
   45.0500   34.6640   44.3720 C   0  0  0  0  0  0  0  0  0  0  0  0
   45.7360   35.0290   43.2020 C   0  0  0  0  0  0  0  0  0  0  0  0
   46.9260   34.3840   42.8950 C   0  0  0  0  0  0  0  0  0  0  0  0
   47.3730   33.4110   43.7630 N   0  0  0  0  0  0  0  0  0  0  0  0
   46.6820   33.0900   44.8780 C   0  0  0  0  0  0  0  0  0  0  0  0
   45.5270   33.7090   45.1870 N   0  0  0  0  0  0  0  0  0  0  0  0
   49.0501   36.3137   42.4159 H   0  0  0  0  0  0  0  0  0  0  0  0
   49.8203   36.3695   39.9420 H   0  0  0  0  0  0  0  0  0  0  0  0
   49.1316   35.0528   37.5947 H   0  0  0  0  0  0  0  0  0  0  0  0
   47.6204   33.3474   36.7267 H   0  0  0  0  0  0  0  0  0  0  0  0
   45.9558   32.1270   38.1502 H   0  0  0  0  0  0  0  0  0  0  0  0
   46.8370   31.0520   41.6483 H   0  0  0  0  0  0  0  0  0  0  0  0
   44.9611   30.1998   44.1923 H   0  0  0  0  0  0  0  0  0  0  0  0
   44.2807   29.1094   42.9374 H   0  0  0  0  0  0  0  0  0  0  0  0
   46.0353   29.4941   42.9374 H   0  0  0  0  0  0  0  0  0  0  0  0
   42.4910   33.1623   41.2350 H   0  0  0  0  0  0  0  0  0  0  0  0
   44.1061   35.1689   44.6251 H   0  0  0  0  0  0  0  0  0  0  0  0
   45.3372   35.8123   42.5406 H   0  0  0  0  0  0  0  0  0  0  0  0
   47.0703   32.3077   45.5467 H   0  0  0  0  0  0  0  0  0  0  0  0
  1 21  1  0
  2  1  2  0
  3  2  1  0
  4  3  1  0
  4  9  2  0
  5  4  1  0
  6  5  2  0
  6  7  1  0
  7  8  2  0
  8  9  1  0
  8 10  1  0
  9  1  1  0
 10 11  1  0
 11 12  2  0
 12 13  1  0
 14 12  1  0
 14 15  2  0
 16 14  1  0
 17 10  1  0
 17 16  1  0
 18 17  2  0
 19 24  2  0
 20 19  1  0
 21 20  2  0
 21 22  1  0
 22 23  2  0
 23 24  1  0
  2 25  1  0
  3 26  1  0
  5 27  1  0
  6 28  1  0
  7 29  1  0
 11 30  1  0
 13 31  1  0
 13 32  1  0
 13 33  1  0
 16 34  1  0
 19 35  1  0
 20 36  1  0
 23 37  1  0
M  ISO  8  25  14  26   9  27  14  28  14  29  14  30  14  31   8  32   8
M  ISO  5  33   8  34   9  35  14  36  14  37  14
M  END
>  <minimizedAffinity>  (1) 
-5.68978262

>  <minimizedRMSD>  (1) 
1.2542727

$$$$
