
     RDKit          3D

 25 27  0  0  0  0  0  0  0  0999 V2000
   47.2450   34.9450   41.9080 C   0  0  0  0  0  0  0  0  0  0  0  0
   48.4670   35.6080   41.7610 C   0  0  0  0  0  0  0  0  0  0  0  0
   48.9480   35.3740   40.5230 N   0  0  0  0  0  0  0  0  0  0  0  0
   48.0620   34.5790   39.8800 C   0  0  0  0  0  0  0  0  0  0  0  0
   48.1060   34.0690   38.6000 C   0  0  0  0  0  0  0  0  0  0  0  0
   47.0640   33.2820   38.1930 C   0  0  0  0  0  0  0  0  0  0  0  0
   45.9530   32.9470   38.9700 C   0  0  0  0  0  0  0  0  0  0  0  0
   45.9810   33.4950   40.2390 C   0  0  0  0  0  0  0  0  0  0  0  0
   46.9730   34.2870   40.7240 C   0  0  0  0  0  0  0  0  0  0  0  0
   44.6650   35.9750   44.3970 C   0  0  0  0  0  0  0  0  0  0  0  0
   45.4880   35.9910   43.2470 C   0  0  0  0  0  0  0  0  0  0  0  0
   46.3940   34.9350   43.0910 C   0  0  0  0  0  0  0  0  0  0  0  0
   46.4470   33.9540   44.0290 N   0  0  0  0  0  0  0  0  0  0  0  0
   45.6370   33.9790   45.1200 C   0  0  0  0  0  0  0  0  0  0  0  0
   44.7540   34.9770   45.3050 N   0  0  0  0  0  0  0  0  0  0  0  0
   44.9120   33.2190   41.0910 O   0  0  0  0  0  0  0  0  0  0  0  0
   48.9572   36.2217   42.5311 H   0  0  0  0  0  0  0  0  0  0  0  0
   49.8315   35.7357   40.1363 H   0  0  0  0  0  0  0  0  0  0  0  0
   48.9500   34.2874   37.9292 H   0  0  0  0  0  0  0  0  0  0  0  0
   47.1044   32.8800   37.1699 H   0  0  0  0  0  0  0  0  0  0  0  0
   45.1342   32.3084   38.6072 H   0  0  0  0  0  0  0  0  0  0  0  0
   43.9407   36.7876   44.5554 H   0  0  0  0  0  0  0  0  0  0  0  0
   45.4191   36.8003   42.5052 H   0  0  0  0  0  0  0  0  0  0  0  0
   45.7044   33.1708   45.8632 H   0  0  0  0  0  0  0  0  0  0  0  0
   44.8991   33.5949   42.0068 H   0  0  0  0  0  0  0  0  0  0  0  0
  1 12  1  0
  2  1  2  0
  3  2  1  0
  4  3  1  0
  4  9  2  0
  5  4  1  0
  6  5  2  0
  6  7  1  0
  7  8  2  0
  8  9  1  0
  8 16  1  0
  9  1  1  0
 10 15  2  0
 11 10  1  0
 12 11  2  0
 12 13  1  0
 13 14  2  0
 14 15  1  0
  2 17  1  0
  3 18  1  0
  5 19  1  0
  6 20  1  0
  7 21  1  0
 10 22  1  0
 11 23  1  0
 14 24  1  0
 16 25  1  0
M  ISO  8  17  14  18   9  19  14  20  14  21  14  22  14  23  14  24  14
M  ISO  1  25   3
M  END
>  <minimizedAffinity>  (1) 
-5.65958595

>  <minimizedRMSD>  (1) 
0.0807919055

$$$$
