
     RDKit          3D

 30 32  0  0  0  0  0  0  0  0999 V2000
   47.2450   34.9490   41.8950 C   0  0  0  0  0  0  0  0  0  0  0  0
   48.5100   35.5220   41.7880 C   0  0  0  0  0  0  0  0  0  0  0  0
   49.0010   35.2730   40.5590 N   0  0  0  0  0  0  0  0  0  0  0  0
   48.0700   34.5520   39.8870 C   0  0  0  0  0  0  0  0  0  0  0  0
   48.1120   34.0580   38.6030 C   0  0  0  0  0  0  0  0  0  0  0  0
   47.0270   33.3500   38.1620 C   0  0  0  0  0  0  0  0  0  0  0  0
   45.8850   33.0900   38.9090 C   0  0  0  0  0  0  0  0  0  0  0  0
   45.9080   33.6140   40.1880 C   0  0  0  0  0  0  0  0  0  0  0  0
   46.9550   34.3320   40.7010 C   0  0  0  0  0  0  0  0  0  0  0  0
   44.6340   36.0560   44.3170 C   0  0  0  0  0  0  0  0  0  0  0  0
   45.4700   36.0270   43.1900 C   0  0  0  0  0  0  0  0  0  0  0  0
   46.3790   34.9850   43.0540 C   0  0  0  0  0  0  0  0  0  0  0  0
   46.4080   34.0290   44.0450 N   0  0  0  0  0  0  0  0  0  0  0  0
   45.5890   34.0920   45.1140 C   0  0  0  0  0  0  0  0  0  0  0  0
   44.6960   35.1010   45.2610 N   0  0  0  0  0  0  0  0  0  0  0  0
   44.7010   33.3670   41.0300 C   0  0  0  0  0  0  0  0  0  0  0  0
   43.5240   34.2510   40.5830 C   0  0  0  0  0  0  0  0  0  0  0  0
   49.0247   36.0866   42.5794 H   0  0  0  0  0  0  0  0  0  0  0  0
   49.9163   35.5750   40.1959 H   0  0  0  0  0  0  0  0  0  0  0  0
   48.9851   34.2260   37.9554 H   0  0  0  0  0  0  0  0  0  0  0  0
   47.0619   32.9559   37.1356 H   0  0  0  0  0  0  0  0  0  0  0  0
   45.0336   32.5152   38.5156 H   0  0  0  0  0  0  0  0  0  0  0  0
   43.9122   36.8783   44.4303 H   0  0  0  0  0  0  0  0  0  0  0  0
   45.4066   36.8165   42.4267 H   0  0  0  0  0  0  0  0  0  0  0  0
   45.6467   33.3079   45.8833 H   0  0  0  0  0  0  0  0  0  0  0  0
   44.4106   32.3098   40.9405 H   0  0  0  0  0  0  0  0  0  0  0  0
   44.9465   33.6133   42.0736 H   0  0  0  0  0  0  0  0  0  0  0  0
   43.0025   34.6427   41.4688 H   0  0  0  0  0  0  0  0  0  0  0  0
   43.9033   35.0894   39.9803 H   0  0  0  0  0  0  0  0  0  0  0  0
   42.8246   33.6531   39.9803 H   0  0  0  0  0  0  0  0  0  0  0  0
  1 12  1  0
  2  1  2  0
  3  2  1  0
  4  3  1  0
  4  9  2  0
  5  4  1  0
  6  5  2  0
  6  7  1  0
  7  8  2  0
  8  9  1  0
  8 16  1  0
  9  1  1  0
 10 15  2  0
 11 10  1  0
 12 11  2  0
 12 13  1  0
 13 14  2  0
 14 15  1  0
 17 16  1  0
  2 18  1  0
  3 19  1  0
  5 20  1  0
  6 21  1  0
  7 22  1  0
 10 23  1  0
 11 24  1  0
 14 25  1  0
 16 26  1  0
 16 27  1  0
 17 28  1  0
 17 29  1  0
 17 30  1  0
M  ISO  8  18  14  19   9  20  14  21  14  22  14  23  14  24  14  25  14
M  ISO  5  26   8  27   8  28   8  29   8  30   8
M  END
>  <minimizedAffinity>  (1) 
-5.70088196

>  <minimizedRMSD>  (1) 
0.502290368

$$$$
