
     RDKit          3D

 33 35  0  0  0  0  0  0  0  0999 V2000
   47.2240   34.9410   41.8980 C   0  0  0  0  0  0  0  0  0  0  0  0
   48.4800   35.5260   41.7910 C   0  0  0  0  0  0  0  0  0  0  0  0
   48.9870   35.2910   40.5750 N   0  0  0  0  0  0  0  0  0  0  0  0
   48.0740   34.5630   39.9040 C   0  0  0  0  0  0  0  0  0  0  0  0
   48.1070   34.0610   38.6190 C   0  0  0  0  0  0  0  0  0  0  0  0
   47.0290   33.3390   38.1710 C   0  0  0  0  0  0  0  0  0  0  0  0
   45.8770   33.0680   38.9280 C   0  0  0  0  0  0  0  0  0  0  0  0
   45.9080   33.5990   40.2030 C   0  0  0  0  0  0  0  0  0  0  0  0
   46.9450   34.3220   40.7090 C   0  0  0  0  0  0  0  0  0  0  0  0
   44.6310   36.0980   44.3200 C   0  0  0  0  0  0  0  0  0  0  0  0
   45.4630   36.0550   43.1990 C   0  0  0  0  0  0  0  0  0  0  0  0
   46.3630   34.9780   43.0590 C   0  0  0  0  0  0  0  0  0  0  0  0
   46.3740   34.0160   44.0470 N   0  0  0  0  0  0  0  0  0  0  0  0
   45.5420   34.1100   45.1150 C   0  0  0  0  0  0  0  0  0  0  0  0
   44.6800   35.1370   45.2530 N   0  0  0  0  0  0  0  0  0  0  0  0
   44.7060   33.3320   40.9960 C   0  0  0  0  0  0  0  0  0  0  0  0
   45.2010   32.5530   42.2300 C   0  0  0  0  0  0  0  0  0  0  0  0
   44.0880   34.6100   41.5520 C   0  0  0  0  0  0  0  0  0  0  0  0
   48.9820   36.0965   42.5863 H   0  0  0  0  0  0  0  0  0  0  0  0
   49.9009   35.6066   40.2201 H   0  0  0  0  0  0  0  0  0  0  0  0
   48.9770   34.2354   37.9688 H   0  0  0  0  0  0  0  0  0  0  0  0
   47.0701   32.9441   37.1452 H   0  0  0  0  0  0  0  0  0  0  0  0
   45.0277   32.4860   38.5408 H   0  0  0  0  0  0  0  0  0  0  0  0
   43.9249   36.9331   44.4389 H   0  0  0  0  0  0  0  0  0  0  0  0
   45.4172   36.8479   42.4379 H   0  0  0  0  0  0  0  0  0  0  0  0
   45.5719   33.3279   45.8880 H   0  0  0  0  0  0  0  0  0  0  0  0
   43.9655   32.8142   40.3687 H   0  0  0  0  0  0  0  0  0  0  0  0
   44.8734   33.0686   43.1448 H   0  0  0  0  0  0  0  0  0  0  0  0
   44.7834   31.5355   42.2130 H   0  0  0  0  0  0  0  0  0  0  0  0
   46.2995   32.4989   42.2130 H   0  0  0  0  0  0  0  0  0  0  0  0
   44.1040   34.5769   42.6514 H   0  0  0  0  0  0  0  0  0  0  0  0
   44.6656   35.4786   41.2029 H   0  0  0  0  0  0  0  0  0  0  0  0
   43.0485   34.6966   41.2029 H   0  0  0  0  0  0  0  0  0  0  0  0
  1 12  1  0
  2  1  2  0
  3  2  1  0
  4  3  1  0
  4  9  2  0
  5  4  1  0
  6  5  2  0
  6  7  1  0
  7  8  2  0
  8  9  1  0
  8 16  1  0
  9  1  1  0
 10 15  2  0
 11 10  1  0
 12 11  2  0
 12 13  1  0
 13 14  2  0
 14 15  1  0
 16 18  1  0
 16 17  1  0
  2 19  1  0
  3 20  1  0
  5 21  1  0
  6 22  1  0
  7 23  1  0
 10 24  1  0
 11 25  1  0
 14 26  1  0
 16 27  1  0
 17 28  1  0
 17 29  1  0
 17 30  1  0
 18 31  1  0
 18 32  1  0
 18 33  1  0
M  ISO  8  19  14  20   9  21  14  22  14  23  14  24  14  25  14  26  14
M  ISO  7  27   8  28   8  29   8  30   8  31   8  32   8  33   8
M  END
>  <minimizedAffinity>  (1) 
-5.84195614

>  <minimizedRMSD>  (1) 
0.273660004

$$$$
