
     RDKit          3D

 31 34  0  0  0  0  0  0  0  0999 V2000
   47.3700   34.9350   41.7650 C   0  0  0  0  0  0  0  0  0  0  0  0
   48.5570   35.6600   41.6550 C   0  0  0  0  0  0  0  0  0  0  0  0
   49.0480   35.5080   40.4130 N   0  0  0  0  0  0  0  0  0  0  0  0
   48.2120   34.7130   39.7390 C   0  0  0  0  0  0  0  0  0  0  0  0
   48.2600   34.2480   38.4250 C   0  0  0  0  0  0  0  0  0  0  0  0
   47.2590   33.4320   37.9780 C   0  0  0  0  0  0  0  0  0  0  0  0
   46.1610   33.0120   38.7440 C   0  0  0  0  0  0  0  0  0  0  0  0
   46.1700   33.5060   40.0320 C   0  0  0  0  0  0  0  0  0  0  0  0
   47.1360   34.3250   40.5500 C   0  0  0  0  0  0  0  0  0  0  0  0
   44.6650   35.6850   44.2360 C   0  0  0  0  0  0  0  0  0  0  0  0
   45.4890   35.7680   43.1030 C   0  0  0  0  0  0  0  0  0  0  0  0
   46.5280   34.8360   42.9400 C   0  0  0  0  0  0  0  0  0  0  0  0
   46.6760   33.8930   43.9060 N   0  0  0  0  0  0  0  0  0  0  0  0
   45.8680   33.8410   44.9820 C   0  0  0  0  0  0  0  0  0  0  0  0
   44.8660   34.7220   45.1590 N   0  0  0  0  0  0  0  0  0  0  0  0
   45.0800   33.1200   40.8740 N   0  0  0  0  0  0  0  0  0  0  0  0
   45.0350   32.1400   41.7560 N   0  0  0  0  0  0  0  0  0  0  0  0
   43.8390   32.0720   42.3670 C   0  0  0  0  0  0  0  0  0  0  0  0
   43.0540   33.0750   41.8440 C   0  0  0  0  0  0  0  0  0  0  0  0
   43.8560   33.7100   40.9170 C   0  0  0  0  0  0  0  0  0  0  0  0
   49.0166   36.2589   42.4551 H   0  0  0  0  0  0  0  0  0  0  0  0
   49.9137   35.9290   40.0465 H   0  0  0  0  0  0  0  0  0  0  0  0
   49.0888   34.5330   37.7603 H   0  0  0  0  0  0  0  0  0  0  0  0
   47.3186   33.0774   36.9384 H   0  0  0  0  0  0  0  0  0  0  0  0
   45.3704   32.3533   38.3555 H   0  0  0  0  0  0  0  0  0  0  0  0
   43.8494   36.4104   44.3724 H   0  0  0  0  0  0  0  0  0  0  0  0
   45.3234   36.5537   42.3511 H   0  0  0  0  0  0  0  0  0  0  0  0
   46.0313   33.0574   45.7366 H   0  0  0  0  0  0  0  0  0  0  0  0
   43.5427   31.3490   43.1412 H   0  0  0  0  0  0  0  0  0  0  0  0
   42.0139   33.3176   42.1075 H   0  0  0  0  0  0  0  0  0  0  0  0
   43.5491   34.5690   40.3022 H   0  0  0  0  0  0  0  0  0  0  0  0
  1 12  1  0
  2  1  2  0
  3  2  1  0
  4  3  1  0
  4  9  2  0
  5  4  1  0
  6  5  2  0
  6  7  1  0
  7  8  2  0
  8  9  1  0
  8 16  1  0
  9  1  1  0
 10 15  2  0
 11 10  1  0
 12 11  2  0
 12 13  1  0
 13 14  2  0
 14 15  1  0
 16 20  1  0
 16 17  1  0
 17 18  2  0
 19 18  1  0
 20 19  2  0
  2 21  1  0
  3 22  1  0
  5 23  1  0
  6 24  1  0
  7 25  1  0
 10 26  1  0
 11 27  1  0
 14 28  1  0
 18 29  1  0
 19 30  1  0
 20 31  1  0
M  ISO  8  21  14  22   9  23  14  24  14  25  14  26  14  27  14  28  14
M  ISO  3  29  14  30  14  31  14
M  END
>  <minimizedAffinity>  (1) 
-5.83729076

>  <minimizedRMSD>  (1) 
0.499317229

$$$$
