
     RDKit          3D

 26 28  0  0  0  0  0  0  0  0999 V2000
   47.2560   34.9470   41.9040 C   0  0  0  0  0  0  0  0  0  0  0  0
   48.4670   35.5940   41.7560 C   0  0  0  0  0  0  0  0  0  0  0  0
   48.9460   35.3640   40.5270 N   0  0  0  0  0  0  0  0  0  0  0  0
   48.0610   34.5790   39.8860 C   0  0  0  0  0  0  0  0  0  0  0  0
   48.1060   34.0720   38.6060 C   0  0  0  0  0  0  0  0  0  0  0  0
   47.0510   33.2830   38.1910 C   0  0  0  0  0  0  0  0  0  0  0  0
   45.9440   32.9590   38.9730 C   0  0  0  0  0  0  0  0  0  0  0  0
   45.9690   33.5000   40.2400 C   0  0  0  0  0  0  0  0  0  0  0  0
   46.9840   34.2940   40.7200 C   0  0  0  0  0  0  0  0  0  0  0  0
   44.6600   35.9620   44.4010 C   0  0  0  0  0  0  0  0  0  0  0  0
   45.4850   35.9710   43.2620 C   0  0  0  0  0  0  0  0  0  0  0  0
   46.3990   34.9370   43.0900 C   0  0  0  0  0  0  0  0  0  0  0  0
   46.4490   33.9630   44.0400 N   0  0  0  0  0  0  0  0  0  0  0  0
   45.6500   33.9710   45.1270 C   0  0  0  0  0  0  0  0  0  0  0  0
   44.7550   34.9760   45.3030 N   0  0  0  0  0  0  0  0  0  0  0  0
   44.8690   33.2100   41.0920 N   0  0  0  0  0  0  0  0  0  0  0  0
   48.9610   36.2032   42.5273 H   0  0  0  0  0  0  0  0  0  0  0  0
   49.8314   35.7229   40.1421 H   0  0  0  0  0  0  0  0  0  0  0  0
   48.9526   34.2880   37.9377 H   0  0  0  0  0  0  0  0  0  0  0  0
   47.0873   32.8808   37.1678 H   0  0  0  0  0  0  0  0  0  0  0  0
   45.1210   32.3258   38.6100 H   0  0  0  0  0  0  0  0  0  0  0  0
   43.9306   36.7713   44.5525 H   0  0  0  0  0  0  0  0  0  0  0  0
   45.4088   36.7806   42.5212 H   0  0  0  0  0  0  0  0  0  0  0  0
   45.7239   33.1634   45.8702 H   0  0  0  0  0  0  0  0  0  0  0  0
   44.8434   33.5922   42.0481 H   0  0  0  0  0  0  0  0  0  0  0  0
   44.0974   32.6176   40.7533 H   0  0  0  0  0  0  0  0  0  0  0  0
  1 12  1  0
  2  1  2  0
  3  2  1  0
  4  3  1  0
  4  9  2  0
  5  4  1  0
  6  5  2  0
  6  7  1  0
  7  8  2  0
  8  9  1  0
  8 16  1  0
  9  1  1  0
 10 15  2  0
 11 10  1  0
 12 11  2  0
 12 13  1  0
 13 14  2  0
 14 15  1  0
  2 17  1  0
  3 18  1  0
  5 19  1  0
  6 20  1  0
  7 21  1  0
 10 22  1  0
 11 23  1  0
 14 24  1  0
 16 25  1  0
 16 26  1  0
M  ISO  8  17  14  18   9  19  14  20  14  21  14  22  14  23  14  24  14
M  END
>  <minimizedAffinity>  (1) 
-5.66428089

>  <minimizedRMSD>  (1) 
0.0723083913

$$$$
