
     RDKit          3D

 38 41  0  0  1  0  0  0  0  0999 V2000
   44.6460   35.7120   44.8950 C   0  0  0  0  0  0  0  0  0  0  0  0
   45.2040   35.5890   43.5870 C   0  0  0  0  0  0  0  0  0  0  0  0
   45.9480   34.4680   43.3230 C   0  0  0  0  0  0  0  0  0  0  0  0
   46.1110   33.5410   44.3180 N   0  0  0  0  0  0  0  0  0  0  0  0
   45.5680   33.6950   45.5350 C   0  0  0  0  0  0  0  0  0  0  0  0
   44.8430   34.7620   45.8280 N   0  0  0  0  0  0  0  0  0  0  0  0
   45.7810   32.6790   46.5590 N   0  0  0  0  0  0  0  0  0  0  0  0
   45.2060   32.8180   47.8710 C   0  0  0  0  0  0  0  0  0  0  0  0
   46.0960   32.2850   48.9520 C   0  0  0  0  0  0  0  0  0  0  0  0
   47.4950   32.1010   48.4280 C   0  0  0  0  0  0  0  0  0  0  0  0
   47.4100   31.0110   47.3590 C   0  0  0  0  0  0  0  0  0  0  0  0
   46.5940   31.5060   46.2340 C   0  0  1  0  0  0  0  0  0  0  0  0
   45.7780   30.4460   45.5540 C   0  0  0  0  0  0  0  0  0  0  0  0
   45.7170   30.1330   44.2670 N   0  0  0  0  0  0  0  0  0  0  0  0
   44.9090   29.1400   44.0560 O   0  0  0  0  0  0  0  0  0  0  0  0
   44.4270   28.7920   45.2270 C   0  0  0  0  0  0  0  0  0  0  0  0
   44.9390   29.5790   46.1990 N   0  0  0  0  0  0  0  0  0  0  0  0
   43.2570   27.4360   45.3950 S   0  0  0  0  0  0  0  0  0  0  0  0
   44.0070   26.2300   46.5030 C   0  0  0  0  0  0  0  0  0  0  0  0
   44.2000   26.5110   47.9400 C   0  0  0  0  0  0  0  0  0  0  0  0
   43.0730   25.6090   47.5160 C   0  0  0  0  0  0  0  0  0  0  0  0
   44.0446   36.5985   45.1449 H   0  0  0  0  0  0  0  0  0  0  0  0
   45.0436   36.3625   42.8215 H   0  0  0  0  0  0  0  0  0  0  0  0
   46.4041   34.3164   42.3336 H   0  0  0  0  0  0  0  0  0  0  0  0
   45.0202   33.8851   48.0625 H   0  0  0  0  0  0  0  0  0  0  0  0
   44.2746   32.2331   47.8891 H   0  0  0  0  0  0  0  0  0  0  0  0
   46.1128   32.9949   49.7921 H   0  0  0  0  0  0  0  0  0  0  0  0
   45.7081   31.3129   49.2904 H   0  0  0  0  0  0  0  0  0  0  0  0
   47.8637   33.0391   47.9876 H   0  0  0  0  0  0  0  0  0  0  0  0
   48.1907   31.8202   49.2324 H   0  0  0  0  0  0  0  0  0  0  0  0
   48.4208   30.7650   47.0016 H   0  0  0  0  0  0  0  0  0  0  0  0
   46.9485   30.1077   47.7844 H   0  0  0  0  0  0  0  0  0  0  0  0
   47.3458   31.8371   45.5024 H   0  0  0  0  0  0  0  0  0  0  0  0
   44.6970   25.8872   45.7179 H   0  0  0  0  0  0  0  0  0  0  0  0
   45.0685   26.0907   48.4682 H   0  0  0  0  0  0  0  0  0  0  0  0
   44.2705   27.4268   48.5453 H   0  0  0  0  0  0  0  0  0  0  0  0
   42.0307   25.9523   47.5915 H   0  0  0  0  0  0  0  0  0  0  0  0
   42.7489   24.5873   47.7631 H   0  0  0  0  0  0  0  0  0  0  0  0
  1  6  2  0
  2  1  1  0
  3  2  2  0
  3  4  1  0
  4  5  2  0
  5  6  1  0
  5  7  1  0
  7  8  1  0
  8  9  1  0
 10  9  1  0
 11 10  1  0
 12  7  1  0
 12 11  1  0
 13 17  1  0
 13 12  1  0
 14 13  2  0
 15 14  1  0
 15 16  1  0
 16 18  1  0
 16 17  2  0
 18 19  1  0
 19 21  1  0
 19 20  1  0
 21 20  1  0
  1 22  1  0
  2 23  1  0
  3 24  1  0
  8 25  1  0
  8 26  1  0
  9 27  1  0
  9 28  1  0
 10 29  1  0
 10 30  1  0
 11 31  1  0
 11 32  1  0
 12 33  1  6
 19 34  1  0
 20 35  1  0
 20 36  1  0
 21 37  1  0
 21 38  1  0
M  ISO  8  22  14  23  14  24  14  25  13  26  13  27  13  28  13  29  13
M  ISO  8  30  13  31  13  32  13  33  13  34  13  35  13  36  13  37  13
M  ISO  1  38  13
M  END
>  <minimizedAffinity>  (1) 
-5.26938057

>  <minimizedRMSD>  (1) 
0.651150703

$$$$
