
     RDKit          3D

 40 42  0  0  1  0  0  0  0  0999 V2000
   44.6280   35.7400   44.8910 C   0  0  0  0  0  0  0  0  0  0  0  0
   45.1880   35.6200   43.5870 C   0  0  0  0  0  0  0  0  0  0  0  0
   45.9330   34.4900   43.3060 C   0  0  0  0  0  0  0  0  0  0  0  0
   46.0800   33.5630   44.3060 N   0  0  0  0  0  0  0  0  0  0  0  0
   45.5450   33.7080   45.5070 C   0  0  0  0  0  0  0  0  0  0  0  0
   44.8260   34.7830   45.8020 N   0  0  0  0  0  0  0  0  0  0  0  0
   45.7490   32.6800   46.5270 N   0  0  0  0  0  0  0  0  0  0  0  0
   45.1670   32.8230   47.8450 C   0  0  0  0  0  0  0  0  0  0  0  0
   46.0470   32.2700   48.9300 C   0  0  0  0  0  0  0  0  0  0  0  0
   47.4420   32.0760   48.4150 C   0  0  0  0  0  0  0  0  0  0  0  0
   47.3560   30.9960   47.3300 C   0  0  0  0  0  0  0  0  0  0  0  0
   46.5540   31.5010   46.1980 C   0  0  1  0  0  0  0  0  0  0  0  0
   45.7350   30.4540   45.5230 C   0  0  0  0  0  0  0  0  0  0  0  0
   45.4560   30.3200   44.2240 N   0  0  0  0  0  0  0  0  0  0  0  0
   44.7160   29.2680   44.0020 O   0  0  0  0  0  0  0  0  0  0  0  0
   44.5040   28.6960   45.1820 C   0  0  0  0  0  0  0  0  0  0  0  0
   45.1180   29.4040   46.1390 N   0  0  0  0  0  0  0  0  0  0  0  0
   43.5230   27.2040   45.3080 S   0  0  0  0  0  0  0  0  0  0  0  0
   41.7900   27.4730   44.9040 C   0  0  0  0  0  0  0  0  0  0  0  0
   41.4560   28.9230   45.1940 C   0  0  0  0  0  0  0  0  0  0  0  0
   40.9820   26.6270   45.8740 C   0  0  0  0  0  0  0  0  0  0  0  0
   44.0290   36.6257   45.1496 H   0  0  0  0  0  0  0  0  0  0  0  0
   45.0327   36.4011   42.8282 H   0  0  0  0  0  0  0  0  0  0  0  0
   46.3909   34.3399   42.3172 H   0  0  0  0  0  0  0  0  0  0  0  0
   44.9967   33.8920   48.0405 H   0  0  0  0  0  0  0  0  0  0  0  0
   44.2265   32.2527   47.8568 H   0  0  0  0  0  0  0  0  0  0  0  0
   46.0662   32.9727   49.7761 H   0  0  0  0  0  0  0  0  0  0  0  0
   45.6466   31.2993   49.2579 H   0  0  0  0  0  0  0  0  0  0  0  0
   47.8240   33.0150   47.9879 H   0  0  0  0  0  0  0  0  0  0  0  0
   48.1273   31.7772   49.2219 H   0  0  0  0  0  0  0  0  0  0  0  0
   48.3684   30.7461   46.9799 H   0  0  0  0  0  0  0  0  0  0  0  0
   46.8797   30.0954   47.7449 H   0  0  0  0  0  0  0  0  0  0  0  0
   47.3085   31.8264   45.4667 H   0  0  0  0  0  0  0  0  0  0  0  0
   41.5798   27.2235   43.8535 H   0  0  0  0  0  0  0  0  0  0  0  0
   41.4197   29.0804   46.2821 H   0  0  0  0  0  0  0  0  0  0  0  0
   42.2282   29.5720   44.7552 H   0  0  0  0  0  0  0  0  0  0  0  0
   40.4777   29.1688   44.7552 H   0  0  0  0  0  0  0  0  0  0  0  0
   41.2443   26.9016   46.9064 H   0  0  0  0  0  0  0  0  0  0  0  0
   39.9089   26.8039   45.7089 H   0  0  0  0  0  0  0  0  0  0  0  0
   41.2080   25.5632   45.7089 H   0  0  0  0  0  0  0  0  0  0  0  0
  1  6  2  0
  2  1  1  0
  3  2  2  0
  3  4  1  0
  4  5  2  0
  5  6  1  0
  5  7  1  0
  7  8  1  0
  8  9  1  0
 10  9  1  0
 11 10  1  0
 12  7  1  0
 12 11  1  0
 13 17  1  0
 13 12  1  0
 14 13  2  0
 15 14  1  0
 15 16  1  0
 16 18  1  0
 16 17  2  0
 19 20  1  0
 19 18  1  0
 19 21  1  0
  1 22  1  0
  2 23  1  0
  3 24  1  0
  8 25  1  0
  8 26  1  0
  9 27  1  0
  9 28  1  0
 10 29  1  0
 10 30  1  0
 11 31  1  0
 11 32  1  0
 12 33  1  6
 19 34  1  0
 20 35  1  0
 20 36  1  0
 20 37  1  0
 21 38  1  0
 21 39  1  0
 21 40  1  0
M  ISO  8  22  14  23  14  24  14  25  13  26  13  27  13  28  13  29  13
M  ISO  8  30  13  31  13  32  13  33  13  34   8  35   8  36   8  37   8
M  ISO  3  38   8  39   8  40   8
M  END
>  <minimizedAffinity>  (1) 
-5.25647449

>  <minimizedRMSD>  (1) 
0.259709626

$$$$
