
     RDKit          3D

 37 40  0  0  1  0  0  0  0  0999 V2000
   47.2980   34.9150   41.8760 C   0  0  0  0  0  0  0  0  0  0  0  0
   48.5310   35.5660   41.7700 C   0  0  0  0  0  0  0  0  0  0  0  0
   49.0210   35.3800   40.5370 N   0  0  0  0  0  0  0  0  0  0  0  0
   48.1320   34.6290   39.8630 C   0  0  0  0  0  0  0  0  0  0  0  0
   48.1650   34.1630   38.5630 C   0  0  0  0  0  0  0  0  0  0  0  0
   47.1260   33.4150   38.1170 C   0  0  0  0  0  0  0  0  0  0  0  0
   46.0010   33.0680   38.8760 C   0  0  0  0  0  0  0  0  0  0  0  0
   46.0410   33.5710   40.1680 C   0  0  0  0  0  0  0  0  0  0  0  0
   47.0370   34.3180   40.6760 C   0  0  0  0  0  0  0  0  0  0  0  0
   44.8690   33.1710   40.8930 N   0  0  0  0  0  0  0  0  0  0  0  0
   43.5060   33.5410   41.1420 C   0  0  0  0  0  0  0  0  0  0  0  0
   42.8490   32.2990   41.7150 C   0  0  0  0  0  0  0  0  0  0  0  0
   43.9740   31.8290   42.6170 C   0  0  0  0  0  0  0  0  0  0  0  0
   45.1380   31.9300   41.6620 C   0  0  1  0  0  0  0  0  0  0  0  0
   45.3510   30.5040   40.6080 S   0  0  0  0  0  0  0  0  0  0  0  0
   44.6220   35.7840   44.3240 C   0  0  0  0  0  0  0  0  0  0  0  0
   45.4200   35.8380   43.1840 C   0  0  0  0  0  0  0  0  0  0  0  0
   46.4510   34.8820   43.0570 C   0  0  0  0  0  0  0  0  0  0  0  0
   46.6070   33.9640   44.0540 N   0  0  0  0  0  0  0  0  0  0  0  0
   45.8090   33.9500   45.1420 C   0  0  0  0  0  0  0  0  0  0  0  0
   44.8180   34.8560   45.2800 N   0  0  0  0  0  0  0  0  0  0  0  0
   49.0205   36.1393   42.5711 H   0  0  0  0  0  0  0  0  0  0  0  0
   49.9129   35.7445   40.1729 H   0  0  0  0  0  0  0  0  0  0  0  0
   49.0153   34.3937   37.9044 H   0  0  0  0  0  0  0  0  0  0  0  0
   47.1698   33.0527   37.0793 H   0  0  0  0  0  0  0  0  0  0  0  0
   45.1713   32.4593   38.4874 H   0  0  0  0  0  0  0  0  0  0  0  0
   43.4580   34.3696   41.8639 H   0  0  0  0  0  0  0  0  0  0  0  0
   43.0020   33.8849   40.2268 H   0  0  0  0  0  0  0  0  0  0  0  0
   41.9381   32.5392   42.2830 H   0  0  0  0  0  0  0  0  0  0  0  0
   42.4989   31.5649   40.9743 H   0  0  0  0  0  0  0  0  0  0  0  0
   44.1020   32.4894   43.4873 H   0  0  0  0  0  0  0  0  0  0  0  0
   43.8254   30.8338   43.0614 H   0  0  0  0  0  0  0  0  0  0  0  0
   46.0931   31.9637   42.2067 H   0  0  0  0  0  0  0  0  0  0  0  0
   45.5181   29.3855   41.3812 H   0  0  0  0  0  0  0  0  0  0  0  0
   43.8115   36.5175   44.4466 H   0  0  0  0  0  0  0  0  0  0  0  0
   45.2526   36.6000   42.4085 H   0  0  0  0  0  0  0  0  0  0  0  0
   45.9676   33.1929   45.9241 H   0  0  0  0  0  0  0  0  0  0  0  0
  1 18  1  0
  2  1  2  0
  3  2  1  0
  4  3  1  0
  4  9  2  0
  5  4  1  0
  6  5  2  0
  6  7  1  0
  7  8  2  0
  8  9  1  0
  8 10  1  0
  9  1  1  0
 10 11  1  0
 10 14  1  0
 11 12  1  0
 12 13  1  0
 14 13  1  0
 15 14  1  0
 16 21  2  0
 17 16  1  0
 18 17  2  0
 18 19  1  0
 19 20  2  0
 20 21  1  0
  2 22  1  0
  3 23  1  0
  5 24  1  0
  6 25  1  0
  7 26  1  0
 11 27  1  0
 11 28  1  0
 12 29  1  0
 12 30  1  0
 13 31  1  0
 13 32  1  0
 14 33  1  1
 15 34  1  0
 16 35  1  0
 17 36  1  0
 20 37  1  0
M  ISO  8  22  14  23   9  24  14  25  14  26  14  27  13  28  13  29  13
M  ISO  8  30  13  31  13  32  13  33  13  34  11  35  14  36  14  37  14
M  END
>  <minimizedAffinity>  (1) 
-6.05659962

>  <minimizedRMSD>  (1) 
0.0974391177

$$$$
