
     RDKit          3D

 38 41  0  0  1  0  0  0  0  0999 V2000
   47.2920   34.9160   41.8800 C   0  0  0  0  0  0  0  0  0  0  0  0
   48.5280   35.5610   41.7670 C   0  0  0  0  0  0  0  0  0  0  0  0
   49.0140   35.3690   40.5320 N   0  0  0  0  0  0  0  0  0  0  0  0
   48.1230   34.6200   39.8580 C   0  0  0  0  0  0  0  0  0  0  0  0
   48.1640   34.1600   38.5680 C   0  0  0  0  0  0  0  0  0  0  0  0
   47.1200   33.4100   38.1150 C   0  0  0  0  0  0  0  0  0  0  0  0
   45.9900   33.0660   38.8770 C   0  0  0  0  0  0  0  0  0  0  0  0
   46.0330   33.5730   40.1680 C   0  0  0  0  0  0  0  0  0  0  0  0
   47.0330   34.3190   40.6730 C   0  0  0  0  0  0  0  0  0  0  0  0
   44.8580   33.1820   40.8910 N   0  0  0  0  0  0  0  0  0  0  0  0
   43.5010   33.5800   41.1400 C   0  0  0  0  0  0  0  0  0  0  0  0
   42.8190   32.3470   41.7000 C   0  0  0  0  0  0  0  0  0  0  0  0
   43.9310   31.8410   42.5990 C   0  0  0  0  0  0  0  0  0  0  0  0
   45.0970   31.9320   41.6510 C   0  0  1  0  0  0  0  0  0  0  0  0
   45.2230   30.8130   40.7840 N   0  0  0  0  0  0  0  0  0  0  0  0
   44.6180   35.8180   44.3140 C   0  0  0  0  0  0  0  0  0  0  0  0
   45.4300   35.8550   43.1790 C   0  0  0  0  0  0  0  0  0  0  0  0
   46.4480   34.8870   43.0530 C   0  0  0  0  0  0  0  0  0  0  0  0
   46.5740   33.9740   44.0510 N   0  0  0  0  0  0  0  0  0  0  0  0
   45.7750   33.9650   45.1330 C   0  0  0  0  0  0  0  0  0  0  0  0
   44.7960   34.8800   45.2730 N   0  0  0  0  0  0  0  0  0  0  0  0
   49.0228   36.1347   42.5646 H   0  0  0  0  0  0  0  0  0  0  0  0
   49.9069   35.7294   40.1662 H   0  0  0  0  0  0  0  0  0  0  0  0
   49.0182   34.3903   37.9143 H   0  0  0  0  0  0  0  0  0  0  0  0
   47.1650   33.0475   37.0774 H   0  0  0  0  0  0  0  0  0  0  0  0
   45.1585   32.4584   38.4903 H   0  0  0  0  0  0  0  0  0  0  0  0
   43.4684   34.4030   41.8691 H   0  0  0  0  0  0  0  0  0  0  0  0
   43.0061   33.9436   40.2274 H   0  0  0  0  0  0  0  0  0  0  0  0
   41.9128   32.6009   42.2695 H   0  0  0  0  0  0  0  0  0  0  0  0
   42.4558   31.6285   40.9504 H   0  0  0  0  0  0  0  0  0  0  0  0
   44.0695   32.4860   43.4792 H   0  0  0  0  0  0  0  0  0  0  0  0
   43.7607   30.8429   43.0288 H   0  0  0  0  0  0  0  0  0  0  0  0
   46.0477   31.9371   42.2044 H   0  0  0  0  0  0  0  0  0  0  0  0
   45.3197   29.9540   41.3440 H   0  0  0  0  0  0  0  0  0  0  0  0
   44.3846   30.7429   40.1898 H   0  0  0  0  0  0  0  0  0  0  0  0
   43.8190   36.5649   44.4309 H   0  0  0  0  0  0  0  0  0  0  0  0
   45.2797   36.6197   42.4027 H   0  0  0  0  0  0  0  0  0  0  0  0
   45.9224   33.2024   45.9119 H   0  0  0  0  0  0  0  0  0  0  0  0
  1 18  1  0
  2  1  2  0
  3  2  1  0
  4  3  1  0
  4  9  2  0
  5  4  1  0
  6  5  2  0
  6  7  1  0
  7  8  2  0
  8  9  1  0
  8 10  1  0
  9  1  1  0
 10 11  1  0
 10 14  1  0
 11 12  1  0
 12 13  1  0
 14 13  1  0
 15 14  1  0
 16 21  2  0
 17 16  1  0
 18 17  2  0
 18 19  1  0
 19 20  2  0
 20 21  1  0
  2 22  1  0
  3 23  1  0
  5 24  1  0
  6 25  1  0
  7 26  1  0
 11 27  1  0
 11 28  1  0
 12 29  1  0
 12 30  1  0
 13 31  1  0
 13 32  1  0
 14 33  1  1
 15 34  1  0
 15 35  1  0
 16 36  1  0
 17 37  1  0
 20 38  1  0
M  ISO  8  22  14  23   9  24  14  25  14  26  14  27  13  28  13  29  13
M  ISO  8  30  13  31  13  32  13  33  13  34   5  35   5  36  14  37  14
M  ISO  1  38  14
M  END
>  <minimizedAffinity>  (1) 
-6.06148005

>  <minimizedRMSD>  (1) 
0.0680589527

$$$$
