
     RDKit          3D

 34 36  0  0  1  0  0  0  0  0999 V2000
   44.7040   35.6420   44.8660 C   0  0  0  0  0  0  0  0  0  0  0  0
   45.2490   35.4930   43.5440 C   0  0  0  0  0  0  0  0  0  0  0  0
   45.9730   34.3440   43.2920 C   0  0  0  0  0  0  0  0  0  0  0  0
   46.1250   33.4360   44.2970 N   0  0  0  0  0  0  0  0  0  0  0  0
   45.6000   33.6200   45.5120 C   0  0  0  0  0  0  0  0  0  0  0  0
   44.9000   34.7090   45.7870 N   0  0  0  0  0  0  0  0  0  0  0  0
   45.8050   32.6010   46.5520 N   0  0  0  0  0  0  0  0  0  0  0  0
   45.2290   32.7800   47.8710 C   0  0  0  0  0  0  0  0  0  0  0  0
   46.1280   32.2590   48.9530 C   0  0  0  0  0  0  0  0  0  0  0  0
   47.5100   32.0250   48.4280 C   0  0  0  0  0  0  0  0  0  0  0  0
   47.3940   30.9200   47.3680 C   0  0  0  0  0  0  0  0  0  0  0  0
   46.5990   31.4150   46.2280 C   0  0  1  0  0  0  0  0  0  0  0  0
   45.7420   30.3620   45.5990 C   0  0  0  0  0  0  0  0  0  0  0  0
   45.7780   29.9080   44.3400 N   0  0  0  0  0  0  0  0  0  0  0  0
   44.8890   28.9720   44.1480 O   0  0  0  0  0  0  0  0  0  0  0  0
   44.2600   28.8070   45.2940 C   0  0  0  0  0  0  0  0  0  0  0  0
   44.7530   29.6430   46.2150 N   0  0  0  0  0  0  0  0  0  0  0  0
   42.9450   27.5930   45.4510 S   0  0  0  0  0  0  0  0  0  0  0  0
   43.4640   26.4660   46.7820 C   0  0  0  0  0  0  0  0  0  0  0  0
   44.2160   25.4630   46.2050 F   0  0  0  0  0  0  0  0  0  0  0  0
   42.2930   25.9360   47.3210 F   0  0  0  0  0  0  0  0  0  0  0  0
   44.1900   27.1430   47.7390 F   0  0  0  0  0  0  0  0  0  0  0  0
   44.1185   36.5392   45.1157 H   0  0  0  0  0  0  0  0  0  0  0  0
   45.0965   36.2586   42.7690 H   0  0  0  0  0  0  0  0  0  0  0  0
   46.4173   34.1657   42.3016 H   0  0  0  0  0  0  0  0  0  0  0  0
   45.0552   33.8530   48.0399 H   0  0  0  0  0  0  0  0  0  0  0  0
   44.2872   32.2130   47.9099 H   0  0  0  0  0  0  0  0  0  0  0  0
   46.1722   32.9939   49.7703 H   0  0  0  0  0  0  0  0  0  0  0  0
   45.7231   31.3039   49.3188 H   0  0  0  0  0  0  0  0  0  0  0  0
   47.9051   32.9461   47.9747 H   0  0  0  0  0  0  0  0  0  0  0  0
   48.1970   31.7306   49.2351 H   0  0  0  0  0  0  0  0  0  0  0  0
   48.3988   30.6386   47.0199 H   0  0  0  0  0  0  0  0  0  0  0  0
   46.8990   30.0410   47.8066 H   0  0  0  0  0  0  0  0  0  0  0  0
   47.3495   31.7130   45.4810 H   0  0  0  0  0  0  0  0  0  0  0  0
  1  6  2  0
  2  1  1  0
  3  2  2  0
  3  4  1  0
  4  5  2  0
  5  6  1  0
  5  7  1  0
  7  8  1  0
  8  9  1  0
 10  9  1  0
 11 10  1  0
 12  7  1  0
 12 11  1  0
 13 17  1  0
 13 12  1  0
 14 13  2  0
 15 14  1  0
 15 16  1  0
 16 18  1  0
 16 17  2  0
 18 19  1  0
 19 21  1  0
 19 22  1  0
 20 19  1  0
  1 23  1  0
  2 24  1  0
  3 25  1  0
  8 26  1  0
  8 27  1  0
  9 28  1  0
  9 29  1  0
 10 30  1  0
 10 31  1  0
 11 32  1  0
 11 33  1  0
 12 34  1  6
M  ISO  8  23  14  24  14  25  14  26  13  27  13  28  13  29  13  30  13
M  ISO  4  31  13  32  13  33  13  34  13
M  END
>  <minimizedAffinity>  (1) 
-5.24367952

>  <minimizedRMSD>  (1) 
0.98559159

$$$$
