
     RDKit          3D

 45 49  0  0  1  0  0  0  0  0999 V2000
   47.2960   34.9250   41.8790 C   0  0  0  0  0  0  0  0  0  0  0  0
   48.5290   35.5700   41.7810 C   0  0  0  0  0  0  0  0  0  0  0  0
   49.0260   35.3830   40.5570 N   0  0  0  0  0  0  0  0  0  0  0  0
   48.1350   34.6320   39.8750 C   0  0  0  0  0  0  0  0  0  0  0  0
   48.1690   34.1660   38.5740 C   0  0  0  0  0  0  0  0  0  0  0  0
   47.1300   33.4260   38.1200 C   0  0  0  0  0  0  0  0  0  0  0  0
   46.0010   33.0850   38.8700 C   0  0  0  0  0  0  0  0  0  0  0  0
   46.0440   33.5880   40.1630 C   0  0  0  0  0  0  0  0  0  0  0  0
   47.0370   34.3290   40.6820 C   0  0  0  0  0  0  0  0  0  0  0  0
   44.8800   33.1810   40.8840 N   0  0  0  0  0  0  0  0  0  0  0  0
   43.4930   33.5580   41.1030 C   0  0  0  0  0  0  0  0  0  0  0  0
   42.8270   32.3520   41.6900 C   0  0  0  0  0  0  0  0  0  0  0  0
   43.9320   31.8880   42.6220 C   0  0  0  0  0  0  0  0  0  0  0  0
   45.1060   31.9780   41.6840 C   0  0  1  0  0  0  0  0  0  0  0  0
   45.3450   30.7580   40.9330 C   0  0  0  0  0  0  0  0  0  0  0  0
   44.5370   30.0770   40.0530 C   0  0  0  0  0  0  0  0  0  0  0  0
   44.9280   28.9060   39.4360 C   0  0  0  0  0  0  0  0  0  0  0  0
   46.1680   28.3580   39.6800 C   0  0  0  0  0  0  0  0  0  0  0  0
   46.9660   29.0530   40.5640 C   0  0  0  0  0  0  0  0  0  0  0  0
   46.5700   30.1940   41.1580 N   0  0  0  0  0  0  0  0  0  0  0  0
   44.6020   35.8080   44.3070 C   0  0  0  0  0  0  0  0  0  0  0  0
   45.4060   35.8570   43.1730 C   0  0  0  0  0  0  0  0  0  0  0  0
   46.4410   34.9050   43.0520 C   0  0  0  0  0  0  0  0  0  0  0  0
   46.5770   34.0090   44.0610 N   0  0  0  0  0  0  0  0  0  0  0  0
   45.7890   33.9840   45.1440 C   0  0  0  0  0  0  0  0  0  0  0  0
   44.7930   34.8890   45.2720 N   0  0  0  0  0  0  0  0  0  0  0  0
   49.0146   36.1421   42.5853 H   0  0  0  0  0  0  0  0  0  0  0  0
   49.9219   35.7440   40.1993 H   0  0  0  0  0  0  0  0  0  0  0  0
   49.0240   34.3921   37.9199 H   0  0  0  0  0  0  0  0  0  0  0  0
   47.1781   33.0657   37.0818 H   0  0  0  0  0  0  0  0  0  0  0  0
   45.1681   32.4829   38.4779 H   0  0  0  0  0  0  0  0  0  0  0  0
   43.4328   34.4060   41.8010 H   0  0  0  0  0  0  0  0  0  0  0  0
   43.0075   33.8718   40.1672 H   0  0  0  0  0  0  0  0  0  0  0  0
   41.9104   32.6150   42.2384 H   0  0  0  0  0  0  0  0  0  0  0  0
   42.4834   31.6039   40.9604 H   0  0  0  0  0  0  0  0  0  0  0  0
   44.0464   32.5574   43.4873 H   0  0  0  0  0  0  0  0  0  0  0  0
   43.7737   30.8999   43.0788 H   0  0  0  0  0  0  0  0  0  0  0  0
   46.0569   32.0732   42.2288 H   0  0  0  0  0  0  0  0  0  0  0  0
   43.5385   30.4820   39.8318 H   0  0  0  0  0  0  0  0  0  0  0  0
   44.2401   28.4035   38.7400 H   0  0  0  0  0  0  0  0  0  0  0  0
   46.5004   27.4256   39.2003 H   0  0  0  0  0  0  0  0  0  0  0  0
   47.9671   28.6588   40.7931 H   0  0  0  0  0  0  0  0  0  0  0  0
   43.7883   36.5398   44.4183 H   0  0  0  0  0  0  0  0  0  0  0  0
   45.2401   36.6153   42.3936 H   0  0  0  0  0  0  0  0  0  0  0  0
   45.9520   33.2290   45.9272 H   0  0  0  0  0  0  0  0  0  0  0  0
  1 23  1  0
  2  1  2  0
  3  2  1  0
  4  3  1  0
  4  9  2  0
  5  4  1  0
  6  5  2  0
  6  7  1  0
  7  8  2  0
  8  9  1  0
  8 10  1  0
  9  1  1  0
 10 11  1  0
 10 14  1  0
 11 12  1  0
 12 13  1  0
 14 13  1  0
 15 20  1  0
 15 14  1  0
 16 15  2  0
 17 18  2  0
 17 16  1  0
 18 19  1  0
 19 20  2  0
 21 26  2  0
 22 21  1  0
 23 22  2  0
 23 24  1  0
 24 25  2  0
 25 26  1  0
  2 27  1  0
  3 28  1  0
  5 29  1  0
  6 30  1  0
  7 31  1  0
 11 32  1  0
 11 33  1  0
 12 34  1  0
 12 35  1  0
 13 36  1  0
 13 37  1  0
 14 38  1  1
 16 39  1  0
 17 40  1  0
 18 41  1  0
 19 42  1  0
 21 43  1  0
 22 44  1  0
 25 45  1  0
M  ISO  8  27  14  28   9  29  14  30  14  31  14  32  13  33  13  34  13
M  ISO  8  35  13  36  13  37  13  38  13  39  14  40  14  41  14  42  14
M  ISO  3  43  14  44  14  45  14
M  END
>  <minimizedAffinity>  (1) 
-5.86671209

>  <minimizedRMSD>  (1) 
0.682256758

$$$$
