
     RDKit          3D

 43 46  0  0  1  0  0  0  0  0999 V2000
   47.3040   34.9270   41.8850 C   0  0  0  0  0  0  0  0  0  0  0  0
   48.5290   35.5910   41.7750 C   0  0  0  0  0  0  0  0  0  0  0  0
   49.0210   35.4040   40.5410 N   0  0  0  0  0  0  0  0  0  0  0  0
   48.1360   34.6390   39.8690 C   0  0  0  0  0  0  0  0  0  0  0  0
   48.1700   34.1720   38.5670 C   0  0  0  0  0  0  0  0  0  0  0  0
   47.1380   33.4180   38.1230 C   0  0  0  0  0  0  0  0  0  0  0  0
   46.0230   33.0660   38.8860 C   0  0  0  0  0  0  0  0  0  0  0  0
   46.0590   33.5670   40.1760 C   0  0  0  0  0  0  0  0  0  0  0  0
   47.0510   34.3230   40.6810 C   0  0  0  0  0  0  0  0  0  0  0  0
   44.9000   33.1400   40.9050 N   0  0  0  0  0  0  0  0  0  0  0  0
   43.5220   33.4980   41.1320 C   0  0  0  0  0  0  0  0  0  0  0  0
   42.8810   32.2650   41.7080 C   0  0  0  0  0  0  0  0  0  0  0  0
   43.9990   31.8340   42.6460 C   0  0  0  0  0  0  0  0  0  0  0  0
   45.1750   31.9310   41.6940 C   0  0  1  0  0  0  0  0  0  0  0  0
   45.3420   30.7460   40.9440 N   0  0  0  0  0  0  0  0  0  0  0  0
   46.5990   30.1000   41.1920 C   0  0  0  0  0  0  0  0  0  0  0  0
   47.7140   30.6470   41.6040 N   0  0  0  0  0  0  0  0  0  0  0  0
   46.8270   28.6860   41.0150 N   0  0  0  0  0  0  0  0  0  0  0  0
   47.8040   31.6660   41.8050 H   0  0  0  0  0  0  0  0  0  0  0  0
   44.6110   35.7800   44.3210 C   0  0  0  0  0  0  0  0  0  0  0  0
   45.4110   35.8370   43.1810 C   0  0  0  0  0  0  0  0  0  0  0  0
   46.4570   34.8930   43.0520 C   0  0  0  0  0  0  0  0  0  0  0  0
   46.6070   33.9940   44.0580 N   0  0  0  0  0  0  0  0  0  0  0  0
   45.8280   33.9540   45.1500 C   0  0  0  0  0  0  0  0  0  0  0  0
   44.8240   34.8490   45.2850 N   0  0  0  0  0  0  0  0  0  0  0  0
   49.0125   36.1738   42.5728 H   0  0  0  0  0  0  0  0  0  0  0  0
   49.9092   35.7754   40.1748 H   0  0  0  0  0  0  0  0  0  0  0  0
   49.0177   34.4086   37.9071 H   0  0  0  0  0  0  0  0  0  0  0  0
   47.1806   33.0559   37.0852 H   0  0  0  0  0  0  0  0  0  0  0  0
   45.1969   32.4508   38.4999 H   0  0  0  0  0  0  0  0  0  0  0  0
   43.4534   34.3354   41.8420 H   0  0  0  0  0  0  0  0  0  0  0  0
   43.0252   33.8240   40.2063 H   0  0  0  0  0  0  0  0  0  0  0  0
   41.9531   32.4975   42.2511 H   0  0  0  0  0  0  0  0  0  0  0  0
   42.5609   31.5106   40.9743 H   0  0  0  0  0  0  0  0  0  0  0  0
   44.1049   32.5188   43.5003 H   0  0  0  0  0  0  0  0  0  0  0  0
   43.8599   30.8512   43.1200 H   0  0  0  0  0  0  0  0  0  0  0  0
   46.1471   32.0235   42.2005 H   0  0  0  0  0  0  0  0  0  0  0  0
   44.6356   30.3835   40.2879 H   0  0  0  0  0  0  0  0  0  0  0  0
   47.7554   28.2855   41.2113 H   0  0  0  0  0  0  0  0  0  0  0  0
   46.0613   28.0773   40.6924 H   0  0  0  0  0  0  0  0  0  0  0  0
   43.7913   36.5036   44.4415 H   0  0  0  0  0  0  0  0  0  0  0  0
   45.2341   36.5947   42.4034 H   0  0  0  0  0  0  0  0  0  0  0  0
   46.0052   33.1984   45.9296 H   0  0  0  0  0  0  0  0  0  0  0  0
  1 22  1  0
  2  1  2  0
  3  2  1  0
  4  3  1  0
  4  9  2  0
  5  4  1  0
  6  5  2  0
  6  7  1  0
  7  8  2  0
  8  9  1  0
  8 10  1  0
  9  1  1  0
 10 11  1  0
 10 14  1  0
 11 12  1  0
 12 13  1  0
 14 13  1  0
 15 16  1  0
 15 14  1  0
 16 17  2  0
 17 19  1  0
 18 16  1  0
 20 25  2  0
 21 20  1  0
 22 21  2  0
 22 23  1  0
 23 24  2  0
 24 25  1  0
  2 26  1  0
  3 27  1  0
  5 28  1  0
  6 29  1  0
  7 30  1  0
 11 31  1  0
 11 32  1  0
 12 33  1  0
 12 34  1  0
 13 35  1  0
 13 36  1  0
 14 37  1  1
 15 38  1  0
 18 39  1  0
 18 40  1  0
 20 41  1  0
 21 42  1  0
 24 43  1  0
M  ISO  8  26  14  27   9  28  14  29  14  30  14  31  13  32  13  33  13
M  ISO  7  34  13  35  13  36  13  37  13  41  14  42  14  43  14
M  END
>  <minimizedAffinity>  (1) 
-5.8805666

>  <minimizedRMSD>  (1) 
0.309503853

$$$$
