
     RDKit          3D

 43 47  0  0  1  0  0  0  0  0999 V2000
   47.2950   34.9110   41.8790 C   0  0  0  0  0  0  0  0  0  0  0  0
   48.5290   35.5600   41.7770 C   0  0  0  0  0  0  0  0  0  0  0  0
   49.0190   35.3710   40.5380 N   0  0  0  0  0  0  0  0  0  0  0  0
   48.1270   34.6240   39.8650 C   0  0  0  0  0  0  0  0  0  0  0  0
   48.1640   34.1650   38.5650 C   0  0  0  0  0  0  0  0  0  0  0  0
   47.1230   33.4230   38.1150 C   0  0  0  0  0  0  0  0  0  0  0  0
   45.9970   33.0780   38.8740 C   0  0  0  0  0  0  0  0  0  0  0  0
   46.0340   33.5750   40.1690 C   0  0  0  0  0  0  0  0  0  0  0  0
   47.0360   34.3160   40.6700 C   0  0  0  0  0  0  0  0  0  0  0  0
   44.8650   33.1660   40.8920 N   0  0  0  0  0  0  0  0  0  0  0  0
   43.5070   33.5650   41.1310 C   0  0  0  0  0  0  0  0  0  0  0  0
   42.8270   32.3370   41.6930 C   0  0  0  0  0  0  0  0  0  0  0  0
   43.9340   31.8570   42.6160 C   0  0  0  0  0  0  0  0  0  0  0  0
   45.1040   31.9370   41.6470 C   0  0  1  0  0  0  0  0  0  0  0  0
   45.1180   30.7190   40.8110 C   0  0  0  0  0  0  0  0  0  0  0  0
   44.0140   30.2590   40.0810 C   0  0  0  0  0  0  0  0  0  0  0  0
   44.3040   29.1090   39.3790 C   0  0  0  0  0  0  0  0  0  0  0  0
   45.5850   28.8810   39.6920 N   0  0  0  0  0  0  0  0  0  0  0  0
   46.0320   29.8120   40.5110 N   0  0  0  0  0  0  0  0  0  0  0  0
   44.6140   35.8180   44.3090 C   0  0  0  0  0  0  0  0  0  0  0  0
   45.4250   35.8560   43.1720 C   0  0  0  0  0  0  0  0  0  0  0  0
   46.4500   34.8880   43.0480 C   0  0  0  0  0  0  0  0  0  0  0  0
   46.5820   33.9760   44.0530 N   0  0  0  0  0  0  0  0  0  0  0  0
   45.7870   33.9610   45.1420 C   0  0  0  0  0  0  0  0  0  0  0  0
   44.7950   34.8900   45.2690 N   0  0  0  0  0  0  0  0  0  0  0  0
   49.0194   36.1318   42.5786 H   0  0  0  0  0  0  0  0  0  0  0  0
   49.9120   35.7319   40.1731 H   0  0  0  0  0  0  0  0  0  0  0  0
   49.0170   34.3954   37.9098 H   0  0  0  0  0  0  0  0  0  0  0  0
   47.1653   33.0647   37.0758 H   0  0  0  0  0  0  0  0  0  0  0  0
   45.1660   32.4731   38.4821 H   0  0  0  0  0  0  0  0  0  0  0  0
   43.4696   34.3922   41.8551 H   0  0  0  0  0  0  0  0  0  0  0  0
   43.0162   33.9239   40.2143 H   0  0  0  0  0  0  0  0  0  0  0  0
   41.9096   32.5893   42.2450 H   0  0  0  0  0  0  0  0  0  0  0  0
   42.4796   31.6052   40.9489 H   0  0  0  0  0  0  0  0  0  0  0  0
   44.0682   32.5238   43.4805 H   0  0  0  0  0  0  0  0  0  0  0  0
   43.7700   30.8728   43.0791 H   0  0  0  0  0  0  0  0  0  0  0  0
   46.0941   31.9761   42.1246 H   0  0  0  0  0  0  0  0  0  0  0  0
   43.0329   30.7564   40.0696 H   0  0  0  0  0  0  0  0  0  0  0  0
   43.6444   28.5225   38.7225 H   0  0  0  0  0  0  0  0  0  0  0  0
   46.1432   28.0892   39.3421 H   0  0  0  0  0  0  0  0  0  0  0  0
   43.8110   36.5611   44.4228 H   0  0  0  0  0  0  0  0  0  0  0  0
   45.2710   36.6181   42.3938 H   0  0  0  0  0  0  0  0  0  0  0  0
   45.9373   33.2031   45.9250 H   0  0  0  0  0  0  0  0  0  0  0  0
  1 22  1  0
  2  1  2  0
  3  2  1  0
  4  3  1  0
  4  9  2  0
  5  4  1  0
  6  5  2  0
  6  7  1  0
  7  8  2  0
  8  9  1  0
  8 10  1  0
  9  1  1  0
 10 11  1  0
 10 14  1  0
 11 12  1  0
 12 13  1  0
 14 13  1  0
 15 14  1  0
 16 15  1  0
 17 18  1  0
 17 16  2  0
 18 19  1  0
 19 15  2  0
 20 25  2  0
 21 20  1  0
 22 21  2  0
 22 23  1  0
 23 24  2  0
 24 25  1  0
  2 26  1  0
  3 27  1  0
  5 28  1  0
  6 29  1  0
  7 30  1  0
 11 31  1  0
 11 32  1  0
 12 33  1  0
 12 34  1  0
 13 35  1  0
 13 36  1  0
 14 37  1  1
 16 38  1  0
 17 39  1  0
 18 40  1  0
 20 41  1  0
 21 42  1  0
 24 43  1  0
M  ISO  8  26  14  27   9  28  14  29  14  30  14  31  13  32  13  33  13
M  ISO  8  34  13  35  13  36  13  37  13  38  14  39  14  40   9  41  14
M  ISO  2  42  14  43  14
M  END
>  <minimizedAffinity>  (1) 
-5.85877275

>  <minimizedRMSD>  (1) 
0.157108232

$$$$
