
     RDKit          3D

 43 47  0  0  1  0  0  0  0  0999 V2000
   47.2940   34.9110   41.8800 C   0  0  0  0  0  0  0  0  0  0  0  0
   48.5300   35.5500   41.7770 C   0  0  0  0  0  0  0  0  0  0  0  0
   49.0210   35.3620   40.5410 N   0  0  0  0  0  0  0  0  0  0  0  0
   48.1230   34.6200   39.8640 C   0  0  0  0  0  0  0  0  0  0  0  0
   48.1610   34.1630   38.5700 C   0  0  0  0  0  0  0  0  0  0  0  0
   47.1170   33.4240   38.1190 C   0  0  0  0  0  0  0  0  0  0  0  0
   45.9820   33.0800   38.8770 C   0  0  0  0  0  0  0  0  0  0  0  0
   46.0270   33.5820   40.1670 C   0  0  0  0  0  0  0  0  0  0  0  0
   47.0290   34.3200   40.6750 C   0  0  0  0  0  0  0  0  0  0  0  0
   44.8490   33.1920   40.8890 N   0  0  0  0  0  0  0  0  0  0  0  0
   43.4880   33.5810   41.1090 C   0  0  0  0  0  0  0  0  0  0  0  0
   42.8120   32.3570   41.7010 C   0  0  0  0  0  0  0  0  0  0  0  0
   43.9230   31.8900   42.6220 C   0  0  0  0  0  0  0  0  0  0  0  0
   45.1000   31.9640   41.6800 C   0  0  1  0  0  0  0  0  0  0  0  0
   45.2200   30.7990   40.8720 N   0  0  0  0  0  0  0  0  0  0  0  0
   44.3570   30.2910   40.0080 N   0  0  0  0  0  0  0  0  0  0  0  0
   44.8460   29.1730   39.4400 C   0  0  0  0  0  0  0  0  0  0  0  0
   46.1150   28.9660   39.9930 C   0  0  0  0  0  0  0  0  0  0  0  0
   46.3320   30.0080   40.8970 C   0  0  0  0  0  0  0  0  0  0  0  0
   44.6040   35.8210   44.3040 C   0  0  0  0  0  0  0  0  0  0  0  0
   45.4190   35.8450   43.1790 C   0  0  0  0  0  0  0  0  0  0  0  0
   46.4460   34.8870   43.0550 C   0  0  0  0  0  0  0  0  0  0  0  0
   46.5850   33.9820   44.0590 N   0  0  0  0  0  0  0  0  0  0  0  0
   45.7770   33.9850   45.1400 C   0  0  0  0  0  0  0  0  0  0  0  0
   44.7890   34.8960   45.2690 N   0  0  0  0  0  0  0  0  0  0  0  0
   49.0236   36.1172   42.5799 H   0  0  0  0  0  0  0  0  0  0  0  0
   49.9167   35.7185   40.1784 H   0  0  0  0  0  0  0  0  0  0  0  0
   49.0158   34.3903   37.9161 H   0  0  0  0  0  0  0  0  0  0  0  0
   47.1607   33.0656   37.0800 H   0  0  0  0  0  0  0  0  0  0  0  0
   45.1487   32.4772   38.4867 H   0  0  0  0  0  0  0  0  0  0  0  0
   43.4376   34.4263   41.8110 H   0  0  0  0  0  0  0  0  0  0  0  0
   43.0001   33.9096   40.1795 H   0  0  0  0  0  0  0  0  0  0  0  0
   41.8993   32.6188   42.2564 H   0  0  0  0  0  0  0  0  0  0  0  0
   42.4604   31.6130   40.9711 H   0  0  0  0  0  0  0  0  0  0  0  0
   44.0478   32.5626   43.4834 H   0  0  0  0  0  0  0  0  0  0  0  0
   43.7591   30.9029   43.0789 H   0  0  0  0  0  0  0  0  0  0  0  0
   46.0622   32.0077   42.2112 H   0  0  0  0  0  0  0  0  0  0  0  0
   44.3460   28.5448   38.6881 H   0  0  0  0  0  0  0  0  0  0  0  0
   46.8067   28.1428   39.7607 H   0  0  0  0  0  0  0  0  0  0  0  0
   47.2300   30.1623   41.5132 H   0  0  0  0  0  0  0  0  0  0  0  0
   43.7995   36.5638   44.4092 H   0  0  0  0  0  0  0  0  0  0  0  0
   45.2650   36.6015   42.3954 H   0  0  0  0  0  0  0  0  0  0  0  0
   45.9259   33.2329   45.9288 H   0  0  0  0  0  0  0  0  0  0  0  0
  1 22  1  0
  2  1  2  0
  3  2  1  0
  4  3  1  0
  4  9  2  0
  5  4  1  0
  6  5  2  0
  6  7  1  0
  7  8  2  0
  8  9  1  0
  8 10  1  0
  9  1  1  0
 10 11  1  0
 10 14  1  0
 11 12  1  0
 12 13  1  0
 14 13  1  0
 15 19  1  0
 15 14  1  0
 16 15  1  0
 17 18  1  0
 17 16  2  0
 18 19  2  0
 20 25  2  0
 21 20  1  0
 22 21  2  0
 22 23  1  0
 23 24  2  0
 24 25  1  0
  2 26  1  0
  3 27  1  0
  5 28  1  0
  6 29  1  0
  7 30  1  0
 11 31  1  0
 11 32  1  0
 12 33  1  0
 12 34  1  0
 13 35  1  0
 13 36  1  0
 14 37  1  1
 17 38  1  0
 18 39  1  0
 19 40  1  0
 20 41  1  0
 21 42  1  0
 24 43  1  0
M  ISO  8  26  14  27   9  28  14  29  14  30  14  31  13  32  13  33  13
M  ISO  8  34  13  35  13  36  13  37  13  38  14  39  14  40  14  41  14
M  ISO  2  42  14  43  14
M  END
>  <minimizedAffinity>  (1) 
-5.85907173

>  <minimizedRMSD>  (1) 
0.190628126

$$$$
