
     RDKit          3D

 42 46  0  0  1  0  0  0  0  0999 V2000
   47.3090   34.9080   41.8760 C   0  0  0  0  0  0  0  0  0  0  0  0
   48.5420   35.5660   41.7690 C   0  0  0  0  0  0  0  0  0  0  0  0
   49.0250   35.3850   40.5280 N   0  0  0  0  0  0  0  0  0  0  0  0
   48.1330   34.6340   39.8540 C   0  0  0  0  0  0  0  0  0  0  0  0
   48.1730   34.1820   38.5580 C   0  0  0  0  0  0  0  0  0  0  0  0
   47.1360   33.4320   38.1110 C   0  0  0  0  0  0  0  0  0  0  0  0
   46.0040   33.0690   38.8730 C   0  0  0  0  0  0  0  0  0  0  0  0
   46.0550   33.5710   40.1670 C   0  0  0  0  0  0  0  0  0  0  0  0
   47.0540   34.3200   40.6690 C   0  0  0  0  0  0  0  0  0  0  0  0
   44.8850   33.1630   40.8900 N   0  0  0  0  0  0  0  0  0  0  0  0
   43.5130   33.5180   41.0980 C   0  0  0  0  0  0  0  0  0  0  0  0
   42.8640   32.2950   41.7100 C   0  0  0  0  0  0  0  0  0  0  0  0
   43.9850   31.8690   42.6460 C   0  0  0  0  0  0  0  0  0  0  0  0
   45.1620   31.9570   41.7070 C   0  0  1  0  0  0  0  0  0  0  0  0
   45.3480   30.7890   40.9160 N   0  0  0  0  0  0  0  0  0  0  0  0
   44.3790   30.1730   40.1820 C   0  0  0  0  0  0  0  0  0  0  0  0
   44.9000   29.1010   39.5580 N   0  0  0  0  0  0  0  0  0  0  0  0
   46.1990   29.0750   39.9240 C   0  0  0  0  0  0  0  0  0  0  0  0
   46.4630   30.1070   40.7510 N   0  0  0  0  0  0  0  0  0  0  0  0
   44.6210   35.7600   44.3130 C   0  0  0  0  0  0  0  0  0  0  0  0
   45.4240   35.8060   43.1800 C   0  0  0  0  0  0  0  0  0  0  0  0
   46.4720   34.8680   43.0510 C   0  0  0  0  0  0  0  0  0  0  0  0
   46.6240   33.9730   44.0610 N   0  0  0  0  0  0  0  0  0  0  0  0
   45.8320   33.9520   45.1480 C   0  0  0  0  0  0  0  0  0  0  0  0
   44.8320   34.8410   45.2780 N   0  0  0  0  0  0  0  0  0  0  0  0
   49.0340   36.1373   42.5700 H   0  0  0  0  0  0  0  0  0  0  0  0
   49.9139   35.7529   40.1600 H   0  0  0  0  0  0  0  0  0  0  0  0
   49.0223   34.4217   37.9013 H   0  0  0  0  0  0  0  0  0  0  0  0
   47.1799   33.0776   37.0706 H   0  0  0  0  0  0  0  0  0  0  0  0
   45.1755   32.4578   38.4856 H   0  0  0  0  0  0  0  0  0  0  0  0
   43.4379   34.3757   41.7827 H   0  0  0  0  0  0  0  0  0  0  0  0
   43.0219   33.8122   40.1587 H   0  0  0  0  0  0  0  0  0  0  0  0
   41.9440   32.5475   42.2575 H   0  0  0  0  0  0  0  0  0  0  0  0
   42.5312   31.5294   40.9936 H   0  0  0  0  0  0  0  0  0  0  0  0
   44.0898   32.5582   43.4969 H   0  0  0  0  0  0  0  0  0  0  0  0
   43.8437   30.8860   43.1190 H   0  0  0  0  0  0  0  0  0  0  0  0
   46.1117   32.0318   42.2569 H   0  0  0  0  0  0  0  0  0  0  0  0
   43.3317   30.5018   40.1107 H   0  0  0  0  0  0  0  0  0  0  0  0
   46.9329   28.3239   39.5965 H   0  0  0  0  0  0  0  0  0  0  0  0
   43.8005   36.4841   44.4249 H   0  0  0  0  0  0  0  0  0  0  0  0
   45.2468   36.5590   42.3980 H   0  0  0  0  0  0  0  0  0  0  0  0
   46.0036   33.2030   45.9352 H   0  0  0  0  0  0  0  0  0  0  0  0
  1 22  1  0
  2  1  2  0
  3  2  1  0
  4  3  1  0
  4  9  2  0
  5  4  1  0
  6  5  2  0
  6  7  1  0
  7  8  2  0
  8  9  1  0
  8 10  1  0
  9  1  1  0
 10 11  1  0
 10 14  1  0
 11 12  1  0
 12 13  1  0
 14 13  1  0
 15 14  1  0
 16 15  1  0
 17 18  1  0
 17 16  2  0
 18 19  2  0
 19 15  1  0
 20 25  2  0
 21 20  1  0
 22 21  2  0
 22 23  1  0
 23 24  2  0
 24 25  1  0
  2 26  1  0
  3 27  1  0
  5 28  1  0
  6 29  1  0
  7 30  1  0
 11 31  1  0
 11 32  1  0
 12 33  1  0
 12 34  1  0
 13 35  1  0
 13 36  1  0
 14 37  1  1
 16 38  1  0
 18 39  1  0
 20 40  1  0
 21 41  1  0
 24 42  1  0
M  ISO  8  26  14  27   9  28  14  29  14  30  14  31  13  32  13  33  13
M  ISO  8  34  13  35  13  36  13  37  13  38  14  39  14  40  14  41  14
M  ISO  1  42  14
M  END
>  <minimizedAffinity>  (1) 
-5.84820652

>  <minimizedRMSD>  (1) 
0.486462057

$$$$
