
     RDKit          3D

 39 42  0  0  1  0  0  0  0  0999 V2000
   47.3160   34.8980   41.8690 C   0  0  0  0  0  0  0  0  0  0  0  0
   48.5410   35.5600   41.7620 C   0  0  0  0  0  0  0  0  0  0  0  0
   49.0230   35.3810   40.5210 N   0  0  0  0  0  0  0  0  0  0  0  0
   48.1380   34.6310   39.8490 C   0  0  0  0  0  0  0  0  0  0  0  0
   48.1600   34.1750   38.5410 C   0  0  0  0  0  0  0  0  0  0  0  0
   47.1210   33.4270   38.0950 C   0  0  0  0  0  0  0  0  0  0  0  0
   46.0100   33.0710   38.8620 C   0  0  0  0  0  0  0  0  0  0  0  0
   46.0600   33.5600   40.1520 C   0  0  0  0  0  0  0  0  0  0  0  0
   47.0520   34.3080   40.6660 C   0  0  0  0  0  0  0  0  0  0  0  0
   44.9100   33.1260   40.8870 N   0  0  0  0  0  0  0  0  0  0  0  0
   43.5140   33.4720   41.0990 C   0  0  0  0  0  0  0  0  0  0  0  0
   42.8860   32.2470   41.7010 C   0  0  0  0  0  0  0  0  0  0  0  0
   44.0000   31.8510   42.6520 C   0  0  0  0  0  0  0  0  0  0  0  0
   45.1730   31.9540   41.7110 C   0  0  1  0  0  0  0  0  0  0  0  0
   45.4520   30.6930   40.9980 C   0  0  0  0  0  0  0  0  0  0  0  0
   45.1440   29.6510   41.9040 F   0  0  0  0  0  0  0  0  0  0  0  0
   44.7750   30.4640   39.8480 F   0  0  0  0  0  0  0  0  0  0  0  0
   46.8400   30.5400   40.8120 F   0  0  0  0  0  0  0  0  0  0  0  0
   44.6170   35.7480   44.3030 C   0  0  0  0  0  0  0  0  0  0  0  0
   45.4160   35.7990   43.1670 C   0  0  0  0  0  0  0  0  0  0  0  0
   46.4700   34.8630   43.0540 C   0  0  0  0  0  0  0  0  0  0  0  0
   46.6480   33.9640   44.0570 N   0  0  0  0  0  0  0  0  0  0  0  0
   45.8440   33.9530   45.1460 C   0  0  0  0  0  0  0  0  0  0  0  0
   44.8300   34.8390   45.2720 N   0  0  0  0  0  0  0  0  0  0  0  0
   49.0308   36.1338   42.5625 H   0  0  0  0  0  0  0  0  0  0  0  0
   49.9105   35.7522   40.1529 H   0  0  0  0  0  0  0  0  0  0  0  0
   49.0038   34.4151   37.8774 H   0  0  0  0  0  0  0  0  0  0  0  0
   47.1558   33.0751   37.0534 H   0  0  0  0  0  0  0  0  0  0  0  0
   45.1786   32.4622   38.4771 H   0  0  0  0  0  0  0  0  0  0  0  0
   43.4294   34.3257   41.7875 H   0  0  0  0  0  0  0  0  0  0  0  0
   43.0189   33.7669   40.1620 H   0  0  0  0  0  0  0  0  0  0  0  0
   41.9528   32.4816   42.2340 H   0  0  0  0  0  0  0  0  0  0  0  0
   42.5792   31.4718   40.9834 H   0  0  0  0  0  0  0  0  0  0  0  0
   44.0877   32.5506   43.4963 H   0  0  0  0  0  0  0  0  0  0  0  0
   43.8747   30.8739   43.1414 H   0  0  0  0  0  0  0  0  0  0  0  0
   46.1275   32.1010   42.2377 H   0  0  0  0  0  0  0  0  0  0  0  0
   43.7918   36.4670   44.4125 H   0  0  0  0  0  0  0  0  0  0  0  0
   45.2340   36.5450   42.3794 H   0  0  0  0  0  0  0  0  0  0  0  0
   46.0180   33.2123   45.9404 H   0  0  0  0  0  0  0  0  0  0  0  0
  1 21  1  0
  2  1  2  0
  3  2  1  0
  4  3  1  0
  4  9  2  0
  5  4  1  0
  6  5  2  0
  6  7  1  0
  7  8  2  0
  8  9  1  0
  8 10  1  0
  9  1  1  0
 10 11  1  0
 10 14  1  0
 11 12  1  0
 12 13  1  0
 14 13  1  0
 15 14  1  0
 15 16  1  0
 17 15  1  0
 18 15  1  0
 19 24  2  0
 20 19  1  0
 21 20  2  0
 21 22  1  0
 22 23  2  0
 23 24  1  0
  2 25  1  0
  3 26  1  0
  5 27  1  0
  6 28  1  0
  7 29  1  0
 11 30  1  0
 11 31  1  0
 12 32  1  0
 12 33  1  0
 13 34  1  0
 13 35  1  0
 14 36  1  1
 19 37  1  0
 20 38  1  0
 23 39  1  0
M  ISO  8  25  14  26   9  27  14  28  14  29  14  30  13  31  13  32  13
M  ISO  7  33  13  34  13  35  13  36  13  37  14  38  14  39  14
M  END
>  <minimizedAffinity>  (1) 
-5.84832048

>  <minimizedRMSD>  (1) 
0.26945129

$$$$
