
     RDKit          3D

 43 47  0  0  1  0  0  0  0  0999 V2000
   47.3050   34.9100   41.8740 C   0  0  0  0  0  0  0  0  0  0  0  0
   48.5280   35.5700   41.7710 C   0  0  0  0  0  0  0  0  0  0  0  0
   49.0130   35.3830   40.5270 N   0  0  0  0  0  0  0  0  0  0  0  0
   48.1310   34.6320   39.8630 C   0  0  0  0  0  0  0  0  0  0  0  0
   48.1710   34.1750   38.5620 C   0  0  0  0  0  0  0  0  0  0  0  0
   47.1260   33.4150   38.1120 C   0  0  0  0  0  0  0  0  0  0  0  0
   46.0050   33.0600   38.8770 C   0  0  0  0  0  0  0  0  0  0  0  0
   46.0450   33.5580   40.1670 C   0  0  0  0  0  0  0  0  0  0  0  0
   47.0420   34.3130   40.6740 C   0  0  0  0  0  0  0  0  0  0  0  0
   44.8850   33.1430   40.9030 N   0  0  0  0  0  0  0  0  0  0  0  0
   43.5150   33.5260   41.1340 C   0  0  0  0  0  0  0  0  0  0  0  0
   42.8560   32.2860   41.7100 C   0  0  0  0  0  0  0  0  0  0  0  0
   43.9790   31.8230   42.6220 C   0  0  0  0  0  0  0  0  0  0  0  0
   45.1440   31.9350   41.6850 C   0  0  1  0  0  0  0  0  0  0  0  0
   45.4310   30.7100   40.9050 C   0  0  0  0  0  0  0  0  0  0  0  0
   46.8300   30.1460   41.2040 C   0  0  0  0  0  0  0  0  0  0  0  0
   45.5420   29.3600   41.4340 C   0  0  0  0  0  0  0  0  0  0  0  0
   44.6200   35.7830   44.3210 C   0  0  0  0  0  0  0  0  0  0  0  0
   45.4220   35.8320   43.1830 C   0  0  0  0  0  0  0  0  0  0  0  0
   46.4570   34.8800   43.0590 C   0  0  0  0  0  0  0  0  0  0  0  0
   46.6150   33.9690   44.0560 N   0  0  0  0  0  0  0  0  0  0  0  0
   45.8180   33.9560   45.1400 C   0  0  0  0  0  0  0  0  0  0  0  0
   44.8230   34.8540   45.2830 N   0  0  0  0  0  0  0  0  0  0  0  0
   49.0159   36.1468   42.5706 H   0  0  0  0  0  0  0  0  0  0  0  0
   49.9007   35.7517   40.1569 H   0  0  0  0  0  0  0  0  0  0  0  0
   49.0196   34.4150   37.9045 H   0  0  0  0  0  0  0  0  0  0  0  0
   47.1680   33.0557   37.0732 H   0  0  0  0  0  0  0  0  0  0  0  0
   45.1774   32.4473   38.4900 H   0  0  0  0  0  0  0  0  0  0  0  0
   43.4614   34.3604   41.8487 H   0  0  0  0  0  0  0  0  0  0  0  0
   43.0197   33.8693   40.2138 H   0  0  0  0  0  0  0  0  0  0  0  0
   41.9416   32.5278   42.2716 H   0  0  0  0  0  0  0  0  0  0  0  0
   42.5106   31.5472   40.9718 H   0  0  0  0  0  0  0  0  0  0  0  0
   44.0932   32.4825   43.4949 H   0  0  0  0  0  0  0  0  0  0  0  0
   43.8347   30.8252   43.0621 H   0  0  0  0  0  0  0  0  0  0  0  0
   46.0943   32.0300   42.2309 H   0  0  0  0  0  0  0  0  0  0  0  0
   44.8184   31.0716   40.0659 H   0  0  0  0  0  0  0  0  0  0  0  0
   47.5109   29.8757   40.3834 H   0  0  0  0  0  0  0  0  0  0  0  0
   47.6983   30.4474   41.8083 H   0  0  0  0  0  0  0  0  0  0  0  0
   45.2093   29.1489   42.4610 H   0  0  0  0  0  0  0  0  0  0  0  0
   45.1764   28.3763   41.1045 H   0  0  0  0  0  0  0  0  0  0  0  0
   43.8063   36.5136   44.4395 H   0  0  0  0  0  0  0  0  0  0  0  0
   45.2538   36.5902   42.4040 H   0  0  0  0  0  0  0  0  0  0  0  0
   45.9811   33.2001   45.9223 H   0  0  0  0  0  0  0  0  0  0  0  0
  1 20  1  0
  2  1  2  0
  3  2  1  0
  4  3  1  0
  4  9  2  0
  5  4  1  0
  6  5  2  0
  6  7  1  0
  7  8  2  0
  8  9  1  0
  8 10  1  0
  9  1  1  0
 10 11  1  0
 10 14  1  0
 11 12  1  0
 12 13  1  0
 14 13  1  0
 15 16  1  0
 15 17  1  0
 15 14  1  0
 16 17  1  0
 18 23  2  0
 19 18  1  0
 20 19  2  0
 20 21  1  0
 21 22  2  0
 22 23  1  0
  2 24  1  0
  3 25  1  0
  5 26  1  0
  6 27  1  0
  7 28  1  0
 11 29  1  0
 11 30  1  0
 12 31  1  0
 12 32  1  0
 13 33  1  0
 13 34  1  0
 14 35  1  1
 15 36  1  0
 16 37  1  0
 16 38  1  0
 17 39  1  0
 17 40  1  0
 18 41  1  0
 19 42  1  0
 22 43  1  0
M  ISO  8  24  14  25   9  26  14  27  14  28  14  29  13  30  13  31  13
M  ISO  8  32  13  33  13  34  13  35  13  36  13  37  13  38  13  39  13
M  ISO  4  40  13  41  14  42  14  43  14
M  END
>  <minimizedAffinity>  (1) 
-5.82059145

>  <minimizedRMSD>  (1) 
0.167524159

$$$$
