
     RDKit          3D

 48 52  0  0  1  0  0  0  0  0999 V2000
   47.2850   34.9340   41.8910 C   0  0  0  0  0  0  0  0  0  0  0  0
   48.5060   35.5920   41.7910 C   0  0  0  0  0  0  0  0  0  0  0  0
   49.0000   35.3950   40.5610 N   0  0  0  0  0  0  0  0  0  0  0  0
   48.1240   34.6320   39.8890 C   0  0  0  0  0  0  0  0  0  0  0  0
   48.1670   34.1540   38.5980 C   0  0  0  0  0  0  0  0  0  0  0  0
   47.1400   33.3930   38.1480 C   0  0  0  0  0  0  0  0  0  0  0  0
   46.0210   33.0520   38.9160 C   0  0  0  0  0  0  0  0  0  0  0  0
   46.0470   33.5680   40.2060 C   0  0  0  0  0  0  0  0  0  0  0  0
   47.0330   34.3250   40.7010 C   0  0  0  0  0  0  0  0  0  0  0  0
   44.8670   33.1590   40.9260 N   0  0  0  0  0  0  0  0  0  0  0  0
   43.4970   33.5380   41.1260 C   0  0  0  0  0  0  0  0  0  0  0  0
   42.8310   32.3190   41.7200 C   0  0  0  0  0  0  0  0  0  0  0  0
   43.9390   31.8730   42.6530 C   0  0  0  0  0  0  0  0  0  0  0  0
   45.1240   31.9510   41.7280 C   0  0  1  0  0  0  0  0  0  0  0  0
   45.2800   30.7380   40.9300 C   0  0  0  0  0  0  0  0  0  0  0  0
   44.4540   30.1910   40.1940 O   0  0  0  0  0  0  0  0  0  0  0  0
   44.5730   35.8200   44.3010 C   0  0  0  0  0  0  0  0  0  0  0  0
   45.3820   35.8550   43.1690 C   0  0  0  0  0  0  0  0  0  0  0  0
   46.4370   34.9130   43.0600 C   0  0  0  0  0  0  0  0  0  0  0  0
   46.5610   34.0450   44.0940 N   0  0  0  0  0  0  0  0  0  0  0  0
   45.7830   34.0160   45.1760 C   0  0  0  0  0  0  0  0  0  0  0  0
   44.7850   34.9080   45.2780 N   0  0  0  0  0  0  0  0  0  0  0  0
   46.0200   33.0260   46.2270 C   0  0  0  0  0  0  0  0  0  0  0  0
   45.2850   33.0540   47.3960 C   0  0  0  0  0  0  0  0  0  0  0  0
   45.4730   32.1410   48.4160 C   0  0  0  0  0  0  0  0  0  0  0  0
   46.4510   31.1590   48.2370 C   0  0  0  0  0  0  0  0  0  0  0  0
   47.1770   31.1570   47.0500 C   0  0  0  0  0  0  0  0  0  0  0  0
   46.9920   32.0660   46.0290 C   0  0  0  0  0  0  0  0  0  0  0  0
   48.9865   36.1770   42.5890 H   0  0  0  0  0  0  0  0  0  0  0  0
   49.8907   35.7626   40.1972 H   0  0  0  0  0  0  0  0  0  0  0  0
   49.0202   34.3860   37.9436 H   0  0  0  0  0  0  0  0  0  0  0  0
   47.1890   33.0200   37.1143 H   0  0  0  0  0  0  0  0  0  0  0  0
   45.1965   32.4324   38.5336 H   0  0  0  0  0  0  0  0  0  0  0  0
   43.4297   34.3901   41.8184 H   0  0  0  0  0  0  0  0  0  0  0  0
   43.0165   33.8527   40.1879 H   0  0  0  0  0  0  0  0  0  0  0  0
   41.9112   32.5765   42.2657 H   0  0  0  0  0  0  0  0  0  0  0  0
   42.4919   31.5649   40.9944 H   0  0  0  0  0  0  0  0  0  0  0  0
   44.0471   32.5541   43.5100 H   0  0  0  0  0  0  0  0  0  0  0  0
   43.7812   30.8867   43.1138 H   0  0  0  0  0  0  0  0  0  0  0  0
   46.0829   32.0207   42.2625 H   0  0  0  0  0  0  0  0  0  0  0  0
   46.2626   30.2475   40.9932 H   0  0  0  0  0  0  0  0  0  0  0  0
   43.7504   36.5432   44.4028 H   0  0  0  0  0  0  0  0  0  0  0  0
   45.2071   36.5970   42.3760 H   0  0  0  0  0  0  0  0  0  0  0  0
   44.5195   33.8342   47.5200 H   0  0  0  0  0  0  0  0  0  0  0  0
   44.8735   32.1856   49.3372 H   0  0  0  0  0  0  0  0  0  0  0  0
   46.6422   30.4059   49.0156 H   0  0  0  0  0  0  0  0  0  0  0  0
   47.9465   30.3822   46.9175 H   0  0  0  0  0  0  0  0  0  0  0  0
   47.5880   32.0279   45.1052 H   0  0  0  0  0  0  0  0  0  0  0  0
  1 19  1  0
  2  1  2  0
  3  2  1  0
  4  3  1  0
  4  9  2  0
  5  4  1  0
  6  5  2  0
  6  7  1  0
  7  8  2  0
  8  9  1  0
  8 10  1  0
  9  1  1  0
 10 11  1  0
 10 14  1  0
 11 12  1  0
 12 13  1  0
 14 13  1  0
 15 14  1  0
 16 15  2  0
 17 22  2  0
 18 17  1  0
 19 18  2  0
 19 20  1  0
 20 21  2  0
 21 22  1  0
 21 23  1  0
 23 24  2  0
 24 25  1  0
 26 25  2  0
 27 26  1  0
 28 23  1  0
 28 27  2  0
  2 29  1  0
  3 30  1  0
  5 31  1  0
  6 32  1  0
  7 33  1  0
 11 34  1  0
 11 35  1  0
 12 36  1  0
 12 37  1  0
 13 38  1  0
 13 39  1  0
 14 40  1  1
 15 41  1  0
 17 42  1  0
 18 43  1  0
 24 44  1  0
 25 45  1  0
 26 46  1  0
 27 47  1  0
 28 48  1  0
M  ISO  8  29  14  30   9  31  14  32  14  33  14  34  13  35  13  36  13
M  ISO  8  37  13  38  13  39  13  40  13  41   6  42  14  43  14  44  14
M  ISO  4  45  14  46  14  47  14  48  14
M  END
>  <minimizedAffinity>  (1) 
-7.17956924

>  <minimizedRMSD>  (1) 
0.212280735

$$$$
