
     RDKit          3D

 48 52  0  0  1  0  0  0  0  0999 V2000
   47.2850   34.9330   41.9010 C   0  0  0  0  0  0  0  0  0  0  0  0
   48.5090   35.5910   41.7870 C   0  0  0  0  0  0  0  0  0  0  0  0
   48.9990   35.3960   40.5620 N   0  0  0  0  0  0  0  0  0  0  0  0
   48.1260   34.6340   39.8940 C   0  0  0  0  0  0  0  0  0  0  0  0
   48.1670   34.1560   38.5980 C   0  0  0  0  0  0  0  0  0  0  0  0
   47.1340   33.3910   38.1550 C   0  0  0  0  0  0  0  0  0  0  0  0
   46.0240   33.0500   38.9180 C   0  0  0  0  0  0  0  0  0  0  0  0
   46.0510   33.5620   40.1990 C   0  0  0  0  0  0  0  0  0  0  0  0
   47.0300   34.3200   40.7020 C   0  0  0  0  0  0  0  0  0  0  0  0
   44.8720   33.1560   40.9260 N   0  0  0  0  0  0  0  0  0  0  0  0
   43.4980   33.5390   41.1290 C   0  0  0  0  0  0  0  0  0  0  0  0
   42.8290   32.3220   41.7110 C   0  0  0  0  0  0  0  0  0  0  0  0
   43.9380   31.8680   42.6570 C   0  0  0  0  0  0  0  0  0  0  0  0
   45.1260   31.9520   41.7360 C   0  0  1  0  0  0  0  0  0  0  0  0
   45.2810   30.7380   40.9330 C   0  0  0  0  0  0  0  0  0  0  0  0
   44.4630   30.1990   40.1850 O   0  0  0  0  0  0  0  0  0  0  0  0
   44.5770   35.8100   44.3100 C   0  0  0  0  0  0  0  0  0  0  0  0
   45.3840   35.8470   43.1790 C   0  0  0  0  0  0  0  0  0  0  0  0
   46.4410   34.9070   43.0650 C   0  0  0  0  0  0  0  0  0  0  0  0
   46.5650   34.0400   44.0980 N   0  0  0  0  0  0  0  0  0  0  0  0
   45.7850   34.0140   45.1760 C   0  0  0  0  0  0  0  0  0  0  0  0
   44.7890   34.8980   45.2870 N   0  0  0  0  0  0  0  0  0  0  0  0
   46.0380   33.0180   46.2140 C   0  0  0  0  0  0  0  0  0  0  0  0
   46.9820   32.0450   46.0830 C   0  0  0  0  0  0  0  0  0  0  0  0
   47.1890   31.1290   47.0800 C   0  0  0  0  0  0  0  0  0  0  0  0
   46.4430   31.1740   48.2400 C   0  0  0  0  0  0  0  0  0  0  0  0
   45.4650   32.1560   48.4120 C   0  0  0  0  0  0  0  0  0  0  0  0
   45.2950   33.0590   47.3750 C   0  0  0  0  0  0  0  0  0  0  0  0
   48.9936   36.1778   42.5813 H   0  0  0  0  0  0  0  0  0  0  0  0
   49.8884   35.7652   40.1966 H   0  0  0  0  0  0  0  0  0  0  0  0
   49.0166   34.3893   37.9394 H   0  0  0  0  0  0  0  0  0  0  0  0
   47.1802   33.0164   37.1218 H   0  0  0  0  0  0  0  0  0  0  0  0
   45.2000   32.4293   38.5362 H   0  0  0  0  0  0  0  0  0  0  0  0
   43.4332   34.3858   41.8280 H   0  0  0  0  0  0  0  0  0  0  0  0
   43.0194   33.8622   40.1928 H   0  0  0  0  0  0  0  0  0  0  0  0
   41.9055   32.5778   42.2510 H   0  0  0  0  0  0  0  0  0  0  0  0
   42.4946   31.5713   40.9798 H   0  0  0  0  0  0  0  0  0  0  0  0
   44.0414   32.5449   43.5179 H   0  0  0  0  0  0  0  0  0  0  0  0
   43.7782   30.8805   43.1145 H   0  0  0  0  0  0  0  0  0  0  0  0
   46.0799   32.0277   42.2786 H   0  0  0  0  0  0  0  0  0  0  0  0
   46.2589   30.2398   41.0071 H   0  0  0  0  0  0  0  0  0  0  0  0
   43.7540   36.5326   44.4124 H   0  0  0  0  0  0  0  0  0  0  0  0
   45.2068   36.5903   42.3878 H   0  0  0  0  0  0  0  0  0  0  0  0
   47.5858   31.9942   45.1649 H   0  0  0  0  0  0  0  0  0  0  0  0
   47.9564   30.3509   46.9550 H   0  0  0  0  0  0  0  0  0  0  0  0
   46.6195   30.4326   49.0332 H   0  0  0  0  0  0  0  0  0  0  0  0
   44.8581   32.2100   49.3278 H   0  0  0  0  0  0  0  0  0  0  0  0
   44.5325   33.8445   47.4827 H   0  0  0  0  0  0  0  0  0  0  0  0
  1 19  1  0
  2  1  2  0
  3  2  1  0
  4  3  1  0
  4  9  2  0
  5  4  1  0
  6  5  2  0
  6  7  1  0
  7  8  2  0
  8  9  1  0
  8 10  1  0
  9  1  1  0
 10 11  1  0
 10 14  1  0
 11 12  1  0
 12 13  1  0
 14 13  1  0
 15 14  1  0
 16 15  2  0
 17 22  2  0
 18 17  1  0
 19 18  2  0
 19 20  1  0
 20 21  2  0
 21 22  1  0
 21 23  1  0
 23 28  1  0
 24 23  2  0
 24 25  1  0
 25 26  2  0
 26 27  1  0
 28 27  2  0
  2 29  1  0
  3 30  1  0
  5 31  1  0
  6 32  1  0
  7 33  1  0
 11 34  1  0
 11 35  1  0
 12 36  1  0
 12 37  1  0
 13 38  1  0
 13 39  1  0
 14 40  1  1
 15 41  1  0
 17 42  1  0
 18 43  1  0
 24 44  1  0
 25 45  1  0
 26 46  1  0
 27 47  1  0
 28 48  1  0
M  ISO  8  29  14  30   9  31  14  32  14  33  14  34  13  35  13  36  13
M  ISO  8  37  13  38  13  39  13  40  13  41   6  42  14  43  14  44  14
M  ISO  4  45  14  46  14  47  14  48  14
M  END
>  <minimizedAffinity>  (1) 
-7.18763161

>  <minimizedRMSD>  (1) 
0.279951066

$$$$
