
     RDKit          3D

 51 55  0  0  1  0  0  0  0  0999 V2000
   47.3250   34.8970   41.9040 C   0  0  0  0  0  0  0  0  0  0  0  0
   48.5260   35.5820   41.7740 C   0  0  0  0  0  0  0  0  0  0  0  0
   48.9940   35.4090   40.5320 N   0  0  0  0  0  0  0  0  0  0  0  0
   48.1170   34.6310   39.8750 C   0  0  0  0  0  0  0  0  0  0  0  0
   48.1410   34.1680   38.5740 C   0  0  0  0  0  0  0  0  0  0  0  0
   47.1120   33.3850   38.1530 C   0  0  0  0  0  0  0  0  0  0  0  0
   46.0290   33.0140   38.9400 C   0  0  0  0  0  0  0  0  0  0  0  0
   46.0780   33.5130   40.2170 C   0  0  0  0  0  0  0  0  0  0  0  0
   47.0580   34.2920   40.7080 C   0  0  0  0  0  0  0  0  0  0  0  0
   44.9270   33.0770   40.9720 N   0  0  0  0  0  0  0  0  0  0  0  0
   43.5420   33.4140   41.1940 C   0  0  0  0  0  0  0  0  0  0  0  0
   42.9210   32.1910   41.8000 C   0  0  0  0  0  0  0  0  0  0  0  0
   44.0610   31.7880   42.7330 C   0  0  0  0  0  0  0  0  0  0  0  0
   45.2340   31.8950   41.7950 C   0  0  1  0  0  0  0  0  0  0  0  0
   45.4150   30.6700   41.0150 C   0  0  0  0  0  0  0  0  0  0  0  0
   44.6220   30.1230   40.2430 O   0  0  0  0  0  0  0  0  0  0  0  0
   44.6240   35.6770   44.3610 C   0  0  0  0  0  0  0  0  0  0  0  0
   45.4080   35.7300   43.2200 C   0  0  0  0  0  0  0  0  0  0  0  0
   46.5090   34.8410   43.0910 C   0  0  0  0  0  0  0  0  0  0  0  0
   46.6960   33.9940   44.1300 N   0  0  0  0  0  0  0  0  0  0  0  0
   45.9390   33.9470   45.2250 C   0  0  0  0  0  0  0  0  0  0  0  0
   44.9040   34.7840   45.3450 N   0  0  0  0  0  0  0  0  0  0  0  0
   46.2140   32.9970   46.3040 C   0  0  0  0  0  0  0  0  0  0  0  0
   46.0310   31.5500   45.9430 C   0  0  0  0  0  0  0  0  0  0  0  0
   46.0090   30.8890   47.3180 C   0  0  0  0  0  0  0  0  0  0  0  0
   45.7360   31.9830   48.3230 C   0  0  0  0  0  0  0  0  0  0  0  0
   45.1810   33.0960   47.4350 C   0  0  0  0  0  0  0  0  0  0  0  0
   49.0139   36.1716   42.5642 H   0  0  0  0  0  0  0  0  0  0  0  0
   49.8666   35.8005   40.1497 H   0  0  0  0  0  0  0  0  0  0  0  0
   48.9692   34.4254   37.8974 H   0  0  0  0  0  0  0  0  0  0  0  0
   47.1391   33.0195   37.1159 H   0  0  0  0  0  0  0  0  0  0  0  0
   45.2087   32.3794   38.5735 H   0  0  0  0  0  0  0  0  0  0  0  0
   43.4603   34.2676   41.8830 H   0  0  0  0  0  0  0  0  0  0  0  0
   43.0394   33.7051   40.2599 H   0  0  0  0  0  0  0  0  0  0  0  0
   41.9988   32.4259   42.3517 H   0  0  0  0  0  0  0  0  0  0  0  0
   42.5963   31.4197   41.0861 H   0  0  0  0  0  0  0  0  0  0  0  0
   44.1553   32.4811   43.5819 H   0  0  0  0  0  0  0  0  0  0  0  0
   43.9401   30.8019   43.2052 H   0  0  0  0  0  0  0  0  0  0  0  0
   46.1952   32.0124   42.3168 H   0  0  0  0  0  0  0  0  0  0  0  0
   46.3876   30.1698   41.1323 H   0  0  0  0  0  0  0  0  0  0  0  0
   43.7702   36.3619   44.4705 H   0  0  0  0  0  0  0  0  0  0  0  0
   45.1806   36.4526   42.4224 H   0  0  0  0  0  0  0  0  0  0  0  0
   47.2514   33.2604   46.5580 H   0  0  0  0  0  0  0  0  0  0  0  0
   45.0856   31.3874   45.4047 H   0  0  0  0  0  0  0  0  0  0  0  0
   46.8069   31.1559   45.2703 H   0  0  0  0  0  0  0  0  0  0  0  0
   45.2149   30.1290   47.3603 H   0  0  0  0  0  0  0  0  0  0  0  0
   46.9645   30.3871   47.5303 H   0  0  0  0  0  0  0  0  0  0  0  0
   44.9968   31.6627   49.0720 H   0  0  0  0  0  0  0  0  0  0  0  0
   46.6193   32.2798   48.9076 H   0  0  0  0  0  0  0  0  0  0  0  0
   45.2007   34.0764   47.9334 H   0  0  0  0  0  0  0  0  0  0  0  0
   44.1266   32.9975   47.1375 H   0  0  0  0  0  0  0  0  0  0  0  0
  1 19  1  0
  2  1  2  0
  3  2  1  0
  4  3  1  0
  4  9  2  0
  5  4  1  0
  6  5  2  0
  6  7  1  0
  7  8  2  0
  8  9  1  0
  8 10  1  0
  9  1  1  0
 10 11  1  0
 10 14  1  0
 11 12  1  0
 12 13  1  0
 14 13  1  0
 15 14  1  0
 16 15  2  0
 17 22  2  0
 18 17  1  0
 19 18  2  0
 19 20  1  0
 20 21  2  0
 21 22  1  0
 21 23  1  0
 23 27  1  0
 24 23  1  0
 24 25  1  0
 25 26  1  0
 27 26  1  0
  2 28  1  0
  3 29  1  0
  5 30  1  0
  6 31  1  0
  7 32  1  0
 11 33  1  0
 11 34  1  0
 12 35  1  0
 12 36  1  0
 13 37  1  0
 13 38  1  0
 14 39  1  1
 15 40  1  0
 17 41  1  0
 18 42  1  0
 23 43  1  0
 24 44  1  0
 24 45  1  0
 25 46  1  0
 25 47  1  0
 26 48  1  0
 26 49  1  0
 27 50  1  0
 27 51  1  0
M  ISO  8  28  14  29   9  30  14  31  14  32  14  33  13  34  13  35  13
M  ISO  8  36  13  37  13  38  13  39  13  40   6  41  14  42  14  43  13
M  ISO  8  44  13  45  13  46  13  47  13  48  13  49  13  50  13  51  13
M  END
>  <minimizedAffinity>  (1) 
-6.82901287

>  <minimizedRMSD>  (1) 
0.155343473

$$$$
