
     RDKit          3D

 47 50  0  0  1  0  0  0  0  0999 V2000
   47.3490   34.8690   41.9040 C   0  0  0  0  0  0  0  0  0  0  0  0
   48.5530   35.5630   41.7670 C   0  0  0  0  0  0  0  0  0  0  0  0
   49.0010   35.4120   40.5140 N   0  0  0  0  0  0  0  0  0  0  0  0
   48.1230   34.6460   39.8530 C   0  0  0  0  0  0  0  0  0  0  0  0
   48.1350   34.2120   38.5520 C   0  0  0  0  0  0  0  0  0  0  0  0
   47.0960   33.4280   38.1230 C   0  0  0  0  0  0  0  0  0  0  0  0
   46.0250   33.0390   38.9160 C   0  0  0  0  0  0  0  0  0  0  0  0
   46.0870   33.5150   40.2050 C   0  0  0  0  0  0  0  0  0  0  0  0
   47.0700   34.2850   40.6930 C   0  0  0  0  0  0  0  0  0  0  0  0
   44.9440   33.0600   40.9660 N   0  0  0  0  0  0  0  0  0  0  0  0
   43.5650   33.3940   41.2100 C   0  0  0  0  0  0  0  0  0  0  0  0
   42.9530   32.1540   41.8030 C   0  0  0  0  0  0  0  0  0  0  0  0
   44.1060   31.7370   42.7100 C   0  0  0  0  0  0  0  0  0  0  0  0
   45.2670   31.8610   41.7570 C   0  0  1  0  0  0  0  0  0  0  0  0
   45.4390   30.6550   40.9500 C   0  0  0  0  0  0  0  0  0  0  0  0
   44.6400   30.1260   40.1750 O   0  0  0  0  0  0  0  0  0  0  0  0
   44.6970   35.6050   44.4170 C   0  0  0  0  0  0  0  0  0  0  0  0
   45.4640   35.6880   43.2630 C   0  0  0  0  0  0  0  0  0  0  0  0
   46.5520   34.7900   43.0950 C   0  0  0  0  0  0  0  0  0  0  0  0
   46.7420   33.9110   44.1090 N   0  0  0  0  0  0  0  0  0  0  0  0
   46.0020   33.8390   45.2130 C   0  0  0  0  0  0  0  0  0  0  0  0
   44.9800   34.6840   45.3680 N   0  0  0  0  0  0  0  0  0  0  0  0
   46.2580   32.8520   46.2950 C   0  0  0  0  0  0  0  0  0  0  0  0
   45.2570   32.9570   47.4300 C   0  0  0  0  0  0  0  0  0  0  0  0
   46.2950   31.4370   45.7550 C   0  0  0  0  0  0  0  0  0  0  0  0
   49.0523   36.1399   42.5594 H   0  0  0  0  0  0  0  0  0  0  0  0
   49.8670   35.8136   40.1272 H   0  0  0  0  0  0  0  0  0  0  0  0
   48.9554   34.4855   37.8721 H   0  0  0  0  0  0  0  0  0  0  0  0
   47.1118   33.0833   37.0785 H   0  0  0  0  0  0  0  0  0  0  0  0
   45.2026   32.4082   38.5475 H   0  0  0  0  0  0  0  0  0  0  0  0
   43.4916   34.2347   41.9155 H   0  0  0  0  0  0  0  0  0  0  0  0
   43.0499   33.7044   40.2889 H   0  0  0  0  0  0  0  0  0  0  0  0
   42.0384   32.3760   42.3724 H   0  0  0  0  0  0  0  0  0  0  0  0
   42.6192   31.3958   41.0793 H   0  0  0  0  0  0  0  0  0  0  0  0
   44.2122   32.4156   43.5692 H   0  0  0  0  0  0  0  0  0  0  0  0
   43.9927   30.7424   43.1660 H   0  0  0  0  0  0  0  0  0  0  0  0
   46.2369   31.9647   42.2655 H   0  0  0  0  0  0  0  0  0  0  0  0
   46.4123   30.1518   41.0473 H   0  0  0  0  0  0  0  0  0  0  0  0
   43.8515   36.2939   44.5601 H   0  0  0  0  0  0  0  0  0  0  0  0
   45.2331   36.4369   42.4911 H   0  0  0  0  0  0  0  0  0  0  0  0
   47.2478   33.0982   46.7068 H   0  0  0  0  0  0  0  0  0  0  0  0
   45.7868   32.9014   48.3924 H   0  0  0  0  0  0  0  0  0  0  0  0
   44.7229   33.9161   47.3603 H   0  0  0  0  0  0  0  0  0  0  0  0
   44.5355   32.1296   47.3603 H   0  0  0  0  0  0  0  0  0  0  0  0
   46.3136   30.7250   46.5933 H   0  0  0  0  0  0  0  0  0  0  0  0
   45.4013   31.2558   45.1398 H   0  0  0  0  0  0  0  0  0  0  0  0
   47.1970   31.3028   45.1398 H   0  0  0  0  0  0  0  0  0  0  0  0
  1 19  1  0
  2  1  2  0
  3  2  1  0
  4  3  1  0
  4  9  2  0
  5  4  1  0
  6  5  2  0
  6  7  1  0
  7  8  2  0
  8  9  1  0
  8 10  1  0
  9  1  1  0
 10 11  1  0
 10 14  1  0
 11 12  1  0
 12 13  1  0
 14 13  1  0
 15 14  1  0
 16 15  2  0
 17 22  2  0
 18 17  1  0
 19 18  2  0
 19 20  1  0
 20 21  2  0
 21 22  1  0
 21 23  1  0
 23 24  1  0
 25 23  1  0
  2 26  1  0
  3 27  1  0
  5 28  1  0
  6 29  1  0
  7 30  1  0
 11 31  1  0
 11 32  1  0
 12 33  1  0
 12 34  1  0
 13 35  1  0
 13 36  1  0
 14 37  1  1
 15 38  1  0
 17 39  1  0
 18 40  1  0
 23 41  1  0
 24 42  1  0
 24 43  1  0
 24 44  1  0
 25 45  1  0
 25 46  1  0
 25 47  1  0
M  ISO  8  26  14  27   9  28  14  29  14  30  14  31  13  32  13  33  13
M  ISO  8  34  13  35  13  36  13  37  13  38   6  39  14  40  14  41   8
M  ISO  6  42   8  43   8  44   8  45   8  46   8  47   8
M  END
>  <minimizedAffinity>  (1) 
-6.27593136

>  <minimizedRMSD>  (1) 
0.377554893

$$$$
