
     RDKit          3D

 41 44  0  0  1  0  0  0  0  0999 V2000
   47.2580   34.9400   41.9090 C   0  0  0  0  0  0  0  0  0  0  0  0
   48.5020   35.5720   41.8130 C   0  0  0  0  0  0  0  0  0  0  0  0
   49.0090   35.3620   40.5940 N   0  0  0  0  0  0  0  0  0  0  0  0
   48.1260   34.6140   39.9080 C   0  0  0  0  0  0  0  0  0  0  0  0
   48.1690   34.1250   38.6140 C   0  0  0  0  0  0  0  0  0  0  0  0
   47.1180   33.3800   38.1590 C   0  0  0  0  0  0  0  0  0  0  0  0
   45.9980   33.0800   38.9210 C   0  0  0  0  0  0  0  0  0  0  0  0
   46.0220   33.5970   40.1950 C   0  0  0  0  0  0  0  0  0  0  0  0
   47.0120   34.3330   40.7120 C   0  0  0  0  0  0  0  0  0  0  0  0
   44.8200   33.2160   40.9020 N   0  0  0  0  0  0  0  0  0  0  0  0
   43.4560   33.6340   41.1070 C   0  0  0  0  0  0  0  0  0  0  0  0
   42.7500   32.4290   41.6630 C   0  0  0  0  0  0  0  0  0  0  0  0
   43.8420   31.9220   42.6040 C   0  0  0  0  0  0  0  0  0  0  0  0
   45.0300   31.9890   41.6810 C   0  0  1  0  0  0  0  0  0  0  0  0
   45.1620   30.7680   40.8770 C   0  0  0  0  0  0  0  0  0  0  0  0
   44.3200   30.2670   40.1270 O   0  0  0  0  0  0  0  0  0  0  0  0
   44.5650   35.8950   44.3030 C   0  0  0  0  0  0  0  0  0  0  0  0
   45.3880   35.9130   43.1840 C   0  0  0  0  0  0  0  0  0  0  0  0
   46.4020   34.9350   43.0570 C   0  0  0  0  0  0  0  0  0  0  0  0
   46.4740   34.0450   44.0750 N   0  0  0  0  0  0  0  0  0  0  0  0
   45.6870   34.0260   45.1460 C   0  0  0  0  0  0  0  0  0  0  0  0
   44.7300   34.9490   45.2660 N   0  0  0  0  0  0  0  0  0  0  0  0
   45.9620   32.9460   46.1330 C   0  0  0  0  0  0  0  0  0  0  0  0
   47.2200   33.0760   46.6920 F   0  0  0  0  0  0  0  0  0  0  0  0
   45.8030   31.6900   45.5660 F   0  0  0  0  0  0  0  0  0  0  0  0
   45.0700   33.1320   47.1920 F   0  0  0  0  0  0  0  0  0  0  0  0
   48.9864   36.1502   42.6136 H   0  0  0  0  0  0  0  0  0  0  0  0
   49.9127   35.7101   40.2433 H   0  0  0  0  0  0  0  0  0  0  0  0
   49.0324   34.3321   37.9646 H   0  0  0  0  0  0  0  0  0  0  0  0
   47.1623   32.9959   37.1292 H   0  0  0  0  0  0  0  0  0  0  0  0
   45.1605   32.4786   38.5379 H   0  0  0  0  0  0  0  0  0  0  0  0
   43.4125   34.4695   41.8212 H   0  0  0  0  0  0  0  0  0  0  0  0
   42.9912   33.9871   40.1746 H   0  0  0  0  0  0  0  0  0  0  0  0
   41.8330   32.7026   42.2054 H   0  0  0  0  0  0  0  0  0  0  0  0
   42.3957   31.7031   40.9163 H   0  0  0  0  0  0  0  0  0  0  0  0
   43.9658   32.5786   43.4779 H   0  0  0  0  0  0  0  0  0  0  0  0
   43.6521   30.9326   43.0456 H   0  0  0  0  0  0  0  0  0  0  0  0
   45.9919   32.0356   42.2126 H   0  0  0  0  0  0  0  0  0  0  0  0
   46.1231   30.2382   40.9518 H   0  0  0  0  0  0  0  0  0  0  0  0
   43.7739   36.6516   44.4110 H   0  0  0  0  0  0  0  0  0  0  0  0
   45.2527   36.6787   42.4059 H   0  0  0  0  0  0  0  0  0  0  0  0
  1 19  1  0
  2  1  2  0
  3  2  1  0
  4  3  1  0
  4  9  2  0
  5  4  1  0
  6  5  2  0
  6  7  1  0
  7  8  2  0
  8  9  1  0
  8 10  1  0
  9  1  1  0
 10 11  1  0
 10 14  1  0
 11 12  1  0
 12 13  1  0
 14 13  1  0
 15 14  1  0
 16 15  2  0
 17 22  2  0
 18 17  1  0
 19 18  2  0
 19 20  1  0
 20 21  2  0
 21 22  1  0
 21 23  1  0
 23 24  1  0
 23 26  1  0
 25 23  1  0
  2 27  1  0
  3 28  1  0
  5 29  1  0
  6 30  1  0
  7 31  1  0
 11 32  1  0
 11 33  1  0
 12 34  1  0
 12 35  1  0
 13 36  1  0
 13 37  1  0
 14 38  1  1
 15 39  1  0
 17 40  1  0
 18 41  1  0
M  ISO  8  27  14  28   9  29  14  30  14  31  14  32  13  33  13  34  13
M  ISO  7  35  13  36  13  37  13  38  13  39   6  40  14  41  14
M  END
>  <minimizedAffinity>  (1) 
-6.5798769

>  <minimizedRMSD>  (1) 
0.139527917

$$$$
