
     RDKit          3D

 27 28  0  0  1  0  0  0  0  0999 V2000
   47.7490   33.8190   42.8300 C   0  0  1  0  0  0  0  0  0  0  0  0
   47.6940   33.8260   41.4020 N   0  0  0  0  0  0  0  0  0  0  0  0
   46.9520   32.8020   40.9100 C   0  0  0  0  0  0  0  0  0  0  0  0
   46.7810   32.6430   39.5340 C   0  0  0  0  0  0  0  0  0  0  0  0
   47.3840   33.5490   38.6990 C   0  0  0  0  0  0  0  0  0  0  0  0
   47.2690   33.4700   37.2810 N   0  0  0  0  0  0  0  0  0  0  0  0
   48.1170   34.5590   39.2050 N   0  0  0  0  0  0  0  0  0  0  0  0
   48.2590   34.6790   40.5290 C   0  0  0  0  0  0  0  0  0  0  0  0
   48.9230   35.5880   41.0610 O   0  0  0  0  0  0  0  0  0  0  0  0
   45.9920   35.5450   42.9310 C   0  0  0  0  0  0  0  0  0  0  0  0
   46.6050   34.4240   43.5160 C   0  0  0  0  0  0  0  0  0  0  0  0
   46.0860   33.9420   44.7420 C   0  0  0  0  0  0  0  0  0  0  0  0
   45.0260   34.6010   45.2690 N   0  0  0  0  0  0  0  0  0  0  0  0
   44.4750   35.6640   44.6760 C   0  0  0  0  0  0  0  0  0  0  0  0
   44.9430   36.1370   43.5250 N   0  0  0  0  0  0  0  0  0  0  0  0
   47.9600   32.4390   43.4210 C   0  0  0  0  0  0  0  0  0  0  0  0
   48.6278   34.4550   43.0122 H   0  0  0  0  0  0  0  0  0  0  0  0
   46.4803   32.0897   41.6029 H   0  0  0  0  0  0  0  0  0  0  0  0
   46.1798   31.8148   39.1306 H   0  0  0  0  0  0  0  0  0  0  0  0
   46.7180   32.7138   36.8503 H   0  0  0  0  0  0  0  0  0  0  0  0
   47.7368   34.1691   36.6866 H   0  0  0  0  0  0  0  0  0  0  0  0
   46.3745   35.9409   41.9787 H   0  0  0  0  0  0  0  0  0  0  0  0
   46.5253   33.0684   45.2459 H   0  0  0  0  0  0  0  0  0  0  0  0
   43.6149   36.1589   45.1507 H   0  0  0  0  0  0  0  0  0  0  0  0
   47.9499   32.5049   44.5190 H   0  0  0  0  0  0  0  0  0  0  0  0
   47.1538   31.7696   43.0864 H   0  0  0  0  0  0  0  0  0  0  0  0
   48.9294   32.0411   43.0864 H   0  0  0  0  0  0  0  0  0  0  0  0
  1 16  1  0
  1 11  1  0
  2  1  1  0
  3  2  1  0
  4  3  2  0
  5  7  2  0
  5  4  1  0
  6  5  1  0
  7  8  1  0
  8  9  2  0
  8  2  1  0
 10 11  2  0
 10 15  1  0
 11 12  1  0
 12 13  2  0
 14 13  1  0
 15 14  2  0
  1 17  1  6
  3 18  1  0
  4 19  1  0
  6 20  1  0
  6 21  1  0
 10 22  1  0
 12 23  1  0
 14 24  1  0
 16 25  1  0
 16 26  1  0
 16 27  1  0
M  ISO  8  17   8  18  14  19  14  22  14  23  14  24  14  25   8  26   8
M  ISO  1  27   8
M  END
>  <minimizedAffinity>  (1) 
-4.4817667

>  <minimizedRMSD>  (1) 
2.31554675

$$$$
