
     RDKit          3D

 29 30  0  0  1  0  0  0  0  0999 V2000
   45.8820   35.4280   42.4280 C   0  0  1  0  0  0  0  0  0  0  0  0
   44.8520   34.9220   41.5780 N   0  0  0  0  0  0  0  0  0  0  0  0
   43.6790   35.5890   41.6840 C   0  0  0  0  0  0  0  0  0  0  0  0
   42.5880   35.2090   40.9190 C   0  0  0  0  0  0  0  0  0  0  0  0
   41.2570   35.8670   40.9550 C   0  0  0  0  0  0  0  0  0  0  0  0
   42.6850   34.1470   40.0390 C   0  0  0  0  0  0  0  0  0  0  0  0
   41.7430   33.7360   39.3050 O   0  0  0  0  0  0  0  0  0  0  0  0
   43.8710   33.5060   39.9600 N   0  0  0  0  0  0  0  0  0  0  0  0
   44.9020   33.9100   40.7220 C   0  0  0  0  0  0  0  0  0  0  0  0
   46.0090   33.3150   40.6510 O   0  0  0  0  0  0  0  0  0  0  0  0
   44.8790   35.3490   44.6810 C   0  0  0  0  0  0  0  0  0  0  0  0
   45.7840   34.7900   43.7410 C   0  0  0  0  0  0  0  0  0  0  0  0
   46.5360   33.6560   44.1190 C   0  0  0  0  0  0  0  0  0  0  0  0
   46.3360   33.1770   45.3690 N   0  0  0  0  0  0  0  0  0  0  0  0
   45.4760   33.7300   46.2280 C   0  0  0  0  0  0  0  0  0  0  0  0
   44.7560   34.7980   45.8960 N   0  0  0  0  0  0  0  0  0  0  0  0
   47.2880   35.2250   41.9060 C   0  0  0  0  0  0  0  0  0  0  0  0
   45.7166   36.5143   42.4782 H   0  0  0  0  0  0  0  0  0  0  0  0
   43.5915   36.4361   42.3802 H   0  0  0  0  0  0  0  0  0  0  0  0
   40.9509   36.0183   42.0007 H   0  0  0  0  0  0  0  0  0  0  0  0
   41.3152   36.8402   40.4455 H   0  0  0  0  0  0  0  0  0  0  0  0
   40.5191   35.2299   40.4455 H   0  0  0  0  0  0  0  0  0  0  0  0
   43.9853   32.7093   39.3173 H   0  0  0  0  0  0  0  0  0  0  0  0
   44.2804   36.2320   44.4126 H   0  0  0  0  0  0  0  0  0  0  0  0
   47.2512   33.1838   43.4294 H   0  0  0  0  0  0  0  0  0  0  0  0
   45.3606   33.2932   47.2310 H   0  0  0  0  0  0  0  0  0  0  0  0
   47.9827   35.1247   42.7530 H   0  0  0  0  0  0  0  0  0  0  0  0
   47.3233   34.3124   41.2928 H   0  0  0  0  0  0  0  0  0  0  0  0
   47.5800   36.0903   41.2928 H   0  0  0  0  0  0  0  0  0  0  0  0
  1 12  1  0
  2  3  1  0
  2  1  1  0
  4  5  1  0
  4  3  2  0
  6  4  1  0
  7  6  2  0
  8  6  1  0
  8  9  1  0
  9  2  1  0
 10  9  2  0
 11 16  2  0
 12 13  2  0
 12 11  1  0
 13 14  1  0
 14 15  2  0
 16 15  1  0
 17  1  1  0
  1 18  1  1
  3 19  1  0
  5 20  1  0
  5 21  1  0
  5 22  1  0
  8 23  1  0
 11 24  1  0
 13 25  1  0
 15 26  1  0
 17 27  1  0
 17 28  1  0
 17 29  1  0
M  ISO  8  18   8  19  14  20   8  21   8  22   8  23   9  24  14  25  14
M  ISO  4  26  14  27   8  28   8  29   8
M  END
>  <minimizedAffinity>  (1) 
-4.85496855

>  <minimizedRMSD>  (1) 
2.0506022

$$$$
