
     RDKit          3D

 32 34  0  0  1  0  0  0  0  0999 V2000
   45.5400   35.3170   42.8420 C   0  0  2  0  0  0  0  0  0  0  0  0
   44.3860   34.8480   42.0470 C   0  0  0  0  0  0  0  0  0  0  0  0
   43.6260   35.6560   41.2240 C   0  0  0  0  0  0  0  0  0  0  0  0
   42.5430   35.2120   40.4940 C   0  0  0  0  0  0  0  0  0  0  0  0
   42.2180   33.8740   40.6120 C   0  0  0  0  0  0  0  0  0  0  0  0
   42.9750   33.0800   41.4290 C   0  0  0  0  0  0  0  0  0  0  0  0
   42.5610   31.7530   41.4670 C   0  0  0  0  0  0  0  0  0  0  0  0
   43.2080   30.8080   42.2340 C   0  0  0  0  0  0  0  0  0  0  0  0
   44.2900   31.2540   42.9610 C   0  0  0  0  0  0  0  0  0  0  0  0
   44.7230   32.5650   42.9420 C   0  0  0  0  0  0  0  0  0  0  0  0
   44.0740   33.5100   42.1760 C   0  0  0  0  0  0  0  0  0  0  0  0
   47.1130   34.6130   41.0460 C   0  0  0  0  0  0  0  0  0  0  0  0
   46.7660   34.6950   42.3980 C   0  0  0  0  0  0  0  0  0  0  0  0
   47.7080   34.1230   43.2880 C   0  0  0  0  0  0  0  0  0  0  0  0
   48.8280   33.5640   42.7920 N   0  0  0  0  0  0  0  0  0  0  0  0
   49.1040   33.5150   41.4860 C   0  0  0  0  0  0  0  0  0  0  0  0
   48.2430   34.0410   40.6170 N   0  0  0  0  0  0  0  0  0  0  0  0
   45.2480   34.7830   44.2610 C   0  0  0  0  0  0  0  0  0  0  0  0
   45.6611   36.4078   42.7685 H   0  0  0  0  0  0  0  0  0  0  0  0
   43.9011   36.7182   41.1459 H   0  0  0  0  0  0  0  0  0  0  0  0
   41.9657   35.8905   39.8488 H   0  0  0  0  0  0  0  0  0  0  0  0
   41.3650   33.4546   40.0583 H   0  0  0  0  0  0  0  0  0  0  0  0
   41.6910   31.4483   40.8669 H   0  0  0  0  0  0  0  0  0  0  0  0
   42.8795   29.7586   42.2639 H   0  0  0  0  0  0  0  0  0  0  0  0
   44.8348   30.5314   43.5863 H   0  0  0  0  0  0  0  0  0  0  0  0
   45.5952   32.8587   43.5445 H   0  0  0  0  0  0  0  0  0  0  0  0
   46.4247   35.0386   40.3009 H   0  0  0  0  0  0  0  0  0  0  0  0
   47.5264   34.1354   44.3728 H   0  0  0  0  0  0  0  0  0  0  0  0
   50.0333   33.0448   41.1319 H   0  0  0  0  0  0  0  0  0  0  0  0
   45.6359   35.4925   45.0068 H   0  0  0  0  0  0  0  0  0  0  0  0
   44.1620   34.6690   44.3936 H   0  0  0  0  0  0  0  0  0  0  0  0
   45.7380   33.8072   44.3936 H   0  0  0  0  0  0  0  0  0  0  0  0
  1 18  1  0
  2 11  1  0
  2  1  1  0
  3  2  2  0
  4  5  2  0
  4  3  1  0
  5  6  1  0
  6  7  1  0
  6 11  2  0
  7  8  2  0
  8  9  1  0
 10  9  2  0
 11 10  1  0
 12 13  2  0
 13  1  1  0
 13 14  1  0
 15 14  2  0
 16 15  1  0
 17 12  1  0
 17 16  2  0
  1 19  1  1
  3 20  1  0
  4 21  1  0
  5 22  1  0
  7 23  1  0
  8 24  1  0
  9 25  1  0
 10 26  1  0
 12 27  1  0
 14 28  1  0
 16 29  1  0
 18 30  1  0
 18 31  1  0
 18 32  1  0
M  ISO  8  19   8  20  14  21  14  22  14  23  14  24  14  25  14  26  14
M  ISO  6  27  14  28  14  29  14  30   8  31   8  32   8
M  END
>  <minimizedAffinity>  (1) 
-4.63253021

>  <minimizedRMSD>  (1) 
5.33538294

$$$$
