
     RDKit          3D

 21 22  0  0  1  0  0  0  0  0999 V2000
   47.0540   35.0550   41.8480 C   0  0  2  0  0  0  0  0  0  0  0  0
   45.3580   36.1490   43.2910 C   0  0  0  0  0  0  0  0  0  0  0  0
   46.2390   35.0530   43.0700 C   0  0  0  0  0  0  0  0  0  0  0  0
   46.2960   34.0150   44.0300 C   0  0  0  0  0  0  0  0  0  0  0  0
   45.4920   34.1320   45.1230 N   0  0  0  0  0  0  0  0  0  0  0  0
   44.6840   35.1830   45.2810 C   0  0  0  0  0  0  0  0  0  0  0  0
   44.6030   36.1790   44.3970 N   0  0  0  0  0  0  0  0  0  0  0  0
   46.3700   34.2210   40.8320 C   0  0  0  0  0  0  0  0  0  0  0  0
   45.0660   34.0780   40.6240 N   0  0  0  0  0  0  0  0  0  0  0  0
   44.9320   33.2490   39.6300 O   0  0  0  0  0  0  0  0  0  0  0  0
   46.0890   32.8600   39.2000 C   0  0  0  0  0  0  0  0  0  0  0  0
   47.0520   33.4600   39.9450 N   0  0  0  0  0  0  0  0  0  0  0  0
   48.4130   34.4960   42.2110 C   0  0  0  0  0  0  0  0  0  0  0  0
   47.1823   36.0645   41.4304 H   0  0  0  0  0  0  0  0  0  0  0  0
   45.2976   36.9667   42.5577 H   0  0  0  0  0  0  0  0  0  0  0  0
   46.9621   33.1495   43.8989 H   0  0  0  0  0  0  0  0  0  0  0  0
   44.0554   35.2300   46.1825 H   0  0  0  0  0  0  0  0  0  0  0  0
   46.2629   32.1600   38.3695 H   0  0  0  0  0  0  0  0  0  0  0  0
   48.5122   34.4552   43.3058 H   0  0  0  0  0  0  0  0  0  0  0  0
   48.5156   33.4827   41.7955 H   0  0  0  0  0  0  0  0  0  0  0  0
   49.1989   35.1439   41.7955 H   0  0  0  0  0  0  0  0  0  0  0  0
  1 13  1  0
  1  3  1  0
  2  7  2  0
  3  2  1  0
  3  4  2  0
  4  5  1  0
  5  6  2  0
  7  6  1  0
  8  1  1  0
  9  8  2  0
 10  9  1  0
 11 10  1  0
 11 12  2  0
 12  8  1  0
  1 14  1  6
  2 15  1  0
  4 16  1  0
  6 17  1  0
 11 18  1  0
 13 19  1  0
 13 20  1  0
 13 21  1  0
M  ISO  8  14   8  15  14  16  14  17  14  18  14  19   8  20   8  21   8
M  END
>  <minimizedAffinity>  (1) 
-3.92121077

>  <minimizedRMSD>  (1) 
1.21626472

$$$$
