
     RDKit          3D

 36 39  0  0  1  0  0  0  0  0999 V2000
   44.5030   35.9550   44.8740 C   0  0  0  0  0  0  0  0  0  0  0  0
   45.1210   35.9840   43.5680 C   0  0  0  0  0  0  0  0  0  0  0  0
   45.9600   34.9440   43.2460 C   0  0  0  0  0  0  0  0  0  0  0  0
   46.1680   33.9500   44.1650 N   0  0  0  0  0  0  0  0  0  0  0  0
   45.5700   33.9670   45.3670 C   0  0  0  0  0  0  0  0  0  0  0  0
   44.7540   34.9520   45.7110 N   0  0  0  0  0  0  0  0  0  0  0  0
   45.8300   32.8750   46.3170 N   0  0  0  0  0  0  0  0  0  0  0  0
   45.1940   32.8720   47.6070 C   0  0  0  0  0  0  0  0  0  0  0  0
   46.0880   32.3140   48.6810 C   0  0  0  0  0  0  0  0  0  0  0  0
   47.5040   32.2840   48.2020 C   0  0  0  0  0  0  0  0  0  0  0  0
   47.5500   31.2790   47.0410 C   0  0  0  0  0  0  0  0  0  0  0  0
   46.7440   31.8020   45.9220 C   0  0  1  0  0  0  0  0  0  0  0  0
   46.0370   30.7450   45.1340 C   0  0  0  0  0  0  0  0  0  0  0  0
   46.1220   30.4750   43.8360 N   0  0  0  0  0  0  0  0  0  0  0  0
   45.3590   29.4670   43.5070 O   0  0  0  0  0  0  0  0  0  0  0  0
   44.7630   29.0670   44.6180 C   0  0  0  0  0  0  0  0  0  0  0  0
   45.1520   29.8350   45.6600 N   0  0  0  0  0  0  0  0  0  0  0  0
   43.6180   27.6870   44.6000 S   0  0  0  0  0  0  0  0  0  0  0  0
   43.6760   26.9750   46.2410 C   0  0  0  0  0  0  0  0  0  0  0  0
   44.3450   26.9180   47.4050 N   0  0  0  0  0  0  0  0  0  0  0  0
   43.7430   26.1130   48.2250 O   0  0  0  0  0  0  0  0  0  0  0  0
   42.6610   25.5990   47.6630 C   0  0  0  0  0  0  0  0  0  0  0  0
   42.6170   26.1400   46.4140 N   0  0  0  0  0  0  0  0  0  0  0  0
   43.8229   36.7648   45.1769 H   0  0  0  0  0  0  0  0  0  0  0  0
   44.9280   36.8043   42.8610 H   0  0  0  0  0  0  0  0  0  0  0  0
   46.4568   34.9105   42.2652 H   0  0  0  0  0  0  0  0  0  0  0  0
   44.9251   33.9053   47.8716 H   0  0  0  0  0  0  0  0  0  0  0  0
   44.3031   32.2300   47.5424 H   0  0  0  0  0  0  0  0  0  0  0  0
   46.0199   32.9477   49.5775 H   0  0  0  0  0  0  0  0  0  0  0  0
   45.7666   31.2902   48.9230 H   0  0  0  0  0  0  0  0  0  0  0  0
   47.8085   33.2818   47.8533 H   0  0  0  0  0  0  0  0  0  0  0  0
   48.1912   31.9910   49.0095 H   0  0  0  0  0  0  0  0  0  0  0  0
   48.5910   31.1414   46.7132 H   0  0  0  0  0  0  0  0  0  0  0  0
   47.1448   30.3110   47.3707 H   0  0  0  0  0  0  0  0  0  0  0  0
   47.4880   32.2454   45.2439 H   0  0  0  0  0  0  0  0  0  0  0  0
   41.9500   24.8878   48.1087 H   0  0  0  0  0  0  0  0  0  0  0  0
  1  6  2  0
  2  1  1  0
  3  2  2  0
  3  4  1  0
  4  5  2  0
  5  6  1  0
  5  7  1  0
  7  8  1  0
  8  9  1  0
 10  9  1  0
 11 10  1  0
 12  7  1  0
 12 11  1  0
 13 17  1  0
 13 12  1  0
 14 13  2  0
 15 14  1  0
 15 16  1  0
 16 17  2  0
 18 16  1  0
 18 19  1  0
 19 23  1  0
 19 20  2  0
 20 21  1  0
 22 21  1  0
 23 22  2  0
  1 24  1  0
  2 25  1  0
  3 26  1  0
  8 27  1  0
  8 28  1  0
  9 29  1  0
  9 30  1  0
 10 31  1  0
 10 32  1  0
 11 33  1  0
 11 34  1  0
 12 35  1  6
 22 36  1  0
M  ISO  8  24  14  25  14  26  14  27  13  28  13  29  13  30  13  31  13
M  ISO  5  32  13  33  13  34  13  35  13  36  14
M  END
>  <minimizedAffinity>  (1) 
-5.4379859

>  <minimizedRMSD>  (1) 
1.34257936

$$$$
