
     RDKit          3D

 22 23  0  0  1  0  0  0  0  0999 V2000
   45.1580   34.8560   42.8950 C   0  0  1  0  0  0  0  0  0  0  0  0
   45.9450   34.0480   40.7750 C   0  0  0  0  0  0  0  0  0  0  0  0
   46.2660   34.7380   41.9460 C   0  0  0  0  0  0  0  0  0  0  0  0
   47.5650   35.2170   42.0640 C   0  0  0  0  0  0  0  0  0  0  0  0
   48.4030   34.9770   41.0420 N   0  0  0  0  0  0  0  0  0  0  0  0
   48.0870   34.3170   39.9280 C   0  0  0  0  0  0  0  0  0  0  0  0
   46.8540   33.8460   39.7830 N   0  0  0  0  0  0  0  0  0  0  0  0
   45.4350   34.0750   44.0750 N   0  0  0  0  0  0  0  0  0  0  0  0
   45.1920   34.5180   45.3440 C   0  0  0  0  0  0  0  0  0  0  0  0
   45.5530   33.5650   46.2530 N   0  0  0  0  0  0  0  0  0  0  0  0
   46.0270   32.5190   45.5160 C   0  0  0  0  0  0  0  0  0  0  0  0
   45.9440   32.8560   44.1970 N   0  0  0  0  0  0  0  0  0  0  0  0
   45.0420   36.3390   43.2270 C   0  0  0  0  0  0  0  0  0  0  0  0
   44.2143   34.4769   42.4758 H   0  0  0  0  0  0  0  0  0  0  0  0
   44.9250   33.6554   40.6507 H   0  0  0  0  0  0  0  0  0  0  0  0
   47.8933   35.7695   42.9568 H   0  0  0  0  0  0  0  0  0  0  0  0
   48.8380   34.1644   39.1389 H   0  0  0  0  0  0  0  0  0  0  0  0
   44.7669   35.5005   45.5972 H   0  0  0  0  0  0  0  0  0  0  0  0
   46.4098   31.5686   45.9163 H   0  0  0  0  0  0  0  0  0  0  0  0
   45.0317   36.4705   44.3191 H   0  0  0  0  0  0  0  0  0  0  0  0
   45.9007   36.8784   42.8008 H   0  0  0  0  0  0  0  0  0  0  0  0
   44.1099   36.7383   42.8008 H   0  0  0  0  0  0  0  0  0  0  0  0
  1 13  1  0
  1  8  1  0
  2  3  2  0
  3  4  1  0
  3  1  1  0
  5  4  2  0
  6  5  1  0
  7  6  2  0
  7  2  1  0
  8 12  1  0
  8  9  1  0
  9 10  2  0
 11 10  1  0
 12 11  2  0
  1 14  1  6
  2 15  1  0
  4 16  1  0
  6 17  1  0
  9 18  1  0
 11 19  1  0
 13 20  1  0
 13 21  1  0
 13 22  1  0
M  ISO  8  14   8  15  14  16  14  17  14  18  14  19  14  20   8  21   8
M  ISO  1  22   8
M  END
>  <minimizedAffinity>  (1) 
-3.85475492

>  <minimizedRMSD>  (1) 
4.73979425

$$$$
