
     RDKit          3D

 31 33  0  0  1  0  0  0  0  0999 V2000
   46.1990   32.7570   44.8540 C   0  0  1  0  0  0  0  0  0  0  0  0
   44.8630   33.6330   43.0130 C   0  0  0  0  0  0  0  0  0  0  0  0
   45.3510   33.8360   44.3180 C   0  0  0  0  0  0  0  0  0  0  0  0
   45.0140   35.0020   44.9770 C   0  0  0  0  0  0  0  0  0  0  0  0
   44.2310   35.8770   44.3160 N   0  0  0  0  0  0  0  0  0  0  0  0
   43.7720   35.6770   43.0760 C   0  0  0  0  0  0  0  0  0  0  0  0
   44.0770   34.5740   42.4230 N   0  0  0  0  0  0  0  0  0  0  0  0
   47.3860   32.6100   44.0120 C   0  0  0  0  0  0  0  0  0  0  0  0
   48.0110   31.4970   43.4570 C   0  0  0  0  0  0  0  0  0  0  0  0
   49.1100   31.9250   42.7600 N   0  0  0  0  0  0  0  0  0  0  0  0
   49.1910   33.2590   42.8620 C   0  0  0  0  0  0  0  0  0  0  0  0
   48.1560   33.6580   43.6110 N   0  0  0  0  0  0  0  0  0  0  0  0
   46.5910   33.1460   46.2630 C   0  0  0  0  0  0  0  0  0  0  0  0
   46.0450   32.1480   47.2530 C   0  0  0  0  0  0  0  0  0  0  0  0
   45.7120   30.8880   46.7870 C   0  0  0  0  0  0  0  0  0  0  0  0
   45.2020   29.9040   47.6250 C   0  0  0  0  0  0  0  0  0  0  0  0
   45.0260   30.1900   48.9410 N   0  0  0  0  0  0  0  0  0  0  0  0
   45.3670   31.4340   49.3390 C   0  0  0  0  0  0  0  0  0  0  0  0
   45.8660   32.4200   48.5580 N   0  0  0  0  0  0  0  0  0  0  0  0
   45.6639   31.7960   44.8631 H   0  0  0  0  0  0  0  0  0  0  0  0
   45.1178   32.7114   42.4691 H   0  0  0  0  0  0  0  0  0  0  0  0
   45.3695   35.2075   45.9975 H   0  0  0  0  0  0  0  0  0  0  0  0
   43.1364   36.4374   42.5986 H   0  0  0  0  0  0  0  0  0  0  0  0
   47.6795   30.4532   43.5603 H   0  0  0  0  0  0  0  0  0  0  0  0
   49.9620   33.9037   42.4149 H   0  0  0  0  0  0  0  0  0  0  0  0
   47.9652   34.6404   43.8547 H   0  0  0  0  0  0  0  0  0  0  0  0
   47.6880   33.1710   46.3406 H   0  0  0  0  0  0  0  0  0  0  0  0
   46.1743   34.1386   46.4890 H   0  0  0  0  0  0  0  0  0  0  0  0
   45.8555   30.6586   45.7208 H   0  0  0  0  0  0  0  0  0  0  0  0
   44.9452   28.9103   47.2293 H   0  0  0  0  0  0  0  0  0  0  0  0
   45.2251   31.6696   50.4041 H   0  0  0  0  0  0  0  0  0  0  0  0
  1 13  1  0
  2  3  2  0
  3  1  1  0
  3  4  1  0
  5  4  2  0
  6  5  1  0
  7  2  1  0
  7  6  2  0
  8  1  1  0
  9  8  2  0
 10 11  2  0
 10  9  1  0
 11 12  1  0
 12  8  1  0
 13 14  1  0
 14 19  1  0
 15 14  2  0
 15 16  1  0
 16 17  2  0
 17 18  1  0
 19 18  2  0
  1 20  1  1
  2 21  1  0
  4 22  1  0
  6 23  1  0
  9 24  1  0
 11 25  1  0
 12 26  1  0
 13 27  1  0
 13 28  1  0
 15 29  1  0
 16 30  1  0
 18 31  1  0
M  ISO  8  20   8  21  14  22  14  23  14  24  14  25  14  26   9  27   8
M  ISO  4  28   8  29  14  30  14  31  14
M  END
>  <minimizedAffinity>  (1) 
-4.79902554

>  <minimizedRMSD>  (1) 
3.82971501

$$$$
