
     RDKit          3D

 39 41  0  0  1  0  0  0  0  0999 V2000
   46.7580   32.8800   43.8630 C   0  0  1  0  0  0  0  0  0  0  0  0
   45.9180   34.9980   42.9980 C   0  0  0  0  0  0  0  0  0  0  0  0
   45.9660   34.1020   44.0830 C   0  0  0  0  0  0  0  0  0  0  0  0
   45.2900   34.4280   45.2420 C   0  0  0  0  0  0  0  0  0  0  0  0
   44.6200   35.5940   45.2610 N   0  0  0  0  0  0  0  0  0  0  0  0
   44.5780   36.4440   44.2210 C   0  0  0  0  0  0  0  0  0  0  0  0
   45.2150   36.1590   43.1020 N   0  0  0  0  0  0  0  0  0  0  0  0
   47.9570   33.2150   43.0870 C   0  0  0  0  0  0  0  0  0  0  0  0
   48.5070   32.6660   41.9280 C   0  0  0  0  0  0  0  0  0  0  0  0
   49.6510   33.3500   41.6300 N   0  0  0  0  0  0  0  0  0  0  0  0
   49.8390   34.3020   42.5570 C   0  0  0  0  0  0  0  0  0  0  0  0
   48.8200   34.2110   43.4230 N   0  0  0  0  0  0  0  0  0  0  0  0
   47.1470   32.3360   45.2170 C   0  0  0  0  0  0  0  0  0  0  0  0
   46.4530   31.0050   45.4930 C   0  0  0  0  0  0  0  0  0  0  0  0
   47.4620   29.9060   45.3220 C   0  0  0  0  0  0  0  0  0  0  0  0
   48.3570   29.7390   46.5280 C   0  0  0  0  0  0  0  0  0  0  0  0
   47.5620   29.5420   47.7970 C   0  0  0  0  0  0  0  0  0  0  0  0
   46.0710   29.6370   47.4760 C   0  0  0  0  0  0  0  0  0  0  0  0
   45.8450   31.0120   46.8840 C   0  0  0  0  0  0  0  0  0  0  0  0
   46.1794   32.1283   43.3061 H   0  0  0  0  0  0  0  0  0  0  0  0
   46.4494   34.7595   42.0649 H   0  0  0  0  0  0  0  0  0  0  0  0
   45.2991   33.7600   46.1159 H   0  0  0  0  0  0  0  0  0  0  0  0
   44.0095   37.3821   44.3035 H   0  0  0  0  0  0  0  0  0  0  0  0
   48.0904   31.8260   41.3528 H   0  0  0  0  0  0  0  0  0  0  0  0
   50.6710   35.0203   42.5983 H   0  0  0  0  0  0  0  0  0  0  0  0
   48.7044   34.8219   44.2442 H   0  0  0  0  0  0  0  0  0  0  0  0
   48.2364   32.1860   45.2447 H   0  0  0  0  0  0  0  0  0  0  0  0
   46.8372   33.0584   45.9865 H   0  0  0  0  0  0  0  0  0  0  0  0
   45.6268   30.8402   44.7857 H   0  0  0  0  0  0  0  0  0  0  0  0
   46.9263   28.9611   45.1485 H   0  0  0  0  0  0  0  0  0  0  0  0
   48.1027   30.1748   44.4692 H   0  0  0  0  0  0  0  0  0  0  0  0
   49.0024   28.8618   46.3730 H   0  0  0  0  0  0  0  0  0  0  0  0
   48.9539   30.6563   46.6389 H   0  0  0  0  0  0  0  0  0  0  0  0
   47.7847   28.5516   48.2206 H   0  0  0  0  0  0  0  0  0  0  0  0
   47.8330   30.3189   48.5271 H   0  0  0  0  0  0  0  0  0  0  0  0
   45.7883   28.8599   46.7506 H   0  0  0  0  0  0  0  0  0  0  0  0
   45.4597   29.4872   48.3782 H   0  0  0  0  0  0  0  0  0  0  0  0
   46.3348   31.7757   47.5060 H   0  0  0  0  0  0  0  0  0  0  0  0
   44.7714   31.2478   46.8407 H   0  0  0  0  0  0  0  0  0  0  0  0
  1  3  1  0
  1 13  1  0
  2  7  2  0
  2  3  1  0
  3  4  2  0
  4  5  1  0
  6  5  2  0
  7  6  1  0
  8 12  1  0
  8  1  1  0
  9  8  2  0
 10  9  1  0
 10 11  2  0
 11 12  1  0
 13 14  1  0
 14 19  1  0
 15 14  1  0
 15 16  1  0
 16 17  1  0
 18 17  1  0
 19 18  1  0
  1 20  1  6
  2 21  1  0
  4 22  1  0
  6 23  1  0
  9 24  1  0
 11 25  1  0
 12 26  1  0
 13 27  1  0
 13 28  1  0
 14 29  1  0
 15 30  1  0
 15 31  1  0
 16 32  1  0
 16 33  1  0
 17 34  1  0
 17 35  1  0
 18 36  1  0
 18 37  1  0
 19 38  1  0
 19 39  1  0
M  ISO  8  20   8  21  14  22  14  23  14  24  14  25  14  26   9  27   8
M  ISO  8  28   8  29  13  30  13  31  13  32  13  33  13  34  13  35  13
M  ISO  4  36  13  37  13  38  13  39  13
M  END
>  <minimizedAffinity>  (1) 
-4.80655432

>  <minimizedRMSD>  (1) 
4.3828249

$$$$
