
     RDKit          3D

 30 32  0  0  1  0  0  0  0  0999 V2000
   46.1810   32.7480   44.8710 C   0  0  1  0  0  0  0  0  0  0  0  0
   44.8540   33.6070   43.0030 C   0  0  0  0  0  0  0  0  0  0  0  0
   45.3460   33.8230   44.3020 C   0  0  0  0  0  0  0  0  0  0  0  0
   45.0180   35.0010   44.9420 C   0  0  0  0  0  0  0  0  0  0  0  0
   44.2460   35.8700   44.2720 N   0  0  0  0  0  0  0  0  0  0  0  0
   43.7770   35.6610   43.0300 C   0  0  0  0  0  0  0  0  0  0  0  0
   44.0810   34.5340   42.3980 N   0  0  0  0  0  0  0  0  0  0  0  0
   47.3640   32.5640   44.0300 C   0  0  0  0  0  0  0  0  0  0  0  0
   47.9780   31.4500   43.4920 C   0  0  0  0  0  0  0  0  0  0  0  0
   49.0820   31.8550   42.7820 N   0  0  0  0  0  0  0  0  0  0  0  0
   49.1760   33.1770   42.8600 C   0  0  0  0  0  0  0  0  0  0  0  0
   48.1450   33.5950   43.6070 N   0  0  0  0  0  0  0  0  0  0  0  0
   46.5680   33.1650   46.2700 C   0  0  0  0  0  0  0  0  0  0  0  0
   46.0470   32.2540   47.3040 C   0  0  0  0  0  0  0  0  0  0  0  0
   45.7130   32.3580   48.5950 C   0  0  0  0  0  0  0  0  0  0  0  0
   45.2460   31.3090   49.2910 C   0  0  0  0  0  0  0  0  0  0  0  0
   45.1310   30.1100   48.5900 C   0  0  0  0  0  0  0  0  0  0  0  0
   45.7110   30.5340   46.9050 S   0  0  0  0  0  0  0  0  0  0  0  0
   45.6384   31.7919   44.9081 H   0  0  0  0  0  0  0  0  0  0  0  0
   45.1010   32.6743   42.4747 H   0  0  0  0  0  0  0  0  0  0  0  0
   45.3748   35.2184   45.9595 H   0  0  0  0  0  0  0  0  0  0  0  0
   43.1462   36.4179   42.5410 H   0  0  0  0  0  0  0  0  0  0  0  0
   47.6391   30.4104   43.6122 H   0  0  0  0  0  0  0  0  0  0  0  0
   49.9510   33.8077   42.4000 H   0  0  0  0  0  0  0  0  0  0  0  0
   47.9644   34.5831   43.8348 H   0  0  0  0  0  0  0  0  0  0  0  0
   47.6656   33.1841   46.3397 H   0  0  0  0  0  0  0  0  0  0  0  0
   46.1292   34.1571   46.4523 H   0  0  0  0  0  0  0  0  0  0  0  0
   45.8239   33.3289   49.1000 H   0  0  0  0  0  0  0  0  0  0  0  0
   44.9702   31.3912   50.3527 H   0  0  0  0  0  0  0  0  0  0  0  0
   44.7755   29.1375   48.9613 H   0  0  0  0  0  0  0  0  0  0  0  0
  1 13  1  0
  2  3  2  0
  3  1  1  0
  3  4  1  0
  5  4  2  0
  6  5  1  0
  7  2  1  0
  7  6  2  0
  8  1  1  0
  9  8  2  0
 10 11  2  0
 10  9  1  0
 11 12  1  0
 12  8  1  0
 13 14  1  0
 14 15  2  0
 15 16  1  0
 17 16  2  0
 18 14  1  0
 18 17  1  0
  1 19  1  1
  2 20  1  0
  4 21  1  0
  6 22  1  0
  9 23  1  0
 11 24  1  0
 12 25  1  0
 13 26  1  0
 13 27  1  0
 15 28  1  0
 16 29  1  0
 17 30  1  0
M  ISO  8  19   8  20  14  21  14  22  14  23  14  24  14  25   9  26   8
M  ISO  4  27   8  28  14  29  14  30  14
M  END
>  <minimizedAffinity>  (1) 
-4.71597195

>  <minimizedRMSD>  (1) 
3.77874923

$$$$
