
     RDKit          3D

 31 33  0  0  1  0  0  0  0  0999 V2000
   46.7300   32.8900   43.9940 C   0  0  1  0  0  0  0  0  0  0  0  0
   45.9060   34.9810   43.0430 C   0  0  0  0  0  0  0  0  0  0  0  0
   45.9370   34.1210   44.1600 C   0  0  0  0  0  0  0  0  0  0  0  0
   45.2520   34.4890   45.3030 C   0  0  0  0  0  0  0  0  0  0  0  0
   44.5850   35.6730   45.2640 N   0  0  0  0  0  0  0  0  0  0  0  0
   44.5660   36.4710   44.2050 C   0  0  0  0  0  0  0  0  0  0  0  0
   45.2100   36.1450   43.1020 N   0  0  0  0  0  0  0  0  0  0  0  0
   47.9050   33.1790   43.1720 C   0  0  0  0  0  0  0  0  0  0  0  0
   48.4180   32.5910   42.0190 C   0  0  0  0  0  0  0  0  0  0  0  0
   49.5640   33.2520   41.6690 N   0  0  0  0  0  0  0  0  0  0  0  0
   49.7890   34.2320   42.5560 C   0  0  0  0  0  0  0  0  0  0  0  0
   48.7900   34.1760   43.4480 N   0  0  0  0  0  0  0  0  0  0  0  0
   47.1440   32.4250   45.3700 C   0  0  0  0  0  0  0  0  0  0  0  0
   46.2680   31.3240   45.8600 C   0  0  0  0  0  0  0  0  0  0  0  0
   45.7900   30.3420   44.9900 C   0  0  0  0  0  0  0  0  0  0  0  0
   44.9810   29.2900   45.3350 C   0  0  0  0  0  0  0  0  0  0  0  0
   44.6240   29.2080   46.6340 N   0  0  0  0  0  0  0  0  0  0  0  0
   45.0720   30.1500   47.5060 C   0  0  0  0  0  0  0  0  0  0  0  0
   45.8660   31.1770   47.1540 N   0  0  0  0  0  0  0  0  0  0  0  0
   46.1454   32.1041   43.4934 H   0  0  0  0  0  0  0  0  0  0  0  0
   46.4457   34.7087   42.1240 H   0  0  0  0  0  0  0  0  0  0  0  0
   45.2469   33.8541   46.2012 H   0  0  0  0  0  0  0  0  0  0  0  0
   44.0059   37.4167   44.2475 H   0  0  0  0  0  0  0  0  0  0  0  0
   47.9768   31.7393   41.4805 H   0  0  0  0  0  0  0  0  0  0  0  0
   50.6287   34.9426   42.5524 H   0  0  0  0  0  0  0  0  0  0  0  0
   48.7019   34.8148   44.2511 H   0  0  0  0  0  0  0  0  0  0  0  0
   48.1823   32.0641   45.3281 H   0  0  0  0  0  0  0  0  0  0  0  0
   47.0525   33.2739   46.0636 H   0  0  0  0  0  0  0  0  0  0  0  0
   46.0889   30.4192   43.9342 H   0  0  0  0  0  0  0  0  0  0  0  0
   44.6412   28.5525   44.5929 H   0  0  0  0  0  0  0  0  0  0  0  0
   44.7676   30.0675   48.5598 H   0  0  0  0  0  0  0  0  0  0  0  0
  1  3  1  0
  1 13  1  0
  2  7  2  0
  2  3  1  0
  3  4  2  0
  5  4  1  0
  6  5  2  0
  7  6  1  0
  8 12  1  0
  8  1  1  0
  9  8  2  0
 10  9  1  0
 10 11  2  0
 11 12  1  0
 13 14  1  0
 14 19  2  0
 15 16  2  0
 15 14  1  0
 16 17  1  0
 17 18  2  0
 19 18  1  0
  1 20  1  6
  2 21  1  0
  4 22  1  0
  6 23  1  0
  9 24  1  0
 11 25  1  0
 12 26  1  0
 13 27  1  0
 13 28  1  0
 15 29  1  0
 16 30  1  0
 18 31  1  0
M  ISO  8  20   8  21  14  22  14  23  14  24  14  25  14  26   9  27   8
M  ISO  4  28   8  29  14  30  14  31  14
M  END
>  <minimizedAffinity>  (1) 
-4.77872372

>  <minimizedRMSD>  (1) 
4.45160723

$$$$
