
     RDKit          3D

 35 37  0  0  1  0  0  0  0  0999 V2000
   46.8600   34.0530   43.8980 C   0  0  1  0  0  0  0  0  0  0  0  0
   45.2830   35.5780   42.8410 C   0  0  0  0  0  0  0  0  0  0  0  0
   45.6550   34.2560   43.0810 C   0  0  0  0  0  0  0  0  0  0  0  0
   44.8760   33.2430   42.5390 C   0  0  0  0  0  0  0  0  0  0  0  0
   43.8090   33.6250   41.8150 N   0  0  0  0  0  0  0  0  0  0  0  0
   43.4450   34.8820   41.5810 C   0  0  0  0  0  0  0  0  0  0  0  0
   44.1820   35.8490   42.0940 N   0  0  0  0  0  0  0  0  0  0  0  0
   46.4550   33.3920   45.1720 C   0  0  0  0  0  0  0  0  0  0  0  0
   45.5270   33.7500   46.1480 C   0  0  0  0  0  0  0  0  0  0  0  0
   45.5560   32.7910   47.1270 N   0  0  0  0  0  0  0  0  0  0  0  0
   46.4450   31.8780   46.7960 C   0  0  0  0  0  0  0  0  0  0  0  0
   46.9940   32.2300   45.6210 N   0  0  0  0  0  0  0  0  0  0  0  0
   47.7930   33.1430   43.1460 C   0  0  0  0  0  0  0  0  0  0  0  0
   48.3400   33.8410   42.0060 N   0  0  0  0  0  0  0  0  0  0  0  0
   48.7930   32.9320   40.9720 C   0  0  0  0  0  0  0  0  0  0  0  0
   50.2240   32.5830   41.3340 C   0  0  0  0  0  0  0  0  0  0  0  0
   50.5610   33.5020   42.4780 C   0  0  0  0  0  0  0  0  0  0  0  0
   49.5230   34.5930   42.3620 C   0  0  0  0  0  0  0  0  0  0  0  0
   47.3564   35.0114   44.1100 H   0  0  0  0  0  0  0  0  0  0  0  0
   45.8816   36.4018   43.2569 H   0  0  0  0  0  0  0  0  0  0  0  0
   45.1191   32.1814   42.6939 H   0  0  0  0  0  0  0  0  0  0  0  0
   42.5545   35.1096   40.9767 H   0  0  0  0  0  0  0  0  0  0  0  0
   44.8853   34.6433   46.1351 H   0  0  0  0  0  0  0  0  0  0  0  0
   46.6955   30.9808   47.3810 H   0  0  0  0  0  0  0  0  0  0  0  0
   47.7225   31.6927   45.1295 H   0  0  0  0  0  0  0  0  0  0  0  0
   48.6119   32.8292   43.8101 H   0  0  0  0  0  0  0  0  0  0  0  0
   47.2386   32.2583   42.7998 H   0  0  0  0  0  0  0  0  0  0  0  0
   48.7543   33.4206   39.9873 H   0  0  0  0  0  0  0  0  0  0  0  0
   48.1583   32.0356   40.9114 H   0  0  0  0  0  0  0  0  0  0  0  0
   50.3002   31.5308   41.6456 H   0  0  0  0  0  0  0  0  0  0  0  0
   50.9112   32.7056   40.4839 H   0  0  0  0  0  0  0  0  0  0  0  0
   50.4773   32.9788   43.4420 H   0  0  0  0  0  0  0  0  0  0  0  0
   51.5925   33.8819   42.4365 H   0  0  0  0  0  0  0  0  0  0  0  0
   49.7887   35.3165   41.5771 H   0  0  0  0  0  0  0  0  0  0  0  0
   49.4085   35.1970   43.2742 H   0  0  0  0  0  0  0  0  0  0  0  0
  1  8  1  0
  2  3  2  0
  3  1  1  0
  4  3  1  0
  5  4  2  0
  6  5  1  0
  6  7  2  0
  7  2  1  0
  8 12  1  0
  8  9  2  0
  9 10  1  0
 11 10  2  0
 12 11  1  0
 13  1  1  0
 14 18  1  0
 14 13  1  0
 15 16  1  0
 15 14  1  0
 16 17  1  0
 18 17  1  0
  1 19  1  1
  2 20  1  0
  4 21  1  0
  6 22  1  0
  9 23  1  0
 11 24  1  0
 12 25  1  0
 13 26  1  0
 13 27  1  0
 15 28  1  0
 15 29  1  0
 16 30  1  0
 16 31  1  0
 17 32  1  0
 17 33  1  0
 18 34  1  0
 18 35  1  0
M  ISO  8  19   8  20  14  21  14  22  14  23  14  24  14  25   9  26   8
M  ISO  8  27   8  28  13  29  13  30  13  31  13  32  13  33  13  34  13
M  ISO  1  35  13
M  END
>  <minimizedAffinity>  (1) 
-4.404809

>  <minimizedRMSD>  (1) 
5.05995369

$$$$
