
     RDKit          3D

 34 37  0  0  1  0  0  0  0  0999 V2000
   46.8700   32.8900   43.9180 C   0  0  1  0  0  0  0  0  0  0  0  0
   45.3970   34.3110   45.2310 C   0  0  0  0  0  0  0  0  0  0  0  0
   46.0550   34.1310   44.0090 C   0  0  0  0  0  0  0  0  0  0  0  0
   45.8990   35.0640   43.0100 C   0  0  0  0  0  0  0  0  0  0  0  0
   45.1020   36.1070   43.3020 N   0  0  0  0  0  0  0  0  0  0  0  0
   44.4640   36.2970   44.4650 C   0  0  0  0  0  0  0  0  0  0  0  0
   44.6160   35.3820   45.4430 N   0  0  0  0  0  0  0  0  0  0  0  0
   48.0600   33.1600   43.1360 C   0  0  0  0  0  0  0  0  0  0  0  0
   48.6560   32.5190   42.0600 C   0  0  0  0  0  0  0  0  0  0  0  0
   49.7890   33.1930   41.7200 N   0  0  0  0  0  0  0  0  0  0  0  0
   49.9260   34.2390   42.5470 C   0  0  0  0  0  0  0  0  0  0  0  0
   48.8870   34.2220   43.4000 N   0  0  0  0  0  0  0  0  0  0  0  0
   47.1720   32.4510   45.3110 C   0  0  0  0  0  0  0  0  0  0  0  0
   46.9460   30.9580   45.4120 C   0  0  0  0  0  0  0  0  0  0  0  0
   47.6490   29.9430   44.8790 N   0  0  0  0  0  0  0  0  0  0  0  0
   47.0950   28.8100   45.2240 O   0  0  0  0  0  0  0  0  0  0  0  0
   46.0330   29.0420   45.9770 C   0  0  0  0  0  0  0  0  0  0  0  0
   45.9180   30.3950   46.1100 N   0  0  0  0  0  0  0  0  0  0  0  0
   45.1720   28.0620   46.5430 N   0  0  0  0  0  0  0  0  0  0  0  0
   45.2050   27.4540   47.7340 C   0  0  0  0  0  0  0  0  0  0  0  0
   44.1720   26.5970   47.8190 N   0  0  0  0  0  0  0  0  0  0  0  0
   43.4870   26.6660   46.6750 C   0  0  0  0  0  0  0  0  0  0  0  0
   44.1210   27.5750   45.9090 N   0  0  0  0  0  0  0  0  0  0  0  0
   46.3363   32.0752   43.4068 H   0  0  0  0  0  0  0  0  0  0  0  0
   45.5216   33.5643   46.0290 H   0  0  0  0  0  0  0  0  0  0  0  0
   46.3952   34.9631   42.0335 H   0  0  0  0  0  0  0  0  0  0  0  0
   43.8290   37.1820   44.6185 H   0  0  0  0  0  0  0  0  0  0  0  0
   48.2756   31.6144   41.5629 H   0  0  0  0  0  0  0  0  0  0  0  0
   50.7410   34.9776   42.5307 H   0  0  0  0  0  0  0  0  0  0  0  0
   48.7331   34.9119   44.1491 H   0  0  0  0  0  0  0  0  0  0  0  0
   48.2196   32.6835   45.5529 H   0  0  0  0  0  0  0  0  0  0  0  0
   46.5150   32.9771   46.0192 H   0  0  0  0  0  0  0  0  0  0  0  0
   45.9566   27.6272   48.5183 H   0  0  0  0  0  0  0  0  0  0  0  0
   42.5850   26.0946   46.4107 H   0  0  0  0  0  0  0  0  0  0  0  0
  1  3  1  0
  1 13  1  0
  2  7  2  0
  3  2  1  0
  4  5  1  0
  4  3  2  0
  5  6  2  0
  6  7  1  0
  8 12  1  0
  8  1  1  0
  9  8  2  0
 10  9  1  0
 10 11  2  0
 11 12  1  0
 13 14  1  0
 14 18  1  0
 15 16  1  0
 15 14  2  0
 16 17  1  0
 17 18  2  0
 17 19  1  0
 19 20  1  0
 20 21  2  0
 22 21  1  0
 23 19  1  0
 23 22  2  0
  1 24  1  6
  2 25  1  0
  4 26  1  0
  6 27  1  0
  9 28  1  0
 11 29  1  0
 12 30  1  0
 13 31  1  0
 13 32  1  0
 20 33  1  0
 22 34  1  0
M  ISO  8  24   8  25  14  26  14  27  14  28  14  29  14  30   9  31   8
M  ISO  3  32   8  33  14  34  14
M  END
>  <minimizedAffinity>  (1) 
-5.0392251

>  <minimizedRMSD>  (1) 
3.57807112

$$$$
