
     RDKit          3D

 35 38  0  0  1  0  0  0  0  0999 V2000
   46.5930   33.1040   43.7900 C   0  0  1  0  0  0  0  0  0  0  0  0
   44.9140   34.8490   43.5770 C   0  0  0  0  0  0  0  0  0  0  0  0
   45.6570   33.8640   42.9170 C   0  0  0  0  0  0  0  0  0  0  0  0
   45.4690   33.6600   41.5730 C   0  0  0  0  0  0  0  0  0  0  0  0
   44.5600   34.4440   40.9760 N   0  0  0  0  0  0  0  0  0  0  0  0
   43.8350   35.3990   41.5910 C   0  0  0  0  0  0  0  0  0  0  0  0
   44.0190   35.6000   42.9120 N   0  0  0  0  0  0  0  0  0  0  0  0
   47.9340   33.2110   43.2520 C   0  0  0  0  0  0  0  0  0  0  0  0
   48.8170   32.2850   42.7150 C   0  0  0  0  0  0  0  0  0  0  0  0
   49.9710   32.9260   42.3740 N   0  0  0  0  0  0  0  0  0  0  0  0
   49.8430   34.2200   42.6780 C   0  0  0  0  0  0  0  0  0  0  0  0
   48.6190   34.3990   43.2070 N   0  0  0  0  0  0  0  0  0  0  0  0
   46.4700   33.6630   45.1660 C   0  0  0  0  0  0  0  0  0  0  0  0
   46.6390   32.5590   46.1740 C   0  0  0  0  0  0  0  0  0  0  0  0
   47.2000   32.5550   47.3900 N   0  0  0  0  0  0  0  0  0  0  0  0
   47.1220   31.3750   47.9090 O   0  0  0  0  0  0  0  0  0  0  0  0
   46.5160   30.5570   47.0730 C   0  0  0  0  0  0  0  0  0  0  0  0
   46.2060   31.2970   45.9700 N   0  0  0  0  0  0  0  0  0  0  0  0
   46.2350   29.1750   47.2670 N   0  0  0  0  0  0  0  0  0  0  0  0
   45.0650   28.6870   47.7180 C   0  0  0  0  0  0  0  0  0  0  0  0
   45.2670   27.3040   47.7400 C   0  0  0  0  0  0  0  0  0  0  0  0
   46.5200   27.0040   47.3130 N   0  0  0  0  0  0  0  0  0  0  0  0
   47.1110   28.1860   47.0210 C   0  0  0  0  0  0  0  0  0  0  0  0
   46.3534   32.0311   43.8286 H   0  0  0  0  0  0  0  0  0  0  0  0
   45.0643   35.0110   44.6546 H   0  0  0  0  0  0  0  0  0  0  0  0
   46.0324   32.8962   41.0169 H   0  0  0  0  0  0  0  0  0  0  0  0
   43.1081   36.0022   41.0273 H   0  0  0  0  0  0  0  0  0  0  0  0
   48.6186   31.2108   42.5857 H   0  0  0  0  0  0  0  0  0  0  0  0
   50.6027   35.0003   42.5235 H   0  0  0  0  0  0  0  0  0  0  0  0
   48.2476   35.3027   43.5331 H   0  0  0  0  0  0  0  0  0  0  0  0
   47.2479   34.4248   45.3230 H   0  0  0  0  0  0  0  0  0  0  0  0
   45.4774   34.1212   45.2877 H   0  0  0  0  0  0  0  0  0  0  0  0
   44.1612   29.2456   48.0027 H   0  0  0  0  0  0  0  0  0  0  0  0
   44.5175   26.5644   48.0580 H   0  0  0  0  0  0  0  0  0  0  0  0
   48.1367   28.3155   46.6452 H   0  0  0  0  0  0  0  0  0  0  0  0
  1 13  1  0
  3  2  2  0
  3  1  1  0
  4  3  1  0
  5  4  2  0
  5  6  1  0
  6  7  2  0
  7  2  1  0
  8  1  1  0
  9  8  2  0
 10 11  2  0
 10  9  1  0
 11 12  1  0
 12  8  1  0
 13 14  1  0
 14 15  2  0
 15 16  1  0
 17 19  1  0
 17 16  1  0
 18 14  1  0
 18 17  2  0
 19 20  1  0
 20 21  2  0
 22 21  1  0
 23 19  1  0
 23 22  2  0
  1 24  1  1
  2 25  1  0
  4 26  1  0
  6 27  1  0
  9 28  1  0
 11 29  1  0
 12 30  1  0
 13 31  1  0
 13 32  1  0
 20 33  1  0
 21 34  1  0
 23 35  1  0
M  ISO  8  24   8  25  14  26  14  27  14  28  14  29  14  30   9  31   8
M  ISO  4  32   8  33  14  34  14  35  14
M  END
>  <minimizedAffinity>  (1) 
-5.04859257

>  <minimizedRMSD>  (1) 
3.38717365

$$$$
