
     RDKit          3D

 34 37  0  0  1  0  0  0  0  0999 V2000
   46.8530   32.8570   43.9400 C   0  0  1  0  0  0  0  0  0  0  0  0
   45.3930   34.3010   45.2440 C   0  0  0  0  0  0  0  0  0  0  0  0
   46.0520   34.1050   44.0250 C   0  0  0  0  0  0  0  0  0  0  0  0
   45.9100   35.0320   43.0190 C   0  0  0  0  0  0  0  0  0  0  0  0
   45.1250   36.0860   43.2910 N   0  0  0  0  0  0  0  0  0  0  0  0
   44.4810   36.2950   44.4560 C   0  0  0  0  0  0  0  0  0  0  0  0
   44.6210   35.3860   45.4400 N   0  0  0  0  0  0  0  0  0  0  0  0
   48.0380   33.1020   43.1440 C   0  0  0  0  0  0  0  0  0  0  0  0
   48.6130   32.4540   42.0600 C   0  0  0  0  0  0  0  0  0  0  0  0
   49.7570   33.1120   41.7120 N   0  0  0  0  0  0  0  0  0  0  0  0
   49.9180   34.1540   42.5450 C   0  0  0  0  0  0  0  0  0  0  0  0
   48.8860   34.1490   43.4060 N   0  0  0  0  0  0  0  0  0  0  0  0
   47.1600   32.4200   45.3350 C   0  0  0  0  0  0  0  0  0  0  0  0
   46.5170   31.0750   45.5720 C   0  0  0  0  0  0  0  0  0  0  0  0
   46.7420   30.1700   46.5470 N   0  0  0  0  0  0  0  0  0  0  0  0
   45.9530   29.1380   46.3600 O   0  0  0  0  0  0  0  0  0  0  0  0
   45.2170   29.3310   45.2980 C   0  0  0  0  0  0  0  0  0  0  0  0
   45.5430   30.5410   44.7740 N   0  0  0  0  0  0  0  0  0  0  0  0
   44.2080   28.4570   44.7160 C   0  0  0  0  0  0  0  0  0  0  0  0
   42.9370   28.4190   45.4220 C   0  0  0  0  0  0  0  0  0  0  0  0
   41.9230   27.2190   44.4000 S   0  0  0  0  0  0  0  0  0  0  0  0
   43.3990   27.0030   43.2270 C   0  0  0  0  0  0  0  0  0  0  0  0
   44.2010   27.6710   43.6550 N   0  0  0  0  0  0  0  0  0  0  0  0
   46.3044   32.0452   43.4399 H   0  0  0  0  0  0  0  0  0  0  0  0
   45.5071   33.5610   46.0499 H   0  0  0  0  0  0  0  0  0  0  0  0
   46.4113   34.9161   42.0468 H   0  0  0  0  0  0  0  0  0  0  0  0
   43.8550   37.1879   44.6002 H   0  0  0  0  0  0  0  0  0  0  0  0
   48.2128   31.5579   41.5632 H   0  0  0  0  0  0  0  0  0  0  0  0
   50.7446   34.8795   42.5257 H   0  0  0  0  0  0  0  0  0  0  0  0
   48.7499   34.8374   44.1600 H   0  0  0  0  0  0  0  0  0  0  0  0
   48.2491   32.3382   45.4663 H   0  0  0  0  0  0  0  0  0  0  0  0
   46.7682   33.1551   46.0534 H   0  0  0  0  0  0  0  0  0  0  0  0
   42.6429   28.9616   46.3326 H   0  0  0  0  0  0  0  0  0  0  0  0
   43.4591   26.3685   42.3305 H   0  0  0  0  0  0  0  0  0  0  0  0
  1  3  1  0
  1 13  1  0
  2  7  2  0
  3  2  1  0
  4  5  1  0
  4  3  2  0
  5  6  2  0
  6  7  1  0
  8 12  1  0
  8  1  1  0
  9  8  2  0
 10  9  1  0
 10 11  2  0
 11 12  1  0
 13 14  1  0
 14 15  2  0
 16 15  1  0
 17 16  1  0
 18 17  2  0
 18 14  1  0
 19 17  1  0
 19 20  2  0
 21 20  1  0
 22 23  2  0
 22 21  1  0
 23 19  1  0
  1 24  1  6
  2 25  1  0
  4 26  1  0
  6 27  1  0
  9 28  1  0
 11 29  1  0
 12 30  1  0
 13 31  1  0
 13 32  1  0
 20 33  1  0
 22 34  1  0
M  ISO  8  24   8  25  14  26  14  27  14  28  14  29  14  30   9  31   8
M  ISO  3  32   8  33  14  34  14
M  END
>  <minimizedAffinity>  (1) 
-4.61648893

>  <minimizedRMSD>  (1) 
4.21548748

$$$$
