
     RDKit          3D

 35 38  0  0  1  0  0  0  0  0999 V2000
   45.9900   32.7530   44.9470 C   0  0  1  0  0  0  0  0  0  0  0  0
   44.8880   34.8810   45.3520 C   0  0  0  0  0  0  0  0  0  0  0  0
   45.6320   34.1090   44.4530 C   0  0  0  0  0  0  0  0  0  0  0  0
   45.9570   34.6280   43.2260 C   0  0  0  0  0  0  0  0  0  0  0  0
   45.5250   35.8740   42.9740 N   0  0  0  0  0  0  0  0  0  0  0  0
   44.8060   36.6320   43.8280 C   0  0  0  0  0  0  0  0  0  0  0  0
   44.4920   36.1250   45.0200 N   0  0  0  0  0  0  0  0  0  0  0  0
   46.7260   32.0530   43.9140 C   0  0  0  0  0  0  0  0  0  0  0  0
   46.3600   31.1340   42.9430 C   0  0  0  0  0  0  0  0  0  0  0  0
   47.4710   30.7710   42.2360 N   0  0  0  0  0  0  0  0  0  0  0  0
   48.5220   31.4370   42.7350 C   0  0  0  0  0  0  0  0  0  0  0  0
   48.0790   32.2060   43.7420 N   0  0  0  0  0  0  0  0  0  0  0  0
   46.7680   32.9240   46.2070 C   0  0  0  0  0  0  0  0  0  0  0  0
   46.3320   31.8780   47.1990 C   0  0  0  0  0  0  0  0  0  0  0  0
   46.3970   31.8790   48.5420 N   0  0  0  0  0  0  0  0  0  0  0  0
   45.9010   30.7610   49.0000 O   0  0  0  0  0  0  0  0  0  0  0  0
   45.5050   30.0120   48.0000 C   0  0  0  0  0  0  0  0  0  0  0  0
   45.7600   30.6850   46.8390 N   0  0  0  0  0  0  0  0  0  0  0  0
   44.8740   28.6450   48.0560 C   0  0  0  0  0  0  0  0  0  0  0  0
   44.6010   27.9970   46.7640 C   0  0  0  0  0  0  0  0  0  0  0  0
   45.7150   27.4580   47.5800 C   0  0  0  0  0  0  0  0  0  0  0  0
   45.1032   32.1423   45.1718 H   0  0  0  0  0  0  0  0  0  0  0  0
   44.6245   34.4690   46.3373 H   0  0  0  0  0  0  0  0  0  0  0  0
   46.5393   34.0553   42.4892 H   0  0  0  0  0  0  0  0  0  0  0  0
   44.4860   37.6461   43.5466 H   0  0  0  0  0  0  0  0  0  0  0  0
   45.3408   30.7582   42.7699 H   0  0  0  0  0  0  0  0  0  0  0  0
   49.5615   31.3660   42.3823 H   0  0  0  0  0  0  0  0  0  0  0  0
   48.6740   32.8269   44.3089 H   0  0  0  0  0  0  0  0  0  0  0  0
   47.8413   32.8076   45.9962 H   0  0  0  0  0  0  0  0  0  0  0  0
   46.5879   33.9269   46.6215 H   0  0  0  0  0  0  0  0  0  0  0  0
   44.2952   28.8733   48.9631 H   0  0  0  0  0  0  0  0  0  0  0  0
   44.8223   28.5337   45.8297 H   0  0  0  0  0  0  0  0  0  0  0  0
   43.7044   27.5521   46.3076 H   0  0  0  0  0  0  0  0  0  0  0  0
   45.6190   26.4783   48.0709 H   0  0  0  0  0  0  0  0  0  0  0  0
   46.7863   27.2662   47.4204 H   0  0  0  0  0  0  0  0  0  0  0  0
  1 13  1  0
  3  1  1  0
  3  2  2  0
  4  3  1  0
  5  4  2  0
  5  6  1  0
  6  7  2  0
  7  2  1  0
  8  1  1  0
  9  8  2  0
 10 11  2  0
 10  9  1  0
 11 12  1  0
 12  8  1  0
 13 14  1  0
 14 15  2  0
 15 16  1  0
 17 19  1  0
 17 16  1  0
 18 14  1  0
 18 17  2  0
 20 21  1  0
 20 19  1  0
 21 19  1  0
  1 22  1  1
  2 23  1  0
  4 24  1  0
  6 25  1  0
  9 26  1  0
 11 27  1  0
 12 28  1  0
 13 29  1  0
 13 30  1  0
 19 31  1  0
 20 32  1  0
 20 33  1  0
 21 34  1  0
 21 35  1  0
M  ISO  8  22   8  23  14  24  14  25  14  26  14  27  14  28   9  29   8
M  ISO  6  30   8  31  13  32  13  33  13  34  13  35  13
M  END
>  <minimizedAffinity>  (1) 
-4.4219861

>  <minimizedRMSD>  (1) 
1.88696504

$$$$
