
     RDKit          3D

 42 45  0  0  1  0  0  0  0  0999 V2000
   44.5510   35.7890   44.9070 C   0  0  0  0  0  0  0  0  0  0  0  0
   45.2060   35.7910   43.6300 C   0  0  0  0  0  0  0  0  0  0  0  0
   46.0620   34.7570   43.3560 C   0  0  0  0  0  0  0  0  0  0  0  0
   46.2390   33.7930   44.3140 N   0  0  0  0  0  0  0  0  0  0  0  0
   45.6090   33.8300   45.4950 C   0  0  0  0  0  0  0  0  0  0  0  0
   44.7810   34.8090   45.7830 N   0  0  0  0  0  0  0  0  0  0  0  0
   45.8550   32.7550   46.4720 N   0  0  0  0  0  0  0  0  0  0  0  0
   45.1560   32.7800   47.7320 C   0  0  0  0  0  0  0  0  0  0  0  0
   46.0260   32.2610   48.8570 C   0  0  0  0  0  0  0  0  0  0  0  0
   47.4570   32.2410   48.4360 C   0  0  0  0  0  0  0  0  0  0  0  0
   47.5570   31.2070   47.3030 C   0  0  0  0  0  0  0  0  0  0  0  0
   46.8120   31.6840   46.1330 C   0  0  1  0  0  0  0  0  0  0  0  0
   46.1400   30.6020   45.3580 C   0  0  0  0  0  0  0  0  0  0  0  0
   45.3890   30.7090   44.2710 N   0  0  0  0  0  0  0  0  0  0  0  0
   44.9660   29.5380   43.8570 O   0  0  0  0  0  0  0  0  0  0  0  0
   45.4590   28.6450   44.7010 C   0  0  0  0  0  0  0  0  0  0  0  0
   46.1920   29.2570   45.6460 N   0  0  0  0  0  0  0  0  0  0  0  0
   45.1100   26.9040   44.4800 S   0  0  0  0  0  0  0  0  0  0  0  0
   44.0660   26.4340   45.8700 C   0  0  0  0  0  0  0  0  0  0  0  0
   44.0430   26.1160   47.1820 N   0  0  0  0  0  0  0  0  0  0  0  0
   42.8280   25.8670   47.5520 O   0  0  0  0  0  0  0  0  0  0  0  0
   41.9990   26.0000   46.5420 C   0  0  0  0  0  0  0  0  0  0  0  0
   42.7680   26.3530   45.4910 N   0  0  0  0  0  0  0  0  0  0  0  0
   40.5050   25.7910   46.5920 C   0  0  0  0  0  0  0  0  0  0  0  0
   40.0880   24.6380   45.7460 C   0  0  0  0  0  0  0  0  0  0  0  0
   43.8549   36.6006   45.1653 H   0  0  0  0  0  0  0  0  0  0  0  0
   45.0274   36.5929   42.8985 H   0  0  0  0  0  0  0  0  0  0  0  0
   46.5924   34.7020   42.3939 H   0  0  0  0  0  0  0  0  0  0  0  0
   44.8604   33.8154   47.9567 H   0  0  0  0  0  0  0  0  0  0  0  0
   44.2720   32.1305   47.6503 H   0  0  0  0  0  0  0  0  0  0  0  0
   45.9146   32.9157   49.7339 H   0  0  0  0  0  0  0  0  0  0  0  0
   45.7124   31.2374   49.1096 H   0  0  0  0  0  0  0  0  0  0  0  0
   47.7617   33.2340   48.0739 H   0  0  0  0  0  0  0  0  0  0  0  0
   48.1180   31.9803   49.2757 H   0  0  0  0  0  0  0  0  0  0  0  0
   48.6131   31.0635   47.0308 H   0  0  0  0  0  0  0  0  0  0  0  0
   47.1306   30.2515   47.6424 H   0  0  0  0  0  0  0  0  0  0  0  0
   47.5823   32.1076   45.4718 H   0  0  0  0  0  0  0  0  0  0  0  0
   40.2054   25.5979   47.6327 H   0  0  0  0  0  0  0  0  0  0  0  0
   40.0159   26.6977   46.2063 H   0  0  0  0  0  0  0  0  0  0  0  0
   39.7850   23.8003   46.3914 H   0  0  0  0  0  0  0  0  0  0  0  0
   39.2409   24.9366   45.1110 H   0  0  0  0  0  0  0  0  0  0  0  0
   40.9301   24.3257   45.1110 H   0  0  0  0  0  0  0  0  0  0  0  0
  1  6  2  0
  2  1  1  0
  3  2  2  0
  3  4  1  0
  4  5  2  0
  5  6  1  0
  5  7  1  0
  7  8  1  0
  8  9  1  0
 10  9  1  0
 11 10  1  0
 12  7  1  0
 12 11  1  0
 13 17  1  0
 13 12  1  0
 14 13  2  0
 15 14  1  0
 15 16  1  0
 16 17  2  0
 18 16  1  0
 18 19  1  0
 19 20  2  0
 20 21  1  0
 22 24  1  0
 22 21  1  0
 23 19  1  0
 23 22  2  0
 25 24  1  0
  1 26  1  0
  2 27  1  0
  3 28  1  0
  8 29  1  0
  8 30  1  0
  9 31  1  0
  9 32  1  0
 10 33  1  0
 10 34  1  0
 11 35  1  0
 11 36  1  0
 12 37  1  6
 24 38  1  0
 24 39  1  0
 25 40  1  0
 25 41  1  0
 25 42  1  0
M  ISO  8  26  14  27  14  28  14  29  13  30  13  31  13  32  13  33  13
M  ISO  8  34  13  35  13  36  13  37  13  38   8  39   8  40   8  41   8
M  ISO  1  42   8
M  END
>  <minimizedAffinity>  (1) 
-5.71266127

>  <minimizedRMSD>  (1) 
0.947132468

$$$$
