
     RDKit          3D

 35 38  0  0  1  0  0  0  0  0999 V2000
   46.5010   32.9790   44.1200 C   0  0  1  0  0  0  0  0  0  0  0  0
   45.0120   34.9010   44.0040 C   0  0  0  0  0  0  0  0  0  0  0  0
   45.4960   33.7640   43.3490 C   0  0  0  0  0  0  0  0  0  0  0  0
   45.0320   33.4530   42.0970 C   0  0  0  0  0  0  0  0  0  0  0  0
   44.1200   34.2880   41.5770 N   0  0  0  0  0  0  0  0  0  0  0  0
   43.6400   35.3900   42.1920 C   0  0  0  0  0  0  0  0  0  0  0  0
   44.0940   35.6860   43.4040 N   0  0  0  0  0  0  0  0  0  0  0  0
   47.7840   33.0690   43.4590 C   0  0  0  0  0  0  0  0  0  0  0  0
   48.6140   32.1310   42.8640 C   0  0  0  0  0  0  0  0  0  0  0  0
   49.7340   32.7590   42.4050 N   0  0  0  0  0  0  0  0  0  0  0  0
   49.6330   34.0660   42.6950 C   0  0  0  0  0  0  0  0  0  0  0  0
   48.4640   34.2520   43.3270 N   0  0  0  0  0  0  0  0  0  0  0  0
   46.5210   33.5270   45.5080 C   0  0  0  0  0  0  0  0  0  0  0  0
   46.6720   32.3790   46.4780 C   0  0  0  0  0  0  0  0  0  0  0  0
   47.2490   32.3660   47.6990 N   0  0  0  0  0  0  0  0  0  0  0  0
   47.1570   31.1610   48.1940 O   0  0  0  0  0  0  0  0  0  0  0  0
   46.5410   30.3740   47.3460 C   0  0  0  0  0  0  0  0  0  0  0  0
   46.2200   31.1200   46.2490 N   0  0  0  0  0  0  0  0  0  0  0  0
   46.2220   28.9540   47.4880 C   0  0  0  0  0  0  0  0  0  0  0  0
   45.0270   28.3500   47.8180 C   0  0  0  0  0  0  0  0  0  0  0  0
   45.2420   26.9900   47.8200 C   0  0  0  0  0  0  0  0  0  0  0  0
   46.5420   26.7900   47.4970 N   0  0  0  0  0  0  0  0  0  0  0  0
   47.1280   27.9650   47.2980 N   0  0  0  0  0  0  0  0  0  0  0  0
   46.2480   31.9096   44.1697 H   0  0  0  0  0  0  0  0  0  0  0  0
   45.3802   35.1551   45.0089 H   0  0  0  0  0  0  0  0  0  0  0  0
   45.3878   32.5679   41.5493 H   0  0  0  0  0  0  0  0  0  0  0  0
   42.8904   36.0276   41.7004 H   0  0  0  0  0  0  0  0  0  0  0  0
   48.4032   31.0549   42.7765 H   0  0  0  0  0  0  0  0  0  0  0  0
   50.3741   34.8434   42.4576 H   0  0  0  0  0  0  0  0  0  0  0  0
   48.1230   35.1623   43.6676 H   0  0  0  0  0  0  0  0  0  0  0  0
   47.3673   34.2206   45.6203 H   0  0  0  0  0  0  0  0  0  0  0  0
   45.5859   34.0696   45.7110 H   0  0  0  0  0  0  0  0  0  0  0  0
   44.0778   28.8602   48.0387 H   0  0  0  0  0  0  0  0  0  0  0  0
   44.4973   26.2116   48.0423 H   0  0  0  0  0  0  0  0  0  0  0  0
   47.0030   25.8723   47.4182 H   0  0  0  0  0  0  0  0  0  0  0  0
  1 13  1  0
  3  2  2  0
  3  1  1  0
  4  3  1  0
  5  4  2  0
  5  6  1  0
  6  7  2  0
  7  2  1  0
  8  1  1  0
  9  8  2  0
 10 11  2  0
 10  9  1  0
 11 12  1  0
 12  8  1  0
 13 14  1  0
 14 15  2  0
 15 16  1  0
 17 19  1  0
 17 16  1  0
 18 14  1  0
 18 17  2  0
 19 20  1  0
 20 21  2  0
 22 21  1  0
 23 19  2  0
 23 22  1  0
  1 24  1  1
  2 25  1  0
  4 26  1  0
  6 27  1  0
  9 28  1  0
 11 29  1  0
 12 30  1  0
 13 31  1  0
 13 32  1  0
 20 33  1  0
 21 34  1  0
 22 35  1  0
M  ISO  8  24   8  25  14  26  14  27  14  28  14  29  14  30   9  31   8
M  ISO  4  32   8  33  14  34  14  35   9
M  END
>  <minimizedAffinity>  (1) 
-4.78563356

>  <minimizedRMSD>  (1) 
3.24801087

$$$$
