
     RDKit          3D

 35 38  0  0  1  0  0  0  0  0999 V2000
   46.0440   32.2700   44.7400 C   0  0  1  0  0  0  0  0  0  0  0  0
   45.2020   34.4400   45.4480 C   0  0  0  0  0  0  0  0  0  0  0  0
   45.3920   33.5590   44.3780 C   0  0  0  0  0  0  0  0  0  0  0  0
   44.9700   33.9200   43.1270 C   0  0  0  0  0  0  0  0  0  0  0  0
   44.3910   35.1230   43.0170 N   0  0  0  0  0  0  0  0  0  0  0  0
   44.1980   35.9850   44.0340 C   0  0  0  0  0  0  0  0  0  0  0  0
   44.6130   35.6310   45.2660 N   0  0  0  0  0  0  0  0  0  0  0  0
   47.0590   31.9600   43.7540 C   0  0  0  0  0  0  0  0  0  0  0  0
   47.2670   30.8910   42.8930 C   0  0  0  0  0  0  0  0  0  0  0  0
   48.4120   31.1090   42.1870 N   0  0  0  0  0  0  0  0  0  0  0  0
   48.9330   32.2850   42.5790 C   0  0  0  0  0  0  0  0  0  0  0  0
   48.1210   32.7950   43.5180 N   0  0  0  0  0  0  0  0  0  0  0  0
   46.5800   32.4070   46.1210 C   0  0  0  0  0  0  0  0  0  0  0  0
   46.5980   31.0460   46.7760 C   0  0  0  0  0  0  0  0  0  0  0  0
   47.5920   30.4090   47.4200 N   0  0  0  0  0  0  0  0  0  0  0  0
   47.1680   29.2470   47.8280 O   0  0  0  0  0  0  0  0  0  0  0  0
   45.9160   29.0840   47.4790 C   0  0  0  0  0  0  0  0  0  0  0  0
   45.5150   30.2040   46.8080 N   0  0  0  0  0  0  0  0  0  0  0  0
   45.0840   27.9170   47.7500 C   0  0  0  0  0  0  0  0  0  0  0  0
   44.2970   27.2550   46.8320 C   0  0  0  0  0  0  0  0  0  0  0  0
   43.6570   26.2140   47.4180 N   0  0  0  0  0  0  0  0  0  0  0  0
   44.0670   26.2480   48.7190 C   0  0  0  0  0  0  0  0  0  0  0  0
   44.9300   27.2750   48.9220 N   0  0  0  0  0  0  0  0  0  0  0  0
   45.3375   31.4269   44.7348 H   0  0  0  0  0  0  0  0  0  0  0  0
   45.5409   34.1514   46.4539 H   0  0  0  0  0  0  0  0  0  0  0  0
   45.0994   33.2577   42.2583 H   0  0  0  0  0  0  0  0  0  0  0  0
   43.7121   36.9568   43.8624 H   0  0  0  0  0  0  0  0  0  0  0  0
   46.6138   30.0112   42.7964 H   0  0  0  0  0  0  0  0  0  0  0  0
   49.8569   32.7454   42.1991 H   0  0  0  0  0  0  0  0  0  0  0  0
   48.2749   33.6936   43.9974 H   0  0  0  0  0  0  0  0  0  0  0  0
   47.6022   32.8116   46.0819 H   0  0  0  0  0  0  0  0  0  0  0  0
   45.9441   33.0916   46.7014 H   0  0  0  0  0  0  0  0  0  0  0  0
   44.2018   27.5329   45.7719 H   0  0  0  0  0  0  0  0  0  0  0  0
   43.7425   25.5403   49.4961 H   0  0  0  0  0  0  0  0  0  0  0  0
   45.3853   27.5191   49.8131 H   0  0  0  0  0  0  0  0  0  0  0  0
  1 13  1  0
  3  1  1  0
  3  2  2  0
  4  3  1  0
  5  4  2  0
  5  6  1  0
  6  7  2  0
  7  2  1  0
  8  1  1  0
  9  8  2  0
 10 11  2  0
 10  9  1  0
 11 12  1  0
 12  8  1  0
 13 14  1  0
 14 18  1  0
 14 15  2  0
 15 16  1  0
 17 19  1  0
 17 16  1  0
 18 17  2  0
 19 23  1  0
 20 21  1  0
 20 19  2  0
 21 22  2  0
 22 23  1  0
  1 24  1  1
  2 25  1  0
  4 26  1  0
  6 27  1  0
  9 28  1  0
 11 29  1  0
 12 30  1  0
 13 31  1  0
 13 32  1  0
 20 33  1  0
 22 34  1  0
 23 35  1  0
M  ISO  8  24   8  25  14  26  14  27  14  28  14  29  14  30   9  31   8
M  ISO  4  32   8  33  14  34  14  35   9
M  END
>  <minimizedAffinity>  (1) 
-4.59384012

>  <minimizedRMSD>  (1) 
2.72830367

$$$$
