
     RDKit          3D

 44 47  0  0  1  0  0  0  0  0999 V2000
   46.1330   32.1310   44.5840 C   0  0  1  0  0  0  0  0  0  0  0  0
   45.3520   34.2050   45.5840 C   0  0  0  0  0  0  0  0  0  0  0  0
   45.5240   33.4760   44.4010 C   0  0  0  0  0  0  0  0  0  0  0  0
   45.1250   34.0130   43.2060 C   0  0  0  0  0  0  0  0  0  0  0  0
   44.5800   35.2400   43.2560 N   0  0  0  0  0  0  0  0  0  0  0  0
   44.4040   35.9610   44.3770 C   0  0  0  0  0  0  0  0  0  0  0  0
   44.7950   35.4320   45.5520 N   0  0  0  0  0  0  0  0  0  0  0  0
   46.9990   31.8400   43.4600 C   0  0  0  0  0  0  0  0  0  0  0  0
   46.8610   31.0360   42.3380 C   0  0  0  0  0  0  0  0  0  0  0  0
   48.0060   31.1100   41.6020 N   0  0  0  0  0  0  0  0  0  0  0  0
   48.8590   31.9370   42.2270 C   0  0  0  0  0  0  0  0  0  0  0  0
   48.2550   32.3780   43.3460 N   0  0  0  0  0  0  0  0  0  0  0  0
   46.8530   32.1350   45.8910 C   0  0  0  0  0  0  0  0  0  0  0  0
   46.4460   30.9150   46.6830 C   0  0  0  0  0  0  0  0  0  0  0  0
   46.2310   30.7660   48.0010 N   0  0  0  0  0  0  0  0  0  0  0  0
   45.8920   29.5370   48.2560 O   0  0  0  0  0  0  0  0  0  0  0  0
   45.8710   28.8360   47.1250 C   0  0  0  0  0  0  0  0  0  0  0  0
   46.2200   29.7010   46.1330 N   0  0  0  0  0  0  0  0  0  0  0  0
   45.5150   27.3900   47.1180 C   0  0  0  0  0  0  0  0  0  0  0  0
   44.6850   26.9940   48.2980 C   0  0  0  0  0  0  0  0  0  0  0  0
   43.8750   25.7570   47.9290 C   0  0  0  0  0  0  0  0  0  0  0  0
   42.7770   26.0570   46.9420 C   0  0  0  0  0  0  0  0  0  0  0  0
   43.2390   27.2880   46.1510 C   0  0  0  0  0  0  0  0  0  0  0  0
   44.7070   27.0390   45.8690 C   0  0  0  0  0  0  0  0  0  0  0  0
   45.3753   31.3340   44.6101 H   0  0  0  0  0  0  0  0  0  0  0  0
   45.6729   33.7744   46.5440 H   0  0  0  0  0  0  0  0  0  0  0  0
   45.2442   33.4694   42.2571 H   0  0  0  0  0  0  0  0  0  0  0  0
   43.9501   36.9621   44.3353 H   0  0  0  0  0  0  0  0  0  0  0  0
   45.9738   30.4374   42.0841 H   0  0  0  0  0  0  0  0  0  0  0  0
   49.8697   32.2058   41.8860 H   0  0  0  0  0  0  0  0  0  0  0  0
   48.6777   33.0293   44.0228 H   0  0  0  0  0  0  0  0  0  0  0  0
   47.9384   32.1139   45.7137 H   0  0  0  0  0  0  0  0  0  0  0  0
   46.5956   33.0447   46.4532 H   0  0  0  0  0  0  0  0  0  0  0  0
   46.4726   26.8494   47.1449 H   0  0  0  0  0  0  0  0  0  0  0  0
   45.3397   26.7671   49.1523 H   0  0  0  0  0  0  0  0  0  0  0  0
   44.0096   27.8166   48.5756 H   0  0  0  0  0  0  0  0  0  0  0  0
   44.5522   25.0114   47.4869 H   0  0  0  0  0  0  0  0  0  0  0  0
   43.4029   25.3812   48.8487 H   0  0  0  0  0  0  0  0  0  0  0  0
   42.6281   25.2025   46.2655 H   0  0  0  0  0  0  0  0  0  0  0  0
   41.8196   26.2429   47.4508 H   0  0  0  0  0  0  0  0  0  0  0  0
   42.6741   27.3793   45.2116 H   0  0  0  0  0  0  0  0  0  0  0  0
   43.0759   28.2234   46.7064 H   0  0  0  0  0  0  0  0  0  0  0  0
   44.8602   25.9797   45.6152 H   0  0  0  0  0  0  0  0  0  0  0  0
   45.0360   27.6615   45.0239 H   0  0  0  0  0  0  0  0  0  0  0  0
  1 13  1  0
  3  1  1  0
  3  2  2  0
  4  5  2  0
  4  3  1  0
  5  6  1  0
  6  7  2  0
  7  2  1  0
  8  1  1  0
  9  8  2  0
 10 11  2  0
 10  9  1  0
 11 12  1  0
 12  8  1  0
 13 14  1  0
 14 15  2  0
 15 16  1  0
 17 16  1  0
 18 14  1  0
 18 17  2  0
 19 17  1  0
 19 20  1  0
 21 20  1  0
 22 21  1  0
 23 22  1  0
 24 23  1  0
 24 19  1  0
  1 25  1  1
  2 26  1  0
  4 27  1  0
  6 28  1  0
  9 29  1  0
 11 30  1  0
 12 31  1  0
 13 32  1  0
 13 33  1  0
 19 34  1  0
 20 35  1  0
 20 36  1  0
 21 37  1  0
 21 38  1  0
 22 39  1  0
 22 40  1  0
 23 41  1  0
 23 42  1  0
 24 43  1  0
 24 44  1  0
M  ISO  8  25   8  26  14  27  14  28  14  29  14  30  14  31   9  32   8
M  ISO  8  33   8  34  13  35  13  36  13  37  13  38  13  39  13  40  13
M  ISO  4  41  13  42  13  43  13  44  13
M  END
>  <minimizedAffinity>  (1) 
-4.67288685

>  <minimizedRMSD>  (1) 
3.50639153

$$$$
