
     RDKit          3D

 31 33  0  0  1  0  0  0  0  0999 V2000
   45.7120   32.6620   44.6520 C   0  0  1  0  0  0  0  0  0  0  0  0
   44.8370   34.9100   44.9730 C   0  0  0  0  0  0  0  0  0  0  0  0
   45.5810   34.0550   44.1530 C   0  0  0  0  0  0  0  0  0  0  0  0
   46.1010   34.5310   42.9800 C   0  0  0  0  0  0  0  0  0  0  0  0
   45.8510   35.8220   42.7030 N   0  0  0  0  0  0  0  0  0  0  0  0
   45.1440   36.6580   43.4700 C   0  0  0  0  0  0  0  0  0  0  0  0
   44.6300   36.1910   44.6270 N   0  0  0  0  0  0  0  0  0  0  0  0
   45.5070   31.7380   43.5570 C   0  0  0  0  0  0  0  0  0  0  0  0
   44.3960   31.3730   42.8100 C   0  0  0  0  0  0  0  0  0  0  0  0
   44.7720   30.4240   41.9010 N   0  0  0  0  0  0  0  0  0  0  0  0
   46.0840   30.1850   42.0580 C   0  0  0  0  0  0  0  0  0  0  0  0
   46.5280   30.9730   43.0510 N   0  0  0  0  0  0  0  0  0  0  0  0
   47.0500   32.5360   45.2920 C   0  0  0  0  0  0  0  0  0  0  0  0
   46.8620   32.2270   46.7610 C   0  0  0  0  0  0  0  0  0  0  0  0
   47.7470   32.2940   47.7730 N   0  0  0  0  0  0  0  0  0  0  0  0
   47.1670   31.9430   48.8840 O   0  0  0  0  0  0  0  0  0  0  0  0
   45.8970   31.6370   48.6470 C   0  0  0  0  0  0  0  0  0  0  0  0
   45.6980   31.8150   47.3090 N   0  0  0  0  0  0  0  0  0  0  0  0
   44.8920   31.1850   49.6670 C   0  0  0  0  0  0  0  0  0  0  0  0
   44.9499   32.4175   45.4066 H   0  0  0  0  0  0  0  0  0  0  0  0
   44.4156   34.5277   45.9144 H   0  0  0  0  0  0  0  0  0  0  0  0
   46.6894   33.8939   42.3033 H   0  0  0  0  0  0  0  0  0  0  0  0
   44.9849   37.7028   43.1649 H   0  0  0  0  0  0  0  0  0  0  0  0
   43.3810   31.7799   42.9296 H   0  0  0  0  0  0  0  0  0  0  0  0
   46.6872   29.4716   41.4773 H   0  0  0  0  0  0  0  0  0  0  0  0
   47.5014   30.9995   43.3867 H   0  0  0  0  0  0  0  0  0  0  0  0
   47.6138   31.7222   44.8125 H   0  0  0  0  0  0  0  0  0  0  0  0
   47.6088   33.4765   45.1770 H   0  0  0  0  0  0  0  0  0  0  0  0
   45.2891   31.3636   50.6772 H   0  0  0  0  0  0  0  0  0  0  0  0
   43.9569   31.7493   49.5355 H   0  0  0  0  0  0  0  0  0  0  0  0
   44.6937   30.1110   49.5355 H   0  0  0  0  0  0  0  0  0  0  0  0
  1 13  1  0
  3  1  1  0
  3  2  2  0
  4  3  1  0
  5  4  2  0
  5  6  1  0
  6  7  2  0
  7  2  1  0
  8  1  1  0
  9  8  2  0
 10 11  2  0
 10  9  1  0
 11 12  1  0
 12  8  1  0
 13 14  1  0
 14 18  1  0
 14 15  2  0
 15 16  1  0
 17 16  1  0
 17 19  1  0
 18 17  2  0
  1 20  1  1
  2 21  1  0
  4 22  1  0
  6 23  1  0
  9 24  1  0
 11 25  1  0
 12 26  1  0
 13 27  1  0
 13 28  1  0
 19 29  1  0
 19 30  1  0
 19 31  1  0
M  ISO  8  20   8  21  14  22  14  23  14  24  14  25  14  26   9  27   8
M  ISO  4  28   8  29   8  30   8  31   8
M  END
>  <minimizedAffinity>  (1) 
-4.26036835

>  <minimizedRMSD>  (1) 
1.20376194

$$$$
