
     RDKit          3D

 27 29  0  0  0  0  0  0  0  0999 V2000
   44.5890   35.6740   44.8550 C   0  0  0  0  0  0  0  0  0  0  0  0
   45.2220   35.6990   43.5830 C   0  0  0  0  0  0  0  0  0  0  0  0
   46.1300   34.6890   43.3130 C   0  0  0  0  0  0  0  0  0  0  0  0
   46.3210   33.7910   44.2800 N   0  0  0  0  0  0  0  0  0  0  0  0
   45.7530   33.7330   45.4770 C   0  0  0  0  0  0  0  0  0  0  0  0
   44.8660   34.7170   45.7390 N   0  0  0  0  0  0  0  0  0  0  0  0
   45.9030   32.8050   46.5660 C   0  0  0  0  0  0  0  0  0  0  0  0
   45.3590   32.9970   47.7810 N   0  0  0  0  0  0  0  0  0  0  0  0
   45.4790   32.1590   48.8140 C   0  0  0  0  0  0  0  0  0  0  0  0
   46.1750   31.0120   48.7300 N   0  0  0  0  0  0  0  0  0  0  0  0
   46.7630   30.7220   47.5520 C   0  0  0  0  0  0  0  0  0  0  0  0
   47.4780   29.5530   47.4560 C   0  0  0  0  0  0  0  0  0  0  0  0
   48.0960   29.2120   46.2730 C   0  0  0  0  0  0  0  0  0  0  0  0
   47.9580   30.1030   45.2090 C   0  0  0  0  0  0  0  0  0  0  0  0
   47.2400   31.2430   45.3620 C   0  0  0  0  0  0  0  0  0  0  0  0
   46.6050   31.6240   46.5230 C   0  0  0  0  0  0  0  0  0  0  0  0
   46.8380   34.6300   42.0150 C   0  0  0  0  0  0  0  0  0  0  0  0
   47.6450   35.7630   41.9970 F   0  0  0  0  0  0  0  0  0  0  0  0
   47.6240   33.5220   41.8620 F   0  0  0  0  0  0  0  0  0  0  0  0
   45.9420   34.7280   40.9600 F   0  0  0  0  0  0  0  0  0  0  0  0
   43.8599   36.4561   45.1132 H   0  0  0  0  0  0  0  0  0  0  0  0
   45.0007   36.4852   42.8461 H   0  0  0  0  0  0  0  0  0  0  0  0
   44.9917   32.4162   49.7660 H   0  0  0  0  0  0  0  0  0  0  0  0
   47.5574   28.8864   48.3274 H   0  0  0  0  0  0  0  0  0  0  0  0
   48.6717   28.2801   46.1722 H   0  0  0  0  0  0  0  0  0  0  0  0
   48.4333   29.8802   44.2423 H   0  0  0  0  0  0  0  0  0  0  0  0
   47.1587   31.9136   44.4938 H   0  0  0  0  0  0  0  0  0  0  0  0
  1  6  2  0
  2  1  1  0
  3  2  2  0
  3  4  1  0
  4  5  2  0
  5  6  1  0
  5  7  1  0
  7  8  2  0
  8  9  1  0
 10  9  2  0
 11 10  1  0
 12 11  2  0
 13 12  1  0
 14 15  1  0
 14 13  2  0
 15 16  2  0
 16  7  1  0
 16 11  1  0
 17  3  1  0
 18 17  1  0
 19 17  1  0
 20 17  1  0
  1 21  1  0
  2 22  1  0
  9 23  1  0
 12 24  1  0
 13 25  1  0
 14 26  1  0
 15 27  1  0
M  ISO  7  21  14  22  14  23  14  24  14  25  14  26  14  27  14
M  END
>  <minimizedAffinity>  (1) 
-5.88312006

>  <minimizedRMSD>  (1) 
1.83340645

$$$$
