
     RDKit          3D

 29 31  0  0  0  0  0  0  0  0999 V2000
   44.5170   36.0320   44.5160 C   0  0  0  0  0  0  0  0  0  0  0  0
   45.2850   35.9140   43.3360 C   0  0  0  0  0  0  0  0  0  0  0  0
   46.1660   34.8490   43.2510 C   0  0  0  0  0  0  0  0  0  0  0  0
   46.2040   34.0210   44.3100 N   0  0  0  0  0  0  0  0  0  0  0  0
   45.4810   34.1230   45.4300 C   0  0  0  0  0  0  0  0  0  0  0  0
   44.6440   35.1480   45.4940 N   0  0  0  0  0  0  0  0  0  0  0  0
   45.7840   33.0460   46.3650 C   0  0  0  0  0  0  0  0  0  0  0  0
   45.3140   33.0240   47.6600 C   0  0  0  0  0  0  0  0  0  0  0  0
   45.5690   32.0450   48.5650 C   0  0  0  0  0  0  0  0  0  0  0  0
   46.3470   30.9710   48.2240 C   0  0  0  0  0  0  0  0  0  0  0  0
   46.8490   30.9220   46.9580 C   0  0  0  0  0  0  0  0  0  0  0  0
   47.6280   29.8470   46.6180 C   0  0  0  0  0  0  0  0  0  0  0  0
   48.1690   29.7300   45.3580 C   0  0  0  0  0  0  0  0  0  0  0  0
   47.8860   30.7520   44.4560 C   0  0  0  0  0  0  0  0  0  0  0  0
   47.1070   31.8050   44.8360 C   0  0  0  0  0  0  0  0  0  0  0  0
   46.5570   31.9430   46.0830 C   0  0  0  0  0  0  0  0  0  0  0  0
   47.0120   34.6510   42.0390 C   0  0  0  0  0  0  0  0  0  0  0  0
   47.8180   35.7590   41.9750 F   0  0  0  0  0  0  0  0  0  0  0  0
   47.7940   33.5170   42.1200 F   0  0  0  0  0  0  0  0  0  0  0  0
   46.2260   34.5890   40.8970 F   0  0  0  0  0  0  0  0  0  0  0  0
   43.8073   36.8655   44.6234 H   0  0  0  0  0  0  0  0  0  0  0  0
   45.1868   36.6405   42.5159 H   0  0  0  0  0  0  0  0  0  0  0  0
   44.6836   33.8646   47.9856 H   0  0  0  0  0  0  0  0  0  0  0  0
   45.1480   32.1148   49.5788 H   0  0  0  0  0  0  0  0  0  0  0  0
   46.5602   30.1723   48.9497 H   0  0  0  0  0  0  0  0  0  0  0  0
   47.8243   29.0640   47.3652 H   0  0  0  0  0  0  0  0  0  0  0  0
   48.7950   28.8702   45.0771 H   0  0  0  0  0  0  0  0  0  0  0  0
   48.2917   30.7101   43.4344 H   0  0  0  0  0  0  0  0  0  0  0  0
   46.9079   32.5929   44.0947 H   0  0  0  0  0  0  0  0  0  0  0  0
  1  6  2  0
  2  1  1  0
  3  2  2  0
  3  4  1  0
  4  5  2  0
  5  6  1  0
  5  7  1  0
  7  8  2  0
  8  9  1  0
 10  9  2  0
 11 10  1  0
 12 11  2  0
 13 12  1  0
 14 15  1  0
 14 13  2  0
 15 16  2  0
 16  7  1  0
 16 11  1  0
 17 19  1  0
 17  3  1  0
 18 17  1  0
 20 17  1  0
  1 21  1  0
  2 22  1  0
  8 23  1  0
  9 24  1  0
 10 25  1  0
 12 26  1  0
 13 27  1  0
 14 28  1  0
 15 29  1  0
M  ISO  8  21  14  22  14  23  14  24  14  25  14  26  14  27  14  28  14
M  ISO  1  29  14
M  END
>  <minimizedAffinity>  (1) 
-6.11865187

>  <minimizedRMSD>  (1) 
0.72636497

$$$$
