
     RDKit          3D

 20 20  0  0  0  0  0  0  0  0999 V2000
   44.5930   36.0240   44.0990 C   0  0  0  0  0  0  0  0  0  0  0  0
   45.3760   35.8510   42.9380 C   0  0  0  0  0  0  0  0  0  0  0  0
   46.3510   34.8490   42.9440 C   0  0  0  0  0  0  0  0  0  0  0  0
   46.4950   34.0990   44.0560 N   0  0  0  0  0  0  0  0  0  0  0  0
   45.7240   34.2910   45.1630 C   0  0  0  0  0  0  0  0  0  0  0  0
   44.7940   35.2430   45.1620 N   0  0  0  0  0  0  0  0  0  0  0  0
   45.9210   33.4700   46.3080 N   0  0  0  0  0  0  0  0  0  0  0  0
   44.9320   33.4290   47.3500 C   0  0  0  0  0  0  0  0  0  0  0  0
   44.2540   34.5020   47.5440 N   0  0  0  0  0  0  0  0  0  0  0  0
   44.7710   32.2180   48.0850 N   0  0  0  0  0  0  0  0  0  0  0  0
   43.5230   34.5460   48.2780 H   0  0  0  0  0  0  0  0  0  0  0  0
   47.1900   34.6430   41.7360 C   0  0  0  0  0  0  0  0  0  0  0  0
   48.0370   35.7370   41.6770 F   0  0  0  0  0  0  0  0  0  0  0  0
   47.9450   33.5020   41.8090 F   0  0  0  0  0  0  0  0  0  0  0  0
   46.4250   34.5970   40.5810 F   0  0  0  0  0  0  0  0  0  0  0  0
   43.8168   36.8029   44.1278 H   0  0  0  0  0  0  0  0  0  0  0  0
   45.2236   36.4865   42.0532 H   0  0  0  0  0  0  0  0  0  0  0  0
   46.7764   32.9023   46.3906 H   0  0  0  0  0  0  0  0  0  0  0  0
   44.0695   32.1614   48.8370 H   0  0  0  0  0  0  0  0  0  0  0  0
   45.3562   31.3997   47.8640 H   0  0  0  0  0  0  0  0  0  0  0  0
  1  6  2  0
  2  3  2  0
  2  1  1  0
  3  4  1  0
  4  5  2  0
  5  7  1  0
  6  5  1  0
  7  8  1  0
  8  9  2  0
  8 10  1  0
  9 11  1  0
 12 14  1  0
 12  3  1  0
 13 12  1  0
 15 12  1  0
  1 16  1  0
  2 17  1  0
  7 18  1  0
 10 19  1  0
 10 20  1  0
M  ISO  2  16  14  17  14
M  END
>  <minimizedAffinity>  (1) 
-5.84577036

>  <minimizedRMSD>  (1) 
0.305569589

$$$$
