
     RDKit          3D

 20 21  0  0  0  0  0  0  0  0999 V2000
   44.5420   35.9980   44.3560 C   0  0  0  0  0  0  0  0  0  0  0  0
   45.3570   35.8680   43.2010 C   0  0  0  0  0  0  0  0  0  0  0  0
   46.3020   34.8400   43.1560 C   0  0  0  0  0  0  0  0  0  0  0  0
   46.3910   34.0140   44.2260 N   0  0  0  0  0  0  0  0  0  0  0  0
   45.6010   34.1550   45.3220 C   0  0  0  0  0  0  0  0  0  0  0  0
   44.6960   35.1340   45.3740 N   0  0  0  0  0  0  0  0  0  0  0  0
   45.8650   33.1760   46.3320 N   0  0  0  0  0  0  0  0  0  0  0  0
   46.9000   32.3580   46.0480 C   0  0  0  0  0  0  0  0  0  0  0  0
   47.0230   31.4740   47.1180 C   0  0  0  0  0  0  0  0  0  0  0  0
   46.0520   31.7900   48.0150 N   0  0  0  0  0  0  0  0  0  0  0  0
   45.3480   32.8320   47.5260 C   0  0  0  0  0  0  0  0  0  0  0  0
   47.1560   34.7000   41.9490 C   0  0  0  0  0  0  0  0  0  0  0  0
   47.9290   35.8300   41.9020 F   0  0  0  0  0  0  0  0  0  0  0  0
   47.9740   33.5910   42.0310 F   0  0  0  0  0  0  0  0  0  0  0  0
   46.3860   34.6040   40.7980 F   0  0  0  0  0  0  0  0  0  0  0  0
   43.7907   36.7991   44.4173 H   0  0  0  0  0  0  0  0  0  0  0  0
   45.2465   36.5642   42.3566 H   0  0  0  0  0  0  0  0  0  0  0  0
   47.5268   32.3841   45.1444 H   0  0  0  0  0  0  0  0  0  0  0  0
   47.7672   30.6702   47.2181 H   0  0  0  0  0  0  0  0  0  0  0  0
   44.4944   33.3188   48.0204 H   0  0  0  0  0  0  0  0  0  0  0  0
  1  6  2  0
  2  1  1  0
  3  2  2  0
  3  4  1  0
  4  5  2  0
  5  6  1  0
  5  7  1  0
  7 11  1  0
  8  7  1  0
  8  9  2  0
  9 10  1  0
 11 10  2  0
 12 14  1  0
 12  3  1  0
 13 12  1  0
 15 12  1  0
  1 16  1  0
  2 17  1  0
  8 18  1  0
  9 19  1  0
 11 20  1  0
M  ISO  5  16  14  17  14  18  14  19  14  20  14
M  END
>  <minimizedAffinity>  (1) 
-5.19293928

>  <minimizedRMSD>  (1) 
0.14590086

$$$$
