
     RDKit          3D

 20 21  0  0  0  0  0  0  0  0999 V2000
   44.5180   36.0550   44.2380 C   0  0  0  0  0  0  0  0  0  0  0  0
   45.3410   35.9050   43.0900 C   0  0  0  0  0  0  0  0  0  0  0  0
   46.2940   34.8730   43.1130 C   0  0  0  0  0  0  0  0  0  0  0  0
   46.3760   34.0860   44.2150 N   0  0  0  0  0  0  0  0  0  0  0  0
   45.5750   34.2570   45.2960 C   0  0  0  0  0  0  0  0  0  0  0  0
   44.6680   35.2310   45.2880 N   0  0  0  0  0  0  0  0  0  0  0  0
   45.7360   33.3610   46.4380 C   0  0  0  0  0  0  0  0  0  0  0  0
   46.8490   32.5380   46.4850 C   0  0  0  0  0  0  0  0  0  0  0  0
   46.7310   31.8190   47.6590 C   0  0  0  0  0  0  0  0  0  0  0  0
   45.5680   32.2300   48.2660 C   0  0  0  0  0  0  0  0  0  0  0  0
   45.0160   33.1460   47.5020 O   0  0  0  0  0  0  0  0  0  0  0  0
   47.1750   34.6830   41.9250 C   0  0  0  0  0  0  0  0  0  0  0  0
   47.9650   35.8010   41.8700 F   0  0  0  0  0  0  0  0  0  0  0  0
   47.9760   33.5660   42.0610 F   0  0  0  0  0  0  0  0  0  0  0  0
   46.4280   34.5690   40.7610 F   0  0  0  0  0  0  0  0  0  0  0  0
   43.7561   36.8478   44.2671 H   0  0  0  0  0  0  0  0  0  0  0  0
   45.2365   36.5691   42.2194 H   0  0  0  0  0  0  0  0  0  0  0  0
   47.6580   32.4708   45.7427 H   0  0  0  0  0  0  0  0  0  0  0  0
   47.4340   31.0617   48.0362 H   0  0  0  0  0  0  0  0  0  0  0  0
   45.1700   31.8582   49.2217 H   0  0  0  0  0  0  0  0  0  0  0  0
  1  6  2  0
  2  3  2  0
  2  1  1  0
  3  4  1  0
  4  5  2  0
  5  7  1  0
  6  5  1  0
  7  8  2  0
  7 11  1  0
  8  9  1  0
  9 10  2  0
 11 10  1  0
 12 14  1  0
 12  3  1  0
 13 12  1  0
 15 12  1  0
  1 16  1  0
  2 17  1  0
  8 18  1  0
  9 19  1  0
 10 20  1  0
M  ISO  5  16  14  17  14  18  14  19  14  20  14
M  END
>  <minimizedAffinity>  (1) 
-5.17515659

>  <minimizedRMSD>  (1) 
0.333397925

$$$$
