
     RDKit          3D

 16 16  0  0  0  0  0  0  0  0999 V2000
   44.5130   36.1870   44.3690 C   0  0  0  0  0  0  0  0  0  0  0  0
   45.2950   35.9870   43.1880 C   0  0  0  0  0  0  0  0  0  0  0  0
   46.1430   34.8880   43.1850 C   0  0  0  0  0  0  0  0  0  0  0  0
   46.1890   34.0730   44.2740 N   0  0  0  0  0  0  0  0  0  0  0  0
   45.4330   34.2990   45.3680 C   0  0  0  0  0  0  0  0  0  0  0  0
   44.6100   35.3420   45.4060 N   0  0  0  0  0  0  0  0  0  0  0  0
   46.9850   34.6260   41.9830 C   0  0  0  0  0  0  0  0  0  0  0  0
   47.8600   35.6940   41.9090 F   0  0  0  0  0  0  0  0  0  0  0  0
   47.7160   33.4720   42.0920 F   0  0  0  0  0  0  0  0  0  0  0  0
   46.2300   34.5700   40.8280 F   0  0  0  0  0  0  0  0  0  0  0  0
   45.5780   33.3500   46.4670 C   0  0  0  0  0  0  0  0  0  0  0  0
   46.4410   32.4400   46.3670 O   0  0  0  0  0  0  0  0  0  0  0  0
   44.8270   33.3720   47.6260 O   0  0  0  0  0  0  0  0  0  0  0  0
   43.8247   37.0431   44.4273 H   0  0  0  0  0  0  0  0  0  0  0  0
   45.2279   36.6685   42.3272 H   0  0  0  0  0  0  0  0  0  0  0  0
   44.9827   32.6933   48.3297 H   0  0  0  0  0  0  0  0  0  0  0  0
  1  6  2  0
  2  1  1  0
  3  2  2  0
  3  4  1  0
  4  5  2  0
  5  6  1  0
  5 11  1  0
  7  9  1  0
  7  3  1  0
  8  7  1  0
 10  7  1  0
 11 13  1  0
 12 11  2  0
  1 14  1  0
  2 15  1  0
 13 16  1  0
M  ISO  3  14  14  15  14  16   3
M  END
>  <minimizedAffinity>  (1) 
-4.8381381

>  <minimizedRMSD>  (1) 
0.35199672

$$$$
