
     RDKit          3D

 18 19  0  0  0  0  0  0  0  0999 V2000
   44.5490   36.0100   44.3390 C   0  0  0  0  0  0  0  0  0  0  0  0
   45.3220   35.8770   43.1600 C   0  0  0  0  0  0  0  0  0  0  0  0
   46.2520   34.8460   43.1020 C   0  0  0  0  0  0  0  0  0  0  0  0
   46.3690   34.0200   44.1790 N   0  0  0  0  0  0  0  0  0  0  0  0
   45.6110   34.1740   45.2970 C   0  0  0  0  0  0  0  0  0  0  0  0
   44.7180   35.1640   45.3540 N   0  0  0  0  0  0  0  0  0  0  0  0
   45.9050   33.1790   46.3190 C   0  0  0  0  0  0  0  0  0  0  0  0
   46.9930   32.4150   46.1460 N   0  0  0  0  0  0  0  0  0  0  0  0
   47.1180   31.5950   47.1210 O   0  0  0  0  0  0  0  0  0  0  0  0
   46.1400   31.7620   47.9810 C   0  0  0  0  0  0  0  0  0  0  0  0
   45.3820   32.7510   47.4830 N   0  0  0  0  0  0  0  0  0  0  0  0
   47.0760   34.6830   41.8790 C   0  0  0  0  0  0  0  0  0  0  0  0
   47.9280   35.7670   41.8450 F   0  0  0  0  0  0  0  0  0  0  0  0
   47.8400   33.5260   41.9190 F   0  0  0  0  0  0  0  0  0  0  0  0
   46.3010   34.6470   40.7430 F   0  0  0  0  0  0  0  0  0  0  0  0
   43.8049   36.8163   44.4171 H   0  0  0  0  0  0  0  0  0  0  0  0
   45.1903   36.5691   42.3153 H   0  0  0  0  0  0  0  0  0  0  0  0
   45.9760   31.2063   48.9160 H   0  0  0  0  0  0  0  0  0  0  0  0
  1  6  2  0
  2  1  1  0
  3  2  2  0
  3  4  1  0
  4  5  2  0
  5  6  1  0
  5  7  1  0
  7 11  1  0
  8  7  2  0
  8  9  1  0
  9 10  1  0
 11 10  2  0
 12 14  1  0
 12  3  1  0
 13 12  1  0
 15 12  1  0
  1 16  1  0
  2 17  1  0
 10 18  1  0
M  ISO  3  16  14  17  14  18  14
M  END
>  <minimizedAffinity>  (1) 
-4.99154711

>  <minimizedRMSD>  (1) 
0.399900019

$$$$
