
     RDKit          3D

 16 16  0  0  0  0  0  0  0  0999 V2000
   44.5880   35.9090   44.3570 C   0  0  0  0  0  0  0  0  0  0  0  0
   45.3760   35.8370   43.1730 C   0  0  0  0  0  0  0  0  0  0  0  0
   46.3330   34.8150   43.1020 C   0  0  0  0  0  0  0  0  0  0  0  0
   46.4450   33.9740   44.1510 N   0  0  0  0  0  0  0  0  0  0  0  0
   45.6880   34.0630   45.2600 C   0  0  0  0  0  0  0  0  0  0  0  0
   44.7670   35.0370   45.3420 N   0  0  0  0  0  0  0  0  0  0  0  0
   47.1660   34.7190   41.8810 C   0  0  0  0  0  0  0  0  0  0  0  0
   47.9540   35.8670   41.8770 F   0  0  0  0  0  0  0  0  0  0  0  0
   48.0250   33.6340   41.9290 F   0  0  0  0  0  0  0  0  0  0  0  0
   46.4250   34.6610   40.7340 F   0  0  0  0  0  0  0  0  0  0  0  0
   45.9020   33.0840   46.3430 C   0  0  0  0  0  0  0  0  0  0  0  0
   43.8241   36.6942   44.4564 H   0  0  0  0  0  0  0  0  0  0  0  0
   45.2396   36.5529   42.3491 H   0  0  0  0  0  0  0  0  0  0  0  0
   45.7926   33.5844   47.3165 H   0  0  0  0  0  0  0  0  0  0  0  0
   45.1590   32.2771   46.2600 H   0  0  0  0  0  0  0  0  0  0  0  0
   46.9139   32.6607   46.2600 H   0  0  0  0  0  0  0  0  0  0  0  0
  1  6  2  0
  2  1  1  0
  3  2  2  0
  3  4  1  0
  4  5  2  0
  5  6  1  0
  5 11  1  0
  7  9  1  0
  7  3  1  0
  8  7  1  0
 10  7  1  0
  1 12  1  0
  2 13  1  0
 11 14  1  0
 11 15  1  0
 11 16  1  0
M  ISO  5  12  14  13  14  14   8  15   8  16   8
M  END
>  <minimizedAffinity>  (1) 
-4.17028618

>  <minimizedRMSD>  (1) 
0.0314374641

$$$$
