
     RDKit          3D

 15 15  0  0  0  0  0  0  0  0999 V2000
   44.5800   35.9240   44.4030 C   0  0  0  0  0  0  0  0  0  0  0  0
   45.3460   35.8510   43.1940 C   0  0  0  0  0  0  0  0  0  0  0  0
   46.2880   34.8180   43.1060 C   0  0  0  0  0  0  0  0  0  0  0  0
   46.4190   33.9580   44.1550 N   0  0  0  0  0  0  0  0  0  0  0  0
   45.6700   34.0690   45.2800 C   0  0  0  0  0  0  0  0  0  0  0  0
   44.7660   35.0470   45.3850 N   0  0  0  0  0  0  0  0  0  0  0  0
   47.1140   34.6840   41.8830 C   0  0  0  0  0  0  0  0  0  0  0  0
   47.9250   35.8030   41.8620 F   0  0  0  0  0  0  0  0  0  0  0  0
   47.8990   33.5610   41.8810 F   0  0  0  0  0  0  0  0  0  0  0  0
   46.3270   34.6800   40.7420 F   0  0  0  0  0  0  0  0  0  0  0  0
   45.8390   33.1290   46.3830 C   0  0  0  0  0  0  0  0  0  0  0  0
   45.0920   33.1810   47.3960 O   0  0  0  0  0  0  0  0  0  0  0  0
   43.8270   36.7173   44.5203 H   0  0  0  0  0  0  0  0  0  0  0  0
   45.2013   36.5710   42.3751 H   0  0  0  0  0  0  0  0  0  0  0  0
   46.6288   32.3652   46.3293 H   0  0  0  0  0  0  0  0  0  0  0  0
  1  6  2  0
  2  1  1  0
  3  2  2  0
  3  4  1  0
  4  5  2  0
  5  6  1  0
  5 11  1  0
  7  3  1  0
  8  7  1  0
  9  7  1  0
 10  7  1  0
 11 12  2  0
  1 13  1  0
  2 14  1  0
 11 15  1  0
M  ISO  3  13  14  14  14  15   6
M  END
>  <minimizedAffinity>  (1) 
-4.27131653

>  <minimizedRMSD>  (1) 
0.101333141

$$$$
