
     RDKit          3D

 14 14  0  0  0  0  0  0  0  0999 V2000
   44.5860   35.9610   44.3640 C   0  0  0  0  0  0  0  0  0  0  0  0
   45.3860   35.8580   43.2070 C   0  0  0  0  0  0  0  0  0  0  0  0
   46.3240   34.8330   43.1290 C   0  0  0  0  0  0  0  0  0  0  0  0
   46.4230   33.9810   44.1700 N   0  0  0  0  0  0  0  0  0  0  0  0
   45.6510   34.0880   45.2760 C   0  0  0  0  0  0  0  0  0  0  0  0
   44.7420   35.0840   45.3530 N   0  0  0  0  0  0  0  0  0  0  0  0
   47.1710   34.7180   41.9100 C   0  0  0  0  0  0  0  0  0  0  0  0
   47.9460   35.8490   41.8810 F   0  0  0  0  0  0  0  0  0  0  0  0
   47.9930   33.6100   41.9750 F   0  0  0  0  0  0  0  0  0  0  0  0
   46.4100   34.6380   40.7580 F   0  0  0  0  0  0  0  0  0  0  0  0
   45.8260   33.1510   46.3160 O   0  0  0  0  0  0  0  0  0  0  0  0
   43.8369   36.7621   44.4486 H   0  0  0  0  0  0  0  0  0  0  0  0
   45.2705   36.5752   42.3810 H   0  0  0  0  0  0  0  0  0  0  0  0
   45.2719   33.2105   47.1343 H   0  0  0  0  0  0  0  0  0  0  0  0
  1  6  2  0
  2  1  1  0
  3  2  2  0
  3  4  1  0
  4  5  2  0
  5  6  1  0
  5 11  1  0
  7  9  1  0
  7  3  1  0
  8  7  1  0
 10  7  1  0
  1 12  1  0
  2 13  1  0
 11 14  1  0
M  ISO  3  12  14  13  14  14   3
M  END
>  <minimizedAffinity>  (1) 
-4.09979916

>  <minimizedRMSD>  (1) 
0.0280274842

$$$$
