
     RDKit          3D

 34 37  0  0  1  0  0  0  0  0999 V2000
   46.6450   32.4760   46.3040 C   0  0  1  0  0  0  0  0  0  0  0  0
   47.0400   32.8020   47.7020 C   0  0  0  0  0  0  0  0  0  0  0  0
   45.7250   32.1780   47.4560 C   0  0  2  0  0  0  0  0  0  0  0  0
   45.4100   30.7680   47.6340 C   0  0  0  0  0  0  0  0  0  0  0  0
   45.3670   30.3320   48.9660 C   0  0  0  0  0  0  0  0  0  0  0  0
   45.0450   29.0060   48.9620 N   0  0  0  0  0  0  0  0  0  0  0  0
   44.8800   28.5670   47.6980 C   0  0  0  0  0  0  0  0  0  0  0  0
   44.5670   27.3840   47.0630 C   0  0  0  0  0  0  0  0  0  0  0  0
   44.4980   27.3490   45.6770 C   0  0  0  0  0  0  0  0  0  0  0  0
   44.7310   28.4650   44.8710 C   0  0  0  0  0  0  0  0  0  0  0  0
   45.0450   29.6450   45.5370 C   0  0  0  0  0  0  0  0  0  0  0  0
   45.1080   29.6630   46.9010 C   0  0  0  0  0  0  0  0  0  0  0  0
   44.7290   35.3190   44.9090 C   0  0  0  0  0  0  0  0  0  0  0  0
   45.2890   35.4290   43.6040 C   0  0  0  0  0  0  0  0  0  0  0  0
   46.3080   34.5320   43.2460 C   0  0  0  0  0  0  0  0  0  0  0  0
   46.7140   33.5970   44.1610 N   0  0  0  0  0  0  0  0  0  0  0  0
   46.1540   33.5300   45.3890 C   0  0  0  0  0  0  0  0  0  0  0  0
   45.1770   34.3790   45.7520 N   0  0  0  0  0  0  0  0  0  0  0  0
   46.9170   34.6370   41.8880 C   0  0  0  0  0  0  0  0  0  0  0  0
   47.6960   35.7920   41.9430 F   0  0  0  0  0  0  0  0  0  0  0  0
   47.7650   33.5820   41.6220 F   0  0  0  0  0  0  0  0  0  0  0  0
   45.9690   34.7710   40.9100 F   0  0  0  0  0  0  0  0  0  0  0  0
   47.1505   31.9295   45.4942 H   0  0  0  0  0  0  0  0  0  0  0  0
   47.8362   32.2246   48.1946 H   0  0  0  0  0  0  0  0  0  0  0  0
   47.3779   33.7138   48.2162 H   0  0  0  0  0  0  0  0  0  0  0  0
   44.7253   32.4483   47.8268 H   0  0  0  0  0  0  0  0  0  0  0  0
   45.5588   30.9493   49.8561 H   0  0  0  0  0  0  0  0  0  0  0  0
   44.9425   28.4232   49.8050 H   0  0  0  0  0  0  0  0  0  0  0  0
   44.3733   26.4744   47.6504 H   0  0  0  0  0  0  0  0  0  0  0  0
   44.2474   26.3951   45.1898 H   0  0  0  0  0  0  0  0  0  0  0  0
   44.6698   28.4140   43.7739 H   0  0  0  0  0  0  0  0  0  0  0  0
   45.2426   30.5636   44.9651 H   0  0  0  0  0  0  0  0  0  0  0  0
   43.9293   36.0053   45.2245 H   0  0  0  0  0  0  0  0  0  0  0  0
   44.9337   36.1939   42.8978 H   0  0  0  0  0  0  0  0  0  0  0  0
  1  3  1  0
  1  2  1  0
  3  4  1  0
  3  2  1  0
  4  5  2  0
  6  5  1  0
  7  6  1  0
  8  7  2  0
  9  8  1  0
 10 11  1  0
 10  9  2  0
 11 12  2  0
 12  4  1  0
 12  7  1  0
 13 18  2  0
 14 13  1  0
 15 14  2  0
 15 16  1  0
 16 17  2  0
 17 18  1  0
 17  1  1  0
 19 20  1  0
 19 15  1  0
 21 19  1  0
 22 19  1  0
  1 23  1  6
  2 24  1  0
  2 25  1  0
  3 26  1  6
  5 27  1  0
  6 28  1  0
  8 29  1  0
  9 30  1  0
 10 31  1  0
 11 32  1  0
 13 33  1  0
 14 34  1  0
M  ISO  8  23  13  24  13  25  13  26  13  27  14  28   9  29  14  30  14
M  ISO  4  31  14  32  14  33  14  34  14
M  END
>  <minimizedAffinity>  (1) 
-6.06232119

>  <minimizedRMSD>  (1) 
1.2534554

$$$$
