
     RDKit          3D

 52 56  0  0  1  0  0  0  0  0999 V2000
   44.6050   35.7480   44.9160 C   0  0  0  0  0  0  0  0  0  0  0  0
   45.2050   35.6720   43.6080 C   0  0  0  0  0  0  0  0  0  0  0  0
   45.9910   34.5740   43.3450 C   0  0  0  0  0  0  0  0  0  0  0  0
   46.1580   33.6320   44.3240 N   0  0  0  0  0  0  0  0  0  0  0  0
   45.5750   33.7510   45.5300 C   0  0  0  0  0  0  0  0  0  0  0  0
   44.8190   34.7880   45.8100 N   0  0  0  0  0  0  0  0  0  0  0  0
   45.8030   32.7000   46.5300 N   0  0  0  0  0  0  0  0  0  0  0  0
   45.1640   32.8160   47.8250 C   0  0  0  0  0  0  0  0  0  0  0  0
   46.0540   32.2790   48.9230 C   0  0  0  0  0  0  0  0  0  0  0  0
   47.4600   32.1540   48.4360 C   0  0  0  0  0  0  0  0  0  0  0  0
   47.4400   31.0790   47.3440 C   0  0  0  0  0  0  0  0  0  0  0  0
   46.6730   31.5580   46.1920 C   0  0  1  0  0  0  0  0  0  0  0  0
   45.9030   30.4940   45.4880 C   0  0  0  0  0  0  0  0  0  0  0  0
   45.9060   30.1900   44.1970 N   0  0  0  0  0  0  0  0  0  0  0  0
   45.1050   29.1870   43.9360 O   0  0  0  0  0  0  0  0  0  0  0  0
   44.5640   28.8260   45.0870 C   0  0  0  0  0  0  0  0  0  0  0  0
   45.0330   29.6120   46.0820 N   0  0  0  0  0  0  0  0  0  0  0  0
   43.3970   27.4690   45.1600 S   0  0  0  0  0  0  0  0  0  0  0  0
   44.3950   25.9760   45.3000 C   0  0  0  0  0  0  0  0  0  0  0  0
   45.1560   25.0790   44.6320 N   0  0  0  0  0  0  0  0  0  0  0  0
   45.5940   24.1820   45.4580 O   0  0  0  0  0  0  0  0  0  0  0  0
   45.1700   24.4200   46.6780 C   0  0  0  0  0  0  0  0  0  0  0  0
   44.4210   25.5390   46.5830 N   0  0  0  0  0  0  0  0  0  0  0  0
   45.4780   23.5910   47.9000 C   0  0  0  0  0  0  0  0  0  0  0  0
   46.6970   22.7540   47.6330 C   0  0  0  0  0  0  0  0  0  0  0  0
   47.9710   23.5320   47.5430 C   0  0  0  0  0  0  0  0  0  0  0  0
   48.1900   24.3880   48.7710 C   0  0  0  0  0  0  0  0  0  0  0  0
   46.9740   25.2510   49.0330 C   0  0  0  0  0  0  0  0  0  0  0  0
   45.7110   24.4540   49.1040 C   0  0  0  0  0  0  0  0  0  0  0  0
   43.9665   36.6051   45.1760 H   0  0  0  0  0  0  0  0  0  0  0  0
   45.0419   36.4563   42.8541 H   0  0  0  0  0  0  0  0  0  0  0  0
   46.4767   34.4551   42.3652 H   0  0  0  0  0  0  0  0  0  0  0  0
   44.9473   33.8758   48.0247 H   0  0  0  0  0  0  0  0  0  0  0  0
   44.2352   32.2268   47.8096 H   0  0  0  0  0  0  0  0  0  0  0  0
   46.0270   32.9669   49.7810 H   0  0  0  0  0  0  0  0  0  0  0  0
   45.6902   31.2857   49.2247 H   0  0  0  0  0  0  0  0  0  0  0  0
   47.8067   33.1122   48.0216 H   0  0  0  0  0  0  0  0  0  0  0  0
   48.1447   31.8828   49.2531 H   0  0  0  0  0  0  0  0  0  0  0  0
   48.4708   30.8577   47.0302 H   0  0  0  0  0  0  0  0  0  0  0  0
   46.9699   30.1668   47.7401 H   0  0  0  0  0  0  0  0  0  0  0  0
   47.4360   31.9072   45.4807 H   0  0  0  0  0  0  0  0  0  0  0  0
   44.6121   22.9459   48.1100 H   0  0  0  0  0  0  0  0  0  0  0  0
   46.7974   22.0220   48.4479 H   0  0  0  0  0  0  0  0  0  0  0  0
   46.5461   22.2827   46.6506 H   0  0  0  0  0  0  0  0  0  0  0  0
   48.8117   22.8296   47.4431 H   0  0  0  0  0  0  0  0  0  0  0  0
   47.9071   24.1959   46.6683 H   0  0  0  0  0  0  0  0  0  0  0  0
   48.3674   23.7374   49.6400 H   0  0  0  0  0  0  0  0  0  0  0  0
   49.0612   25.0383   48.6034 H   0  0  0  0  0  0  0  0  0  0  0  0
   47.1138   25.7765   49.9892 H   0  0  0  0  0  0  0  0  0  0  0  0
   46.8776   25.9562   48.1943 H   0  0  0  0  0  0  0  0  0  0  0  0
   44.8652   25.1505   49.2018 H   0  0  0  0  0  0  0  0  0  0  0  0
   45.8015   23.7821   49.9702 H   0  0  0  0  0  0  0  0  0  0  0  0
  1  6  2  0
  2  1  1  0
  3  2  2  0
  3  4  1  0
  4  5  2  0
  5  6  1  0
  5  7  1  0
  7  8  1  0
  8  9  1  0
 10  9  1  0
 11 10  1  0
 12  7  1  0
 12 11  1  0
 13 17  1  0
 13 12  1  0
 14 13  2  0
 15 14  1  0
 15 16  1  0
 16 18  1  0
 16 17  2  0
 18 19  1  0
 19 23  1  0
 20 19  2  0
 20 21  1  0
 21 22  1  0
 22 24  1  0
 23 22  2  0
 24 29  1  0
 25 24  1  0
 26 25  1  0
 26 27  1  0
 27 28  1  0
 28 29  1  0
  1 30  1  0
  2 31  1  0
  3 32  1  0
  8 33  1  0
  8 34  1  0
  9 35  1  0
  9 36  1  0
 10 37  1  0
 10 38  1  0
 11 39  1  0
 11 40  1  0
 12 41  1  6
 24 42  1  0
 25 43  1  0
 25 44  1  0
 26 45  1  0
 26 46  1  0
 27 47  1  0
 27 48  1  0
 28 49  1  0
 28 50  1  0
 29 51  1  0
 29 52  1  0
M  ISO  8  30  14  31  14  32  14  33  13  34  13  35  13  36  13  37  13
M  ISO  8  38  13  39  13  40  13  41  13  42  13  43  13  44  13  45  13
M  ISO  7  46  13  47  13  48  13  49  13  50  13  51  13  52  13
M  END
>  <minimizedAffinity>  (1) 
-5.5095892

>  <minimizedRMSD>  (1) 
3.19506407

$$$$
