
     RDKit          3D

 28 30  0  0  1  0  0  0  0  0999 V2000
   47.0850   32.4500   45.4740 C   0  0  1  0  0  0  0  0  0  0  0  0
   46.8150   32.7190   46.9220 C   0  0  0  0  0  0  0  0  0  0  0  0
   45.9080   31.8170   46.1370 C   0  0  2  0  0  0  0  0  0  0  0  0
   45.2490   35.0170   43.5370 C   0  0  0  0  0  0  0  0  0  0  0  0
   46.1980   35.3530   42.5390 C   0  0  0  0  0  0  0  0  0  0  0  0
   47.4360   34.6990   42.5560 C   0  0  0  0  0  0  0  0  0  0  0  0
   47.6780   33.7700   43.5240 N   0  0  0  0  0  0  0  0  0  0  0  0
   46.7410   33.4770   44.4640 C   0  0  0  0  0  0  0  0  0  0  0  0
   45.5510   34.0990   44.4570 N   0  0  0  0  0  0  0  0  0  0  0  0
   48.4540   35.0510   41.5200 C   0  0  0  0  0  0  0  0  0  0  0  0
   48.8250   36.3600   41.8240 F   0  0  0  0  0  0  0  0  0  0  0  0
   49.5910   34.2690   41.6250 F   0  0  0  0  0  0  0  0  0  0  0  0
   47.9410   35.0060   40.2530 F   0  0  0  0  0  0  0  0  0  0  0  0
   45.9750   30.4100   46.6140 C   0  0  0  0  0  0  0  0  0  0  0  0
   44.9720   29.9310   47.4340 C   0  0  0  0  0  0  0  0  0  0  0  0
   45.0870   28.6010   47.8520 C   0  0  0  0  0  0  0  0  0  0  0  0
   46.1270   27.8070   47.4770 N   0  0  0  0  0  0  0  0  0  0  0  0
   47.0890   28.3250   46.6690 C   0  0  0  0  0  0  0  0  0  0  0  0
   46.9840   29.5890   46.2690 N   0  0  0  0  0  0  0  0  0  0  0  0
   47.9807   32.1154   44.9302 H   0  0  0  0  0  0  0  0  0  0  0  0
   47.4772   32.2986   47.6932 H   0  0  0  0  0  0  0  0  0  0  0  0
   46.6768   33.6220   47.5347 H   0  0  0  0  0  0  0  0  0  0  0  0
   44.8496   31.7587   45.8431 H   0  0  0  0  0  0  0  0  0  0  0  0
   44.2666   35.5116   43.5529 H   0  0  0  0  0  0  0  0  0  0  0  0
   45.9681   36.1071   41.7719 H   0  0  0  0  0  0  0  0  0  0  0  0
   44.1262   30.5630   47.7425 H   0  0  0  0  0  0  0  0  0  0  0  0
   44.3091   28.1819   48.5072 H   0  0  0  0  0  0  0  0  0  0  0  0
   47.9421   27.7079   46.3505 H   0  0  0  0  0  0  0  0  0  0  0  0
  1  3  1  0
  1  2  1  0
  3 14  1  0
  3  2  1  0
  4  9  2  0
  5  6  2  0
  5  4  1  0
  6  7  1  0
  7  8  2  0
  8  1  1  0
  9  8  1  0
 10 12  1  0
 10 11  1  0
 10  6  1  0
 13 10  1  0
 14 15  2  0
 15 16  1  0
 17 16  2  0
 18 17  1  0
 19 14  1  0
 19 18  2  0
  1 20  1  1
  2 21  1  0
  2 22  1  0
  3 23  1  6
  4 24  1  0
  5 25  1  0
 15 26  1  0
 16 27  1  0
 18 28  1  0
M  ISO  8  20  13  21  13  22  13  23  13  24  14  25  14  26  14  27  14
M  ISO  1  28  14
M  END
>  <minimizedAffinity>  (1) 
-5.21775293

>  <minimizedRMSD>  (1) 
2.20816255

$$$$
