
     RDKit          3D

 33 35  0  0  1  0  0  0  0  0999 V2000
   44.6850   35.2080   45.3120 C   0  0  0  0  0  0  0  0  0  0  0  0
   45.1440   35.3550   43.9750 C   0  0  0  0  0  0  0  0  0  0  0  0
   46.1360   34.4790   43.5120 C   0  0  0  0  0  0  0  0  0  0  0  0
   46.6100   33.5300   44.3660 N   0  0  0  0  0  0  0  0  0  0  0  0
   46.1510   33.4190   45.6300 C   0  0  0  0  0  0  0  0  0  0  0  0
   45.2000   34.2540   46.0840 N   0  0  0  0  0  0  0  0  0  0  0  0
   46.7230   32.3420   46.4750 C   0  0  1  0  0  0  0  0  0  0  0  0
   47.2740   32.6470   47.8260 C   0  0  0  0  0  0  0  0  0  0  0  0
   45.9180   32.0260   47.7020 C   0  0  2  0  0  0  0  0  0  0  0  0
   45.7060   30.5600   47.9600 C   0  0  0  0  0  0  0  0  0  0  0  0
   46.9490   29.7430   47.8120 C   0  0  0  0  0  0  0  0  0  0  0  0
   46.4940   28.3800   47.3010 C   0  0  0  0  0  0  0  0  0  0  0  0
   44.9690   28.4330   47.3480 C   0  0  0  0  0  0  0  0  0  0  0  0
   44.7580   29.9060   46.9780 C   0  0  0  0  0  0  0  0  0  0  0  0
   46.6350   34.6240   42.1130 C   0  0  0  0  0  0  0  0  0  0  0  0
   47.4760   35.7330   42.1560 F   0  0  0  0  0  0  0  0  0  0  0  0
   47.3980   33.5410   41.7230 F   0  0  0  0  0  0  0  0  0  0  0  0
   45.6190   34.8560   41.2240 F   0  0  0  0  0  0  0  0  0  0  0  0
   43.9081   35.8793   45.7067 H   0  0  0  0  0  0  0  0  0  0  0  0
   44.7314   36.1364   43.3199 H   0  0  0  0  0  0  0  0  0  0  0  0
   47.1367   31.8025   45.6102 H   0  0  0  0  0  0  0  0  0  0  0  0
   48.1138   32.0574   48.2224 H   0  0  0  0  0  0  0  0  0  0  0  0
   47.6731   33.5474   48.3159 H   0  0  0  0  0  0  0  0  0  0  0  0
   44.9378   32.2893   48.1260 H   0  0  0  0  0  0  0  0  0  0  0  0
   45.3184   30.5641   48.9894 H   0  0  0  0  0  0  0  0  0  0  0  0
   47.6327   30.2137   47.0902 H   0  0  0  0  0  0  0  0  0  0  0  0
   47.4919   29.6568   48.7648 H   0  0  0  0  0  0  0  0  0  0  0  0
   46.8737   27.5768   47.9497 H   0  0  0  0  0  0  0  0  0  0  0  0
   46.8704   28.1700   46.2890 H   0  0  0  0  0  0  0  0  0  0  0  0
   44.5116   27.7551   46.6123 H   0  0  0  0  0  0  0  0  0  0  0  0
   44.5178   28.1194   48.3009 H   0  0  0  0  0  0  0  0  0  0  0  0
   45.0443   30.1105   45.9358 H   0  0  0  0  0  0  0  0  0  0  0  0
   43.7163   30.2545   47.0363 H   0  0  0  0  0  0  0  0  0  0  0  0
  1  6  2  0
  2  1  1  0
  3  2  2  0
  3  4  1  0
  4  5  2  0
  5  6  1  0
  5  7  1  0
  7  9  1  0
  7  8  1  0
  9  8  1  0
  9 10  1  0
 11 10  1  0
 12 13  1  0
 12 11  1  0
 14 13  1  0
 14 10  1  0
 15 16  1  0
 15  3  1  0
 17 15  1  0
 18 15  1  0
  1 19  1  0
  2 20  1  0
  7 21  1  6
  8 22  1  0
  8 23  1  0
  9 24  1  6
 10 25  1  0
 11 26  1  0
 11 27  1  0
 12 28  1  0
 12 29  1  0
 13 30  1  0
 13 31  1  0
 14 32  1  0
 14 33  1  0
M  ISO  8  19  14  20  14  21  13  22  13  23  13  24  13  25  13  26  13
M  ISO  7  27  13  28  13  29  13  30  13  31  13  32  13  33  13
M  END
>  <minimizedAffinity>  (1) 
-5.1891036

>  <minimizedRMSD>  (1) 
1.0979054

$$$$
