
     RDKit          3D

 28 30  0  0  1  0  0  0  0  0999 V2000
   46.7810   32.3130   46.3020 C   0  0  1  0  0  0  0  0  0  0  0  0
   46.9500   32.4700   47.7760 C   0  0  0  0  0  0  0  0  0  0  0  0
   45.8070   31.6640   47.2420 C   0  0  2  0  0  0  0  0  0  0  0  0
   44.7310   35.2010   45.2170 C   0  0  0  0  0  0  0  0  0  0  0  0
   45.1680   35.3720   43.8770 C   0  0  0  0  0  0  0  0  0  0  0  0
   46.1580   34.4990   43.3840 C   0  0  0  0  0  0  0  0  0  0  0  0
   46.6510   33.5280   44.2130 N   0  0  0  0  0  0  0  0  0  0  0  0
   46.2000   33.4050   45.4860 C   0  0  0  0  0  0  0  0  0  0  0  0
   45.2570   34.2310   45.9720 N   0  0  0  0  0  0  0  0  0  0  0  0
   46.6320   34.6740   41.9830 C   0  0  0  0  0  0  0  0  0  0  0  0
   47.4910   35.7690   42.0410 F   0  0  0  0  0  0  0  0  0  0  0  0
   47.3690   33.5880   41.5540 F   0  0  0  0  0  0  0  0  0  0  0  0
   45.6060   34.9450   41.1170 F   0  0  0  0  0  0  0  0  0  0  0  0
   45.8720   30.1850   47.2230 C   0  0  0  0  0  0  0  0  0  0  0  0
   44.7320   29.4390   46.9890 C   0  0  0  0  0  0  0  0  0  0  0  0
   44.7990   28.0470   46.9720 C   0  0  0  0  0  0  0  0  0  0  0  0
   45.9920   27.4860   47.1860 N   0  0  0  0  0  0  0  0  0  0  0  0
   47.1300   28.1850   47.4180 C   0  0  0  0  0  0  0  0  0  0  0  0
   47.0440   29.5220   47.4310 N   0  0  0  0  0  0  0  0  0  0  0  0
   47.4754   32.0062   45.5059 H   0  0  0  0  0  0  0  0  0  0  0  0
   47.7832   31.9681   48.2898 H   0  0  0  0  0  0  0  0  0  0  0  0
   47.0430   33.3268   48.4596 H   0  0  0  0  0  0  0  0  0  0  0  0
   44.7273   31.6849   47.4513 H   0  0  0  0  0  0  0  0  0  0  0  0
   43.9603   35.8661   45.6337 H   0  0  0  0  0  0  0  0  0  0  0  0
   44.7454   36.1641   43.2413 H   0  0  0  0  0  0  0  0  0  0  0  0
   43.7706   29.9447   46.8160 H   0  0  0  0  0  0  0  0  0  0  0  0
   43.9040   27.4341   46.7894 H   0  0  0  0  0  0  0  0  0  0  0  0
   48.0886   27.6735   47.5893 H   0  0  0  0  0  0  0  0  0  0  0  0
  1  3  1  0
  1  2  1  0
  3  2  1  0
  4  9  2  0
  5  4  1  0
  6  5  2  0
  6  7  1  0
  7  8  2  0
  8  9  1  0
  8  1  1  0
 10 11  1  0
 10  6  1  0
 12 10  1  0
 13 10  1  0
 14  3  1  0
 14 19  1  0
 15 14  2  0
 16 15  1  0
 16 17  2  0
 17 18  1  0
 18 19  2  0
  1 20  1  6
  2 21  1  0
  2 22  1  0
  3 23  1  6
  4 24  1  0
  5 25  1  0
 15 26  1  0
 16 27  1  0
 18 28  1  0
M  ISO  8  20  13  21  13  22  13  23  13  24  14  25  14  26  14  27  14
M  ISO  1  28  14
M  END
>  <minimizedAffinity>  (1) 
-5.12722492

>  <minimizedRMSD>  (1) 
1.84180379

$$$$
