
     RDKit          3D

 26 27  0  0  1  0  0  0  0  0999 V2000
   44.7210   35.5800   44.6650 C   0  0  0  0  0  0  0  0  0  0  0  0
   45.4600   35.6720   43.4610 C   0  0  0  0  0  0  0  0  0  0  0  0
   46.4090   34.6840   43.1850 C   0  0  0  0  0  0  0  0  0  0  0  0
   46.5790   33.6830   44.0840 N   0  0  0  0  0  0  0  0  0  0  0  0
   45.8630   33.6140   45.2290 C   0  0  0  0  0  0  0  0  0  0  0  0
   44.9470   34.5590   45.5040 N   0  0  0  0  0  0  0  0  0  0  0  0
   46.1060   32.4780   46.1340 C   0  0  1  0  0  0  0  0  0  0  0  0
   47.0530   32.6070   47.2830 C   0  0  0  0  0  0  0  0  0  0  0  0
   45.5890   32.6830   47.5280 C   0  0  2  0  0  0  0  0  0  0  0  0
   44.8160   31.5510   48.1510 C   0  0  0  0  0  0  0  0  0  0  0  0
   45.3670   31.3930   49.5620 C   0  0  0  0  0  0  0  0  0  0  0  0
   47.2060   34.7730   41.9200 C   0  0  0  0  0  0  0  0  0  0  0  0
   48.0250   33.6440   41.9490 F   0  0  0  0  0  0  0  0  0  0  0  0
   46.4100   34.6860   40.7990 F   0  0  0  0  0  0  0  0  0  0  0  0
   47.9870   35.8990   41.8900 F   0  0  0  0  0  0  0  0  0  0  0  0
   43.9661   36.3415   44.9106 H   0  0  0  0  0  0  0  0  0  0  0  0
   45.2911   36.5019   42.7590 H   0  0  0  0  0  0  0  0  0  0  0  0
   46.0134   31.7367   45.3266 H   0  0  0  0  0  0  0  0  0  0  0  0
   47.6220   31.7304   47.6262 H   0  0  0  0  0  0  0  0  0  0  0  0
   47.9117   33.2557   47.5106 H   0  0  0  0  0  0  0  0  0  0  0  0
   44.9560   33.4118   48.0554 H   0  0  0  0  0  0  0  0  0  0  0  0
   43.7435   31.7933   48.1844 H   0  0  0  0  0  0  0  0  0  0  0  0
   44.9227   30.6228   47.5705 H   0  0  0  0  0  0  0  0  0  0  0  0
   44.5760   31.6198   50.2920 H   0  0  0  0  0  0  0  0  0  0  0  0
   45.7139   30.3592   49.7065 H   0  0  0  0  0  0  0  0  0  0  0  0
   46.2090   32.0859   49.7065 H   0  0  0  0  0  0  0  0  0  0  0  0
  1  6  2  0
  2  1  1  0
  3  2  2  0
  3  4  1  0
  4  5  2  0
  5  6  1  0
  5  7  1  0
  7  8  1  0
  7  9  1  0
  8  9  1  0
  9 10  1  0
 10 11  1  0
 12 13  1  0
 12  3  1  0
 14 12  1  0
 15 12  1  0
  1 16  1  0
  2 17  1  0
  7 18  1  6
  8 19  1  0
  8 20  1  0
  9 21  1  6
 10 22  1  0
 10 23  1  0
 11 24  1  0
 11 25  1  0
 11 26  1  0
M  ISO  8  16  14  17  14  18  13  19  13  20  13  21  13  22   8  23   8
M  ISO  3  24   8  25   8  26   8
M  END
>  <minimizedAffinity>  (1) 
-5.16629076

>  <minimizedRMSD>  (1) 
1.24311543

$$$$
