
     RDKit          3D

 38 41  0  0  1  0  0  0  0  0999 V2000
   44.5850   35.6560   44.8250 C   0  0  0  0  0  0  0  0  0  0  0  0
   45.3050   35.7290   43.5860 C   0  0  0  0  0  0  0  0  0  0  0  0
   46.2490   34.7570   43.3530 C   0  0  0  0  0  0  0  0  0  0  0  0
   46.4530   33.7820   44.2980 N   0  0  0  0  0  0  0  0  0  0  0  0
   45.7440   33.7640   45.4500 C   0  0  0  0  0  0  0  0  0  0  0  0
   44.8300   34.6810   45.7060 N   0  0  0  0  0  0  0  0  0  0  0  0
   46.0100   32.6960   46.4260 N   0  0  0  0  0  0  0  0  0  0  0  0
   45.2600   32.6460   47.6580 C   0  0  0  0  0  0  0  0  0  0  0  0
   46.0890   32.1640   48.8130 C   0  0  0  0  0  0  0  0  0  0  0  0
   47.5400   32.2520   48.4610 C   0  0  0  0  0  0  0  0  0  0  0  0
   47.7690   31.2440   47.3210 C   0  0  0  0  0  0  0  0  0  0  0  0
   47.0450   31.6950   46.1230 C   0  0  1  0  0  0  0  0  0  0  0  0
   46.4980   30.5830   45.2940 C   0  0  0  0  0  0  0  0  0  0  0  0
   47.1470   29.7510   44.4910 N   0  0  0  0  0  0  0  0  0  0  0  0
   46.3360   28.8970   43.9290 O   0  0  0  0  0  0  0  0  0  0  0  0
   45.1190   29.1740   44.3740 C   0  0  0  0  0  0  0  0  0  0  0  0
   45.1790   30.2130   45.2230 N   0  0  0  0  0  0  0  0  0  0  0  0
   43.7080   28.2200   43.8370 S   0  0  0  0  0  0  0  0  0  0  0  0
   43.1830   27.2670   45.2710 C   0  0  0  0  0  0  0  0  0  0  0  0
   43.5330   26.8220   46.4880 N   0  0  0  0  0  0  0  0  0  0  0  0
   42.5660   26.1240   47.0010 O   0  0  0  0  0  0  0  0  0  0  0  0
   41.5360   26.0690   46.1630 C   0  0  0  0  0  0  0  0  0  0  0  0
   41.9240   26.7850   45.0790 N   0  0  0  0  0  0  0  0  0  0  0  0
   40.2800   25.3630   46.4250 C   0  0  0  0  0  0  0  0  0  0  0  0
   39.9400   24.4720   45.6080 O   0  0  0  0  0  0  0  0  0  0  0  0
   43.8204   36.4132   45.0531 H   0  0  0  0  0  0  0  0  0  0  0  0
   45.1103   36.5274   42.8548 H   0  0  0  0  0  0  0  0  0  0  0  0
   46.8335   34.7604   42.4212 H   0  0  0  0  0  0  0  0  0  0  0  0
   44.8886   33.6558   47.8868 H   0  0  0  0  0  0  0  0  0  0  0  0
   44.4328   31.9345   47.5186 H   0  0  0  0  0  0  0  0  0  0  0  0
   45.8876   32.7903   49.6946 H   0  0  0  0  0  0  0  0  0  0  0  0
   45.8304   31.1185   49.0369 H   0  0  0  0  0  0  0  0  0  0  0  0
   47.7897   33.2695   48.1258 H   0  0  0  0  0  0  0  0  0  0  0  0
   48.1767   32.0258   49.3290 H   0  0  0  0  0  0  0  0  0  0  0  0
   48.8442   31.1789   47.0981 H   0  0  0  0  0  0  0  0  0  0  0  0
   47.3997   30.2533   47.6244 H   0  0  0  0  0  0  0  0  0  0  0  0
   47.8113   32.1885   45.5071 H   0  0  0  0  0  0  0  0  0  0  0  0
   39.6600   25.6033   47.3013 H   0  0  0  0  0  0  0  0  0  0  0  0
  1  6  2  0
  2  1  1  0
  3  2  2  0
  3  4  1  0
  4  5  2  0
  5  6  1  0
  5  7  1  0
  7  8  1  0
  8  9  1  0
 10  9  1  0
 11 10  1  0
 12  7  1  0
 12 11  1  0
 13 12  1  0
 14 13  2  0
 15 16  1  0
 15 14  1  0
 16 17  2  0
 17 13  1  0
 18 16  1  0
 18 19  1  0
 19 20  2  0
 20 21  1  0
 22 24  1  0
 22 21  1  0
 23 19  1  0
 23 22  2  0
 25 24  2  0
  1 26  1  0
  2 27  1  0
  3 28  1  0
  8 29  1  0
  8 30  1  0
  9 31  1  0
  9 32  1  0
 10 33  1  0
 10 34  1  0
 11 35  1  0
 11 36  1  0
 12 37  1  6
 24 38  1  0
M  ISO  8  26  14  27  14  28  14  29  13  30  13  31  13  32  13  33  13
M  ISO  5  34  13  35  13  36  13  37  13  38   6
M  END
>  <minimizedAffinity>  (1) 
-5.15424919

>  <minimizedRMSD>  (1) 
1.23657513

$$$$
