
     RDKit          3D

 36 38  0  0  1  0  0  0  0  0999 V2000
   46.6660   31.2180   43.2450 C   0  0  1  0  0  0  0  0  0  0  0  0
   47.9590   30.5880   43.6850 C   0  0  0  0  0  0  0  0  0  0  0  0
   46.8020   30.7670   44.6450 C   0  0  1  0  0  0  0  0  0  0  0  0
   45.4840   34.7270   43.2810 C   0  0  0  0  0  0  0  0  0  0  0  0
   46.5430   35.3860   42.5920 C   0  0  0  0  0  0  0  0  0  0  0  0
   47.6170   34.6190   42.1460 C   0  0  0  0  0  0  0  0  0  0  0  0
   47.6200   33.2710   42.3840 N   0  0  0  0  0  0  0  0  0  0  0  0
   46.5950   32.6870   43.0420 C   0  0  0  0  0  0  0  0  0  0  0  0
   45.5570   33.4050   43.4760 N   0  0  0  0  0  0  0  0  0  0  0  0
   48.7550   35.2820   41.4240 C   0  0  0  0  0  0  0  0  0  0  0  0
   48.7450   36.5840   41.9500 F   0  0  0  0  0  0  0  0  0  0  0  0
   49.9740   34.7390   41.7440 F   0  0  0  0  0  0  0  0  0  0  0  0
   48.5430   35.3590   40.0870 F   0  0  0  0  0  0  0  0  0  0  0  0
   47.1280   31.6810   45.6990 N   0  0  0  0  0  0  0  0  0  0  0  0
   46.1390   31.7640   46.7460 C   0  0  1  0  0  0  0  0  0  0  0  0
   45.4160   30.4660   46.8270 C   0  0  0  0  0  0  0  0  0  0  0  0
   45.4850   29.8330   48.2010 C   0  0  0  0  0  0  0  0  0  0  0  0
   44.8550   30.9050   49.1010 C   0  0  0  0  0  0  0  0  0  0  0  0
   45.9270   31.9560   49.2570 C   0  0  0  0  0  0  0  0  0  0  0  0
   46.6530   32.3250   48.0280 C   0  0  0  0  0  0  0  0  0  0  0  0
   45.9807   31.0169   42.4084 H   0  0  0  0  0  0  0  0  0  0  0  0
   48.2345   29.5837   43.3308 H   0  0  0  0  0  0  0  0  0  0  0  0
   49.0199   30.8784   43.6699 H   0  0  0  0  0  0  0  0  0  0  0  0
   46.1357   30.1560   45.2717 H   0  0  0  0  0  0  0  0  0  0  0  0
   44.6179   35.2974   43.6478 H   0  0  0  0  0  0  0  0  0  0  0  0
   46.5132   36.4716   42.4169 H   0  0  0  0  0  0  0  0  0  0  0  0
   48.0186   31.3813   46.1207 H   0  0  0  0  0  0  0  0  0  0  0  0
   45.3895   32.5261   46.4863 H   0  0  0  0  0  0  0  0  0  0  0  0
   44.3595   30.6372   46.5729 H   0  0  0  0  0  0  0  0  0  0  0  0
   45.9020   29.7750   46.1225 H   0  0  0  0  0  0  0  0  0  0  0  0
   44.9078   28.8973   48.2356 H   0  0  0  0  0  0  0  0  0  0  0  0
   46.5061   29.5563   48.5024 H   0  0  0  0  0  0  0  0  0  0  0  0
   43.9596   31.3323   48.6261 H   0  0  0  0  0  0  0  0  0  0  0  0
   44.5304   30.4960   50.0692 H   0  0  0  0  0  0  0  0  0  0  0  0
   46.1530   32.4187   50.2290 H   0  0  0  0  0  0  0  0  0  0  0  0
   47.5334   32.9839   48.0557 H   0  0  0  0  0  0  0  0  0  0  0  0
  1  2  1  0
  1  3  1  0
  2  3  1  0
  3 14  1  0
  4  9  2  0
  5  4  1  0
  6  7  1  0
  6  5  2  0
  7  8  2  0
  8  1  1  0
  8  9  1  0
 10 12  1  0
 10 11  1  0
 10  6  1  0
 13 10  1  0
 15 14  1  0
 15 16  1  0
 15 20  1  0
 16 17  1  0
 17 18  1  0
 18 19  1  0
 20 19  2  0
  1 21  1  6
  2 22  1  0
  2 23  1  0
  3 24  1  1
  4 25  1  0
  5 26  1  0
 14 27  1  0
 15 28  1  6
 16 29  1  0
 16 30  1  0
 17 31  1  0
 17 32  1  0
 18 33  1  0
 18 34  1  0
 19 35  1  0
 20 36  1  0
M  ISO  8  21  13  22  13  23  13  24  13  25  14  26  14  27   5  28  13
M  ISO  8  29  13  30  13  31  13  32  13  33  13  34  13  35  13  36  13
M  END
>  <minimizedAffinity>  (1) 
-5.15069437

>  <minimizedRMSD>  (1) 
2.99718666

$$$$
