
     RDKit          3D

 35 37  0  0  1  0  0  0  0  0999 V2000
   46.4330   31.5940   43.9200 C   0  0  1  0  0  0  0  0  0  0  0  0
   47.4720   31.1680   44.9240 C   0  0  0  0  0  0  0  0  0  0  0  0
   46.0310   31.3810   45.3240 C   0  0  1  0  0  0  0  0  0  0  0  0
   45.3180   35.0590   43.2350 C   0  0  0  0  0  0  0  0  0  0  0  0
   46.4140   35.5660   42.4860 C   0  0  0  0  0  0  0  0  0  0  0  0
   47.4980   34.7100   42.2470 C   0  0  0  0  0  0  0  0  0  0  0  0
   47.4610   33.4420   42.7340 N   0  0  0  0  0  0  0  0  0  0  0  0
   46.4070   32.9930   43.4400 C   0  0  0  0  0  0  0  0  0  0  0  0
   45.3480   33.7950   43.6870 N   0  0  0  0  0  0  0  0  0  0  0  0
   48.6790   35.2180   41.4660 C   0  0  0  0  0  0  0  0  0  0  0  0
   48.8190   36.5380   41.9290 F   0  0  0  0  0  0  0  0  0  0  0  0
   49.8430   34.5660   41.7890 F   0  0  0  0  0  0  0  0  0  0  0  0
   48.4420   35.2540   40.1310 F   0  0  0  0  0  0  0  0  0  0  0  0
   45.8920   32.4850   46.2410 N   0  0  0  0  0  0  0  0  0  0  0  0
   45.2520   32.1800   47.4760 C   0  0  0  0  0  0  0  0  0  0  0  0
   46.1250   32.2990   48.6790 C   0  0  0  0  0  0  0  0  0  0  0  0
   45.3920   31.4430   49.6960 C   0  0  0  0  0  0  0  0  0  0  0  0
   45.1460   30.1850   48.8660 C   0  0  0  0  0  0  0  0  0  0  0  0
   44.9110   30.7040   47.4590 C   0  0  0  0  0  0  0  0  0  0  0  0
   46.1296   31.2005   42.9386 H   0  0  0  0  0  0  0  0  0  0  0  0
   47.8927   30.1522   44.8887 H   0  0  0  0  0  0  0  0  0  0  0  0
   48.4461   31.5539   45.2591 H   0  0  0  0  0  0  0  0  0  0  0  0
   45.1939   30.8113   45.7538 H   0  0  0  0  0  0  0  0  0  0  0  0
   44.4484   35.6995   43.4437 H   0  0  0  0  0  0  0  0  0  0  0  0
   46.4118   36.5981   42.1056 H   0  0  0  0  0  0  0  0  0  0  0  0
   46.8346   32.8427   46.4520 H   0  0  0  0  0  0  0  0  0  0  0  0
   44.4117   32.8859   47.5504 H   0  0  0  0  0  0  0  0  0  0  0  0
   47.1331   31.9062   48.4802 H   0  0  0  0  0  0  0  0  0  0  0  0
   46.2825   33.3367   49.0082 H   0  0  0  0  0  0  0  0  0  0  0  0
   46.0161   31.2337   50.5773 H   0  0  0  0  0  0  0  0  0  0  0  0
   44.4852   31.9021   50.1165 H   0  0  0  0  0  0  0  0  0  0  0  0
   46.0227   29.5213   48.8952 H   0  0  0  0  0  0  0  0  0  0  0  0
   44.2992   29.5922   49.2422 H   0  0  0  0  0  0  0  0  0  0  0  0
   43.8583   30.5615   47.1734 H   0  0  0  0  0  0  0  0  0  0  0  0
   45.5316   30.1632   46.7293 H   0  0  0  0  0  0  0  0  0  0  0  0
  1  2  1  0
  1  3  1  0
  2  3  1  0
  3 14  1  0
  4  9  2  0
  5  4  1  0
  6  5  2  0
  6  7  1  0
  7  8  2  0
  8  9  1  0
  8  1  1  0
 10 12  1  0
 10 11  1  0
 10  6  1  0
 13 10  1  0
 14 15  1  0
 15 16  1  0
 16 17  1  0
 18 17  1  0
 19 15  1  0
 19 18  1  0
  1 20  1  6
  2 21  1  0
  2 22  1  0
  3 23  1  6
  4 24  1  0
  5 25  1  0
 14 26  1  0
 15 27  1  0
 16 28  1  0
 16 29  1  0
 17 30  1  0
 17 31  1  0
 18 32  1  0
 18 33  1  0
 19 34  1  0
 19 35  1  0
M  ISO  8  20  13  21  13  22  13  23  13  24  14  25  14  26   5  27  13
M  ISO  8  28  13  29  13  30  13  31  13  32  13  33  13  34  13  35  13
M  END
>  <minimizedAffinity>  (1) 
-5.18632507

>  <minimizedRMSD>  (1) 
2.16816139

$$$$
