
     RDKit          3D

 39 42  0  0  1  0  0  0  0  0999 V2000
   44.9760   34.0640   42.1930 C   0  0  1  0  0  0  0  0  0  0  0  0
   43.9650   35.1060   42.5370 C   0  0  0  0  0  0  0  0  0  0  0  0
   43.7880   34.2460   41.3210 C   0  0  1  0  0  0  0  0  0  0  0  0
   48.3480   35.5330   41.7810 C   0  0  0  0  0  0  0  0  0  0  0  0
   48.6640   35.1310   40.4560 C   0  0  0  0  0  0  0  0  0  0  0  0
   47.7360   34.3880   39.7530 C   0  0  0  0  0  0  0  0  0  0  0  0
   46.5520   34.0630   40.3440 N   0  0  0  0  0  0  0  0  0  0  0  0
   46.2740   34.4520   41.5940 C   0  0  0  0  0  0  0  0  0  0  0  0
   47.1710   35.1850   42.3070 N   0  0  0  0  0  0  0  0  0  0  0  0
   48.0480   33.9550   38.3480 C   0  0  0  0  0  0  0  0  0  0  0  0
   48.9490   32.9060   38.5200 F   0  0  0  0  0  0  0  0  0  0  0  0
   46.9430   33.4600   37.6920 F   0  0  0  0  0  0  0  0  0  0  0  0
   48.6470   34.9490   37.6230 F   0  0  0  0  0  0  0  0  0  0  0  0
   43.8520   34.9700   40.0900 N   0  0  0  0  0  0  0  0  0  0  0  0
   42.8600   34.5250   39.1390 C   0  0  2  0  0  0  0  0  0  0  0  0
   42.1010   35.6340   38.4630 C   0  0  0  0  0  0  0  0  0  0  0  0
   41.4490   34.6700   39.4550 C   0  0  1  0  0  0  0  0  0  0  0  0
   40.6260   33.5980   38.8870 N   0  0  0  0  0  0  0  0  0  0  0  0
   41.3390   32.6070   38.3200 C   0  0  0  0  0  0  0  0  0  0  0  0
   40.6670   31.5470   37.7550 C   0  0  0  0  0  0  0  0  0  0  0  0
   39.2870   31.5700   37.8080 C   0  0  0  0  0  0  0  0  0  0  0  0
   38.7090   30.5870   37.2810 O   0  0  0  0  0  0  0  0  0  0  0  0
   38.6310   32.5950   38.3910 N   0  0  0  0  0  0  0  0  0  0  0  0
   39.2890   33.6380   38.9470 C   0  0  0  0  0  0  0  0  0  0  0  0
   38.6860   34.5980   39.4940 O   0  0  0  0  0  0  0  0  0  0  0  0
   45.4310   33.2447   42.7689 H   0  0  0  0  0  0  0  0  0  0  0  0
   43.3080   34.9702   43.4087 H   0  0  0  0  0  0  0  0  0  0  0  0
   43.9943   36.1885   42.7301 H   0  0  0  0  0  0  0  0  0  0  0  0
   43.0626   33.5248   40.9165 H   0  0  0  0  0  0  0  0  0  0  0  0
   49.0656   36.1250   42.3680 H   0  0  0  0  0  0  0  0  0  0  0  0
   49.6266   35.4054   39.9998 H   0  0  0  0  0  0  0  0  0  0  0  0
   43.6983   35.9695   40.2854 H   0  0  0  0  0  0  0  0  0  0  0  0
   43.4566   33.6589   38.8165 H   0  0  0  0  0  0  0  0  0  0  0  0
   42.2809   36.6829   38.7412 H   0  0  0  0  0  0  0  0  0  0  0  0
   41.9155   35.9517   37.4263 H   0  0  0  0  0  0  0  0  0  0  0  0
   40.8441   34.8152   40.3622 H   0  0  0  0  0  0  0  0  0  0  0  0
   42.4383   32.6436   38.3084 H   0  0  0  0  0  0  0  0  0  0  0  0
   41.2074   30.7148   37.2802 H   0  0  0  0  0  0  0  0  0  0  0  0
   37.6013   32.5829   38.4133 H   0  0  0  0  0  0  0  0  0  0  0  0
  1  2  1  0
  3  1  1  0
  3  2  1  0
  4  9  2  0
  5  4  1  0
  6  7  1  0
  6  5  2  0
  7  8  2  0
  8  1  1  0
  8  9  1  0
 10 11  1  0
 10  6  1  0
 12 10  1  0
 13 10  1  0
 14  3  1  0
 15 17  1  0
 15 14  1  0
 16 15  1  0
 16 17  1  0
 18 24  1  0
 18 17  1  0
 19 18  1  0
 20 21  1  0
 20 19  2  0
 21 23  1  0
 22 21  2  0
 23 24  1  0
 24 25  2  0
  1 26  1  1
  2 27  1  0
  2 28  1  0
  3 29  1  1
  4 30  1  0
  5 31  1  0
 14 32  1  0
 15 33  1  6
 16 34  1  0
 16 35  1  0
 17 36  1  1
 19 37  1  0
 20 38  1  0
 23 39  1  0
M  ISO  8  26  13  27  13  28  13  29  13  30  14  31  14  32   5  33  13
M  ISO  6  34  13  35  13  36  13  37  14  38  14  39   9
M  END
>  <minimizedAffinity>  (1) 
-5.78362846

>  <minimizedRMSD>  (1) 
4.36717319

$$$$
