
     RDKit          3D

 37 40  0  0  1  0  0  0  0  0999 V2000
   44.4400   34.1600   42.0420 C   0  0  1  0  0  0  0  0  0  0  0  0
   43.4820   35.2850   42.2450 C   0  0  0  0  0  0  0  0  0  0  0  0
   43.3540   34.3810   41.0550 C   0  0  1  0  0  0  0  0  0  0  0  0
   47.9350   35.3740   41.8610 C   0  0  0  0  0  0  0  0  0  0  0  0
   48.3410   34.8670   40.5950 C   0  0  0  0  0  0  0  0  0  0  0  0
   47.4180   34.1360   39.8500 C   0  0  0  0  0  0  0  0  0  0  0  0
   46.1690   33.9330   40.3520 N   0  0  0  0  0  0  0  0  0  0  0  0
   45.8130   34.4240   41.5470 C   0  0  0  0  0  0  0  0  0  0  0  0
   46.6940   35.1370   42.2920 N   0  0  0  0  0  0  0  0  0  0  0  0
   47.8230   33.5960   38.5120 C   0  0  0  0  0  0  0  0  0  0  0  0
   49.0160   32.9230   38.7790 F   0  0  0  0  0  0  0  0  0  0  0  0
   46.9220   32.6770   38.0250 F   0  0  0  0  0  0  0  0  0  0  0  0
   48.0620   34.5890   37.6030 F   0  0  0  0  0  0  0  0  0  0  0  0
   43.5860   35.0260   39.8010 N   0  0  0  0  0  0  0  0  0  0  0  0
   42.6030   34.6660   38.8070 C   0  0  2  0  0  0  0  0  0  0  0  0
   42.0730   35.8120   38.0020 C   0  0  0  0  0  0  0  0  0  0  0  0
   41.2120   35.0490   39.0110 C   0  0  1  0  0  0  0  0  0  0  0  0
   40.2380   34.0610   38.4430 C   0  0  0  0  0  0  0  0  0  0  0  0
   40.5310   32.7250   38.4540 C   0  0  0  0  0  0  0  0  0  0  0  0
   39.6760   31.7770   37.9470 C   0  0  0  0  0  0  0  0  0  0  0  0
   38.4960   32.1530   37.4120 N   0  0  0  0  0  0  0  0  0  0  0  0
   38.2010   33.4820   37.4000 C   0  0  0  0  0  0  0  0  0  0  0  0
   39.0530   34.3720   37.8990 N   0  0  0  0  0  0  0  0  0  0  0  0
   44.7792   33.3421   42.6946 H   0  0  0  0  0  0  0  0  0  0  0  0
   42.7399   35.2379   43.0556 H   0  0  0  0  0  0  0  0  0  0  0  0
   43.5733   36.3710   42.3944 H   0  0  0  0  0  0  0  0  0  0  0  0
   42.6134   33.6966   40.6157 H   0  0  0  0  0  0  0  0  0  0  0  0
   48.6363   35.9550   42.4780 H   0  0  0  0  0  0  0  0  0  0  0  0
   49.3571   35.0475   40.2144 H   0  0  0  0  0  0  0  0  0  0  0  0
   43.5550   36.0457   39.9428 H   0  0  0  0  0  0  0  0  0  0  0  0
   43.0782   33.6987   38.5867 H   0  0  0  0  0  0  0  0  0  0  0  0
   42.4005   36.8403   38.2148 H   0  0  0  0  0  0  0  0  0  0  0  0
   42.0046   36.0649   36.9336 H   0  0  0  0  0  0  0  0  0  0  0  0
   40.5855   35.3547   39.8619 H   0  0  0  0  0  0  0  0  0  0  0  0
   41.4882   32.3971   38.8855 H   0  0  0  0  0  0  0  0  0  0  0  0
   39.9530   30.7129   37.9772 H   0  0  0  0  0  0  0  0  0  0  0  0
   37.2467   33.8232   36.9725 H   0  0  0  0  0  0  0  0  0  0  0  0
  1  2  1  0
  3  1  1  0
  3  2  1  0
  4  9  2  0
  5  4  1  0
  6  7  1  0
  6  5  2  0
  7  8  2  0
  8  1  1  0
  8  9  1  0
 10 11  1  0
 10  6  1  0
 12 10  1  0
 13 10  1  0
 14  3  1  0
 15 17  1  0
 15 14  1  0
 16 15  1  0
 16 17  1  0
 18 19  2  0
 18 17  1  0
 20 19  1  0
 21 20  2  0
 22 21  1  0
 22 23  2  0
 23 18  1  0
  1 24  1  1
  2 25  1  0
  2 26  1  0
  3 27  1  6
  4 28  1  0
  5 29  1  0
 14 30  1  0
 15 31  1  6
 16 32  1  0
 16 33  1  0
 17 34  1  1
 19 35  1  0
 20 36  1  0
 22 37  1  0
M  ISO  8  24  13  25  13  26  13  27  13  28  14  29  14  30   5  31  13
M  ISO  6  32  13  33  13  34  13  35  14  36  14  37  14
M  END
>  <minimizedAffinity>  (1) 
-5.74907064

>  <minimizedRMSD>  (1) 
3.71330476

$$$$
