
     RDKit          3D

 42 45  0  0  1  0  0  0  0  0999 V2000
   45.3010   30.7700   42.4490 C   0  0  1  0  0  0  0  0  0  0  0  0
   44.6310   29.9850   43.5260 C   0  0  0  0  0  0  0  0  0  0  0  0
   43.8330   30.5620   42.3920 C   0  0  1  0  0  0  0  0  0  0  0  0
   45.6900   34.1000   44.0100 C   0  0  0  0  0  0  0  0  0  0  0  0
   46.6010   34.7190   43.1130 C   0  0  0  0  0  0  0  0  0  0  0  0
   47.0510   33.9950   42.0120 C   0  0  0  0  0  0  0  0  0  0  0  0
   46.6020   32.7240   41.8350 N   0  0  0  0  0  0  0  0  0  0  0  0
   45.7430   32.1600   42.6930 C   0  0  0  0  0  0  0  0  0  0  0  0
   45.2910   32.8470   43.7760 N   0  0  0  0  0  0  0  0  0  0  0  0
   48.0090   34.6350   41.0540 C   0  0  0  0  0  0  0  0  0  0  0  0
   49.1180   33.7900   41.0890 F   0  0  0  0  0  0  0  0  0  0  0  0
   47.5280   34.6470   39.7670 F   0  0  0  0  0  0  0  0  0  0  0  0
   48.3870   35.8840   41.4570 F   0  0  0  0  0  0  0  0  0  0  0  0
   42.9090   31.5770   42.7980 N   0  0  0  0  0  0  0  0  0  0  0  0
   42.1200   32.0740   41.6960 C   0  0  2  0  0  0  0  0  0  0  0  0
   41.7390   31.0300   40.6720 C   0  0  0  0  0  0  0  0  0  0  0  0
   42.7240   32.1570   40.3720 C   0  0  1  0  0  0  0  0  0  0  0  0
   42.1820   33.2460   39.5550 N   0  0  0  0  0  0  0  0  0  0  0  0
   40.9650   33.2060   39.0370 C   0  0  0  0  0  0  0  0  0  0  0  0
   40.6040   34.3070   38.2940 C   0  0  0  0  0  0  0  0  0  0  0  0
   39.2600   34.3930   37.6530 C   0  0  0  0  0  0  0  0  0  0  0  0
   41.4620   35.3920   38.0980 C   0  0  0  0  0  0  0  0  0  0  0  0
   41.2040   36.4180   37.4410 O   0  0  0  0  0  0  0  0  0  0  0  0
   42.7050   35.3700   38.6610 N   0  0  0  0  0  0  0  0  0  0  0  0
   43.0450   34.2880   39.3850 C   0  0  0  0  0  0  0  0  0  0  0  0
   44.2120   34.2920   39.9000 O   0  0  0  0  0  0  0  0  0  0  0  0
   46.1674   30.5621   41.8039 H   0  0  0  0  0  0  0  0  0  0  0  0
   44.7862   28.8981   43.5943 H   0  0  0  0  0  0  0  0  0  0  0  0
   44.5853   30.0452   44.6234 H   0  0  0  0  0  0  0  0  0  0  0  0
   43.1753   30.2125   41.5825 H   0  0  0  0  0  0  0  0  0  0  0  0
   45.3169   34.6470   44.8884 H   0  0  0  0  0  0  0  0  0  0  0  0
   46.9442   35.7499   43.2847 H   0  0  0  0  0  0  0  0  0  0  0  0
   42.2751   31.1828   43.5077 H   0  0  0  0  0  0  0  0  0  0  0  0
   41.5865   32.8103   42.3151 H   0  0  0  0  0  0  0  0  0  0  0  0
   42.0927   29.9935   40.7748 H   0  0  0  0  0  0  0  0  0  0  0  0
   40.8032   30.6562   40.2309 H   0  0  0  0  0  0  0  0  0  0  0  0
   43.7507   32.1944   39.9789 H   0  0  0  0  0  0  0  0  0  0  0  0
   40.2887   32.3520   39.1896 H   0  0  0  0  0  0  0  0  0  0  0  0
   38.4848   34.4426   38.4319 H   0  0  0  0  0  0  0  0  0  0  0  0
   39.2093   35.2962   37.0272 H   0  0  0  0  0  0  0  0  0  0  0  0
   39.0946   33.5036   37.0272 H   0  0  0  0  0  0  0  0  0  0  0  0
   43.3604   36.1547   38.5360 H   0  0  0  0  0  0  0  0  0  0  0  0
  1  8  1  0
  1  2  1  0
  3  1  1  0
  3 14  1  0
  3  2  1  0
  5  4  2  0
  6  5  1  0
  7  6  2  0
  7  8  1  0
  8  9  2  0
  9  4  1  0
 10 11  1  0
 10 13  1  0
 10  6  1  0
 12 10  1  0
 15 14  1  0
 16 15  1  0
 17 16  1  0
 17 15  1  0
 18 17  1  0
 19 18  1  0
 20 19  2  0
 21 20  1  0
 22 20  1  0
 22 24  1  0
 23 22  2  0
 24 25  1  0
 25 18  1  0
 25 26  2  0
  1 27  1  6
  2 28  1  0
  2 29  1  0
  3 30  1  6
  4 31  1  0
  5 32  1  0
 14 33  1  0
 15 34  1  1
 16 35  1  0
 16 36  1  0
 17 37  1  1
 19 38  1  0
 21 39  1  0
 21 40  1  0
 21 41  1  0
 24 42  1  0
M  ISO  8  27  13  28  13  29  13  30  13  31  14  32  14  33   5  34  13
M  ISO  8  35  13  36  13  37  13  38  14  39   8  40   8  41   8  42   9
M  END
>  <minimizedAffinity>  (1) 
-5.74080801

>  <minimizedRMSD>  (1) 
3.72376966

$$$$
