
     RDKit          3D

 39 42  0  0  1  0  0  0  0  0999 V2000
   41.5630   35.6300   39.6010 C   0  0  1  0  0  0  0  0  0  0  0  0
   41.2010   35.1930   38.2180 C   0  0  0  0  0  0  0  0  0  0  0  0
   40.4890   34.6220   39.4100 C   0  0  1  0  0  0  0  0  0  0  0  0
   44.6270   33.6500   40.2410 C   0  0  0  0  0  0  0  0  0  0  0  0
   45.0970   34.2470   41.4510 C   0  0  0  0  0  0  0  0  0  0  0  0
   44.3630   35.2830   41.9950 C   0  0  0  0  0  0  0  0  0  0  0  0
   43.2230   35.7030   41.3720 N   0  0  0  0  0  0  0  0  0  0  0  0
   42.8040   35.1250   40.2370 C   0  0  0  0  0  0  0  0  0  0  0  0
   43.5040   34.1040   39.6770 N   0  0  0  0  0  0  0  0  0  0  0  0
   44.8330   35.9270   43.2690 C   0  0  0  0  0  0  0  0  0  0  0  0
   45.9680   35.1910   43.6070 F   0  0  0  0  0  0  0  0  0  0  0  0
   45.2220   37.2370   43.0870 F   0  0  0  0  0  0  0  0  0  0  0  0
   43.9100   35.8200   44.2700 F   0  0  0  0  0  0  0  0  0  0  0  0
   40.7150   33.2260   39.6090 N   0  0  0  0  0  0  0  0  0  0  0  0
   39.4880   32.4710   39.6850 C   0  0  2  0  0  0  0  0  0  0  0  0
   38.3970   33.1260   40.4710 C   0  0  0  0  0  0  0  0  0  0  0  0
   39.1010   31.8680   40.9530 C   0  0  1  0  0  0  0  0  0  0  0  0
   38.3870   30.5610   40.7940 C   0  0  0  0  0  0  0  0  0  0  0  0
   38.2130   29.7110   41.8910 C   0  0  0  0  0  0  0  0  0  0  0  0
   37.5400   28.4980   41.7050 C   0  0  0  0  0  0  0  0  0  0  0  0
   37.0700   28.1710   40.4590 C   0  0  0  0  0  0  0  0  0  0  0  0
   37.2380   29.0030   39.3730 C   0  0  0  0  0  0  0  0  0  0  0  0
   37.9060   30.2010   39.5740 C   0  0  0  0  0  0  0  0  0  0  0  0
   41.6599   36.6192   40.0723 H   0  0  0  0  0  0  0  0  0  0  0  0
   41.8950   34.5670   37.6380 H   0  0  0  0  0  0  0  0  0  0  0  0
   40.8917   35.7027   37.2936 H   0  0  0  0  0  0  0  0  0  0  0  0
   39.4651   34.5605   39.8073 H   0  0  0  0  0  0  0  0  0  0  0  0
   45.1852   32.8232   39.7775 H   0  0  0  0  0  0  0  0  0  0  0  0
   46.0180   33.8914   41.9360 H   0  0  0  0  0  0  0  0  0  0  0  0
   41.2751   32.8670   38.8227 H   0  0  0  0  0  0  0  0  0  0  0  0
   39.5971   32.0581   38.6713 H   0  0  0  0  0  0  0  0  0  0  0  0
   38.5739   34.0890   40.9723 H   0  0  0  0  0  0  0  0  0  0  0  0
   37.3559   33.4260   40.2808 H   0  0  0  0  0  0  0  0  0  0  0  0
   39.5938   31.5983   41.8987 H   0  0  0  0  0  0  0  0  0  0  0  0
   38.5983   29.9909   42.8825 H   0  0  0  0  0  0  0  0  0  0  0  0
   37.3893   27.8123   42.5518 H   0  0  0  0  0  0  0  0  0  0  0  0
   36.5427   27.2154   40.3220 H   0  0  0  0  0  0  0  0  0  0  0  0
   36.8548   28.7256   38.3799 H   0  0  0  0  0  0  0  0  0  0  0  0
   38.0513   30.8806   38.7213 H   0  0  0  0  0  0  0  0  0  0  0  0
  1  8  1  0
  2  3  1  0
  2  1  1  0
  3  1  1  0
  3 14  1  0
  4  5  2  0
  5  6  1  0
  6 10  1  0
  7  6  2  0
  8  7  1  0
  9  8  2  0
  9  4  1  0
 10 11  1  0
 10 13  1  0
 12 10  1  0
 14 15  1  0
 15 16  1  0
 15 17  1  0
 16 17  1  0
 18 17  1  0
 18 19  2  0
 20 19  1  0
 21 20  2  0
 22 23  2  0
 22 21  1  0
 23 18  1  0
  1 24  1  6
  2 25  1  0
  2 26  1  0
  3 27  1  6
  4 28  1  0
  5 29  1  0
 14 30  1  0
 15 31  1  6
 16 32  1  0
 16 33  1  0
 17 34  1  1
 19 35  1  0
 20 36  1  0
 21 37  1  0
 22 38  1  0
 23 39  1  0
M  ISO  8  24  13  25  13  26  13  27  13  28  14  29  14  30   5  31  13
M  ISO  8  32  13  33  13  34  13  35  14  36  14  37  14  38  14  39  14
M  END
>  <minimizedAffinity>  (1) 
-5.79242849

>  <minimizedRMSD>  (1) 
5.92480755

$$$$
