
     RDKit          3D

 38 41  0  0  1  0  0  0  0  0999 V2000
   45.5700   31.2140   42.6130 C   0  0  1  0  0  0  0  0  0  0  0  0
   44.8330   30.6210   43.7670 C   0  0  0  0  0  0  0  0  0  0  0  0
   44.1140   30.9470   42.4870 C   0  0  1  0  0  0  0  0  0  0  0  0
   45.7290   34.7980   43.5200 C   0  0  0  0  0  0  0  0  0  0  0  0
   46.7180   35.2690   42.6240 C   0  0  0  0  0  0  0  0  0  0  0  0
   47.3020   34.3580   41.7340 C   0  0  0  0  0  0  0  0  0  0  0  0
   46.8970   33.0590   41.7640 N   0  0  0  0  0  0  0  0  0  0  0  0
   45.9590   32.6420   42.6220 C   0  0  0  0  0  0  0  0  0  0  0  0
   45.3840   33.5080   43.4890 N   0  0  0  0  0  0  0  0  0  0  0  0
   48.3520   34.8320   40.7720 C   0  0  0  0  0  0  0  0  0  0  0  0
   49.3820   33.9070   40.9420 F   0  0  0  0  0  0  0  0  0  0  0  0
   47.9320   34.7660   39.4660 F   0  0  0  0  0  0  0  0  0  0  0  0
   48.8180   36.0770   41.0890 F   0  0  0  0  0  0  0  0  0  0  0  0
   43.1400   31.9880   42.6200 N   0  0  0  0  0  0  0  0  0  0  0  0
   42.3780   32.1870   41.4110 C   0  0  2  0  0  0  0  0  0  0  0  0
   43.2060   32.2390   40.1580 C   0  0  0  0  0  0  0  0  0  0  0  0
   42.4880   33.4640   40.7090 C   0  0  1  0  0  0  0  0  0  0  0  0
   41.2770   33.8170   39.8950 C   0  0  0  0  0  0  0  0  0  0  0  0
   40.0210   33.7280   40.4590 C   0  0  0  0  0  0  0  0  0  0  0  0
   38.8610   34.0400   39.7610 C   0  0  0  0  0  0  0  0  0  0  0  0
   38.9520   34.4590   38.4470 C   0  0  0  0  0  0  0  0  0  0  0  0
   40.2210   34.5370   37.9120 C   0  0  0  0  0  0  0  0  0  0  0  0
   41.3360   34.2310   38.6010 N   0  0  0  0  0  0  0  0  0  0  0  0
   46.4894   30.9197   42.0857 H   0  0  0  0  0  0  0  0  0  0  0  0
   45.0051   29.5724   44.0512 H   0  0  0  0  0  0  0  0  0  0  0  0
   44.6993   30.8840   44.8267 H   0  0  0  0  0  0  0  0  0  0  0  0
   43.5290   30.4281   41.7133 H   0  0  0  0  0  0  0  0  0  0  0  0
   45.2505   35.4856   44.2329 H   0  0  0  0  0  0  0  0  0  0  0  0
   47.0214   36.3263   42.6262 H   0  0  0  0  0  0  0  0  0  0  0  0
   42.4927   31.7398   43.3817 H   0  0  0  0  0  0  0  0  0  0  0  0
   41.5126   31.6094   41.7680 H   0  0  0  0  0  0  0  0  0  0  0  0
   42.8513   31.7541   39.2365 H   0  0  0  0  0  0  0  0  0  0  0  0
   44.2405   31.9860   39.8827 H   0  0  0  0  0  0  0  0  0  0  0  0
   42.7777   34.4822   41.0079 H   0  0  0  0  0  0  0  0  0  0  0  0
   39.9345   33.3964   41.5043 H   0  0  0  0  0  0  0  0  0  0  0  0
   37.8792   33.9544   40.2496 H   0  0  0  0  0  0  0  0  0  0  0  0
   38.0591   34.7168   37.8586 H   0  0  0  0  0  0  0  0  0  0  0  0
   40.3273   34.8664   36.8679 H   0  0  0  0  0  0  0  0  0  0  0  0
  1  8  1  0
  1  2  1  0
  3  1  1  0
  3 14  1  0
  3  2  1  0
  5  4  2  0
  6  7  2  0
  6  5  1  0
  7  8  1  0
  8  9  2  0
  9  4  1  0
 10 11  1  0
 10 13  1  0
 10  6  1  0
 12 10  1  0
 15 14  1  0
 16 17  1  0
 16 15  1  0
 17 15  1  0
 18 19  2  0
 18 17  1  0
 20 19  1  0
 21 20  2  0
 22 21  1  0
 22 23  2  0
 23 18  1  0
  1 24  1  6
  2 25  1  0
  2 26  1  0
  3 27  1  6
  4 28  1  0
  5 29  1  0
 14 30  1  0
 15 31  1  6
 16 32  1  0
 16 33  1  0
 17 34  1  1
 19 35  1  0
 20 36  1  0
 21 37  1  0
 22 38  1  0
M  ISO  8  24  13  25  13  26  13  27  13  28  14  29  14  30   5  31  13
M  ISO  7  32  13  33  13  34  13  35  14  36  14  37  14  38  14
M  END
>  <minimizedAffinity>  (1) 
-5.42794085

>  <minimizedRMSD>  (1) 
2.99981332

$$$$
