
     RDKit          3D

 36 39  0  0  1  0  0  0  0  0999 V2000
   44.1590   32.0960   41.3840 C   0  0  1  0  0  0  0  0  0  0  0  0
   43.1760   31.4940   42.3360 C   0  0  0  0  0  0  0  0  0  0  0  0
   42.7400   32.5410   41.3570 C   0  0  1  0  0  0  0  0  0  0  0  0
   45.8720   34.5780   43.5320 C   0  0  0  0  0  0  0  0  0  0  0  0
   46.9700   34.9500   42.7060 C   0  0  0  0  0  0  0  0  0  0  0  0
   47.0890   34.3540   41.4570 C   0  0  0  0  0  0  0  0  0  0  0  0
   46.1570   33.4390   41.0700 N   0  0  0  0  0  0  0  0  0  0  0  0
   45.1330   33.1060   41.8670 C   0  0  0  0  0  0  0  0  0  0  0  0
   44.9970   33.6740   43.0860 N   0  0  0  0  0  0  0  0  0  0  0  0
   48.2340   34.7330   40.5690 C   0  0  0  0  0  0  0  0  0  0  0  0
   49.1870   33.7470   40.8270 F   0  0  0  0  0  0  0  0  0  0  0  0
   47.9080   34.6630   39.2340 F   0  0  0  0  0  0  0  0  0  0  0  0
   48.7550   35.9540   40.8910 F   0  0  0  0  0  0  0  0  0  0  0  0
   42.3170   33.7650   41.9630 N   0  0  0  0  0  0  0  0  0  0  0  0
   42.1350   34.8220   40.9970 C   0  0  2  0  0  0  0  0  0  0  0  0
   40.8390   35.5810   41.1410 C   0  0  0  0  0  0  0  0  0  0  0  0
   41.1350   34.6740   39.9490 C   0  0  1  0  0  0  0  0  0  0  0  0
   41.4970   35.3830   38.6760 C   0  0  0  0  0  0  0  0  0  0  0  0
   40.6070   36.0840   37.8530 C   0  0  0  0  0  0  0  0  0  0  0  0
   41.2910   36.6040   36.7720 C   0  0  0  0  0  0  0  0  0  0  0  0
   42.5650   36.2150   36.9560 N   0  0  0  0  0  0  0  0  0  0  0  0
   42.7030   35.5100   38.0500 N   0  0  0  0  0  0  0  0  0  0  0  0
   44.8778   31.6617   40.6735 H   0  0  0  0  0  0  0  0  0  0  0  0
   42.8525   30.4505   42.2076 H   0  0  0  0  0  0  0  0  0  0  0  0
   43.1198   31.3753   43.4281 H   0  0  0  0  0  0  0  0  0  0  0  0
   42.0231   32.6482   40.5296 H   0  0  0  0  0  0  0  0  0  0  0  0
   45.7460   35.0304   44.5267 H   0  0  0  0  0  0  0  0  0  0  0  0
   47.7066   35.6917   43.0486 H   0  0  0  0  0  0  0  0  0  0  0  0
   41.4231   33.6025   42.4481 H   0  0  0  0  0  0  0  0  0  0  0  0
   43.2058   35.0716   40.9631 H   0  0  0  0  0  0  0  0  0  0  0  0
   40.0994   35.2822   41.8985 H   0  0  0  0  0  0  0  0  0  0  0  0
   40.5469   36.6317   41.2850 H   0  0  0  0  0  0  0  0  0  0  0  0
   40.6059   33.8321   39.4786 H   0  0  0  0  0  0  0  0  0  0  0  0
   39.5293   36.2022   38.0389 H   0  0  0  0  0  0  0  0  0  0  0  0
   40.8841   37.2033   35.9442 H   0  0  0  0  0  0  0  0  0  0  0  0
   43.3377   36.4439   36.3145 H   0  0  0  0  0  0  0  0  0  0  0  0
  1  8  1  0
  1  2  1  0
  3  1  1  0
  3 14  1  0
  3  2  1  0
  5  4  2  0
  6  5  1  0
  7  6  2  0
  7  8  1  0
  8  9  2  0
  9  4  1  0
 10 11  1  0
 10 13  1  0
 10  6  1  0
 12 10  1  0
 15 16  1  0
 15 14  1  0
 17 15  1  0
 17 16  1  0
 18 17  1  0
 19 18  1  0
 20 21  1  0
 20 19  2  0
 21 22  1  0
 22 18  2  0
  1 23  1  6
  2 24  1  0
  2 25  1  0
  3 26  1  6
  4 27  1  0
  5 28  1  0
 14 29  1  0
 15 30  1  6
 16 31  1  0
 16 32  1  0
 17 33  1  6
 19 34  1  0
 20 35  1  0
 21 36  1  0
M  ISO  8  23  13  24  13  25  13  26  13  27  14  28  14  29   5  30  13
M  ISO  6  31  13  32  13  33  13  34  14  35  14  36   9
M  END
>  <minimizedAffinity>  (1) 
-5.4115448

>  <minimizedRMSD>  (1) 
1.96200037

$$$$
