
     RDKit          3D

 36 38  0  0  1  0  0  0  0  0999 V2000
   44.0650   32.3940   41.2460 C   0  0  1  0  0  0  0  0  0  0  0  0
   43.0470   31.8110   42.1700 C   0  0  0  0  0  0  0  0  0  0  0  0
   42.6680   32.8940   41.2040 C   0  0  1  0  0  0  0  0  0  0  0  0
   45.8320   34.7950   43.4440 C   0  0  0  0  0  0  0  0  0  0  0  0
   46.9690   35.1080   42.6530 C   0  0  0  0  0  0  0  0  0  0  0  0
   47.0960   34.5050   41.4090 C   0  0  0  0  0  0  0  0  0  0  0  0
   46.1350   33.6360   40.9920 N   0  0  0  0  0  0  0  0  0  0  0  0
   45.0720   33.3560   41.7560 C   0  0  0  0  0  0  0  0  0  0  0  0
   44.9260   33.9340   42.9750 N   0  0  0  0  0  0  0  0  0  0  0  0
   48.2890   34.8200   40.5520 C   0  0  0  0  0  0  0  0  0  0  0  0
   49.1880   33.7970   40.8560 F   0  0  0  0  0  0  0  0  0  0  0  0
   48.0050   34.7460   39.2090 F   0  0  0  0  0  0  0  0  0  0  0  0
   48.8490   36.0220   40.8760 F   0  0  0  0  0  0  0  0  0  0  0  0
   42.2820   34.1200   41.8280 N   0  0  0  0  0  0  0  0  0  0  0  0
   41.3470   34.8760   41.0280 C   0  0  2  0  0  0  0  0  0  0  0  0
   39.9600   34.2810   40.9520 C   0  0  0  0  0  0  0  0  0  0  0  0
   40.9000   34.3220   39.7520 C   0  0  1  0  0  0  0  0  0  0  0  0
   40.5580   35.3560   38.7640 N   0  0  0  0  0  0  0  0  0  0  0  0
   41.6020   35.7440   37.8740 C   0  0  0  0  0  0  0  0  0  0  0  0
   42.7410   35.1310   37.8510 N   0  0  0  0  0  0  0  0  0  0  0  0
   41.3270   36.8420   37.0100 N   0  0  0  0  0  0  0  0  0  0  0  0
   43.5320   35.3780   37.2190 H   0  0  0  0  0  0  0  0  0  0  0  0
   44.7784   31.9442   40.5398 H   0  0  0  0  0  0  0  0  0  0  0  0
   42.6864   30.7833   42.0156 H   0  0  0  0  0  0  0  0  0  0  0  0
   42.9685   31.6728   43.2585 H   0  0  0  0  0  0  0  0  0  0  0  0
   41.9708   33.0456   40.3668 H   0  0  0  0  0  0  0  0  0  0  0  0
   45.6991   35.2573   44.4332 H   0  0  0  0  0  0  0  0  0  0  0  0
   47.7315   35.8120   43.0175 H   0  0  0  0  0  0  0  0  0  0  0  0
   41.8432   33.9055   42.7348 H   0  0  0  0  0  0  0  0  0  0  0  0
   41.7794   35.8487   41.3054 H   0  0  0  0  0  0  0  0  0  0  0  0
   39.7355   33.3267   41.4510 H   0  0  0  0  0  0  0  0  0  0  0  0
   38.9379   34.6244   41.1695 H   0  0  0  0  0  0  0  0  0  0  0  0
   41.2868   33.5703   39.0481 H   0  0  0  0  0  0  0  0  0  0  0  0
   39.6185   35.7757   38.7176 H   0  0  0  0  0  0  0  0  0  0  0  0
   42.0440   37.1666   36.3456 H   0  0  0  0  0  0  0  0  0  0  0  0
   40.4111   37.3116   37.0495 H   0  0  0  0  0  0  0  0  0  0  0  0
  1  8  1  0
  1  2  1  0
  3  1  1  0
  3 14  1  0
  3  2  1  0
  5  4  2  0
  6  5  1  0
  7  6  2  0
  7  8  1  0
  8  9  2  0
  9  4  1  0
 10 11  1  0
 10 13  1  0
 10  6  1  0
 12 10  1  0
 15 14  1  0
 16 15  1  0
 17 16  1  0
 17 15  1  0
 18 17  1  0
 19 18  1  0
 20 19  2  0
 21 19  1  0
 22 20  1  0
  1 23  1  6
  2 24  1  0
  2 25  1  0
  3 26  1  6
  4 27  1  0
  5 28  1  0
 14 29  1  0
 15 30  1  6
 16 31  1  0
 16 32  1  0
 17 33  1  6
 18 34  1  0
 21 35  1  0
 21 36  1  0
M  ISO  8  23  13  24  13  25  13  26  13  27  14  28  14  29   5  30  13
M  ISO  3  31  13  32  13  33  13
M  END
>  <minimizedAffinity>  (1) 
-5.58666468

>  <minimizedRMSD>  (1) 
2.0310905

$$$$
