
     RDKit          3D

 38 40  0  0  1  0  0  0  0  0999 V2000
   44.0920   32.3800   41.2090 C   0  0  1  0  0  0  0  0  0  0  0  0
   43.0560   31.8030   42.1160 C   0  0  0  0  0  0  0  0  0  0  0  0
   42.6960   32.8820   41.1340 C   0  0  1  0  0  0  0  0  0  0  0  0
   45.8270   34.7770   43.4340 C   0  0  0  0  0  0  0  0  0  0  0  0
   46.9700   35.1040   42.6580 C   0  0  0  0  0  0  0  0  0  0  0  0
   47.1110   34.5080   41.4090 C   0  0  0  0  0  0  0  0  0  0  0  0
   46.1580   33.6340   40.9750 N   0  0  0  0  0  0  0  0  0  0  0  0
   45.0910   33.3450   41.7300 C   0  0  0  0  0  0  0  0  0  0  0  0
   44.9310   33.9130   42.9480 N   0  0  0  0  0  0  0  0  0  0  0  0
   48.3070   34.8360   40.5620 C   0  0  0  0  0  0  0  0  0  0  0  0
   49.2120   33.8200   40.8720 F   0  0  0  0  0  0  0  0  0  0  0  0
   48.0360   34.7640   39.2160 F   0  0  0  0  0  0  0  0  0  0  0  0
   48.8570   36.0410   40.8960 F   0  0  0  0  0  0  0  0  0  0  0  0
   42.3010   34.1090   41.7500 N   0  0  0  0  0  0  0  0  0  0  0  0
   41.3050   34.8180   40.9820 C   0  0  2  0  0  0  0  0  0  0  0  0
   39.8970   34.3300   41.1860 C   0  0  0  0  0  0  0  0  0  0  0  0
   40.6460   34.1190   39.8740 C   0  0  1  0  0  0  0  0  0  0  0  0
   40.1320   35.0440   38.7640 C   0  0  0  0  0  0  0  0  0  0  0  0
   39.3260   34.2370   37.7390 C   0  0  0  0  0  0  0  0  0  0  0  0
   41.2250   35.7390   38.0230 C   0  0  0  0  0  0  0  0  0  0  0  0
   44.8193   31.9241   40.5211 H   0  0  0  0  0  0  0  0  0  0  0  0
   42.6983   30.7744   41.9609 H   0  0  0  0  0  0  0  0  0  0  0  0
   42.9558   31.6716   43.2035 H   0  0  0  0  0  0  0  0  0  0  0  0
   42.0175   33.0301   40.2810 H   0  0  0  0  0  0  0  0  0  0  0  0
   45.6805   35.2304   44.4255 H   0  0  0  0  0  0  0  0  0  0  0  0
   47.7245   35.8103   43.0346 H   0  0  0  0  0  0  0  0  0  0  0  0
   41.9136   33.9012   42.6815 H   0  0  0  0  0  0  0  0  0  0  0  0
   41.8255   35.7848   41.0478 H   0  0  0  0  0  0  0  0  0  0  0  0
   39.6949   33.4794   41.8535 H   0  0  0  0  0  0  0  0  0  0  0  0
   38.9399   34.7820   41.4853 H   0  0  0  0  0  0  0  0  0  0  0  0
   40.9124   33.2579   39.2435 H   0  0  0  0  0  0  0  0  0  0  0  0
   39.5134   35.8015   39.2676 H   0  0  0  0  0  0  0  0  0  0  0  0
   38.6434   33.5536   38.2653 H   0  0  0  0  0  0  0  0  0  0  0  0
   38.7427   34.9240   37.1082 H   0  0  0  0  0  0  0  0  0  0  0  0
   40.0137   33.6546   37.1082 H   0  0  0  0  0  0  0  0  0  0  0  0
   41.9281   36.1861   38.7411 H   0  0  0  0  0  0  0  0  0  0  0  0
   41.7582   35.0137   37.3908 H   0  0  0  0  0  0  0  0  0  0  0  0
   40.7944   36.5295   37.3908 H   0  0  0  0  0  0  0  0  0  0  0  0
  1  8  1  0
  1  2  1  0
  3  1  1  0
  3 14  1  0
  3  2  1  0
  5  4  2  0
  6  5  1  0
  7  6  2  0
  7  8  1  0
  8  9  2  0
  9  4  1  0
 10 11  1  0
 10 13  1  0
 10  6  1  0
 12 10  1  0
 15 16  1  0
 15 14  1  0
 17 15  1  0
 17 16  1  0
 18 17  1  0
 19 18  1  0
 20 18  1  0
  1 21  1  6
  2 22  1  0
  2 23  1  0
  3 24  1  6
  4 25  1  0
  5 26  1  0
 14 27  1  0
 15 28  1  6
 16 29  1  0
 16 30  1  0
 17 31  1  6
 18 32  1  0
 19 33  1  0
 19 34  1  0
 19 35  1  0
 20 36  1  0
 20 37  1  0
 20 38  1  0
M  ISO  8  21  13  22  13  23  13  24  13  25  14  26  14  27   5  28  13
M  ISO  8  29  13  30  13  31  13  32   8  33   8  34   8  35   8  36   8
M  ISO  2  37   8  38   8
M  END
>  <minimizedAffinity>  (1) 
-5.46179628

>  <minimizedRMSD>  (1) 
1.6219461

$$$$
