
     RDKit          3D

 36 39  0  0  1  0  0  0  0  0999 V2000
   44.2330   32.3850   41.2600 C   0  0  1  0  0  0  0  0  0  0  0  0
   43.1990   31.7330   42.1160 C   0  0  0  0  0  0  0  0  0  0  0  0
   42.8410   32.9030   41.2500 C   0  0  1  0  0  0  0  0  0  0  0  0
   46.0260   34.5250   43.6910 C   0  0  0  0  0  0  0  0  0  0  0  0
   47.1470   34.9380   42.9190 C   0  0  0  0  0  0  0  0  0  0  0  0
   47.2570   34.4870   41.6180 C   0  0  0  0  0  0  0  0  0  0  0  0
   46.2910   33.6640   41.1140 N   0  0  0  0  0  0  0  0  0  0  0  0
   45.2450   33.2890   41.8620 C   0  0  0  0  0  0  0  0  0  0  0  0
   45.1160   33.7190   43.1400 N   0  0  0  0  0  0  0  0  0  0  0  0
   48.4280   34.9130   40.7810 C   0  0  0  0  0  0  0  0  0  0  0  0
   49.3890   33.9360   41.0470 F   0  0  0  0  0  0  0  0  0  0  0  0
   48.1560   34.8770   39.4330 F   0  0  0  0  0  0  0  0  0  0  0  0
   48.9130   36.1310   41.1590 F   0  0  0  0  0  0  0  0  0  0  0  0
   42.4600   34.0750   41.9750 N   0  0  0  0  0  0  0  0  0  0  0  0
   41.4350   34.8330   41.2940 C   0  0  2  0  0  0  0  0  0  0  0  0
   40.0440   34.2570   41.4130 C   0  0  0  0  0  0  0  0  0  0  0  0
   40.8120   34.2670   40.1000 C   0  0  1  0  0  0  0  0  0  0  0  0
   40.3140   35.3280   39.1140 C   0  0  0  0  0  0  0  0  0  0  0  0
   40.1160   34.8650   37.6540 C   0  0  0  0  0  0  0  0  0  0  0  0
   41.2600   35.7450   38.0150 C   0  0  0  0  0  0  0  0  0  0  0  0
   44.9501   31.9912   40.5247 H   0  0  0  0  0  0  0  0  0  0  0  0
   42.8294   30.7278   41.8650 H   0  0  0  0  0  0  0  0  0  0  0  0
   43.1074   31.4974   43.1866 H   0  0  0  0  0  0  0  0  0  0  0  0
   42.1530   33.1372   40.4243 H   0  0  0  0  0  0  0  0  0  0  0  0
   45.9104   34.8660   44.7304 H   0  0  0  0  0  0  0  0  0  0  0  0
   47.9106   35.6028   43.3491 H   0  0  0  0  0  0  0  0  0  0  0  0
   42.1035   33.7916   42.8988 H   0  0  0  0  0  0  0  0  0  0  0  0
   41.9137   35.8029   41.4945 H   0  0  0  0  0  0  0  0  0  0  0  0
   39.8768   33.3132   41.9527 H   0  0  0  0  0  0  0  0  0  0  0  0
   39.0647   34.6183   41.7599 H   0  0  0  0  0  0  0  0  0  0  0  0
   41.0991   33.5032   39.3624 H   0  0  0  0  0  0  0  0  0  0  0  0
   39.7101   35.8529   39.8689 H   0  0  0  0  0  0  0  0  0  0  0  0
   39.2814   35.2630   37.0582 H   0  0  0  0  0  0  0  0  0  0  0  0
   40.0086   33.8921   37.1522 H   0  0  0  0  0  0  0  0  0  0  0  0
   42.2835   35.3424   37.9960 H   0  0  0  0  0  0  0  0  0  0  0  0
   41.6259   36.7148   37.6468 H   0  0  0  0  0  0  0  0  0  0  0  0
  1  8  1  0
  1  2  1  0
  3  1  1  0
  3 14  1  0
  3  2  1  0
  5  4  2  0
  6  5  1  0
  7  6  2  0
  7  8  1  0
  8  9  2  0
  9  4  1  0
 10 11  1  0
 10 13  1  0
 10  6  1  0
 12 10  1  0
 15 16  1  0
 15 14  1  0
 17 15  1  0
 17 16  1  0
 18 17  1  0
 19 20  1  0
 19 18  1  0
 20 18  1  0
  1 21  1  6
  2 22  1  0
  2 23  1  0
  3 24  1  6
  4 25  1  0
  5 26  1  0
 14 27  1  0
 15 28  1  6
 16 29  1  0
 16 30  1  0
 17 31  1  6
 18 32  1  0
 19 33  1  0
 19 34  1  0
 20 35  1  0
 20 36  1  0
M  ISO  8  21  13  22  13  23  13  24  13  25  14  26  14  27   5  28  13
M  ISO  8  29  13  30  13  31  13  32  13  33  13  34  13  35  13  36  13
M  END
>  <minimizedAffinity>  (1) 
-5.39948034

>  <minimizedRMSD>  (1) 
1.58051026

$$$$
