
     RDKit          3D

 36 39  0  0  1  0  0  0  0  0999 V2000
   45.6870   31.5510   42.5000 C   0  0  1  0  0  0  0  0  0  0  0  0
   45.0060   30.8760   43.6450 C   0  0  0  0  0  0  0  0  0  0  0  0
   44.2460   31.2100   42.3940 C   0  0  1  0  0  0  0  0  0  0  0  0
   45.4800   35.1490   43.3480 C   0  0  0  0  0  0  0  0  0  0  0  0
   46.6240   35.6540   42.6750 C   0  0  0  0  0  0  0  0  0  0  0  0
   47.4220   34.7750   41.9600 C   0  0  0  0  0  0  0  0  0  0  0  0
   47.0840   33.4520   41.9250 N   0  0  0  0  0  0  0  0  0  0  0  0
   45.9980   32.9990   42.5680 C   0  0  0  0  0  0  0  0  0  0  0  0
   45.2020   33.8450   43.2750 N   0  0  0  0  0  0  0  0  0  0  0  0
   48.6330   35.2890   41.2410 C   0  0  0  0  0  0  0  0  0  0  0  0
   49.6090   34.3330   41.5230 F   0  0  0  0  0  0  0  0  0  0  0  0
   48.4590   35.3230   39.8780 F   0  0  0  0  0  0  0  0  0  0  0  0
   49.0400   36.5000   41.7230 F   0  0  0  0  0  0  0  0  0  0  0  0
   43.2200   32.1890   42.5850 N   0  0  0  0  0  0  0  0  0  0  0  0
   42.4060   32.3670   41.4030 C   0  0  2  0  0  0  0  0  0  0  0  0
   43.1870   32.5640   40.1340 C   0  0  0  0  0  0  0  0  0  0  0  0
   42.3320   33.6620   40.7720 C   0  0  1  0  0  0  0  0  0  0  0  0
   40.9830   33.8870   40.0200 C   0  0  0  0  0  0  0  0  0  0  0  0
   39.6480   33.8210   40.6180 C   0  0  0  0  0  0  0  0  0  0  0  0
   38.6900   34.0650   39.6910 C   0  0  0  0  0  0  0  0  0  0  0  0
   38.9270   34.3300   38.3990 C   0  0  0  0  0  0  0  0  0  0  0  0
   40.7560   34.2680   38.2910 S   0  0  0  0  0  0  0  0  0  0  0  0
   46.6070   31.3280   41.9397 H   0  0  0  0  0  0  0  0  0  0  0  0
   45.2393   29.8283   43.8855 H   0  0  0  0  0  0  0  0  0  0  0  0
   44.8805   31.0917   44.7163 H   0  0  0  0  0  0  0  0  0  0  0  0
   43.6737   30.6893   41.6121 H   0  0  0  0  0  0  0  0  0  0  0  0
   44.8299   35.8247   43.9232 H   0  0  0  0  0  0  0  0  0  0  0  0
   46.8725   36.7246   42.7204 H   0  0  0  0  0  0  0  0  0  0  0  0
   42.6147   31.8875   43.3620 H   0  0  0  0  0  0  0  0  0  0  0  0
   41.6232   31.6794   41.7556 H   0  0  0  0  0  0  0  0  0  0  0  0
   42.8673   32.0786   39.2001 H   0  0  0  0  0  0  0  0  0  0  0  0
   44.2349   32.4530   39.8186 H   0  0  0  0  0  0  0  0  0  0  0  0
   42.5112   34.6976   41.0967 H   0  0  0  0  0  0  0  0  0  0  0  0
   39.4493   33.6026   41.6776 H   0  0  0  0  0  0  0  0  0  0  0  0
   37.6416   34.0440   40.0233 H   0  0  0  0  0  0  0  0  0  0  0  0
   38.2010   34.5348   37.5984 H   0  0  0  0  0  0  0  0  0  0  0  0
  1  8  1  0
  1  2  1  0
  3  1  1  0
  3 14  1  0
  3  2  1  0
  5  4  2  0
  6  5  1  0
  7  6  2  0
  7  8  1  0
  8  9  2  0
  9  4  1  0
 10 11  1  0
 10 13  1  0
 10  6  1  0
 12 10  1  0
 15 14  1  0
 16 17  1  0
 16 15  1  0
 17 15  1  0
 18 19  2  0
 18 17  1  0
 20 19  1  0
 21 20  2  0
 22 21  1  0
 22 18  1  0
  1 23  1  6
  2 24  1  0
  2 25  1  0
  3 26  1  6
  4 27  1  0
  5 28  1  0
 14 29  1  0
 15 30  1  6
 16 31  1  0
 16 32  1  0
 17 33  1  1
 19 34  1  0
 20 35  1  0
 21 36  1  0
M  ISO  8  23  13  24  13  25  13  26  13  27  14  28  14  29   5  30  13
M  ISO  6  31  13  32  13  33  13  34  14  35  14  36  14
M  END
>  <minimizedAffinity>  (1) 
-5.36245775

>  <minimizedRMSD>  (1) 
2.89150119

$$$$
