
     RDKit          3D

 35 38  0  0  1  0  0  0  0  0999 V2000
   44.5770   35.8350   42.4670 C   0  0  1  0  0  0  0  0  0  0  0  0
   44.9820   35.3970   43.8350 C   0  0  0  0  0  0  0  0  0  0  0  0
   45.9490   35.3110   42.6880 C   0  0  1  0  0  0  0  0  0  0  0  0
   42.6610   32.9160   41.2450 C   0  0  0  0  0  0  0  0  0  0  0  0
   42.0370   33.4610   40.0860 C   0  0  0  0  0  0  0  0  0  0  0  0
   42.2870   34.7850   39.7600 C   0  0  0  0  0  0  0  0  0  0  0  0
   43.1180   35.5200   40.5550 N   0  0  0  0  0  0  0  0  0  0  0  0
   43.6910   34.9820   41.6370 C   0  0  0  0  0  0  0  0  0  0  0  0
   43.4620   33.7000   41.9710 N   0  0  0  0  0  0  0  0  0  0  0  0
   41.6470   35.3950   38.5410 C   0  0  0  0  0  0  0  0  0  0  0  0
   40.7650   36.3310   39.0840 F   0  0  0  0  0  0  0  0  0  0  0  0
   42.5400   36.0700   37.7470 F   0  0  0  0  0  0  0  0  0  0  0  0
   40.9310   34.4780   37.8290 F   0  0  0  0  0  0  0  0  0  0  0  0
   46.3140   33.9750   42.3290 N   0  0  0  0  0  0  0  0  0  0  0  0
   47.6670   33.8840   41.8580 C   0  0  2  0  0  0  0  0  0  0  0  0
   47.9890   34.7570   40.6650 C   0  0  0  0  0  0  0  0  0  0  0  0
   47.9310   33.2310   40.5780 C   0  0  1  0  0  0  0  0  0  0  0  0
   49.2720   32.5670   40.4570 C   0  0  0  0  0  0  0  0  0  0  0  0
   49.6080   31.8790   39.1570 C   0  0  0  0  0  0  0  0  0  0  0  0
   51.3050   31.2730   39.5630 S   0  0  0  0  0  0  0  0  0  0  0  0
   51.2940   31.9850   41.2800 C   0  0  0  0  0  0  0  0  0  0  0  0
   50.1360   32.5750   41.4320 N   0  0  0  0  0  0  0  0  0  0  0  0
   44.1236   36.7609   42.0833 H   0  0  0  0  0  0  0  0  0  0  0  0
   45.1343   36.1418   44.6301 H   0  0  0  0  0  0  0  0  0  0  0  0
   44.5860   34.6885   44.5775 H   0  0  0  0  0  0  0  0  0  0  0  0
   46.9384   35.7059   42.4139 H   0  0  0  0  0  0  0  0  0  0  0  0
   42.4864   31.8697   41.5362 H   0  0  0  0  0  0  0  0  0  0  0  0
   41.3715   32.8448   39.4635 H   0  0  0  0  0  0  0  0  0  0  0  0
   46.2106   33.3704   43.1565 H   0  0  0  0  0  0  0  0  0  0  0  0
   48.0812   33.7380   42.8665 H   0  0  0  0  0  0  0  0  0  0  0  0
   47.2060   35.3718   40.1971 H   0  0  0  0  0  0  0  0  0  0  0  0
   48.7281   35.5370   40.4298 H   0  0  0  0  0  0  0  0  0  0  0  0
   47.3860   32.5031   39.9590 H   0  0  0  0  0  0  0  0  0  0  0  0
   49.0156   31.7701   38.2366 H   0  0  0  0  0  0  0  0  0  0  0  0
   52.1028   31.9226   42.0230 H   0  0  0  0  0  0  0  0  0  0  0  0
  1  3  1  0
  1  2  1  0
  3  2  1  0
  4  9  2  0
  5  4  1  0
  6  5  2  0
  6  7  1  0
  7  8  2  0
  8  9  1  0
  8  1  1  0
 10 11  1  0
 10  6  1  0
 12 10  1  0
 13 10  1  0
 14  3  1  0
 15 14  1  0
 16 15  1  0
 17 16  1  0
 17 15  1  0
 18 17  1  0
 18 22  1  0
 19 20  1  0
 19 18  2  0
 20 21  1  0
 21 22  2  0
  1 23  1  1
  2 24  1  0
  2 25  1  0
  3 26  1  1
  4 27  1  0
  5 28  1  0
 14 29  1  0
 15 30  1  1
 16 31  1  0
 16 32  1  0
 17 33  1  6
 19 34  1  0
 21 35  1  0
M  ISO  8  23  13  24  13  25  13  26  13  27  14  28  14  29   5  30  13
M  ISO  5  31  13  32  13  33  13  34  14  35  14
M  END
>  <minimizedAffinity>  (1) 
-5.18760014

>  <minimizedRMSD>  (1) 
7.8866744

$$$$
