
     RDKit          3D

 36 39  0  0  1  0  0  0  0  0999 V2000
   45.2030   32.5010   41.7750 C   0  0  1  0  0  0  0  0  0  0  0  0
   44.6940   32.5050   43.1800 C   0  0  0  0  0  0  0  0  0  0  0  0
   43.9050   33.1570   42.0840 C   0  0  1  0  0  0  0  0  0  0  0  0
   47.8680   35.0660   41.9440 C   0  0  0  0  0  0  0  0  0  0  0  0
   48.3390   35.0730   40.5990 C   0  0  0  0  0  0  0  0  0  0  0  0
   47.7340   34.2140   39.6920 C   0  0  0  0  0  0  0  0  0  0  0  0
   46.7210   33.3980   40.1080 N   0  0  0  0  0  0  0  0  0  0  0  0
   46.3020   33.4160   41.3810 C   0  0  0  0  0  0  0  0  0  0  0  0
   46.8720   34.2450   42.2900 N   0  0  0  0  0  0  0  0  0  0  0  0
   48.2060   34.1990   38.2650 C   0  0  0  0  0  0  0  0  0  0  0  0
   49.0870   33.1180   38.2250 F   0  0  0  0  0  0  0  0  0  0  0  0
   47.1880   33.9440   37.3750 F   0  0  0  0  0  0  0  0  0  0  0  0
   48.8810   35.3400   37.9370 F   0  0  0  0  0  0  0  0  0  0  0  0
   43.7850   34.5740   42.2170 N   0  0  0  0  0  0  0  0  0  0  0  0
   42.7910   35.1310   41.3310 C   0  0  2  0  0  0  0  0  0  0  0  0
   41.4350   35.3220   41.9500 C   0  0  0  0  0  0  0  0  0  0  0  0
   41.7040   34.2800   40.8650 C   0  0  1  0  0  0  0  0  0  0  0  0
   41.1910   34.6520   39.5410 N   0  0  0  0  0  0  0  0  0  0  0  0
   40.0920   34.1310   38.9730 N   0  0  0  0  0  0  0  0  0  0  0  0
   39.8620   34.6510   37.7730 C   0  0  0  0  0  0  0  0  0  0  0  0
   40.8700   35.5650   37.5390 C   0  0  0  0  0  0  0  0  0  0  0  0
   41.6790   35.5440   38.6540 C   0  0  0  0  0  0  0  0  0  0  0  0
   45.5595   31.7010   41.1095 H   0  0  0  0  0  0  0  0  0  0  0  0
   44.3340   31.5722   43.6385 H   0  0  0  0  0  0  0  0  0  0  0  0
   45.0920   32.8278   44.1534 H   0  0  0  0  0  0  0  0  0  0  0  0
   42.9121   33.0693   41.6188 H   0  0  0  0  0  0  0  0  0  0  0  0
   48.3215   35.7322   42.6927 H   0  0  0  0  0  0  0  0  0  0  0  0
   49.1575   35.7392   40.2889 H   0  0  0  0  0  0  0  0  0  0  0  0
   43.5215   34.7933   43.1883 H   0  0  0  0  0  0  0  0  0  0  0  0
   43.5144   35.7663   40.7989 H   0  0  0  0  0  0  0  0  0  0  0  0
   41.2476   35.0096   42.9879 H   0  0  0  0  0  0  0  0  0  0  0  0
   40.7375   36.1615   42.0870 H   0  0  0  0  0  0  0  0  0  0  0  0
   41.5465   33.1952   40.7737 H   0  0  0  0  0  0  0  0  0  0  0  0
   39.0305   34.4021   37.0972 H   0  0  0  0  0  0  0  0  0  0  0  0
   41.0011   36.1864   36.6409 H   0  0  0  0  0  0  0  0  0  0  0  0
   42.5805   36.1576   38.7983 H   0  0  0  0  0  0  0  0  0  0  0  0
  1  3  1  0
  1  2  1  0
  3 14  1  0
  3  2  1  0
  4  9  2  0
  5  4  1  0
  6  7  1  0
  6  5  2  0
  7  8  2  0
  8  1  1  0
  8  9  1  0
 10  6  1  0
 11 10  1  0
 12 10  1  0
 13 10  1  0
 15 16  1  0
 15 14  1  0
 17 15  1  0
 17 16  1  0
 18 17  1  0
 19 18  1  0
 20 19  2  0
 21 20  1  0
 21 22  2  0
 22 18  1  0
  1 23  1  6
  2 24  1  0
  2 25  1  0
  3 26  1  6
  4 27  1  0
  5 28  1  0
 14 29  1  0
 15 30  1  6
 16 31  1  0
 16 32  1  0
 17 33  1  1
 20 34  1  0
 21 35  1  0
 22 36  1  0
M  ISO  8  23  13  24  13  25  13  26  13  27  14  28  14  29   5  30  13
M  ISO  6  31  13  32  13  33  13  34  14  35  14  36  14
M  END
>  <minimizedAffinity>  (1) 
-5.19576073

>  <minimizedRMSD>  (1) 
2.75116253

$$$$
