
     RDKit          3D

 40 44  0  0  1  0  0  0  0  0999 V2000
   44.6090   32.8030   41.8270 C   0  0  1  0  0  0  0  0  0  0  0  0
   43.8480   33.5940   40.8140 C   0  0  0  0  0  0  0  0  0  0  0  0
   45.3350   33.4310   40.6930 C   0  0  1  0  0  0  0  0  0  0  0  0
   44.7650   35.1860   44.6570 C   0  0  0  0  0  0  0  0  0  0  0  0
   45.4190   34.4040   45.6530 C   0  0  0  0  0  0  0  0  0  0  0  0
   45.7810   33.1100   45.3260 C   0  0  0  0  0  0  0  0  0  0  0  0
   45.5070   32.6220   44.0770 N   0  0  0  0  0  0  0  0  0  0  0  0
   44.8910   33.3830   43.1630 C   0  0  0  0  0  0  0  0  0  0  0  0
   44.5220   34.6580   43.4540 N   0  0  0  0  0  0  0  0  0  0  0  0
   46.4780   32.2500   46.3470 C   0  0  0  0  0  0  0  0  0  0  0  0
   45.4230   31.6650   47.0480 F   0  0  0  0  0  0  0  0  0  0  0  0
   47.2200   31.2440   45.7830 F   0  0  0  0  0  0  0  0  0  0  0  0
   47.2230   32.9980   47.2140 F   0  0  0  0  0  0  0  0  0  0  0  0
   46.0720   34.6450   40.8430 N   0  0  0  0  0  0  0  0  0  0  0  0
   47.4970   34.4510   40.7260 C   0  0  2  0  0  0  0  0  0  0  0  0
   47.9910   34.2760   39.3160 C   0  0  0  0  0  0  0  0  0  0  0  0
   47.9970   33.1400   40.3280 C   0  0  1  0  0  0  0  0  0  0  0  0
   49.3190   32.8270   40.8820 N   0  0  0  0  0  0  0  0  0  0  0  0
   49.8950   33.2610   41.9900 C   0  0  0  0  0  0  0  0  0  0  0  0
   51.1300   32.7060   42.1080 N   0  0  0  0  0  0  0  0  0  0  0  0
   51.3610   31.8970   41.0610 C   0  0  0  0  0  0  0  0  0  0  0  0
   52.4230   31.1170   40.7050 C   0  0  0  0  0  0  0  0  0  0  0  0
   52.3270   30.4110   39.5600 N   0  0  0  0  0  0  0  0  0  0  0  0
   51.1990   30.4850   38.7960 C   0  0  0  0  0  0  0  0  0  0  0  0
   50.1640   31.2620   39.1670 N   0  0  0  0  0  0  0  0  0  0  0  0
   50.2120   31.9850   40.3020 C   0  0  0  0  0  0  0  0  0  0  0  0
   44.4813   31.7895   42.2351 H   0  0  0  0  0  0  0  0  0  0  0  0
   43.1780   33.0841   40.1061 H   0  0  0  0  0  0  0  0  0  0  0  0
   43.1566   34.4488   40.8496 H   0  0  0  0  0  0  0  0  0  0  0  0
   46.0635   33.0257   39.9754 H   0  0  0  0  0  0  0  0  0  0  0  0
   44.4616   36.2200   44.8778 H   0  0  0  0  0  0  0  0  0  0  0  0
   45.6293   34.8168   46.6507 H   0  0  0  0  0  0  0  0  0  0  0  0
   45.7688   35.3065   40.1140 H   0  0  0  0  0  0  0  0  0  0  0  0
   47.7343   35.1116   41.5729 H   0  0  0  0  0  0  0  0  0  0  0  0
   48.9351   34.7407   38.9955 H   0  0  0  0  0  0  0  0  0  0  0  0
   47.5806   34.4358   38.3080 H   0  0  0  0  0  0  0  0  0  0  0  0
   47.6000   32.1142   40.3385 H   0  0  0  0  0  0  0  0  0  0  0  0
   49.4440   33.9634   42.7064 H   0  0  0  0  0  0  0  0  0  0  0  0
   53.3263   31.0660   41.3306 H   0  0  0  0  0  0  0  0  0  0  0  0
   51.1344   29.9025   37.8652 H   0  0  0  0  0  0  0  0  0  0  0  0
  1  8  1  0
  2  1  1  0
  3  2  1  0
  3 14  1  0
  3  1  1  0
  4  5  2  0
  6  5  1  0
  6 10  1  0
  7  6  2  0
  8  9  2  0
  8  7  1  0
  9  4  1  0
 10 11  1  0
 10 13  1  0
 12 10  1  0
 15 14  1  0
 16 17  1  0
 16 15  1  0
 17 15  1  0
 17 18  1  0
 18 19  1  0
 19 20  2  0
 21 20  1  0
 22 21  2  0
 23 22  1  0
 24 25  1  0
 24 23  2  0
 25 26  2  0
 26 18  1  0
 26 21  1  0
  1 27  1  1
  2 28  1  0
  2 29  1  0
  3 30  1  6
  4 31  1  0
  5 32  1  0
 14 33  1  0
 15 34  1  1
 16 35  1  0
 16 36  1  0
 17 37  1  6
 19 38  1  0
 22 39  1  0
 24 40  1  0
M  ISO  8  27  13  28  13  29  13  30  13  31  14  32  14  33   5  34  13
M  ISO  6  35  13  36  13  37  13  38  14  39  14  40  14
M  END
>  <minimizedAffinity>  (1) 
-5.25412798

>  <minimizedRMSD>  (1) 
8.78762817

$$$$
