
     RDKit          3D

 44 47  0  0  1  0  0  0  0  0999 V2000
   44.9300   32.4660   41.4480 C   0  0  1  0  0  0  0  0  0  0  0  0
   44.4960   32.2500   42.8590 C   0  0  0  0  0  0  0  0  0  0  0  0
   43.7190   33.1610   41.9520 C   0  0  1  0  0  0  0  0  0  0  0  0
   47.7060   34.8810   41.8680 C   0  0  0  0  0  0  0  0  0  0  0  0
   48.2420   34.9280   40.5460 C   0  0  0  0  0  0  0  0  0  0  0  0
   47.6400   34.1450   39.5710 C   0  0  0  0  0  0  0  0  0  0  0  0
   46.5690   33.3640   39.8970 N   0  0  0  0  0  0  0  0  0  0  0  0
   46.0890   33.3410   41.1460 C   0  0  0  0  0  0  0  0  0  0  0  0
   46.6560   34.0940   42.1200 N   0  0  0  0  0  0  0  0  0  0  0  0
   48.1780   34.1770   38.1680 C   0  0  0  0  0  0  0  0  0  0  0  0
   49.0560   33.0920   38.1340 F   0  0  0  0  0  0  0  0  0  0  0  0
   47.2040   33.9630   37.2240 F   0  0  0  0  0  0  0  0  0  0  0  0
   48.8780   35.3240   37.9140 F   0  0  0  0  0  0  0  0  0  0  0  0
   43.7450   34.5320   42.3520 N   0  0  0  0  0  0  0  0  0  0  0  0
   42.8170   35.3490   41.6080 C   0  0  2  0  0  0  0  0  0  0  0  0
   41.4410   35.4280   42.2030 C   0  0  0  0  0  0  0  0  0  0  0  0
   41.7170   34.7000   40.8970 C   0  0  1  0  0  0  0  0  0  0  0  0
   41.3340   35.3420   39.6460 N   0  0  0  0  0  0  0  0  0  0  0  0
   42.2980   35.3160   38.6140 C   0  0  0  0  0  0  0  0  0  0  0  0
   41.7690   36.2000   37.4990 C   0  0  0  0  0  0  0  0  0  0  0  0
   40.3760   35.8710   37.0750 C   0  0  0  0  0  0  0  0  0  0  0  0
   39.9070   34.6230   37.7550 C   0  0  0  0  0  0  0  0  0  0  0  0
   40.1370   34.6310   39.2360 C   0  0  0  0  0  0  0  0  0  0  0  0
   45.1764   31.7744   40.6289 H   0  0  0  0  0  0  0  0  0  0  0  0
   44.0717   31.2819   43.1635 H   0  0  0  0  0  0  0  0  0  0  0  0
   44.9708   32.3499   43.8462 H   0  0  0  0  0  0  0  0  0  0  0  0
   42.7018   33.2475   41.5423 H   0  0  0  0  0  0  0  0  0  0  0  0
   48.1525   35.4862   42.6708 H   0  0  0  0  0  0  0  0  0  0  0  0
   49.1060   35.5655   40.3072 H   0  0  0  0  0  0  0  0  0  0  0  0
   43.5042   34.5877   43.3519 H   0  0  0  0  0  0  0  0  0  0  0  0
   43.5866   36.0672   41.2888 H   0  0  0  0  0  0  0  0  0  0  0  0
   41.1959   34.8620   43.1138 H   0  0  0  0  0  0  0  0  0  0  0  0
   40.7673   36.2330   42.5318 H   0  0  0  0  0  0  0  0  0  0  0  0
   41.4880   33.6868   40.5351 H   0  0  0  0  0  0  0  0  0  0  0  0
   43.2585   35.7052   38.9828 H   0  0  0  0  0  0  0  0  0  0  0  0
   42.4678   34.2893   38.2575 H   0  0  0  0  0  0  0  0  0  0  0  0
   41.7880   37.2437   37.8460 H   0  0  0  0  0  0  0  0  0  0  0  0
   42.4163   36.0334   36.6253 H   0  0  0  0  0  0  0  0  0  0  0  0
   39.7088   36.7033   37.3437 H   0  0  0  0  0  0  0  0  0  0  0  0
   40.3613   35.7125   35.9866 H   0  0  0  0  0  0  0  0  0  0  0  0
   38.8287   34.5091   37.5700 H   0  0  0  0  0  0  0  0  0  0  0  0
   40.4900   33.7877   37.3399 H   0  0  0  0  0  0  0  0  0  0  0  0
   39.2703   35.1073   39.7176 H   0  0  0  0  0  0  0  0  0  0  0  0
   40.2702   33.5828   39.5419 H   0  0  0  0  0  0  0  0  0  0  0  0
  1  3  1  0
  1  2  1  0
  3 14  1  0
  3  2  1  0
  4  9  2  0
  5  4  1  0
  6  7  1  0
  6  5  2  0
  7  8  2  0
  8  1  1  0
  8  9  1  0
 10  6  1  0
 11 10  1  0
 12 10  1  0
 13 10  1  0
 15 16  1  0
 15 14  1  0
 17 15  1  0
 17 16  1  0
 18 17  1  0
 19 18  1  0
 20 19  1  0
 21 20  1  0
 21 22  1  0
 22 23  1  0
 23 18  1  0
  1 24  1  6
  2 25  1  0
  2 26  1  0
  3 27  1  6
  4 28  1  0
  5 29  1  0
 14 30  1  0
 15 31  1  6
 16 32  1  0
 16 33  1  0
 17 34  1  1
 19 35  1  0
 19 36  1  0
 20 37  1  0
 20 38  1  0
 21 39  1  0
 21 40  1  0
 22 41  1  0
 22 42  1  0
 23 43  1  0
 23 44  1  0
M  ISO  8  24  13  25  13  26  13  27  13  28  14  29  14  30   5  31  13
M  ISO  8  32  13  33  13  34  13  35  13  36  13  37  13  38  13  39  13
M  ISO  5  40  13  41  13  42  13  43  13  44  13
M  END
>  <minimizedAffinity>  (1) 
-5.37905502

>  <minimizedRMSD>  (1) 
2.81222415

$$$$
