
     RDKit          3D

 31 33  0  0  1  0  0  0  0  0999 V2000
   44.5480   33.4670   40.3180 C   0  0  1  0  0  0  0  0  0  0  0  0
   43.4820   32.4790   40.6650 C   0  0  0  0  0  0  0  0  0  0  0  0
   43.1780   33.9480   40.6300 C   0  0  1  0  0  0  0  0  0  0  0  0
   46.3880   33.7210   43.5210 C   0  0  0  0  0  0  0  0  0  0  0  0
   47.5450   34.4460   43.1160 C   0  0  0  0  0  0  0  0  0  0  0  0
   47.6620   34.8240   41.7900 C   0  0  0  0  0  0  0  0  0  0  0  0
   46.6680   34.4920   40.9090 N   0  0  0  0  0  0  0  0  0  0  0  0
   45.5890   33.8100   41.3160 C   0  0  0  0  0  0  0  0  0  0  0  0
   45.4530   33.4280   42.6130 N   0  0  0  0  0  0  0  0  0  0  0  0
   48.8700   35.5930   41.3330 C   0  0  0  0  0  0  0  0  0  0  0  0
   49.9330   34.7610   41.6890 F   0  0  0  0  0  0  0  0  0  0  0  0
   48.9040   35.7710   39.9760 F   0  0  0  0  0  0  0  0  0  0  0  0
   48.9980   36.7750   42.0040 F   0  0  0  0  0  0  0  0  0  0  0  0
   42.8430   34.4990   41.9090 N   0  0  0  0  0  0  0  0  0  0  0  0
   41.6140   35.2560   41.8710 C   0  0  2  0  0  0  0  0  0  0  0  0
   40.3780   34.4210   41.6490 C   0  0  0  0  0  0  0  0  0  0  0  0
   40.9030   35.4150   40.6200 C   0  0  1  0  0  0  0  0  0  0  0  0
   40.0720   36.6220   40.5430 N   0  0  0  0  0  0  0  0  0  0  0  0
   45.2521   33.5469   39.4767 H   0  0  0  0  0  0  0  0  0  0  0  0
   43.0742   31.8128   39.8904 H   0  0  0  0  0  0  0  0  0  0  0  0
   43.3733   31.6765   41.4094 H   0  0  0  0  0  0  0  0  0  0  0  0
   42.5072   34.6391   40.0985 H   0  0  0  0  0  0  0  0  0  0  0  0
   46.2659   33.4064   44.5679 H   0  0  0  0  0  0  0  0  0  0  0  0
   48.3303   34.7005   43.8430 H   0  0  0  0  0  0  0  0  0  0  0  0
   42.7376   33.7289   42.5848 H   0  0  0  0  0  0  0  0  0  0  0  0
   41.9613   35.9876   42.6154 H   0  0  0  0  0  0  0  0  0  0  0  0
   40.4603   33.3385   41.4718 H   0  0  0  0  0  0  0  0  0  0  0  0
   39.4283   34.2509   42.1773 H   0  0  0  0  0  0  0  0  0  0  0  0
   41.2016   35.3720   39.5622 H   0  0  0  0  0  0  0  0  0  0  0  0
   39.8487   36.9464   41.4947 H   0  0  0  0  0  0  0  0  0  0  0  0
   40.5847   37.3603   40.0401 H   0  0  0  0  0  0  0  0  0  0  0  0
  1  3  1  0
  1  2  1  0
  1  8  1  0
  3  2  1  0
  3 14  1  0
  5  4  2  0
  6  5  1  0
  7  8  1  0
  7  6  2  0
  8  9  2  0
  9  4  1  0
 10 11  1  0
 10  6  1  0
 10 13  1  0
 12 10  1  0
 15 14  1  0
 16 15  1  0
 17 16  1  0
 17 15  1  0
 18 17  1  0
  1 19  1  6
  2 20  1  0
  2 21  1  0
  3 22  1  6
  4 23  1  0
  5 24  1  0
 14 25  1  0
 15 26  1  1
 16 27  1  0
 16 28  1  0
 17 29  1  6
 18 30  1  0
 18 31  1  0
M  ISO  8  19  13  20  13  21  13  22  13  23  14  24  14  25   5  26  13
M  ISO  5  27  13  28  13  29  13  30   5  31   5
M  END
>  <minimizedAffinity>  (1) 
-4.94087744

>  <minimizedRMSD>  (1) 
0.922392666

$$$$
