
     RDKit          3D

 13 13  0  0  0  0  0  0  0  0999 V2000
   44.5800   36.0970   44.3560 C   0  0  0  0  0  0  0  0  0  0  0  0
   45.3390   35.8440   43.2020 C   0  0  0  0  0  0  0  0  0  0  0  0
   46.1770   34.7240   43.2040 C   0  0  0  0  0  0  0  0  0  0  0  0
   46.2130   33.9350   44.3270 N   0  0  0  0  0  0  0  0  0  0  0  0
   45.4620   34.2230   45.4120 C   0  0  0  0  0  0  0  0  0  0  0  0
   44.6530   35.2870   45.4370 N   0  0  0  0  0  0  0  0  0  0  0  0
   45.5120   33.3730   46.5980 C   0  0  0  0  0  0  0  0  0  0  0  0
   46.3170   32.4170   46.7250 O   0  0  0  0  0  0  0  0  0  0  0  0
   44.6530   33.5770   47.6830 O   0  0  0  0  0  0  0  0  0  0  0  0
   43.9128   36.9712   44.3815 H   0  0  0  0  0  0  0  0  0  0  0  0
   45.2766   36.5050   42.3250 H   0  0  0  0  0  0  0  0  0  0  0  0
   46.7931   34.4809   42.3258 H   0  0  0  0  0  0  0  0  0  0  0  0
   44.7075   32.9861   48.4755 H   0  0  0  0  0  0  0  0  0  0  0  0
  1  6  2  0
  2  3  2  0
  2  1  1  0
  3  4  1  0
  4  5  2  0
  5  6  1  0
  5  7  1  0
  7  8  2  0
  7  9  1  0
  1 10  1  0
  2 11  1  0
  3 12  1  0
  9 13  1  0
M  ISO  4  10  14  11  14  12  14  13   3
M  END
>  <minimizedAffinity>  (1) 
-3.88944697

>  <minimizedRMSD>  (1) 
0.311909497

$$$$
