
     RDKit          3D

 37 40  0  0  1  0  0  0  0  0999 V2000
   44.9740   31.2040   41.8940 C   0  0  1  0  0  0  0  0  0  0  0  0
   44.1830   30.4510   42.9140 C   0  0  0  0  0  0  0  0  0  0  0  0
   43.4910   31.2830   41.8740 C   0  0  1  0  0  0  0  0  0  0  0  0
   46.0410   34.1800   43.8200 C   0  0  0  0  0  0  0  0  0  0  0  0
   47.0140   34.7490   42.9400 C   0  0  0  0  0  0  0  0  0  0  0  0
   47.2610   34.1060   41.7380 C   0  0  0  0  0  0  0  0  0  0  0  0
   46.5810   32.9680   41.4390 N   0  0  0  0  0  0  0  0  0  0  0  0
   45.6750   32.4550   42.2800 C   0  0  0  0  0  0  0  0  0  0  0  0
   45.4080   33.0580   43.4640 N   0  0  0  0  0  0  0  0  0  0  0  0
   48.2740   34.6860   40.7960 C   0  0  0  0  0  0  0  0  0  0  0  0
   49.3510   33.8040   40.8870 F   0  0  0  0  0  0  0  0  0  0  0  0
   47.8380   34.6810   39.4870 F   0  0  0  0  0  0  0  0  0  0  0  0
   48.6790   35.9340   41.1750 F   0  0  0  0  0  0  0  0  0  0  0  0
   42.7860   32.4080   42.4110 N   0  0  0  0  0  0  0  0  0  0  0  0
   41.8210   32.9420   41.4860 C   0  0  2  0  0  0  0  0  0  0  0  0
   40.7970   31.9530   40.9880 C   0  0  0  0  0  0  0  0  0  0  0  0
   41.8800   32.5460   40.0870 C   0  0  1  0  0  0  0  0  0  0  0  0
   41.4300   33.6350   39.1430 C   0  0  0  0  0  0  0  0  0  0  0  0
   42.2250   34.7530   38.9330 C   0  0  0  0  0  0  0  0  0  0  0  0
   41.7870   35.7460   38.0570 C   0  0  0  0  0  0  0  0  0  0  0  0
   40.6180   35.6470   37.4100 N   0  0  0  0  0  0  0  0  0  0  0  0
   39.8560   34.5370   37.6340 C   0  0  0  0  0  0  0  0  0  0  0  0
   40.2590   33.5560   38.4830 N   0  0  0  0  0  0  0  0  0  0  0  0
   45.7695   30.9089   41.1940 H   0  0  0  0  0  0  0  0  0  0  0  0
   44.1276   29.3533   42.8687 H   0  0  0  0  0  0  0  0  0  0  0  0
   44.1691   30.4042   44.0129 H   0  0  0  0  0  0  0  0  0  0  0  0
   42.7631   31.1490   41.0602 H   0  0  0  0  0  0  0  0  0  0  0  0
   45.8152   34.6621   44.7826 H   0  0  0  0  0  0  0  0  0  0  0  0
   47.5508   35.6705   43.2097 H   0  0  0  0  0  0  0  0  0  0  0  0
   42.2956   32.1132   43.2675 H   0  0  0  0  0  0  0  0  0  0  0  0
   41.7968   33.9258   41.9776 H   0  0  0  0  0  0  0  0  0  0  0  0
   40.8446   30.8983   41.2966 H   0  0  0  0  0  0  0  0  0  0  0  0
   39.6991   31.8879   40.9716 H   0  0  0  0  0  0  0  0  0  0  0  0
   42.6362   32.1087   39.4185 H   0  0  0  0  0  0  0  0  0  0  0  0
   43.1897   34.8548   39.4516 H   0  0  0  0  0  0  0  0  0  0  0  0
   42.4171   36.6326   37.8932 H   0  0  0  0  0  0  0  0  0  0  0  0
   38.8919   34.4342   37.1144 H   0  0  0  0  0  0  0  0  0  0  0  0
  1  8  1  0
  1  2  1  0
  3  1  1  0
  3 14  1  0
  3  2  1  0
  5  4  2  0
  6  5  1  0
  7  6  2  0
  7  8  1  0
  8  9  2  0
  9  4  1  0
 10 11  1  0
 10 13  1  0
 10  6  1  0
 12 10  1  0
 15 14  1  0
 16 15  1  0
 17 16  1  0
 17 15  1  0
 18 17  1  0
 19 18  2  0
 20 19  1  0
 21 22  1  0
 21 20  2  0
 22 23  2  0
 23 18  1  0
  1 24  1  6
  2 25  1  0
  2 26  1  0
  3 27  1  6
  4 28  1  0
  5 29  1  0
 14 30  1  0
 15 31  1  6
 16 32  1  0
 16 33  1  0
 17 34  1  6
 19 35  1  0
 20 36  1  0
 22 37  1  0
M  ISO  8  24  13  25  13  26  13  27  13  28  14  29  14  30   5  31  13
M  ISO  6  32  13  33  13  34  13  35  14  36  14  37  14
M  END
>  <minimizedAffinity>  (1) 
-4.99522972

>  <minimizedRMSD>  (1) 
2.85195732

$$$$
