
     RDKit          3D

 27 29  0  0  0  0  0  0  0  0999 V2000
   47.3900   32.2630   45.8620 O   0  0  0  0  0  0  0  0  0  0  0  0
   46.6530   33.2590   45.2670 C   0  0  0  0  0  0  0  0  0  0  0  0
   45.6070   33.8260   45.8980 N   0  0  0  0  0  0  0  0  0  0  0  0
   44.8560   34.8110   45.3410 C   0  0  0  0  0  0  0  0  0  0  0  0
   45.0990   35.3010   44.1060 N   0  0  0  0  0  0  0  0  0  0  0  0
   46.1330   34.7730   43.4260 C   0  0  0  0  0  0  0  0  0  0  0  0
   46.4230   35.2410   42.1550 C   0  0  0  0  0  0  0  0  0  0  0  0
   47.4720   34.7100   41.4540 C   0  0  0  0  0  0  0  0  0  0  0  0
   48.2350   33.7050   42.0250 C   0  0  0  0  0  0  0  0  0  0  0  0
   47.9670   33.2150   43.2980 C   0  0  0  0  0  0  0  0  0  0  0  0
   46.9060   33.7610   43.9920 C   0  0  0  0  0  0  0  0  0  0  0  0
   47.0850   31.6990   47.1010 C   0  0  0  0  0  0  0  0  0  0  0  0
   47.3310   32.4150   48.1070 O   0  0  0  0  0  0  0  0  0  0  0  0
   46.8380   28.0620   47.3760 C   0  0  0  0  0  0  0  0  0  0  0  0
   45.4580   27.8270   47.3450 C   0  0  0  0  0  0  0  0  0  0  0  0
   44.6100   28.9340   47.2280 C   0  0  0  0  0  0  0  0  0  0  0  0
   45.1730   30.1930   47.1500 N   0  0  0  0  0  0  0  0  0  0  0  0
   46.5170   30.3610   47.1850 C   0  0  0  0  0  0  0  0  0  0  0  0
   47.3280   29.3160   47.2960 N   0  0  0  0  0  0  0  0  0  0  0  0
   44.0168   35.2261   45.9184 H   0  0  0  0  0  0  0  0  0  0  0  0
   45.8108   36.0388   41.7093 H   0  0  0  0  0  0  0  0  0  0  0  0
   47.7072   35.0787   40.4447 H   0  0  0  0  0  0  0  0  0  0  0  0
   49.0762   33.2829   41.4555 H   0  0  0  0  0  0  0  0  0  0  0  0
   48.5817   32.4164   43.7389 H   0  0  0  0  0  0  0  0  0  0  0  0
   47.5314   27.2129   47.4668 H   0  0  0  0  0  0  0  0  0  0  0  0
   45.0538   26.8060   47.4104 H   0  0  0  0  0  0  0  0  0  0  0  0
   43.5181   28.8043   47.1988 H   0  0  0  0  0  0  0  0  0  0  0  0
  1 12  1  0
  2  1  1  0
  2  3  2  0
  4  3  1  0
  5  4  2  0
  6 11  2  0
  6  5  1  0
  7  6  1  0
  8  9  1  0
  8  7  2  0
  9 10  2  0
 10 11  1  0
 11  2  1  0
 12 18  1  0
 12 13  2  0
 15 14  2  0
 16 15  1  0
 17 18  1  0
 17 16  2  0
 18 19  2  0
 19 14  1  0
  4 20  1  0
  7 21  1  0
  8 22  1  0
  9 23  1  0
 10 24  1  0
 14 25  1  0
 15 26  1  0
 16 27  1  0
M  ISO  8  20  14  21  14  22  14  23  14  24  14  25  14  26  14  27  14
M  END
>  <minimizedAffinity>  (1) 
-4.8258872

>  <minimizedRMSD>  (1) 
6.68445349

$$$$
