
     RDKit          3D

 23 24  0  0  0  0  0  0  0  0999 V2000
   46.7020   33.0240   44.9570 C   0  0  0  0  0  0  0  0  0  0  0  0
   47.0820   31.9050   44.5180 O   0  0  0  0  0  0  0  0  0  0  0  0
   44.4560   35.7560   44.0950 C   0  0  0  0  0  0  0  0  0  0  0  0
   44.5410   35.8100   42.7030 C   0  0  0  0  0  0  0  0  0  0  0  0
   45.3750   34.9020   42.0620 C   0  0  0  0  0  0  0  0  0  0  0  0
   46.0800   33.9920   42.8130 N   0  0  0  0  0  0  0  0  0  0  0  0
   45.9550   33.9880   44.1680 C   0  0  0  0  0  0  0  0  0  0  0  0
   45.1590   34.8520   44.8020 N   0  0  0  0  0  0  0  0  0  0  0  0
   47.0510   33.2990   46.2940 O   0  0  0  0  0  0  0  0  0  0  0  0
   46.6840   32.4540   47.3330 C   0  0  0  0  0  0  0  0  0  0  0  0
   45.3310   32.3320   47.6570 C   0  0  0  0  0  0  0  0  0  0  0  0
   44.7950   31.5480   48.6470 C   0  0  0  0  0  0  0  0  0  0  0  0
   45.7170   30.8200   49.3740 C   0  0  0  0  0  0  0  0  0  0  0  0
   47.0560   30.8830   49.1200 C   0  0  0  0  0  0  0  0  0  0  0  0
   47.5230   31.6910   48.1130 C   0  0  0  0  0  0  0  0  0  0  0  0
   43.8025   36.4653   44.6240 H   0  0  0  0  0  0  0  0  0  0  0  0
   43.9641   36.5504   42.1295 H   0  0  0  0  0  0  0  0  0  0  0  0
   45.4699   34.9114   40.9661 H   0  0  0  0  0  0  0  0  0  0  0  0
   44.6237   32.9243   47.0579 H   0  0  0  0  0  0  0  0  0  0  0  0
   43.7142   31.5025   48.8466 H   0  0  0  0  0  0  0  0  0  0  0  0
   45.3597   30.1679   50.1846 H   0  0  0  0  0  0  0  0  0  0  0  0
   47.7597   30.2879   49.7205 H   0  0  0  0  0  0  0  0  0  0  0  0
   48.6057   31.7300   47.9229 H   0  0  0  0  0  0  0  0  0  0  0  0
  1  9  1  0
  2  1  2  0
  3  8  2  0
  4  3  1  0
  5  4  2  0
  5  6  1  0
  6  7  2  0
  7  8  1  0
  7  1  1  0
  9 10  1  0
 10 11  2  0
 10 15  1  0
 11 12  1  0
 12 13  2  0
 14 13  1  0
 15 14  2  0
  3 16  1  0
  4 17  1  0
  5 18  1  0
 11 19  1  0
 12 20  1  0
 13 21  1  0
 14 22  1  0
 15 23  1  0
M  ISO  8  16  14  17  14  18  14  19  14  20  14  21  14  22  14  23  14
M  END
>  <minimizedAffinity>  (1) 
-4.47903299

>  <minimizedRMSD>  (1) 
1.96230567

$$$$
