
     RDKit          3D

 17 17  0  0  0  0  0  0  0  0999 V2000
   44.5130   35.8210   44.6500 C   0  0  0  0  0  0  0  0  0  0  0  0
   45.1810   35.7280   43.4220 C   0  0  0  0  0  0  0  0  0  0  0  0
   46.1430   34.7200   43.2700 C   0  0  0  0  0  0  0  0  0  0  0  0
   46.3760   33.8860   44.3240 N   0  0  0  0  0  0  0  0  0  0  0  0
   45.7130   34.0090   45.4890 C   0  0  0  0  0  0  0  0  0  0  0  0
   44.7980   34.9610   45.6440 N   0  0  0  0  0  0  0  0  0  0  0  0
   45.9700   33.1160   46.6030 C   0  0  0  0  0  0  0  0  0  0  0  0
   47.0950   32.5730   46.8000 O   0  0  0  0  0  0  0  0  0  0  0  0
   44.9610   32.8070   47.5360 O   0  0  0  0  0  0  0  0  0  0  0  0
   45.0980   31.7510   48.4250 C   0  0  0  0  0  0  0  0  0  0  0  0
   45.6340   31.9620   49.7240 N   0  0  0  0  0  0  0  0  0  0  0  0
   44.7560   30.5840   48.1170 O   0  0  0  0  0  0  0  0  0  0  0  0
   43.7521   36.6008   44.8018 H   0  0  0  0  0  0  0  0  0  0  0  0
   44.9571   36.4255   42.6014 H   0  0  0  0  0  0  0  0  0  0  0  0
   46.6954   34.6045   42.3258 H   0  0  0  0  0  0  0  0  0  0  0  0
   45.7312   31.1704   50.3759 H   0  0  0  0  0  0  0  0  0  0  0  0
   45.9254   32.9065   50.0137 H   0  0  0  0  0  0  0  0  0  0  0  0
  1  6  2  0
  2  1  1  0
  3  2  2  0
  3  4  1  0
  4  5  2  0
  5  6  1  0
  5  7  1  0
  7  8  2  0
  7  9  1  0
  9 10  1  0
 10 11  1  0
 12 10  2  0
  1 13  1  0
  2 14  1  0
  3 15  1  0
 11 16  1  0
 11 17  1  0
M  ISO  3  13  14  14  14  15  14
M  END
>  <minimizedAffinity>  (1) 
-4.37186241

>  <minimizedRMSD>  (1) 
1.00632429

$$$$
