
     RDKit          3D

 24 26  0  0  0  0  0  0  0  0999 V2000
   45.4550   33.9600   45.7230 C   0  0  0  0  0  0  0  0  0  0  0  0
   44.7100   34.9600   45.9480 O   0  0  0  0  0  0  0  0  0  0  0  0
   47.4890   31.5450   47.5500 C   0  0  0  0  0  0  0  0  0  0  0  0
   46.7380   31.3110   48.7070 C   0  0  0  0  0  0  0  0  0  0  0  0
   45.5260   31.9860   48.8630 C   0  0  0  0  0  0  0  0  0  0  0  0
   45.1310   32.8470   47.8710 N   0  0  0  0  0  0  0  0  0  0  0  0
   45.8800   33.0450   46.7720 C   0  0  0  0  0  0  0  0  0  0  0  0
   47.0510   32.4000   46.6100 N   0  0  0  0  0  0  0  0  0  0  0  0
   45.8550   33.7760   44.4000 O   0  0  0  0  0  0  0  0  0  0  0  0
   43.0620   34.5490   40.8690 N   0  0  0  0  0  0  0  0  0  0  0  0
   43.5700   35.6940   41.4020 C   0  0  0  0  0  0  0  0  0  0  0  0
   44.3780   35.3510   42.4320 N   0  0  0  0  0  0  0  0  0  0  0  0
   44.3850   34.0010   42.5580 C   0  0  0  0  0  0  0  0  0  0  0  0
   45.0480   33.1830   43.4490 C   0  0  0  0  0  0  0  0  0  0  0  0
   44.8340   31.8430   43.2980 N   0  0  0  0  0  0  0  0  0  0  0  0
   44.0280   31.3650   42.3400 C   0  0  0  0  0  0  0  0  0  0  0  0
   43.3830   32.1720   41.4710 N   0  0  0  0  0  0  0  0  0  0  0  0
   43.5550   33.5110   41.5700 C   0  0  0  0  0  0  0  0  0  0  0  0
   48.4474   31.0241   47.4082 H   0  0  0  0  0  0  0  0  0  0  0  0
   47.0946   30.6107   49.4767 H   0  0  0  0  0  0  0  0  0  0  0  0
   44.9045   31.8315   49.7574 H   0  0  0  0  0  0  0  0  0  0  0  0
   42.4146   34.4877   40.0702 H   0  0  0  0  0  0  0  0  0  0  0  0
   43.3607   36.7172   41.0565 H   0  0  0  0  0  0  0  0  0  0  0  0
   43.8871   30.2771   42.2589 H   0  0  0  0  0  0  0  0  0  0  0  0
  1  2  2  0
  1  7  1  0
  3  4  2  0
  4  5  1  0
  6  5  2  0
  7  6  1  0
  8  7  2  0
  8  3  1  0
  9  1  1  0
 10 11  1  0
 10 18  1  0
 11 12  2  0
 12 13  1  0
 13 14  2  0
 14  9  1  0
 15 14  1  0
 16 15  2  0
 17 18  2  0
 17 16  1  0
 18 13  1  0
  3 19  1  0
  4 20  1  0
  5 21  1  0
 10 22  1  0
 11 23  1  0
 16 24  1  0
M  ISO  6  19  14  20  14  21  14  22   9  23  14  24  14
M  END
>  <minimizedAffinity>  (1) 
-4.59825611

>  <minimizedRMSD>  (1) 
6.90418863

$$$$
