
     RDKit          3D

 22 22  0  0  0  0  0  0  0  0999 V2000
   44.5350   35.6140   44.7510 C   0  0  0  0  0  0  0  0  0  0  0  0
   45.1760   35.4960   43.5160 C   0  0  0  0  0  0  0  0  0  0  0  0
   46.1690   34.5180   43.3650 C   0  0  0  0  0  0  0  0  0  0  0  0
   46.4590   33.7230   44.4540 N   0  0  0  0  0  0  0  0  0  0  0  0
   45.8130   33.8770   45.6210 C   0  0  0  0  0  0  0  0  0  0  0  0
   44.8720   34.8020   45.7670 N   0  0  0  0  0  0  0  0  0  0  0  0
   46.1370   33.0270   46.7520 C   0  0  0  0  0  0  0  0  0  0  0  0
   47.2410   32.4310   46.8890 O   0  0  0  0  0  0  0  0  0  0  0  0
   45.2100   32.8130   47.7910 O   0  0  0  0  0  0  0  0  0  0  0  0
   44.8160   31.5160   48.1690 C   0  0  0  0  0  0  0  0  0  0  0  0
   45.3300   30.5570   47.1130 C   0  0  0  0  0  0  0  0  0  0  0  0
   45.4580   31.1800   49.5000 C   0  0  0  0  0  0  0  0  0  0  0  0
   43.7521   36.3737   44.8924 H   0  0  0  0  0  0  0  0  0  0  0  0
   44.9073   36.1569   42.6788 H   0  0  0  0  0  0  0  0  0  0  0  0
   46.6991   34.3890   42.4098 H   0  0  0  0  0  0  0  0  0  0  0  0
   43.7221   31.4452   48.2601 H   0  0  0  0  0  0  0  0  0  0  0  0
   45.7955   29.6885   47.6019 H   0  0  0  0  0  0  0  0  0  0  0  0
   44.4921   30.2191   46.4855 H   0  0  0  0  0  0  0  0  0  0  0  0
   46.0753   31.0677   46.4855 H   0  0  0  0  0  0  0  0  0  0  0  0
   44.8063   31.5211   50.3179 H   0  0  0  0  0  0  0  0  0  0  0  0
   45.6004   30.0918   49.5741 H   0  0  0  0  0  0  0  0  0  0  0  0
   46.4333   31.6833   49.5741 H   0  0  0  0  0  0  0  0  0  0  0  0
  1  6  2  0
  2  1  1  0
  3  2  2  0
  3  4  1  0
  4  5  2  0
  5  6  1  0
  5  7  1  0
  7  8  2  0
  7  9  1  0
  9 10  1  0
 10 12  1  0
 11 10  1  0
  1 13  1  0
  2 14  1  0
  3 15  1  0
 10 16  1  0
 11 17  1  0
 11 18  1  0
 11 19  1  0
 12 20  1  0
 12 21  1  0
 12 22  1  0
M  ISO  8  13  14  14  14  15  14  16   8  17   8  18   8  19   8  20   8
M  ISO  2  21   8  22   8
M  END
>  <minimizedAffinity>  (1) 
-4.10153627

>  <minimizedRMSD>  (1) 
1.00365806

$$$$
