
     RDKit          3D

 21 22  0  0  0  0  0  0  0  0999 V2000
   45.5140   33.6880   45.7000 C   0  0  0  0  0  0  0  0  0  0  0  0
   44.9820   34.8110   45.7840 O   0  0  0  0  0  0  0  0  0  0  0  0
   47.6390   31.7080   47.8930 C   0  0  0  0  0  0  0  0  0  0  0  0
   46.8080   31.4390   48.9830 C   0  0  0  0  0  0  0  0  0  0  0  0
   45.5130   31.9430   48.9590 C   0  0  0  0  0  0  0  0  0  0  0  0
   45.1140   32.6750   47.8720 N   0  0  0  0  0  0  0  0  0  0  0  0
   45.9480   32.9090   46.8460 C   0  0  0  0  0  0  0  0  0  0  0  0
   47.1900   32.4360   46.8530 N   0  0  0  0  0  0  0  0  0  0  0  0
   45.6620   33.2310   44.4020 O   0  0  0  0  0  0  0  0  0  0  0  0
   46.6270   33.7920   43.5560 C   0  0  0  0  0  0  0  0  0  0  0  0
   46.4050   34.8710   42.6960 C   0  0  0  0  0  0  0  0  0  0  0  0
   47.4900   35.2680   41.9470 C   0  0  0  0  0  0  0  0  0  0  0  0
   48.6810   34.6530   42.0420 N   0  0  0  0  0  0  0  0  0  0  0  0
   48.8660   33.6040   42.8890 C   0  0  0  0  0  0  0  0  0  0  0  0
   47.8270   33.1880   43.6360 N   0  0  0  0  0  0  0  0  0  0  0  0
   48.6690   31.3219   47.8841 H   0  0  0  0  0  0  0  0  0  0  0  0
   47.1682   30.8452   49.8360 H   0  0  0  0  0  0  0  0  0  0  0  0
   44.8229   31.7580   49.7954 H   0  0  0  0  0  0  0  0  0  0  0  0
   45.4276   35.3703   42.6223 H   0  0  0  0  0  0  0  0  0  0  0  0
   47.3787   36.1126   41.2511 H   0  0  0  0  0  0  0  0  0  0  0  0
   49.8444   33.1066   42.9614 H   0  0  0  0  0  0  0  0  0  0  0  0
  1  2  2  0
  1  7  1  0
  3  4  2  0
  5  4  1  0
  6  5  2  0
  7  8  2  0
  7  6  1  0
  8  3  1  0
  9  1  1  0
 10 15  1  0
 10  9  1  0
 11 10  2  0
 12 13  2  0
 12 11  1  0
 13 14  1  0
 14 15  2  0
  3 16  1  0
  4 17  1  0
  5 18  1  0
 11 19  1  0
 12 20  1  0
 14 21  1  0
M  ISO  6  16  14  17  14  18  14  19  14  20  14  21  14
M  END
>  <minimizedAffinity>  (1) 
-4.2766571

>  <minimizedRMSD>  (1) 
6.26710558

$$$$
