
     RDKit          3D

 35 38  0  0  0  0  0  0  0  0999 V2000
   45.1400   34.2980   43.4490 C   0  0  0  0  0  0  0  0  0  0  0  0
   45.4930   35.5980   43.1530 C   0  0  0  0  0  0  0  0  0  0  0  0
   44.8040   36.2280   42.1630 C   0  0  0  0  0  0  0  0  0  0  0  0
   43.8130   35.6090   41.4920 N   0  0  0  0  0  0  0  0  0  0  0  0
   43.4760   34.3260   41.7940 C   0  0  0  0  0  0  0  0  0  0  0  0
   44.1480   33.6570   42.7890 N   0  0  0  0  0  0  0  0  0  0  0  0
   42.3960   33.6890   41.0450 C   0  0  0  0  0  0  0  0  0  0  0  0
   41.8710   32.4830   41.3780 C   0  0  0  0  0  0  0  0  0  0  0  0
   40.9110   32.2450   40.4550 N   0  0  0  0  0  0  0  0  0  0  0  0
   40.8440   33.2760   39.5770 C   0  0  0  0  0  0  0  0  0  0  0  0
   40.0360   33.4920   38.4780 C   0  0  0  0  0  0  0  0  0  0  0  0
   40.1850   34.6440   37.7550 C   0  0  0  0  0  0  0  0  0  0  0  0
   41.1220   35.5820   38.1070 C   0  0  0  0  0  0  0  0  0  0  0  0
   41.9520   35.3870   39.2150 C   0  0  0  0  0  0  0  0  0  0  0  0
   41.7830   34.2190   39.9280 C   0  0  0  0  0  0  0  0  0  0  0  0
   45.6870   33.4340   44.4170 O   0  0  0  0  0  0  0  0  0  0  0  0
   45.4410   33.7350   45.7720 C   0  0  0  0  0  0  0  0  0  0  0  0
   44.7950   34.7790   45.9810 O   0  0  0  0  0  0  0  0  0  0  0  0
   47.5660   31.4080   47.6190 C   0  0  0  0  0  0  0  0  0  0  0  0
   46.8690   31.1990   48.7980 C   0  0  0  0  0  0  0  0  0  0  0  0
   45.6500   31.8640   48.9660 C   0  0  0  0  0  0  0  0  0  0  0  0
   45.2160   32.6860   47.9550 N   0  0  0  0  0  0  0  0  0  0  0  0
   45.9260   32.8610   46.8240 C   0  0  0  0  0  0  0  0  0  0  0  0
   47.0890   32.2300   46.6550 N   0  0  0  0  0  0  0  0  0  0  0  0
   46.3020   36.1070   43.6974 H   0  0  0  0  0  0  0  0  0  0  0  0
   45.0618   37.2657   41.9048 H   0  0  0  0  0  0  0  0  0  0  0  0
   42.1635   31.8369   42.2188 H   0  0  0  0  0  0  0  0  0  0  0  0
   40.3177   31.4036   40.4238 H   0  0  0  0  0  0  0  0  0  0  0  0
   39.2813   32.7464   38.1873 H   0  0  0  0  0  0  0  0  0  0  0  0
   39.5440   34.8206   36.8786 H   0  0  0  0  0  0  0  0  0  0  0  0
   41.2217   36.5001   37.5094 H   0  0  0  0  0  0  0  0  0  0  0  0
   42.7068   36.1327   39.5052 H   0  0  0  0  0  0  0  0  0  0  0  0
   48.5267   30.8955   47.4631 H   0  0  0  0  0  0  0  0  0  0  0  0
   47.2622   30.5305   49.5781 H   0  0  0  0  0  0  0  0  0  0  0  0
   45.0556   31.7323   49.8822 H   0  0  0  0  0  0  0  0  0  0  0  0
  1 16  1  0
  2  1  2  0
  3  2  1  0
  4  5  1  0
  4  3  2  0
  5  6  2  0
  6  1  1  0
  7  8  2  0
  7  5  1  0
  9  8  1  0
 10 15  2  0
 10  9  1  0
 11 10  1  0
 12 13  1  0
 12 11  2  0
 13 14  2  0
 14 15  1  0
 15  7  1  0
 16 17  1  0
 17 18  2  0
 17 23  1  0
 19 20  2  0
 20 21  1  0
 22 21  2  0
 23 22  1  0
 24 23  2  0
 24 19  1  0
  2 25  1  0
  3 26  1  0
  8 27  1  0
  9 28  1  0
 11 29  1  0
 12 30  1  0
 13 31  1  0
 14 32  1  0
 19 33  1  0
 20 34  1  0
 21 35  1  0
M  ISO  8  25  14  26  14  27  14  28   9  29  14  30  14  31  14  32  14
M  ISO  3  33  14  34  14  35  14
M  END
>  <minimizedAffinity>  (1) 
-6.18638563

>  <minimizedRMSD>  (1) 
2.14523816

$$$$
