
     RDKit          3D

 34 36  0  0  0  0  0  0  0  0999 V2000
   45.2660   34.3340   43.5280 C   0  0  0  0  0  0  0  0  0  0  0  0
   45.4630   35.6440   43.1170 C   0  0  0  0  0  0  0  0  0  0  0  0
   44.6810   36.1240   42.1180 C   0  0  0  0  0  0  0  0  0  0  0  0
   43.7370   35.3380   41.5440 N   0  0  0  0  0  0  0  0  0  0  0  0
   43.5540   34.0610   41.9540 C   0  0  0  0  0  0  0  0  0  0  0  0
   44.3170   33.5430   42.9510 N   0  0  0  0  0  0  0  0  0  0  0  0
   40.5740   31.8650   40.0150 C   0  0  0  0  0  0  0  0  0  0  0  0
   41.3270   31.2170   41.0000 C   0  0  0  0  0  0  0  0  0  0  0  0
   42.3150   31.9490   41.6420 C   0  0  0  0  0  0  0  0  0  0  0  0
   42.5270   33.2690   41.3010 C   0  0  0  0  0  0  0  0  0  0  0  0
   41.7700   33.8870   40.3260 C   0  0  0  0  0  0  0  0  0  0  0  0
   40.7660   33.2020   39.6500 C   0  0  0  0  0  0  0  0  0  0  0  0
   39.3090   30.9670   39.1790 S   0  0  0  0  0  0  0  0  0  0  0  0
   38.0950   30.9840   40.0710 O   0  0  0  0  0  0  0  0  0  0  0  0
   38.9250   31.6400   37.8770 O   0  0  0  0  0  0  0  0  0  0  0  0
   45.9430   33.6280   44.5290 O   0  0  0  0  0  0  0  0  0  0  0  0
   45.5210   33.7820   45.8520 C   0  0  0  0  0  0  0  0  0  0  0  0
   44.7600   34.7380   46.0400 O   0  0  0  0  0  0  0  0  0  0  0  0
   47.5640   31.3780   47.6920 C   0  0  0  0  0  0  0  0  0  0  0  0
   46.8260   31.1400   48.8500 C   0  0  0  0  0  0  0  0  0  0  0  0
   45.6150   31.8180   48.9920 C   0  0  0  0  0  0  0  0  0  0  0  0
   45.2010   32.6840   47.9940 N   0  0  0  0  0  0  0  0  0  0  0  0
   45.9650   32.8670   46.8980 C   0  0  0  0  0  0  0  0  0  0  0  0
   47.1420   32.2280   46.7280 N   0  0  0  0  0  0  0  0  0  0  0  0
   46.2311   36.2753   43.5875 H   0  0  0  0  0  0  0  0  0  0  0  0
   44.8138   37.1593   41.7707 H   0  0  0  0  0  0  0  0  0  0  0  0
   41.1420   30.1634   41.2565 H   0  0  0  0  0  0  0  0  0  0  0  0
   42.9294   31.4771   42.4229 H   0  0  0  0  0  0  0  0  0  0  0  0
   41.9646   34.9411   40.0791 H   0  0  0  0  0  0  0  0  0  0  0  0
   40.1567   33.6845   38.8716 H   0  0  0  0  0  0  0  0  0  0  0  0
   39.7569   29.7011   38.9073 H   0  0  0  0  0  0  0  0  0  0  0  0
   48.5231   30.8565   47.5572 H   0  0  0  0  0  0  0  0  0  0  0  0
   47.1847   30.4440   49.6227 H   0  0  0  0  0  0  0  0  0  0  0  0
   44.9952   31.6661   49.8880 H   0  0  0  0  0  0  0  0  0  0  0  0
  1 16  1  0
  2  1  2  0
  3  2  1  0
  4  5  1  0
  4  3  2  0
  5  6  2  0
  6  1  1  0
  7  8  2  0
  8  9  1  0
 10  9  2  0
 10  5  1  0
 11 10  1  0
 12  7  1  0
 12 11  2  0
 13  7  1  0
 13 14  2  0
 15 13  2  0
 16 17  1  0
 17 18  2  0
 17 23  1  0
 19 20  2  0
 20 21  1  0
 22 21  2  0
 23 22  1  0
 24 23  2  0
 24 19  1  0
  2 25  1  0
  3 26  1  0
  8 27  1  0
  9 28  1  0
 11 29  1  0
 12 30  1  0
 13 31  1  0
 19 32  1  0
 20 33  1  0
 21 34  1  0
M  ISO  8  25  14  26  14  27  14  28  14  29  14  30  14  31  11  32  14
M  ISO  2  33  14  34  14
M  END
>  <minimizedAffinity>  (1) 
-5.11201191

>  <minimizedRMSD>  (1) 
2.25716615

$$$$
