
     RDKit          3D

 36 38  0  0  0  0  0  0  0  0999 V2000
   45.1690   34.4300   43.3680 C   0  0  0  0  0  0  0  0  0  0  0  0
   44.9970   35.6710   42.7940 C   0  0  0  0  0  0  0  0  0  0  0  0
   44.0980   35.7650   41.7690 C   0  0  0  0  0  0  0  0  0  0  0  0
   43.3990   34.6930   41.3250 N   0  0  0  0  0  0  0  0  0  0  0  0
   43.5880   33.4890   41.9060 C   0  0  0  0  0  0  0  0  0  0  0  0
   44.4700   33.3470   42.9280 N   0  0  0  0  0  0  0  0  0  0  0  0
   42.8400   32.3850   41.4200 N   0  0  0  0  0  0  0  0  0  0  0  0
   42.4560   32.3740   40.0380 C   0  0  0  0  0  0  0  0  0  0  0  0
   41.9990   30.9770   39.6810 C   0  0  0  0  0  0  0  0  0  0  0  0
   40.8930   30.4880   40.5720 C   0  0  0  0  0  0  0  0  0  0  0  0
   40.9730   31.0340   41.9760 C   0  0  0  0  0  0  0  0  0  0  0  0
   42.4560   31.2800   42.2680 C   0  0  0  0  0  0  0  0  0  0  0  0
   46.0190   34.0610   44.4230 O   0  0  0  0  0  0  0  0  0  0  0  0
   45.4860   34.0420   45.7240 C   0  0  0  0  0  0  0  0  0  0  0  0
   44.6460   34.9430   45.9480 O   0  0  0  0  0  0  0  0  0  0  0  0
   47.4140   31.4210   47.3610 C   0  0  0  0  0  0  0  0  0  0  0  0
   46.6820   31.1640   48.5230 C   0  0  0  0  0  0  0  0  0  0  0  0
   45.5260   31.8990   48.7350 C   0  0  0  0  0  0  0  0  0  0  0  0
   45.1450   32.8410   47.8070 N   0  0  0  0  0  0  0  0  0  0  0  0
   45.9010   33.0470   46.6910 C   0  0  0  0  0  0  0  0  0  0  0  0
   47.0230   32.3490   46.4630 N   0  0  0  0  0  0  0  0  0  0  0  0
   45.5593   36.5485   43.1459 H   0  0  0  0  0  0  0  0  0  0  0  0
   43.9370   36.7418   41.2895 H   0  0  0  0  0  0  0  0  0  0  0  0
   41.6342   33.0868   39.8750 H   0  0  0  0  0  0  0  0  0  0  0  0
   43.3080   32.6661   39.4065 H   0  0  0  0  0  0  0  0  0  0  0  0
   41.6398   30.9783   38.6413 H   0  0  0  0  0  0  0  0  0  0  0  0
   42.8570   30.3012   39.8118 H   0  0  0  0  0  0  0  0  0  0  0  0
   39.9310   30.7918   40.1334 H   0  0  0  0  0  0  0  0  0  0  0  0
   40.9896   29.3945   40.6414 H   0  0  0  0  0  0  0  0  0  0  0  0
   40.4107   31.9766   42.0489 H   0  0  0  0  0  0  0  0  0  0  0  0
   40.5385   30.3292   42.7002 H   0  0  0  0  0  0  0  0  0  0  0  0
   43.0488   30.3857   42.0255 H   0  0  0  0  0  0  0  0  0  0  0  0
   42.6304   31.5025   43.3310 H   0  0  0  0  0  0  0  0  0  0  0  0
   48.3354   30.8504   47.1729 H   0  0  0  0  0  0  0  0  0  0  0  0
   47.0122   30.4034   49.2458 H   0  0  0  0  0  0  0  0  0  0  0  0
   44.9188   31.7308   49.6367 H   0  0  0  0  0  0  0  0  0  0  0  0
  1 13  1  0
  2  1  2  0
  3  2  1  0
  4  3  2  0
  4  5  1  0
  5  6  2  0
  6  1  1  0
  7  5  1  0
  7 12  1  0
  8  7  1  0
  9  8  1  0
  9 10  1  0
 10 11  1  0
 11 12  1  0
 13 14  1  0
 14 15  2  0
 14 20  1  0
 16 17  2  0
 17 18  1  0
 19 18  2  0
 20 19  1  0
 21 20  2  0
 21 16  1  0
  2 22  1  0
  3 23  1  0
  8 24  1  0
  8 25  1  0
  9 26  1  0
  9 27  1  0
 10 28  1  0
 10 29  1  0
 11 30  1  0
 11 31  1  0
 12 32  1  0
 12 33  1  0
 16 34  1  0
 17 35  1  0
 18 36  1  0
M  ISO  8  22  14  23  14  24  13  25  13  26  13  27  13  28  13  29  13
M  ISO  7  30  13  31  13  32  13  33  13  34  14  35  14  36  14
M  END
>  <minimizedAffinity>  (1) 
-5.05392361

>  <minimizedRMSD>  (1) 
0.55505836

$$$$
