
     RDKit          3D

 27 29  0  0  0  0  0  0  0  0999 V2000
   45.1700   34.3090   43.3380 C   0  0  0  0  0  0  0  0  0  0  0  0
   44.9970   35.4720   42.6160 C   0  0  0  0  0  0  0  0  0  0  0  0
   44.0830   35.4570   41.6120 C   0  0  0  0  0  0  0  0  0  0  0  0
   43.3700   34.3570   41.3270 N   0  0  0  0  0  0  0  0  0  0  0  0
   43.5430   33.2200   42.0360 C   0  0  0  0  0  0  0  0  0  0  0  0
   44.4550   33.1870   43.0580 N   0  0  0  0  0  0  0  0  0  0  0  0
   42.7710   32.0680   41.7080 N   0  0  0  0  0  0  0  0  0  0  0  0
   42.7000   30.8820   42.3430 C   0  0  0  0  0  0  0  0  0  0  0  0
   41.8400   30.0670   41.6890 N   0  0  0  0  0  0  0  0  0  0  0  0
   41.3760   30.7590   40.6410 C   0  0  0  0  0  0  0  0  0  0  0  0
   41.9570   31.9690   40.6760 N   0  0  0  0  0  0  0  0  0  0  0  0
   46.0390   34.0580   44.4130 O   0  0  0  0  0  0  0  0  0  0  0  0
   45.5010   34.0540   45.7050 C   0  0  0  0  0  0  0  0  0  0  0  0
   44.6730   34.9550   45.9290 O   0  0  0  0  0  0  0  0  0  0  0  0
   47.4020   31.4270   47.3690 C   0  0  0  0  0  0  0  0  0  0  0  0
   46.6720   31.1650   48.5230 C   0  0  0  0  0  0  0  0  0  0  0  0
   45.5090   31.9080   48.7220 C   0  0  0  0  0  0  0  0  0  0  0  0
   45.1510   32.8510   47.7770 N   0  0  0  0  0  0  0  0  0  0  0  0
   45.9020   33.0610   46.6740 C   0  0  0  0  0  0  0  0  0  0  0  0
   47.0260   32.3550   46.4630 N   0  0  0  0  0  0  0  0  0  0  0  0
   45.5779   36.3776   42.8452 H   0  0  0  0  0  0  0  0  0  0  0  0
   43.9233   36.3689   41.0179 H   0  0  0  0  0  0  0  0  0  0  0  0
   43.2562   30.6165   43.2541 H   0  0  0  0  0  0  0  0  0  0  0  0
   40.6539   30.4029   39.8915 H   0  0  0  0  0  0  0  0  0  0  0  0
   48.3236   30.8548   47.1866 H   0  0  0  0  0  0  0  0  0  0  0  0
   46.9979   30.4044   49.2477 H   0  0  0  0  0  0  0  0  0  0  0  0
   44.8875   31.7466   49.6151 H   0  0  0  0  0  0  0  0  0  0  0  0
  1 12  1  0
  2  1  2  0
  3  2  1  0
  4  3  2  0
  4  5  1  0
  5  6  2  0
  6  1  1  0
  7  5  1  0
  7  8  1  0
  9  8  2  0
 10 11  2  0
 10  9  1  0
 11  7  1  0
 12 13  1  0
 13 14  2  0
 13 19  1  0
 15 16  2  0
 16 17  1  0
 18 17  2  0
 19 18  1  0
 20 19  2  0
 20 15  1  0
  2 21  1  0
  3 22  1  0
  8 23  1  0
 10 24  1  0
 15 25  1  0
 16 26  1  0
 17 27  1  0
M  ISO  7  21  14  22  14  23  14  24  14  25  14  26  14  27  14
M  END
>  <minimizedAffinity>  (1) 
-4.80604887

>  <minimizedRMSD>  (1) 
0.400589377

$$$$
