
     RDKit          3D

 30 32  0  0  0  0  0  0  0  0999 V2000
   45.2220   34.4510   43.4160 C   0  0  0  0  0  0  0  0  0  0  0  0
   45.1300   35.7090   42.8460 C   0  0  0  0  0  0  0  0  0  0  0  0
   44.2430   35.8650   41.8150 C   0  0  0  0  0  0  0  0  0  0  0  0
   43.4900   34.8340   41.3720 N   0  0  0  0  0  0  0  0  0  0  0  0
   43.5980   33.6150   41.9460 C   0  0  0  0  0  0  0  0  0  0  0  0
   44.4690   33.4180   42.9740 N   0  0  0  0  0  0  0  0  0  0  0  0
   42.7650   32.5230   41.4400 C   0  0  0  0  0  0  0  0  0  0  0  0
   42.6560   31.3490   42.1570 C   0  0  0  0  0  0  0  0  0  0  0  0
   41.8360   30.3770   41.5780 C   0  0  0  0  0  0  0  0  0  0  0  0
   41.1920   30.5900   40.3820 C   0  0  0  0  0  0  0  0  0  0  0  0
   41.3420   31.7970   39.7040 C   0  0  0  0  0  0  0  0  0  0  0  0
   42.1380   32.7350   40.2690 N   0  0  0  0  0  0  0  0  0  0  0  0
   46.0430   34.0380   44.4710 O   0  0  0  0  0  0  0  0  0  0  0  0
   45.4840   34.0280   45.7700 C   0  0  0  0  0  0  0  0  0  0  0  0
   44.6420   34.9150   45.9890 O   0  0  0  0  0  0  0  0  0  0  0  0
   47.4180   31.3900   47.4110 C   0  0  0  0  0  0  0  0  0  0  0  0
   46.6760   31.1350   48.5720 C   0  0  0  0  0  0  0  0  0  0  0  0
   45.5200   31.8750   48.7740 C   0  0  0  0  0  0  0  0  0  0  0  0
   45.1600   32.8110   47.8400 N   0  0  0  0  0  0  0  0  0  0  0  0
   45.9190   33.0180   46.7310 C   0  0  0  0  0  0  0  0  0  0  0  0
   47.0350   32.3260   46.5020 N   0  0  0  0  0  0  0  0  0  0  0  0
   45.7436   36.5479   43.2062 H   0  0  0  0  0  0  0  0  0  0  0  0
   44.1410   36.8505   41.3370 H   0  0  0  0  0  0  0  0  0  0  0  0
   43.1760   31.1902   43.1132 H   0  0  0  0  0  0  0  0  0  0  0  0
   41.7019   29.4145   42.0934 H   0  0  0  0  0  0  0  0  0  0  0  0
   40.5536   29.8011   39.9576 H   0  0  0  0  0  0  0  0  0  0  0  0
   40.8333   31.9812   38.7462 H   0  0  0  0  0  0  0  0  0  0  0  0
   48.3383   30.8155   47.2294 H   0  0  0  0  0  0  0  0  0  0  0  0
   46.9989   30.3744   49.2981 H   0  0  0  0  0  0  0  0  0  0  0  0
   44.9022   31.7130   49.6696 H   0  0  0  0  0  0  0  0  0  0  0  0
  1 13  1  0
  2  1  2  0
  3  2  1  0
  4  3  2  0
  4  5  1  0
  5  6  2  0
  6  1  1  0
  7  5  1  0
  7  8  2  0
  9  8  1  0
 10  9  2  0
 11 12  2  0
 11 10  1  0
 12  7  1  0
 13 14  1  0
 14 15  2  0
 14 20  1  0
 16 17  2  0
 17 18  1  0
 19 18  2  0
 20 19  1  0
 21 20  2  0
 21 16  1  0
  2 22  1  0
  3 23  1  0
  8 24  1  0
  9 25  1  0
 10 26  1  0
 11 27  1  0
 16 28  1  0
 17 29  1  0
 18 30  1  0
M  ISO  8  22  14  23  14  24  14  25  14  26  14  27  14  28  14  29  14
M  ISO  1  30  14
M  END
>  <minimizedAffinity>  (1) 
-4.77855444

>  <minimizedRMSD>  (1) 
0.761629283

$$$$
