
     RDKit          3D

 37 39  0  0  0  0  0  0  0  0999 V2000
   44.9080   34.4360   43.0620 C   0  0  0  0  0  0  0  0  0  0  0  0
   44.6750   35.6070   42.3750 C   0  0  0  0  0  0  0  0  0  0  0  0
   43.6950   35.6050   41.4190 C   0  0  0  0  0  0  0  0  0  0  0  0
   42.9830   34.4930   41.1600 N   0  0  0  0  0  0  0  0  0  0  0  0
   43.2170   33.3360   41.8420 C   0  0  0  0  0  0  0  0  0  0  0  0
   44.1990   33.3220   42.8050 N   0  0  0  0  0  0  0  0  0  0  0  0
   42.4170   32.1100   41.5420 C   0  0  0  0  0  0  0  0  0  0  0  0
   42.8540   31.0000   42.4660 C   0  0  0  0  0  0  0  0  0  0  0  0
   41.9960   29.7850   42.0940 C   0  0  0  0  0  0  0  0  0  0  0  0
   40.6120   30.1290   42.6080 C   0  0  0  0  0  0  0  0  0  0  0  0
   40.0640   31.2440   41.7910 C   0  0  0  0  0  0  0  0  0  0  0  0
   40.9600   32.4050   41.5650 C   0  0  0  0  0  0  0  0  0  0  0  0
   45.8460   34.1740   44.0800 O   0  0  0  0  0  0  0  0  0  0  0  0
   45.3840   34.2310   45.4180 C   0  0  0  0  0  0  0  0  0  0  0  0
   44.6100   35.1690   45.6750 O   0  0  0  0  0  0  0  0  0  0  0  0
   47.2990   31.5700   47.0200 C   0  0  0  0  0  0  0  0  0  0  0  0
   46.6330   31.3540   48.2160 C   0  0  0  0  0  0  0  0  0  0  0  0
   45.5100   32.1390   48.4670 C   0  0  0  0  0  0  0  0  0  0  0  0
   45.1170   33.0770   47.5370 N   0  0  0  0  0  0  0  0  0  0  0  0
   45.8100   33.2370   46.3910 C   0  0  0  0  0  0  0  0  0  0  0  0
   46.8920   32.4940   46.1300 N   0  0  0  0  0  0  0  0  0  0  0  0
   45.2580   36.5152   42.5878 H   0  0  0  0  0  0  0  0  0  0  0  0
   43.4866   36.5258   40.8544 H   0  0  0  0  0  0  0  0  0  0  0  0
   42.6088   31.7597   40.5171 H   0  0  0  0  0  0  0  0  0  0  0  0
   43.9206   30.7756   42.3176 H   0  0  0  0  0  0  0  0  0  0  0  0
   42.7255   31.2783   43.5224 H   0  0  0  0  0  0  0  0  0  0  0  0
   41.9810   29.6382   41.0039 H   0  0  0  0  0  0  0  0  0  0  0  0
   42.3832   28.8503   42.5258 H   0  0  0  0  0  0  0  0  0  0  0  0
   39.9562   29.2501   42.5222 H   0  0  0  0  0  0  0  0  0  0  0  0
   40.6686   30.4307   43.6643 H   0  0  0  0  0  0  0  0  0  0  0  0
   39.7935   30.8347   40.8065 H   0  0  0  0  0  0  0  0  0  0  0  0
   39.2174   31.6397   42.3712 H   0  0  0  0  0  0  0  0  0  0  0  0
   40.7768   33.1329   42.3691 H   0  0  0  0  0  0  0  0  0  0  0  0
   40.7168   32.7753   40.5581 H   0  0  0  0  0  0  0  0  0  0  0  0
   48.1895   30.9664   46.7905 H   0  0  0  0  0  0  0  0  0  0  0  0
   46.9761   30.5960   48.9355 H   0  0  0  0  0  0  0  0  0  0  0  0
   44.9415   32.0112   49.4000 H   0  0  0  0  0  0  0  0  0  0  0  0
  1 13  1  0
  2  1  2  0
  3  2  1  0
  4  3  2  0
  4  5  1  0
  5  6  2  0
  6  1  1  0
  7 12  1  0
  7  5  1  0
  7  8  1  0
  9  8  1  0
  9 10  1  0
 11 10  1  0
 12 11  1  0
 13 14  1  0
 14 15  2  0
 14 20  1  0
 16 17  2  0
 17 18  1  0
 19 18  2  0
 20 19  1  0
 21 20  2  0
 21 16  1  0
  2 22  1  0
  3 23  1  0
  7 24  1  0
  8 25  1  0
  8 26  1  0
  9 27  1  0
  9 28  1  0
 10 29  1  0
 10 30  1  0
 11 31  1  0
 11 32  1  0
 12 33  1  0
 12 34  1  0
 16 35  1  0
 17 36  1  0
 18 37  1  0
M  ISO  8  22  14  23  14  24  13  25  13  26  13  27  13  28  13  29  13
M  ISO  8  30  13  31  13  32  13  33  13  34  13  35  14  36  14  37  14
M  END
>  <minimizedAffinity>  (1) 
-4.87044287

>  <minimizedRMSD>  (1) 
0.64465344

$$$$
