
     RDKit          3D

 28 30  0  0  0  0  0  0  0  0999 V2000
   45.1590   34.4130   43.3500 C   0  0  0  0  0  0  0  0  0  0  0  0
   44.9700   35.6430   42.7730 C   0  0  0  0  0  0  0  0  0  0  0  0
   44.0670   35.7430   41.7550 C   0  0  0  0  0  0  0  0  0  0  0  0
   43.3840   34.6730   41.3310 N   0  0  0  0  0  0  0  0  0  0  0  0
   43.5680   33.4510   41.8980 C   0  0  0  0  0  0  0  0  0  0  0  0
   44.4670   33.3210   42.9190 N   0  0  0  0  0  0  0  0  0  0  0  0
   42.8110   32.2970   41.4180 C   0  0  0  0  0  0  0  0  0  0  0  0
   42.7040   31.2120   42.2920 C   0  0  0  0  0  0  0  0  0  0  0  0
   41.9490   30.2340   41.6370 C   0  0  0  0  0  0  0  0  0  0  0  0
   41.6500   30.8030   40.3960 C   0  0  0  0  0  0  0  0  0  0  0  0
   42.1780   32.0190   40.3100 O   0  0  0  0  0  0  0  0  0  0  0  0
   46.0200   34.0370   44.4030 O   0  0  0  0  0  0  0  0  0  0  0  0
   45.4780   34.0490   45.7100 C   0  0  0  0  0  0  0  0  0  0  0  0
   44.6440   34.9520   45.9390 O   0  0  0  0  0  0  0  0  0  0  0  0
   47.4110   31.4250   47.3720 C   0  0  0  0  0  0  0  0  0  0  0  0
   46.6760   31.1770   48.5210 C   0  0  0  0  0  0  0  0  0  0  0  0
   45.5140   31.9080   48.7320 C   0  0  0  0  0  0  0  0  0  0  0  0
   45.1420   32.8470   47.7920 N   0  0  0  0  0  0  0  0  0  0  0  0
   45.9040   33.0510   46.6780 C   0  0  0  0  0  0  0  0  0  0  0  0
   47.0180   32.3530   46.4700 N   0  0  0  0  0  0  0  0  0  0  0  0
   45.5303   36.5234   43.1209 H   0  0  0  0  0  0  0  0  0  0  0  0
   43.8977   36.7183   41.2753 H   0  0  0  0  0  0  0  0  0  0  0  0
   43.1321   31.1407   43.3028 H   0  0  0  0  0  0  0  0  0  0  0  0
   41.6569   29.2424   42.0130 H   0  0  0  0  0  0  0  0  0  0  0  0
   41.0624   30.3145   39.6048 H   0  0  0  0  0  0  0  0  0  0  0  0
   48.3338   30.8547   47.1900 H   0  0  0  0  0  0  0  0  0  0  0  0
   47.0051   30.4198   49.2478 H   0  0  0  0  0  0  0  0  0  0  0  0
   44.9023   31.7416   49.6309 H   0  0  0  0  0  0  0  0  0  0  0  0
  1 12  1  0
  2  1  2  0
  3  2  1  0
  4  3  2  0
  4  5  1  0
  5  6  2  0
  6  1  1  0
  7  5  1  0
  7  8  2  0
  9  8  1  0
 10  9  2  0
 11 10  1  0
 11  7  1  0
 12 13  1  0
 13 14  2  0
 13 19  1  0
 15 16  2  0
 16 17  1  0
 18 17  2  0
 19 18  1  0
 20 19  2  0
 20 15  1  0
  2 21  1  0
  3 22  1  0
  8 23  1  0
  9 24  1  0
 10 25  1  0
 15 26  1  0
 16 27  1  0
 17 28  1  0
M  ISO  8  21  14  22  14  23  14  24  14  25  14  26  14  27  14  28  14
M  END
>  <minimizedAffinity>  (1) 
-4.60421228

>  <minimizedRMSD>  (1) 
0.498336136

$$$$
