
     RDKit          3D

 27 29  0  0  0  0  0  0  0  0999 V2000
   45.2310   34.4740   43.4340 C   0  0  0  0  0  0  0  0  0  0  0  0
   45.1180   35.7080   42.8380 C   0  0  0  0  0  0  0  0  0  0  0  0
   44.2320   35.8580   41.8110 C   0  0  0  0  0  0  0  0  0  0  0  0
   43.4910   34.8220   41.3950 N   0  0  0  0  0  0  0  0  0  0  0  0
   43.5950   33.5920   41.9790 C   0  0  0  0  0  0  0  0  0  0  0  0
   44.4840   33.4300   43.0140 N   0  0  0  0  0  0  0  0  0  0  0  0
   42.7560   32.4890   41.4810 C   0  0  0  0  0  0  0  0  0  0  0  0
   42.6740   31.2920   42.1740 C   0  0  0  0  0  0  0  0  0  0  0  0
   41.4970   30.3240   41.0820 S   0  0  0  0  0  0  0  0  0  0  0  0
   41.3610   31.7820   39.8900 C   0  0  0  0  0  0  0  0  0  0  0  0
   42.0450   32.5680   40.3700 N   0  0  0  0  0  0  0  0  0  0  0  0
   46.0440   34.0410   44.4890 O   0  0  0  0  0  0  0  0  0  0  0  0
   45.4800   34.0320   45.7850 C   0  0  0  0  0  0  0  0  0  0  0  0
   44.6380   34.9160   46.0110 O   0  0  0  0  0  0  0  0  0  0  0  0
   47.4130   31.4070   47.4190 C   0  0  0  0  0  0  0  0  0  0  0  0
   46.6840   31.1380   48.5690 C   0  0  0  0  0  0  0  0  0  0  0  0
   45.5210   31.8580   48.7900 C   0  0  0  0  0  0  0  0  0  0  0  0
   45.1350   32.8100   47.8650 N   0  0  0  0  0  0  0  0  0  0  0  0
   45.8980   33.0250   46.7540 C   0  0  0  0  0  0  0  0  0  0  0  0
   47.0320   32.3340   46.5230 N   0  0  0  0  0  0  0  0  0  0  0  0
   45.7286   36.5560   43.1816 H   0  0  0  0  0  0  0  0  0  0  0  0
   44.1253   36.8370   41.3209 H   0  0  0  0  0  0  0  0  0  0  0  0
   43.1660   30.9913   43.1107 H   0  0  0  0  0  0  0  0  0  0  0  0
   40.7717   31.8587   38.9643 H   0  0  0  0  0  0  0  0  0  0  0  0
   48.3374   30.8403   47.2337 H   0  0  0  0  0  0  0  0  0  0  0  0
   47.0203   30.3741   49.2854 H   0  0  0  0  0  0  0  0  0  0  0  0
   44.9136   31.6747   49.6886 H   0  0  0  0  0  0  0  0  0  0  0  0
  1 12  1  0
  2  1  2  0
  3  2  1  0
  4  3  2  0
  4  5  1  0
  5  6  2  0
  6  1  1  0
  7  5  1  0
  7  8  2  0
  9  8  1  0
 10 11  2  0
 10  9  1  0
 11  7  1  0
 12 13  1  0
 13 14  2  0
 13 19  1  0
 15 16  2  0
 16 17  1  0
 18 17  2  0
 19 18  1  0
 20 19  2  0
 20 15  1  0
  2 21  1  0
  3 22  1  0
  8 23  1  0
 10 24  1  0
 15 25  1  0
 16 26  1  0
 17 27  1  0
M  ISO  7  21  14  22  14  23  14  24  14  25  14  26  14  27  14
M  END
>  <minimizedAffinity>  (1) 
-4.66731071

>  <minimizedRMSD>  (1) 
0.69516772

$$$$
