
     RDKit          3D

 24 25  0  0  0  0  0  0  0  0999 V2000
   45.9440   34.3390   44.2800 O   0  0  0  0  0  0  0  0  0  0  0  0
   45.0350   34.4110   43.2020 C   0  0  0  0  0  0  0  0  0  0  0  0
   44.7390   35.4940   42.3900 C   0  0  0  0  0  0  0  0  0  0  0  0
   43.8120   35.2980   41.4090 C   0  0  0  0  0  0  0  0  0  0  0  0
   43.2170   34.1150   41.2400 N   0  0  0  0  0  0  0  0  0  0  0  0
   43.5080   33.0610   42.0340 C   0  0  0  0  0  0  0  0  0  0  0  0
   44.4350   33.2140   43.0340 N   0  0  0  0  0  0  0  0  0  0  0  0
   42.8390   31.7820   41.8210 C   0  0  0  0  0  0  0  0  0  0  0  0
   43.0030   31.2150   40.7350 O   0  0  0  0  0  0  0  0  0  0  0  0
   42.0500   31.2200   42.7900 O   0  0  0  0  0  0  0  0  0  0  0  0
   45.4000   34.2820   45.5820 C   0  0  0  0  0  0  0  0  0  0  0  0
   44.5640   35.1710   45.8470 O   0  0  0  0  0  0  0  0  0  0  0  0
   47.3030   31.5370   47.0540 C   0  0  0  0  0  0  0  0  0  0  0  0
   46.6080   31.2730   48.2410 C   0  0  0  0  0  0  0  0  0  0  0  0
   45.4900   32.0460   48.5220 C   0  0  0  0  0  0  0  0  0  0  0  0
   45.1110   33.0270   47.6360 N   0  0  0  0  0  0  0  0  0  0  0  0
   45.8270   33.2360   46.5000 C   0  0  0  0  0  0  0  0  0  0  0  0
   46.9080   32.5060   46.2050 N   0  0  0  0  0  0  0  0  0  0  0  0
   45.2298   36.4684   42.5303 H   0  0  0  0  0  0  0  0  0  0  0  0
   43.5489   36.1327   40.7427 H   0  0  0  0  0  0  0  0  0  0  0  0
   41.6054   30.3511   42.6240 H   0  0  0  0  0  0  0  0  0  0  0  0
   48.1929   30.9388   46.8088 H   0  0  0  0  0  0  0  0  0  0  0  0
   46.9373   30.4793   48.9278 H   0  0  0  0  0  0  0  0  0  0  0  0
   44.9135   31.8758   49.4432 H   0  0  0  0  0  0  0  0  0  0  0  0
  1 11  1  0
  2  1  1  0
  3  2  2  0
  4  3  1  0
  5  4  2  0
  5  6  1  0
  6  7  2  0
  7  2  1  0
  8  6  1  0
  8 10  1  0
  9  8  2  0
 11 12  2  0
 11 17  1  0
 13 14  2  0
 14 15  1  0
 16 15  2  0
 17 16  1  0
 18 17  2  0
 18 13  1  0
  3 19  1  0
  4 20  1  0
 10 21  1  0
 13 22  1  0
 14 23  1  0
 15 24  1  0
M  ISO  6  19  14  20  14  21   3  22  14  23  14  24  14
M  END
>  <minimizedAffinity>  (1) 
-4.6176362

>  <minimizedRMSD>  (1) 
0.353116214

$$$$
