
     RDKit          3D

 29 31  0  0  0  0  0  0  0  0999 V2000
   45.2190   34.4620   43.4310 C   0  0  0  0  0  0  0  0  0  0  0  0
   45.1290   35.7180   42.8500 C   0  0  0  0  0  0  0  0  0  0  0  0
   44.2470   35.8460   41.8190 C   0  0  0  0  0  0  0  0  0  0  0  0
   43.4970   34.8080   41.3810 N   0  0  0  0  0  0  0  0  0  0  0  0
   43.6070   33.5960   41.9680 C   0  0  0  0  0  0  0  0  0  0  0  0
   44.4670   33.4100   42.9980 N   0  0  0  0  0  0  0  0  0  0  0  0
   42.7790   32.5050   41.4630 C   0  0  0  0  0  0  0  0  0  0  0  0
   42.6360   31.3270   42.1660 C   0  0  0  0  0  0  0  0  0  0  0  0
   41.8230   30.3900   41.5620 C   0  0  0  0  0  0  0  0  0  0  0  0
   41.2080   30.6020   40.3710 N   0  0  0  0  0  0  0  0  0  0  0  0
   41.3720   31.7470   39.7280 C   0  0  0  0  0  0  0  0  0  0  0  0
   42.1570   32.6860   40.2840 N   0  0  0  0  0  0  0  0  0  0  0  0
   46.0330   34.0450   44.5000 O   0  0  0  0  0  0  0  0  0  0  0  0
   45.4870   34.0220   45.7840 C   0  0  0  0  0  0  0  0  0  0  0  0
   44.6400   34.9110   46.0030 O   0  0  0  0  0  0  0  0  0  0  0  0
   47.4250   31.4020   47.4240 C   0  0  0  0  0  0  0  0  0  0  0  0
   46.6860   31.1330   48.5820 C   0  0  0  0  0  0  0  0  0  0  0  0
   45.5140   31.8660   48.7850 C   0  0  0  0  0  0  0  0  0  0  0  0
   45.1370   32.8070   47.8590 N   0  0  0  0  0  0  0  0  0  0  0  0
   45.9000   33.0240   46.7510 C   0  0  0  0  0  0  0  0  0  0  0  0
   47.0260   32.3410   46.5250 N   0  0  0  0  0  0  0  0  0  0  0  0
   45.7364   36.5648   43.2021 H   0  0  0  0  0  0  0  0  0  0  0  0
   44.1413   36.8242   41.3271 H   0  0  0  0  0  0  0  0  0  0  0  0
   43.1310   31.1486   43.1320 H   0  0  0  0  0  0  0  0  0  0  0  0
   41.6661   29.4267   42.0693 H   0  0  0  0  0  0  0  0  0  0  0  0
   40.8778   31.9261   38.7617 H   0  0  0  0  0  0  0  0  0  0  0  0
   48.3517   30.8397   47.2366 H   0  0  0  0  0  0  0  0  0  0  0  0
   47.0158   30.3727   49.3053 H   0  0  0  0  0  0  0  0  0  0  0  0
   44.8983   31.6906   49.6795 H   0  0  0  0  0  0  0  0  0  0  0  0
  1 13  1  0
  2  1  2  0
  3  2  1  0
  4  3  2  0
  4  5  1  0
  5  6  2  0
  6  1  1  0
  7  5  1  0
  7  8  2  0
  9  8  1  0
 10  9  2  0
 11 12  2  0
 11 10  1  0
 12  7  1  0
 13 14  1  0
 14 15  2  0
 14 20  1  0
 16 17  2  0
 17 18  1  0
 19 18  2  0
 20 19  1  0
 21 20  2  0
 21 16  1  0
  2 22  1  0
  3 23  1  0
  8 24  1  0
  9 25  1  0
 11 26  1  0
 16 27  1  0
 17 28  1  0
 18 29  1  0
M  ISO  8  22  14  23  14  24  14  25  14  26  14  27  14  28  14  29  14
M  END
>  <minimizedAffinity>  (1) 
-4.77281523

>  <minimizedRMSD>  (1) 
0.741298974

$$$$
