
     RDKit          3D

 28 30  0  0  0  0  0  0  0  0999 V2000
   45.2370   34.4170   43.4550 C   0  0  0  0  0  0  0  0  0  0  0  0
   45.1380   35.6700   42.8770 C   0  0  0  0  0  0  0  0  0  0  0  0
   44.2570   35.8350   41.8460 C   0  0  0  0  0  0  0  0  0  0  0  0
   43.4990   34.8050   41.4000 N   0  0  0  0  0  0  0  0  0  0  0  0
   43.6120   33.5910   41.9780 C   0  0  0  0  0  0  0  0  0  0  0  0
   44.4770   33.3760   43.0110 N   0  0  0  0  0  0  0  0  0  0  0  0
   42.7650   32.5030   41.4560 C   0  0  0  0  0  0  0  0  0  0  0  0
   42.1910   32.5410   40.1400 C   0  0  0  0  0  0  0  0  0  0  0  0
   41.4250   31.4580   39.7890 C   0  0  0  0  0  0  0  0  0  0  0  0
   41.2390   30.4090   40.6740 C   0  0  0  0  0  0  0  0  0  0  0  0
   42.2600   31.0220   42.1720 S   0  0  0  0  0  0  0  0  0  0  0  0
   46.0460   33.9800   44.5080 O   0  0  0  0  0  0  0  0  0  0  0  0
   45.4820   33.9980   45.8080 C   0  0  0  0  0  0  0  0  0  0  0  0
   44.6430   34.8850   46.0250 O   0  0  0  0  0  0  0  0  0  0  0  0
   47.4370   31.4110   47.4850 C   0  0  0  0  0  0  0  0  0  0  0  0
   46.6930   31.1310   48.6310 C   0  0  0  0  0  0  0  0  0  0  0  0
   45.5220   31.8370   48.8170 C   0  0  0  0  0  0  0  0  0  0  0  0
   45.1470   32.7740   47.8740 N   0  0  0  0  0  0  0  0  0  0  0  0
   45.9090   33.0010   46.7830 C   0  0  0  0  0  0  0  0  0  0  0  0
   47.0500   32.3270   46.5820 N   0  0  0  0  0  0  0  0  0  0  0  0
   45.7510   36.5093   43.2372 H   0  0  0  0  0  0  0  0  0  0  0  0
   44.1616   36.8219   41.3696 H   0  0  0  0  0  0  0  0  0  0  0  0
   42.3553   33.3863   39.4556 H   0  0  0  0  0  0  0  0  0  0  0  0
   40.9543   31.4226   38.7954 H   0  0  0  0  0  0  0  0  0  0  0  0
   40.6633   29.4799   40.5500 H   0  0  0  0  0  0  0  0  0  0  0  0
   48.3747   30.8618   47.3145 H   0  0  0  0  0  0  0  0  0  0  0  0
   47.0268   30.3765   49.3585 H   0  0  0  0  0  0  0  0  0  0  0  0
   44.8963   31.6562   49.7034 H   0  0  0  0  0  0  0  0  0  0  0  0
  1 12  1  0
  2  1  2  0
  3  2  1  0
  4  3  2  0
  4  5  1  0
  5  6  2  0
  6  1  1  0
  7  5  1  0
  7 11  1  0
  8  7  2  0
  9  8  1  0
  9 10  2  0
 10 11  1  0
 12 13  1  0
 13 14  2  0
 13 19  1  0
 15 16  2  0
 16 17  1  0
 18 17  2  0
 19 18  1  0
 20 19  2  0
 20 15  1  0
  2 21  1  0
  3 22  1  0
  8 23  1  0
  9 24  1  0
 10 25  1  0
 15 26  1  0
 16 27  1  0
 17 28  1  0
M  ISO  8  21  14  22  14  23  14  24  14  25  14  26  14  27  14  28  14
M  END
>  <minimizedAffinity>  (1) 
-4.68604374

>  <minimizedRMSD>  (1) 
0.689866662

$$$$
