
     RDKit          3D

 23 24  0  0  0  0  0  0  0  0999 V2000
   46.0470   34.1460   44.4610 O   0  0  0  0  0  0  0  0  0  0  0  0
   45.1830   34.3200   43.3730 C   0  0  0  0  0  0  0  0  0  0  0  0
   44.8740   35.4710   42.6610 C   0  0  0  0  0  0  0  0  0  0  0  0
   43.9840   35.3360   41.6350 C   0  0  0  0  0  0  0  0  0  0  0  0
   43.4270   34.1510   41.3180 N   0  0  0  0  0  0  0  0  0  0  0  0
   43.7390   33.0400   42.0200 C   0  0  0  0  0  0  0  0  0  0  0  0
   44.6280   33.1150   43.0640 N   0  0  0  0  0  0  0  0  0  0  0  0
   43.1200   31.8140   41.6410 N   0  0  0  0  0  0  0  0  0  0  0  0
   45.4630   34.1020   45.7490 C   0  0  0  0  0  0  0  0  0  0  0  0
   44.5940   34.9760   45.9890 O   0  0  0  0  0  0  0  0  0  0  0  0
   47.3950   31.4550   47.3470 C   0  0  0  0  0  0  0  0  0  0  0  0
   46.6660   31.1680   48.4970 C   0  0  0  0  0  0  0  0  0  0  0  0
   45.5080   31.8940   48.7130 C   0  0  0  0  0  0  0  0  0  0  0  0
   45.1160   32.8550   47.8100 N   0  0  0  0  0  0  0  0  0  0  0  0
   45.8790   33.0860   46.7010 C   0  0  0  0  0  0  0  0  0  0  0  0
   47.0000   32.4040   46.4640 N   0  0  0  0  0  0  0  0  0  0  0  0
   45.3239   36.4431   42.9112 H   0  0  0  0  0  0  0  0  0  0  0  0
   43.7123   36.2250   41.0469 H   0  0  0  0  0  0  0  0  0  0  0  0
   43.3355   30.9478   42.1550 H   0  0  0  0  0  0  0  0  0  0  0  0
   42.4570   31.7938   40.8530 H   0  0  0  0  0  0  0  0  0  0  0  0
   48.3203   30.8943   47.1486 H   0  0  0  0  0  0  0  0  0  0  0  0
   46.9970   30.3949   49.2060 H   0  0  0  0  0  0  0  0  0  0  0  0
   44.8994   31.7023   49.6090 H   0  0  0  0  0  0  0  0  0  0  0  0
  1  9  1  0
  2  1  1  0
  3  2  2  0
  4  3  1  0
  5  4  2  0
  5  6  1  0
  6  7  2  0
  7  2  1  0
  8  6  1  0
  9 10  2  0
  9 15  1  0
 11 12  2  0
 12 13  1  0
 14 13  2  0
 15 14  1  0
 16 15  2  0
 16 11  1  0
  3 17  1  0
  4 18  1  0
  8 19  1  0
  8 20  1  0
 11 21  1  0
 12 22  1  0
 13 23  1  0
M  ISO  5  17  14  18  14  21  14  22  14  23  14
M  END
>  <minimizedAffinity>  (1) 
-4.35863256

>  <minimizedRMSD>  (1) 
0.0426105596

$$$$
