
     RDKit          3D

 23 24  0  0  0  0  0  0  0  0999 V2000
   46.0350   34.1420   44.4660 O   0  0  0  0  0  0  0  0  0  0  0  0
   45.1660   34.3310   43.3780 C   0  0  0  0  0  0  0  0  0  0  0  0
   44.8600   35.4900   42.7120 C   0  0  0  0  0  0  0  0  0  0  0  0
   43.9680   35.4140   41.6640 C   0  0  0  0  0  0  0  0  0  0  0  0
   43.4160   34.2370   41.3060 N   0  0  0  0  0  0  0  0  0  0  0  0
   43.7370   33.1050   41.9820 C   0  0  0  0  0  0  0  0  0  0  0  0
   44.6130   33.1460   43.0200 N   0  0  0  0  0  0  0  0  0  0  0  0
   43.1170   31.8350   41.5670 C   0  0  0  0  0  0  0  0  0  0  0  0
   42.3750   31.2790   42.4170 O   0  0  0  0  0  0  0  0  0  0  0  0
   45.4700   34.0850   45.7450 C   0  0  0  0  0  0  0  0  0  0  0  0
   44.6040   34.9560   45.9840 O   0  0  0  0  0  0  0  0  0  0  0  0
   47.4030   31.4530   47.3710 C   0  0  0  0  0  0  0  0  0  0  0  0
   46.6620   31.1720   48.5220 C   0  0  0  0  0  0  0  0  0  0  0  0
   45.5030   31.8890   48.7310 C   0  0  0  0  0  0  0  0  0  0  0  0
   45.1290   32.8430   47.8050 N   0  0  0  0  0  0  0  0  0  0  0  0
   45.8750   33.0840   46.7060 C   0  0  0  0  0  0  0  0  0  0  0  0
   46.9970   32.3950   46.4940 N   0  0  0  0  0  0  0  0  0  0  0  0
   45.3118   36.4493   43.0047 H   0  0  0  0  0  0  0  0  0  0  0  0
   43.7024   36.3273   41.1113 H   0  0  0  0  0  0  0  0  0  0  0  0
   43.2925   31.3986   40.5726 H   0  0  0  0  0  0  0  0  0  0  0  0
   48.3323   30.8974   47.1767 H   0  0  0  0  0  0  0  0  0  0  0  0
   46.9923   30.4044   49.2374 H   0  0  0  0  0  0  0  0  0  0  0  0
   44.8853   31.7039   49.6222 H   0  0  0  0  0  0  0  0  0  0  0  0
  1 10  1  0
  2  1  1  0
  3  2  2  0
  4  3  1  0
  5  4  2  0
  5  6  1  0
  6  7  2  0
  7  2  1  0
  8  6  1  0
  8  9  2  0
 10 11  2  0
 10 16  1  0
 12 13  2  0
 13 14  1  0
 15 14  2  0
 16 15  1  0
 17 16  2  0
 17 12  1  0
  3 18  1  0
  4 19  1  0
  8 20  1  0
 12 21  1  0
 13 22  1  0
 14 23  1  0
M  ISO  6  18  14  19  14  20   6  21  14  22  14  23  14
M  END
>  <minimizedAffinity>  (1) 
-4.35326052

>  <minimizedRMSD>  (1) 
0.0705226138

$$$$
