
     RDKit          3D

 27 28  0  0  0  0  0  0  0  0999 V2000
   46.0360   34.1340   44.4260 O   0  0  0  0  0  0  0  0  0  0  0  0
   45.1550   34.2680   43.3390 C   0  0  0  0  0  0  0  0  0  0  0  0
   44.8580   35.3990   42.5910 C   0  0  0  0  0  0  0  0  0  0  0  0
   43.9570   35.2510   41.5780 C   0  0  0  0  0  0  0  0  0  0  0  0
   43.3780   34.0790   41.3070 N   0  0  0  0  0  0  0  0  0  0  0  0
   43.6730   32.9700   42.0440 C   0  0  0  0  0  0  0  0  0  0  0  0
   44.5730   33.0690   43.0730 N   0  0  0  0  0  0  0  0  0  0  0  0
   43.0160   31.6740   41.7240 C   0  0  0  0  0  0  0  0  0  0  0  0
   41.5380   31.9570   41.5950 C   0  0  0  0  0  0  0  0  0  0  0  0
   45.4680   34.1050   45.7190 C   0  0  0  0  0  0  0  0  0  0  0  0
   44.6240   34.9840   45.9470 O   0  0  0  0  0  0  0  0  0  0  0  0
   47.3980   31.4340   47.3130 C   0  0  0  0  0  0  0  0  0  0  0  0
   46.6660   31.1730   48.4590 C   0  0  0  0  0  0  0  0  0  0  0  0
   45.5020   31.9050   48.7060 C   0  0  0  0  0  0  0  0  0  0  0  0
   45.1270   32.8680   47.7880 N   0  0  0  0  0  0  0  0  0  0  0  0
   45.8880   33.0820   46.6730 C   0  0  0  0  0  0  0  0  0  0  0  0
   46.9970   32.3870   46.4350 N   0  0  0  0  0  0  0  0  0  0  0  0
   45.3279   36.3702   42.8055 H   0  0  0  0  0  0  0  0  0  0  0  0
   43.6988   36.1263   40.9639 H   0  0  0  0  0  0  0  0  0  0  0  0
   43.4092   31.2730   40.7782 H   0  0  0  0  0  0  0  0  0  0  0  0
   43.2090   30.9280   42.5090 H   0  0  0  0  0  0  0  0  0  0  0  0
   41.0922   32.0424   42.5970 H   0  0  0  0  0  0  0  0  0  0  0  0
   41.3916   32.8995   41.0470 H   0  0  0  0  0  0  0  0  0  0  0  0
   41.0538   31.1353   41.0470 H   0  0  0  0  0  0  0  0  0  0  0  0
   48.3157   30.8617   47.1122 H   0  0  0  0  0  0  0  0  0  0  0  0
   46.9971   30.3985   49.1665 H   0  0  0  0  0  0  0  0  0  0  0  0
   44.8996   31.7198   49.6076 H   0  0  0  0  0  0  0  0  0  0  0  0
  1 10  1  0
  2  1  1  0
  3  2  2  0
  4  3  1  0
  5  4  2  0
  5  6  1  0
  6  7  2  0
  7  2  1  0
  8  6  1  0
  9  8  1  0
 10 11  2  0
 10 16  1  0
 12 13  2  0
 13 14  1  0
 15 14  2  0
 16 15  1  0
 17 16  2  0
 17 12  1  0
  3 18  1  0
  4 19  1  0
  8 20  1  0
  8 21  1  0
  9 22  1  0
  9 23  1  0
  9 24  1  0
 12 25  1  0
 13 26  1  0
 14 27  1  0
M  ISO  8  18  14  19  14  20   8  21   8  22   8  23   8  24   8  25  14
M  ISO  2  26  14  27  14
M  END
>  <minimizedAffinity>  (1) 
-4.33369541

>  <minimizedRMSD>  (1) 
0.128359765

$$$$
