
     RDKit          3D

 24 25  0  0  0  0  0  0  0  0999 V2000
   46.0380   34.1250   44.4480 O   0  0  0  0  0  0  0  0  0  0  0  0
   45.1760   34.3620   43.3670 C   0  0  0  0  0  0  0  0  0  0  0  0
   44.9240   35.5260   42.6810 C   0  0  0  0  0  0  0  0  0  0  0  0
   44.0300   35.5020   41.6500 C   0  0  0  0  0  0  0  0  0  0  0  0
   43.4050   34.3580   41.3070 N   0  0  0  0  0  0  0  0  0  0  0  0
   43.6630   33.2180   41.9900 C   0  0  0  0  0  0  0  0  0  0  0  0
   44.5510   33.2060   43.0270 N   0  0  0  0  0  0  0  0  0  0  0  0
   42.9400   31.9890   41.5630 C   0  0  0  0  0  0  0  0  0  0  0  0
   41.6950   32.3370   41.0740 F   0  0  0  0  0  0  0  0  0  0  0  0
   42.7560   31.2430   42.7090 F   0  0  0  0  0  0  0  0  0  0  0  0
   43.6370   31.2950   40.6090 F   0  0  0  0  0  0  0  0  0  0  0  0
   45.4750   34.0870   45.7350 C   0  0  0  0  0  0  0  0  0  0  0  0
   44.6230   34.9740   45.9670 O   0  0  0  0  0  0  0  0  0  0  0  0
   47.4050   31.4430   47.3480 C   0  0  0  0  0  0  0  0  0  0  0  0
   46.6700   31.1670   48.4890 C   0  0  0  0  0  0  0  0  0  0  0  0
   45.4960   31.8920   48.7190 C   0  0  0  0  0  0  0  0  0  0  0  0
   45.1140   32.8560   47.7970 N   0  0  0  0  0  0  0  0  0  0  0  0
   45.8730   33.0760   46.7040 C   0  0  0  0  0  0  0  0  0  0  0  0
   47.0070   32.3820   46.4750 N   0  0  0  0  0  0  0  0  0  0  0  0
   45.4339   36.4605   42.9580 H   0  0  0  0  0  0  0  0  0  0  0  0
   43.8172   36.4263   41.0929 H   0  0  0  0  0  0  0  0  0  0  0  0
   48.3315   30.8828   47.1536 H   0  0  0  0  0  0  0  0  0  0  0  0
   47.0021   30.3948   49.1986 H   0  0  0  0  0  0  0  0  0  0  0  0
   44.8866   31.7013   49.6147 H   0  0  0  0  0  0  0  0  0  0  0  0
  1 12  1  0
  2  1  1  0
  3  2  2  0
  4  3  1  0
  5  4  2  0
  5  6  1  0
  6  7  2  0
  7  2  1  0
  8  6  1  0
  8 10  1  0
  9  8  1  0
 11  8  1  0
 12 13  2  0
 12 18  1  0
 14 15  2  0
 15 16  1  0
 17 16  2  0
 18 17  1  0
 19 18  2  0
 19 14  1  0
  3 20  1  0
  4 21  1  0
 14 22  1  0
 15 23  1  0
 16 24  1  0
M  ISO  5  20  14  21  14  22  14  23  14  24  14
M  END
>  <minimizedAffinity>  (1) 
-4.51343393

>  <minimizedRMSD>  (1) 
0.204633892

$$$$
