
     RDKit          3D

 37 38  0  0  0  0  0  0  0  0999 V2000
   45.0110   35.3220   42.0540 O   0  0  0  0  0  0  0  0  0  0  0  0
   43.7120   34.9030   41.6620 C   0  0  0  0  0  0  0  0  0  0  0  0
   42.6970   35.6840   41.1580 C   0  0  0  0  0  0  0  0  0  0  0  0
   41.5330   35.0520   40.8520 C   0  0  0  0  0  0  0  0  0  0  0  0
   41.3690   33.7280   41.0260 N   0  0  0  0  0  0  0  0  0  0  0  0
   42.3810   32.9730   41.5230 C   0  0  0  0  0  0  0  0  0  0  0  0
   43.5780   33.5690   41.8500 N   0  0  0  0  0  0  0  0  0  0  0  0
   42.2360   31.5020   41.7050 C   0  0  0  0  0  0  0  0  0  0  0  0
   43.3880   30.8910   42.4430 C   0  0  0  0  0  0  0  0  0  0  0  0
   40.9400   31.1170   42.3610 C   0  0  0  0  0  0  0  0  0  0  0  0
   45.2500   35.4510   43.4320 C   0  0  0  0  0  0  0  0  0  0  0  0
   44.9390   36.5500   43.9230 O   0  0  0  0  0  0  0  0  0  0  0  0
   47.3990   32.6410   44.3680 C   0  0  0  0  0  0  0  0  0  0  0  0
   46.9120   32.2560   45.6100 C   0  0  0  0  0  0  0  0  0  0  0  0
   45.8380   32.9720   46.1200 C   0  0  0  0  0  0  0  0  0  0  0  0
   45.3060   34.0170   45.3900 N   0  0  0  0  0  0  0  0  0  0  0  0
   45.8230   34.3500   44.1820 C   0  0  0  0  0  0  0  0  0  0  0  0
   46.8560   33.6690   43.6800 N   0  0  0  0  0  0  0  0  0  0  0  0
   45.2340   32.6900   47.3790 N   0  0  0  0  0  0  0  0  0  0  0  0
   45.8770   31.8550   48.3620 C   0  0  0  0  0  0  0  0  0  0  0  0
   46.6810   31.0030   47.8290 N   0  0  0  0  0  0  0  0  0  0  0  0
   45.5090   32.1250   49.7100 N   0  0  0  0  0  0  0  0  0  0  0  0
   47.2510   30.3060   48.3120 H   0  0  0  0  0  0  0  0  0  0  0  0
   42.8216   36.7669   41.0100 H   0  0  0  0  0  0  0  0  0  0  0  0
   40.6973   35.6428   40.4487 H   0  0  0  0  0  0  0  0  0  0  0  0
   42.2312   31.0924   40.6841 H   0  0  0  0  0  0  0  0  0  0  0  0
   43.2186   30.9808   43.5262 H   0  0  0  0  0  0  0  0  0  0  0  0
   43.4747   29.8284   42.1723 H   0  0  0  0  0  0  0  0  0  0  0  0
   44.3164   31.4153   42.1723 H   0  0  0  0  0  0  0  0  0  0  0  0
   41.0578   31.1520   43.4541 H   0  0  0  0  0  0  0  0  0  0  0  0
   40.1510   31.8196   42.0545 H   0  0  0  0  0  0  0  0  0  0  0  0
   40.6625   30.0976   42.0545 H   0  0  0  0  0  0  0  0  0  0  0  0
   48.2490   32.0948   43.9330 H   0  0  0  0  0  0  0  0  0  0  0  0
   47.3586   31.4187   46.1663 H   0  0  0  0  0  0  0  0  0  0  0  0
   44.3112   33.0945   47.5929 H   0  0  0  0  0  0  0  0  0  0  0  0
   45.9215   31.5745   50.4766 H   0  0  0  0  0  0  0  0  0  0  0  0
   44.8301   32.8709   49.9190 H   0  0  0  0  0  0  0  0  0  0  0  0
  1 11  1  0
  2  7  1  0
  2  1  1  0
  3  2  2  0
  4  5  2  0
  4  3  1  0
  5  6  1  0
  6  8  1  0
  6  7  2  0
  8 10  1  0
  8  9  1  0
 11 12  2  0
 11 17  1  0
 13 14  2  0
 14 15  1  0
 15 19  1  0
 16 15  2  0
 17 16  1  0
 18 17  2  0
 18 13  1  0
 19 20  1  0
 20 22  1  0
 21 23  1  0
 21 20  2  0
  3 24  1  0
  4 25  1  0
  8 26  1  0
  9 27  1  0
  9 28  1  0
  9 29  1  0
 10 30  1  0
 10 31  1  0
 10 32  1  0
 13 33  1  0
 14 34  1  0
 19 35  1  0
 22 36  1  0
 22 37  1  0
M  ISO  8  24  14  25  14  26   8  27   8  28   8  29   8  30   8  31   8
M  ISO  3  32   8  33  14  34  14
M  END
>  <minimizedAffinity>  (1) 
-5.75568819

>  <minimizedRMSD>  (1) 
2.28826928

$$$$
