
     RDKit          3D

 33 34  0  0  0  0  0  0  0  0999 V2000
   44.8380   34.7440   42.9560 C   0  0  0  0  0  0  0  0  0  0  0  0
   44.3890   35.8270   42.2300 C   0  0  0  0  0  0  0  0  0  0  0  0
   43.4360   35.5830   41.2960 C   0  0  0  0  0  0  0  0  0  0  0  0
   42.9450   34.3500   41.0770 N   0  0  0  0  0  0  0  0  0  0  0  0
   43.3970   33.2950   41.8000 C   0  0  0  0  0  0  0  0  0  0  0  0
   44.3630   33.4920   42.7590 N   0  0  0  0  0  0  0  0  0  0  0  0
   42.8790   31.9110   41.5580 C   0  0  0  0  0  0  0  0  0  0  0  0
   43.4850   30.9050   42.4880 C   0  0  0  0  0  0  0  0  0  0  0  0
   41.3780   31.8350   41.6270 C   0  0  0  0  0  0  0  0  0  0  0  0
   45.8210   34.7390   43.9800 O   0  0  0  0  0  0  0  0  0  0  0  0
   45.4080   34.3820   45.2730 C   0  0  0  0  0  0  0  0  0  0  0  0
   44.6100   35.1780   45.8010 O   0  0  0  0  0  0  0  0  0  0  0  0
   47.2910   31.3000   45.8310 C   0  0  0  0  0  0  0  0  0  0  0  0
   46.8500   30.8860   47.0880 C   0  0  0  0  0  0  0  0  0  0  0  0
   45.9050   31.6650   47.7360 C   0  0  0  0  0  0  0  0  0  0  0  0
   45.4440   32.8120   47.1170 N   0  0  0  0  0  0  0  0  0  0  0  0
   45.9010   33.1750   45.8980 C   0  0  0  0  0  0  0  0  0  0  0  0
   46.8190   32.4250   45.2580 N   0  0  0  0  0  0  0  0  0  0  0  0
   45.4230   31.2610   49.0490 C   0  0  0  0  0  0  0  0  0  0  0  0
   44.9700   30.0920   49.1270 O   0  0  0  0  0  0  0  0  0  0  0  0
   45.4570   32.1010   50.1410 O   0  0  0  0  0  0  0  0  0  0  0  0
   44.7843   36.8393   42.4000 H   0  0  0  0  0  0  0  0  0  0  0  0
   43.0517   36.4220   40.6973 H   0  0  0  0  0  0  0  0  0  0  0  0
   43.1853   31.6605   40.5317 H   0  0  0  0  0  0  0  0  0  0  0  0
   43.3011   31.2103   43.5287 H   0  0  0  0  0  0  0  0  0  0  0  0
   43.0301   29.9196   42.3091 H   0  0  0  0  0  0  0  0  0  0  0  0
   44.5688   30.8465   42.3091 H   0  0  0  0  0  0  0  0  0  0  0  0
   41.0597   31.8189   42.6798 H   0  0  0  0  0  0  0  0  0  0  0  0
   40.9430   32.7123   41.1258 H   0  0  0  0  0  0  0  0  0  0  0  0
   41.0339   30.9183   41.1258 H   0  0  0  0  0  0  0  0  0  0  0  0
   48.0391   30.6961   45.2966 H   0  0  0  0  0  0  0  0  0  0  0  0
   47.2410   29.9681   47.5511 H   0  0  0  0  0  0  0  0  0  0  0  0
   45.1192   31.7877   51.0172 H   0  0  0  0  0  0  0  0  0  0  0  0
  1 10  1  0
  2  1  2  0
  3  2  1  0
  4  3  2  0
  4  5  1  0
  5  6  2  0
  6  1  1  0
  7  9  1  0
  7  5  1  0
  7  8  1  0
 10 11  1  0
 11 12  2  0
 11 17  1  0
 13 14  2  0
 14 15  1  0
 15 19  1  0
 16 15  2  0
 17 16  1  0
 18 13  1  0
 18 17  2  0
 19 20  2  0
 19 21  1  0
  2 22  1  0
  3 23  1  0
  7 24  1  0
  8 25  1  0
  8 26  1  0
  8 27  1  0
  9 28  1  0
  9 29  1  0
  9 30  1  0
 13 31  1  0
 14 32  1  0
 21 33  1  0
M  ISO  8  22  14  23  14  24   8  25   8  26   8  27   8  28   8  29   8
M  ISO  4  30   8  31  14  32  14  33   3
M  END
>  <minimizedAffinity>  (1) 
-5.22469902

>  <minimizedRMSD>  (1) 
0.901158154

$$$$
