
     RDKit          3D

 35 37  0  0  0  0  0  0  0  0999 V2000
   44.0860   35.3070   41.8880 C   0  0  0  0  0  0  0  0  0  0  0  0
   42.7210   35.4570   41.9800 C   0  0  0  0  0  0  0  0  0  0  0  0
   41.9740   34.8270   41.0310 C   0  0  0  0  0  0  0  0  0  0  0  0
   42.5240   34.1020   40.0580 N   0  0  0  0  0  0  0  0  0  0  0  0
   43.8770   33.9600   39.9780 C   0  0  0  0  0  0  0  0  0  0  0  0
   44.6760   34.5750   40.9130 N   0  0  0  0  0  0  0  0  0  0  0  0
   44.5130   33.1650   38.8790 C   0  0  0  0  0  0  0  0  0  0  0  0
   45.5630   32.2270   39.3940 C   0  0  0  0  0  0  0  0  0  0  0  0
   43.5010   32.3750   38.0850 C   0  0  0  0  0  0  0  0  0  0  0  0
   45.0720   35.8580   42.7480 O   0  0  0  0  0  0  0  0  0  0  0  0
   45.0770   35.4240   44.0820 C   0  0  0  0  0  0  0  0  0  0  0  0
   44.4180   36.1410   44.8700 O   0  0  0  0  0  0  0  0  0  0  0  0
   47.4410   32.6450   44.0300 C   0  0  0  0  0  0  0  0  0  0  0  0
   47.1780   31.9650   45.2220 C   0  0  0  0  0  0  0  0  0  0  0  0
   46.1790   32.4810   46.0310 C   0  0  0  0  0  0  0  0  0  0  0  0
   45.5010   33.6170   45.6400 N   0  0  0  0  0  0  0  0  0  0  0  0
   45.8050   34.2290   44.4690 C   0  0  0  0  0  0  0  0  0  0  0  0
   46.7590   33.7510   43.6800 N   0  0  0  0  0  0  0  0  0  0  0  0
   45.7780   31.9050   47.2970 C   0  0  0  0  0  0  0  0  0  0  0  0
   45.2890   30.6570   47.4240 N   0  0  0  0  0  0  0  0  0  0  0  0
   45.0200   30.4230   48.6680 O   0  0  0  0  0  0  0  0  0  0  0  0
   45.3160   31.4880   49.3970 C   0  0  0  0  0  0  0  0  0  0  0  0
   45.7960   32.4330   48.5420 N   0  0  0  0  0  0  0  0  0  0  0  0
   42.2573   36.0547   42.7786 H   0  0  0  0  0  0  0  0  0  0  0  0
   40.8786   34.9201   41.0694 H   0  0  0  0  0  0  0  0  0  0  0  0
   44.9861   33.9064   38.2182 H   0  0  0  0  0  0  0  0  0  0  0  0
   45.5541   32.2349   40.4939 H   0  0  0  0  0  0  0  0  0  0  0  0
   45.3543   31.2091   39.0330 H   0  0  0  0  0  0  0  0  0  0  0  0
   46.5510   32.5487   39.0330 H   0  0  0  0  0  0  0  0  0  0  0  0
   42.8252   31.8474   38.7742 H   0  0  0  0  0  0  0  0  0  0  0  0
   42.9175   33.0589   37.4511 H   0  0  0  0  0  0  0  0  0  0  0  0
   44.0228   31.6430   37.4511 H   0  0  0  0  0  0  0  0  0  0  0  0
   48.2266   32.2661   43.3597 H   0  0  0  0  0  0  0  0  0  0  0  0
   47.7384   31.0617   45.5049 H   0  0  0  0  0  0  0  0  0  0  0  0
   45.1969   31.5900   50.4858 H   0  0  0  0  0  0  0  0  0  0  0  0
  1  2  2  0
  1 10  1  0
  3  2  1  0
  4  3  2  0
  5  4  1  0
  5  6  2  0
  6  1  1  0
  7  8  1  0
  7  5  1  0
  9  7  1  0
 10 11  1  0
 11 17  1  0
 11 12  2  0
 13 14  2  0
 14 15  1  0
 15 19  1  0
 16 15  2  0
 17 16  1  0
 18 13  1  0
 18 17  2  0
 19 20  2  0
 19 23  1  0
 20 21  1  0
 21 22  1  0
 23 22  2  0
  2 24  1  0
  3 25  1  0
  7 26  1  0
  8 27  1  0
  8 28  1  0
  8 29  1  0
  9 30  1  0
  9 31  1  0
  9 32  1  0
 13 33  1  0
 14 34  1  0
 22 35  1  0
M  ISO  8  24  14  25  14  26   8  27   8  28   8  29   8  30   8  31   8
M  ISO  4  32   8  33  14  34  14  35  14
M  END
>  <minimizedAffinity>  (1) 
-5.29996395

>  <minimizedRMSD>  (1) 
2.78193307

$$$$
