
     RDKit          3D

 37 39  0  0  0  0  0  0  0  0999 V2000
   45.0900   35.3040   42.6520 O   0  0  0  0  0  0  0  0  0  0  0  0
   43.9210   34.9530   41.9280 C   0  0  0  0  0  0  0  0  0  0  0  0
   43.1330   35.7840   41.1610 C   0  0  0  0  0  0  0  0  0  0  0  0
   42.0560   35.2200   40.5550 C   0  0  0  0  0  0  0  0  0  0  0  0
   41.7680   33.9240   40.6900 N   0  0  0  0  0  0  0  0  0  0  0  0
   42.5480   33.1110   41.4460 C   0  0  0  0  0  0  0  0  0  0  0  0
   43.6500   33.6380   42.0790 N   0  0  0  0  0  0  0  0  0  0  0  0
   42.2490   31.6470   41.5920 C   0  0  0  0  0  0  0  0  0  0  0  0
   43.2700   30.9450   42.4330 C   0  0  0  0  0  0  0  0  0  0  0  0
   40.8650   31.4030   42.1410 C   0  0  0  0  0  0  0  0  0  0  0  0
   45.1350   34.9470   44.0090 C   0  0  0  0  0  0  0  0  0  0  0  0
   44.4730   35.6790   44.7640 O   0  0  0  0  0  0  0  0  0  0  0  0
   47.4800   32.1330   43.9900 C   0  0  0  0  0  0  0  0  0  0  0  0
   47.3670   31.6280   45.2720 C   0  0  0  0  0  0  0  0  0  0  0  0
   46.4880   32.2460   46.1600 C   0  0  0  0  0  0  0  0  0  0  0  0
   45.7640   33.3400   45.7120 N   0  0  0  0  0  0  0  0  0  0  0  0
   45.9170   33.7960   44.4330 C   0  0  0  0  0  0  0  0  0  0  0  0
   46.7560   33.2060   43.5870 N   0  0  0  0  0  0  0  0  0  0  0  0
   46.2870   31.8020   47.5350 C   0  0  0  0  0  0  0  0  0  0  0  0
   45.0760   31.9130   48.1850 C   0  0  0  0  0  0  0  0  0  0  0  0
   45.2400   31.3960   49.4750 C   0  0  0  0  0  0  0  0  0  0  0  0
   46.5420   30.9930   49.5530 N   0  0  0  0  0  0  0  0  0  0  0  0
   47.1430   31.2420   48.3920 N   0  0  0  0  0  0  0  0  0  0  0  0
   43.3652   36.8530   41.0451 H   0  0  0  0  0  0  0  0  0  0  0  0
   41.4019   35.8503   39.9346 H   0  0  0  0  0  0  0  0  0  0  0  0
   42.2935   31.2248   40.5772 H   0  0  0  0  0  0  0  0  0  0  0  0
   43.0401   31.1031   43.4970 H   0  0  0  0  0  0  0  0  0  0  0  0
   43.2511   29.8680   42.2099 H   0  0  0  0  0  0  0  0  0  0  0  0
   44.2688   31.3482   42.2099 H   0  0  0  0  0  0  0  0  0  0  0  0
   40.9003   31.4092   43.2404 H   0  0  0  0  0  0  0  0  0  0  0  0
   40.1869   32.1954   41.7914 H   0  0  0  0  0  0  0  0  0  0  0  0
   40.4988   30.4264   41.7914 H   0  0  0  0  0  0  0  0  0  0  0  0
   48.1721   31.6540   43.2818 H   0  0  0  0  0  0  0  0  0  0  0  0
   47.9592   30.7555   45.5852 H   0  0  0  0  0  0  0  0  0  0  0  0
   44.1493   32.3319   47.7657 H   0  0  0  0  0  0  0  0  0  0  0  0
   44.4766   31.3282   50.2641 H   0  0  0  0  0  0  0  0  0  0  0  0
   46.9873   30.5653   50.3774 H   0  0  0  0  0  0  0  0  0  0  0  0
  1 11  1  0
  2  7  1  0
  2  1  1  0
  3  2  2  0
  4  5  2  0
  4  3  1  0
  5  6  1  0
  6  8  1  0
  6  7  2  0
  8 10  1  0
  8  9  1  0
 11 17  1  0
 11 12  2  0
 13 14  2  0
 14 15  1  0
 15 19  1  0
 16 15  2  0
 17 16  1  0
 18 13  1  0
 18 17  2  0
 19 20  1  0
 19 23  2  0
 20 21  2  0
 21 22  1  0
 23 22  1  0
  3 24  1  0
  4 25  1  0
  8 26  1  0
  9 27  1  0
  9 28  1  0
  9 29  1  0
 10 30  1  0
 10 31  1  0
 10 32  1  0
 13 33  1  0
 14 34  1  0
 20 35  1  0
 21 36  1  0
 22 37  1  0
M  ISO  8  24  14  25  14  26   8  27   8  28   8  29   8  30   8  31   8
M  ISO  6  32   8  33  14  34  14  35  14  36  14  37   9
M  END
>  <minimizedAffinity>  (1) 
-5.48117781

>  <minimizedRMSD>  (1) 
2.22773051

$$$$
