
     RDKit          3D

 32 33  0  0  0  0  0  0  0  0999 V2000
   44.7440   34.6920   42.9030 C   0  0  0  0  0  0  0  0  0  0  0  0
   44.2680   35.7660   42.1790 C   0  0  0  0  0  0  0  0  0  0  0  0
   43.2940   35.5080   41.2690 C   0  0  0  0  0  0  0  0  0  0  0  0
   42.8140   34.2770   41.0780 N   0  0  0  0  0  0  0  0  0  0  0  0
   43.2890   33.2280   41.7950 C   0  0  0  0  0  0  0  0  0  0  0  0
   44.2720   33.4390   42.7250 N   0  0  0  0  0  0  0  0  0  0  0  0
   42.7760   31.8350   41.5760 C   0  0  0  0  0  0  0  0  0  0  0  0
   43.4280   30.8390   42.4840 C   0  0  0  0  0  0  0  0  0  0  0  0
   41.2770   31.7450   41.7070 C   0  0  0  0  0  0  0  0  0  0  0  0
   45.7510   34.7110   43.9000 O   0  0  0  0  0  0  0  0  0  0  0  0
   45.3560   34.4420   45.2190 C   0  0  0  0  0  0  0  0  0  0  0  0
   44.5540   35.2620   45.7030 O   0  0  0  0  0  0  0  0  0  0  0  0
   47.2420   31.3910   45.9620 C   0  0  0  0  0  0  0  0  0  0  0  0
   46.8570   31.0760   47.2510 C   0  0  0  0  0  0  0  0  0  0  0  0
   45.9440   31.9190   47.8640 C   0  0  0  0  0  0  0  0  0  0  0  0
   45.4600   33.0200   47.1850 N   0  0  0  0  0  0  0  0  0  0  0  0
   45.8720   33.2850   45.9180 C   0  0  0  0  0  0  0  0  0  0  0  0
   46.7460   32.4820   45.3260 N   0  0  0  0  0  0  0  0  0  0  0  0
   45.4800   31.6650   49.2230 C   0  0  0  0  0  0  0  0  0  0  0  0
   45.1130   30.5010   49.5280 O   0  0  0  0  0  0  0  0  0  0  0  0
   44.6591   36.7827   42.3319 H   0  0  0  0  0  0  0  0  0  0  0  0
   42.8884   36.3377   40.6715 H   0  0  0  0  0  0  0  0  0  0  0  0
   43.0441   31.5838   40.5392 H   0  0  0  0  0  0  0  0  0  0  0  0
   43.2432   31.1213   43.5310 H   0  0  0  0  0  0  0  0  0  0  0  0
   43.0085   29.8400   42.2941 H   0  0  0  0  0  0  0  0  0  0  0  0
   44.5114   30.8239   42.2941 H   0  0  0  0  0  0  0  0  0  0  0  0
   41.0023   31.7285   42.7720 H   0  0  0  0  0  0  0  0  0  0  0  0
   40.8136   32.6169   41.2223 H   0  0  0  0  0  0  0  0  0  0  0  0
   40.9212   30.8239   41.2223 H   0  0  0  0  0  0  0  0  0  0  0  0
   47.9644   30.7450   45.4415 H   0  0  0  0  0  0  0  0  0  0  0  0
   47.2586   30.1927   47.7691 H   0  0  0  0  0  0  0  0  0  0  0  0
   45.4515   32.4751   49.9666 H   0  0  0  0  0  0  0  0  0  0  0  0
  1 10  1  0
  2  1  2  0
  3  2  1  0
  4  3  2  0
  4  5  1  0
  5  6  2  0
  6  1  1  0
  7  9  1  0
  7  5  1  0
  7  8  1  0
 10 11  1  0
 11 12  2  0
 11 17  1  0
 13 14  2  0
 14 15  1  0
 15 19  1  0
 16 15  2  0
 17 16  1  0
 18 17  2  0
 18 13  1  0
 19 20  2  0
  2 21  1  0
  3 22  1  0
  7 23  1  0
  8 24  1  0
  8 25  1  0
  8 26  1  0
  9 27  1  0
  9 28  1  0
  9 29  1  0
 13 30  1  0
 14 31  1  0
 19 32  1  0
M  ISO  8  21  14  22  14  23   8  24   8  25   8  26   8  27   8  28   8
M  ISO  4  29   8  30  14  31  14  32   6
M  END
>  <minimizedAffinity>  (1) 
-4.67927885

>  <minimizedRMSD>  (1) 
0.643287539

$$$$
