
     RDKit          3D

 42 43  0  0  0  0  0  0  0  0999 V2000
   44.5330   34.7820   42.5660 C   0  0  0  0  0  0  0  0  0  0  0  0
   43.9410   35.7810   41.8200 C   0  0  0  0  0  0  0  0  0  0  0  0
   42.9150   35.4080   41.0110 C   0  0  0  0  0  0  0  0  0  0  0  0
   42.4890   34.1370   40.9330 N   0  0  0  0  0  0  0  0  0  0  0  0
   43.0840   33.1680   41.6760 C   0  0  0  0  0  0  0  0  0  0  0  0
   44.1250   33.4940   42.5090 N   0  0  0  0  0  0  0  0  0  0  0  0
   42.6370   31.7410   41.5880 C   0  0  0  0  0  0  0  0  0  0  0  0
   43.4440   30.8370   42.4660 C   0  0  0  0  0  0  0  0  0  0  0  0
   41.1690   31.5730   41.8890 C   0  0  0  0  0  0  0  0  0  0  0  0
   45.6150   34.9170   43.4750 O   0  0  0  0  0  0  0  0  0  0  0  0
   45.4350   34.4230   44.7750 C   0  0  0  0  0  0  0  0  0  0  0  0
   44.6940   35.1150   45.4930 O   0  0  0  0  0  0  0  0  0  0  0  0
   47.4450   31.3750   44.7170 C   0  0  0  0  0  0  0  0  0  0  0  0
   47.3250   30.8700   46.0070 C   0  0  0  0  0  0  0  0  0  0  0  0
   46.5390   31.5980   46.8880 C   0  0  0  0  0  0  0  0  0  0  0  0
   45.9260   32.7590   46.4710 N   0  0  0  0  0  0  0  0  0  0  0  0
   46.0790   33.2070   45.1980 C   0  0  0  0  0  0  0  0  0  0  0  0
   46.8360   32.5120   44.3320 N   0  0  0  0  0  0  0  0  0  0  0  0
   46.3090   31.2020   48.2860 C   0  0  0  0  0  0  0  0  0  0  0  0
   45.3860   29.9930   48.3490 C   0  0  0  0  0  0  0  0  0  0  0  0
   47.5950   30.8250   48.9810 C   0  0  0  0  0  0  0  0  0  0  0  0
   45.6290   32.2780   49.0930 C   0  0  0  0  0  0  0  0  0  0  0  0
   44.2822   36.8252   41.8774 H   0  0  0  0  0  0  0  0  0  0  0  0
   42.4161   36.1737   40.3988 H   0  0  0  0  0  0  0  0  0  0  0  0
   42.8052   31.4473   40.5414 H   0  0  0  0  0  0  0  0  0  0  0  0
   43.2365   31.0694   43.5210 H   0  0  0  0  0  0  0  0  0  0  0  0
   43.1743   29.7904   42.2612 H   0  0  0  0  0  0  0  0  0  0  0  0
   44.5144   30.9867   42.2612 H   0  0  0  0  0  0  0  0  0  0  0  0
   41.0177   31.5557   42.9784 H   0  0  0  0  0  0  0  0  0  0  0  0
   40.6071   32.4127   41.4541 H   0  0  0  0  0  0  0  0  0  0  0  0
   40.8113   30.6281   41.4541 H   0  0  0  0  0  0  0  0  0  0  0  0
   48.0582   30.8269   43.9866 H   0  0  0  0  0  0  0  0  0  0  0  0
   47.8277   29.9407   46.3132 H   0  0  0  0  0  0  0  0  0  0  0  0
   45.1897   29.7359   49.4004 H   0  0  0  0  0  0  0  0  0  0  0  0
   44.4368   30.2298   47.8461 H   0  0  0  0  0  0  0  0  0  0  0  0
   45.8646   29.1397   47.8461 H   0  0  0  0  0  0  0  0  0  0  0  0
   47.4492   30.8677   50.0705 H   0  0  0  0  0  0  0  0  0  0  0  0
   47.8838   29.8044   48.6895 H   0  0  0  0  0  0  0  0  0  0  0  0
   48.3891   31.5281   48.6895 H   0  0  0  0  0  0  0  0  0  0  0  0
   45.7602   32.0703   50.1652 H   0  0  0  0  0  0  0  0  0  0  0  0
   46.0745   33.2543   48.8514 H   0  0  0  0  0  0  0  0  0  0  0  0
   44.5560   32.2947   48.8514 H   0  0  0  0  0  0  0  0  0  0  0  0
  1 10  1  0
  2  1  2  0
  3  2  1  0
  4  3  2  0
  4  5  1  0
  5  6  2  0
  6  1  1  0
  7  5  1  0
  7  9  1  0
  7  8  1  0
 10 11  1  0
 11 17  1  0
 11 12  2  0
 13 14  2  0
 14 15  1  0
 15 19  1  0
 16 15  2  0
 17 16  1  0
 18 13  1  0
 18 17  2  0
 19 20  1  0
 19 21  1  0
 19 22  1  0
  2 23  1  0
  3 24  1  0
  7 25  1  0
  8 26  1  0
  8 27  1  0
  8 28  1  0
  9 29  1  0
  9 30  1  0
  9 31  1  0
 13 32  1  0
 14 33  1  0
 20 34  1  0
 20 35  1  0
 20 36  1  0
 21 37  1  0
 21 38  1  0
 21 39  1  0
 22 40  1  0
 22 41  1  0
 22 42  1  0
M  ISO  8  23  14  24  14  25   8  26   8  27   8  28   8  29   8  30   8
M  ISO  8  31   8  32  14  33  14  34   8  35   8  36   8  37   8  38   8
M  ISO  4  39   8  40   8  41   8  42   8
M  END
>  <minimizedAffinity>  (1) 
-4.97780371

>  <minimizedRMSD>  (1) 
1.64648855

$$$$
