
     RDKit          3D

 36 37  0  0  0  0  0  0  0  0999 V2000
   44.3900   34.6790   42.3890 C   0  0  0  0  0  0  0  0  0  0  0  0
   43.8230   35.6860   41.6260 C   0  0  0  0  0  0  0  0  0  0  0  0
   42.7640   35.3280   40.8570 C   0  0  0  0  0  0  0  0  0  0  0  0
   42.2750   34.0850   40.8160 N   0  0  0  0  0  0  0  0  0  0  0  0
   42.8470   33.1000   41.5750 C   0  0  0  0  0  0  0  0  0  0  0  0
   43.9260   33.4030   42.3790 N   0  0  0  0  0  0  0  0  0  0  0  0
   42.3440   31.7010   41.5410 C   0  0  0  0  0  0  0  0  0  0  0  0
   43.1410   30.7760   42.4110 C   0  0  0  0  0  0  0  0  0  0  0  0
   40.8870   31.6110   41.9160 C   0  0  0  0  0  0  0  0  0  0  0  0
   45.4970   34.7790   43.2710 O   0  0  0  0  0  0  0  0  0  0  0  0
   45.2380   34.6230   44.6440 C   0  0  0  0  0  0  0  0  0  0  0  0
   44.4930   35.5020   45.1430 O   0  0  0  0  0  0  0  0  0  0  0  0
   47.1100   31.5920   45.4220 C   0  0  0  0  0  0  0  0  0  0  0  0
   46.8970   31.4080   46.7840 C   0  0  0  0  0  0  0  0  0  0  0  0
   46.1000   32.3440   47.4240 C   0  0  0  0  0  0  0  0  0  0  0  0
   45.5620   33.3960   46.7070 N   0  0  0  0  0  0  0  0  0  0  0  0
   45.8090   33.5150   45.3800 C   0  0  0  0  0  0  0  0  0  0  0  0
   46.5770   32.6230   44.7370 N   0  0  0  0  0  0  0  0  0  0  0  0
   45.7730   32.3010   48.8640 C   0  0  0  0  0  0  0  0  0  0  0  0
   45.0770   30.9680   49.1240 C   0  0  0  0  0  0  0  0  0  0  0  0
   44.2087   36.7160   41.6424 H   0  0  0  0  0  0  0  0  0  0  0  0
   42.2842   36.0992   40.2365 H   0  0  0  0  0  0  0  0  0  0  0  0
   42.4628   31.3772   40.4965 H   0  0  0  0  0  0  0  0  0  0  0  0
   42.9431   31.0057   43.4684 H   0  0  0  0  0  0  0  0  0  0  0  0
   42.8519   29.7356   42.2015 H   0  0  0  0  0  0  0  0  0  0  0  0
   44.2128   30.9081   42.2015 H   0  0  0  0  0  0  0  0  0  0  0  0
   40.7901   31.6050   43.0117 H   0  0  0  0  0  0  0  0  0  0  0  0
   40.3484   32.4776   41.5050 H   0  0  0  0  0  0  0  0  0  0  0  0
   40.4591   30.6847   41.5050 H   0  0  0  0  0  0  0  0  0  0  0  0
   47.7381   30.8676   44.8827 H   0  0  0  0  0  0  0  0  0  0  0  0
   47.3399   30.5602   47.3273 H   0  0  0  0  0  0  0  0  0  0  0  0
   46.6933   32.3697   49.4626 H   0  0  0  0  0  0  0  0  0  0  0  0
   45.1242   33.1438   49.1445 H   0  0  0  0  0  0  0  0  0  0  0  0
   44.9916   30.8044   50.2084 H   0  0  0  0  0  0  0  0  0  0  0  0
   44.0727   30.9851   48.6755 H   0  0  0  0  0  0  0  0  0  0  0  0
   45.6650   30.1537   48.6755 H   0  0  0  0  0  0  0  0  0  0  0  0
  1 10  1  0
  2  1  2  0
  3  2  1  0
  4  3  2  0
  4  5  1  0
  5  6  2  0
  6  1  1  0
  7  5  1  0
  7  9  1  0
  7  8  1  0
 10 11  1  0
 11 12  2  0
 11 17  1  0
 13 14  2  0
 14 15  1  0
 15 19  1  0
 16 15  2  0
 17 16  1  0
 18 17  2  0
 18 13  1  0
 19 20  1  0
  2 21  1  0
  3 22  1  0
  7 23  1  0
  8 24  1  0
  8 25  1  0
  8 26  1  0
  9 27  1  0
  9 28  1  0
  9 29  1  0
 13 30  1  0
 14 31  1  0
 19 32  1  0
 19 33  1  0
 20 34  1  0
 20 35  1  0
 20 36  1  0
M  ISO  8  21  14  22  14  23   8  24   8  25   8  26   8  27   8  28   8
M  ISO  8  29   8  30  14  31  14  32   8  33   8  34   8  35   8  36   8
M  END
>  <minimizedAffinity>  (1) 
-4.7891798

>  <minimizedRMSD>  (1) 
1.13805449

$$$$
