
     RDKit          3D

 33 34  0  0  0  0  0  0  0  0999 V2000
   44.9620   34.6240   43.1730 C   0  0  0  0  0  0  0  0  0  0  0  0
   44.5680   35.7510   42.4920 C   0  0  0  0  0  0  0  0  0  0  0  0
   43.6400   35.5900   41.5090 C   0  0  0  0  0  0  0  0  0  0  0  0
   43.1290   34.3890   41.2140 N   0  0  0  0  0  0  0  0  0  0  0  0
   43.5230   33.2820   41.8920 C   0  0  0  0  0  0  0  0  0  0  0  0
   44.4600   33.4040   42.8920 N   0  0  0  0  0  0  0  0  0  0  0  0
   42.9740   31.9240   41.5620 C   0  0  0  0  0  0  0  0  0  0  0  0
   43.4860   30.8660   42.4900 C   0  0  0  0  0  0  0  0  0  0  0  0
   41.4670   31.9080   41.5440 C   0  0  0  0  0  0  0  0  0  0  0  0
   45.9070   34.5490   44.2230 O   0  0  0  0  0  0  0  0  0  0  0  0
   45.4220   34.2490   45.5070 C   0  0  0  0  0  0  0  0  0  0  0  0
   44.5990   35.0590   45.9580 O   0  0  0  0  0  0  0  0  0  0  0  0
   47.2340   31.1630   46.2770 C   0  0  0  0  0  0  0  0  0  0  0  0
   46.7720   30.8150   47.5320 C   0  0  0  0  0  0  0  0  0  0  0  0
   45.8260   31.6540   48.1180 C   0  0  0  0  0  0  0  0  0  0  0  0
   45.3960   32.7770   47.4340 N   0  0  0  0  0  0  0  0  0  0  0  0
   45.8880   33.0630   46.2080 C   0  0  0  0  0  0  0  0  0  0  0  0
   46.7970   32.2650   45.6320 N   0  0  0  0  0  0  0  0  0  0  0  0
   45.2120   31.4490   49.4550 C   0  0  0  0  0  0  0  0  0  0  0  0
   44.9846   36.7406   42.7310 H   0  0  0  0  0  0  0  0  0  0  0  0
   43.3015   36.4701   40.9425 H   0  0  0  0  0  0  0  0  0  0  0  0
   43.3323   31.6944   40.5477 H   0  0  0  0  0  0  0  0  0  0  0  0
   43.3314   31.1854   43.5312 H   0  0  0  0  0  0  0  0  0  0  0  0
   42.9429   29.9265   42.3102 H   0  0  0  0  0  0  0  0  0  0  0  0
   44.5598   30.7090   42.3102 H   0  0  0  0  0  0  0  0  0  0  0  0
   41.0880   31.9040   42.5766 H   0  0  0  0  0  0  0  0  0  0  0  0
   41.0970   32.8023   41.0211 H   0  0  0  0  0  0  0  0  0  0  0  0
   41.1161   31.0061   41.0211 H   0  0  0  0  0  0  0  0  0  0  0  0
   47.9818   30.5213   45.7881 H   0  0  0  0  0  0  0  0  0  0  0  0
   47.1357   29.9135   48.0469 H   0  0  0  0  0  0  0  0  0  0  0  0
   45.9458   31.6940   50.2370 H   0  0  0  0  0  0  0  0  0  0  0  0
   44.3333   32.1025   49.5591 H   0  0  0  0  0  0  0  0  0  0  0  0
   44.9022   30.3987   49.5591 H   0  0  0  0  0  0  0  0  0  0  0  0
  1 10  1  0
  2  1  2  0
  3  2  1  0
  4  3  2  0
  4  5  1  0
  5  6  2  0
  6  1  1  0
  7  5  1  0
  7  8  1  0
  9  7  1  0
 10 11  1  0
 11 12  2  0
 11 17  1  0
 13 14  2  0
 14 15  1  0
 15 19  1  0
 16 15  2  0
 17 16  1  0
 18 17  2  0
 18 13  1  0
  2 20  1  0
  3 21  1  0
  7 22  1  0
  8 23  1  0
  8 24  1  0
  8 25  1  0
  9 26  1  0
  9 27  1  0
  9 28  1  0
 13 29  1  0
 14 30  1  0
 19 31  1  0
 19 32  1  0
 19 33  1  0
M  ISO  8  20  14  21  14  22   8  23   8  24   8  25   8  26   8  27   8
M  ISO  6  28   8  29  14  30  14  31   8  32   8  33   8
M  END
>  <minimizedAffinity>  (1) 
-4.83022165

>  <minimizedRMSD>  (1) 
0.436335504

$$$$
