
     RDKit          3D

 42 44  0  0  0  0  0  0  0  0999 V2000
   45.0310   34.6310   44.4760 C   0  0  0  0  0  0  0  0  0  0  0  0
   44.9660   35.8900   43.9160 C   0  0  0  0  0  0  0  0  0  0  0  0
   44.6520   35.9520   42.5950 C   0  0  0  0  0  0  0  0  0  0  0  0
   44.4170   34.8570   41.8680 N   0  0  0  0  0  0  0  0  0  0  0  0
   44.4850   33.6230   42.4310 C   0  0  0  0  0  0  0  0  0  0  0  0
   44.7980   33.5090   43.7620 N   0  0  0  0  0  0  0  0  0  0  0  0
   44.2460   32.3810   41.6260 C   0  0  0  0  0  0  0  0  0  0  0  0
   45.2810   31.3280   41.8830 C   0  0  0  0  0  0  0  0  0  0  0  0
   42.8680   31.8140   41.8400 C   0  0  0  0  0  0  0  0  0  0  0  0
   45.3400   34.3100   45.8250 O   0  0  0  0  0  0  0  0  0  0  0  0
   46.1900   33.2120   46.0390 C   0  0  0  0  0  0  0  0  0  0  0  0
   47.2000   33.1770   45.3120 O   0  0  0  0  0  0  0  0  0  0  0  0
   45.3150   31.6640   49.2420 C   0  0  0  0  0  0  0  0  0  0  0  0
   45.2220   30.3090   48.9310 C   0  0  0  0  0  0  0  0  0  0  0  0
   45.4630   29.9480   47.6150 C   0  0  0  0  0  0  0  0  0  0  0  0
   45.7770   30.9100   46.6850 N   0  0  0  0  0  0  0  0  0  0  0  0
   45.8550   32.2330   47.0470 C   0  0  0  0  0  0  0  0  0  0  0  0
   45.6250   32.5960   48.3100 N   0  0  0  0  0  0  0  0  0  0  0  0
   45.3900   28.5870   47.2170 N   0  0  0  0  0  0  0  0  0  0  0  0
   44.1880   27.9340   46.7370 C   0  0  0  0  0  0  0  0  0  0  0  0
   44.4950   26.4440   46.8770 C   0  0  0  0  0  0  0  0  0  0  0  0
   45.9680   26.4170   46.4740 C   0  0  0  0  0  0  0  0  0  0  0  0
   46.4880   27.6410   47.2250 C   0  0  0  0  0  0  0  0  0  0  0  0
   45.1584   36.7970   44.5080 H   0  0  0  0  0  0  0  0  0  0  0  0
   44.5894   36.9367   42.1088 H   0  0  0  0  0  0  0  0  0  0  0  0
   44.3269   32.6913   40.5738 H   0  0  0  0  0  0  0  0  0  0  0  0
   45.4096   31.1972   42.9676 H   0  0  0  0  0  0  0  0  0  0  0  0
   44.9560   30.3774   41.4350 H   0  0  0  0  0  0  0  0  0  0  0  0
   46.2371   31.6365   41.4350 H   0  0  0  0  0  0  0  0  0  0  0  0
   42.6687   31.7320   42.9187 H   0  0  0  0  0  0  0  0  0  0  0  0
   42.1224   32.4784   41.3788 H   0  0  0  0  0  0  0  0  0  0  0  0
   42.8059   30.8173   41.3788 H   0  0  0  0  0  0  0  0  0  0  0  0
   45.1308   31.9867   50.2773 H   0  0  0  0  0  0  0  0  0  0  0  0
   44.9687   29.5597   49.6955 H   0  0  0  0  0  0  0  0  0  0  0  0
   43.9937   28.1960   45.6865 H   0  0  0  0  0  0  0  0  0  0  0  0
   43.2904   28.2355   47.2968 H   0  0  0  0  0  0  0  0  0  0  0  0
   44.3515   26.0964   47.9107 H   0  0  0  0  0  0  0  0  0  0  0  0
   43.8467   25.7869   46.2787 H   0  0  0  0  0  0  0  0  0  0  0  0
   46.4636   25.4942   46.8101 H   0  0  0  0  0  0  0  0  0  0  0  0
   46.1454   26.4372   45.3886 H   0  0  0  0  0  0  0  0  0  0  0  0
   47.3650   28.0637   46.7130 H   0  0  0  0  0  0  0  0  0  0  0  0
   46.8074   27.3908   48.2474 H   0  0  0  0  0  0  0  0  0  0  0  0
  1 10  1  0
  2  1  2  0
  3  2  1  0
  4  5  1  0
  4  3  2  0
  5  6  2  0
  6  1  1  0
  7  9  1  0
  7  8  1  0
  7  5  1  0
 10 11  1  0
 11 17  1  0
 12 11  2  0
 14 13  2  0
 15 14  1  0
 16 17  1  0
 16 15  2  0
 17 18  2  0
 18 13  1  0
 19 23  1  0
 19 15  1  0
 20 21  1  0
 20 19  1  0
 22 21  1  0
 22 23  1  0
  2 24  1  0
  3 25  1  0
  7 26  1  0
  8 27  1  0
  8 28  1  0
  8 29  1  0
  9 30  1  0
  9 31  1  0
  9 32  1  0
 13 33  1  0
 14 34  1  0
 20 35  1  0
 20 36  1  0
 21 37  1  0
 21 38  1  0
 22 39  1  0
 22 40  1  0
 23 41  1  0
 23 42  1  0
M  ISO  8  24  14  25  14  26   8  27   8  28   8  29   8  30   8  31   8
M  ISO  8  32   8  33  14  34  14  35  13  36  13  37  13  38  13  39  13
M  ISO  3  40  13  41  13  42  13
M  END
>  <minimizedAffinity>  (1) 
-5.03441811

>  <minimizedRMSD>  (1) 
3.34630895

$$$$
