
     RDKit          3D

 39 40  0  0  0  0  0  0  0  0999 V2000
   44.4450   34.6360   42.4540 C   0  0  0  0  0  0  0  0  0  0  0  0
   43.8600   35.6770   41.7590 C   0  0  0  0  0  0  0  0  0  0  0  0
   42.7650   35.3790   41.0050 C   0  0  0  0  0  0  0  0  0  0  0  0
   42.2710   34.1300   40.9350 N   0  0  0  0  0  0  0  0  0  0  0  0
   42.8560   33.1190   41.6230 C   0  0  0  0  0  0  0  0  0  0  0  0
   43.9630   33.3810   42.3950 N   0  0  0  0  0  0  0  0  0  0  0  0
   42.3320   31.7170   41.5420 C   0  0  0  0  0  0  0  0  0  0  0  0
   43.1180   30.7680   42.3920 C   0  0  0  0  0  0  0  0  0  0  0  0
   40.8710   31.6300   41.9100 C   0  0  0  0  0  0  0  0  0  0  0  0
   45.5770   34.7080   43.2900 O   0  0  0  0  0  0  0  0  0  0  0  0
   45.3990   34.4060   44.6500 C   0  0  0  0  0  0  0  0  0  0  0  0
   44.6740   35.1930   45.2750 O   0  0  0  0  0  0  0  0  0  0  0  0
   47.1450   31.2030   44.9630 C   0  0  0  0  0  0  0  0  0  0  0  0
   47.2670   31.0220   46.3290 C   0  0  0  0  0  0  0  0  0  0  0  0
   46.7410   32.0150   47.1420 C   0  0  0  0  0  0  0  0  0  0  0  0
   46.1320   33.1180   46.5770 N   0  0  0  0  0  0  0  0  0  0  0  0
   46.0420   33.2430   45.2330 C   0  0  0  0  0  0  0  0  0  0  0  0
   46.5450   32.2910   44.4260 N   0  0  0  0  0  0  0  0  0  0  0  0
   46.7880   31.9740   48.6410 C   0  0  0  0  0  0  0  0  0  0  0  0
   45.4430   31.5670   49.2050 C   0  0  0  0  0  0  0  0  0  0  0  0
   47.8190   31.0100   49.1480 C   0  0  0  0  0  0  0  0  0  0  0  0
   44.2602   36.7002   41.8120 H   0  0  0  0  0  0  0  0  0  0  0  0
   42.2714   36.1820   40.4379 H   0  0  0  0  0  0  0  0  0  0  0  0
   42.4457   31.4205   40.4888 H   0  0  0  0  0  0  0  0  0  0  0  0
   42.9349   30.9891   43.4539 H   0  0  0  0  0  0  0  0  0  0  0  0
   42.8066   29.7359   42.1734 H   0  0  0  0  0  0  0  0  0  0  0  0
   44.1900   30.8817   42.1734 H   0  0  0  0  0  0  0  0  0  0  0  0
   40.7685   31.6239   43.0052 H   0  0  0  0  0  0  0  0  0  0  0  0
   40.3364   32.4979   41.4965 H   0  0  0  0  0  0  0  0  0  0  0  0
   40.4432   30.7048   41.4965 H   0  0  0  0  0  0  0  0  0  0  0  0
   47.5505   30.4345   44.2884 H   0  0  0  0  0  0  0  0  0  0  0  0
   47.7580   30.1325   46.7505 H   0  0  0  0  0  0  0  0  0  0  0  0
   47.0544   32.9886   48.9722 H   0  0  0  0  0  0  0  0  0  0  0  0
   45.4870   31.5803   50.3040 H   0  0  0  0  0  0  0  0  0  0  0  0
   44.6723   32.2722   48.8603 H   0  0  0  0  0  0  0  0  0  0  0  0
   45.1926   30.5529   48.8603 H   0  0  0  0  0  0  0  0  0  0  0  0
   47.8150   31.0138   50.2480 H   0  0  0  0  0  0  0  0  0  0  0  0
   47.5857   29.9986   48.7839 H   0  0  0  0  0  0  0  0  0  0  0  0
   48.8125   31.3106   48.7839 H   0  0  0  0  0  0  0  0  0  0  0  0
  1 10  1  0
  2  1  2  0
  3  2  1  0
  4  3  2  0
  4  5  1  0
  5  6  2  0
  6  1  1  0
  7  5  1  0
  7  9  1  0
  7  8  1  0
 10 11  1  0
 11 17  1  0
 11 12  2  0
 13 14  2  0
 14 15  1  0
 15 19  1  0
 16 15  2  0
 17 16  1  0
 18 13  1  0
 18 17  2  0
 19 21  1  0
 19 20  1  0
  2 22  1  0
  3 23  1  0
  7 24  1  0
  8 25  1  0
  8 26  1  0
  8 27  1  0
  9 28  1  0
  9 29  1  0
  9 30  1  0
 13 31  1  0
 14 32  1  0
 19 33  1  0
 20 34  1  0
 20 35  1  0
 20 36  1  0
 21 37  1  0
 21 38  1  0
 21 39  1  0
M  ISO  8  22  14  23  14  24   8  25   8  26   8  27   8  28   8  29   8
M  ISO  8  30   8  31  14  32  14  33   8  34   8  35   8  36   8  37   8
M  ISO  2  38   8  39   8
M  END
>  <minimizedAffinity>  (1) 
-4.93744326

>  <minimizedRMSD>  (1) 
1.49453855

$$$$
