
     RDKit          3D

 31 32  0  0  0  0  0  0  0  0999 V2000
   44.8450   34.7190   42.9780 C   0  0  0  0  0  0  0  0  0  0  0  0
   44.3920   35.8190   42.2810 C   0  0  0  0  0  0  0  0  0  0  0  0
   43.4270   35.5910   41.3510 C   0  0  0  0  0  0  0  0  0  0  0  0
   42.9350   34.3680   41.1130 N   0  0  0  0  0  0  0  0  0  0  0  0
   43.3910   33.2940   41.8060 C   0  0  0  0  0  0  0  0  0  0  0  0
   44.3680   33.4720   42.7620 N   0  0  0  0  0  0  0  0  0  0  0  0
   42.8730   31.9160   41.5440 C   0  0  0  0  0  0  0  0  0  0  0  0
   43.4650   30.8960   42.4690 C   0  0  0  0  0  0  0  0  0  0  0  0
   41.3670   31.8480   41.6020 C   0  0  0  0  0  0  0  0  0  0  0  0
   45.8380   34.6890   43.9920 O   0  0  0  0  0  0  0  0  0  0  0  0
   45.4260   34.3280   45.2840 C   0  0  0  0  0  0  0  0  0  0  0  0
   44.6240   35.1140   45.8200 O   0  0  0  0  0  0  0  0  0  0  0  0
   47.2770   31.2190   45.8110 C   0  0  0  0  0  0  0  0  0  0  0  0
   46.8920   30.8280   47.0800 C   0  0  0  0  0  0  0  0  0  0  0  0
   45.9910   31.6310   47.7630 C   0  0  0  0  0  0  0  0  0  0  0  0
   45.5200   32.7800   47.1500 N   0  0  0  0  0  0  0  0  0  0  0  0
   45.9270   33.1210   45.9060 C   0  0  0  0  0  0  0  0  0  0  0  0
   46.7980   32.3470   45.2440 N   0  0  0  0  0  0  0  0  0  0  0  0
   45.3260   31.3680   49.4030 S   0  0  0  0  0  0  0  0  0  0  0  0
   44.7902   36.8273   42.4675 H   0  0  0  0  0  0  0  0  0  0  0  0
   43.0361   36.4414   40.7731 H   0  0  0  0  0  0  0  0  0  0  0  0
   43.1899   31.6742   40.5188 H   0  0  0  0  0  0  0  0  0  0  0  0
   43.2885   31.2000   43.5113 H   0  0  0  0  0  0  0  0  0  0  0  0
   42.9937   29.9188   42.2873 H   0  0  0  0  0  0  0  0  0  0  0  0
   44.5473   30.8205   42.2873 H   0  0  0  0  0  0  0  0  0  0  0  0
   41.0408   31.8333   42.6524 H   0  0  0  0  0  0  0  0  0  0  0  0
   40.9405   32.7278   41.0979 H   0  0  0  0  0  0  0  0  0  0  0  0
   41.0216   30.9333   41.0979 H   0  0  0  0  0  0  0  0  0  0  0  0
   47.9900   30.5968   45.2503 H   0  0  0  0  0  0  0  0  0  0  0  0
   47.2884   29.9078   47.5341 H   0  0  0  0  0  0  0  0  0  0  0  0
   46.2573   31.7363   50.3379 H   0  0  0  0  0  0  0  0  0  0  0  0
  1 10  1  0
  2  1  2  0
  3  2  1  0
  4  3  2  0
  4  5  1  0
  5  6  2  0
  6  1  1  0
  7  9  1  0
  7  5  1  0
  7  8  1  0
 10 11  1  0
 11 12  2  0
 11 17  1  0
 13 14  2  0
 14 15  1  0
 15 19  1  0
 16 15  2  0
 17 16  1  0
 18 13  1  0
 18 17  2  0
  2 20  1  0
  3 21  1  0
  7 22  1  0
  8 23  1  0
  8 24  1  0
  8 25  1  0
  9 26  1  0
  9 27  1  0
  9 28  1  0
 13 29  1  0
 14 30  1  0
 19 31  1  0
M  ISO  8  20  14  21  14  22   8  23   8  24   8  25   8  26   8  27   8
M  ISO  4  28   8  29  14  30  14  31  11
M  END
>  <minimizedAffinity>  (1) 
-4.61039925

>  <minimizedRMSD>  (1) 
0.675783277

$$$$
