
     RDKit          3D

 44 46  0  0  0  0  0  0  0  0999 V2000
   46.5190   34.8730   43.0860 O   0  0  0  0  0  0  0  0  0  0  0  0
   45.3880   34.9260   42.2350 C   0  0  0  0  0  0  0  0  0  0  0  0
   44.2560   35.6870   42.4230 C   0  0  0  0  0  0  0  0  0  0  0  0
   43.2830   35.5800   41.4650 C   0  0  0  0  0  0  0  0  0  0  0  0
   43.4230   34.7770   40.4010 N   0  0  0  0  0  0  0  0  0  0  0  0
   44.5470   34.0350   40.2370 C   0  0  0  0  0  0  0  0  0  0  0  0
   45.5480   34.1090   41.1700 N   0  0  0  0  0  0  0  0  0  0  0  0
   44.7220   33.1490   39.0440 C   0  0  0  0  0  0  0  0  0  0  0  0
   45.4740   31.8940   39.3690 C   0  0  0  0  0  0  0  0  0  0  0  0
   43.4140   32.7910   38.3870 C   0  0  0  0  0  0  0  0  0  0  0  0
   46.5370   33.8820   44.0790 C   0  0  0  0  0  0  0  0  0  0  0  0
   45.8350   34.1280   45.0720 O   0  0  0  0  0  0  0  0  0  0  0  0
   48.9030   31.4590   42.7120 C   0  0  0  0  0  0  0  0  0  0  0  0
   48.8420   30.4080   43.6070 C   0  0  0  0  0  0  0  0  0  0  0  0
   47.9820   30.5210   44.6910 C   0  0  0  0  0  0  0  0  0  0  0  0
   47.2320   31.6810   44.8160 N   0  0  0  0  0  0  0  0  0  0  0  0
   47.3250   32.6860   43.9160 C   0  0  0  0  0  0  0  0  0  0  0  0
   48.1560   32.5720   42.8700 N   0  0  0  0  0  0  0  0  0  0  0  0
   47.8070   29.5290   45.6960 N   0  0  0  0  0  0  0  0  0  0  0  0
   47.0640   28.2980   45.5000 C   0  0  0  0  0  0  0  0  0  0  0  0
   46.1130   28.1770   46.6530 C   0  0  0  0  0  0  0  0  0  0  0  0
   46.8450   28.0600   47.8740 N   0  0  0  0  0  0  0  0  0  0  0  0
   48.2250   28.4250   47.7440 C   0  0  0  0  0  0  0  0  0  0  0  0
   48.4050   29.7540   46.9970 C   0  0  0  0  0  0  0  0  0  0  0  0
   44.1393   36.3458   43.2961 H   0  0  0  0  0  0  0  0  0  0  0  0
   42.3606   36.1697   41.5718 H   0  0  0  0  0  0  0  0  0  0  0  0
   45.3159   33.7425   38.3334 H   0  0  0  0  0  0  0  0  0  0  0  0
   45.5424   31.7799   40.4609 H   0  0  0  0  0  0  0  0  0  0  0  0
   44.9454   31.0289   38.9423 H   0  0  0  0  0  0  0  0  0  0  0  0
   46.4862   31.9521   38.9423 H   0  0  0  0  0  0  0  0  0  0  0  0
   42.6596   32.5845   39.1605 H   0  0  0  0  0  0  0  0  0  0  0  0
   43.0767   33.6299   37.7605 H   0  0  0  0  0  0  0  0  0  0  0  0
   43.5509   31.8973   37.7605 H   0  0  0  0  0  0  0  0  0  0  0  0
   49.5788   31.3866   41.8471 H   0  0  0  0  0  0  0  0  0  0  0  0
   49.4573   29.5074   43.4646 H   0  0  0  0  0  0  0  0  0  0  0  0
   46.5069   28.3389   44.5524 H   0  0  0  0  0  0  0  0  0  0  0  0
   47.7406   27.4319   45.4542 H   0  0  0  0  0  0  0  0  0  0  0  0
   45.4740   29.0714   46.6946 H   0  0  0  0  0  0  0  0  0  0  0  0
   45.4890   27.2815   46.5165 H   0  0  0  0  0  0  0  0  0  0  0  0
   46.4091   28.6740   48.5768 H   0  0  0  0  0  0  0  0  0  0  0  0
   48.6622   28.5213   48.7488 H   0  0  0  0  0  0  0  0  0  0  0  0
   48.7289   27.6393   47.1620 H   0  0  0  0  0  0  0  0  0  0  0  0
   49.4722   30.0007   46.8959 H   0  0  0  0  0  0  0  0  0  0  0  0
   47.9392   30.5967   47.5289 H   0  0  0  0  0  0  0  0  0  0  0  0
  1 11  1  0
  2  3  2  0
  2  1  1  0
  4  3  1  0
  5  4  2  0
  6  5  1  0
  6  7  2  0
  7  2  1  0
  8  9  1  0
  8  6  1  0
 10  8  1  0
 11 12  2  0
 13 18  2  0
 13 14  1  0
 14 15  2  0
 15 16  1  0
 15 19  1  0
 17 11  1  0
 17 16  2  0
 18 17  1  0
 19 24  1  0
 20 19  1  0
 20 21  1  0
 21 22  1  0
 23 22  1  0
 24 23  1  0
  3 25  1  0
  4 26  1  0
  8 27  1  0
  9 28  1  0
  9 29  1  0
  9 30  1  0
 10 31  1  0
 10 32  1  0
 10 33  1  0
 13 34  1  0
 14 35  1  0
 20 36  1  0
 20 37  1  0
 21 38  1  0
 21 39  1  0
 22 40  1  0
 23 41  1  0
 23 42  1  0
 24 43  1  0
 24 44  1  0
M  ISO  8  25  14  26  14  27   8  28   8  29   8  30   8  31   8  32   8
M  ISO  8  33   8  34  14  35  14  36  13  37  13  38  13  39  13  40   5
M  ISO  4  41  13  42  13  43  13  44  13
M  END
>  <minimizedAffinity>  (1) 
-4.36441278

>  <minimizedRMSD>  (1) 
4.14917374

$$$$
