
     RDKit          3D

 37 39  0  0  0  0  0  0  0  0999 V2000
   44.9110   34.7280   42.8850 C   0  0  0  0  0  0  0  0  0  0  0  0
   44.3920   35.8230   42.2180 C   0  0  0  0  0  0  0  0  0  0  0  0
   43.3700   35.5810   41.3580 C   0  0  0  0  0  0  0  0  0  0  0  0
   42.8810   34.3510   41.1570 N   0  0  0  0  0  0  0  0  0  0  0  0
   43.3970   33.2850   41.8190 C   0  0  0  0  0  0  0  0  0  0  0  0
   44.4310   33.4830   42.6970 N   0  0  0  0  0  0  0  0  0  0  0  0
   42.8790   31.9030   41.5930 C   0  0  0  0  0  0  0  0  0  0  0  0
   43.5000   30.8990   42.5150 C   0  0  0  0  0  0  0  0  0  0  0  0
   41.3780   31.8210   41.6730 C   0  0  0  0  0  0  0  0  0  0  0  0
   45.9740   34.7180   43.8270 O   0  0  0  0  0  0  0  0  0  0  0  0
   45.8720   33.8100   44.8920 C   0  0  0  0  0  0  0  0  0  0  0  0
   45.2290   34.2330   45.8840 O   0  0  0  0  0  0  0  0  0  0  0  0
   48.1050   31.0860   43.9400 C   0  0  0  0  0  0  0  0  0  0  0  0
   47.6170   29.9890   44.6660 C   0  0  0  0  0  0  0  0  0  0  0  0
   46.5170   30.2210   45.4750 C   0  0  0  0  0  0  0  0  0  0  0  0
   45.9640   31.4750   45.5330 N   0  0  0  0  0  0  0  0  0  0  0  0
   46.4750   32.5060   44.8100 C   0  0  0  0  0  0  0  0  0  0  0  0
   47.5340   32.3100   44.0230 N   0  0  0  0  0  0  0  0  0  0  0  0
   45.9960   29.1440   46.2200 C   0  0  0  0  0  0  0  0  0  0  0  0
   44.6750   28.7710   46.4150 C   0  0  0  0  0  0  0  0  0  0  0  0
   44.3850   27.6770   47.1860 C   0  0  0  0  0  0  0  0  0  0  0  0
   45.5190   26.9760   47.7530 C   0  0  0  0  0  0  0  0  0  0  0  0
   46.9650   28.0130   47.0870 S   0  0  0  0  0  0  0  0  0  0  0  0
   44.7870   36.8374   42.3763 H   0  0  0  0  0  0  0  0  0  0  0  0
   42.9284   36.4246   40.8073 H   0  0  0  0  0  0  0  0  0  0  0  0
   43.1747   31.6509   40.5639 H   0  0  0  0  0  0  0  0  0  0  0  0
   43.3162   31.1961   43.5580 H   0  0  0  0  0  0  0  0  0  0  0  0
   43.0561   29.9093   42.3320 H   0  0  0  0  0  0  0  0  0  0  0  0
   44.5837   30.8542   42.3320 H   0  0  0  0  0  0  0  0  0  0  0  0
   41.0674   31.8040   42.7281 H   0  0  0  0  0  0  0  0  0  0  0  0
   40.9359   32.6963   41.1747 H   0  0  0  0  0  0  0  0  0  0  0  0
   41.0339   30.9027   41.1747 H   0  0  0  0  0  0  0  0  0  0  0  0
   48.9772   30.9470   43.2842 H   0  0  0  0  0  0  0  0  0  0  0  0
   48.0841   28.9956   44.5962 H   0  0  0  0  0  0  0  0  0  0  0  0
   43.8632   29.3514   45.9523 H   0  0  0  0  0  0  0  0  0  0  0  0
   43.3503   27.3493   47.3646 H   0  0  0  0  0  0  0  0  0  0  0  0
   45.5378   26.0837   48.3960 H   0  0  0  0  0  0  0  0  0  0  0  0
  1 10  1  0
  2  1  2  0
  3  2  1  0
  4  3  2  0
  4  5  1  0
  5  6  2  0
  6  1  1  0
  7  9  1  0
  7  5  1  0
  7  8  1  0
 10 11  1  0
 11 12  2  0
 13 18  2  0
 13 14  1  0
 14 15  2  0
 15 16  1  0
 15 19  1  0
 17 11  1  0
 17 16  2  0
 18 17  1  0
 19 20  2  0
 19 23  1  0
 20 21  1  0
 21 22  2  0
 23 22  1  0
  2 24  1  0
  3 25  1  0
  7 26  1  0
  8 27  1  0
  8 28  1  0
  8 29  1  0
  9 30  1  0
  9 31  1  0
  9 32  1  0
 13 33  1  0
 14 34  1  0
 20 35  1  0
 21 36  1  0
 22 37  1  0
M  ISO  8  24  14  25  14  26   8  27   8  28   8  29   8  30   8  31   8
M  ISO  6  32   8  33  14  34  14  35  14  36  14  37  14
M  END
>  <minimizedAffinity>  (1) 
-4.23776102

>  <minimizedRMSD>  (1) 
3.02080059

$$$$
