
     RDKit          3D

 47 50  0  0  0  0  0  0  0  0999 V2000
   48.0990   31.9780   43.5480 C   0  0  0  0  0  0  0  0  0  0  0  0
   47.6700   30.9950   44.4140 C   0  0  0  0  0  0  0  0  0  0  0  0
   46.4920   31.2060   45.1480 C   0  0  0  0  0  0  0  0  0  0  0  0
   45.8280   32.4100   44.9440 N   0  0  0  0  0  0  0  0  0  0  0  0
   46.2940   33.3390   44.0790 C   0  0  0  0  0  0  0  0  0  0  0  0
   47.4180   33.1260   43.3890 N   0  0  0  0  0  0  0  0  0  0  0  0
   45.9930   30.2480   46.0560 N   0  0  0  0  0  0  0  0  0  0  0  0
   44.8880   29.5520   45.8530 N   0  0  0  0  0  0  0  0  0  0  0  0
   44.6870   28.6900   46.8840 C   0  0  0  0  0  0  0  0  0  0  0  0
   45.7510   28.9160   47.7280 C   0  0  0  0  0  0  0  0  0  0  0  0
   46.5760   29.9060   47.2030 C   0  0  0  0  0  0  0  0  0  0  0  0
   47.7330   30.3040   47.9440 C   0  0  0  0  0  0  0  0  0  0  0  0
   48.7450   29.3490   48.0830 C   0  0  0  0  0  0  0  0  0  0  0  0
   49.9250   29.5060   48.7850 C   0  0  0  0  0  0  0  0  0  0  0  0
   50.1300   30.7170   49.4100 C   0  0  0  0  0  0  0  0  0  0  0  0
   49.1810   31.7110   49.3220 C   0  0  0  0  0  0  0  0  0  0  0  0
   48.0210   31.5060   48.6110 C   0  0  0  0  0  0  0  0  0  0  0  0
   45.5520   34.5810   43.9040 C   0  0  0  0  0  0  0  0  0  0  0  0
   45.0260   35.2320   44.8260 O   0  0  0  0  0  0  0  0  0  0  0  0
   45.3770   35.1420   42.6400 O   0  0  0  0  0  0  0  0  0  0  0  0
   44.1630   34.8700   41.9690 C   0  0  0  0  0  0  0  0  0  0  0  0
   43.3780   35.7610   41.2710 C   0  0  0  0  0  0  0  0  0  0  0  0
   42.2430   35.2840   40.6960 C   0  0  0  0  0  0  0  0  0  0  0  0
   41.8880   34.0020   40.7940 N   0  0  0  0  0  0  0  0  0  0  0  0
   42.6630   33.1250   41.4820 C   0  0  0  0  0  0  0  0  0  0  0  0
   43.8210   33.5660   42.0800 N   0  0  0  0  0  0  0  0  0  0  0  0
   42.3020   31.6720   41.5840 C   0  0  0  0  0  0  0  0  0  0  0  0
   43.2500   30.9140   42.4510 C   0  0  0  0  0  0  0  0  0  0  0  0
   40.8770   31.4850   42.0880 C   0  0  0  0  0  0  0  0  0  0  0  0
   49.0226   31.8188   42.9721 H   0  0  0  0  0  0  0  0  0  0  0  0
   48.2407   30.0616   44.5279 H   0  0  0  0  0  0  0  0  0  0  0  0
   43.8619   27.9744   47.0146 H   0  0  0  0  0  0  0  0  0  0  0  0
   45.9238   28.3905   48.6788 H   0  0  0  0  0  0  0  0  0  0  0  0
   48.5867   28.3804   47.5862 H   0  0  0  0  0  0  0  0  0  0  0  0
   50.6694   28.6982   48.8425 H   0  0  0  0  0  0  0  0  0  0  0  0
   51.0543   30.8901   49.9808 H   0  0  0  0  0  0  0  0  0  0  0  0
   49.3514   32.6751   49.8234 H   0  0  0  0  0  0  0  0  0  0  0  0
   47.2847   32.3218   48.5627 H   0  0  0  0  0  0  0  0  0  0  0  0
   43.6598   36.8206   41.1823 H   0  0  0  0  0  0  0  0  0  0  0  0
   41.5982   35.9752   40.1334 H   0  0  0  0  0  0  0  0  0  0  0  0
   42.3739   31.2647   40.5647 H   0  0  0  0  0  0  0  0  0  0  0  0
   43.0122   31.1041   43.5080 H   0  0  0  0  0  0  0  0  0  0  0  0
   43.1576   29.8380   42.2422 H   0  0  0  0  0  0  0  0  0  0  0  0
   44.2793   31.2409   42.2422 H   0  0  0  0  0  0  0  0  0  0  0  0
   40.8742   31.4846   43.1880 H   0  0  0  0  0  0  0  0  0  0  0  0
   40.2469   32.3082   41.7200 H   0  0  0  0  0  0  0  0  0  0  0  0
   40.4807   30.5271   41.7200 H   0  0  0  0  0  0  0  0  0  0  0  0
  1  2  2  0
  2  3  1  0
  3  7  1  0
  4  3  2  0
  5  4  1  0
  6  1  1  0
  6  5  2  0
  7 11  1  0
  8  7  1  0
  8  9  2  0
  9 10  1  0
 11 10  2  0
 11 12  1  0
 12 13  2  0
 12 17  1  0
 13 14  1  0
 14 15  2  0
 16 15  1  0
 17 16  2  0
 18  5  1  0
 18 19  2  0
 20 18  1  0
 21 26  1  0
 21 20  1  0
 22 21  2  0
 23 24  2  0
 23 22  1  0
 24 25  1  0
 25 27  1  0
 25 26  2  0
 27 29  1  0
 27 28  1  0
  1 30  1  0
  2 31  1  0
  9 32  1  0
 10 33  1  0
 13 34  1  0
 14 35  1  0
 15 36  1  0
 16 37  1  0
 17 38  1  0
 22 39  1  0
 23 40  1  0
 27 41  1  0
 28 42  1  0
 28 43  1  0
 28 44  1  0
 29 45  1  0
 29 46  1  0
 29 47  1  0
M  ISO  8  30  14  31  14  32  14  33  14  34  14  35  14  36  14  37  14
M  ISO  8  38  14  39  14  40  14  41   8  42   8  43   8  44   8  45   8
M  ISO  2  46   8  47   8
M  END
>  <minimizedAffinity>  (1) 
-5.41724777

>  <minimizedRMSD>  (1) 
2.26509023

$$$$
