
     RDKit          3D

 48 51  0  0  0  0  0  0  0  0999 V2000
   48.2350   31.8060   43.1250 C   0  0  0  0  0  0  0  0  0  0  0  0
   47.5620   30.8440   43.8500 C   0  0  0  0  0  0  0  0  0  0  0  0
   46.2310   31.0660   44.1980 C   0  0  0  0  0  0  0  0  0  0  0  0
   45.6750   32.2640   43.7780 N   0  0  0  0  0  0  0  0  0  0  0  0
   46.3640   33.1790   43.0710 C   0  0  0  0  0  0  0  0  0  0  0  0
   47.6380   32.9500   42.7460 N   0  0  0  0  0  0  0  0  0  0  0  0
   45.4750   30.1360   44.9430 N   0  0  0  0  0  0  0  0  0  0  0  0
   44.4460   29.4610   44.4560 N   0  0  0  0  0  0  0  0  0  0  0  0
   43.9350   28.6500   45.4080 C   0  0  0  0  0  0  0  0  0  0  0  0
   44.7240   28.8750   46.5210 C   0  0  0  0  0  0  0  0  0  0  0  0
   45.6960   29.8170   46.2170 C   0  0  0  0  0  0  0  0  0  0  0  0
   46.6220   30.2220   47.2050 N   0  0  0  0  0  0  0  0  0  0  0  0
   47.7480   29.5070   47.5080 C   0  0  0  0  0  0  0  0  0  0  0  0
   48.6870   29.8420   48.4390 C   0  0  0  0  0  0  0  0  0  0  0  0
   48.4980   31.0070   49.1480 C   0  0  0  0  0  0  0  0  0  0  0  0
   49.4750   31.3600   50.1200 N   0  0  0  0  0  0  0  0  0  0  0  0
   47.3980   31.7370   48.8730 N   0  0  0  0  0  0  0  0  0  0  0  0
   46.5000   31.3630   47.9450 C   0  0  0  0  0  0  0  0  0  0  0  0
   45.4840   32.0990   47.7350 O   0  0  0  0  0  0  0  0  0  0  0  0
   45.7240   34.4120   42.6620 C   0  0  0  0  0  0  0  0  0  0  0  0
   45.6290   35.4290   43.3580 O   0  0  0  0  0  0  0  0  0  0  0  0
   45.1460   34.5530   41.4020 O   0  0  0  0  0  0  0  0  0  0  0  0
   43.7300   34.6050   41.3290 C   0  0  0  0  0  0  0  0  0  0  0  0
   42.9620   35.7390   41.2030 C   0  0  0  0  0  0  0  0  0  0  0  0
   41.6160   35.5700   41.1490 C   0  0  0  0  0  0  0  0  0  0  0  0
   41.0510   34.3490   41.2160 N   0  0  0  0  0  0  0  0  0  0  0  0
   41.8200   33.2410   41.3400 C   0  0  0  0  0  0  0  0  0  0  0  0
   43.1910   33.3700   41.3990 N   0  0  0  0  0  0  0  0  0  0  0  0
   41.2270   31.8640   41.3970 C   0  0  0  0  0  0  0  0  0  0  0  0
   41.9450   30.9700   42.3380 C   0  0  0  0  0  0  0  0  0  0  0  0
   39.7430   31.9130   41.7290 C   0  0  0  0  0  0  0  0  0  0  0  0
   49.2860   31.6329   42.8502 H   0  0  0  0  0  0  0  0  0  0  0  0
   48.0691   29.9148   44.1491 H   0  0  0  0  0  0  0  0  0  0  0  0
   43.0807   27.9630   45.3177 H   0  0  0  0  0  0  0  0  0  0  0  0
   44.6001   28.3829   47.4970 H   0  0  0  0  0  0  0  0  0  0  0  0
   47.9117   28.5743   46.9484 H   0  0  0  0  0  0  0  0  0  0  0  0
   49.5648   29.2035   48.6171 H   0  0  0  0  0  0  0  0  0  0  0  0
   49.3662   32.2246   50.6692 H   0  0  0  0  0  0  0  0  0  0  0  0
   50.2912   30.7510   50.2746 H   0  0  0  0  0  0  0  0  0  0  0  0
   43.4181   36.7385   41.1484 H   0  0  0  0  0  0  0  0  0  0  0  0
   40.9693   36.4541   41.0478 H   0  0  0  0  0  0  0  0  0  0  0  0
   41.3456   31.4351   40.3910 H   0  0  0  0  0  0  0  0  0  0  0  0
   41.7105   31.2620   43.3723 H   0  0  0  0  0  0  0  0  0  0  0  0
   41.6282   29.9301   42.1698 H   0  0  0  0  0  0  0  0  0  0  0  0
   43.0287   31.0549   42.1698 H   0  0  0  0  0  0  0  0  0  0  0  0
   39.6115   31.9173   42.8211 H   0  0  0  0  0  0  0  0  0  0  0  0
   39.3019   32.8262   41.3030 H   0  0  0  0  0  0  0  0  0  0  0  0
   39.2426   31.0309   41.3030 H   0  0  0  0  0  0  0  0  0  0  0  0
  1  2  2  0
  2  3  1  0
  3  7  1  0
  4  3  2  0
  5  4  1  0
  6  5  2  0
  6  1  1  0
  7 11  1  0
  8  7  1  0
  8  9  2  0
  9 10  1  0
 11 10  2  0
 11 12  1  0
 12 13  1  0
 12 18  1  0
 13 14  2  0
 14 15  1  0
 15 16  1  0
 17 15  2  0
 18 17  1  0
 19 18  2  0
 20  5  1  0
 20 21  2  0
 22 20  1  0
 23 28  1  0
 23 22  1  0
 24 23  2  0
 25 24  1  0
 25 26  2  0
 26 27  1  0
 27 29  1  0
 27 28  2  0
 29 31  1  0
 29 30  1  0
  1 32  1  0
  2 33  1  0
  9 34  1  0
 10 35  1  0
 13 36  1  0
 14 37  1  0
 16 38  1  0
 16 39  1  0
 24 40  1  0
 25 41  1  0
 29 42  1  0
 30 43  1  0
 30 44  1  0
 30 45  1  0
 31 46  1  0
 31 47  1  0
 31 48  1  0
M  ISO  8  32  14  33  14  34  14  35  14  36  14  37  14  40  14  41  14
M  ISO  7  42   8  43   8  44   8  45   8  46   8  47   8  48   8
M  END
>  <minimizedAffinity>  (1) 
-5.69779301

>  <minimizedRMSD>  (1) 
3.05597591

$$$$
