
     RDKit          3D

 50 53  0  0  0  0  0  0  0  0999 V2000
   45.4870   34.4460   44.2860 C   0  0  0  0  0  0  0  0  0  0  0  0
   44.9340   35.0350   45.2250 O   0  0  0  0  0  0  0  0  0  0  0  0
   47.9930   31.8180   43.9010 C   0  0  0  0  0  0  0  0  0  0  0  0
   47.4410   30.7620   44.5930 C   0  0  0  0  0  0  0  0  0  0  0  0
   46.2060   30.9150   45.2100 C   0  0  0  0  0  0  0  0  0  0  0  0
   45.6100   32.1540   45.0760 N   0  0  0  0  0  0  0  0  0  0  0  0
   46.1660   33.1700   44.3950 C   0  0  0  0  0  0  0  0  0  0  0  0
   47.3540   33.0040   43.8090 N   0  0  0  0  0  0  0  0  0  0  0  0
   45.5960   29.8690   45.9310 N   0  0  0  0  0  0  0  0  0  0  0  0
   44.7500   29.0020   45.3740 N   0  0  0  0  0  0  0  0  0  0  0  0
   44.3260   28.1180   46.3140 C   0  0  0  0  0  0  0  0  0  0  0  0
   44.9670   28.5030   47.4670 C   0  0  0  0  0  0  0  0  0  0  0  0
   45.7650   29.6080   47.2190 C   0  0  0  0  0  0  0  0  0  0  0  0
   46.5300   30.1800   48.3150 C   0  0  0  0  0  0  0  0  0  0  0  0
   45.7370   31.0980   49.2250 C   0  0  0  0  0  0  0  0  0  0  0  0
   45.8840   32.4800   48.6370 C   0  0  0  0  0  0  0  0  0  0  0  0
   47.2710   32.4900   48.0290 C   0  0  0  0  0  0  0  0  0  0  0  0
   47.6870   31.0440   47.8340 C   0  0  0  0  0  0  0  0  0  0  0  0
   45.4040   35.1270   43.0710 O   0  0  0  0  0  0  0  0  0  0  0  0
   44.2850   34.8580   42.2410 C   0  0  0  0  0  0  0  0  0  0  0  0
   43.5970   35.7650   41.4640 C   0  0  0  0  0  0  0  0  0  0  0  0
   42.5540   35.2990   40.7420 C   0  0  0  0  0  0  0  0  0  0  0  0
   42.1950   34.0040   40.7710 N   0  0  0  0  0  0  0  0  0  0  0  0
   42.8780   33.1150   41.5380 C   0  0  0  0  0  0  0  0  0  0  0  0
   43.9450   33.5520   42.2890 N   0  0  0  0  0  0  0  0  0  0  0  0
   42.5120   31.6580   41.5770 C   0  0  0  0  0  0  0  0  0  0  0  0
   43.4230   30.8650   42.4530 C   0  0  0  0  0  0  0  0  0  0  0  0
   41.0650   31.4650   42.0060 C   0  0  0  0  0  0  0  0  0  0  0  0
   48.9717   31.6926   43.4148 H   0  0  0  0  0  0  0  0  0  0  0  0
   47.9756   29.8028   44.6565 H   0  0  0  0  0  0  0  0  0  0  0  0
   43.6254   27.2803   46.1818 H   0  0  0  0  0  0  0  0  0  0  0  0
   44.8619   28.0069   48.4431 H   0  0  0  0  0  0  0  0  0  0  0  0
   46.8628   29.2820   48.8562 H   0  0  0  0  0  0  0  0  0  0  0  0
   44.6785   30.7994   49.2434 H   0  0  0  0  0  0  0  0  0  0  0  0
   46.1015   31.0565   50.2620 H   0  0  0  0  0  0  0  0  0  0  0  0
   45.1203   32.6571   47.8654 H   0  0  0  0  0  0  0  0  0  0  0  0
   45.7528   33.2705   49.3906 H   0  0  0  0  0  0  0  0  0  0  0  0
   47.2539   33.0110   47.0603 H   0  0  0  0  0  0  0  0  0  0  0  0
   47.9808   33.0149   48.6853 H   0  0  0  0  0  0  0  0  0  0  0  0
   47.8877   30.8487   46.7702 H   0  0  0  0  0  0  0  0  0  0  0  0
   48.6050   30.8200   48.3971 H   0  0  0  0  0  0  0  0  0  0  0  0
   43.8854   36.8261   41.4328 H   0  0  0  0  0  0  0  0  0  0  0  0
   41.9833   35.9985   40.1135 H   0  0  0  0  0  0  0  0  0  0  0  0
   42.6299   31.2793   40.5510 H   0  0  0  0  0  0  0  0  0  0  0  0
   43.1876   31.0699   43.5078 H   0  0  0  0  0  0  0  0  0  0  0  0
   43.2868   29.7928   42.2485 H   0  0  0  0  0  0  0  0  0  0  0  0
   44.4662   31.1477   42.2485 H   0  0  0  0  0  0  0  0  0  0  0  0
   41.0061   31.4571   43.1044 H   0  0  0  0  0  0  0  0  0  0  0  0
   40.4526   32.2894   41.6119 H   0  0  0  0  0  0  0  0  0  0  0  0
   40.6901   30.5089   41.6119 H   0  0  0  0  0  0  0  0  0  0  0  0
  1  7  1  0
  1  2  2  0
  3  4  2  0
  4  5  1  0
  5  9  1  0
  6  5  2  0
  7  6  1  0
  8  3  1  0
  8  7  2  0
  9 13  1  0
 10  9  1  0
 10 11  2  0
 11 12  1  0
 13 12  2  0
 13 14  1  0
 14 15  1  0
 16 15  1  0
 17 16  1  0
 18 17  1  0
 18 14  1  0
 19  1  1  0
 20 25  1  0
 20 19  1  0
 21 20  2  0
 22 23  2  0
 22 21  1  0
 23 24  1  0
 24 26  1  0
 24 25  2  0
 26 28  1  0
 26 27  1  0
  3 29  1  0
  4 30  1  0
 11 31  1  0
 12 32  1  0
 14 33  1  0
 15 34  1  0
 15 35  1  0
 16 36  1  0
 16 37  1  0
 17 38  1  0
 17 39  1  0
 18 40  1  0
 18 41  1  0
 21 42  1  0
 22 43  1  0
 26 44  1  0
 27 45  1  0
 27 46  1  0
 27 47  1  0
 28 48  1  0
 28 49  1  0
 28 50  1  0
M  ISO  8  29  14  30  14  31  14  32  14  33  13  34  13  35  13  36  13
M  ISO  8  37  13  38  13  39  13  40  13  41  13  42  14  43  14  44   8
M  ISO  6  45   8  46   8  47   8  48   8  49   8  50   8
M  END
>  <minimizedAffinity>  (1) 
-5.46659994

>  <minimizedRMSD>  (1) 
2.30014253

$$$$
