
     RDKit          3D

 52 55  0  0  0  0  0  0  0  0999 V2000
   48.4500   31.7550   43.0250 C   0  0  0  0  0  0  0  0  0  0  0  0
   47.7130   30.7720   43.6470 C   0  0  0  0  0  0  0  0  0  0  0  0
   46.3500   30.9710   43.8530 C   0  0  0  0  0  0  0  0  0  0  0  0
   45.8360   32.1760   43.4010 N   0  0  0  0  0  0  0  0  0  0  0  0
   46.5850   33.1130   42.7980 C   0  0  0  0  0  0  0  0  0  0  0  0
   47.8950   32.9050   42.6080 N   0  0  0  0  0  0  0  0  0  0  0  0
   45.5270   30.0180   44.4870 N   0  0  0  0  0  0  0  0  0  0  0  0
   44.7650   29.1540   43.8410 N   0  0  0  0  0  0  0  0  0  0  0  0
   44.0910   28.3820   44.7270 C   0  0  0  0  0  0  0  0  0  0  0  0
   44.4970   28.8360   45.9670 C   0  0  0  0  0  0  0  0  0  0  0  0
   45.4050   29.8710   45.8050 C   0  0  0  0  0  0  0  0  0  0  0  0
   45.9480   30.4770   46.9570 N   0  0  0  0  0  0  0  0  0  0  0  0
   44.9250   30.4030   48.0040 C   0  0  0  0  0  0  0  0  0  0  0  0
   45.5210   30.9470   49.2880 C   0  0  0  0  0  0  0  0  0  0  0  0
   45.9540   32.3640   48.9670 C   0  0  0  0  0  0  0  0  0  0  0  0
   47.1770   32.3000   48.0960 C   0  0  0  0  0  0  0  0  0  0  0  0
   47.2250   31.0700   47.2630 C   0  0  0  0  0  0  0  0  0  0  0  0
   45.9820   34.3520   42.3500 C   0  0  0  0  0  0  0  0  0  0  0  0
   46.0140   35.4230   42.9660 O   0  0  0  0  0  0  0  0  0  0  0  0
   45.2900   34.4350   41.1450 O   0  0  0  0  0  0  0  0  0  0  0  0
   43.8730   34.5370   41.1990 C   0  0  0  0  0  0  0  0  0  0  0  0
   43.1410   35.7010   41.1720 C   0  0  0  0  0  0  0  0  0  0  0  0
   41.7890   35.5780   41.2320 C   0  0  0  0  0  0  0  0  0  0  0  0
   41.1860   34.3740   41.3150 N   0  0  0  0  0  0  0  0  0  0  0  0
   41.9260   33.2400   41.3420 C   0  0  0  0  0  0  0  0  0  0  0  0
   43.3000   33.3190   41.2820 N   0  0  0  0  0  0  0  0  0  0  0  0
   41.2880   31.8810   41.4130 C   0  0  0  0  0  0  0  0  0  0  0  0
   42.0010   30.9640   42.3350 C   0  0  0  0  0  0  0  0  0  0  0  0
   39.8120   31.9800   41.7740 C   0  0  0  0  0  0  0  0  0  0  0  0
   49.5262   31.5935   42.8647 H   0  0  0  0  0  0  0  0  0  0  0  0
   48.1953   29.8402   43.9774 H   0  0  0  0  0  0  0  0  0  0  0  0
   43.3785   27.5731   44.5077 H   0  0  0  0  0  0  0  0  0  0  0  0
   44.1531   28.4380   46.9331 H   0  0  0  0  0  0  0  0  0  0  0  0
   44.0515   31.0056   47.7144 H   0  0  0  0  0  0  0  0  0  0  0  0
   44.6018   29.3612   48.1466 H   0  0  0  0  0  0  0  0  0  0  0  0
   44.7688   30.9477   50.0906 H   0  0  0  0  0  0  0  0  0  0  0  0
   46.3638   30.3329   49.6382 H   0  0  0  0  0  0  0  0  0  0  0  0
   45.1461   32.8880   48.4352 H   0  0  0  0  0  0  0  0  0  0  0  0
   46.1789   32.9101   49.8950 H   0  0  0  0  0  0  0  0  0  0  0  0
   47.1812   33.1759   47.4306 H   0  0  0  0  0  0  0  0  0  0  0  0
   48.0556   32.2872   48.7578 H   0  0  0  0  0  0  0  0  0  0  0  0
   47.8265   30.3211   47.7990 H   0  0  0  0  0  0  0  0  0  0  0  0
   47.6546   31.3760   46.2977 H   0  0  0  0  0  0  0  0  0  0  0  0
   43.6272   36.6855   41.1050 H   0  0  0  0  0  0  0  0  0  0  0  0
   41.1685   36.4861   41.2123 H   0  0  0  0  0  0  0  0  0  0  0  0
   41.3675   31.4456   40.4060 H   0  0  0  0  0  0  0  0  0  0  0  0
   41.7815   31.2463   43.3753 H   0  0  0  0  0  0  0  0  0  0  0  0
   41.6661   29.9315   42.1568 H   0  0  0  0  0  0  0  0  0  0  0  0
   43.0842   31.0341   42.1568 H   0  0  0  0  0  0  0  0  0  0  0  0
   39.7019   31.9874   42.8685 H   0  0  0  0  0  0  0  0  0  0  0  0
   39.3940   32.9082   41.3572 H   0  0  0  0  0  0  0  0  0  0  0  0
   39.2738   31.1159   41.3572 H   0  0  0  0  0  0  0  0  0  0  0  0
  1  2  2  0
  2  3  1  0
  3  7  1  0
  4  3  2  0
  5  4  1  0
  6  5  2  0
  6  1  1  0
  7 11  1  0
  8  7  1  0
  8  9  2  0
  9 10  1  0
 11 10  2  0
 11 12  1  0
 12 17  1  0
 12 13  1  0
 13 14  1  0
 15 14  1  0
 16 15  1  0
 17 16  1  0
 18  5  1  0
 18 19  2  0
 20 21  1  0
 20 18  1  0
 21 26  1  0
 22 21  2  0
 22 23  1  0
 23 24  2  0
 24 25  1  0
 25 27  1  0
 26 25  2  0
 27 29  1  0
 27 28  1  0
  1 30  1  0
  2 31  1  0
  9 32  1  0
 10 33  1  0
 13 34  1  0
 13 35  1  0
 14 36  1  0
 14 37  1  0
 15 38  1  0
 15 39  1  0
 16 40  1  0
 16 41  1  0
 17 42  1  0
 17 43  1  0
 22 44  1  0
 23 45  1  0
 27 46  1  0
 28 47  1  0
 28 48  1  0
 28 49  1  0
 29 50  1  0
 29 51  1  0
 29 52  1  0
M  ISO  8  30  14  31  14  32  14  33  14  34  13  35  13  36  13  37  13
M  ISO  8  38  13  39  13  40  13  41  13  42  13  43  13  44  14  45  14
M  ISO  7  46   8  47   8  48   8  49   8  50   8  51   8  52   8
M  END
>  <minimizedAffinity>  (1) 
-5.47778082

>  <minimizedRMSD>  (1) 
3.24162579

$$$$
