
     RDKit          3D

 46 49  0  0  0  0  0  0  0  0999 V2000
   47.9660   32.2690   43.6840 C   0  0  0  0  0  0  0  0  0  0  0  0
   47.6010   31.1960   44.4840 C   0  0  0  0  0  0  0  0  0  0  0  0
   46.4500   31.3030   45.2520 C   0  0  0  0  0  0  0  0  0  0  0  0
   45.7300   32.4960   45.1630 N   0  0  0  0  0  0  0  0  0  0  0  0
   46.1150   33.5150   44.3720 C   0  0  0  0  0  0  0  0  0  0  0  0
   47.2290   33.4010   43.6370 N   0  0  0  0  0  0  0  0  0  0  0  0
   46.0110   30.2590   46.0930 N   0  0  0  0  0  0  0  0  0  0  0  0
   44.9030   29.5620   45.8770 N   0  0  0  0  0  0  0  0  0  0  0  0
   44.7390   28.6380   46.8580 C   0  0  0  0  0  0  0  0  0  0  0  0
   45.8150   28.8100   47.6860 C   0  0  0  0  0  0  0  0  0  0  0  0
   46.6080   29.8420   47.1850 C   0  0  0  0  0  0  0  0  0  0  0  0
   47.7590   30.2730   47.9590 C   0  0  0  0  0  0  0  0  0  0  0  0
   48.8140   29.3790   48.1580 C   0  0  0  0  0  0  0  0  0  0  0  0
   49.9670   29.6030   48.8610 C   0  0  0  0  0  0  0  0  0  0  0  0
   50.1580   30.8210   49.4520 C   0  0  0  0  0  0  0  0  0  0  0  0
   49.1440   31.7190   49.2760 C   0  0  0  0  0  0  0  0  0  0  0  0
   48.1200   31.3350   48.5780 N   0  0  0  0  0  0  0  0  0  0  0  0
   45.3240   34.7240   44.2950 C   0  0  0  0  0  0  0  0  0  0  0  0
   44.7180   35.2310   45.2540 O   0  0  0  0  0  0  0  0  0  0  0  0
   45.1830   35.4260   43.0920 O   0  0  0  0  0  0  0  0  0  0  0  0
   44.1800   34.9860   42.1960 C   0  0  0  0  0  0  0  0  0  0  0  0
   43.4850   35.7600   41.2950 C   0  0  0  0  0  0  0  0  0  0  0  0
   42.5570   35.1400   40.5200 C   0  0  0  0  0  0  0  0  0  0  0  0
   42.3170   33.8100   40.6230 N   0  0  0  0  0  0  0  0  0  0  0  0
   43.0110   33.0630   41.5160 C   0  0  0  0  0  0  0  0  0  0  0  0
   43.9570   33.6590   42.3160 N   0  0  0  0  0  0  0  0  0  0  0  0
   42.7840   31.5870   41.6340 C   0  0  0  0  0  0  0  0  0  0  0  0
   43.7590   30.9360   42.5590 C   0  0  0  0  0  0  0  0  0  0  0  0
   41.3620   31.2770   42.0720 C   0  0  0  0  0  0  0  0  0  0  0  0
   48.8777   32.1967   43.0728 H   0  0  0  0  0  0  0  0  0  0  0  0
   48.2104   30.2806   44.5091 H   0  0  0  0  0  0  0  0  0  0  0  0
   43.9207   27.9106   46.9641 H   0  0  0  0  0  0  0  0  0  0  0  0
   46.0207   28.2294   48.5974 H   0  0  0  0  0  0  0  0  0  0  0  0
   48.7062   28.3852   47.6990 H   0  0  0  0  0  0  0  0  0  0  0  0
   50.7289   28.8145   48.9492 H   0  0  0  0  0  0  0  0  0  0  0  0
   51.0638   31.0607   50.0282 H   0  0  0  0  0  0  0  0  0  0  0  0
   49.1937   32.7288   49.7093 H   0  0  0  0  0  0  0  0  0  0  0  0
   43.6737   36.8400   41.2056 H   0  0  0  0  0  0  0  0  0  0  0  0
   41.9858   35.7327   39.7903 H   0  0  0  0  0  0  0  0  0  0  0  0
   42.9430   31.1683   40.6293 H   0  0  0  0  0  0  0  0  0  0  0  0
   43.4641   31.1329   43.6003 H   0  0  0  0  0  0  0  0  0  0  0  0
   43.7668   29.8508   42.3790 H   0  0  0  0  0  0  0  0  0  0  0  0
   44.7643   31.3447   42.3790 H   0  0  0  0  0  0  0  0  0  0  0  0
   41.3110   31.2659   43.1708 H   0  0  0  0  0  0  0  0  0  0  0  0
   40.6816   32.0479   41.6811 H   0  0  0  0  0  0  0  0  0  0  0  0
   41.0642   30.2928   41.6811 H   0  0  0  0  0  0  0  0  0  0  0  0
  1  2  2  0
  2  3  1  0
  3  7  1  0
  4  3  2  0
  5  4  1  0
  6  1  1  0
  6  5  2  0
  7 11  1  0
  8  7  1  0
  8  9  2  0
  9 10  1  0
 11 10  2  0
 11 12  1  0
 12 13  2  0
 12 17  1  0
 13 14  1  0
 14 15  2  0
 16 15  1  0
 17 16  2  0
 18  5  1  0
 18 19  2  0
 20 18  1  0
 21 26  1  0
 21 20  1  0
 22 21  2  0
 23 24  2  0
 23 22  1  0
 24 25  1  0
 25 27  1  0
 25 26  2  0
 27 29  1  0
 27 28  1  0
  1 30  1  0
  2 31  1  0
  9 32  1  0
 10 33  1  0
 13 34  1  0
 14 35  1  0
 15 36  1  0
 16 37  1  0
 22 38  1  0
 23 39  1  0
 27 40  1  0
 28 41  1  0
 28 42  1  0
 28 43  1  0
 29 44  1  0
 29 45  1  0
 29 46  1  0
M  ISO  8  30  14  31  14  32  14  33  14  34  14  35  14  36  14  37  14
M  ISO  8  38  14  39  14  40   8  41   8  42   8  43   8  44   8  45   8
M  ISO  1  46   8
M  END
>  <minimizedAffinity>  (1) 
-5.35746908

>  <minimizedRMSD>  (1) 
2.27459049

$$$$
