
     RDKit          3D

 44 47  0  0  0  0  0  0  0  0999 V2000
   47.9600   32.2470   43.7310 C   0  0  0  0  0  0  0  0  0  0  0  0
   47.5700   31.1860   44.5290 C   0  0  0  0  0  0  0  0  0  0  0  0
   46.4000   31.3000   45.2720 C   0  0  0  0  0  0  0  0  0  0  0  0
   45.6930   32.4890   45.1590 N   0  0  0  0  0  0  0  0  0  0  0  0
   46.1120   33.4990   44.3660 C   0  0  0  0  0  0  0  0  0  0  0  0
   47.2380   33.3780   43.6580 N   0  0  0  0  0  0  0  0  0  0  0  0
   45.9360   30.2680   46.1160 N   0  0  0  0  0  0  0  0  0  0  0  0
   44.8850   29.4990   45.8260 N   0  0  0  0  0  0  0  0  0  0  0  0
   44.6930   28.6210   46.8500 C   0  0  0  0  0  0  0  0  0  0  0  0
   45.6850   28.9000   47.7700 C   0  0  0  0  0  0  0  0  0  0  0  0
   46.4640   29.9420   47.2950 C   0  0  0  0  0  0  0  0  0  0  0  0
   47.5510   30.4260   48.0630 N   0  0  0  0  0  0  0  0  0  0  0  0
   47.7520   31.4680   48.8890 N   0  0  0  0  0  0  0  0  0  0  0  0
   49.0220   31.4210   49.3330 C   0  0  0  0  0  0  0  0  0  0  0  0
   49.6800   30.3310   48.7980 C   0  0  0  0  0  0  0  0  0  0  0  0
   48.7190   29.7170   47.9940 C   0  0  0  0  0  0  0  0  0  0  0  0
   45.3260   34.7210   44.2870 C   0  0  0  0  0  0  0  0  0  0  0  0
   44.7210   35.2460   45.2370 O   0  0  0  0  0  0  0  0  0  0  0  0
   45.1930   35.4150   43.0830 O   0  0  0  0  0  0  0  0  0  0  0  0
   44.1770   34.9800   42.1840 C   0  0  0  0  0  0  0  0  0  0  0  0
   43.4830   35.7570   41.2910 C   0  0  0  0  0  0  0  0  0  0  0  0
   42.5560   35.1460   40.5250 C   0  0  0  0  0  0  0  0  0  0  0  0
   42.3180   33.8290   40.6260 N   0  0  0  0  0  0  0  0  0  0  0  0
   43.0080   33.0650   41.5120 C   0  0  0  0  0  0  0  0  0  0  0  0
   43.9590   33.6490   42.3090 N   0  0  0  0  0  0  0  0  0  0  0  0
   42.7780   31.5870   41.6310 C   0  0  0  0  0  0  0  0  0  0  0  0
   43.7550   30.9340   42.5490 C   0  0  0  0  0  0  0  0  0  0  0  0
   41.3570   31.2740   42.0740 C   0  0  0  0  0  0  0  0  0  0  0  0
   48.8847   32.1625   43.1413 H   0  0  0  0  0  0  0  0  0  0  0  0
   48.1749   30.2684   44.5749 H   0  0  0  0  0  0  0  0  0  0  0  0
   43.9114   27.8509   46.9279 H   0  0  0  0  0  0  0  0  0  0  0  0
   45.8326   28.3780   48.7269 H   0  0  0  0  0  0  0  0  0  0  0  0
   49.4722   32.1484   50.0245 H   0  0  0  0  0  0  0  0  0  0  0  0
   50.7212   30.0189   48.9667 H   0  0  0  0  0  0  0  0  0  0  0  0
   48.8759   28.8058   47.3981 H   0  0  0  0  0  0  0  0  0  0  0  0
   43.6752   36.8365   41.2032 H   0  0  0  0  0  0  0  0  0  0  0  0
   41.9813   35.7414   39.8002 H   0  0  0  0  0  0  0  0  0  0  0  0
   42.9311   31.1717   40.6240 H   0  0  0  0  0  0  0  0  0  0  0  0
   43.4644   31.1282   43.5920 H   0  0  0  0  0  0  0  0  0  0  0  0
   43.7616   29.8493   42.3661 H   0  0  0  0  0  0  0  0  0  0  0  0
   44.7597   31.3428   42.3661 H   0  0  0  0  0  0  0  0  0  0  0  0
   41.3094   31.2635   43.1729 H   0  0  0  0  0  0  0  0  0  0  0  0
   40.6737   32.0432   41.6847 H   0  0  0  0  0  0  0  0  0  0  0  0
   41.0601   30.2889   41.6847 H   0  0  0  0  0  0  0  0  0  0  0  0
  1  2  2  0
  2  3  1  0
  3  7  1  0
  4  3  2  0
  5  4  1  0
  6  1  1  0
  6  5  2  0
  7 11  1  0
  8  7  1  0
  8  9  2  0
  9 10  1  0
 11 10  2  0
 11 12  1  0
 12 13  1  0
 13 14  2  0
 15 14  1  0
 16 12  1  0
 16 15  2  0
 17  5  1  0
 17 18  2  0
 19 17  1  0
 20 25  1  0
 20 19  1  0
 21 20  2  0
 22 23  2  0
 22 21  1  0
 23 24  1  0
 24 26  1  0
 24 25  2  0
 26 28  1  0
 26 27  1  0
  1 29  1  0
  2 30  1  0
  9 31  1  0
 10 32  1  0
 14 33  1  0
 15 34  1  0
 16 35  1  0
 21 36  1  0
 22 37  1  0
 26 38  1  0
 27 39  1  0
 27 40  1  0
 27 41  1  0
 28 42  1  0
 28 43  1  0
 28 44  1  0
M  ISO  8  29  14  30  14  31  14  32  14  33  14  34  14  35  14  36  14
M  ISO  8  37  14  38   8  39   8  40   8  41   8  42   8  43   8  44   8
M  END
>  <minimizedAffinity>  (1) 
-5.25746536

>  <minimizedRMSD>  (1) 
2.18553257

$$$$
