
     RDKit          3D

 39 41  0  0  0  0  0  0  0  0999 V2000
   45.8740   33.8240   44.8570 C   0  0  0  0  0  0  0  0  0  0  0  0
   45.2920   34.3070   45.8340 O   0  0  0  0  0  0  0  0  0  0  0  0
   48.0480   31.0350   43.9860 C   0  0  0  0  0  0  0  0  0  0  0  0
   47.4960   29.9720   44.6750 C   0  0  0  0  0  0  0  0  0  0  0  0
   46.3610   30.1960   45.4540 C   0  0  0  0  0  0  0  0  0  0  0  0
   45.8550   31.4950   45.4850 N   0  0  0  0  0  0  0  0  0  0  0  0
   46.4280   32.4970   44.7970 C   0  0  0  0  0  0  0  0  0  0  0  0
   47.5270   32.2700   44.0450 N   0  0  0  0  0  0  0  0  0  0  0  0
   45.7380   29.1620   46.1910 N   0  0  0  0  0  0  0  0  0  0  0  0
   44.6850   28.4860   45.7590 N   0  0  0  0  0  0  0  0  0  0  0  0
   44.3270   27.5660   46.6930 C   0  0  0  0  0  0  0  0  0  0  0  0
   45.2360   27.7310   47.7230 C   0  0  0  0  0  0  0  0  0  0  0  0
   46.1250   28.7410   47.3970 C   0  0  0  0  0  0  0  0  0  0  0  0
   47.1640   29.1370   48.2520 N   0  0  0  0  0  0  0  0  0  0  0  0
   45.9480   34.7090   43.7850 O   0  0  0  0  0  0  0  0  0  0  0  0
   44.8820   34.7160   42.8420 C   0  0  0  0  0  0  0  0  0  0  0  0
   44.3760   35.8120   42.1900 C   0  0  0  0  0  0  0  0  0  0  0  0
   43.3510   35.5860   41.3260 C   0  0  0  0  0  0  0  0  0  0  0  0
   42.8540   34.3510   41.1150 N   0  0  0  0  0  0  0  0  0  0  0  0
   43.3660   33.2880   41.7660 C   0  0  0  0  0  0  0  0  0  0  0  0
   44.4050   33.4600   42.6550 N   0  0  0  0  0  0  0  0  0  0  0  0
   42.8520   31.8960   41.5450 C   0  0  0  0  0  0  0  0  0  0  0  0
   43.4550   30.9030   42.4680 C   0  0  0  0  0  0  0  0  0  0  0  0
   41.3340   31.8380   41.6430 C   0  0  0  0  0  0  0  0  0  0  0  0
   48.9428   30.8633   43.3697 H   0  0  0  0  0  0  0  0  0  0  0  0
   47.9429   28.9690   44.6104 H   0  0  0  0  0  0  0  0  0  0  0  0
   43.4960   26.8471   46.6414 H   0  0  0  0  0  0  0  0  0  0  0  0
   45.2501   27.1495   48.6566 H   0  0  0  0  0  0  0  0  0  0  0  0
   47.2897   28.6690   49.1609 H   0  0  0  0  0  0  0  0  0  0  0  0
   47.8013   29.8958   47.9710 H   0  0  0  0  0  0  0  0  0  0  0  0
   44.7790   36.8217   42.3577 H   0  0  0  0  0  0  0  0  0  0  0  0
   42.9140   36.4368   40.7827 H   0  0  0  0  0  0  0  0  0  0  0  0
   43.1562   31.6257   40.5230 H   0  0  0  0  0  0  0  0  0  0  0  0
   43.2692   31.2090   43.5081 H   0  0  0  0  0  0  0  0  0  0  0  0
   43.0038   29.9157   42.2901 H   0  0  0  0  0  0  0  0  0  0  0  0
   44.5391   30.8481   42.2901 H   0  0  0  0  0  0  0  0  0  0  0  0
   41.0351   31.8266   42.7015 H   0  0  0  0  0  0  0  0  0  0  0  0
   40.9007   32.7202   41.1491 H   0  0  0  0  0  0  0  0  0  0  0  0
   40.9693   30.9253   41.1491 H   0  0  0  0  0  0  0  0  0  0  0  0
  1  2  2  0
  3  8  2  0
  3  4  1  0
  4  5  2  0
  5  6  1  0
  5  9  1  0
  7  1  1  0
  7  6  2  0
  8  7  1  0
  9 13  1  0
 10  9  1  0
 10 11  2  0
 11 12  1  0
 13 12  2  0
 13 14  1  0
 15  1  1  0
 16 15  1  0
 17 16  2  0
 18 17  1  0
 19 18  2  0
 19 20  1  0
 20 21  2  0
 21 16  1  0
 22 24  1  0
 22 20  1  0
 22 23  1  0
  3 25  1  0
  4 26  1  0
 11 27  1  0
 12 28  1  0
 14 29  1  0
 14 30  1  0
 17 31  1  0
 18 32  1  0
 22 33  1  0
 23 34  1  0
 23 35  1  0
 23 36  1  0
 24 37  1  0
 24 38  1  0
 24 39  1  0
M  ISO  8  25  14  26  14  27  14  28  14  31  14  32  14  33   8  34   8
M  ISO  5  35   8  36   8  37   8  38   8  39   8
M  END
>  <minimizedAffinity>  (1) 
-4.45748091

>  <minimizedRMSD>  (1) 
0.713072658

$$$$
