
     RDKit          3D

 43 46  0  0  0  0  0  0  0  0999 V2000
   45.3770   34.6410   44.3780 C   0  0  0  0  0  0  0  0  0  0  0  0
   44.7780   35.1340   45.3500 O   0  0  0  0  0  0  0  0  0  0  0  0
   47.9830   32.1630   43.7040 C   0  0  0  0  0  0  0  0  0  0  0  0
   47.6120   31.0800   44.4910 C   0  0  0  0  0  0  0  0  0  0  0  0
   46.4660   31.1950   45.2740 C   0  0  0  0  0  0  0  0  0  0  0  0
   45.7570   32.3970   45.2100 N   0  0  0  0  0  0  0  0  0  0  0  0
   46.1520   33.4230   44.4270 C   0  0  0  0  0  0  0  0  0  0  0  0
   47.2590   33.3050   43.6820 N   0  0  0  0  0  0  0  0  0  0  0  0
   46.0300   30.1410   46.1020 N   0  0  0  0  0  0  0  0  0  0  0  0
   44.8730   29.5020   45.9190 N   0  0  0  0  0  0  0  0  0  0  0  0
   44.7200   28.5420   46.8680 C   0  0  0  0  0  0  0  0  0  0  0  0
   45.8480   28.6300   47.6370 C   0  0  0  0  0  0  0  0  0  0  0  0
   46.6730   29.6560   47.1390 C   0  0  0  0  0  0  0  0  0  0  0  0
   47.9220   30.0260   47.8570 C   0  0  0  0  0  0  0  0  0  0  0  0
   47.8040   31.1120   48.8240 C   0  0  0  0  0  0  0  0  0  0  0  0
   49.4450   31.3160   49.5170 S   0  0  0  0  0  0  0  0  0  0  0  0
   50.1560   29.9220   48.4500 C   0  0  0  0  0  0  0  0  0  0  0  0
   49.1130   29.6220   47.8520 N   0  0  0  0  0  0  0  0  0  0  0  0
   45.2440   35.3710   43.1910 O   0  0  0  0  0  0  0  0  0  0  0  0
   44.2380   34.9610   42.2880 C   0  0  0  0  0  0  0  0  0  0  0  0
   43.5550   35.7620   41.4020 C   0  0  0  0  0  0  0  0  0  0  0  0
   42.6190   35.1660   40.6160 C   0  0  0  0  0  0  0  0  0  0  0  0
   42.3600   33.8440   40.6870 N   0  0  0  0  0  0  0  0  0  0  0  0
   43.0430   33.0690   41.5660 C   0  0  0  0  0  0  0  0  0  0  0  0
   44.0000   33.6400   42.3810 N   0  0  0  0  0  0  0  0  0  0  0  0
   42.7990   31.5970   41.6530 C   0  0  0  0  0  0  0  0  0  0  0  0
   43.7600   30.9140   42.5700 C   0  0  0  0  0  0  0  0  0  0  0  0
   41.3690   31.2890   42.0640 C   0  0  0  0  0  0  0  0  0  0  0  0
   48.8882   32.0898   43.0833 H   0  0  0  0  0  0  0  0  0  0  0  0
   48.2080   30.1555   44.4956 H   0  0  0  0  0  0  0  0  0  0  0  0
   43.8758   27.8475   46.9909 H   0  0  0  0  0  0  0  0  0  0  0  0
   46.0748   27.9979   48.5082 H   0  0  0  0  0  0  0  0  0  0  0  0
   46.8991   31.6849   49.0750 H   0  0  0  0  0  0  0  0  0  0  0  0
   51.1734   29.5092   48.3825 H   0  0  0  0  0  0  0  0  0  0  0  0
   43.7579   36.8409   41.3323 H   0  0  0  0  0  0  0  0  0  0  0  0
   42.0551   35.7814   39.8995 H   0  0  0  0  0  0  0  0  0  0  0  0
   42.9637   31.1990   40.6408 H   0  0  0  0  0  0  0  0  0  0  0  0
   43.4769   31.1152   43.6137 H   0  0  0  0  0  0  0  0  0  0  0  0
   43.7351   29.8298   42.3858 H   0  0  0  0  0  0  0  0  0  0  0  0
   44.7757   31.2940   42.3858 H   0  0  0  0  0  0  0  0  0  0  0  0
   41.2982   31.2737   43.1616 H   0  0  0  0  0  0  0  0  0  0  0  0
   40.6977   32.0632   41.6640 H   0  0  0  0  0  0  0  0  0  0  0  0
   41.0759   30.3071   41.6640 H   0  0  0  0  0  0  0  0  0  0  0  0
  1  7  1  0
  1  2  2  0
  3  4  2  0
  4  5  1  0
  5  9  1  0
  6  5  2  0
  7  6  1  0
  8  3  1  0
  8  7  2  0
  9 13  1  0
 10  9  1  0
 10 11  2  0
 11 12  1  0
 13 12  2  0
 13 14  1  0
 14 15  2  0
 15 16  1  0
 17 16  1  0
 18 14  1  0
 18 17  2  0
 19  1  1  0
 20 25  1  0
 20 19  1  0
 21 20  2  0
 22 23  2  0
 22 21  1  0
 23 24  1  0
 24 26  1  0
 24 25  2  0
 26 28  1  0
 26 27  1  0
  3 29  1  0
  4 30  1  0
 11 31  1  0
 12 32  1  0
 15 33  1  0
 17 34  1  0
 21 35  1  0
 22 36  1  0
 26 37  1  0
 27 38  1  0
 27 39  1  0
 27 40  1  0
 28 41  1  0
 28 42  1  0
 28 43  1  0
M  ISO  8  29  14  30  14  31  14  32  14  33  14  34  14  35  14  36  14
M  ISO  7  37   8  38   8  39   8  40   8  41   8  42   8  43   8
M  END
>  <minimizedAffinity>  (1) 
-5.12361288

>  <minimizedRMSD>  (1) 
1.88562357

$$$$
