
     RDKit          3D

 43 45  0  0  0  0  0  0  0  0999 V2000
   44.8640   35.4080   43.4090 C   0  0  0  0  0  0  0  0  0  0  0  0
   44.4130   36.2030   44.2440 O   0  0  0  0  0  0  0  0  0  0  0  0
   47.8850   33.3700   43.4700 C   0  0  0  0  0  0  0  0  0  0  0  0
   47.5300   32.3020   44.2690 C   0  0  0  0  0  0  0  0  0  0  0  0
   46.2480   32.2500   44.8090 C   0  0  0  0  0  0  0  0  0  0  0  0
   45.4130   33.3040   44.4900 N   0  0  0  0  0  0  0  0  0  0  0  0
   45.7870   34.3310   43.7090 C   0  0  0  0  0  0  0  0  0  0  0  0
   47.0240   34.3630   43.1980 N   0  0  0  0  0  0  0  0  0  0  0  0
   45.8260   31.1860   45.6360 N   0  0  0  0  0  0  0  0  0  0  0  0
   45.4550   30.0020   45.1560 N   0  0  0  0  0  0  0  0  0  0  0  0
   45.0820   29.1880   46.1630 C   0  0  0  0  0  0  0  0  0  0  0  0
   45.2480   29.9530   47.2980 C   0  0  0  0  0  0  0  0  0  0  0  0
   45.7270   31.2340   46.9640 C   0  0  0  0  0  0  0  0  0  0  0  0
   46.0230   32.2300   48.0030 C   0  0  0  0  0  0  0  0  0  0  0  0
   45.5280   31.7140   49.3650 C   0  0  0  0  0  0  0  0  0  0  0  0
   44.3970   35.6380   42.1170 O   0  0  0  0  0  0  0  0  0  0  0  0
   43.1620   35.0430   41.7450 C   0  0  0  0  0  0  0  0  0  0  0  0
   42.0200   35.7040   41.3620 C   0  0  0  0  0  0  0  0  0  0  0  0
   40.9410   34.9400   41.0440 C   0  0  0  0  0  0  0  0  0  0  0  0
   40.9840   33.5970   41.0990 N   0  0  0  0  0  0  0  0  0  0  0  0
   42.1170   32.9570   41.4780 C   0  0  0  0  0  0  0  0  0  0  0  0
   43.2340   33.6910   41.8110 N   0  0  0  0  0  0  0  0  0  0  0  0
   42.2060   31.4600   41.5300 C   0  0  0  0  0  0  0  0  0  0  0  0
   43.4330   30.9790   42.2160 C   0  0  0  0  0  0  0  0  0  0  0  0
   40.9670   30.8540   42.1740 C   0  0  0  0  0  0  0  0  0  0  0  0
   48.8991   33.4083   43.0455 H   0  0  0  0  0  0  0  0  0  0  0  0
   48.2532   31.4997   44.4771 H   0  0  0  0  0  0  0  0  0  0  0  0
   44.7260   28.1494   46.0950 H   0  0  0  0  0  0  0  0  0  0  0  0
   45.0358   29.6103   48.3215 H   0  0  0  0  0  0  0  0  0  0  0  0
   47.1087   32.4008   48.0483 H   0  0  0  0  0  0  0  0  0  0  0  0
   45.5127   33.1741   47.7615 H   0  0  0  0  0  0  0  0  0  0  0  0
   46.0457   32.2536   50.1717 H   0  0  0  0  0  0  0  0  0  0  0  0
   44.4440   31.8814   49.4486 H   0  0  0  0  0  0  0  0  0  0  0  0
   45.7403   30.6379   49.4486 H   0  0  0  0  0  0  0  0  0  0  0  0
   41.9803   36.8023   41.3147 H   0  0  0  0  0  0  0  0  0  0  0  0
   40.0083   35.4336   40.7335 H   0  0  0  0  0  0  0  0  0  0  0  0
   42.2643   31.1210   40.4852 H   0  0  0  0  0  0  0  0  0  0  0  0
   43.2900   31.0351   43.3052 H   0  0  0  0  0  0  0  0  0  0  0  0
   43.6309   29.9367   41.9253 H   0  0  0  0  0  0  0  0  0  0  0  0
   44.2865   31.6091   41.9253 H   0  0  0  0  0  0  0  0  0  0  0  0
   41.0627   30.9008   43.2688 H   0  0  0  0  0  0  0  0  0  0  0  0
   40.0769   31.4184   41.8593 H   0  0  0  0  0  0  0  0  0  0  0  0
   40.8661   29.8048   41.8593 H   0  0  0  0  0  0  0  0  0  0  0  0
  1  7  1  0
  1  2  2  0
  3  4  2  0
  4  5  1  0
  5  9  1  0
  6  5  2  0
  7  6  1  0
  8  3  1  0
  8  7  2  0
  9 13  1  0
 10  9  1  0
 10 11  2  0
 11 12  1  0
 13 12  2  0
 13 14  1  0
 14 15  1  0
 16  1  1  0
 17 22  1  0
 17 16  1  0
 18 17  2  0
 19 20  2  0
 19 18  1  0
 20 21  1  0
 21 23  1  0
 21 22  2  0
 23 25  1  0
 23 24  1  0
  3 26  1  0
  4 27  1  0
 11 28  1  0
 12 29  1  0
 14 30  1  0
 14 31  1  0
 15 32  1  0
 15 33  1  0
 15 34  1  0
 18 35  1  0
 19 36  1  0
 23 37  1  0
 24 38  1  0
 24 39  1  0
 24 40  1  0
 25 41  1  0
 25 42  1  0
 25 43  1  0
M  ISO  8  26  14  27  14  28  14  29  14  30   8  31   8  32   8  33   8
M  ISO  8  34   8  35  14  36  14  37   8  38   8  39   8  40   8  41   8
M  ISO  2  42   8  43   8
M  END
>  <minimizedAffinity>  (1) 
-5.16738987

>  <minimizedRMSD>  (1) 
2.61225748

$$$$
