
     RDKit          3D

 24 25  0  0  0  0  0  0  0  0999 V2000
   45.7410   33.5930   41.7480 C   0  0  0  0  0  0  0  0  0  0  0  0
   45.3620   34.2700   42.9980 C   0  0  0  0  0  0  0  0  0  0  0  0
   45.6840   33.5120   44.1470 C   0  0  0  0  0  0  0  0  0  0  0  0
   45.3870   34.0110   45.4130 C   0  0  0  0  0  0  0  0  0  0  0  0
   44.7930   35.2210   45.4630 N   0  0  0  0  0  0  0  0  0  0  0  0
   44.4920   35.9330   44.3540 C   0  0  0  0  0  0  0  0  0  0  0  0
   44.7710   35.4670   43.1430 N   0  0  0  0  0  0  0  0  0  0  0  0
   46.7890   34.3980   40.9940 C   0  0  0  0  0  0  0  0  0  0  0  0
   48.1530   34.2040   41.4930 C   0  0  0  0  0  0  0  0  0  0  0  0
   48.7470   32.9720   41.2030 C   0  0  0  0  0  0  0  0  0  0  0  0
   50.0330   32.6680   41.6200 C   0  0  0  0  0  0  0  0  0  0  0  0
   50.7160   33.5850   42.3190 N   0  0  0  0  0  0  0  0  0  0  0  0
   50.1240   34.7730   42.5920 C   0  0  0  0  0  0  0  0  0  0  0  0
   48.8820   35.0890   42.1980 N   0  0  0  0  0  0  0  0  0  0  0  0
   46.1509   32.6002   41.9855 H   0  0  0  0  0  0  0  0  0  0  0  0
   44.8471   33.4965   41.1142 H   0  0  0  0  0  0  0  0  0  0  0  0
   46.1682   32.5300   44.0414 H   0  0  0  0  0  0  0  0  0  0  0  0
   45.6250   33.4464   46.3266 H   0  0  0  0  0  0  0  0  0  0  0  0
   44.0076   36.9152   44.4570 H   0  0  0  0  0  0  0  0  0  0  0  0
   46.5360   35.4650   41.0810 H   0  0  0  0  0  0  0  0  0  0  0  0
   46.7753   34.0467   39.9517 H   0  0  0  0  0  0  0  0  0  0  0  0
   48.1790   32.2250   40.6292 H   0  0  0  0  0  0  0  0  0  0  0  0
   50.4843   31.6935   41.3820 H   0  0  0  0  0  0  0  0  0  0  0  0
   50.6929   35.5180   43.1677 H   0  0  0  0  0  0  0  0  0  0  0  0
  1  2  1  0
  2  7  1  0
  2  3  2  0
  3  4  1  0
  4  5  2  0
  6  5  1  0
  7  6  2  0
  8  9  1  0
  8  1  1  0
  9 14  1  0
 10  9  2  0
 10 11  1  0
 11 12  2  0
 12 13  1  0
 14 13  2  0
  1 15  1  0
  1 16  1  0
  3 17  1  0
  4 18  1  0
  6 19  1  0
  8 20  1  0
  8 21  1  0
 10 22  1  0
 11 23  1  0
 13 24  1  0
M  ISO  8  15   8  16   8  17  14  18  14  19  14  20   8  21   8  22  14
M  ISO  2  23  14  24  14
M  END
>  <minimizedAffinity>  (1) 
-4.0623641

>  <minimizedRMSD>  (1) 
3.76916409

$$$$
