
     RDKit          3D

 20 21  0  0  0  0  0  0  0  0999 V2000
   45.8640   34.2300   41.9120 C   0  0  0  0  0  0  0  0  0  0  0  0
   45.1390   33.4960   41.0000 C   0  0  0  0  0  0  0  0  0  0  0  0
   45.8920   33.4210   39.8380 C   0  0  0  0  0  0  0  0  0  0  0  0
   47.0250   34.1120   40.1100 N   0  0  0  0  0  0  0  0  0  0  0  0
   47.0180   34.5930   41.3310 N   0  0  0  0  0  0  0  0  0  0  0  0
   44.4250   35.9720   44.8760 C   0  0  0  0  0  0  0  0  0  0  0  0
   44.7830   35.7320   43.5210 C   0  0  0  0  0  0  0  0  0  0  0  0
   45.4610   34.5560   43.2540 C   0  0  0  0  0  0  0  0  0  0  0  0
   45.7460   33.7010   44.2780 N   0  0  0  0  0  0  0  0  0  0  0  0
   45.3850   33.9670   45.5630 C   0  0  0  0  0  0  0  0  0  0  0  0
   44.7300   35.0930   45.8560 N   0  0  0  0  0  0  0  0  0  0  0  0
   48.1390   34.3130   39.1780 C   0  0  0  0  0  0  0  0  0  0  0  0
   48.7960   35.4730   39.5110 F   0  0  0  0  0  0  0  0  0  0  0  0
   47.7070   34.3810   37.8760 F   0  0  0  0  0  0  0  0  0  0  0  0
   49.0230   33.2280   39.2580 F   0  0  0  0  0  0  0  0  0  0  0  0
   44.1462   33.0514   41.1631 H   0  0  0  0  0  0  0  0  0  0  0  0
   45.6271   32.9115   38.8998 H   0  0  0  0  0  0  0  0  0  0  0  0
   43.8864   36.8961   45.1329 H   0  0  0  0  0  0  0  0  0  0  0  0
   44.5329   36.4470   42.7234 H   0  0  0  0  0  0  0  0  0  0  0  0
   45.6334   33.2528   46.3619 H   0  0  0  0  0  0  0  0  0  0  0  0
  1  8  1  0
  2  1  1  0
  3  4  1  0
  3  2  2  0
  4  5  1  0
  5  1  2  0
  6 11  2  0
  7  6  1  0
  8  7  2  0
  8  9  1  0
  9 10  2  0
 10 11  1  0
 12 15  1  0
 12 13  1  0
 12  4  1  0
 14 12  1  0
  2 16  1  0
  3 17  1  0
  6 18  1  0
  7 19  1  0
 10 20  1  0
M  ISO  5  16  14  17  14  18  14  19  14  20  14
M  END
>  <minimizedAffinity>  (1) 
-4.49908733

>  <minimizedRMSD>  (1) 
1.9069401

$$$$
