
     RDKit          3D

 30 32  0  0  0  0  0  0  0  0999 V2000
   44.4150   35.8540   44.7040 C   0  0  0  0  0  0  0  0  0  0  0  0
   44.7560   35.6000   43.3520 C   0  0  0  0  0  0  0  0  0  0  0  0
   45.4880   34.4770   43.0540 C   0  0  0  0  0  0  0  0  0  0  0  0
   45.8560   33.6550   44.0720 N   0  0  0  0  0  0  0  0  0  0  0  0
   45.5220   33.9100   45.3690 C   0  0  0  0  0  0  0  0  0  0  0  0
   44.8100   34.9980   45.6750 N   0  0  0  0  0  0  0  0  0  0  0  0
   45.9410   33.0020   46.4070 N   0  0  0  0  0  0  0  0  0  0  0  0
   45.3330   33.2290   47.5860 C   0  0  0  0  0  0  0  0  0  0  0  0
   45.6750   32.4000   48.6480 C   0  0  0  0  0  0  0  0  0  0  0  0
   46.6130   31.3990   48.4260 C   0  0  0  0  0  0  0  0  0  0  0  0
   46.9390   30.6340   49.3750 O   0  0  0  0  0  0  0  0  0  0  0  0
   47.1640   31.2590   47.1960 N   0  0  0  0  0  0  0  0  0  0  0  0
   46.8410   32.0580   46.1510 C   0  0  0  0  0  0  0  0  0  0  0  0
   47.3250   31.9580   45.0100 O   0  0  0  0  0  0  0  0  0  0  0  0
   45.8610   34.1730   41.7020 C   0  0  0  0  0  0  0  0  0  0  0  0
   45.1110   33.4930   40.7790 C   0  0  0  0  0  0  0  0  0  0  0  0
   45.8400   33.4200   39.6040 C   0  0  0  0  0  0  0  0  0  0  0  0
   47.0040   34.0680   39.8880 N   0  0  0  0  0  0  0  0  0  0  0  0
   47.0220   34.5110   41.1140 N   0  0  0  0  0  0  0  0  0  0  0  0
   48.1090   34.2540   38.9480 C   0  0  0  0  0  0  0  0  0  0  0  0
   48.7860   35.4110   39.2720 F   0  0  0  0  0  0  0  0  0  0  0  0
   47.6700   34.3210   37.6430 F   0  0  0  0  0  0  0  0  0  0  0  0
   48.9900   33.1640   39.0310 F   0  0  0  0  0  0  0  0  0  0  0  0
   43.8288   36.7476   44.9643 H   0  0  0  0  0  0  0  0  0  0  0  0
   44.4400   36.2900   42.5557 H   0  0  0  0  0  0  0  0  0  0  0  0
   44.5960   34.0370   47.7043 H   0  0  0  0  0  0  0  0  0  0  0  0
   45.2151   32.5328   49.6384 H   0  0  0  0  0  0  0  0  0  0  0  0
   47.8585   30.5127   47.0493 H   0  0  0  0  0  0  0  0  0  0  0  0
   44.1056   33.0777   40.9427 H   0  0  0  0  0  0  0  0  0  0  0  0
   45.5458   32.9461   38.6559 H   0  0  0  0  0  0  0  0  0  0  0  0
  1  6  2  0
  2  1  1  0
  3  2  2  0
  3  4  1  0
  4  5  2  0
  5  6  1  0
  5  7  1  0
  7  8  1  0
  8  9  2  0
 10  9  1  0
 10 11  2  0
 12 10  1  0
 13  7  1  0
 13 12  1  0
 14 13  2  0
 15  3  1  0
 16 15  1  0
 17 18  1  0
 17 16  2  0
 18 19  1  0
 19 15  2  0
 20 23  1  0
 20 21  1  0
 20 18  1  0
 22 20  1  0
  1 24  1  0
  2 25  1  0
  8 26  1  0
  9 27  1  0
 12 28  1  0
 16 29  1  0
 17 30  1  0
M  ISO  7  24  14  25  14  26  14  27  14  28   9  29  14  30  14
M  END
>  <minimizedAffinity>  (1) 
-6.44796324

>  <minimizedRMSD>  (1) 
0.288173944

$$$$
