
     RDKit          3D

 30 32  0  0  0  0  0  0  0  0999 V2000
   44.3900   35.8090   44.9940 C   0  0  0  0  0  0  0  0  0  0  0  0
   44.7330   35.6040   43.6320 C   0  0  0  0  0  0  0  0  0  0  0  0
   45.4820   34.4880   43.3350 C   0  0  0  0  0  0  0  0  0  0  0  0
   45.8580   33.6390   44.3360 N   0  0  0  0  0  0  0  0  0  0  0  0
   45.5070   33.8700   45.6360 C   0  0  0  0  0  0  0  0  0  0  0  0
   44.7770   34.9530   45.9530 N   0  0  0  0  0  0  0  0  0  0  0  0
   45.9220   32.9470   46.6870 C   0  0  0  0  0  0  0  0  0  0  0  0
   45.1780   32.8240   47.8410 C   0  0  0  0  0  0  0  0  0  0  0  0
   45.5180   31.9680   48.8710 C   0  0  0  0  0  0  0  0  0  0  0  0
   46.6680   31.1980   48.7250 C   0  0  0  0  0  0  0  0  0  0  0  0
   47.4060   31.3280   47.5670 C   0  0  0  0  0  0  0  0  0  0  0  0
   47.0610   32.1880   46.5370 C   0  0  0  0  0  0  0  0  0  0  0  0
   45.8720   34.2070   41.9870 C   0  0  0  0  0  0  0  0  0  0  0  0
   45.1170   33.5250   41.0480 C   0  0  0  0  0  0  0  0  0  0  0  0
   45.8470   33.4650   39.8770 C   0  0  0  0  0  0  0  0  0  0  0  0
   47.0100   34.1170   40.1690 N   0  0  0  0  0  0  0  0  0  0  0  0
   47.0360   34.5560   41.4050 N   0  0  0  0  0  0  0  0  0  0  0  0
   48.1210   34.3170   39.2280 C   0  0  0  0  0  0  0  0  0  0  0  0
   48.7740   35.4780   39.5660 F   0  0  0  0  0  0  0  0  0  0  0  0
   47.6940   34.3910   37.9300 F   0  0  0  0  0  0  0  0  0  0  0  0
   49.0040   33.2370   39.3080 F   0  0  0  0  0  0  0  0  0  0  0  0
   43.7927   36.6904   45.2703 H   0  0  0  0  0  0  0  0  0  0  0  0
   44.4141   36.3065   42.8479 H   0  0  0  0  0  0  0  0  0  0  0  0
   44.2704   33.4365   47.9469 H   0  0  0  0  0  0  0  0  0  0  0  0
   44.8992   31.8974   49.7777 H   0  0  0  0  0  0  0  0  0  0  0  0
   46.9816   30.5008   49.5159 H   0  0  0  0  0  0  0  0  0  0  0  0
   48.3145   30.7179   47.4556 H   0  0  0  0  0  0  0  0  0  0  0  0
   47.6771   32.2621   45.6287 H   0  0  0  0  0  0  0  0  0  0  0  0
   44.1128   33.1050   41.2066 H   0  0  0  0  0  0  0  0  0  0  0  0
   45.5567   32.9975   38.9245 H   0  0  0  0  0  0  0  0  0  0  0  0
  1  6  2  0
  2  1  1  0
  3  2  2  0
  3  4  1  0
  4  5  2  0
  5  6  1  0
  5  7  1  0
  7  8  2  0
  8  9  1  0
 10  9  2  0
 11 10  1  0
 12  7  1  0
 12 11  2  0
 13  3  1  0
 14 13  1  0
 15 16  1  0
 15 14  2  0
 16 17  1  0
 17 13  2  0
 18 21  1  0
 18 19  1  0
 18 16  1  0
 20 18  1  0
  1 22  1  0
  2 23  1  0
  8 24  1  0
  9 25  1  0
 10 26  1  0
 11 27  1  0
 12 28  1  0
 14 29  1  0
 15 30  1  0
M  ISO  8  22  14  23  14  24  14  25  14  26  14  27  14  28  14  29  14
M  ISO  1  30  14
M  END
>  <minimizedAffinity>  (1) 
-6.25368786

>  <minimizedRMSD>  (1) 
0.210326701

$$$$
