
     RDKit          3D

 28 30  0  0  0  0  0  0  0  0999 V2000
   44.3970   35.9110   44.9090 C   0  0  0  0  0  0  0  0  0  0  0  0
   44.7470   35.6850   43.5480 C   0  0  0  0  0  0  0  0  0  0  0  0
   45.4700   34.5500   43.2700 C   0  0  0  0  0  0  0  0  0  0  0  0
   45.7970   33.7310   44.3000 N   0  0  0  0  0  0  0  0  0  0  0  0
   45.4550   33.9640   45.5900 C   0  0  0  0  0  0  0  0  0  0  0  0
   44.7550   35.0550   45.8890 N   0  0  0  0  0  0  0  0  0  0  0  0
   45.8720   34.2300   41.9330 C   0  0  0  0  0  0  0  0  0  0  0  0
   45.1290   33.4930   41.0220 C   0  0  0  0  0  0  0  0  0  0  0  0
   45.8830   33.4200   39.8550 C   0  0  0  0  0  0  0  0  0  0  0  0
   47.0130   34.1010   40.1230 N   0  0  0  0  0  0  0  0  0  0  0  0
   47.0150   34.5820   41.3450 N   0  0  0  0  0  0  0  0  0  0  0  0
   48.1290   34.3070   39.1940 C   0  0  0  0  0  0  0  0  0  0  0  0
   48.7820   35.4660   39.5180 F   0  0  0  0  0  0  0  0  0  0  0  0
   47.7000   34.3690   37.8940 F   0  0  0  0  0  0  0  0  0  0  0  0
   49.0180   33.2130   39.2720 F   0  0  0  0  0  0  0  0  0  0  0  0
   45.8840   32.9860   46.5810 C   0  0  0  0  0  0  0  0  0  0  0  0
   46.9770   32.1690   46.3790 C   0  0  0  0  0  0  0  0  0  0  0  0
   47.3270   31.2660   47.3620 C   0  0  0  0  0  0  0  0  0  0  0  0
   46.5990   31.1990   48.4890 N   0  0  0  0  0  0  0  0  0  0  0  0
   45.5270   31.9900   48.7000 C   0  0  0  0  0  0  0  0  0  0  0  0
   45.1840   32.8840   47.7270 N   0  0  0  0  0  0  0  0  0  0  0  0
   43.8180   36.8093   45.1696 H   0  0  0  0  0  0  0  0  0  0  0  0
   44.4520   36.3873   42.7544 H   0  0  0  0  0  0  0  0  0  0  0  0
   44.1355   33.0516   41.1900 H   0  0  0  0  0  0  0  0  0  0  0  0
   45.6138   32.9147   38.9157 H   0  0  0  0  0  0  0  0  0  0  0  0
   47.5604   32.2363   45.4489 H   0  0  0  0  0  0  0  0  0  0  0  0
   48.1959   30.6058   47.2237 H   0  0  0  0  0  0  0  0  0  0  0  0
   44.9451   31.9167   49.6306 H   0  0  0  0  0  0  0  0  0  0  0  0
  1  6  2  0
  2  1  1  0
  3  2  2  0
  3  4  1  0
  4  5  2  0
  5  6  1  0
  5 16  1  0
  7  3  1  0
  8  7  1  0
  9 10  1  0
  9  8  2  0
 10 11  1  0
 11  7  2  0
 12 15  1  0
 12 13  1  0
 12 10  1  0
 14 12  1  0
 16 21  1  0
 17 16  2  0
 17 18  1  0
 18 19  2  0
 19 20  1  0
 21 20  2  0
  1 22  1  0
  2 23  1  0
  8 24  1  0
  9 25  1  0
 17 26  1  0
 18 27  1  0
 20 28  1  0
M  ISO  7  22  14  23  14  24  14  25  14  26  14  27  14  28  14
M  END
>  <minimizedAffinity>  (1) 
-5.9784317

>  <minimizedRMSD>  (1) 
0.487751395

$$$$
