
     RDKit          3D

 27 29  0  0  0  0  0  0  0  0999 V2000
   44.3590   36.1180   44.7690 C   0  0  0  0  0  0  0  0  0  0  0  0
   44.7450   35.8180   43.4320 C   0  0  0  0  0  0  0  0  0  0  0  0
   45.4440   34.6300   43.2360 C   0  0  0  0  0  0  0  0  0  0  0  0
   45.7220   33.8290   44.2900 N   0  0  0  0  0  0  0  0  0  0  0  0
   45.3350   34.1520   45.5610 C   0  0  0  0  0  0  0  0  0  0  0  0
   44.6560   35.2930   45.7870 N   0  0  0  0  0  0  0  0  0  0  0  0
   45.8670   34.2550   41.9150 C   0  0  0  0  0  0  0  0  0  0  0  0
   45.1660   33.4350   41.0470 C   0  0  0  0  0  0  0  0  0  0  0  0
   45.9220   33.3280   39.8810 C   0  0  0  0  0  0  0  0  0  0  0  0
   47.0240   34.0810   40.1130 N   0  0  0  0  0  0  0  0  0  0  0  0
   46.9940   34.6280   41.3090 N   0  0  0  0  0  0  0  0  0  0  0  0
   48.1260   34.2810   39.1690 C   0  0  0  0  0  0  0  0  0  0  0  0
   48.7750   35.4370   39.4870 F   0  0  0  0  0  0  0  0  0  0  0  0
   47.6880   34.3250   37.8750 F   0  0  0  0  0  0  0  0  0  0  0  0
   49.0060   33.1840   39.2480 F   0  0  0  0  0  0  0  0  0  0  0  0
   45.7170   33.1750   46.5810 C   0  0  0  0  0  0  0  0  0  0  0  0
   46.8870   32.4320   46.3980 C   0  0  0  0  0  0  0  0  0  0  0  0
   46.9940   31.5990   47.5110 C   0  0  0  0  0  0  0  0  0  0  0  0
   45.8780   31.8890   48.3010 C   0  0  0  0  0  0  0  0  0  0  0  0
   45.1500   32.8250   47.7180 O   0  0  0  0  0  0  0  0  0  0  0  0
   43.8051   37.0462   44.9732 H   0  0  0  0  0  0  0  0  0  0  0  0
   44.5032   36.4908   42.5960 H   0  0  0  0  0  0  0  0  0  0  0  0
   44.1943   32.9574   41.2413 H   0  0  0  0  0  0  0  0  0  0  0  0
   45.6777   32.7578   38.9726 H   0  0  0  0  0  0  0  0  0  0  0  0
   47.5825   32.4923   45.5479 H   0  0  0  0  0  0  0  0  0  0  0  0
   47.7885   30.8683   47.7226 H   0  0  0  0  0  0  0  0  0  0  0  0
   45.6415   31.4103   49.2627 H   0  0  0  0  0  0  0  0  0  0  0  0
  1  6  2  0
  2  1  1  0
  3  2  2  0
  3  4  1  0
  4  5  2  0
  5  6  1  0
  5 16  1  0
  7  3  1  0
  8  7  1  0
  9 10  1  0
  9  8  2  0
 10 11  1  0
 11  7  2  0
 12 15  1  0
 12 13  1  0
 12 10  1  0
 14 12  1  0
 16 20  1  0
 17 16  2  0
 17 18  1  0
 18 19  2  0
 20 19  1  0
  1 21  1  0
  2 22  1  0
  8 23  1  0
  9 24  1  0
 17 25  1  0
 18 26  1  0
 19 27  1  0
M  ISO  7  21  14  22  14  23  14  24  14  25  14  26  14  27  14
M  END
>  <minimizedAffinity>  (1) 
-5.72612

>  <minimizedRMSD>  (1) 
0.553729653

$$$$
