
     RDKit          3D

 27 29  0  0  0  0  0  0  0  0999 V2000
   44.3510   36.0550   44.8620 C   0  0  0  0  0  0  0  0  0  0  0  0
   44.7160   35.7860   43.5180 C   0  0  0  0  0  0  0  0  0  0  0  0
   45.4160   34.6290   43.2780 C   0  0  0  0  0  0  0  0  0  0  0  0
   45.7110   33.8220   44.3280 N   0  0  0  0  0  0  0  0  0  0  0  0
   45.3560   34.0900   45.6060 C   0  0  0  0  0  0  0  0  0  0  0  0
   44.6710   35.2180   45.8610 N   0  0  0  0  0  0  0  0  0  0  0  0
   45.7690   33.1090   46.5490 N   0  0  0  0  0  0  0  0  0  0  0  0
   45.2880   32.6910   47.7160 N   0  0  0  0  0  0  0  0  0  0  0  0
   46.0870   31.7100   48.2070 C   0  0  0  0  0  0  0  0  0  0  0  0
   47.1130   31.5220   47.2810 C   0  0  0  0  0  0  0  0  0  0  0  0
   46.8900   32.4220   46.2360 C   0  0  0  0  0  0  0  0  0  0  0  0
   45.8340   34.2630   41.9430 C   0  0  0  0  0  0  0  0  0  0  0  0
   45.1400   33.4890   41.0570 C   0  0  0  0  0  0  0  0  0  0  0  0
   45.8980   33.3930   39.9070 C   0  0  0  0  0  0  0  0  0  0  0  0
   47.0080   34.1080   40.1520 N   0  0  0  0  0  0  0  0  0  0  0  0
   46.9820   34.6330   41.3630 N   0  0  0  0  0  0  0  0  0  0  0  0
   48.1230   34.3050   39.2250 C   0  0  0  0  0  0  0  0  0  0  0  0
   48.7870   35.4670   39.5600 F   0  0  0  0  0  0  0  0  0  0  0  0
   47.6980   34.3590   37.9250 F   0  0  0  0  0  0  0  0  0  0  0  0
   49.0130   33.2130   39.3230 F   0  0  0  0  0  0  0  0  0  0  0  0
   43.7911   36.9736   45.0914 H   0  0  0  0  0  0  0  0  0  0  0  0
   44.4498   36.4747   42.7027 H   0  0  0  0  0  0  0  0  0  0  0  0
   45.9514   31.1670   49.1540 H   0  0  0  0  0  0  0  0  0  0  0  0
   47.9407   30.8017   47.3588 H   0  0  0  0  0  0  0  0  0  0  0  0
   47.5068   32.5471   45.3339 H   0  0  0  0  0  0  0  0  0  0  0  0
   44.1567   33.0266   41.2284 H   0  0  0  0  0  0  0  0  0  0  0  0
   45.6462   32.8469   38.9859 H   0  0  0  0  0  0  0  0  0  0  0  0
  1  6  2  0
  2  1  1  0
  3  2  2  0
  3  4  1  0
  4  5  2  0
  5  6  1  0
  5  7  1  0
  7  8  1  0
  8  9  2  0
 10  9  1  0
 11  7  1  0
 11 10  2  0
 12  3  1  0
 13 12  1  0
 14 15  1  0
 14 13  2  0
 15 16  1  0
 16 12  2  0
 17 20  1  0
 17 18  1  0
 17 15  1  0
 19 17  1  0
  1 21  1  0
  2 22  1  0
  9 23  1  0
 10 24  1  0
 11 25  1  0
 13 26  1  0
 14 27  1  0
M  ISO  7  21  14  22  14  23  14  24  14  25  14  26  14  27  14
M  END
>  <minimizedAffinity>  (1) 
-5.95287848

>  <minimizedRMSD>  (1) 
0.13469927

$$$$
