
     RDKit          3D

 29 30  0  0  0  0  0  0  0  0999 V2000
   46.2090   34.3050   43.5240 C   0  0  0  0  0  0  0  0  0  0  0  0
   45.4490   34.2330   42.3900 C   0  0  0  0  0  0  0  0  0  0  0  0
   46.2750   34.5620   41.3280 C   0  0  0  0  0  0  0  0  0  0  0  0
   47.4820   34.8140   41.8730 N   0  0  0  0  0  0  0  0  0  0  0  0
   47.4600   34.6660   43.1720 N   0  0  0  0  0  0  0  0  0  0  0  0
   44.4850   34.5470   46.8190 C   0  0  0  0  0  0  0  0  0  0  0  0
   44.8660   34.8700   45.4980 C   0  0  0  0  0  0  0  0  0  0  0  0
   45.7690   34.0420   44.8740 C   0  0  0  0  0  0  0  0  0  0  0  0
   46.2430   32.9720   45.5490 N   0  0  0  0  0  0  0  0  0  0  0  0
   45.8600   32.6840   46.8210 C   0  0  0  0  0  0  0  0  0  0  0  0
   44.9830   33.4690   47.4550 N   0  0  0  0  0  0  0  0  0  0  0  0
   46.4160   31.5050   47.4930 C   0  0  0  0  0  0  0  0  0  0  0  0
   47.6580   31.9750   48.2490 C   0  0  0  0  0  0  0  0  0  0  0  0
   45.4840   30.7870   48.4090 C   0  0  0  0  0  0  0  0  0  0  0  0
   48.6930   35.2080   41.1340 C   0  0  0  0  0  0  0  0  0  0  0  0
   49.1210   36.4210   41.5850 F   0  0  0  0  0  0  0  0  0  0  0  0
   48.4670   35.2430   39.7840 F   0  0  0  0  0  0  0  0  0  0  0  0
   49.6890   34.2360   41.3360 F   0  0  0  0  0  0  0  0  0  0  0  0
   44.3838   33.9647   42.3320 H   0  0  0  0  0  0  0  0  0  0  0  0
   46.0031   34.6080   40.2631 H   0  0  0  0  0  0  0  0  0  0  0  0
   43.7634   35.1920   47.3417 H   0  0  0  0  0  0  0  0  0  0  0  0
   44.4549   35.7528   44.9864 H   0  0  0  0  0  0  0  0  0  0  0  0
   46.6434   30.7565   46.7197 H   0  0  0  0  0  0  0  0  0  0  0  0
   47.4761   31.9062   49.3317 H   0  0  0  0  0  0  0  0  0  0  0  0
   48.5138   31.3386   47.9798 H   0  0  0  0  0  0  0  0  0  0  0  0
   47.8781   33.0186   47.9798 H   0  0  0  0  0  0  0  0  0  0  0  0
   45.7595   30.9993   49.4526 H   0  0  0  0  0  0  0  0  0  0  0  0
   44.4543   31.1275   48.2251 H   0  0  0  0  0  0  0  0  0  0  0  0
   45.5506   29.7045   48.2251 H   0  0  0  0  0  0  0  0  0  0  0  0
  1  8  1  0
  2  1  1  0
  3  4  1  0
  3  2  2  0
  4  5  1  0
  5  1  2  0
  6 11  2  0
  7  6  1  0
  8  7  2  0
  8  9  1  0
  9 10  2  0
 10 11  1  0
 10 12  1  0
 12 13  1  0
 12 14  1  0
 15 18  1  0
 15 16  1  0
 15  4  1  0
 17 15  1  0
  2 19  1  0
  3 20  1  0
  6 21  1  0
  7 22  1  0
 12 23  1  0
 13 24  1  0
 13 25  1  0
 13 26  1  0
 14 27  1  0
 14 28  1  0
 14 29  1  0
M  ISO  8  19  14  20  14  21  14  22  14  23   8  24   8  25   8  26   8
M  ISO  3  27   8  28   8  29   8
M  END
>  <minimizedAffinity>  (1) 
-5.21134138

>  <minimizedRMSD>  (1) 
2.04018378

$$$$
