
     RDKit          3D

 32 33  0  0  0  0  0  0  0  0999 V2000
   44.5700   34.3360   46.9330 C   0  0  0  0  0  0  0  0  0  0  0  0
   44.9300   34.7230   45.6180 C   0  0  0  0  0  0  0  0  0  0  0  0
   45.8520   33.9440   44.9640 C   0  0  0  0  0  0  0  0  0  0  0  0
   46.3650   32.8590   45.5940 N   0  0  0  0  0  0  0  0  0  0  0  0
   46.0060   32.5090   46.8500 C   0  0  0  0  0  0  0  0  0  0  0  0
   45.1190   33.2370   47.5170 N   0  0  0  0  0  0  0  0  0  0  0  0
   46.2760   34.2670   43.6180 C   0  0  0  0  0  0  0  0  0  0  0  0
   45.4940   34.2720   42.4920 C   0  0  0  0  0  0  0  0  0  0  0  0
   46.3050   34.6380   41.4310 C   0  0  0  0  0  0  0  0  0  0  0  0
   47.5410   34.8370   41.9730 N   0  0  0  0  0  0  0  0  0  0  0  0
   47.5230   34.6200   43.2590 N   0  0  0  0  0  0  0  0  0  0  0  0
   48.7370   35.2410   41.2310 C   0  0  0  0  0  0  0  0  0  0  0  0
   49.1480   36.4650   41.6930 F   0  0  0  0  0  0  0  0  0  0  0  0
   48.5060   35.2960   39.8840 F   0  0  0  0  0  0  0  0  0  0  0  0
   49.7570   34.2960   41.4470 F   0  0  0  0  0  0  0  0  0  0  0  0
   46.6610   31.2960   47.3960 C   0  0  0  0  0  0  0  0  0  0  0  0
   45.6160   30.3320   47.9640 C   0  0  0  0  0  0  0  0  0  0  0  0
   47.4450   30.5530   46.3390 C   0  0  0  0  0  0  0  0  0  0  0  0
   47.6080   31.6080   48.5360 C   0  0  0  0  0  0  0  0  0  0  0  0
   43.8344   34.9343   47.4906 H   0  0  0  0  0  0  0  0  0  0  0  0
   44.4889   35.6107   45.1412 H   0  0  0  0  0  0  0  0  0  0  0  0
   44.4221   34.0303   42.4409 H   0  0  0  0  0  0  0  0  0  0  0  0
   46.0144   34.7454   40.3755 H   0  0  0  0  0  0  0  0  0  0  0  0
   45.6485   30.3620   49.0631 H   0  0  0  0  0  0  0  0  0  0  0  0
   44.6153   30.6308   47.6185 H   0  0  0  0  0  0  0  0  0  0  0  0
   45.8333   29.3105   47.6185 H   0  0  0  0  0  0  0  0  0  0  0  0
   48.1617   29.8738   46.8238 H   0  0  0  0  0  0  0  0  0  0  0  0
   46.7542   29.9703   45.7119 H   0  0  0  0  0  0  0  0  0  0  0  0
   47.9898   31.2741   45.7119 H   0  0  0  0  0  0  0  0  0  0  0  0
   47.0958   31.4393   49.4948 H   0  0  0  0  0  0  0  0  0  0  0  0
   48.4890   30.9526   48.4706 H   0  0  0  0  0  0  0  0  0  0  0  0
   47.9269   32.6587   48.4706 H   0  0  0  0  0  0  0  0  0  0  0  0
  1  6  2  0
  2  1  1  0
  3  4  1  0
  3  2  2  0
  4  5  2  0
  5 16  1  0
  5  6  1  0
  7  3  1  0
  8  7  1  0
  9 10  1  0
  9  8  2  0
 10 11  1  0
 11  7  2  0
 12 15  1  0
 12 13  1  0
 12 10  1  0
 14 12  1  0
 16 17  1  0
 16 19  1  0
 18 16  1  0
  1 20  1  0
  2 21  1  0
  8 22  1  0
  9 23  1  0
 17 24  1  0
 17 25  1  0
 17 26  1  0
 18 27  1  0
 18 28  1  0
 18 29  1  0
 19 30  1  0
 19 31  1  0
 19 32  1  0
M  ISO  8  20  14  21  14  22  14  23  14  24   8  25   8  26   8  27   8
M  ISO  5  28   8  29   8  30   8  31   8  32   8
M  END
>  <minimizedAffinity>  (1) 
-5.42847633

>  <minimizedRMSD>  (1) 
2.16132355

$$$$
