
     RDKit          3D

 27 29  0  0  0  0  0  0  0  0999 V2000
   45.8960   34.2100   42.3690 C   0  0  0  0  0  0  0  0  0  0  0  0
   45.0590   33.7720   41.3540 C   0  0  0  0  0  0  0  0  0  0  0  0
   45.8040   33.8060   40.1810 C   0  0  0  0  0  0  0  0  0  0  0  0
   47.0200   34.2530   40.5460 N   0  0  0  0  0  0  0  0  0  0  0  0
   47.0840   34.4940   41.8370 N   0  0  0  0  0  0  0  0  0  0  0  0
   44.5020   35.4450   45.5920 C   0  0  0  0  0  0  0  0  0  0  0  0
   44.8140   35.4170   44.2090 C   0  0  0  0  0  0  0  0  0  0  0  0
   45.5270   34.3320   43.7620 C   0  0  0  0  0  0  0  0  0  0  0  0
   45.9010   33.3490   44.6370 N   0  0  0  0  0  0  0  0  0  0  0  0
   45.5750   33.4210   45.9650 C   0  0  0  0  0  0  0  0  0  0  0  0
   44.8870   34.4520   46.4350 N   0  0  0  0  0  0  0  0  0  0  0  0
   46.0390   32.2880   46.8120 C   0  0  0  0  0  0  0  0  0  0  0  0
   47.1450   32.4590   47.7950 C   0  0  0  0  0  0  0  0  0  0  0  0
   45.7280   32.4060   48.2580 C   0  0  0  0  0  0  0  0  0  0  0  0
   48.1590   34.4580   39.6440 C   0  0  0  0  0  0  0  0  0  0  0  0
   48.7690   35.6480   39.9530 F   0  0  0  0  0  0  0  0  0  0  0  0
   47.7780   34.4500   38.3270 F   0  0  0  0  0  0  0  0  0  0  0  0
   49.0740   33.3990   39.8120 F   0  0  0  0  0  0  0  0  0  0  0  0
   44.0096   33.4586   41.4570 H   0  0  0  0  0  0  0  0  0  0  0  0
   45.4710   33.5272   39.1704 H   0  0  0  0  0  0  0  0  0  0  0  0
   43.9317   36.2955   45.9937 H   0  0  0  0  0  0  0  0  0  0  0  0
   44.5009   36.2231   43.5292 H   0  0  0  0  0  0  0  0  0  0  0  0
   45.8709   31.5623   46.0026 H   0  0  0  0  0  0  0  0  0  0  0  0
   47.8261   31.6221   48.0090 H   0  0  0  0  0  0  0  0  0  0  0  0
   47.9785   33.1666   47.9154 H   0  0  0  0  0  0  0  0  0  0  0  0
   45.2412   33.3140   48.6433 H   0  0  0  0  0  0  0  0  0  0  0  0
   45.1701   31.7979   48.9853 H   0  0  0  0  0  0  0  0  0  0  0  0
  1  8  1  0
  2  1  1  0
  3  4  1  0
  3  2  2  0
  4  5  1  0
  5  1  2  0
  6 11  2  0
  7  6  1  0
  8  7  2  0
  8  9  1  0
  9 10  2  0
 10 11  1  0
 10 12  1  0
 12 13  1  0
 12 14  1  0
 13 14  1  0
 15 18  1  0
 15 16  1  0
 15  4  1  0
 17 15  1  0
  2 19  1  0
  3 20  1  0
  6 21  1  0
  7 22  1  0
 12 23  1  0
 13 24  1  0
 13 25  1  0
 14 26  1  0
 14 27  1  0
M  ISO  8  19  14  20  14  21  14  22  14  23  13  24  13  25  13  26  13
M  ISO  1  27  13
M  END
>  <minimizedAffinity>  (1) 
-5.17120409

>  <minimizedRMSD>  (1) 
0.678492665

$$$$
