
     RDKit          3D

 23 24  0  0  0  0  0  0  0  0999 V2000
   44.3940   36.1360   44.7900 C   0  0  0  0  0  0  0  0  0  0  0  0
   44.7720   35.8490   43.4480 C   0  0  0  0  0  0  0  0  0  0  0  0
   45.4290   34.6400   43.2350 C   0  0  0  0  0  0  0  0  0  0  0  0
   45.6680   33.8190   44.2870 N   0  0  0  0  0  0  0  0  0  0  0  0
   45.2850   34.1380   45.5520 C   0  0  0  0  0  0  0  0  0  0  0  0
   44.6580   35.2780   45.8030 N   0  0  0  0  0  0  0  0  0  0  0  0
   45.8450   34.2700   41.9170 C   0  0  0  0  0  0  0  0  0  0  0  0
   45.1400   33.4760   41.0320 C   0  0  0  0  0  0  0  0  0  0  0  0
   45.8900   33.3640   39.8720 C   0  0  0  0  0  0  0  0  0  0  0  0
   47.0020   34.0910   40.1150 N   0  0  0  0  0  0  0  0  0  0  0  0
   46.9910   34.6320   41.3160 N   0  0  0  0  0  0  0  0  0  0  0  0
   48.1280   34.2930   39.1880 C   0  0  0  0  0  0  0  0  0  0  0  0
   48.7850   35.4470   39.5000 F   0  0  0  0  0  0  0  0  0  0  0  0
   47.6960   34.3410   37.8850 F   0  0  0  0  0  0  0  0  0  0  0  0
   49.0110   33.2030   39.2850 F   0  0  0  0  0  0  0  0  0  0  0  0
   45.5680   33.2170   46.6460 C   0  0  0  0  0  0  0  0  0  0  0  0
   46.3440   32.2420   46.4870 O   0  0  0  0  0  0  0  0  0  0  0  0
   45.0360   33.3200   47.9090 O   0  0  0  0  0  0  0  0  0  0  0  0
   43.8736   37.0799   45.0096 H   0  0  0  0  0  0  0  0  0  0  0  0
   44.5567   36.5448   42.6237 H   0  0  0  0  0  0  0  0  0  0  0  0
   44.1583   33.0150   41.2158 H   0  0  0  0  0  0  0  0  0  0  0  0
   45.6363   32.8074   38.9577 H   0  0  0  0  0  0  0  0  0  0  0  0
   45.2750   32.6552   48.6025 H   0  0  0  0  0  0  0  0  0  0  0  0
  1  6  2  0
  2  1  1  0
  3  2  2  0
  3  4  1  0
  4  5  2  0
  5  6  1  0
  5 16  1  0
  7  3  1  0
  8  7  1  0
  9 10  1  0
  9  8  2  0
 10 11  1  0
 11  7  2  0
 12 15  1  0
 12 13  1  0
 12 10  1  0
 14 12  1  0
 16 18  1  0
 17 16  2  0
  1 19  1  0
  2 20  1  0
  8 21  1  0
  9 22  1  0
 18 23  1  0
M  ISO  5  19  14  20  14  21  14  22  14  23   3
M  END
>  <minimizedAffinity>  (1) 
-5.4264617

>  <minimizedRMSD>  (1) 
0.21930401

$$$$
