
     RDKit          3D

 22 23  0  0  0  0  0  0  0  0999 V2000
   45.8600   34.2280   41.9060 C   0  0  0  0  0  0  0  0  0  0  0  0
   45.1350   33.4940   40.9940 C   0  0  0  0  0  0  0  0  0  0  0  0
   45.8930   33.4210   39.8340 C   0  0  0  0  0  0  0  0  0  0  0  0
   47.0310   34.1110   40.1020 N   0  0  0  0  0  0  0  0  0  0  0  0
   47.0150   34.5870   41.3220 N   0  0  0  0  0  0  0  0  0  0  0  0
   44.4220   35.9460   44.8800 C   0  0  0  0  0  0  0  0  0  0  0  0
   44.7690   35.7180   43.5150 C   0  0  0  0  0  0  0  0  0  0  0  0
   45.4620   34.5550   43.2440 C   0  0  0  0  0  0  0  0  0  0  0  0
   45.7720   33.7060   44.2670 N   0  0  0  0  0  0  0  0  0  0  0  0
   45.4220   33.9640   45.5520 C   0  0  0  0  0  0  0  0  0  0  0  0
   44.7560   35.0690   45.8520 N   0  0  0  0  0  0  0  0  0  0  0  0
   45.7750   33.0260   46.6100 C   0  0  0  0  0  0  0  0  0  0  0  0
   45.1060   32.9610   47.6670 O   0  0  0  0  0  0  0  0  0  0  0  0
   48.1430   34.3110   39.1740 C   0  0  0  0  0  0  0  0  0  0  0  0
   48.7930   35.4680   39.4960 F   0  0  0  0  0  0  0  0  0  0  0  0
   47.7030   34.3750   37.8690 F   0  0  0  0  0  0  0  0  0  0  0  0
   49.0200   33.2150   39.2580 F   0  0  0  0  0  0  0  0  0  0  0  0
   44.1419   33.0492   41.1548 H   0  0  0  0  0  0  0  0  0  0  0  0
   45.6279   32.9117   38.8957 H   0  0  0  0  0  0  0  0  0  0  0  0
   43.8689   36.8584   45.1477 H   0  0  0  0  0  0  0  0  0  0  0  0
   44.4990   36.4303   42.7214 H   0  0  0  0  0  0  0  0  0  0  0  0
   46.6435   32.3640   46.4781 H   0  0  0  0  0  0  0  0  0  0  0  0
  1  8  1  0
  2  1  1  0
  3  4  1  0
  3  2  2  0
  4  5  1  0
  5  1  2  0
  6 11  2  0
  7  6  1  0
  8  7  2  0
  8  9  1  0
  9 10  2  0
 10 11  1  0
 10 12  1  0
 12 13  2  0
 14 17  1  0
 14 15  1  0
 14  4  1  0
 16 14  1  0
  2 18  1  0
  3 19  1  0
  6 20  1  0
  7 21  1  0
 12 22  1  0
M  ISO  5  18  14  19  14  20  14  21  14  22   6
M  END
>  <minimizedAffinity>  (1) 
-4.92761517

>  <minimizedRMSD>  (1) 
0.0453434773

$$$$
