
     RDKit          3D

 26 28  0  0  0  0  0  0  0  0999 V2000
   44.3660   36.1120   44.7850 C   0  0  0  0  0  0  0  0  0  0  0  0
   44.7380   35.8200   43.4450 C   0  0  0  0  0  0  0  0  0  0  0  0
   45.4190   34.6490   43.2200 C   0  0  0  0  0  0  0  0  0  0  0  0
   45.6870   33.8550   44.2870 N   0  0  0  0  0  0  0  0  0  0  0  0
   45.3250   34.1490   45.5570 C   0  0  0  0  0  0  0  0  0  0  0  0
   44.6630   35.2820   45.7990 N   0  0  0  0  0  0  0  0  0  0  0  0
   45.8390   34.2620   41.9010 C   0  0  0  0  0  0  0  0  0  0  0  0
   45.1470   33.4530   41.0350 C   0  0  0  0  0  0  0  0  0  0  0  0
   45.9120   33.3410   39.8790 C   0  0  0  0  0  0  0  0  0  0  0  0
   47.0140   34.0890   40.1200 N   0  0  0  0  0  0  0  0  0  0  0  0
   46.9770   34.6330   41.3070 N   0  0  0  0  0  0  0  0  0  0  0  0
   48.1340   34.2850   39.1820 C   0  0  0  0  0  0  0  0  0  0  0  0
   48.7810   35.4480   39.4950 F   0  0  0  0  0  0  0  0  0  0  0  0
   47.6770   34.3310   37.8770 F   0  0  0  0  0  0  0  0  0  0  0  0
   49.0080   33.1970   39.2630 F   0  0  0  0  0  0  0  0  0  0  0  0
   45.7270   33.1320   46.5590 C   0  0  0  0  0  0  0  0  0  0  0  0
   46.8600   32.4450   46.1240 C   0  0  0  0  0  0  0  0  0  0  0  0
   47.1960   31.2530   47.4700 S   0  0  0  0  0  0  0  0  0  0  0  0
   45.6860   31.9140   48.4330 C   0  0  0  0  0  0  0  0  0  0  0  0
   45.3020   32.7190   47.7250 N   0  0  0  0  0  0  0  0  0  0  0  0
   43.8200   37.0429   44.9979 H   0  0  0  0  0  0  0  0  0  0  0  0
   44.4903   36.5049   42.6206 H   0  0  0  0  0  0  0  0  0  0  0  0
   44.1706   32.9816   41.2204 H   0  0  0  0  0  0  0  0  0  0  0  0
   45.6739   32.7703   38.9693 H   0  0  0  0  0  0  0  0  0  0  0  0
   47.4212   32.5870   45.1887 H   0  0  0  0  0  0  0  0  0  0  0  0
   45.2919   31.6008   49.4111 H   0  0  0  0  0  0  0  0  0  0  0  0
  1  6  2  0
  2  1  1  0
  3  2  2  0
  3  4  1  0
  4  5  2  0
  5  6  1  0
  5 16  1  0
  7  3  1  0
  8  7  1  0
  9 10  1  0
  9  8  2  0
 10 11  1  0
 11  7  2  0
 12 15  1  0
 12 13  1  0
 12 10  1  0
 14 12  1  0
 16 20  1  0
 17 16  2  0
 17 18  1  0
 18 19  1  0
 20 19  2  0
  1 21  1  0
  2 22  1  0
  8 23  1  0
  9 24  1  0
 17 25  1  0
 19 26  1  0
M  ISO  6  21  14  22  14  23  14  24  14  25  14  26  14
M  END
>  <minimizedAffinity>  (1) 
-5.65302515

>  <minimizedRMSD>  (1) 
0.281190693

$$$$
