
     RDKit          3D

 23 24  0  0  0  0  0  0  0  0999 V2000
   45.8770   34.2220   41.9050 C   0  0  0  0  0  0  0  0  0  0  0  0
   45.1440   33.4840   40.9890 C   0  0  0  0  0  0  0  0  0  0  0  0
   45.8840   33.4110   39.8280 C   0  0  0  0  0  0  0  0  0  0  0  0
   47.0280   34.1050   40.0910 N   0  0  0  0  0  0  0  0  0  0  0  0
   47.0130   34.5740   41.3060 N   0  0  0  0  0  0  0  0  0  0  0  0
   44.4150   35.9460   44.8590 C   0  0  0  0  0  0  0  0  0  0  0  0
   44.7670   35.7110   43.5010 C   0  0  0  0  0  0  0  0  0  0  0  0
   45.4780   34.5420   43.2460 C   0  0  0  0  0  0  0  0  0  0  0  0
   45.7930   33.7070   44.2670 N   0  0  0  0  0  0  0  0  0  0  0  0
   45.4370   33.9700   45.5530 C   0  0  0  0  0  0  0  0  0  0  0  0
   44.7490   35.0900   45.8400 N   0  0  0  0  0  0  0  0  0  0  0  0
   45.8570   32.9570   46.5560 C   0  0  0  0  0  0  0  0  0  0  0  0
   48.1390   34.3110   39.1530 C   0  0  0  0  0  0  0  0  0  0  0  0
   48.7930   35.4640   39.4830 F   0  0  0  0  0  0  0  0  0  0  0  0
   47.6980   34.3650   37.8510 F   0  0  0  0  0  0  0  0  0  0  0  0
   49.0210   33.2270   39.2320 F   0  0  0  0  0  0  0  0  0  0  0  0
   44.1527   33.0379   41.1576 H   0  0  0  0  0  0  0  0  0  0  0  0
   45.6106   32.9026   38.8916 H   0  0  0  0  0  0  0  0  0  0  0  0
   43.8523   36.8561   45.1141 H   0  0  0  0  0  0  0  0  0  0  0  0
   44.4932   36.4124   42.6990 H   0  0  0  0  0  0  0  0  0  0  0  0
   45.6925   33.3536   47.5687 H   0  0  0  0  0  0  0  0  0  0  0  0
   45.2650   32.0398   46.4208 H   0  0  0  0  0  0  0  0  0  0  0  0
   46.9243   32.7278   46.4208 H   0  0  0  0  0  0  0  0  0  0  0  0
  1  8  1  0
  2  1  1  0
  3  4  1  0
  3  2  2  0
  4  5  1  0
  5  1  2  0
  6 11  2  0
  7  6  1  0
  8  7  2  0
  8  9  1  0
  9 10  2  0
 10 11  1  0
 10 12  1  0
 13 16  1  0
 13 14  1  0
 13  4  1  0
 15 13  1  0
  2 17  1  0
  3 18  1  0
  6 19  1  0
  7 20  1  0
 12 21  1  0
 12 22  1  0
 12 23  1  0
M  ISO  7  17  14  18  14  19  14  20  14  21   8  22   8  23   8
M  END
>  <minimizedAffinity>  (1) 
-4.84124947

>  <minimizedRMSD>  (1) 
0.0411843732

$$$$
