
     RDKit          3D

 32 33  0  0  0  0  0  0  0  0999 V2000
   48.8710   33.8090   42.8060 C   0  0  0  0  0  0  0  0  0  0  0  0
   49.2620   33.0920   41.5800 C   0  0  0  0  0  0  0  0  0  0  0  0
   48.4150   33.3770   40.4800 C   0  0  0  0  0  0  0  0  0  0  0  0
   48.6650   32.7680   39.2550 C   0  0  0  0  0  0  0  0  0  0  0  0
   49.7270   31.9210   39.1840 N   0  0  0  0  0  0  0  0  0  0  0  0
   50.5250   31.6610   40.2440 C   0  0  0  0  0  0  0  0  0  0  0  0
   50.2760   32.2550   41.4290 N   0  0  0  0  0  0  0  0  0  0  0  0
   47.5780   33.2840   43.3740 C   0  0  0  0  0  0  0  0  0  0  0  0
   46.5980   34.3660   43.7530 C   0  0  0  0  0  0  0  0  0  0  0  0
   45.6040   34.5400   42.6350 C   0  0  0  0  0  0  0  0  0  0  0  0
   44.5530   35.5620   42.9600 C   0  0  0  0  0  0  0  0  0  0  0  0
   44.7200   36.1280   44.3510 C   0  0  0  0  0  0  0  0  0  0  0  0
   44.7660   34.9720   45.3310 C   0  0  0  0  0  0  0  0  0  0  0  0
   45.8500   33.9950   45.0160 C   0  0  0  0  0  0  0  0  0  0  0  0
   48.7488   34.8765   42.5703 H   0  0  0  0  0  0  0  0  0  0  0  0
   49.6604   33.6573   43.5569 H   0  0  0  0  0  0  0  0  0  0  0  0
   47.5698   34.0717   40.5939 H   0  0  0  0  0  0  0  0  0  0  0  0
   48.0295   32.9634   38.3787 H   0  0  0  0  0  0  0  0  0  0  0  0
   51.3732   30.9683   40.1404 H   0  0  0  0  0  0  0  0  0  0  0  0
   47.1057   32.6361   42.6209 H   0  0  0  0  0  0  0  0  0  0  0  0
   47.8296   32.7409   44.2969 H   0  0  0  0  0  0  0  0  0  0  0  0
   47.1535   35.2990   43.9286 H   0  0  0  0  0  0  0  0  0  0  0  0
   45.1119   33.5745   42.4459 H   0  0  0  0  0  0  0  0  0  0  0  0
   46.1527   34.8920   41.7490 H   0  0  0  0  0  0  0  0  0  0  0  0
   44.6209   36.3841   42.2323 H   0  0  0  0  0  0  0  0  0  0  0  0
   43.5724   35.0658   42.9121 H   0  0  0  0  0  0  0  0  0  0  0  0
   45.6561   36.7028   44.4091 H   0  0  0  0  0  0  0  0  0  0  0  0
   43.8808   36.7970   44.5920 H   0  0  0  0  0  0  0  0  0  0  0  0
   44.9358   35.3730   46.3411 H   0  0  0  0  0  0  0  0  0  0  0  0
   43.8065   34.4386   45.2622 H   0  0  0  0  0  0  0  0  0  0  0  0
   45.4029   32.9986   44.8843 H   0  0  0  0  0  0  0  0  0  0  0  0
   46.5670   34.0021   45.8502 H   0  0  0  0  0  0  0  0  0  0  0  0
  1  8  1  0
  2  1  1  0
  3  2  2  0
  4  3  1  0
  5  4  2  0
  5  6  1  0
  6  7  2  0
  7  2  1  0
  8  9  1  0
  9 14  1  0
 10 11  1  0
 10  9  1  0
 11 12  1  0
 12 13  1  0
 14 13  1  0
  1 15  1  0
  1 16  1  0
  3 17  1  0
  4 18  1  0
  6 19  1  0
  8 20  1  0
  8 21  1  0
  9 22  1  0
 10 23  1  0
 10 24  1  0
 11 25  1  0
 11 26  1  0
 12 27  1  0
 12 28  1  0
 13 29  1  0
 13 30  1  0
 14 31  1  0
 14 32  1  0
M  ISO  8  15   8  16   8  17  14  18  14  19  14  20   8  21   8  22  13
M  ISO  8  23  13  24  13  25  13  26  13  27  13  28  13  29  13  30  13
M  ISO  2  31  13  32  13
M  END
>  <minimizedAffinity>  (1) 
-3.88228893

>  <minimizedRMSD>  (1) 
5.99035501

$$$$
