
     RDKit          3D

 33 35  0  0  0  0  0  0  0  0999 V2000
   44.6690   35.8810   44.9730 C   0  0  0  0  0  0  0  0  0  0  0  0
   44.1690   35.7860   43.6570 C   0  0  0  0  0  0  0  0  0  0  0  0
   44.3440   34.6170   42.9630 C   0  0  0  0  0  0  0  0  0  0  0  0
   44.9970   33.6020   43.5920 N   0  0  0  0  0  0  0  0  0  0  0  0
   45.4680   33.7140   44.8530 C   0  0  0  0  0  0  0  0  0  0  0  0
   45.3120   34.8310   45.5440 N   0  0  0  0  0  0  0  0  0  0  0  0
   43.8630   34.4590   41.6300 C   0  0  0  0  0  0  0  0  0  0  0  0
   44.3390   33.5440   40.6980 C   0  0  0  0  0  0  0  0  0  0  0  0
   43.5970   33.7260   39.5400 C   0  0  0  0  0  0  0  0  0  0  0  0
   42.7350   34.7190   39.8320 N   0  0  0  0  0  0  0  0  0  0  0  0
   42.8750   35.1650   41.0640 N   0  0  0  0  0  0  0  0  0  0  0  0
   41.7360   35.2630   38.9020 C   0  0  0  0  0  0  0  0  0  0  0  0
   41.0730   34.2190   38.3120 F   0  0  0  0  0  0  0  0  0  0  0  0
   42.3110   36.0550   37.9360 F   0  0  0  0  0  0  0  0  0  0  0  0
   40.8310   36.0850   39.5970 F   0  0  0  0  0  0  0  0  0  0  0  0
   46.1560   32.5760   45.4540 C   0  0  0  0  0  0  0  0  0  0  0  0
   47.0830   31.7600   44.8460 C   0  0  0  0  0  0  0  0  0  0  0  0
   47.5000   30.8260   45.6900 N   0  0  0  0  0  0  0  0  0  0  0  0
   46.8470   31.0270   46.8530 C   0  0  0  0  0  0  0  0  0  0  0  0
   46.0470   32.0800   46.6940 N   0  0  0  0  0  0  0  0  0  0  0  0
   45.1550   32.6390   47.7360 C   0  0  0  0  0  0  0  0  0  0  0  0
   44.5430   33.7710   47.2760 F   0  0  0  0  0  0  0  0  0  0  0  0
   44.1730   31.7440   48.0680 F   0  0  0  0  0  0  0  0  0  0  0  0
   45.9170   33.0370   48.8490 F   0  0  0  0  0  0  0  0  0  0  0  0
   47.0250   30.1930   48.0760 C   0  0  0  0  0  0  0  0  0  0  0  0
   45.8810   29.5600   48.4810 F   0  0  0  0  0  0  0  0  0  0  0  0
   47.6390   30.9170   49.1080 F   0  0  0  0  0  0  0  0  0  0  0  0
   47.9360   29.1570   47.8220 F   0  0  0  0  0  0  0  0  0  0  0  0
   44.5366   36.8138   45.5408 H   0  0  0  0  0  0  0  0  0  0  0  0
   43.6468   36.6369   43.1951 H   0  0  0  0  0  0  0  0  0  0  0  0
   45.1489   32.8152   40.8496 H   0  0  0  0  0  0  0  0  0  0  0  0
   43.6919   33.1788   38.5905 H   0  0  0  0  0  0  0  0  0  0  0  0
   47.4288   31.8674   43.8073 H   0  0  0  0  0  0  0  0  0  0  0  0
  1  6  2  0
  2  1  1  0
  3  4  1  0
  3  2  2  0
  4  5  2  0
  5 16  1  0
  5  6  1  0
  7  3  1  0
  8  7  1  0
  9 10  1  0
  9  8  2  0
 10 11  1  0
 11  7  2  0
 12 15  1  0
 12 10  1  0
 13 12  1  0
 14 12  1  0
 16 20  1  0
 17 16  2  0
 17 18  1  0
 18 19  2  0
 19 25  1  0
 20 19  1  0
 20 21  1  0
 21 23  1  0
 21 24  1  0
 22 21  1  0
 25 26  1  0
 25 27  1  0
 28 25  1  0
  1 29  1  0
  2 30  1  0
  8 31  1  0
  9 32  1  0
 17 33  1  0
M  ISO  5  29  14  30  14  31  14  32  14  33  14
M  END
>  <minimizedAffinity>  (1) 
-6.44592762

>  <minimizedRMSD>  (1) 
3.39610767

$$$$
