
     RDKit          3D

 42 44  0  0  0  0  0  0  0  0999 V2000
   44.6740   35.9010   45.0000 C   0  0  0  0  0  0  0  0  0  0  0  0
   44.1530   35.8280   43.6870 C   0  0  0  0  0  0  0  0  0  0  0  0
   44.3190   34.6810   42.9640 C   0  0  0  0  0  0  0  0  0  0  0  0
   44.9880   33.6490   43.5500 N   0  0  0  0  0  0  0  0  0  0  0  0
   45.4820   33.7300   44.8050 C   0  0  0  0  0  0  0  0  0  0  0  0
   45.3320   34.8370   45.5290 N   0  0  0  0  0  0  0  0  0  0  0  0
   43.8150   34.5510   41.6360 C   0  0  0  0  0  0  0  0  0  0  0  0
   42.8960   35.3850   41.0310 C   0  0  0  0  0  0  0  0  0  0  0  0
   42.6800   34.9060   39.7480 C   0  0  0  0  0  0  0  0  0  0  0  0
   43.4660   33.8290   39.6520 N   0  0  0  0  0  0  0  0  0  0  0  0
   44.1390   33.6110   40.7580 N   0  0  0  0  0  0  0  0  0  0  0  0
   43.5810   32.9720   38.4550 C   0  0  0  0  0  0  0  0  0  0  0  0
   44.1330   31.7640   38.8500 F   0  0  0  0  0  0  0  0  0  0  0  0
   44.3830   33.5420   37.4970 F   0  0  0  0  0  0  0  0  0  0  0  0
   42.3300   32.7670   37.8910 F   0  0  0  0  0  0  0  0  0  0  0  0
   46.1820   32.5910   45.3780 C   0  0  0  0  0  0  0  0  0  0  0  0
   47.1160   31.8110   44.7330 C   0  0  0  0  0  0  0  0  0  0  0  0
   47.5480   30.8560   45.5370 N   0  0  0  0  0  0  0  0  0  0  0  0
   46.9020   30.9950   46.7310 C   0  0  0  0  0  0  0  0  0  0  0  0
   46.0930   32.0460   46.5960 N   0  0  0  0  0  0  0  0  0  0  0  0
   45.2260   32.5620   47.6520 C   0  0  0  0  0  0  0  0  0  0  0  0
   44.5900   33.7130   47.2360 F   0  0  0  0  0  0  0  0  0  0  0  0
   44.2620   31.6880   48.0330 F   0  0  0  0  0  0  0  0  0  0  0  0
   45.9880   32.9670   48.7750 F   0  0  0  0  0  0  0  0  0  0  0  0
   47.1660   30.0800   47.8840 C   0  0  0  0  0  0  0  0  0  0  0  0
   47.9010   30.7490   48.9990 C   0  0  0  0  0  0  0  0  0  0  0  0
   46.0120   29.2100   48.2660 C   0  0  0  0  0  0  0  0  0  0  0  0
   48.2260   29.0330   47.3960 C   0  0  0  0  0  0  0  0  0  0  0  0
   44.5463   36.8190   45.5924 H   0  0  0  0  0  0  0  0  0  0  0  0
   43.6195   36.6863   43.2525 H   0  0  0  0  0  0  0  0  0  0  0  0
   42.4218   36.2681   41.4841 H   0  0  0  0  0  0  0  0  0  0  0  0
   42.0105   35.3202   38.9797 H   0  0  0  0  0  0  0  0  0  0  0  0
   47.4538   31.9616   43.6970 H   0  0  0  0  0  0  0  0  0  0  0  0
   47.5089   30.3921   49.9628 H   0  0  0  0  0  0  0  0  0  0  0  0
   48.9723   30.5096   48.9277 H   0  0  0  0  0  0  0  0  0  0  0  0
   47.7631   31.8380   48.9277 H   0  0  0  0  0  0  0  0  0  0  0  0
   45.9406   29.1561   49.3624 H   0  0  0  0  0  0  0  0  0  0  0  0
   45.0824   29.6340   47.8584 H   0  0  0  0  0  0  0  0  0  0  0  0
   46.1638   28.1997   47.8584 H   0  0  0  0  0  0  0  0  0  0  0  0
   48.7036   28.5613   48.2674 H   0  0  0  0  0  0  0  0  0  0  0  0
   47.7279   28.2626   46.7891 H   0  0  0  0  0  0  0  0  0  0  0  0
   48.9902   29.5405   46.7891 H   0  0  0  0  0  0  0  0  0  0  0  0
  1  6  2  0
  2  1  1  0
  3  4  1  0
  3  2  2  0
  4  5  2  0
  5 16  1  0
  5  6  1  0
  7  3  1  0
  8  7  1  0
  9  8  2  0
 10  9  1  0
 10 11  1  0
 11  7  2  0
 12 13  1  0
 12 10  1  0
 14 12  1  0
 15 12  1  0
 16 20  1  0
 17 16  2  0
 17 18  1  0
 18 19  2  0
 19 25  1  0
 20 19  1  0
 20 21  1  0
 21 23  1  0
 21 24  1  0
 22 21  1  0
 25 27  1  0
 25 26  1  0
 28 25  1  0
  1 29  1  0
  2 30  1  0
  8 31  1  0
  9 32  1  0
 17 33  1  0
 26 34  1  0
 26 35  1  0
 26 36  1  0
 27 37  1  0
 27 38  1  0
 27 39  1  0
 28 40  1  0
 28 41  1  0
 28 42  1  0
M  ISO  8  29  14  30  14  31  14  32  14  33  14  34   8  35   8  36   8
M  ISO  6  37   8  38   8  39   8  40   8  41   8  42   8
M  END
>  <minimizedAffinity>  (1) 
-5.72126293

>  <minimizedRMSD>  (1) 
2.90320563

$$$$
