
     RDKit          3D

 42 45  0  0  0  0  0  0  0  0999 V2000
   44.6610   35.9260   44.7570 C   0  0  0  0  0  0  0  0  0  0  0  0
   43.9720   35.7440   43.5250 C   0  0  0  0  0  0  0  0  0  0  0  0
   44.0670   34.5640   42.8620 C   0  0  0  0  0  0  0  0  0  0  0  0
   44.8380   33.5860   43.4190 N   0  0  0  0  0  0  0  0  0  0  0  0
   45.4950   33.7520   44.5860 C   0  0  0  0  0  0  0  0  0  0  0  0
   45.4130   34.9090   45.2580 N   0  0  0  0  0  0  0  0  0  0  0  0
   46.2990   32.6700   45.1230 C   0  0  0  0  0  0  0  0  0  0  0  0
   47.2520   31.9250   44.4340 C   0  0  0  0  0  0  0  0  0  0  0  0
   47.7930   31.0150   45.2350 N   0  0  0  0  0  0  0  0  0  0  0  0
   47.2060   31.1510   46.4430 C   0  0  0  0  0  0  0  0  0  0  0  0
   46.3180   32.1480   46.3420 N   0  0  0  0  0  0  0  0  0  0  0  0
   47.5660   30.3200   47.5430 N   0  0  0  0  0  0  0  0  0  0  0  0
   47.5920   30.5840   48.9880 C   0  0  0  0  0  0  0  0  0  0  0  0
   49.0830   30.3680   49.2600 C   0  0  0  0  0  0  0  0  0  0  0  0
   49.2790   29.0360   48.5630 C   0  0  0  0  0  0  0  0  0  0  0  0
   48.0450   28.9320   47.6530 C   0  0  0  0  0  0  0  0  0  0  0  0
   45.4790   32.6050   47.4620 C   0  0  0  0  0  0  0  0  0  0  0  0
   44.6970   33.6750   47.0610 F   0  0  0  0  0  0  0  0  0  0  0  0
   44.6340   31.6250   47.9070 F   0  0  0  0  0  0  0  0  0  0  0  0
   46.2810   33.1190   48.4970 F   0  0  0  0  0  0  0  0  0  0  0  0
   43.3930   34.3370   41.6280 C   0  0  0  0  0  0  0  0  0  0  0  0
   42.2590   34.9920   41.1860 C   0  0  0  0  0  0  0  0  0  0  0  0
   41.9370   34.4630   39.9410 C   0  0  0  0  0  0  0  0  0  0  0  0
   42.8770   33.5360   39.7070 N   0  0  0  0  0  0  0  0  0  0  0  0
   43.7490   33.4410   40.6860 N   0  0  0  0  0  0  0  0  0  0  0  0
   42.9490   32.6990   38.4910 C   0  0  0  0  0  0  0  0  0  0  0  0
   43.1840   31.4060   38.8660 F   0  0  0  0  0  0  0  0  0  0  0  0
   43.9360   33.1270   37.6370 F   0  0  0  0  0  0  0  0  0  0  0  0
   41.7430   32.7730   37.7890 F   0  0  0  0  0  0  0  0  0  0  0  0
   44.5862   36.8802   45.2991 H   0  0  0  0  0  0  0  0  0  0  0  0
   43.3623   36.5602   43.1102 H   0  0  0  0  0  0  0  0  0  0  0  0
   47.5187   32.0697   43.3767 H   0  0  0  0  0  0  0  0  0  0  0  0
   47.2771   31.6115   49.2228 H   0  0  0  0  0  0  0  0  0  0  0  0
   46.9124   29.9619   49.5890 H   0  0  0  0  0  0  0  0  0  0  0  0
   49.7002   31.1600   48.8108 H   0  0  0  0  0  0  0  0  0  0  0  0
   49.3708   30.3857   50.3215 H   0  0  0  0  0  0  0  0  0  0  0  0
   50.2066   29.0327   47.9718 H   0  0  0  0  0  0  0  0  0  0  0  0
   49.3719   28.1922   49.2626 H   0  0  0  0  0  0  0  0  0  0  0  0
   47.2773   28.2882   48.1071 H   0  0  0  0  0  0  0  0  0  0  0  0
   48.2765   28.4851   46.6749 H   0  0  0  0  0  0  0  0  0  0  0  0
   41.7131   35.7840   41.7196 H   0  0  0  0  0  0  0  0  0  0  0  0
   41.0954   34.7436   39.2906 H   0  0  0  0  0  0  0  0  0  0  0  0
  1  6  2  0
  2  1  1  0
  3  4  1  0
  3  2  2  0
  4  5  2  0
  5  7  1  0
  5  6  1  0
  7 11  1  0
  8  7  2  0
  8  9  1  0
  9 10  2  0
 10 12  1  0
 11 10  1  0
 11 17  1  0
 12 16  1  0
 12 13  1  0
 13 14  1  0
 15 14  1  0
 16 15  1  0
 17 19  1  0
 17 20  1  0
 18 17  1  0
 21  3  1  0
 22 21  1  0
 23 22  2  0
 24 23  1  0
 24 25  1  0
 25 21  2  0
 26 27  1  0
 26 24  1  0
 28 26  1  0
 29 26  1  0
  1 30  1  0
  2 31  1  0
  8 32  1  0
 13 33  1  0
 13 34  1  0
 14 35  1  0
 14 36  1  0
 15 37  1  0
 15 38  1  0
 16 39  1  0
 16 40  1  0
 22 41  1  0
 23 42  1  0
M  ISO  8  30  14  31  14  32  14  33  13  34  13  35  13  36  13  37  13
M  ISO  5  38  13  39  13  40  13  41  14  42  14
M  END
>  <minimizedAffinity>  (1) 
-5.74176502

>  <minimizedRMSD>  (1) 
3.24990726

$$$$
