
     RDKit          3D

 43 46  0  0  0  0  0  0  0  0999 V2000
   49.1680   35.7500   41.7470 C   0  0  0  0  0  0  0  0  0  0  0  0
   48.8070   35.4190   40.4190 C   0  0  0  0  0  0  0  0  0  0  0  0
   48.0590   34.3100   40.1850 C   0  0  0  0  0  0  0  0  0  0  0  0
   47.6900   33.5640   41.2550 N   0  0  0  0  0  0  0  0  0  0  0  0
   48.0390   33.8860   42.5230 C   0  0  0  0  0  0  0  0  0  0  0  0
   48.7660   34.9610   42.7770 N   0  0  0  0  0  0  0  0  0  0  0  0
   47.6630   33.9250   38.8670 C   0  0  0  0  0  0  0  0  0  0  0  0
   48.3560   34.2230   37.7000 C   0  0  0  0  0  0  0  0  0  0  0  0
   47.6270   33.6630   36.6500 C   0  0  0  0  0  0  0  0  0  0  0  0
   46.5700   33.0770   37.2290 N   0  0  0  0  0  0  0  0  0  0  0  0
   46.5800   33.2250   38.5360 N   0  0  0  0  0  0  0  0  0  0  0  0
   45.5160   32.3530   36.5100 C   0  0  0  0  0  0  0  0  0  0  0  0
   45.8480   31.0230   36.4620 F   0  0  0  0  0  0  0  0  0  0  0  0
   45.3440   32.8380   35.2330 F   0  0  0  0  0  0  0  0  0  0  0  0
   44.2900   32.5170   37.1780 F   0  0  0  0  0  0  0  0  0  0  0  0
   47.5970   33.0290   43.6180 C   0  0  0  0  0  0  0  0  0  0  0  0
   48.2110   31.8850   44.0720 C   0  0  0  0  0  0  0  0  0  0  0  0
   47.5220   31.3580   45.0880 N   0  0  0  0  0  0  0  0  0  0  0  0
   46.4570   32.1640   45.2930 C   0  0  0  0  0  0  0  0  0  0  0  0
   46.5220   33.1560   44.4040 N   0  0  0  0  0  0  0  0  0  0  0  0
   45.5590   31.7640   46.3790 C   0  0  0  0  0  0  0  0  0  0  0  0
   45.7640   30.2830   46.7560 C   0  0  0  0  0  0  0  0  0  0  0  0
   44.9580   30.2120   48.0350 C   0  0  0  0  0  0  0  0  0  0  0  0
   45.2130   31.5280   48.7110 C   0  0  0  0  0  0  0  0  0  0  0  0
   45.9860   32.3750   47.7160 C   0  0  0  0  0  0  0  0  0  0  0  0
   45.5430   34.2320   44.3190 C   0  0  0  0  0  0  0  0  0  0  0  0
   46.0810   35.3180   43.6430 F   0  0  0  0  0  0  0  0  0  0  0  0
   44.4020   33.8830   43.6620 F   0  0  0  0  0  0  0  0  0  0  0  0
   45.2680   34.7520   45.5990 F   0  0  0  0  0  0  0  0  0  0  0  0
   49.7742   36.6463   41.9450 H   0  0  0  0  0  0  0  0  0  0  0  0
   49.1301   36.0557   39.5822 H   0  0  0  0  0  0  0  0  0  0  0  0
   49.2955   34.7895   37.6196 H   0  0  0  0  0  0  0  0  0  0  0  0
   47.8682   33.6956   35.5773 H   0  0  0  0  0  0  0  0  0  0  0  0
   49.1385   31.4635   43.6571 H   0  0  0  0  0  0  0  0  0  0  0  0
   44.5607   32.0448   46.0122 H   0  0  0  0  0  0  0  0  0  0  0  0
   45.3634   29.6082   45.9852 H   0  0  0  0  0  0  0  0  0  0  0  0
   46.8155   29.9765   46.8583 H   0  0  0  0  0  0  0  0  0  0  0  0
   43.8875   30.0890   47.8141 H   0  0  0  0  0  0  0  0  0  0  0  0
   45.2437   29.3556   48.6635 H   0  0  0  0  0  0  0  0  0  0  0  0
   44.2608   32.0154   48.9674 H   0  0  0  0  0  0  0  0  0  0  0  0
   45.7770   31.3947   49.6460 H   0  0  0  0  0  0  0  0  0  0  0  0
   47.0712   32.2817   47.8697 H   0  0  0  0  0  0  0  0  0  0  0  0
   45.7807   33.4526   47.7970 H   0  0  0  0  0  0  0  0  0  0  0  0
  1  6  2  0
  2  1  1  0
  3  2  2  0
  3  4  1  0
  4  5  2  0
  5  6  1  0
  5 16  1  0
  7  3  1  0
  8  7  1  0
  9 10  1  0
  9  8  2  0
 10 11  1  0
 11  7  2  0
 12 15  1  0
 12 10  1  0
 13 12  1  0
 14 12  1  0
 16 17  2  0
 16 20  1  0
 17 18  1  0
 18 19  2  0
 19 21  1  0
 20 19  1  0
 21 22  1  0
 21 25  1  0
 22 23  1  0
 23 24  1  0
 25 24  1  0
 26 20  1  0
 26 29  1  0
 27 26  1  0
 28 26  1  0
  1 30  1  0
  2 31  1  0
  8 32  1  0
  9 33  1  0
 17 34  1  0
 21 35  1  0
 22 36  1  0
 22 37  1  0
 23 38  1  0
 23 39  1  0
 24 40  1  0
 24 41  1  0
 25 42  1  0
 25 43  1  0
M  ISO  8  30  14  31  14  32  14  33  14  34  14  35  13  36  13  37  13
M  ISO  6  38  13  39  13  40  13  41  13  42  13  43  13
M  END
>  <minimizedAffinity>  (1) 
-5.96597195

>  <minimizedRMSD>  (1) 
4.761724

$$$$
