
     RDKit          3D

 36 38  0  0  0  0  0  0  0  0999 V2000
   45.2140   33.0560   47.2050 C   0  0  0  0  0  0  0  0  0  0  0  0
   45.4430   33.8070   46.0360 C   0  0  0  0  0  0  0  0  0  0  0  0
   46.4190   33.4040   45.1600 C   0  0  0  0  0  0  0  0  0  0  0  0
   47.1230   32.2810   45.4720 N   0  0  0  0  0  0  0  0  0  0  0  0
   46.8950   31.5740   46.5920 C   0  0  0  0  0  0  0  0  0  0  0  0
   45.9510   31.9440   47.4620 N   0  0  0  0  0  0  0  0  0  0  0  0
   46.6950   34.1230   43.9620 C   0  0  0  0  0  0  0  0  0  0  0  0
   45.7800   34.8230   43.1980 C   0  0  0  0  0  0  0  0  0  0  0  0
   46.4700   35.3680   42.1270 C   0  0  0  0  0  0  0  0  0  0  0  0
   47.7440   34.9780   42.2920 N   0  0  0  0  0  0  0  0  0  0  0  0
   47.8890   34.2440   43.3690 N   0  0  0  0  0  0  0  0  0  0  0  0
   48.8560   35.3180   41.3900 C   0  0  0  0  0  0  0  0  0  0  0  0
   49.2800   36.5980   41.6980 F   0  0  0  0  0  0  0  0  0  0  0  0
   48.4740   35.2650   40.0730 F   0  0  0  0  0  0  0  0  0  0  0  0
   49.9030   34.4250   41.5610 F   0  0  0  0  0  0  0  0  0  0  0  0
   47.6870   30.3790   46.8710 C   0  0  0  0  0  0  0  0  0  0  0  0
   47.9030   29.3250   45.9980 C   0  0  0  0  0  0  0  0  0  0  0  0
   48.6660   28.4080   46.5660 N   0  0  0  0  0  0  0  0  0  0  0  0
   48.9540   28.8490   47.8140 C   0  0  0  0  0  0  0  0  0  0  0  0
   48.3560   30.0300   47.9680 N   0  0  0  0  0  0  0  0  0  0  0  0
   48.4220   30.8420   49.1890 C   0  0  0  0  0  0  0  0  0  0  0  0
   47.1540   30.9830   49.7320 F   0  0  0  0  0  0  0  0  0  0  0  0
   49.1880   30.2350   50.1650 F   0  0  0  0  0  0  0  0  0  0  0  0
   48.8180   32.1380   48.8970 F   0  0  0  0  0  0  0  0  0  0  0  0
   49.8020   28.0540   48.7390 C   0  0  0  0  0  0  0  0  0  0  0  0
   51.2860   28.2320   48.4620 C   0  0  0  0  0  0  0  0  0  0  0  0
   44.4342   33.3714   47.9139 H   0  0  0  0  0  0  0  0  0  0  0  0
   44.8459   34.7070   45.8274 H   0  0  0  0  0  0  0  0  0  0  0  0
   44.7042   34.9279   43.4023 H   0  0  0  0  0  0  0  0  0  0  0  0
   46.0613   35.9877   41.3152 H   0  0  0  0  0  0  0  0  0  0  0  0
   47.4972   29.2608   44.9776 H   0  0  0  0  0  0  0  0  0  0  0  0
   49.5945   28.3733   49.7710 H   0  0  0  0  0  0  0  0  0  0  0  0
   49.5578   26.9920   48.5888 H   0  0  0  0  0  0  0  0  0  0  0  0
   51.8316   28.2974   49.4149 H   0  0  0  0  0  0  0  0  0  0  0  0
   51.6571   27.3719   47.8853 H   0  0  0  0  0  0  0  0  0  0  0  0
   51.4432   29.1554   47.8853 H   0  0  0  0  0  0  0  0  0  0  0  0
  1  6  2  0
  2  1  1  0
  3  4  1  0
  3  2  2  0
  4  5  2  0
  5 16  1  0
  5  6  1  0
  7  3  1  0
  8  7  1  0
  9 10  1  0
  9  8  2  0
 10 11  1  0
 11  7  2  0
 12 15  1  0
 12 13  1  0
 12 10  1  0
 14 12  1  0
 16 20  1  0
 17 18  1  0
 17 16  2  0
 18 19  2  0
 19 20  1  0
 19 25  1  0
 20 21  1  0
 21 22  1  0
 21 23  1  0
 24 21  1  0
 26 25  1  0
  1 27  1  0
  2 28  1  0
  8 29  1  0
  9 30  1  0
 17 31  1  0
 25 32  1  0
 25 33  1  0
 26 34  1  0
 26 35  1  0
 26 36  1  0
M  ISO  8  27  14  28  14  29  14  30  14  31  14  32   8  33   8  34   8
M  ISO  2  35   8  36   8
M  END
>  <minimizedAffinity>  (1) 
-6.09111547

>  <minimizedRMSD>  (1) 
2.21885848

$$$$
