
     RDKit          3D

 27 29  0  0  0  0  0  0  0  0999 V2000
   44.5620   35.9440   44.3510 C   0  0  0  0  0  0  0  0  0  0  0  0
   45.3650   35.9670   43.1990 C   0  0  0  0  0  0  0  0  0  0  0  0
   46.3460   34.9800   43.0960 C   0  0  0  0  0  0  0  0  0  0  0  0
   46.4520   34.0780   44.1070 N   0  0  0  0  0  0  0  0  0  0  0  0
   45.6690   34.0850   45.1930 C   0  0  0  0  0  0  0  0  0  0  0  0
   44.7290   35.0200   45.3050 N   0  0  0  0  0  0  0  0  0  0  0  0
   47.2220   34.9330   41.9300 C   0  0  0  0  0  0  0  0  0  0  0  0
   48.4730   35.5110   41.8540 C   0  0  0  0  0  0  0  0  0  0  0  0
   48.9400   35.2380   40.6190 N   0  0  0  0  0  0  0  0  0  0  0  0
   48.0060   34.5100   39.9490 C   0  0  0  0  0  0  0  0  0  0  0  0
   48.0820   34.0210   38.6560 C   0  0  0  0  0  0  0  0  0  0  0  0
   47.0100   33.3050   38.1790 C   0  0  0  0  0  0  0  0  0  0  0  0
   45.8690   33.0620   38.9490 C   0  0  0  0  0  0  0  0  0  0  0  0
   45.8450   33.5770   40.2460 C   0  0  0  0  0  0  0  0  0  0  0  0
   46.8960   34.2950   40.7510 C   0  0  0  0  0  0  0  0  0  0  0  0
   45.9790   33.0090   46.1430 C   0  0  0  0  0  0  0  0  0  0  0  0
   47.2370   33.0940   46.6960 F   0  0  0  0  0  0  0  0  0  0  0  0
   45.7620   31.7900   45.5400 F   0  0  0  0  0  0  0  0  0  0  0  0
   45.0710   33.0970   47.1990 F   0  0  0  0  0  0  0  0  0  0  0  0
   43.7763   36.7042   44.4723 H   0  0  0  0  0  0  0  0  0  0  0  0
   45.2272   36.7267   42.4155 H   0  0  0  0  0  0  0  0  0  0  0  0
   48.9862   36.0803   42.6430 H   0  0  0  0  0  0  0  0  0  0  0  0
   49.8533   35.5321   40.2445 H   0  0  0  0  0  0  0  0  0  0  0  0
   48.9699   34.1994   38.0317 H   0  0  0  0  0  0  0  0  0  0  0  0
   47.0516   32.9087   37.1537 H   0  0  0  0  0  0  0  0  0  0  0  0
   45.0218   32.4865   38.5478 H   0  0  0  0  0  0  0  0  0  0  0  0
   44.9613   33.4021   40.8772 H   0  0  0  0  0  0  0  0  0  0  0  0
  1  6  2  0
  2  1  1  0
  3  2  2  0
  3  4  1  0
  4  5  2  0
  5  6  1  0
  5 16  1  0
  7  3  1  0
  8  7  2  0
  9  8  1  0
 10  9  1  0
 10 15  2  0
 11 10  1  0
 12 11  2  0
 12 13  1  0
 13 14  2  0
 14 15  1  0
 15  7  1  0
 16 17  1  0
 16 19  1  0
 18 16  1  0
  1 20  1  0
  2 21  1  0
  8 22  1  0
  9 23  1  0
 11 24  1  0
 12 25  1  0
 13 26  1  0
 14 27  1  0
M  ISO  8  20  14  21  14  22  14  23   9  24  14  25  14  26  14  27  14
M  END
>  <minimizedAffinity>  (1) 
-6.48531532

>  <minimizedRMSD>  (1) 
0.569548726

$$$$
