
     RDKit          3D

 23 24  0  0  0  0  0  0  0  0999 V2000
   44.4470   35.9720   44.8240 C   0  0  0  0  0  0  0  0  0  0  0  0
   45.0960   35.9210   43.5610 C   0  0  0  0  0  0  0  0  0  0  0  0
   45.9810   34.8720   43.3510 C   0  0  0  0  0  0  0  0  0  0  0  0
   46.1660   33.9790   44.3500 N   0  0  0  0  0  0  0  0  0  0  0  0
   45.5420   34.0520   45.5300 C   0  0  0  0  0  0  0  0  0  0  0  0
   44.6800   35.0440   45.7790 N   0  0  0  0  0  0  0  0  0  0  0  0
   46.7050   34.7180   42.0910 C   0  0  0  0  0  0  0  0  0  0  0  0
   46.2620   33.9770   41.0200 C   0  0  0  0  0  0  0  0  0  0  0  0
   46.9760   33.8550   39.8450 C   0  0  0  0  0  0  0  0  0  0  0  0
   48.1790   34.5180   39.7770 C   0  0  0  0  0  0  0  0  0  0  0  0
   48.6980   35.2820   40.8010 C   0  0  0  0  0  0  0  0  0  0  0  0
   47.9230   35.3470   41.9310 C   0  0  0  0  0  0  0  0  0  0  0  0
   45.9020   32.9690   46.4630 C   0  0  0  0  0  0  0  0  0  0  0  0
   47.1540   33.0460   46.9870 F   0  0  0  0  0  0  0  0  0  0  0  0
   45.6880   31.7500   45.8130 F   0  0  0  0  0  0  0  0  0  0  0  0
   45.0050   32.9850   47.5220 F   0  0  0  0  0  0  0  0  0  0  0  0
   43.7373   36.7869   45.0298 H   0  0  0  0  0  0  0  0  0  0  0  0
   44.9061   36.6776   42.7855 H   0  0  0  0  0  0  0  0  0  0  0  0
   45.2955   33.4585   41.1037 H   0  0  0  0  0  0  0  0  0  0  0  0
   46.6004   33.2556   39.0026 H   0  0  0  0  0  0  0  0  0  0  0  0
   48.7631   34.4337   38.8487 H   0  0  0  0  0  0  0  0  0  0  0  0
   49.6638   35.8018   40.7177 H   0  0  0  0  0  0  0  0  0  0  0  0
   48.3008   35.9455   42.7730 H   0  0  0  0  0  0  0  0  0  0  0  0
  1  6  2  0
  2  1  1  0
  3  2  2  0
  3  4  1  0
  4  5  2  0
  5  6  1  0
  5 13  1  0
  7  3  1  0
  8  7  2  0
  9  8  1  0
 10  9  2  0
 10 11  1  0
 11 12  2  0
 12  7  1  0
 13 14  1  0
 13 16  1  0
 15 13  1  0
  1 17  1  0
  2 18  1  0
  8 19  1  0
  9 20  1  0
 10 21  1  0
 11 22  1  0
 12 23  1  0
M  ISO  7  17  14  18  14  19  14  20  14  21  14  22  14  23  14
M  END
>  <minimizedAffinity>  (1) 
-6.00874662

>  <minimizedRMSD>  (1) 
0.758000493

$$$$
