
     RDKit          3D

 26 27  0  0  0  0  0  0  0  0999 V2000
   44.6640   35.7160   44.5420 C   0  0  0  0  0  0  0  0  0  0  0  0
   45.4670   35.5340   43.4010 C   0  0  0  0  0  0  0  0  0  0  0  0
   46.3710   34.4760   43.4340 C   0  0  0  0  0  0  0  0  0  0  0  0
   46.4380   33.6860   44.5330 N   0  0  0  0  0  0  0  0  0  0  0  0
   45.6530   33.8900   45.6080 C   0  0  0  0  0  0  0  0  0  0  0  0
   44.7640   34.9050   45.6150 N   0  0  0  0  0  0  0  0  0  0  0  0
   47.2100   34.2880   42.2410 C   0  0  0  0  0  0  0  0  0  0  0  0
   46.4680   34.1580   40.9530 C   0  0  0  0  0  0  0  0  0  0  0  0
   47.5690   34.3040   39.9230 C   0  0  0  0  0  0  0  0  0  0  0  0
   48.6470   35.1160   40.5930 C   0  0  0  0  0  0  0  0  0  0  0  0
   48.1190   35.4640   41.9730 C   0  0  0  0  0  0  0  0  0  0  0  0
   45.8790   32.9190   46.7030 C   0  0  0  0  0  0  0  0  0  0  0  0
   47.1200   33.0260   47.2870 F   0  0  0  0  0  0  0  0  0  0  0  0
   45.6340   31.6520   46.2170 F   0  0  0  0  0  0  0  0  0  0  0  0
   44.9300   33.1530   47.6880 F   0  0  0  0  0  0  0  0  0  0  0  0
   43.9362   36.5406   44.5593 H   0  0  0  0  0  0  0  0  0  0  0  0
   45.3844   36.1953   42.5259 H   0  0  0  0  0  0  0  0  0  0  0  0
   47.7384   33.3589   42.5011 H   0  0  0  0  0  0  0  0  0  0  0  0
   45.9778   33.1764   40.8742 H   0  0  0  0  0  0  0  0  0  0  0  0
   45.6592   34.8945   40.8371 H   0  0  0  0  0  0  0  0  0  0  0  0
   47.1932   34.8267   39.0310 H   0  0  0  0  0  0  0  0  0  0  0  0
   47.9452   33.3259   39.5886 H   0  0  0  0  0  0  0  0  0  0  0  0
   49.5722   34.5268   40.6761 H   0  0  0  0  0  0  0  0  0  0  0  0
   48.8849   36.0211   40.0148 H   0  0  0  0  0  0  0  0  0  0  0  0
   48.9310   35.5233   42.7127 H   0  0  0  0  0  0  0  0  0  0  0  0
   47.6219   36.4434   42.0338 H   0  0  0  0  0  0  0  0  0  0  0  0
  1  6  2  0
  2  3  2  0
  2  1  1  0
  3  4  1  0
  4  5  2  0
  5  6  1  0
  5 12  1  0
  7  3  1  0
  8  7  1  0
  9 10  1  0
  9  8  1  0
 10 11  1  0
 11  7  1  0
 12 13  1  0
 12 15  1  0
 14 12  1  0
  1 16  1  0
  2 17  1  0
  7 18  1  0
  8 19  1  0
  8 20  1  0
  9 21  1  0
  9 22  1  0
 10 23  1  0
 10 24  1  0
 11 25  1  0
 11 26  1  0
M  ISO  8  16  14  17  14  18  13  19  13  20  13  21  13  22  13  23  13
M  ISO  3  24  13  25  13  26  13
M  END
>  <minimizedAffinity>  (1) 
-5.50842571

>  <minimizedRMSD>  (1) 
0.604593754

$$$$
