
     RDKit          3D

 22 23  0  0  0  0  0  0  0  0999 V2000
   44.4830   35.9450   44.7410 C   0  0  0  0  0  0  0  0  0  0  0  0
   45.1650   35.8800   43.4930 C   0  0  0  0  0  0  0  0  0  0  0  0
   46.0580   34.8250   43.3340 C   0  0  0  0  0  0  0  0  0  0  0  0
   46.2280   33.9390   44.3450 N   0  0  0  0  0  0  0  0  0  0  0  0
   45.5530   34.0410   45.5190 C   0  0  0  0  0  0  0  0  0  0  0  0
   44.6910   35.0370   45.7070 N   0  0  0  0  0  0  0  0  0  0  0  0
   46.7900   34.7040   42.0760 C   0  0  0  0  0  0  0  0  0  0  0  0
   48.0040   35.3450   41.9310 C   0  0  0  0  0  0  0  0  0  0  0  0
   48.6230   35.1690   40.6960 C   0  0  0  0  0  0  0  0  0  0  0  0
   48.0450   34.4020   39.7050 C   0  0  0  0  0  0  0  0  0  0  0  0
   46.8110   33.7730   39.9040 C   0  0  0  0  0  0  0  0  0  0  0  0
   46.2270   33.9560   41.1090 N   0  0  0  0  0  0  0  0  0  0  0  0
   45.8910   32.9730   46.4740 C   0  0  0  0  0  0  0  0  0  0  0  0
   47.1580   33.0700   47.0060 F   0  0  0  0  0  0  0  0  0  0  0  0
   45.6740   31.7440   45.8680 F   0  0  0  0  0  0  0  0  0  0  0  0
   45.0090   33.0500   47.5360 F   0  0  0  0  0  0  0  0  0  0  0  0
   43.7668   36.7609   44.9181 H   0  0  0  0  0  0  0  0  0  0  0  0
   44.9954   36.6222   42.6990 H   0  0  0  0  0  0  0  0  0  0  0  0
   48.4503   35.9511   42.7332 H   0  0  0  0  0  0  0  0  0  0  0  0
   49.5932   35.6515   40.5064 H   0  0  0  0  0  0  0  0  0  0  0  0
   48.5633   34.2831   38.7421 H   0  0  0  0  0  0  0  0  0  0  0  0
   46.3406   33.1612   39.1202 H   0  0  0  0  0  0  0  0  0  0  0  0
  1  6  2  0
  2  1  1  0
  3  2  2  0
  3  4  1  0
  4  5  2  0
  5  6  1  0
  5 13  1  0
  7  3  1  0
  8  7  2  0
  9  8  1  0
 10 11  1  0
 10  9  2  0
 11 12  2  0
 12  7  1  0
 13 14  1  0
 13 16  1  0
 15 13  1  0
  1 17  1  0
  2 18  1  0
  8 19  1  0
  9 20  1  0
 10 21  1  0
 11 22  1  0
M  ISO  6  17  14  18  14  19  14  20  14  21  14  22  14
M  END
>  <minimizedAffinity>  (1) 
-5.79825783

>  <minimizedRMSD>  (1) 
0.353893846

$$$$
