
     RDKit          3D

 29 30  0  0  0  0  0  0  0  0999 V2000
   44.6230   35.5880   44.8090 C   0  0  0  0  0  0  0  0  0  0  0  0
   45.3950   35.3910   43.6270 C   0  0  0  0  0  0  0  0  0  0  0  0
   46.2940   34.3290   43.6430 C   0  0  0  0  0  0  0  0  0  0  0  0
   46.3780   33.5640   44.7560 N   0  0  0  0  0  0  0  0  0  0  0  0
   45.6400   33.7740   45.8520 C   0  0  0  0  0  0  0  0  0  0  0  0
   44.7560   34.7930   45.8780 N   0  0  0  0  0  0  0  0  0  0  0  0
   47.1520   34.0370   42.4520 C   0  0  0  0  0  0  0  0  0  0  0  0
   48.5440   34.5610   42.5720 C   0  0  0  0  0  0  0  0  0  0  0  0
   48.7890   35.7260   41.6210 C   0  0  0  0  0  0  0  0  0  0  0  0
   48.7260   35.2150   40.2050 C   0  0  0  0  0  0  0  0  0  0  0  0
   47.5870   34.2540   40.0920 C   0  0  0  0  0  0  0  0  0  0  0  0
   46.5470   34.5800   41.1680 C   0  0  0  0  0  0  0  0  0  0  0  0
   45.8910   32.8190   46.9560 C   0  0  0  0  0  0  0  0  0  0  0  0
   47.1310   32.9010   47.5000 F   0  0  0  0  0  0  0  0  0  0  0  0
   45.6130   31.5400   46.4670 F   0  0  0  0  0  0  0  0  0  0  0  0
   44.9630   33.0530   47.9510 F   0  0  0  0  0  0  0  0  0  0  0  0
   43.8987   36.4152   44.8438 H   0  0  0  0  0  0  0  0  0  0  0  0
   45.2858   36.0440   42.7486 H   0  0  0  0  0  0  0  0  0  0  0  0
   47.1988   32.9387   42.4139 H   0  0  0  0  0  0  0  0  0  0  0  0
   48.7091   34.9024   43.6046 H   0  0  0  0  0  0  0  0  0  0  0  0
   49.2403   33.7508   42.3099 H   0  0  0  0  0  0  0  0  0  0  0  0
   48.0174   36.4953   41.7716 H   0  0  0  0  0  0  0  0  0  0  0  0
   49.7772   36.1679   41.8164 H   0  0  0  0  0  0  0  0  0  0  0  0
   48.5698   36.0568   39.5144 H   0  0  0  0  0  0  0  0  0  0  0  0
   49.6687   34.7105   39.9466 H   0  0  0  0  0  0  0  0  0  0  0  0
   47.1274   34.3431   39.0966 H   0  0  0  0  0  0  0  0  0  0  0  0
   47.9542   33.2265   40.2310 H   0  0  0  0  0  0  0  0  0  0  0  0
   46.3889   35.6661   41.2407 H   0  0  0  0  0  0  0  0  0  0  0  0
   45.5630   34.1401   40.9483 H   0  0  0  0  0  0  0  0  0  0  0  0
  1  6  2  0
  2  3  2  0
  2  1  1  0
  3  4  1  0
  4  5  2  0
  5  6  1  0
  5 13  1  0
  7  8  1  0
  7  3  1  0
  9  8  1  0
 10  9  1  0
 11 10  1  0
 11 12  1  0
 12  7  1  0
 13 14  1  0
 13 16  1  0
 15 13  1  0
  1 17  1  0
  2 18  1  0
  7 19  1  0
  8 20  1  0
  8 21  1  0
  9 22  1  0
  9 23  1  0
 10 24  1  0
 10 25  1  0
 11 26  1  0
 11 27  1  0
 12 28  1  0
 12 29  1  0
M  ISO  8  17  14  18  14  19  13  20  13  21  13  22  13  23  13  24  13
M  ISO  5  25  13  26  13  27  13  28  13  29  13
M  END
>  <minimizedAffinity>  (1) 
-5.92847872

>  <minimizedRMSD>  (1) 
0.632429957

$$$$
