
     RDKit          3D

 24 26  0  0  0  0  0  0  0  0999 V2000
   44.4690   35.9670   44.6590 C   0  0  0  0  0  0  0  0  0  0  0  0
   45.1810   35.9650   43.4390 C   0  0  0  0  0  0  0  0  0  0  0  0
   46.1160   34.9470   43.2680 C   0  0  0  0  0  0  0  0  0  0  0  0
   46.2820   34.0390   44.2660 N   0  0  0  0  0  0  0  0  0  0  0  0
   45.5830   34.0740   45.4180 C   0  0  0  0  0  0  0  0  0  0  0  0
   44.6770   35.0420   45.6050 N   0  0  0  0  0  0  0  0  0  0  0  0
   46.9170   34.8180   42.0780 N   0  0  0  0  0  0  0  0  0  0  0  0
   48.1560   35.3330   41.9730 C   0  0  0  0  0  0  0  0  0  0  0  0
   48.6540   35.0560   40.7540 N   0  0  0  0  0  0  0  0  0  0  0  0
   47.7130   34.3530   40.0730 C   0  0  0  0  0  0  0  0  0  0  0  0
   47.6990   33.8210   38.7930 C   0  0  0  0  0  0  0  0  0  0  0  0
   46.5730   33.1560   38.4070 N   0  0  0  0  0  0  0  0  0  0  0  0
   45.5180   33.0290   39.2530 C   0  0  0  0  0  0  0  0  0  0  0  0
   45.5230   33.5500   40.5150 N   0  0  0  0  0  0  0  0  0  0  0  0
   46.6260   34.2090   40.9120 C   0  0  0  0  0  0  0  0  0  0  0  0
   45.9110   33.0010   46.3710 C   0  0  0  0  0  0  0  0  0  0  0  0
   47.1750   33.0940   46.9000 F   0  0  0  0  0  0  0  0  0  0  0  0
   45.7260   31.7790   45.7250 F   0  0  0  0  0  0  0  0  0  0  0  0
   45.0120   33.0430   47.4150 F   0  0  0  0  0  0  0  0  0  0  0  0
   43.7203   36.7528   44.8377 H   0  0  0  0  0  0  0  0  0  0  0  0
   45.0063   36.7270   42.6651 H   0  0  0  0  0  0  0  0  0  0  0  0
   48.6801   35.8933   42.7612 H   0  0  0  0  0  0  0  0  0  0  0  0
   48.5600   33.9307   38.1172 H   0  0  0  0  0  0  0  0  0  0  0  0
   44.6257   32.4858   38.9083 H   0  0  0  0  0  0  0  0  0  0  0  0
  1  6  2  0
  2  1  1  0
  3  2  2  0
  3  4  1  0
  4  5  2  0
  5  6  1  0
  5 16  1  0
  7  3  1  0
  8  7  1  0
  9  8  2  0
 10  9  1  0
 10 15  2  0
 11 10  1  0
 12 11  2  0
 12 13  1  0
 13 14  2  0
 14 15  1  0
 15  7  1  0
 16 17  1  0
 16 19  1  0
 18 16  1  0
  1 20  1  0
  2 21  1  0
  8 22  1  0
 11 23  1  0
 13 24  1  0
M  ISO  5  20  14  21  14  22  14  23  14  24  14
M  END
>  <minimizedAffinity>  (1) 
-5.82759905

>  <minimizedRMSD>  (1) 
1.06069338

$$$$
