
     RDKit          3D

 20 21  0  0  0  0  0  0  0  0999 V2000
   44.5330   36.0000   44.4200 C   0  0  0  0  0  0  0  0  0  0  0  0
   45.3150   36.0150   43.2310 C   0  0  0  0  0  0  0  0  0  0  0  0
   46.2780   35.0140   43.1040 C   0  0  0  0  0  0  0  0  0  0  0  0
   46.4020   34.1080   44.1060 N   0  0  0  0  0  0  0  0  0  0  0  0
   45.6470   34.1200   45.2200 C   0  0  0  0  0  0  0  0  0  0  0  0
   44.7180   35.0700   45.3640 N   0  0  0  0  0  0  0  0  0  0  0  0
   47.1440   34.9220   41.9280 C   0  0  0  0  0  0  0  0  0  0  0  0
   46.8890   34.1970   40.8100 C   0  0  0  0  0  0  0  0  0  0  0  0
   47.9560   34.3750   39.9230 C   0  0  0  0  0  0  0  0  0  0  0  0
   48.8170   35.2040   40.5430 N   0  0  0  0  0  0  0  0  0  0  0  0
   48.3450   35.5350   41.7320 N   0  0  0  0  0  0  0  0  0  0  0  0
   45.9530   33.0390   46.1790 C   0  0  0  0  0  0  0  0  0  0  0  0
   47.2090   33.1100   46.7110 F   0  0  0  0  0  0  0  0  0  0  0  0
   45.7340   31.8250   45.5310 F   0  0  0  0  0  0  0  0  0  0  0  0
   45.0410   33.1090   47.2130 F   0  0  0  0  0  0  0  0  0  0  0  0
   43.7603   36.7691   44.5660 H   0  0  0  0  0  0  0  0  0  0  0  0
   45.1675   36.7773   42.4518 H   0  0  0  0  0  0  0  0  0  0  0  0
   45.9980   33.5769   40.6319 H   0  0  0  0  0  0  0  0  0  0  0  0
   48.0686   33.9291   38.9238 H   0  0  0  0  0  0  0  0  0  0  0  0
   49.7106   35.5314   40.1491 H   0  0  0  0  0  0  0  0  0  0  0  0
  1  6  2  0
  2  1  1  0
  3  2  2  0
  3  4  1  0
  4  5  2  0
  5  6  1  0
  5 12  1  0
  7  3  1  0
  8  7  1  0
  9 10  1  0
  9  8  2  0
 10 11  1  0
 11  7  2  0
 12 13  1  0
 12 15  1  0
 14 12  1  0
  1 16  1  0
  2 17  1  0
  8 18  1  0
  9 19  1  0
 10 20  1  0
M  ISO  5  16  14  17  14  18  14  19  14  20   9
M  END
>  <minimizedAffinity>  (1) 
-5.44147825

>  <minimizedRMSD>  (1) 
0.703056931

$$$$
