
     RDKit          3D

 27 28  0  0  0  0  0  0  0  0999 V2000
   44.6560   35.6970   44.5450 C   0  0  0  0  0  0  0  0  0  0  0  0
   45.5130   35.5450   43.4220 C   0  0  0  0  0  0  0  0  0  0  0  0
   46.4410   34.5110   43.4870 C   0  0  0  0  0  0  0  0  0  0  0  0
   46.4830   33.7220   44.5810 N   0  0  0  0  0  0  0  0  0  0  0  0
   45.6470   33.9000   45.6330 C   0  0  0  0  0  0  0  0  0  0  0  0
   44.7350   34.8850   45.6160 N   0  0  0  0  0  0  0  0  0  0  0  0
   47.3310   34.2970   42.3990 N   0  0  0  0  0  0  0  0  0  0  0  0
   46.8500   34.1080   41.0700 C   0  0  0  0  0  0  0  0  0  0  0  0
   47.9980   34.5480   40.1530 C   0  0  0  0  0  0  0  0  0  0  0  0
   49.1640   33.7310   40.3510 N   0  0  0  0  0  0  0  0  0  0  0  0
   49.3520   33.2600   41.6950 C   0  0  0  0  0  0  0  0  0  0  0  0
   48.7600   34.2730   42.6520 C   0  0  0  0  0  0  0  0  0  0  0  0
   45.8620   32.9290   46.7240 C   0  0  0  0  0  0  0  0  0  0  0  0
   47.0950   33.0180   47.3300 F   0  0  0  0  0  0  0  0  0  0  0  0
   45.6310   31.6570   46.2300 F   0  0  0  0  0  0  0  0  0  0  0  0
   44.9090   33.1660   47.7010 F   0  0  0  0  0  0  0  0  0  0  0  0
   43.9060   36.5017   44.5392 H   0  0  0  0  0  0  0  0  0  0  0  0
   45.4462   36.2095   42.5479 H   0  0  0  0  0  0  0  0  0  0  0  0
   46.6036   33.0500   40.8970 H   0  0  0  0  0  0  0  0  0  0  0  0
   45.9328   34.6853   40.8817 H   0  0  0  0  0  0  0  0  0  0  0  0
   48.2521   35.5953   40.3735 H   0  0  0  0  0  0  0  0  0  0  0  0
   47.6703   34.4400   39.1085 H   0  0  0  0  0  0  0  0  0  0  0  0
   49.0888   32.9110   39.7323 H   0  0  0  0  0  0  0  0  0  0  0  0
   48.8463   32.2914   41.8219 H   0  0  0  0  0  0  0  0  0  0  0  0
   50.4251   33.1328   41.9007 H   0  0  0  0  0  0  0  0  0  0  0  0
   49.1945   35.2669   42.4692 H   0  0  0  0  0  0  0  0  0  0  0  0
   48.9733   34.0033   43.6969 H   0  0  0  0  0  0  0  0  0  0  0  0
  1  6  2  0
  2  3  2  0
  2  1  1  0
  3  4  1  0
  4  5  2  0
  5 13  1  0
  6  5  1  0
  7 12  1  0
  7  3  1  0
  8  7  1  0
  9 10  1  0
  9  8  1  0
 10 11  1  0
 11 12  1  0
 13 14  1  0
 13 16  1  0
 15 13  1  0
  1 17  1  0
  2 18  1  0
  8 19  1  0
  8 20  1  0
  9 21  1  0
  9 22  1  0
 10 23  1  0
 11 24  1  0
 11 25  1  0
 12 26  1  0
 12 27  1  0
M  ISO  8  17  14  18  14  19  13  20  13  21  13  22  13  23   5  24  13
M  ISO  3  25  13  26  13  27  13
M  END
>  <minimizedAffinity>  (1) 
-5.25053453

>  <minimizedRMSD>  (1) 
0.771755099

$$$$
