
     RDKit          3D

 20 20  0  0  0  0  0  0  0  0999 V2000
   44.5410   36.0240   44.4720 C   0  0  0  0  0  0  0  0  0  0  0  0
   45.2640   35.9810   43.2670 C   0  0  0  0  0  0  0  0  0  0  0  0
   46.1850   34.9280   43.1390 C   0  0  0  0  0  0  0  0  0  0  0  0
   46.3180   34.0440   44.1510 N   0  0  0  0  0  0  0  0  0  0  0  0
   45.6080   34.1190   45.2880 C   0  0  0  0  0  0  0  0  0  0  0  0
   44.7190   35.1180   45.4360 N   0  0  0  0  0  0  0  0  0  0  0  0
   46.9920   34.7670   41.9540 N   0  0  0  0  0  0  0  0  0  0  0  0
   48.4110   34.9680   41.9730 C   0  0  0  0  0  0  0  0  0  0  0  0
   49.0030   34.6120   43.0820 N   0  0  0  0  0  0  0  0  0  0  0  0
   48.9630   35.5340   40.7670 N   0  0  0  0  0  0  0  0  0  0  0  0
   50.0320   34.7310   43.1640 H   0  0  0  0  0  0  0  0  0  0  0  0
   45.8910   33.0680   46.2740 C   0  0  0  0  0  0  0  0  0  0  0  0
   47.1510   33.1390   46.8200 F   0  0  0  0  0  0  0  0  0  0  0  0
   45.6780   31.8390   45.6610 F   0  0  0  0  0  0  0  0  0  0  0  0
   44.9710   33.1470   47.3010 F   0  0  0  0  0  0  0  0  0  0  0  0
   43.8065   36.8285   44.6250 H   0  0  0  0  0  0  0  0  0  0  0  0
   45.1173   36.7271   42.4721 H   0  0  0  0  0  0  0  0  0  0  0  0
   46.5358   34.5002   41.0699 H   0  0  0  0  0  0  0  0  0  0  0  0
   49.9753   35.7108   40.6975 H   0  0  0  0  0  0  0  0  0  0  0  0
   48.3449   35.7615   39.9751 H   0  0  0  0  0  0  0  0  0  0  0  0
  1  6  2  0
  2  1  1  0
  3  2  2  0
  3  4  1  0
  4  5  2  0
  5  6  1  0
  5 12  1  0
  7  8  1  0
  7  3  1  0
  8  9  2  0
  9 11  1  0
 10  8  1  0
 12 13  1  0
 12 15  1  0
 14 12  1  0
  1 16  1  0
  2 17  1  0
  7 18  1  0
 10 19  1  0
 10 20  1  0
M  ISO  2  16  14  17  14
M  END
>  <minimizedAffinity>  (1) 
-5.32580566

>  <minimizedRMSD>  (1) 
1.17431736

$$$$
