
     RDKit          3D

 20 21  0  0  0  0  0  0  0  0999 V2000
   44.4710   35.9650   44.7080 C   0  0  0  0  0  0  0  0  0  0  0  0
   45.1650   35.9300   43.4810 C   0  0  0  0  0  0  0  0  0  0  0  0
   46.0800   34.8950   43.3080 C   0  0  0  0  0  0  0  0  0  0  0  0
   46.2590   33.9920   44.3010 N   0  0  0  0  0  0  0  0  0  0  0  0
   45.5710   34.0640   45.4650 C   0  0  0  0  0  0  0  0  0  0  0  0
   44.6760   35.0510   45.6690 N   0  0  0  0  0  0  0  0  0  0  0  0
   46.8460   34.7770   42.0720 C   0  0  0  0  0  0  0  0  0  0  0  0
   46.4140   34.1250   40.9360 C   0  0  0  0  0  0  0  0  0  0  0  0
   47.4070   34.2510   40.0390 N   0  0  0  0  0  0  0  0  0  0  0  0
   48.3960   34.9600   40.6370 C   0  0  0  0  0  0  0  0  0  0  0  0
   48.0730   35.3000   41.9020 N   0  0  0  0  0  0  0  0  0  0  0  0
   45.9030   32.9920   46.4210 C   0  0  0  0  0  0  0  0  0  0  0  0
   47.1760   33.0800   46.9370 F   0  0  0  0  0  0  0  0  0  0  0  0
   45.6960   31.7710   45.7960 F   0  0  0  0  0  0  0  0  0  0  0  0
   45.0090   33.0430   47.4670 F   0  0  0  0  0  0  0  0  0  0  0  0
   43.7385   36.7668   44.8830 H   0  0  0  0  0  0  0  0  0  0  0  0
   44.9919   36.6837   42.6987 H   0  0  0  0  0  0  0  0  0  0  0  0
   45.4537   33.6079   40.7933 H   0  0  0  0  0  0  0  0  0  0  0  0
   49.3459   35.2256   40.1501 H   0  0  0  0  0  0  0  0  0  0  0  0
   48.6350   35.8351   42.5793 H   0  0  0  0  0  0  0  0  0  0  0  0
  1  6  2  0
  2  1  1  0
  3  2  2  0
  3  4  1  0
  4  5  2  0
  5  6  1  0
  5 12  1  0
  7  3  1  0
  8  7  2  0
  9 10  2  0
  9  8  1  0
 10 11  1  0
 11  7  1  0
 12 13  1  0
 12 15  1  0
 14 12  1  0
  1 16  1  0
  2 17  1  0
  8 18  1  0
 10 19  1  0
 11 20  1  0
M  ISO  5  16  14  17  14  18  14  19  14  20   9
M  END
>  <minimizedAffinity>  (1) 
-5.13211536

>  <minimizedRMSD>  (1) 
0.637596309

$$$$
