
     RDKit          3D

 22 22  0  0  0  0  0  0  0  0999 V2000
   44.5920   35.7750   44.6680 C   0  0  0  0  0  0  0  0  0  0  0  0
   45.2830   35.5880   43.4510 C   0  0  0  0  0  0  0  0  0  0  0  0
   46.1540   34.5040   43.3920 C   0  0  0  0  0  0  0  0  0  0  0  0
   46.2890   33.7010   44.4820 N   0  0  0  0  0  0  0  0  0  0  0  0
   45.6070   33.9180   45.6240 C   0  0  0  0  0  0  0  0  0  0  0  0
   44.7540   34.9520   45.7320 N   0  0  0  0  0  0  0  0  0  0  0  0
   45.9090   32.9230   46.6690 C   0  0  0  0  0  0  0  0  0  0  0  0
   47.1460   33.0290   47.2180 F   0  0  0  0  0  0  0  0  0  0  0  0
   45.6380   31.6560   46.1520 F   0  0  0  0  0  0  0  0  0  0  0  0
   44.9920   33.1050   47.7040 F   0  0  0  0  0  0  0  0  0  0  0  0
   46.9040   34.2680   42.1300 C   0  0  0  0  0  0  0  0  0  0  0  0
   45.9720   34.2910   40.9340 C   0  0  0  0  0  0  0  0  0  0  0  0
   47.9760   35.3000   41.9200 C   0  0  0  0  0  0  0  0  0  0  0  0
   43.8952   36.6216   44.7557 H   0  0  0  0  0  0  0  0  0  0  0  0
   45.1405   36.2635   42.5946 H   0  0  0  0  0  0  0  0  0  0  0  0
   47.3714   33.2765   42.2218 H   0  0  0  0  0  0  0  0  0  0  0  0
   44.9290   34.3167   41.2824 H   0  0  0  0  0  0  0  0  0  0  0  0
   46.1777   35.1843   40.3260 H   0  0  0  0  0  0  0  0  0  0  0  0
   46.1333   33.3886   40.3260 H   0  0  0  0  0  0  0  0  0  0  0  0
   48.3420   35.6523   42.8957 H   0  0  0  0  0  0  0  0  0  0  0  0
   48.8083   34.8545   41.3553 H   0  0  0  0  0  0  0  0  0  0  0  0
   47.5625   36.1486   41.3553 H   0  0  0  0  0  0  0  0  0  0  0  0
  1  6  2  0
  2  1  1  0
  3  2  2  0
  3  4  1  0
  4  5  2  0
  5  6  1  0
  5  7  1  0
  7  8  1  0
  7 10  1  0
  9  7  1  0
 11  3  1  0
 12 11  1  0
 13 11  1  0
  1 14  1  0
  2 15  1  0
 11 16  1  0
 12 17  1  0
 12 18  1  0
 12 19  1  0
 13 20  1  0
 13 21  1  0
 13 22  1  0
M  ISO  8  14  14  15  14  16   8  17   8  18   8  19   8  20   8  21   8
M  ISO  1  22   8
M  END
>  <minimizedAffinity>  (1) 
-4.70771217

>  <minimizedRMSD>  (1) 
0.314481348

$$$$
