
     RDKit          3D

 16 16  0  0  0  0  0  0  0  0999 V2000
   44.5370   35.9830   44.5300 C   0  0  0  0  0  0  0  0  0  0  0  0
   45.2610   35.9030   43.3260 C   0  0  0  0  0  0  0  0  0  0  0  0
   46.1650   34.8490   43.2220 C   0  0  0  0  0  0  0  0  0  0  0  0
   46.2990   33.9840   44.2490 N   0  0  0  0  0  0  0  0  0  0  0  0
   45.5820   34.1010   45.3890 C   0  0  0  0  0  0  0  0  0  0  0  0
   44.7090   35.0960   45.5240 N   0  0  0  0  0  0  0  0  0  0  0  0
   45.8820   33.0470   46.3920 C   0  0  0  0  0  0  0  0  0  0  0  0
   47.1300   33.1420   46.9410 F   0  0  0  0  0  0  0  0  0  0  0  0
   45.6450   31.8130   45.8010 F   0  0  0  0  0  0  0  0  0  0  0  0
   44.9610   33.1760   47.4260 F   0  0  0  0  0  0  0  0  0  0  0  0
   46.9570   34.7200   41.9620 C   0  0  0  0  0  0  0  0  0  0  0  0
   47.8640   35.7380   41.8990 F   0  0  0  0  0  0  0  0  0  0  0  0
   47.7090   33.5380   42.0180 F   0  0  0  0  0  0  0  0  0  0  0  0
   46.1550   34.6220   40.8600 F   0  0  0  0  0  0  0  0  0  0  0  0
   43.8082   36.7964   44.6611 H   0  0  0  0  0  0  0  0  0  0  0  0
   45.1209   36.6313   42.5136 H   0  0  0  0  0  0  0  0  0  0  0  0
  1  6  2  0
  2  1  1  0
  3  2  2  0
  3  4  1  0
  4  5  2  0
  5  6  1  0
  5  7  1  0
  7  8  1  0
  7 10  1  0
  9  7  1  0
 11 13  1  0
 11  3  1  0
 12 11  1  0
 14 11  1  0
  1 15  1  0
  2 16  1  0
M  ISO  2  15  14  16  14
M  END
>  <minimizedAffinity>  (1) 
-4.89170027

>  <minimizedRMSD>  (1) 
0.170232236

$$$$
