
     RDKit          3D

 15 15  0  0  0  0  0  0  0  0999 V2000
   44.5130   35.9730   44.5710 C   0  0  0  0  0  0  0  0  0  0  0  0
   45.2430   35.8900   43.3530 C   0  0  0  0  0  0  0  0  0  0  0  0
   46.1530   34.8440   43.2410 C   0  0  0  0  0  0  0  0  0  0  0  0
   46.2970   33.9770   44.2690 N   0  0  0  0  0  0  0  0  0  0  0  0
   45.5810   34.0940   45.4110 C   0  0  0  0  0  0  0  0  0  0  0  0
   44.6960   35.0870   45.5550 N   0  0  0  0  0  0  0  0  0  0  0  0
   45.8960   33.0410   46.4030 C   0  0  0  0  0  0  0  0  0  0  0  0
   47.1330   33.1300   46.9570 F   0  0  0  0  0  0  0  0  0  0  0  0
   45.6440   31.8060   45.8240 F   0  0  0  0  0  0  0  0  0  0  0  0
   44.9750   33.1430   47.4440 F   0  0  0  0  0  0  0  0  0  0  0  0
   46.9360   34.6990   42.0190 C   0  0  0  0  0  0  0  0  0  0  0  0
   47.9470   35.3840   41.8300 O   0  0  0  0  0  0  0  0  0  0  0  0
   43.7821   36.7839   44.7061 H   0  0  0  0  0  0  0  0  0  0  0  0
   45.0953   36.6166   42.5404 H   0  0  0  0  0  0  0  0  0  0  0  0
   46.6227   33.9709   41.2563 H   0  0  0  0  0  0  0  0  0  0  0  0
  1  6  2  0
  2  1  1  0
  3  2  2  0
  3  4  1  0
  4  5  2  0
  5  6  1  0
  5  7  1  0
  7  8  1  0
  7 10  1  0
  9  7  1  0
 11  3  1  0
 12 11  2  0
  1 13  1  0
  2 14  1  0
 11 15  1  0
M  ISO  3  13  14  14  14  15   6
M  END
>  <minimizedAffinity>  (1) 
-4.24782085

>  <minimizedRMSD>  (1) 
0.1990477

$$$$
