
     RDKit          3D

 20 21  0  0  0  0  0  0  0  0999 V2000
   44.4660   35.9820   44.7200 C   0  0  0  0  0  0  0  0  0  0  0  0
   45.1460   35.9480   43.4680 C   0  0  0  0  0  0  0  0  0  0  0  0
   46.0490   34.9050   43.2870 C   0  0  0  0  0  0  0  0  0  0  0  0
   46.2270   34.0040   44.2820 N   0  0  0  0  0  0  0  0  0  0  0  0
   45.5720   34.0650   45.4470 C   0  0  0  0  0  0  0  0  0  0  0  0
   44.6860   35.0600   45.6670 N   0  0  0  0  0  0  0  0  0  0  0  0
   46.7940   34.7650   42.0660 N   0  0  0  0  0  0  0  0  0  0  0  0
   48.0400   35.2400   41.9390 C   0  0  0  0  0  0  0  0  0  0  0  0
   48.4090   34.9210   40.6620 C   0  0  0  0  0  0  0  0  0  0  0  0
   47.3890   34.2750   40.0710 N   0  0  0  0  0  0  0  0  0  0  0  0
   46.3750   34.1730   40.9400 C   0  0  0  0  0  0  0  0  0  0  0  0
   45.9140   32.9810   46.4010 C   0  0  0  0  0  0  0  0  0  0  0  0
   47.1720   33.0940   46.9190 F   0  0  0  0  0  0  0  0  0  0  0  0
   45.7150   31.7730   45.7590 F   0  0  0  0  0  0  0  0  0  0  0  0
   45.0160   33.0320   47.4440 F   0  0  0  0  0  0  0  0  0  0  0  0
   43.7413   36.7865   44.9140 H   0  0  0  0  0  0  0  0  0  0  0  0
   44.9671   36.7036   42.6888 H   0  0  0  0  0  0  0  0  0  0  0  0
   48.6358   35.7705   42.6964 H   0  0  0  0  0  0  0  0  0  0  0  0
   49.3779   35.1538   40.1962 H   0  0  0  0  0  0  0  0  0  0  0  0
   45.3976   33.6997   40.7647 H   0  0  0  0  0  0  0  0  0  0  0  0
  1  6  2  0
  2  1  1  0
  3  2  2  0
  3  4  1  0
  4  5  2  0
  5  6  1  0
  5 12  1  0
  7  3  1  0
  8  7  1  0
  9  8  2  0
 10  9  1  0
 10 11  2  0
 11  7  1  0
 12 13  1  0
 12 15  1  0
 14 12  1  0
  1 16  1  0
  2 17  1  0
  8 18  1  0
  9 19  1  0
 11 20  1  0
M  ISO  5  16  14  17  14  18  14  19  14  20  14
M  END
>  <minimizedAffinity>  (1) 
-5.11034536

>  <minimizedRMSD>  (1) 
0.24815999

$$$$
