
     RDKit          3D

 14 14  0  0  0  0  0  0  0  0999 V2000
   44.5390   35.9670   44.5680 C   0  0  0  0  0  0  0  0  0  0  0  0
   45.2420   35.8620   43.3570 C   0  0  0  0  0  0  0  0  0  0  0  0
   46.1380   34.7880   43.2460 C   0  0  0  0  0  0  0  0  0  0  0  0
   46.2670   33.9380   44.2910 N   0  0  0  0  0  0  0  0  0  0  0  0
   45.5760   34.0750   45.4290 C   0  0  0  0  0  0  0  0  0  0  0  0
   44.7030   35.0900   45.5840 N   0  0  0  0  0  0  0  0  0  0  0  0
   45.8700   33.0340   46.4440 C   0  0  0  0  0  0  0  0  0  0  0  0
   47.1340   33.1350   46.9800 F   0  0  0  0  0  0  0  0  0  0  0  0
   45.6480   31.8000   45.8730 F   0  0  0  0  0  0  0  0  0  0  0  0
   44.9680   33.1690   47.4760 F   0  0  0  0  0  0  0  0  0  0  0  0
   47.0840   34.5610   41.7460 S   0  0  0  0  0  0  0  0  0  0  0  0
   43.8267   36.7955   44.6952 H   0  0  0  0  0  0  0  0  0  0  0  0
   45.0979   36.5832   42.5390 H   0  0  0  0  0  0  0  0  0  0  0  0
   48.3794   34.2502   42.0657 H   0  0  0  0  0  0  0  0  0  0  0  0
  1  6  2  0
  2  1  1  0
  3  2  2  0
  3  4  1  0
  4  5  2  0
  5  6  1  0
  5  7  1  0
  7  8  1  0
  7 10  1  0
  9  7  1  0
 11  3  1  0
  1 12  1  0
  2 13  1  0
 11 14  1  0
M  ISO  3  12  14  13  14  14  11
M  END
>  <minimizedAffinity>  (1) 
-4.1479969

>  <minimizedRMSD>  (1) 
0.0164522883

$$$$
