
     RDKit          3D

 30 32  0  0  0  0  0  0  0  0999 V2000
   46.5950   34.6800   42.1390 N   0  0  0  0  0  0  0  0  0  0  0  0
   47.8780   35.0130   41.9570 C   0  0  0  0  0  0  0  0  0  0  0  0
   48.1570   34.7090   40.6580 C   0  0  0  0  0  0  0  0  0  0  0  0
   47.0450   34.2090   40.1030 N   0  0  0  0  0  0  0  0  0  0  0  0
   46.0740   34.1880   41.0190 C   0  0  0  0  0  0  0  0  0  0  0  0
   44.7520   33.7190   40.7820 N   0  0  0  0  0  0  0  0  0  0  0  0
   44.2880   33.4330   39.5330 C   0  0  0  0  0  0  0  0  0  0  0  0
   42.9790   32.9740   39.3510 C   0  0  0  0  0  0  0  0  0  0  0  0
   42.1220   32.7960   40.4370 C   0  0  0  0  0  0  0  0  0  0  0  0
   40.9400   32.3840   40.3050 O   0  0  0  0  0  0  0  0  0  0  0  0
   42.6340   33.0920   41.6450 N   0  0  0  0  0  0  0  0  0  0  0  0
   43.8950   33.5330   41.8050 C   0  0  0  0  0  0  0  0  0  0  0  0
   44.3290   33.8000   42.9690 O   0  0  0  0  0  0  0  0  0  0  0  0
   44.4730   36.0120   44.9080 C   0  0  0  0  0  0  0  0  0  0  0  0
   45.0810   35.9420   43.6270 C   0  0  0  0  0  0  0  0  0  0  0  0
   45.9290   34.8520   43.3890 C   0  0  0  0  0  0  0  0  0  0  0  0
   46.1060   33.9580   44.3820 N   0  0  0  0  0  0  0  0  0  0  0  0
   45.5210   34.0480   45.5790 C   0  0  0  0  0  0  0  0  0  0  0  0
   44.6990   35.0760   45.8490 N   0  0  0  0  0  0  0  0  0  0  0  0
   45.8670   32.9390   46.5160 C   0  0  0  0  0  0  0  0  0  0  0  0
   47.1340   33.0570   47.0310 F   0  0  0  0  0  0  0  0  0  0  0  0
   45.6610   31.7440   45.8620 F   0  0  0  0  0  0  0  0  0  0  0  0
   44.9900   32.9960   47.5700 F   0  0  0  0  0  0  0  0  0  0  0  0
   48.5648   35.4428   42.7010 H   0  0  0  0  0  0  0  0  0  0  0  0
   49.1247   34.8495   40.1542 H   0  0  0  0  0  0  0  0  0  0  0  0
   44.9471   33.5639   38.6621 H   0  0  0  0  0  0  0  0  0  0  0  0
   42.6201   32.7500   38.3356 H   0  0  0  0  0  0  0  0  0  0  0  0
   42.0391   32.9769   42.4779 H   0  0  0  0  0  0  0  0  0  0  0  0
   43.8006   36.8518   45.1374 H   0  0  0  0  0  0  0  0  0  0  0  0
   44.8954   36.7066   42.8583 H   0  0  0  0  0  0  0  0  0  0  0  0
  1 16  1  0
  2  1  1  0
  3  2  2  0
  4  3  1  0
  4  5  2  0
  5  1  1  0
  6  5  1  0
  6 12  1  0
  7  6  1  0
  8  7  2  0
  8  9  1  0
  9 11  1  0
 10  9  2  0
 11 12  1  0
 12 13  2  0
 14 19  2  0
 15 14  1  0
 16 15  2  0
 16 17  1  0
 17 18  2  0
 18 19  1  0
 18 20  1  0
 20 21  1  0
 20 23  1  0
 22 20  1  0
  2 24  1  0
  3 25  1  0
  7 26  1  0
  8 27  1  0
 11 28  1  0
 14 29  1  0
 15 30  1  0
M  ISO  7  24  14  25  14  26  14  27  14  28   9  29  14  30  14
M  END
>  <minimizedAffinity>  (1) 
-6.54216909

>  <minimizedRMSD>  (1) 
0.396856785

$$$$
