
     RDKit          3D

 33 35  0  0  0  0  0  0  0  0999 V2000
   46.7580   34.7690   42.1240 N   0  0  0  0  0  0  0  0  0  0  0  0
   48.0490   35.0710   42.0340 C   0  0  0  0  0  0  0  0  0  0  0  0
   48.3940   34.8100   40.7410 C   0  0  0  0  0  0  0  0  0  0  0  0
   47.3020   34.3640   40.1050 N   0  0  0  0  0  0  0  0  0  0  0  0
   46.2810   34.3370   40.9610 C   0  0  0  0  0  0  0  0  0  0  0  0
   44.9600   33.9190   40.6410 N   0  0  0  0  0  0  0  0  0  0  0  0
   44.0360   34.7710   41.1710 C   0  0  0  0  0  0  0  0  0  0  0  0
   42.6780   34.5120   40.9540 C   0  0  0  0  0  0  0  0  0  0  0  0
   41.5920   35.3940   41.4970 C   0  0  0  0  0  0  0  0  0  0  0  0
   42.2750   33.4130   40.2170 C   0  0  0  0  0  0  0  0  0  0  0  0
   41.0650   33.1800   40.0220 O   0  0  0  0  0  0  0  0  0  0  0  0
   43.2510   32.6240   39.7310 N   0  0  0  0  0  0  0  0  0  0  0  0
   44.5500   32.8550   39.9260 C   0  0  0  0  0  0  0  0  0  0  0  0
   45.4970   32.1490   39.4930 O   0  0  0  0  0  0  0  0  0  0  0  0
   44.4860   36.0300   44.8090 C   0  0  0  0  0  0  0  0  0  0  0  0
   45.1570   35.9870   43.5550 C   0  0  0  0  0  0  0  0  0  0  0  0
   46.0270   34.9160   43.3490 C   0  0  0  0  0  0  0  0  0  0  0  0
   46.1730   34.0060   44.3340 N   0  0  0  0  0  0  0  0  0  0  0  0
   45.5250   34.0770   45.5030 C   0  0  0  0  0  0  0  0  0  0  0  0
   44.6760   35.0910   45.7450 N   0  0  0  0  0  0  0  0  0  0  0  0
   45.8290   32.9710   46.4500 C   0  0  0  0  0  0  0  0  0  0  0  0
   47.0860   33.0580   46.9930 F   0  0  0  0  0  0  0  0  0  0  0  0
   45.6380   31.7730   45.7770 F   0  0  0  0  0  0  0  0  0  0  0  0
   44.9150   33.0170   47.4740 F   0  0  0  0  0  0  0  0  0  0  0  0
   48.7015   35.4513   42.8338 H   0  0  0  0  0  0  0  0  0  0  0  0
   49.3922   34.9422   40.2982 H   0  0  0  0  0  0  0  0  0  0  0  0
   44.3525   35.6456   41.7582 H   0  0  0  0  0  0  0  0  0  0  0  0
   41.6179   35.3729   42.5965 H   0  0  0  0  0  0  0  0  0  0  0  0
   41.7472   36.4250   41.1463 H   0  0  0  0  0  0  0  0  0  0  0  0
   40.6148   35.0306   41.1463 H   0  0  0  0  0  0  0  0  0  0  0  0
   42.9803   31.7976   39.1790 H   0  0  0  0  0  0  0  0  0  0  0  0
   43.7916   36.8578   45.0155 H   0  0  0  0  0  0  0  0  0  0  0  0
   44.9979   36.7586   42.7873 H   0  0  0  0  0  0  0  0  0  0  0  0
  1 17  1  0
  2  1  1  0
  3  2  2  0
  4  3  1  0
  4  5  2  0
  5  1  1  0
  6  5  1  0
  6  7  1  0
  8  7  2  0
  8  9  1  0
 10  8  1  0
 11 10  2  0
 12 13  1  0
 12 10  1  0
 13  6  1  0
 14 13  2  0
 15 20  2  0
 16 15  1  0
 17 16  2  0
 17 18  1  0
 18 19  2  0
 19 20  1  0
 19 21  1  0
 21 22  1  0
 21 24  1  0
 23 21  1  0
  2 25  1  0
  3 26  1  0
  7 27  1  0
  9 28  1  0
  9 29  1  0
  9 30  1  0
 12 31  1  0
 15 32  1  0
 16 33  1  0
M  ISO  8  25  14  26  14  27  14  28   8  29   8  30   8  31   9  32  14
M  ISO  1  33  14
M  END
>  <minimizedAffinity>  (1) 
-6.87113523

>  <minimizedRMSD>  (1) 
0.437523425

$$$$
