
     RDKit          3D

 36 39  0  0  0  0  0  0  0  0999 V2000
   45.9090   34.3450   42.0020 N   0  0  0  0  0  0  0  0  0  0  0  0
   47.2230   34.2380   41.7030 C   0  0  0  0  0  0  0  0  0  0  0  0
   47.2670   33.9690   40.3810 C   0  0  0  0  0  0  0  0  0  0  0  0
   46.0260   33.9230   39.9470 N   0  0  0  0  0  0  0  0  0  0  0  0
   45.1370   34.1550   40.9390 C   0  0  0  0  0  0  0  0  0  0  0  0
   43.6880   34.1980   40.8180 C   0  0  0  0  0  0  0  0  0  0  0  0
   42.9770   35.2170   40.2290 C   0  0  0  0  0  0  0  0  0  0  0  0
   41.6220   35.2930   40.0750 C   0  0  0  0  0  0  0  0  0  0  0  0
   40.8360   34.2690   40.5410 C   0  0  0  0  0  0  0  0  0  0  0  0
   41.4650   33.2130   41.1430 C   0  0  0  0  0  0  0  0  0  0  0  0
   40.6540   32.1960   41.5970 C   0  0  0  0  0  0  0  0  0  0  0  0
   41.2010   31.0900   42.2100 C   0  0  0  0  0  0  0  0  0  0  0  0
   42.5750   31.0340   42.3540 C   0  0  0  0  0  0  0  0  0  0  0  0
   43.3220   32.0860   41.8760 C   0  0  0  0  0  0  0  0  0  0  0  0
   42.8470   33.2090   41.2600 C   0  0  0  0  0  0  0  0  0  0  0  0
   44.4310   36.0110   45.0070 C   0  0  0  0  0  0  0  0  0  0  0  0
   44.7930   35.8310   43.6390 C   0  0  0  0  0  0  0  0  0  0  0  0
   45.4980   34.6490   43.3500 C   0  0  0  0  0  0  0  0  0  0  0  0
   45.7960   33.7640   44.3450 N   0  0  0  0  0  0  0  0  0  0  0  0
   45.4200   34.0030   45.6170 C   0  0  0  0  0  0  0  0  0  0  0  0
   44.7400   35.1220   45.9490 N   0  0  0  0  0  0  0  0  0  0  0  0
   45.8310   32.9290   46.5570 C   0  0  0  0  0  0  0  0  0  0  0  0
   47.0930   33.0710   47.0290 F   0  0  0  0  0  0  0  0  0  0  0  0
   45.6380   31.7090   45.9220 F   0  0  0  0  0  0  0  0  0  0  0  0
   44.9600   32.9360   47.6280 F   0  0  0  0  0  0  0  0  0  0  0  0
   48.0748   34.3469   42.3905 H   0  0  0  0  0  0  0  0  0  0  0  0
   48.1739   33.8163   39.7775 H   0  0  0  0  0  0  0  0  0  0  0  0
   43.5630   36.0626   39.8397 H   0  0  0  0  0  0  0  0  0  0  0  0
   41.1660   36.1649   39.5832 H   0  0  0  0  0  0  0  0  0  0  0  0
   39.7415   34.2960   40.4346 H   0  0  0  0  0  0  0  0  0  0  0  0
   39.5638   32.2674   41.4694 H   0  0  0  0  0  0  0  0  0  0  0  0
   40.5614   30.2730   42.5753 H   0  0  0  0  0  0  0  0  0  0  0  0
   43.0578   30.1719   42.8375 H   0  0  0  0  0  0  0  0  0  0  0  0
   44.4124   32.0156   42.0027 H   0  0  0  0  0  0  0  0  0  0  0  0
   43.8767   36.9167   45.2941 H   0  0  0  0  0  0  0  0  0  0  0  0
   44.5379   36.5672   42.8625 H   0  0  0  0  0  0  0  0  0  0  0  0
  1 18  1  0
  2  1  1  0
  3  2  2  0
  4  3  1  0
  4  5  2  0
  5  1  1  0
  6  5  1  0
  6 15  1  0
  7  6  2  0
  8  7  1  0
  8  9  2  0
  9 10  1  0
 10 15  2  0
 10 11  1  0
 11 12  2  0
 12 13  1  0
 14 13  2  0
 15 14  1  0
 16 21  2  0
 17 16  1  0
 18 17  2  0
 18 19  1  0
 19 20  2  0
 20 21  1  0
 20 22  1  0
 22 23  1  0
 22 25  1  0
 24 22  1  0
  2 26  1  0
  3 27  1  0
  7 28  1  0
  8 29  1  0
  9 30  1  0
 11 31  1  0
 12 32  1  0
 13 33  1  0
 14 34  1  0
 16 35  1  0
 17 36  1  0
M  ISO  8  26  14  27  14  28  14  29  14  30  14  31  14  32  14  33  14
M  ISO  3  34  14  35  14  36  14
M  END
>  <minimizedAffinity>  (1) 
-6.52536488

>  <minimizedRMSD>  (1) 
2.46675658

$$$$
