
     RDKit          3D

 30 32  0  0  0  0  0  0  0  0999 V2000
   46.5800   34.6830   42.1400 N   0  0  0  0  0  0  0  0  0  0  0  0
   47.8830   34.9900   41.9940 C   0  0  0  0  0  0  0  0  0  0  0  0
   48.1680   34.7050   40.6920 C   0  0  0  0  0  0  0  0  0  0  0  0
   47.0460   34.2410   40.0990 N   0  0  0  0  0  0  0  0  0  0  0  0
   46.0500   34.2290   41.0100 C   0  0  0  0  0  0  0  0  0  0  0  0
   44.7070   33.7950   40.7400 C   0  0  0  0  0  0  0  0  0  0  0  0
   43.8740   34.8580   40.3680 C   0  0  0  0  0  0  0  0  0  0  0  0
   42.5410   34.6880   40.0620 C   0  0  0  0  0  0  0  0  0  0  0  0
   41.9990   33.4190   40.1210 C   0  0  0  0  0  0  0  0  0  0  0  0
   42.8040   32.3600   40.4870 C   0  0  0  0  0  0  0  0  0  0  0  0
   44.1380   32.5390   40.7920 C   0  0  0  0  0  0  0  0  0  0  0  0
   44.4490   35.9960   44.9160 C   0  0  0  0  0  0  0  0  0  0  0  0
   45.0590   35.9320   43.6320 C   0  0  0  0  0  0  0  0  0  0  0  0
   45.9130   34.8520   43.3910 C   0  0  0  0  0  0  0  0  0  0  0  0
   46.0980   33.9540   44.3870 N   0  0  0  0  0  0  0  0  0  0  0  0
   45.5130   34.0400   45.5870 C   0  0  0  0  0  0  0  0  0  0  0  0
   44.6830   35.0690   45.8510 N   0  0  0  0  0  0  0  0  0  0  0  0
   45.8700   32.9320   46.5230 C   0  0  0  0  0  0  0  0  0  0  0  0
   47.1340   33.0430   47.0270 F   0  0  0  0  0  0  0  0  0  0  0  0
   45.6650   31.7420   45.8650 F   0  0  0  0  0  0  0  0  0  0  0  0
   44.9880   32.9800   47.5780 F   0  0  0  0  0  0  0  0  0  0  0  0
   48.5680   35.3847   42.7588 H   0  0  0  0  0  0  0  0  0  0  0  0
   49.1466   34.8314   40.2058 H   0  0  0  0  0  0  0  0  0  0  0  0
   44.3015   35.8703   40.3180 H   0  0  0  0  0  0  0  0  0  0  0  0
   41.9190   35.5488   39.7755 H   0  0  0  0  0  0  0  0  0  0  0  0
   40.9386   33.2547   39.8792 H   0  0  0  0  0  0  0  0  0  0  0  0
   42.3725   31.3494   40.5369 H   0  0  0  0  0  0  0  0  0  0  0  0
   44.7528   31.6732   41.0790 H   0  0  0  0  0  0  0  0  0  0  0  0
   43.7679   36.8288   45.1452 H   0  0  0  0  0  0  0  0  0  0  0  0
   44.8674   36.6968   42.8649 H   0  0  0  0  0  0  0  0  0  0  0  0
  1 14  1  0
  2  1  1  0
  3  2  2  0
  4  3  1  0
  4  5  2  0
  5  1  1  0
  6 11  1  0
  6  5  1  0
  7  6  2  0
  8  9  2  0
  8  7  1  0
  9 10  1  0
 10 11  2  0
 12 17  2  0
 13 12  1  0
 14 13  2  0
 14 15  1  0
 15 16  2  0
 16 17  1  0
 16 18  1  0
 18 19  1  0
 18 21  1  0
 20 18  1  0
  2 22  1  0
  3 23  1  0
  7 24  1  0
  8 25  1  0
  9 26  1  0
 10 27  1  0
 11 28  1  0
 12 29  1  0
 13 30  1  0
M  ISO  8  22  14  23  14  24  14  25  14  26  14  27  14  28  14  29  14
M  ISO  1  30  14
M  END
>  <minimizedAffinity>  (1) 
-5.85556746

>  <minimizedRMSD>  (1) 
0.537967563

$$$$
