
     RDKit          3D

 27 29  0  0  0  0  0  0  0  0999 V2000
   44.4570   35.9810   44.8530 C   0  0  0  0  0  0  0  0  0  0  0  0
   45.1130   35.9440   43.5800 C   0  0  0  0  0  0  0  0  0  0  0  0
   45.9870   34.8930   43.3830 C   0  0  0  0  0  0  0  0  0  0  0  0
   46.1650   33.9820   44.3790 N   0  0  0  0  0  0  0  0  0  0  0  0
   45.5380   34.0450   45.5530 C   0  0  0  0  0  0  0  0  0  0  0  0
   44.6710   35.0610   45.7910 N   0  0  0  0  0  0  0  0  0  0  0  0
   46.7070   34.7410   42.1540 N   0  0  0  0  0  0  0  0  0  0  0  0
   48.0070   35.0480   42.0410 C   0  0  0  0  0  0  0  0  0  0  0  0
   48.3180   34.7670   40.7300 C   0  0  0  0  0  0  0  0  0  0  0  0
   47.2220   34.3120   40.1180 N   0  0  0  0  0  0  0  0  0  0  0  0
   46.2130   34.2910   40.9950 C   0  0  0  0  0  0  0  0  0  0  0  0
   44.8690   33.8740   40.7560 C   0  0  0  0  0  0  0  0  0  0  0  0
   43.7250   34.6040   40.3800 C   0  0  0  0  0  0  0  0  0  0  0  0
   42.5470   33.9610   40.2160 C   0  0  0  0  0  0  0  0  0  0  0  0
   42.5690   32.5530   40.4460 C   0  0  0  0  0  0  0  0  0  0  0  0
   44.2960   32.2050   40.8930 S   0  0  0  0  0  0  0  0  0  0  0  0
   45.8770   32.9520   46.4970 C   0  0  0  0  0  0  0  0  0  0  0  0
   47.1360   33.0390   47.0040 F   0  0  0  0  0  0  0  0  0  0  0  0
   45.6630   31.7570   45.8480 F   0  0  0  0  0  0  0  0  0  0  0  0
   44.9740   32.9990   47.5430 F   0  0  0  0  0  0  0  0  0  0  0  0
   43.7515   36.7985   45.0628 H   0  0  0  0  0  0  0  0  0  0  0  0
   44.9318   36.7056   42.8072 H   0  0  0  0  0  0  0  0  0  0  0  0
   48.6762   35.4377   42.8222 H   0  0  0  0  0  0  0  0  0  0  0  0
   49.3059   34.8959   40.2637 H   0  0  0  0  0  0  0  0  0  0  0  0
   43.7894   35.6905   40.2207 H   0  0  0  0  0  0  0  0  0  0  0  0
   41.6284   34.4906   39.9233 H   0  0  0  0  0  0  0  0  0  0  0  0
   41.7332   31.8419   40.3702 H   0  0  0  0  0  0  0  0  0  0  0  0
  1  6  2  0
  2  1  1  0
  3  2  2  0
  3  4  1  0
  4  5  2  0
  5  6  1  0
  5 17  1  0
  7  3  1  0
  8  7  1  0
  9  8  2  0
 10  9  1  0
 10 11  2  0
 11  7  1  0
 12 16  1  0
 12 11  1  0
 13 12  2  0
 14 13  1  0
 14 15  2  0
 15 16  1  0
 17 18  1  0
 17 20  1  0
 19 17  1  0
  1 21  1  0
  2 22  1  0
  8 23  1  0
  9 24  1  0
 13 25  1  0
 14 26  1  0
 15 27  1  0
M  ISO  7  21  14  22  14  23  14  24  14  25  14  26  14  27  14
M  END
>  <minimizedAffinity>  (1) 
-5.72750473

>  <minimizedRMSD>  (1) 
0.606899261

$$$$
