
     RDKit          3D

 27 29  0  0  0  0  0  0  0  0999 V2000
   46.6430   34.7160   42.1380 N   0  0  0  0  0  0  0  0  0  0  0  0
   47.9350   35.0650   42.0050 C   0  0  0  0  0  0  0  0  0  0  0  0
   48.2440   34.7760   40.6970 C   0  0  0  0  0  0  0  0  0  0  0  0
   47.1400   34.2720   40.1060 N   0  0  0  0  0  0  0  0  0  0  0  0
   46.1470   34.2340   41.0030 C   0  0  0  0  0  0  0  0  0  0  0  0
   44.4500   35.9950   44.8830 C   0  0  0  0  0  0  0  0  0  0  0  0
   45.0840   35.9460   43.6030 C   0  0  0  0  0  0  0  0  0  0  0  0
   45.9540   34.8710   43.3780 C   0  0  0  0  0  0  0  0  0  0  0  0
   46.1340   33.9700   44.3610 N   0  0  0  0  0  0  0  0  0  0  0  0
   45.5300   34.0330   45.5560 C   0  0  0  0  0  0  0  0  0  0  0  0
   44.6800   35.0650   45.8060 N   0  0  0  0  0  0  0  0  0  0  0  0
   45.8730   32.9350   46.4930 C   0  0  0  0  0  0  0  0  0  0  0  0
   47.1380   33.0510   47.0010 F   0  0  0  0  0  0  0  0  0  0  0  0
   45.6760   31.7440   45.8420 F   0  0  0  0  0  0  0  0  0  0  0  0
   45.0010   32.9930   47.5560 F   0  0  0  0  0  0  0  0  0  0  0  0
   44.7980   33.7490   40.7320 C   0  0  0  0  0  0  0  0  0  0  0  0
   43.8420   34.7020   40.3740 C   0  0  0  0  0  0  0  0  0  0  0  0
   42.6330   34.0350   40.1610 C   0  0  0  0  0  0  0  0  0  0  0  0
   42.9480   32.6960   40.4100 C   0  0  0  0  0  0  0  0  0  0  0  0
   44.2150   32.5610   40.7400 O   0  0  0  0  0  0  0  0  0  0  0  0
   48.5984   35.4884   42.7735 H   0  0  0  0  0  0  0  0  0  0  0  0
   49.2212   34.9289   40.2156 H   0  0  0  0  0  0  0  0  0  0  0  0
   43.7574   36.8189   45.1097 H   0  0  0  0  0  0  0  0  0  0  0  0
   44.8988   36.7116   42.8352 H   0  0  0  0  0  0  0  0  0  0  0  0
   44.0108   35.7846   40.2770 H   0  0  0  0  0  0  0  0  0  0  0  0
   41.6630   34.4623   39.8670 H   0  0  0  0  0  0  0  0  0  0  0  0
   42.2313   31.8645   40.3394 H   0  0  0  0  0  0  0  0  0  0  0  0
  1  8  1  0
  2  1  1  0
  3  2  2  0
  4  3  1  0
  4  5  2  0
  5  1  1  0
  6 11  2  0
  7  6  1  0
  8  7  2  0
  8  9  1  0
  9 10  2  0
 10 11  1  0
 10 12  1  0
 12 13  1  0
 12 15  1  0
 14 12  1  0
 16 20  1  0
 16  5  1  0
 17 16  2  0
 18 17  1  0
 18 19  2  0
 19 20  1  0
  2 21  1  0
  3 22  1  0
  6 23  1  0
  7 24  1  0
 17 25  1  0
 18 26  1  0
 19 27  1  0
M  ISO  7  21  14  22  14  23  14  24  14  25  14  26  14  27  14
M  END
>  <minimizedAffinity>  (1) 
-5.67215014

>  <minimizedRMSD>  (1) 
0.365759373

$$$$
