
     RDKit          3D

 28 30  0  0  0  0  0  0  0  0999 V2000
   46.6620   34.6860   42.1740 N   0  0  0  0  0  0  0  0  0  0  0  0
   47.9760   34.9360   42.0660 C   0  0  0  0  0  0  0  0  0  0  0  0
   48.2850   34.6810   40.7630 C   0  0  0  0  0  0  0  0  0  0  0  0
   47.1650   34.2920   40.1380 N   0  0  0  0  0  0  0  0  0  0  0  0
   46.1450   34.2920   41.0140 C   0  0  0  0  0  0  0  0  0  0  0  0
   44.4570   35.9730   44.8990 C   0  0  0  0  0  0  0  0  0  0  0  0
   45.0960   35.9170   43.6260 C   0  0  0  0  0  0  0  0  0  0  0  0
   45.9660   34.8440   43.4150 C   0  0  0  0  0  0  0  0  0  0  0  0
   46.1430   33.9480   44.4070 N   0  0  0  0  0  0  0  0  0  0  0  0
   45.5310   34.0290   45.5850 C   0  0  0  0  0  0  0  0  0  0  0  0
   44.6770   35.0530   45.8360 N   0  0  0  0  0  0  0  0  0  0  0  0
   45.8710   32.9340   46.5350 C   0  0  0  0  0  0  0  0  0  0  0  0
   47.1250   33.0450   47.0510 F   0  0  0  0  0  0  0  0  0  0  0  0
   45.6570   31.7300   45.8800 F   0  0  0  0  0  0  0  0  0  0  0  0
   44.9610   32.9830   47.5780 F   0  0  0  0  0  0  0  0  0  0  0  0
   44.7490   33.9340   40.7540 C   0  0  0  0  0  0  0  0  0  0  0  0
   44.3920   32.5840   40.8300 C   0  0  0  0  0  0  0  0  0  0  0  0
   43.0720   32.3370   40.5750 C   0  0  0  0  0  0  0  0  0  0  0  0
   42.1570   33.2480   40.2740 N   0  0  0  0  0  0  0  0  0  0  0  0
   42.5220   34.5620   40.2040 C   0  0  0  0  0  0  0  0  0  0  0  0
   43.8160   34.8510   40.4490 N   0  0  0  0  0  0  0  0  0  0  0  0
   48.6583   35.2745   42.8597 H   0  0  0  0  0  0  0  0  0  0  0  0
   49.2802   34.7777   40.3044 H   0  0  0  0  0  0  0  0  0  0  0  0
   43.7630   36.7991   45.1131 H   0  0  0  0  0  0  0  0  0  0  0  0
   44.9142   36.6771   42.8519 H   0  0  0  0  0  0  0  0  0  0  0  0
   45.1119   31.7889   41.0741 H   0  0  0  0  0  0  0  0  0  0  0  0
   42.7395   31.2896   40.6239 H   0  0  0  0  0  0  0  0  0  0  0  0
   41.7935   35.3489   39.9589 H   0  0  0  0  0  0  0  0  0  0  0  0
  1  8  1  0
  2  1  1  0
  3  2  2  0
  4  3  1  0
  4  5  2  0
  5  1  1  0
  6 11  2  0
  7  6  1  0
  8  7  2  0
  8  9  1  0
  9 10  2  0
 10 11  1  0
 10 12  1  0
 12 13  1  0
 12 15  1  0
 14 12  1  0
 16 17  2  0
 16  5  1  0
 18 17  1  0
 19 18  2  0
 20 19  1  0
 20 21  2  0
 21 16  1  0
  2 22  1  0
  3 23  1  0
  6 24  1  0
  7 25  1  0
 17 26  1  0
 18 27  1  0
 20 28  1  0
M  ISO  7  22  14  23  14  24  14  25  14  26  14  27  14  28  14
M  END
>  <minimizedAffinity>  (1) 
-5.80244112

>  <minimizedRMSD>  (1) 
0.573629737

$$$$
