
     RDKit          3D

 32 33  0  0  0  0  0  0  0  0999 V2000
   44.4640   36.0120   44.7880 C   0  0  0  0  0  0  0  0  0  0  0  0
   45.1280   35.9600   43.5270 C   0  0  0  0  0  0  0  0  0  0  0  0
   46.0160   34.8980   43.3170 C   0  0  0  0  0  0  0  0  0  0  0  0
   46.1850   33.9910   44.3220 N   0  0  0  0  0  0  0  0  0  0  0  0
   45.5480   34.0680   45.4930 C   0  0  0  0  0  0  0  0  0  0  0  0
   44.6830   35.0830   45.7270 N   0  0  0  0  0  0  0  0  0  0  0  0
   46.7360   34.7560   42.0980 N   0  0  0  0  0  0  0  0  0  0  0  0
   47.9910   35.1740   41.9740 C   0  0  0  0  0  0  0  0  0  0  0  0
   48.3400   34.8710   40.6780 C   0  0  0  0  0  0  0  0  0  0  0  0
   47.2810   34.2870   40.0860 N   0  0  0  0  0  0  0  0  0  0  0  0
   46.2880   34.2180   40.9730 C   0  0  0  0  0  0  0  0  0  0  0  0
   45.0060   33.6150   40.5640 C   0  0  0  0  0  0  0  0  0  0  0  0
   43.8280   34.5180   40.5780 C   0  0  0  0  0  0  0  0  0  0  0  0
   45.1330   33.0530   39.1610 C   0  0  0  0  0  0  0  0  0  0  0  0
   44.6570   32.4240   41.4680 C   0  0  0  0  0  0  0  0  0  0  0  0
   45.8820   32.9750   46.4400 C   0  0  0  0  0  0  0  0  0  0  0  0
   47.1430   33.0840   46.9570 F   0  0  0  0  0  0  0  0  0  0  0  0
   45.6650   31.7740   45.7910 F   0  0  0  0  0  0  0  0  0  0  0  0
   44.9840   33.0430   47.4880 F   0  0  0  0  0  0  0  0  0  0  0  0
   43.7586   36.8308   44.9931 H   0  0  0  0  0  0  0  0  0  0  0  0
   44.9503   36.7211   42.7530 H   0  0  0  0  0  0  0  0  0  0  0  0
   48.6150   35.6570   42.7403 H   0  0  0  0  0  0  0  0  0  0  0  0
   49.3141   35.0709   40.2077 H   0  0  0  0  0  0  0  0  0  0  0  0
   43.5448   34.7351   41.6185 H   0  0  0  0  0  0  0  0  0  0  0  0
   44.0795   35.4569   40.0629 H   0  0  0  0  0  0  0  0  0  0  0  0
   42.9867   34.0312   40.0629 H   0  0  0  0  0  0  0  0  0  0  0  0
   45.3752   31.9814   39.2158 H   0  0  0  0  0  0  0  0  0  0  0  0
   44.1819   33.1870   38.6248 H   0  0  0  0  0  0  0  0  0  0  0  0
   45.9340   33.5830   38.6248 H   0  0  0  0  0  0  0  0  0  0  0  0
   44.7454   32.7255   42.5222 H   0  0  0  0  0  0  0  0  0  0  0  0
   43.6259   32.0992   41.2647 H   0  0  0  0  0  0  0  0  0  0  0  0
   45.3497   31.5940   41.2647 H   0  0  0  0  0  0  0  0  0  0  0  0
  1  6  2  0
  2  1  1  0
  3  2  2  0
  3  4  1  0
  4  5  2  0
  5  6  1  0
  5 16  1  0
  7  3  1  0
  8  7  1  0
  9  8  2  0
 10  9  1  0
 10 11  2  0
 11  7  1  0
 12 13  1  0
 12 11  1  0
 12 15  1  0
 14 12  1  0
 16 17  1  0
 16 19  1  0
 18 16  1  0
  1 20  1  0
  2 21  1  0
  8 22  1  0
  9 23  1  0
 13 24  1  0
 13 25  1  0
 13 26  1  0
 14 27  1  0
 14 28  1  0
 14 29  1  0
 15 30  1  0
 15 31  1  0
 15 32  1  0
M  ISO  8  20  14  21  14  22  14  23  14  24   8  25   8  26   8  27   8
M  ISO  5  28   8  29   8  30   8  31   8  32   8
M  END
>  <minimizedAffinity>  (1) 
-5.5945878

>  <minimizedRMSD>  (1) 
0.11732205

$$$$
