
     RDKit          3D

 22 23  0  0  0  0  0  0  0  0999 V2000
   44.4630   35.9950   44.7500 C   0  0  0  0  0  0  0  0  0  0  0  0
   45.1350   35.9560   43.4920 C   0  0  0  0  0  0  0  0  0  0  0  0
   46.0270   34.9130   43.2990 C   0  0  0  0  0  0  0  0  0  0  0  0
   46.2090   34.0030   44.2970 N   0  0  0  0  0  0  0  0  0  0  0  0
   45.5640   34.0670   45.4640 C   0  0  0  0  0  0  0  0  0  0  0  0
   44.6820   35.0730   45.6930 N   0  0  0  0  0  0  0  0  0  0  0  0
   46.7630   34.7650   42.0790 N   0  0  0  0  0  0  0  0  0  0  0  0
   48.0470   35.1640   41.9840 C   0  0  0  0  0  0  0  0  0  0  0  0
   48.4000   34.8660   40.6940 C   0  0  0  0  0  0  0  0  0  0  0  0
   47.3490   34.3160   40.0790 N   0  0  0  0  0  0  0  0  0  0  0  0
   46.3260   34.2510   40.9350 C   0  0  0  0  0  0  0  0  0  0  0  0
   45.0360   33.7250   40.6390 N   0  0  0  0  0  0  0  0  0  0  0  0
   45.8940   32.9900   46.4230 C   0  0  0  0  0  0  0  0  0  0  0  0
   47.1590   33.0890   46.9290 F   0  0  0  0  0  0  0  0  0  0  0  0
   45.6850   31.7780   45.7770 F   0  0  0  0  0  0  0  0  0  0  0  0
   45.0040   33.0370   47.4660 F   0  0  0  0  0  0  0  0  0  0  0  0
   43.7459   36.8050   44.9492 H   0  0  0  0  0  0  0  0  0  0  0  0
   44.9545   36.7142   42.7158 H   0  0  0  0  0  0  0  0  0  0  0  0
   48.6701   35.6244   42.7649 H   0  0  0  0  0  0  0  0  0  0  0  0
   49.3851   35.0492   40.2401 H   0  0  0  0  0  0  0  0  0  0  0  0
   44.3049   33.7153   41.3645 H   0  0  0  0  0  0  0  0  0  0  0  0
   44.8341   33.3543   39.6994 H   0  0  0  0  0  0  0  0  0  0  0  0
  1  6  2  0
  2  1  1  0
  3  2  2  0
  3  4  1  0
  4  5  2  0
  5  6  1  0
  5 13  1  0
  7  3  1  0
  8  7  1  0
  9  8  2  0
 10  9  1  0
 10 11  2  0
 11  7  1  0
 12 11  1  0
 13 14  1  0
 13 16  1  0
 15 13  1  0
  1 17  1  0
  2 18  1  0
  8 19  1  0
  9 20  1  0
 12 21  1  0
 12 22  1  0
M  ISO  4  17  14  18  14  19  14  20  14
M  END
>  <minimizedAffinity>  (1) 
-5.28234816

>  <minimizedRMSD>  (1) 
0.0748652816

$$$$
