
     RDKit          3D

 29 30  0  0  0  0  0  0  0  0999 V2000
   44.4640   36.0230   44.7970 C   0  0  0  0  0  0  0  0  0  0  0  0
   45.1200   35.9810   43.5380 C   0  0  0  0  0  0  0  0  0  0  0  0
   45.9920   34.9270   43.3370 C   0  0  0  0  0  0  0  0  0  0  0  0
   46.1700   34.0090   44.3270 N   0  0  0  0  0  0  0  0  0  0  0  0
   45.5330   34.0820   45.5020 C   0  0  0  0  0  0  0  0  0  0  0  0
   44.6760   35.0960   45.7340 N   0  0  0  0  0  0  0  0  0  0  0  0
   46.7180   34.7690   42.1090 N   0  0  0  0  0  0  0  0  0  0  0  0
   47.9880   35.1820   41.9700 C   0  0  0  0  0  0  0  0  0  0  0  0
   48.3200   34.8590   40.6820 C   0  0  0  0  0  0  0  0  0  0  0  0
   47.2540   34.2700   40.0910 N   0  0  0  0  0  0  0  0  0  0  0  0
   46.2630   34.2150   40.9780 C   0  0  0  0  0  0  0  0  0  0  0  0
   44.8980   33.6520   40.7840 C   0  0  0  0  0  0  0  0  0  0  0  0
   43.8600   34.7580   40.7340 C   0  0  0  0  0  0  0  0  0  0  0  0
   44.5200   32.7010   41.8630 C   0  0  0  0  0  0  0  0  0  0  0  0
   45.8610   32.9920   46.4460 C   0  0  0  0  0  0  0  0  0  0  0  0
   47.1330   33.0760   46.9510 F   0  0  0  0  0  0  0  0  0  0  0  0
   45.6570   31.7880   45.8000 F   0  0  0  0  0  0  0  0  0  0  0  0
   44.9750   33.0430   47.4950 F   0  0  0  0  0  0  0  0  0  0  0  0
   43.7611   36.8429   45.0060 H   0  0  0  0  0  0  0  0  0  0  0  0
   44.9441   36.7445   42.7659 H   0  0  0  0  0  0  0  0  0  0  0  0
   48.6215   35.6716   42.7243 H   0  0  0  0  0  0  0  0  0  0  0  0
   49.2933   35.0472   40.2053 H   0  0  0  0  0  0  0  0  0  0  0  0
   44.9231   33.1089   39.8277 H   0  0  0  0  0  0  0  0  0  0  0  0
   43.5858   35.0501   41.7584 H   0  0  0  0  0  0  0  0  0  0  0  0
   44.2758   35.6274   40.2037 H   0  0  0  0  0  0  0  0  0  0  0  0
   42.9660   34.3981   40.2037 H   0  0  0  0  0  0  0  0  0  0  0  0
   44.7047   33.1658   42.8427 H   0  0  0  0  0  0  0  0  0  0  0  0
   43.4532   32.4486   41.7722 H   0  0  0  0  0  0  0  0  0  0  0  0
   45.1225   31.7851   41.7722 H   0  0  0  0  0  0  0  0  0  0  0  0
  1  6  2  0
  2  1  1  0
  3  2  2  0
  3  4  1  0
  4  5  2  0
  5  6  1  0
  5 15  1  0
  7  3  1  0
  8  7  1  0
  9  8  2  0
 10  9  1  0
 10 11  2  0
 11  7  1  0
 12 11  1  0
 12 14  1  0
 13 12  1  0
 15 16  1  0
 15 18  1  0
 17 15  1  0
  1 19  1  0
  2 20  1  0
  8 21  1  0
  9 22  1  0
 12 23  1  0
 13 24  1  0
 13 25  1  0
 13 26  1  0
 14 27  1  0
 14 28  1  0
 14 29  1  0
M  ISO  8  19  14  20  14  21  14  22  14  23   8  24   8  25   8  26   8
M  ISO  3  27   8  28   8  29   8
M  END
>  <minimizedAffinity>  (1) 
-5.47339964

>  <minimizedRMSD>  (1) 
0.461764038

$$$$
