
     RDKit          3D

 27 29  0  0  0  0  0  0  0  0999 V2000
   44.4640   36.0020   44.7700 C   0  0  0  0  0  0  0  0  0  0  0  0
   45.1220   35.9400   43.5150 C   0  0  0  0  0  0  0  0  0  0  0  0
   46.0040   34.8880   43.3160 C   0  0  0  0  0  0  0  0  0  0  0  0
   46.1770   33.9930   44.3250 N   0  0  0  0  0  0  0  0  0  0  0  0
   45.5540   34.0640   45.4970 C   0  0  0  0  0  0  0  0  0  0  0  0
   44.6850   35.0810   45.7260 N   0  0  0  0  0  0  0  0  0  0  0  0
   46.7240   34.7230   42.0890 N   0  0  0  0  0  0  0  0  0  0  0  0
   47.9570   35.2390   41.9150 C   0  0  0  0  0  0  0  0  0  0  0  0
   48.3130   34.8820   40.6430 C   0  0  0  0  0  0  0  0  0  0  0  0
   47.2980   34.1790   40.1050 N   0  0  0  0  0  0  0  0  0  0  0  0
   46.3050   34.0770   41.0030 C   0  0  0  0  0  0  0  0  0  0  0  0
   45.0120   33.3750   40.7870 C   0  0  0  0  0  0  0  0  0  0  0  0
   44.5110   33.4410   39.3330 C   0  0  0  0  0  0  0  0  0  0  0  0
   43.7850   34.1260   40.4760 C   0  0  0  0  0  0  0  0  0  0  0  0
   45.8920   32.9860   46.4500 C   0  0  0  0  0  0  0  0  0  0  0  0
   47.1500   33.0830   46.9540 F   0  0  0  0  0  0  0  0  0  0  0  0
   45.6670   31.7840   45.8140 F   0  0  0  0  0  0  0  0  0  0  0  0
   44.9900   33.0600   47.5000 F   0  0  0  0  0  0  0  0  0  0  0  0
   43.7570   36.8215   44.9663 H   0  0  0  0  0  0  0  0  0  0  0  0
   44.9409   36.6930   42.7339 H   0  0  0  0  0  0  0  0  0  0  0  0
   48.5481   35.8203   42.6379 H   0  0  0  0  0  0  0  0  0  0  0  0
   49.2633   35.1267   40.1460 H   0  0  0  0  0  0  0  0  0  0  0  0
   45.2290   32.6070   41.5441 H   0  0  0  0  0  0  0  0  0  0  0  0
   44.0783   32.5512   38.8524 H   0  0  0  0  0  0  0  0  0  0  0  0
   44.9309   33.7487   38.3640 H   0  0  0  0  0  0  0  0  0  0  0  0
   43.7872   35.2240   40.5422 H   0  0  0  0  0  0  0  0  0  0  0  0
   42.7526   34.0973   40.8545 H   0  0  0  0  0  0  0  0  0  0  0  0
  1  6  2  0
  2  1  1  0
  3  2  2  0
  3  4  1  0
  4  5  2  0
  5  6  1  0
  5 15  1  0
  7  3  1  0
  8  7  1  0
  9  8  2  0
 10  9  1  0
 10 11  2  0
 11  7  1  0
 12 11  1  0
 13 14  1  0
 13 12  1  0
 14 12  1  0
 15 16  1  0
 15 18  1  0
 17 15  1  0
  1 19  1  0
  2 20  1  0
  8 21  1  0
  9 22  1  0
 12 23  1  0
 13 24  1  0
 13 25  1  0
 14 26  1  0
 14 27  1  0
M  ISO  8  19  14  20  14  21  14  22  14  23  13  24  13  25  13  26  13
M  ISO  1  27  13
M  END
>  <minimizedAffinity>  (1) 
-5.37112713

>  <minimizedRMSD>  (1) 
0.635092199

$$$$
