
     RDKit          3D

 31 33  0  0  0  0  0  0  0  0999 V2000
   45.1500   34.3550   45.0820 C   0  0  0  0  0  0  0  0  0  0  0  0
   45.5030   34.8310   43.8160 C   0  0  0  0  0  0  0  0  0  0  0  0
   46.6450   34.3090   43.2140 C   0  0  0  0  0  0  0  0  0  0  0  0
   47.3760   33.3580   43.8730 N   0  0  0  0  0  0  0  0  0  0  0  0
   46.9900   32.9300   45.1000 C   0  0  0  0  0  0  0  0  0  0  0  0
   45.8910   33.4170   45.7040 N   0  0  0  0  0  0  0  0  0  0  0  0
   47.0800   34.7590   41.8880 C   0  0  0  0  0  0  0  0  0  0  0  0
   48.3160   35.6060   41.9140 C   0  0  0  0  0  0  0  0  0  0  0  0
   48.9600   35.3950   40.5750 C   0  0  0  0  0  0  0  0  0  0  0  0
   48.0090   34.4930   39.7820 C   0  0  0  0  0  0  0  0  0  0  0  0
   47.4380   33.6570   40.9340 C   0  0  0  0  0  0  0  0  0  0  0  0
   44.5400   36.0780   42.9620 S   0  0  0  0  0  0  0  0  0  0  0  0
   42.7990   34.2990   39.9510 N   0  0  0  0  0  0  0  0  0  0  0  0
   43.8720   34.6890   40.5990 N   0  0  0  0  0  0  0  0  0  0  0  0
   43.4880   35.3530   41.7420 C   0  0  0  0  0  0  0  0  0  0  0  0
   42.1340   35.3270   41.7210 C   0  0  0  0  0  0  0  0  0  0  0  0
   41.6690   34.6690   40.6030 C   0  0  0  0  0  0  0  0  0  0  0  0
   44.2526   34.7526   45.5786 H   0  0  0  0  0  0  0  0  0  0  0  0
   47.5904   32.1654   45.6146 H   0  0  0  0  0  0  0  0  0  0  0  0
   46.1891   35.3121   41.5556 H   0  0  0  0  0  0  0  0  0  0  0  0
   48.0557   36.6654   42.0552 H   0  0  0  0  0  0  0  0  0  0  0  0
   48.9864   35.3332   42.7424 H   0  0  0  0  0  0  0  0  0  0  0  0
   49.0918   36.3575   40.0591 H   0  0  0  0  0  0  0  0  0  0  0  0
   49.9555   34.9381   40.6760 H   0  0  0  0  0  0  0  0  0  0  0  0
   47.2275   35.0715   39.2676 H   0  0  0  0  0  0  0  0  0  0  0  0
   48.4769   33.9161   38.9706 H   0  0  0  0  0  0  0  0  0  0  0  0
   46.5543   33.0802   40.6234 H   0  0  0  0  0  0  0  0  0  0  0  0
   48.1170   32.8914   41.3375 H   0  0  0  0  0  0  0  0  0  0  0  0
   42.8135   33.7790   39.0620 H   0  0  0  0  0  0  0  0  0  0  0  0
   41.4906   35.7722   42.4941 H   0  0  0  0  0  0  0  0  0  0  0  0
   40.6250   34.4865   40.3083 H   0  0  0  0  0  0  0  0  0  0  0  0
  1  6  2  0
  2  1  1  0
  3  2  2  0
  3  4  1  0
  4  5  2  0
  5  6  1  0
  7  8  1  0
  7  3  1  0
  9  8  1  0
 10  9  1  0
 10 11  1  0
 11  7  1  0
 12  2  1  0
 13 14  1  0
 13 17  1  0
 14 15  2  0
 15 12  1  0
 16 15  1  0
 17 16  2  0
  1 18  1  0
  5 19  1  0
  7 20  1  0
  8 21  1  0
  8 22  1  0
  9 23  1  0
  9 24  1  0
 10 25  1  0
 10 26  1  0
 11 27  1  0
 11 28  1  0
 13 29  1  0
 16 30  1  0
 17 31  1  0
M  ISO  8  18  14  19  14  20  13  21  13  22  13  23  13  24  13  25  13
M  ISO  6  26  13  27  13  28  13  29   9  30  14  31  14
M  END
>  <minimizedAffinity>  (1) 
-4.91140366

>  <minimizedRMSD>  (1) 
2.37618661

$$$$
