
     RDKit          3D

 25 27  0  0  0  0  0  0  0  0999 V2000
   45.0470   34.4640   45.2760 C   0  0  0  0  0  0  0  0  0  0  0  0
   45.5210   34.7700   43.9890 C   0  0  0  0  0  0  0  0  0  0  0  0
   46.6980   34.1600   43.5130 C   0  0  0  0  0  0  0  0  0  0  0  0
   47.3280   33.2760   44.3630 N   0  0  0  0  0  0  0  0  0  0  0  0
   46.8400   33.0120   45.5850 C   0  0  0  0  0  0  0  0  0  0  0  0
   45.7320   33.5890   46.0310 N   0  0  0  0  0  0  0  0  0  0  0  0
   47.2880   34.3790   42.2460 C   0  0  0  0  0  0  0  0  0  0  0  0
   48.2100   35.2330   41.7930 C   0  0  0  0  0  0  0  0  0  0  0  0
   48.6340   35.2590   40.5030 C   0  0  0  0  0  0  0  0  0  0  0  0
   48.0500   34.3320   39.6470 C   0  0  0  0  0  0  0  0  0  0  0  0
   46.8580   33.4150   40.7900 S   0  0  0  0  0  0  0  0  0  0  0  0
   44.6530   35.9260   42.9350 S   0  0  0  0  0  0  0  0  0  0  0  0
   42.3080   33.5460   40.9240 N   0  0  0  0  0  0  0  0  0  0  0  0
   43.3140   33.7640   41.7540 N   0  0  0  0  0  0  0  0  0  0  0  0
   43.4560   35.1190   41.9260 C   0  0  0  0  0  0  0  0  0  0  0  0
   42.4930   35.6780   41.1620 C   0  0  0  0  0  0  0  0  0  0  0  0
   41.7400   34.7250   40.5090 C   0  0  0  0  0  0  0  0  0  0  0  0
   44.1292   34.9337   45.6594 H   0  0  0  0  0  0  0  0  0  0  0  0
   47.3719   32.2996   46.2327 H   0  0  0  0  0  0  0  0  0  0  0  0
   48.6482   35.9519   42.5010 H   0  0  0  0  0  0  0  0  0  0  0  0
   49.3957   35.9725   40.1554 H   0  0  0  0  0  0  0  0  0  0  0  0
   48.2354   34.1727   38.5745 H   0  0  0  0  0  0  0  0  0  0  0  0
   41.9913   32.6120   40.6271 H   0  0  0  0  0  0  0  0  0  0  0  0
   42.3291   36.7620   41.0715 H   0  0  0  0  0  0  0  0  0  0  0  0
   40.8923   34.8731   39.8238 H   0  0  0  0  0  0  0  0  0  0  0  0
  1  6  2  0
  2  1  1  0
  3  2  2  0
  3  4  1  0
  4  5  2  0
  5  6  1  0
  7  3  1  0
  8  7  2  0
  9  8  1  0
 10  9  2  0
 10 11  1  0
 11  7  1  0
 12  2  1  0
 13 14  1  0
 14 15  2  0
 15 12  1  0
 16 15  1  0
 17 13  1  0
 17 16  2  0
  1 18  1  0
  5 19  1  0
  8 20  1  0
  9 21  1  0
 10 22  1  0
 13 23  1  0
 16 24  1  0
 17 25  1  0
M  ISO  8  18  14  19  14  20  14  21  14  22  14  23   9  24  14  25  14
M  END
>  <minimizedAffinity>  (1) 
-4.72819757

>  <minimizedRMSD>  (1) 
2.41905761

$$$$
