
     RDKit          3D

 25 27  0  0  0  0  0  0  0  0999 V2000
   45.1280   34.4280   45.0260 C   0  0  0  0  0  0  0  0  0  0  0  0
   45.6530   34.7430   43.7670 C   0  0  0  0  0  0  0  0  0  0  0  0
   46.8410   34.1340   43.3850 C   0  0  0  0  0  0  0  0  0  0  0  0
   47.4590   33.2620   44.2210 N   0  0  0  0  0  0  0  0  0  0  0  0
   46.9100   32.9840   45.4430 C   0  0  0  0  0  0  0  0  0  0  0  0
   45.7530   33.5590   45.8480 N   0  0  0  0  0  0  0  0  0  0  0  0
   47.4390   34.4210   42.0850 C   0  0  0  0  0  0  0  0  0  0  0  0
   47.2320   33.8520   40.8440 C   0  0  0  0  0  0  0  0  0  0  0  0
   48.0590   34.5030   39.9590 C   0  0  0  0  0  0  0  0  0  0  0  0
   48.7480   35.4420   40.6480 N   0  0  0  0  0  0  0  0  0  0  0  0
   48.3720   35.3940   41.9360 N   0  0  0  0  0  0  0  0  0  0  0  0
   44.8100   35.8960   42.6910 S   0  0  0  0  0  0  0  0  0  0  0  0
   42.5450   33.5730   40.5450 N   0  0  0  0  0  0  0  0  0  0  0  0
   43.6310   33.7990   41.2420 N   0  0  0  0  0  0  0  0  0  0  0  0
   43.5990   35.0900   41.7070 C   0  0  0  0  0  0  0  0  0  0  0  0
   42.4410   35.5990   41.2450 C   0  0  0  0  0  0  0  0  0  0  0  0
   41.7320   34.6780   40.5010 C   0  0  0  0  0  0  0  0  0  0  0  0
   44.1881   34.8978   45.3515 H   0  0  0  0  0  0  0  0  0  0  0  0
   47.4209   32.2764   46.1125 H   0  0  0  0  0  0  0  0  0  0  0  0
   46.5369   33.0328   40.6079 H   0  0  0  0  0  0  0  0  0  0  0  0
   48.1452   34.2970   38.8819 H   0  0  0  0  0  0  0  0  0  0  0  0
   49.4456   36.0869   40.2501 H   0  0  0  0  0  0  0  0  0  0  0  0
   42.3280   32.6766   40.0865 H   0  0  0  0  0  0  0  0  0  0  0  0
   42.1006   36.6271   41.4378 H   0  0  0  0  0  0  0  0  0  0  0  0
   40.7605   34.7989   39.9993 H   0  0  0  0  0  0  0  0  0  0  0  0
  1  6  2  0
  2  1  1  0
  3  2  2  0
  3  4  1  0
  4  5  2  0
  5  6  1  0
  7  3  1  0
  8  7  1  0
  9 10  1  0
  9  8  2  0
 10 11  1  0
 11  7  2  0
 12  2  1  0
 13 14  1  0
 14 15  2  0
 15 12  1  0
 16 15  1  0
 17 13  1  0
 17 16  2  0
  1 18  1  0
  5 19  1  0
  8 20  1  0
  9 21  1  0
 10 22  1  0
 13 23  1  0
 16 24  1  0
 17 25  1  0
M  ISO  8  18  14  19  14  20  14  21  14  22   9  23   9  24  14  25  14
M  END
>  <minimizedAffinity>  (1) 
-4.7232399

>  <minimizedRMSD>  (1) 
2.47591615

$$$$
