
     RDKit          3D

 32 34  0  0  0  0  0  0  0  0999 V2000
   45.1170   34.3950   45.4810 C   0  0  0  0  0  0  0  0  0  0  0  0
   45.7740   34.5060   44.2370 C   0  0  0  0  0  0  0  0  0  0  0  0
   46.8650   33.6560   43.9770 C   0  0  0  0  0  0  0  0  0  0  0  0
   47.2550   32.7550   44.9260 N   0  0  0  0  0  0  0  0  0  0  0  0
   46.5820   32.6970   46.1050 C   0  0  0  0  0  0  0  0  0  0  0  0
   45.5370   33.4910   46.3910 N   0  0  0  0  0  0  0  0  0  0  0  0
   47.5190   33.7750   42.7180 N   0  0  0  0  0  0  0  0  0  0  0  0
   47.1570   33.1180   41.4740 C   0  0  0  0  0  0  0  0  0  0  0  0
   48.4770   32.8970   40.7380 C   0  0  0  0  0  0  0  0  0  0  0  0
   48.9460   34.1700   40.2130 N   0  0  0  0  0  0  0  0  0  0  0  0
   48.5430   35.2280   41.1320 C   0  0  0  0  0  0  0  0  0  0  0  0
   48.7040   34.6320   42.5370 C   0  0  0  0  0  0  0  0  0  0  0  0
   45.2350   35.6990   43.0120 S   0  0  0  0  0  0  0  0  0  0  0  0
   42.5840   33.6440   41.0280 N   0  0  0  0  0  0  0  0  0  0  0  0
   43.5830   33.7210   41.8930 N   0  0  0  0  0  0  0  0  0  0  0  0
   43.9620   35.0390   42.0030 C   0  0  0  0  0  0  0  0  0  0  0  0
   43.1250   35.7070   41.1560 C   0  0  0  0  0  0  0  0  0  0  0  0
   42.2520   34.8620   40.5310 C   0  0  0  0  0  0  0  0  0  0  0  0
   44.2608   35.0466   45.7095 H   0  0  0  0  0  0  0  0  0  0  0  0
   46.9079   31.9663   46.8599 H   0  0  0  0  0  0  0  0  0  0  0  0
   46.6622   32.1565   41.6755 H   0  0  0  0  0  0  0  0  0  0  0  0
   46.4521   33.7198   40.8816 H   0  0  0  0  0  0  0  0  0  0  0  0
   49.2236   32.4879   41.4346 H   0  0  0  0  0  0  0  0  0  0  0  0
   48.3270   32.1869   39.9114 H   0  0  0  0  0  0  0  0  0  0  0  0
   49.9726   34.1544   40.1303 H   0  0  0  0  0  0  0  0  0  0  0  0
   49.1901   36.1093   41.0115 H   0  0  0  0  0  0  0  0  0  0  0  0
   47.5113   35.5607   40.9450 H   0  0  0  0  0  0  0  0  0  0  0  0
   49.6268   34.0368   42.6025 H   0  0  0  0  0  0  0  0  0  0  0  0
   48.7782   35.4086   43.3125 H   0  0  0  0  0  0  0  0  0  0  0  0
   42.1153   32.7656   40.7641 H   0  0  0  0  0  0  0  0  0  0  0  0
   43.1505   36.7950   40.9960 H   0  0  0  0  0  0  0  0  0  0  0  0
   41.4681   35.1098   39.8002 H   0  0  0  0  0  0  0  0  0  0  0  0
  1  6  2  0
  2  1  1  0
  3  2  2  0
  3  4  1  0
  4  5  2  0
  5  6  1  0
  7  3  1  0
  8  7  1  0
  9  8  1  0
 10  9  1  0
 10 11  1  0
 11 12  1  0
 12  7  1  0
 13  2  1  0
 14 15  1  0
 15 16  2  0
 16 13  1  0
 17 16  1  0
 18 14  1  0
 18 17  2  0
  1 19  1  0
  5 20  1  0
  8 21  1  0
  8 22  1  0
  9 23  1  0
  9 24  1  0
 10 25  1  0
 11 26  1  0
 11 27  1  0
 12 28  1  0
 12 29  1  0
 14 30  1  0
 17 31  1  0
 18 32  1  0
M  ISO  8  19  14  20  14  21  13  22  13  23  13  24  13  25   5  26  13
M  ISO  6  27  13  28  13  29  13  30   9  31  14  32  14
M  END
>  <minimizedAffinity>  (1) 
-4.70613003

>  <minimizedRMSD>  (1) 
2.64046597

$$$$
