
     RDKit          3D

 23 25  0  0  0  0  0  0  0  0999 V2000
   45.1300   34.4530   45.0520 C   0  0  0  0  0  0  0  0  0  0  0  0
   45.6740   34.8230   43.8020 C   0  0  0  0  0  0  0  0  0  0  0  0
   46.8390   34.1690   43.4260 C   0  0  0  0  0  0  0  0  0  0  0  0
   47.4150   33.2330   44.2170 N   0  0  0  0  0  0  0  0  0  0  0  0
   46.8310   32.9250   45.4170 C   0  0  0  0  0  0  0  0  0  0  0  0
   45.7120   33.5260   45.8220 N   0  0  0  0  0  0  0  0  0  0  0  0
   47.4560   34.5000   42.1480 C   0  0  0  0  0  0  0  0  0  0  0  0
   48.2990   35.5110   41.8980 N   0  0  0  0  0  0  0  0  0  0  0  0
   48.6390   35.4850   40.6390 O   0  0  0  0  0  0  0  0  0  0  0  0
   48.0410   34.4700   40.0180 C   0  0  0  0  0  0  0  0  0  0  0  0
   47.2960   33.8540   40.9820 N   0  0  0  0  0  0  0  0  0  0  0  0
   44.8910   36.0610   42.7810 S   0  0  0  0  0  0  0  0  0  0  0  0
   42.9000   34.2080   39.9840 N   0  0  0  0  0  0  0  0  0  0  0  0
   44.0350   34.5770   40.5440 N   0  0  0  0  0  0  0  0  0  0  0  0
   43.7590   35.3170   41.6560 C   0  0  0  0  0  0  0  0  0  0  0  0
   42.3990   35.3600   41.7150 C   0  0  0  0  0  0  0  0  0  0  0  0
   41.8180   34.6720   40.6760 C   0  0  0  0  0  0  0  0  0  0  0  0
   44.2064   34.9382   45.4007 H   0  0  0  0  0  0  0  0  0  0  0  0
   47.2959   32.1643   46.0614 H   0  0  0  0  0  0  0  0  0  0  0  0
   48.1284   34.1889   38.9581 H   0  0  0  0  0  0  0  0  0  0  0  0
   42.8369   33.6386   39.1280 H   0  0  0  0  0  0  0  0  0  0  0  0
   41.8330   35.8827   42.5001 H   0  0  0  0  0  0  0  0  0  0  0  0
   40.7493   34.5307   40.4570 H   0  0  0  0  0  0  0  0  0  0  0  0
  1  6  2  0
  2  1  1  0
  3  2  2  0
  3  4  1  0
  4  5  2  0
  5  6  1  0
  7  3  1  0
  8  7  2  0
  9  8  1  0
 10  9  1  0
 10 11  2  0
 11  7  1  0
 12  2  1  0
 13 14  1  0
 13 17  1  0
 14 15  2  0
 15 16  1  0
 15 12  1  0
 17 16  2  0
  1 18  1  0
  5 19  1  0
 10 20  1  0
 13 21  1  0
 16 22  1  0
 17 23  1  0
M  ISO  6  18  14  19  14  20  14  21   9  22  14  23  14
M  END
>  <minimizedAffinity>  (1) 
-4.61774731

>  <minimizedRMSD>  (1) 
2.59682989

$$$$
