
     RDKit          3D

 25 26  0  0  0  0  0  0  0  0999 V2000
   44.2860   35.8160   44.4200 C   0  0  0  0  0  0  0  0  0  0  0  0
   44.4430   34.9940   43.2780 C   0  0  0  0  0  0  0  0  0  0  0  0
   45.0440   33.7360   43.4330 C   0  0  0  0  0  0  0  0  0  0  0  0
   45.4540   33.3510   44.6710 N   0  0  0  0  0  0  0  0  0  0  0  0
   45.2840   34.1690   45.7410 C   0  0  0  0  0  0  0  0  0  0  0  0
   44.7100   35.3800   45.6150 N   0  0  0  0  0  0  0  0  0  0  0  0
   45.2280   32.8680   42.3210 N   0  0  0  0  0  0  0  0  0  0  0  0
   44.2370   31.9050   42.0090 C   0  0  0  0  0  0  0  0  0  0  0  0
   43.4350   31.4570   42.9170 N   0  0  0  0  0  0  0  0  0  0  0  0
   44.1280   31.4280   40.6740 N   0  0  0  0  0  0  0  0  0  0  0  0
   42.7150   30.7530   42.6780 H   0  0  0  0  0  0  0  0  0  0  0  0
   43.8890   35.5370   41.6590 S   0  0  0  0  0  0  0  0  0  0  0  0
   40.4890   33.7860   40.9790 N   0  0  0  0  0  0  0  0  0  0  0  0
   41.7870   33.7530   41.2330 N   0  0  0  0  0  0  0  0  0  0  0  0
   42.2430   35.0410   41.3330 C   0  0  0  0  0  0  0  0  0  0  0  0
   41.1630   35.8270   41.1290 C   0  0  0  0  0  0  0  0  0  0  0  0
   40.0300   35.0640   40.9010 C   0  0  0  0  0  0  0  0  0  0  0  0
   43.8185   36.8074   44.3274 H   0  0  0  0  0  0  0  0  0  0  0  0
   45.6228   33.8348   46.7328 H   0  0  0  0  0  0  0  0  0  0  0  0
   46.0787   32.9395   41.7448 H   0  0  0  0  0  0  0  0  0  0  0  0
   43.4117   30.7278   40.4342 H   0  0  0  0  0  0  0  0  0  0  0  0
   44.7654   31.7826   39.9467 H   0  0  0  0  0  0  0  0  0  0  0  0
   39.9005   32.9497   40.8559 H   0  0  0  0  0  0  0  0  0  0  0  0
   41.1813   36.9268   41.1423 H   0  0  0  0  0  0  0  0  0  0  0  0
   39.0042   35.4090   40.7040 H   0  0  0  0  0  0  0  0  0  0  0  0
  1  6  2  0
  2  3  2  0
  2  1  1  0
  3  4  1  0
  4  5  2  0
  6  5  1  0
  7  3  1  0
  8  7  1  0
  8  9  2  0
 10  8  1  0
 11  9  1  0
 12  2  1  0
 13 14  1  0
 14 15  2  0
 15 12  1  0
 16 15  1  0
 17 13  1  0
 17 16  2  0
  1 18  1  0
  5 19  1  0
  7 20  1  0
 10 21  1  0
 10 22  1  0
 13 23  1  0
 16 24  1  0
 17 25  1  0
M  ISO  5  18  14  19  14  23   9  24  14  25  14
M  END
>  <minimizedAffinity>  (1) 
-4.28421402

>  <minimizedRMSD>  (1) 
0.724372625

$$$$
