
     RDKit          3D

 34 36  0  0  0  0  0  0  0  0999 V2000
   43.4740   35.3350   42.3300 C   0  0  0  0  0  0  0  0  0  0  0  0
   44.5020   34.6310   41.6540 C   0  0  0  0  0  0  0  0  0  0  0  0
   45.7510   34.5110   42.2790 C   0  0  0  0  0  0  0  0  0  0  0  0
   45.9350   35.0720   43.5120 N   0  0  0  0  0  0  0  0  0  0  0  0
   44.9240   35.7330   44.1130 C   0  0  0  0  0  0  0  0  0  0  0  0
   43.7120   35.8620   43.5310 N   0  0  0  0  0  0  0  0  0  0  0  0
   46.8320   33.7910   41.6070 C   0  0  0  0  0  0  0  0  0  0  0  0
   47.7640   34.8360   41.0030 C   0  0  0  0  0  0  0  0  0  0  0  0
   48.8990   35.1460   41.9830 C   0  0  0  0  0  0  0  0  0  0  0  0
   49.8550   33.9530   42.0920 C   0  0  0  0  0  0  0  0  0  0  0  0
   48.9790   32.7210   41.8890 C   0  0  0  0  0  0  0  0  0  0  0  0
   47.6680   33.0230   42.6120 C   0  0  0  0  0  0  0  0  0  0  0  0
   44.2430   33.9000   40.0350 S   0  0  0  0  0  0  0  0  0  0  0  0
   40.4850   34.1980   39.0450 N   0  0  0  0  0  0  0  0  0  0  0  0
   41.4630   33.6230   39.7050 N   0  0  0  0  0  0  0  0  0  0  0  0
   42.6310   34.2710   39.4140 C   0  0  0  0  0  0  0  0  0  0  0  0
   42.2890   35.2500   38.5510 C   0  0  0  0  0  0  0  0  0  0  0  0
   40.9300   35.2370   38.2910 C   0  0  0  0  0  0  0  0  0  0  0  0
   42.4833   35.4460   41.8651 H   0  0  0  0  0  0  0  0  0  0  0  0
   45.0914   36.1792   45.1044 H   0  0  0  0  0  0  0  0  0  0  0  0
   46.3991   33.1048   40.8643 H   0  0  0  0  0  0  0  0  0  0  0  0
   48.1873   34.4490   40.0644 H   0  0  0  0  0  0  0  0  0  0  0  0
   47.1962   35.7563   40.8015 H   0  0  0  0  0  0  0  0  0  0  0  0
   49.4559   36.0247   41.6256 H   0  0  0  0  0  0  0  0  0  0  0  0
   48.4676   35.3479   42.9745 H   0  0  0  0  0  0  0  0  0  0  0  0
   50.6307   34.0076   41.3140 H   0  0  0  0  0  0  0  0  0  0  0  0
   50.3781   33.9315   43.0594 H   0  0  0  0  0  0  0  0  0  0  0  0
   48.7962   32.5526   40.8174 H   0  0  0  0  0  0  0  0  0  0  0  0
   49.4590   31.8122   42.2810 H   0  0  0  0  0  0  0  0  0  0  0  0
   47.8527   33.6338   43.5080 H   0  0  0  0  0  0  0  0  0  0  0  0
   47.1643   32.1065   42.9532 H   0  0  0  0  0  0  0  0  0  0  0  0
   39.5007   33.8983   39.0928 H   0  0  0  0  0  0  0  0  0  0  0  0
   42.9987   35.9660   38.1110 H   0  0  0  0  0  0  0  0  0  0  0  0
   40.3518   35.9042   37.6348 H   0  0  0  0  0  0  0  0  0  0  0  0
  1  6  2  0
  2  3  2  0
  2  1  1  0
  3  4  1  0
  4  5  2  0
  6  5  1  0
  7  3  1  0
  7 12  1  0
  8  7  1  0
  8  9  1  0
  9 10  1  0
 11 10  1  0
 11 12  1  0
 13  2  1  0
 14 15  1  0
 16 15  2  0
 16 13  1  0
 17 16  1  0
 18 17  2  0
 18 14  1  0
  1 19  1  0
  5 20  1  0
  7 21  1  0
  8 22  1  0
  8 23  1  0
  9 24  1  0
  9 25  1  0
 10 26  1  0
 10 27  1  0
 11 28  1  0
 11 29  1  0
 12 30  1  0
 12 31  1  0
 14 32  1  0
 17 33  1  0
 18 34  1  0
M  ISO  8  19  14  20  14  21  13  22  13  23  13  24  13  25  13  26  13
M  ISO  8  27  13  28  13  29  13  30  13  31  13  32   9  33  14  34  14
M  END
>  <minimizedAffinity>  (1) 
-4.62623835

>  <minimizedRMSD>  (1) 
3.50080967

$$$$
