
     RDKit          3D

 24 26  0  0  0  0  0  0  0  0999 V2000
   45.1810   34.3790   45.2590 C   0  0  0  0  0  0  0  0  0  0  0  0
   45.6020   34.6650   43.9570 C   0  0  0  0  0  0  0  0  0  0  0  0
   46.7240   33.9940   43.4830 C   0  0  0  0  0  0  0  0  0  0  0  0
   47.3730   33.0920   44.2880 N   0  0  0  0  0  0  0  0  0  0  0  0
   46.9120   32.8650   45.5350 C   0  0  0  0  0  0  0  0  0  0  0  0
   45.8390   33.4870   46.0250 N   0  0  0  0  0  0  0  0  0  0  0  0
   47.2200   34.2260   42.1720 N   0  0  0  0  0  0  0  0  0  0  0  0
   48.2050   35.1290   42.0280 C   0  0  0  0  0  0  0  0  0  0  0  0
   48.5560   35.2250   40.7200 N   0  0  0  0  0  0  0  0  0  0  0  0
   47.7530   34.3480   40.0510 C   0  0  0  0  0  0  0  0  0  0  0  0
   46.9510   33.7540   40.9600 N   0  0  0  0  0  0  0  0  0  0  0  0
   44.7460   35.8470   42.9140 S   0  0  0  0  0  0  0  0  0  0  0  0
   42.3810   33.5260   40.8910 N   0  0  0  0  0  0  0  0  0  0  0  0
   43.4080   33.7010   41.6870 N   0  0  0  0  0  0  0  0  0  0  0  0
   43.5350   35.0500   41.9160 C   0  0  0  0  0  0  0  0  0  0  0  0
   42.5250   35.6280   41.2060 C   0  0  0  0  0  0  0  0  0  0  0  0
   41.7690   34.7050   40.5420 C   0  0  0  0  0  0  0  0  0  0  0  0
   44.2966   34.8914   45.6655 H   0  0  0  0  0  0  0  0  0  0  0  0
   47.4406   32.1400   46.1713 H   0  0  0  0  0  0  0  0  0  0  0  0
   48.6592   35.7047   42.8479 H   0  0  0  0  0  0  0  0  0  0  0  0
   47.7582   34.1592   38.9673 H   0  0  0  0  0  0  0  0  0  0  0  0
   42.0664   32.6020   40.5621 H   0  0  0  0  0  0  0  0  0  0  0  0
   42.3405   36.7119   41.1720 H   0  0  0  0  0  0  0  0  0  0  0  0
   40.8945   34.8646   39.8941 H   0  0  0  0  0  0  0  0  0  0  0  0
  1  6  2  0
  2  1  1  0
  3  2  2  0
  3  4  1  0
  4  5  2  0
  5  6  1  0
  7  3  1  0
  8  7  1  0
  9  8  2  0
 10  9  1  0
 10 11  2  0
 11  7  1  0
 12  2  1  0
 13 14  1  0
 14 15  2  0
 15 12  1  0
 16 15  1  0
 17 13  1  0
 17 16  2  0
  1 18  1  0
  5 19  1  0
  8 20  1  0
 10 21  1  0
 13 22  1  0
 16 23  1  0
 17 24  1  0
M  ISO  7  18  14  19  14  20  14  21  14  22   9  23  14  24  14
M  END
>  <minimizedAffinity>  (1) 
-4.45080328

>  <minimizedRMSD>  (1) 
2.36491823

$$$$
