
     RDKit          3D

 30 31  0  0  0  0  0  0  0  0999 V2000
   44.1780   35.5250   44.3230 C   0  0  0  0  0  0  0  0  0  0  0  0
   44.7220   35.1070   43.0760 C   0  0  0  0  0  0  0  0  0  0  0  0
   45.8420   34.2580   43.0190 C   0  0  0  0  0  0  0  0  0  0  0  0
   46.3290   33.8910   44.2460 N   0  0  0  0  0  0  0  0  0  0  0  0
   45.8030   34.2950   45.4100 C   0  0  0  0  0  0  0  0  0  0  0  0
   44.7420   35.1020   45.4680 N   0  0  0  0  0  0  0  0  0  0  0  0
   46.5140   33.7710   41.8240 C   0  0  0  0  0  0  0  0  0  0  0  0
   45.6620   33.8240   40.5680 C   0  0  0  0  0  0  0  0  0  0  0  0
   47.3390   32.5550   41.9820 C   0  0  0  0  0  0  0  0  0  0  0  0
   47.5780   34.8770   41.4770 C   0  0  0  0  0  0  0  0  0  0  0  0
   44.0010   35.6580   41.5190 S   0  0  0  0  0  0  0  0  0  0  0  0
   40.6370   33.7580   41.1020 N   0  0  0  0  0  0  0  0  0  0  0  0
   41.9270   33.8200   41.2720 N   0  0  0  0  0  0  0  0  0  0  0  0
   42.3630   35.0960   41.3160 C   0  0  0  0  0  0  0  0  0  0  0  0
   41.2460   35.8260   41.1610 C   0  0  0  0  0  0  0  0  0  0  0  0
   40.1330   35.0130   41.0220 C   0  0  0  0  0  0  0  0  0  0  0  0
   43.3020   36.1897   44.3499 H   0  0  0  0  0  0  0  0  0  0  0  0
   46.2609   33.9501   46.3488 H   0  0  0  0  0  0  0  0  0  0  0  0
   44.6002   33.8901   40.8477 H   0  0  0  0  0  0  0  0  0  0  0  0
   45.9401   34.7066   39.9733 H   0  0  0  0  0  0  0  0  0  0  0  0
   45.8286   32.9138   39.9733 H   0  0  0  0  0  0  0  0  0  0  0  0
   47.4814   32.3451   43.0523 H   0  0  0  0  0  0  0  0  0  0  0  0
   46.8316   31.7032   41.5056 H   0  0  0  0  0  0  0  0  0  0  0  0
   48.3180   32.7117   41.5056 H   0  0  0  0  0  0  0  0  0  0  0  0
   47.9845   35.2996   42.4077 H   0  0  0  0  0  0  0  0  0  0  0  0
   48.3939   34.4296   40.8904 H   0  0  0  0  0  0  0  0  0  0  0  0
   47.0994   35.6750   40.8904 H   0  0  0  0  0  0  0  0  0  0  0  0
   40.0860   32.8901   41.0383 H   0  0  0  0  0  0  0  0  0  0  0  0
   41.2187   36.9256   41.1464 H   0  0  0  0  0  0  0  0  0  0  0  0
   39.0850   35.3156   40.8799 H   0  0  0  0  0  0  0  0  0  0  0  0
  1  6  2  0
  2  1  1  0
  3  2  2  0
  3  4  1  0
  4  5  2  0
  5  6  1  0
  7  9  1  0
  7  3  1  0
  8  7  1  0
 10  7  1  0
 11  2  1  0
 12 13  1  0
 13 14  2  0
 14 11  1  0
 15 14  1  0
 16 12  1  0
 16 15  2  0
  1 17  1  0
  5 18  1  0
  8 19  1  0
  8 20  1  0
  8 21  1  0
  9 22  1  0
  9 23  1  0
  9 24  1  0
 10 25  1  0
 10 26  1  0
 10 27  1  0
 12 28  1  0
 15 29  1  0
 16 30  1  0
M  ISO  8  17  14  18  14  19   8  20   8  21   8  22   8  23   8  24   8
M  ISO  6  25   8  26   8  27   8  28   9  29  14  30  14
M  END
>  <minimizedAffinity>  (1) 
-4.1433897

>  <minimizedRMSD>  (1) 
1.04333949

$$$$
