
     RDKit          3D

 25 27  0  0  0  0  0  0  0  0999 V2000
   44.4300   35.2790   44.6340 C   0  0  0  0  0  0  0  0  0  0  0  0
   44.9010   35.1320   43.3040 C   0  0  0  0  0  0  0  0  0  0  0  0
   46.0230   34.3500   43.0980 C   0  0  0  0  0  0  0  0  0  0  0  0
   46.6200   33.7610   44.1690 N   0  0  0  0  0  0  0  0  0  0  0  0
   46.1370   33.9280   45.4160 C   0  0  0  0  0  0  0  0  0  0  0  0
   45.0590   34.6730   45.6580 N   0  0  0  0  0  0  0  0  0  0  0  0
   46.6050   34.1200   41.7900 C   0  0  0  0  0  0  0  0  0  0  0  0
   46.3790   33.2790   40.7310 C   0  0  0  0  0  0  0  0  0  0  0  0
   47.2360   33.4870   39.7280 N   0  0  0  0  0  0  0  0  0  0  0  0
   48.0440   34.4700   40.1100 C   0  0  0  0  0  0  0  0  0  0  0  0
   47.6520   34.8330   41.3410 N   0  0  0  0  0  0  0  0  0  0  0  0
   44.0480   35.9450   41.9670 S   0  0  0  0  0  0  0  0  0  0  0  0
   41.1160   33.5510   41.0140 N   0  0  0  0  0  0  0  0  0  0  0  0
   42.3840   33.7730   41.2650 N   0  0  0  0  0  0  0  0  0  0  0  0
   42.5490   35.1080   41.5570 C   0  0  0  0  0  0  0  0  0  0  0  0
   41.3060   35.6500   41.4600 C   0  0  0  0  0  0  0  0  0  0  0  0
   40.3720   34.6980   41.1200 C   0  0  0  0  0  0  0  0  0  0  0  0
   43.5404   35.8954   44.8307 H   0  0  0  0  0  0  0  0  0  0  0  0
   46.6467   33.4357   46.2573 H   0  0  0  0  0  0  0  0  0  0  0  0
   45.5831   32.5200   40.7099 H   0  0  0  0  0  0  0  0  0  0  0  0
   48.8729   34.9022   39.5302 H   0  0  0  0  0  0  0  0  0  0  0  0
   48.1063   35.5803   41.8851 H   0  0  0  0  0  0  0  0  0  0  0  0
   40.7273   32.6295   40.7678 H   0  0  0  0  0  0  0  0  0  0  0  0
   41.0764   36.7121   41.6311 H   0  0  0  0  0  0  0  0  0  0  0  0
   39.2899   34.8263   40.9696 H   0  0  0  0  0  0  0  0  0  0  0  0
  1  6  2  0
  2  1  1  0
  3  2  2  0
  3  4  1  0
  4  5  2  0
  5  6  1  0
  7  3  1  0
  8  7  2  0
  9 10  2  0
  9  8  1  0
 10 11  1  0
 11  7  1  0
 12  2  1  0
 13 17  1  0
 13 14  1  0
 14 15  2  0
 15 12  1  0
 16 15  1  0
 17 16  2  0
  1 18  1  0
  5 19  1  0
  8 20  1  0
 10 21  1  0
 11 22  1  0
 13 23  1  0
 16 24  1  0
 17 25  1  0
M  ISO  8  18  14  19  14  20  14  21  14  22   9  23   9  24  14  25  14
M  END
>  <minimizedAffinity>  (1) 
-4.2233839

>  <minimizedRMSD>  (1) 
1.57717717

$$$$
