
     RDKit          3D

 36 38  0  0  0  0  0  0  0  0999 V2000
   47.0970   31.1000   48.5250 N   0  0  0  0  0  0  0  0  0  0  0  0
   46.2930   31.0690   49.5760 N   0  0  0  0  0  0  0  0  0  0  0  0
   45.0340   31.3150   49.2360 C   0  0  0  0  0  0  0  0  0  0  0  0
   45.0080   31.5230   47.8810 C   0  0  0  0  0  0  0  0  0  0  0  0
   46.2990   31.3860   47.4480 C   0  0  0  0  0  0  0  0  0  0  0  0
   46.5770   31.5520   46.0460 N   0  0  0  0  0  0  0  0  0  0  0  0
   46.7560   32.7760   45.4790 C   0  0  0  0  0  0  0  0  0  0  0  0
   47.0200   32.8750   44.1290 C   0  0  0  0  0  0  0  0  0  0  0  0
   47.2200   34.1970   43.4780 C   0  0  0  0  0  0  0  0  0  0  0  0
   47.0890   31.6980   43.4170 C   0  0  0  0  0  0  0  0  0  0  0  0
   47.3320   31.8230   42.1870 O   0  0  0  0  0  0  0  0  0  0  0  0
   46.9200   30.4660   43.9330 N   0  0  0  0  0  0  0  0  0  0  0  0
   46.6670   30.4680   45.2530 C   0  0  0  0  0  0  0  0  0  0  0  0
   46.4950   29.3330   45.8160 O   0  0  0  0  0  0  0  0  0  0  0  0
   48.5100   30.9020   48.3490 C   0  0  0  0  0  0  0  0  0  0  0  0
   49.3420   31.2460   49.5600 C   0  0  0  0  0  0  0  0  0  0  0  0
   49.8910   30.0630   50.2000 C   0  0  0  0  0  0  0  0  0  0  0  0
   49.9280   28.9310   49.3980 C   0  0  0  0  0  0  0  0  0  0  0  0
   50.4300   27.7060   49.8450 C   0  0  0  0  0  0  0  0  0  0  0  0
   50.8860   27.6910   51.1280 N   0  0  0  0  0  0  0  0  0  0  0  0
   50.8470   28.7910   51.9020 C   0  0  0  0  0  0  0  0  0  0  0  0
   50.3580   29.9350   51.4260 N   0  0  0  0  0  0  0  0  0  0  0  0
   44.1701   31.3463   49.9162 H   0  0  0  0  0  0  0  0  0  0  0  0
   44.1261   31.7538   47.2653 H   0  0  0  0  0  0  0  0  0  0  0  0
   46.6903   33.6843   46.0960 H   0  0  0  0  0  0  0  0  0  0  0  0
   47.3372   34.9718   44.2499 H   0  0  0  0  0  0  0  0  0  0  0  0
   48.1234   34.1642   42.8513 H   0  0  0  0  0  0  0  0  0  0  0  0
   46.3473   34.4329   42.8513 H   0  0  0  0  0  0  0  0  0  0  0  0
   46.9789   29.6051   43.3705 H   0  0  0  0  0  0  0  0  0  0  0  0
   48.6813   29.8437   48.1029 H   0  0  0  0  0  0  0  0  0  0  0  0
   48.8257   31.5847   47.5463 H   0  0  0  0  0  0  0  0  0  0  0  0
   50.1715   31.8972   49.2471 H   0  0  0  0  0  0  0  0  0  0  0  0
   48.6894   31.7521   50.2866 H   0  0  0  0  0  0  0  0  0  0  0  0
   49.5466   29.0010   48.3686 H   0  0  0  0  0  0  0  0  0  0  0  0
   50.4552   26.8131   49.2031 H   0  0  0  0  0  0  0  0  0  0  0  0
   51.2216   28.7452   52.9352 H   0  0  0  0  0  0  0  0  0  0  0  0
  1  2  1  0
  3  2  2  0
  4  3  1  0
  5  4  2  0
  5  1  1  0
  6  5  1  0
  7  6  1  0
  8  7  2  0
  9  8  1  0
 10 12  1  0
 10  8  1  0
 11 10  2  0
 12 13  1  0
 13 14  2  0
 13  6  1  0
 15  1  1  0
 15 16  1  0
 16 17  1  0
 17 22  2  0
 18 19  2  0
 18 17  1  0
 19 20  1  0
 20 21  2  0
 22 21  1  0
  3 23  1  0
  4 24  1  0
  7 25  1  0
  9 26  1  0
  9 27  1  0
  9 28  1  0
 12 29  1  0
 15 30  1  0
 15 31  1  0
 16 32  1  0
 16 33  1  0
 18 34  1  0
 19 35  1  0
 21 36  1  0
M  ISO  8  23  14  24  14  25  14  26   8  27   8  28   8  29   9  30   8
M  ISO  6  31   8  32   8  33   8  34  14  35  14  36  14
M  END
>  <minimizedAffinity>  (1) 
-4.68346405

>  <minimizedRMSD>  (1) 
7.35659885

$$$$
