
     RDKit          3D

 33 35  0  0  0  0  0  0  0  0999 V2000
   47.6320   32.4050   43.9840 C   0  0  0  0  0  0  0  0  0  0  0  0
   47.9620   31.0480   44.3180 N   0  0  0  0  0  0  0  0  0  0  0  0
   48.6130   30.1060   43.6530 N   0  0  0  0  0  0  0  0  0  0  0  0
   48.6970   28.9790   44.3400 C   0  0  0  0  0  0  0  0  0  0  0  0
   48.0580   29.1990   45.5330 C   0  0  0  0  0  0  0  0  0  0  0  0
   47.5990   30.5010   45.5100 C   0  0  0  0  0  0  0  0  0  0  0  0
   46.8890   30.9450   46.7040 C   0  0  0  0  0  0  0  0  0  0  0  0
   45.6840   30.3230   47.0580 C   0  0  0  0  0  0  0  0  0  0  0  0
   44.8820   30.6160   48.1330 C   0  0  0  0  0  0  0  0  0  0  0  0
   45.3350   31.6400   48.9380 C   0  0  0  0  0  0  0  0  0  0  0  0
   46.5100   32.3130   48.6720 C   0  0  0  0  0  0  0  0  0  0  0  0
   47.2500   31.9530   47.5720 C   0  0  0  0  0  0  0  0  0  0  0  0
   46.2150   32.6150   43.5130 C   0  0  0  0  0  0  0  0  0  0  0  0
   45.6540   33.8710   43.9670 C   0  0  0  0  0  0  0  0  0  0  0  0
   45.6220   34.8840   43.0140 C   0  0  0  0  0  0  0  0  0  0  0  0
   45.1000   36.1470   43.3030 C   0  0  0  0  0  0  0  0  0  0  0  0
   44.6290   36.3290   44.5610 N   0  0  0  0  0  0  0  0  0  0  0  0
   44.6650   35.3360   45.4780 C   0  0  0  0  0  0  0  0  0  0  0  0
   45.1730   34.1430   45.1580 N   0  0  0  0  0  0  0  0  0  0  0  0
   47.7906   33.0255   44.8783 H   0  0  0  0  0  0  0  0  0  0  0  0
   48.2822   32.6827   43.1413 H   0  0  0  0  0  0  0  0  0  0  0  0
   49.1843   28.0471   44.0173 H   0  0  0  0  0  0  0  0  0  0  0  0
   47.9345   28.4758   46.3526 H   0  0  0  0  0  0  0  0  0  0  0  0
   45.3428   29.5093   46.4012 H   0  0  0  0  0  0  0  0  0  0  0  0
   43.9469   30.0739   48.3372 H   0  0  0  0  0  0  0  0  0  0  0  0
   44.7421   31.9289   49.8183 H   0  0  0  0  0  0  0  0  0  0  0  0
   46.8491   33.1258   49.3311 H   0  0  0  0  0  0  0  0  0  0  0  0
   48.1833   32.5000   47.3727 H   0  0  0  0  0  0  0  0  0  0  0  0
   45.5919   31.7930   43.8952 H   0  0  0  0  0  0  0  0  0  0  0  0
   46.2308   32.6370   42.4133 H   0  0  0  0  0  0  0  0  0  0  0  0
   46.0179   34.6853   42.0071 H   0  0  0  0  0  0  0  0  0  0  0  0
   45.0726   36.9496   42.5513 H   0  0  0  0  0  0  0  0  0  0  0  0
   44.2745   35.5114   46.4913 H   0  0  0  0  0  0  0  0  0  0  0  0
  1  2  1  0
  2  6  1  0
  3  2  1  0
  3  4  2  0
  4  5  1  0
  6  5  2  0
  6  7  1  0
  7  8  2  0
  7 12  1  0
  8  9  1  0
  9 10  2  0
 11 10  1  0
 12 11  2  0
 13 14  1  0
 13  1  1  0
 14 19  2  0
 15 16  2  0
 15 14  1  0
 16 17  1  0
 17 18  2  0
 19 18  1  0
  1 20  1  0
  1 21  1  0
  4 22  1  0
  5 23  1  0
  8 24  1  0
  9 25  1  0
 10 26  1  0
 11 27  1  0
 12 28  1  0
 13 29  1  0
 13 30  1  0
 15 31  1  0
 16 32  1  0
 18 33  1  0
M  ISO  8  20   8  21   8  22  14  23  14  24  14  25  14  26  14  27  14
M  ISO  6  28  14  29   8  30   8  31  14  32  14  33  14
M  END
>  <minimizedAffinity>  (1) 
-4.65808725

>  <minimizedRMSD>  (1) 
3.73339868

$$$$
