
     RDKit          3D

 41 44  0  0  0  0  0  0  0  0999 V2000
   45.0390   34.5240   45.3140 C   0  0  0  0  0  0  0  0  0  0  0  0
   45.5360   34.7370   44.0070 C   0  0  0  0  0  0  0  0  0  0  0  0
   46.6760   34.0390   43.5930 C   0  0  0  0  0  0  0  0  0  0  0  0
   47.2630   33.1740   44.4830 N   0  0  0  0  0  0  0  0  0  0  0  0
   46.7580   32.9980   45.7200 C   0  0  0  0  0  0  0  0  0  0  0  0
   45.6750   33.6550   46.1280 N   0  0  0  0  0  0  0  0  0  0  0  0
   47.1950   34.2490   42.2560 C   0  0  0  0  0  0  0  0  0  0  0  0
   48.1970   35.1940   42.1700 C   0  0  0  0  0  0  0  0  0  0  0  0
   48.8100   35.5280   40.9850 C   0  0  0  0  0  0  0  0  0  0  0  0
   48.4180   34.8940   39.8090 C   0  0  0  0  0  0  0  0  0  0  0  0
   47.4250   33.9590   39.9060 C   0  0  0  0  0  0  0  0  0  0  0  0
   46.8130   33.6260   41.0840 C   0  0  0  0  0  0  0  0  0  0  0  0
   44.7060   35.8870   42.9120 S   0  0  0  0  0  0  0  0  0  0  0  0
   42.3140   33.5140   40.9660 N   0  0  0  0  0  0  0  0  0  0  0  0
   43.3030   33.7210   41.8020 N   0  0  0  0  0  0  0  0  0  0  0  0
   43.5040   35.0750   41.9190 C   0  0  0  0  0  0  0  0  0  0  0  0
   42.5720   35.6360   41.1010 C   0  0  0  0  0  0  0  0  0  0  0  0
   41.8030   34.6800   40.4850 C   0  0  0  0  0  0  0  0  0  0  0  0
   40.7260   35.0090   39.5520 C   0  0  0  0  0  0  0  0  0  0  0  0
   39.3900   34.4910   39.9990 C   0  0  0  0  0  0  0  0  0  0  0  0
   38.6520   34.0530   38.7660 C   0  0  0  0  0  0  0  0  0  0  0  0
   39.4650   34.6540   37.6410 C   0  0  0  0  0  0  0  0  0  0  0  0
   40.8890   34.4580   38.1650 C   0  0  0  0  0  0  0  0  0  0  0  0
   44.1444   35.0604   45.6632 H   0  0  0  0  0  0  0  0  0  0  0  0
   47.2519   32.2957   46.4077 H   0  0  0  0  0  0  0  0  0  0  0  0
   48.5198   35.7028   43.0903 H   0  0  0  0  0  0  0  0  0  0  0  0
   49.6034   36.2897   40.9665 H   0  0  0  0  0  0  0  0  0  0  0  0
   48.8869   35.1349   38.8435 H   0  0  0  0  0  0  0  0  0  0  0  0
   47.1007   33.4470   38.9880 H   0  0  0  0  0  0  0  0  0  0  0  0
   46.0193   32.8645   41.0973 H   0  0  0  0  0  0  0  0  0  0  0  0
   41.9657   32.5806   40.7047 H   0  0  0  0  0  0  0  0  0  0  0  0
   42.4502   36.7191   40.9522 H   0  0  0  0  0  0  0  0  0  0  0  0
   40.7788   36.1076   39.5380 H   0  0  0  0  0  0  0  0  0  0  0  0
   39.5246   33.6386   40.6811 H   0  0  0  0  0  0  0  0  0  0  0  0
   38.8279   35.2689   40.5365 H   0  0  0  0  0  0  0  0  0  0  0  0
   38.6265   32.9559   38.6911 H   0  0  0  0  0  0  0  0  0  0  0  0
   37.6004   34.3756   38.7567 H   0  0  0  0  0  0  0  0  0  0  0  0
   39.2309   35.7194   37.4991 H   0  0  0  0  0  0  0  0  0  0  0  0
   39.2796   34.1986   36.6570 H   0  0  0  0  0  0  0  0  0  0  0  0
   41.1784   33.3968   38.1773 H   0  0  0  0  0  0  0  0  0  0  0  0
   41.6770   34.9347   37.5635 H   0  0  0  0  0  0  0  0  0  0  0  0
  1  6  2  0
  2  1  1  0
  3  2  2  0
  3  4  1  0
  4  5  2  0
  5  6  1  0
  7  3  1  0
  8  7  2  0
  9  8  1  0
 10 11  1  0
 10  9  2  0
 11 12  2  0
 12  7  1  0
 13  2  1  0
 14 15  1  0
 15 16  2  0
 16 13  1  0
 17 16  1  0
 18 14  1  0
 18 17  2  0
 19 20  1  0
 19 18  1  0
 21 20  1  0
 22 23  1  0
 22 21  1  0
 23 19  1  0
  1 24  1  0
  5 25  1  0
  8 26  1  0
  9 27  1  0
 10 28  1  0
 11 29  1  0
 12 30  1  0
 14 31  1  0
 17 32  1  0
 19 33  1  0
 20 34  1  0
 20 35  1  0
 21 36  1  0
 21 37  1  0
 22 38  1  0
 22 39  1  0
 23 40  1  0
 23 41  1  0
M  ISO  8  24  14  25  14  26  14  27  14  28  14  29  14  30  14  31   9
M  ISO  8  32  14  33  13  34  13  35  13  36  13  37  13  38  13  39  13
M  ISO  2  40  13  41  13
M  END
>  <minimizedAffinity>  (1) 
-6.99435139

>  <minimizedRMSD>  (1) 
0.605041027

$$$$
