
     RDKit          3D

 43 46  0  0  0  0  0  0  0  0999 V2000
   45.1010   34.3580   45.3980 C   0  0  0  0  0  0  0  0  0  0  0  0
   45.5820   34.5890   44.0890 C   0  0  0  0  0  0  0  0  0  0  0  0
   46.7520   33.9520   43.6800 C   0  0  0  0  0  0  0  0  0  0  0  0
   47.3950   33.1220   44.5620 N   0  0  0  0  0  0  0  0  0  0  0  0
   46.9030   32.9240   45.8090 C   0  0  0  0  0  0  0  0  0  0  0  0
   45.7760   33.5280   46.2250 N   0  0  0  0  0  0  0  0  0  0  0  0
   47.2580   34.1830   42.3330 C   0  0  0  0  0  0  0  0  0  0  0  0
   48.2140   35.1780   42.2550 C   0  0  0  0  0  0  0  0  0  0  0  0
   48.8110   35.5410   41.0660 C   0  0  0  0  0  0  0  0  0  0  0  0
   48.4480   34.8910   39.8900 C   0  0  0  0  0  0  0  0  0  0  0  0
   47.4970   33.9090   39.9910 C   0  0  0  0  0  0  0  0  0  0  0  0
   46.8990   33.5430   41.1730 C   0  0  0  0  0  0  0  0  0  0  0  0
   44.6800   35.6890   43.0020 S   0  0  0  0  0  0  0  0  0  0  0  0
   42.4160   33.2210   41.0320 N   0  0  0  0  0  0  0  0  0  0  0  0
   43.4780   33.4630   41.7640 N   0  0  0  0  0  0  0  0  0  0  0  0
   43.4900   34.8070   42.0520 C   0  0  0  0  0  0  0  0  0  0  0  0
   42.3830   35.3170   41.4460 C   0  0  0  0  0  0  0  0  0  0  0  0
   41.6790   34.3390   40.7890 C   0  0  0  0  0  0  0  0  0  0  0  0
   40.4920   34.5210   40.0640 N   0  0  0  0  0  0  0  0  0  0  0  0
   39.2840   33.7800   40.4100 C   0  0  0  0  0  0  0  0  0  0  0  0
   38.1840   33.9950   39.4250 C   0  0  0  0  0  0  0  0  0  0  0  0
   38.6740   33.8960   38.0120 C   0  0  0  0  0  0  0  0  0  0  0  0
   39.9620   34.6130   37.7470 C   0  0  0  0  0  0  0  0  0  0  0  0
   40.3960   35.4400   38.9470 C   0  0  0  0  0  0  0  0  0  0  0  0
   44.1805   34.8519   45.7428 H   0  0  0  0  0  0  0  0  0  0  0  0
   47.4383   32.2533   46.4972 H   0  0  0  0  0  0  0  0  0  0  0  0
   48.5101   35.7004   43.1766 H   0  0  0  0  0  0  0  0  0  0  0  0
   49.5685   36.3384   41.0472 H   0  0  0  0  0  0  0  0  0  0  0  0
   48.9035   35.1533   38.9237 H   0  0  0  0  0  0  0  0  0  0  0  0
   47.1951   33.3836   39.0730 H   0  0  0  0  0  0  0  0  0  0  0  0
   46.1410   32.7460   41.1893 H   0  0  0  0  0  0  0  0  0  0  0  0
   42.1671   32.2858   40.6794 H   0  0  0  0  0  0  0  0  0  0  0  0
   42.0902   36.3768   41.4786 H   0  0  0  0  0  0  0  0  0  0  0  0
   39.5246   32.7071   40.4424 H   0  0  0  0  0  0  0  0  0  0  0  0
   38.9352   34.1442   41.3876 H   0  0  0  0  0  0  0  0  0  0  0  0
   37.4075   33.2329   39.5867 H   0  0  0  0  0  0  0  0  0  0  0  0
   37.7823   35.0077   39.5771 H   0  0  0  0  0  0  0  0  0  0  0  0
   38.8180   32.8321   37.7726 H   0  0  0  0  0  0  0  0  0  0  0  0
   37.9124   34.3805   37.3833 H   0  0  0  0  0  0  0  0  0  0  0  0
   40.7436   33.8725   37.5216 H   0  0  0  0  0  0  0  0  0  0  0  0
   39.8099   35.2929   36.8958 H   0  0  0  0  0  0  0  0  0  0  0  0
   41.3729   35.9073   38.7538 H   0  0  0  0  0  0  0  0  0  0  0  0
   39.6787   36.2475   39.1554 H   0  0  0  0  0  0  0  0  0  0  0  0
  1  6  2  0
  2  1  1  0
  3  2  2  0
  3  4  1  0
  4  5  2  0
  5  6  1  0
  7  3  1  0
  8  7  2  0
  9  8  1  0
 10 11  1  0
 10  9  2  0
 11 12  2  0
 12  7  1  0
 13  2  1  0
 14 15  1  0
 15 16  2  0
 16 13  1  0
 17 16  1  0
 18 14  1  0
 18 17  2  0
 19 20  1  0
 19 18  1  0
 21 20  1  0
 22 21  1  0
 23 22  1  0
 23 24  1  0
 24 19  1  0
  1 25  1  0
  5 26  1  0
  8 27  1  0
  9 28  1  0
 10 29  1  0
 11 30  1  0
 12 31  1  0
 14 32  1  0
 17 33  1  0
 20 34  1  0
 20 35  1  0
 21 36  1  0
 21 37  1  0
 22 38  1  0
 22 39  1  0
 23 40  1  0
 23 41  1  0
 24 42  1  0
 24 43  1  0
M  ISO  8  25  14  26  14  27  14  28  14  29  14  30  14  31  14  32   9
M  ISO  8  33  14  34  13  35  13  36  13  37  13  38  13  39  13  40  13
M  ISO  3  41  13  42  13  43  13
M  END
>  <minimizedAffinity>  (1) 
-6.90239096

>  <minimizedRMSD>  (1) 
0.593138218

$$$$
