
     RDKit          3D

 35 38  0  0  0  0  0  0  0  0999 V2000
   45.1540   34.3460   45.4100 C   0  0  0  0  0  0  0  0  0  0  0  0
   45.6400   34.6260   44.1130 C   0  0  0  0  0  0  0  0  0  0  0  0
   46.7710   33.9470   43.6640 C   0  0  0  0  0  0  0  0  0  0  0  0
   47.3670   33.0350   44.4990 N   0  0  0  0  0  0  0  0  0  0  0  0
   46.8630   32.8010   45.7350 C   0  0  0  0  0  0  0  0  0  0  0  0
   45.7770   33.4440   46.1820 N   0  0  0  0  0  0  0  0  0  0  0  0
   47.2890   34.2230   42.3270 C   0  0  0  0  0  0  0  0  0  0  0  0
   48.2700   35.2030   42.2990 C   0  0  0  0  0  0  0  0  0  0  0  0
   48.8750   35.5980   41.1350 C   0  0  0  0  0  0  0  0  0  0  0  0
   48.5130   35.0150   39.9330 C   0  0  0  0  0  0  0  0  0  0  0  0
   47.5370   34.0420   39.9670 C   0  0  0  0  0  0  0  0  0  0  0  0
   46.9320   33.6470   41.1350 C   0  0  0  0  0  0  0  0  0  0  0  0
   44.7980   35.8360   43.0880 S   0  0  0  0  0  0  0  0  0  0  0  0
   42.5590   33.5750   40.8690 N   0  0  0  0  0  0  0  0  0  0  0  0
   43.3900   33.7420   41.8800 N   0  0  0  0  0  0  0  0  0  0  0  0
   43.7250   35.0720   41.9350 C   0  0  0  0  0  0  0  0  0  0  0  0
   43.0570   35.6680   40.9180 C   0  0  0  0  0  0  0  0  0  0  0  0
   42.2990   34.7370   40.2130 C   0  0  0  0  0  0  0  0  0  0  0  0
   41.4690   34.9600   39.0950 N   0  0  0  0  0  0  0  0  0  0  0  0
   40.3940   34.1730   39.0160 N   0  0  0  0  0  0  0  0  0  0  0  0
   39.7040   34.5010   37.9040 C   0  0  0  0  0  0  0  0  0  0  0  0
   40.4110   35.5310   37.3030 C   0  0  0  0  0  0  0  0  0  0  0  0
   41.5340   35.8140   38.0720 C   0  0  0  0  0  0  0  0  0  0  0  0
   44.2628   34.8691   45.7870 H   0  0  0  0  0  0  0  0  0  0  0  0
   47.3578   32.0655   46.3863 H   0  0  0  0  0  0  0  0  0  0  0  0
   48.5725   35.6792   43.2433 H   0  0  0  0  0  0  0  0  0  0  0  0
   49.6492   36.3792   41.1557 H   0  0  0  0  0  0  0  0  0  0  0  0
   48.9860   35.3165   38.9868 H   0  0  0  0  0  0  0  0  0  0  0  0
   47.2316   33.5646   39.0242 H   0  0  0  0  0  0  0  0  0  0  0  0
   46.1581   32.8656   41.1141 H   0  0  0  0  0  0  0  0  0  0  0  0
   42.1526   32.6658   40.6061 H   0  0  0  0  0  0  0  0  0  0  0  0
   43.1068   36.7411   40.6816 H   0  0  0  0  0  0  0  0  0  0  0  0
   38.7696   34.0437   37.5466 H   0  0  0  0  0  0  0  0  0  0  0  0
   40.1294   36.0411   36.3700 H   0  0  0  0  0  0  0  0  0  0  0  0
   42.3056   36.5740   37.8796 H   0  0  0  0  0  0  0  0  0  0  0  0
  1  6  2  0
  2  1  1  0
  3  2  2  0
  3  4  1  0
  4  5  2  0
  5  6  1  0
  7  3  1  0
  8  7  2  0
  9  8  1  0
 10 11  1  0
 10  9  2  0
 11 12  2  0
 12  7  1  0
 13  2  1  0
 14 15  1  0
 15 16  2  0
 16 13  1  0
 17 16  1  0
 18 14  1  0
 18 17  2  0
 19 18  1  0
 20 19  1  0
 21 20  2  0
 22 21  1  0
 22 23  2  0
 23 19  1  0
  1 24  1  0
  5 25  1  0
  8 26  1  0
  9 27  1  0
 10 28  1  0
 11 29  1  0
 12 30  1  0
 14 31  1  0
 17 32  1  0
 21 33  1  0
 22 34  1  0
 23 35  1  0
M  ISO  8  24  14  25  14  26  14  27  14  28  14  29  14  30  14  31   9
M  ISO  4  32  14  33  14  34  14  35  14
M  END
>  <minimizedAffinity>  (1) 
-6.34871006

>  <minimizedRMSD>  (1) 
0.655101776

$$$$
