
     RDKit          3D

 41 44  0  0  0  0  0  0  0  0999 V2000
   45.0680   34.4240   45.3370 C   0  0  0  0  0  0  0  0  0  0  0  0
   45.5690   34.6600   44.0340 C   0  0  0  0  0  0  0  0  0  0  0  0
   46.7510   34.0120   43.6340 C   0  0  0  0  0  0  0  0  0  0  0  0
   47.3640   33.1750   44.5340 N   0  0  0  0  0  0  0  0  0  0  0  0
   46.8510   32.9810   45.7640 C   0  0  0  0  0  0  0  0  0  0  0  0
   45.7290   33.5890   46.1600 N   0  0  0  0  0  0  0  0  0  0  0  0
   47.2750   34.2440   42.3040 C   0  0  0  0  0  0  0  0  0  0  0  0
   48.2430   35.2370   42.2410 C   0  0  0  0  0  0  0  0  0  0  0  0
   48.8530   35.5930   41.0580 C   0  0  0  0  0  0  0  0  0  0  0  0
   48.5090   34.9550   39.8780 C   0  0  0  0  0  0  0  0  0  0  0  0
   47.5540   33.9790   39.9560 C   0  0  0  0  0  0  0  0  0  0  0  0
   46.9430   33.6200   41.1300 C   0  0  0  0  0  0  0  0  0  0  0  0
   44.6950   35.7660   42.9390 S   0  0  0  0  0  0  0  0  0  0  0  0
   42.4650   33.3140   40.9120 N   0  0  0  0  0  0  0  0  0  0  0  0
   43.4860   33.5370   41.7050 N   0  0  0  0  0  0  0  0  0  0  0  0
   43.5250   34.8960   41.9380 C   0  0  0  0  0  0  0  0  0  0  0  0
   42.4860   35.4260   41.2480 C   0  0  0  0  0  0  0  0  0  0  0  0
   41.7840   34.4320   40.5750 C   0  0  0  0  0  0  0  0  0  0  0  0
   40.6490   34.5550   39.7510 N   0  0  0  0  0  0  0  0  0  0  0  0
   40.8230   34.6950   38.2980 C   0  0  0  0  0  0  0  0  0  0  0  0
   39.4900   34.5870   37.5930 C   0  0  0  0  0  0  0  0  0  0  0  0
   38.6660   33.6400   38.1880 O   0  0  0  0  0  0  0  0  0  0  0  0
   38.2690   33.9590   39.4590 C   0  0  0  0  0  0  0  0  0  0  0  0
   39.3390   34.5420   40.3390 C   0  0  0  0  0  0  0  0  0  0  0  0
   44.1455   34.9193   45.6742 H   0  0  0  0  0  0  0  0  0  0  0  0
   47.3688   32.3049   46.4603 H   0  0  0  0  0  0  0  0  0  0  0  0
   48.5326   35.7568   43.1662 H   0  0  0  0  0  0  0  0  0  0  0  0
   49.6152   36.3861   41.0508 H   0  0  0  0  0  0  0  0  0  0  0  0
   48.9823   35.2211   38.9214 H   0  0  0  0  0  0  0  0  0  0  0  0
   47.2621   33.4570   39.0328 H   0  0  0  0  0  0  0  0  0  0  0  0
   46.1816   32.8261   41.1293 H   0  0  0  0  0  0  0  0  0  0  0  0
   42.2064   32.3748   40.5774 H   0  0  0  0  0  0  0  0  0  0  0  0
   42.2326   36.4961   41.2236 H   0  0  0  0  0  0  0  0  0  0  0  0
   41.2697   35.6762   38.0797 H   0  0  0  0  0  0  0  0  0  0  0  0
   41.4818   33.8905   37.9391 H   0  0  0  0  0  0  0  0  0  0  0  0
   39.6637   34.2998   36.5455 H   0  0  0  0  0  0  0  0  0  0  0  0
   38.9893   35.5643   37.6577 H   0  0  0  0  0  0  0  0  0  0  0  0
   37.4523   34.6922   39.3859 H   0  0  0  0  0  0  0  0  0  0  0  0
   37.9699   33.0115   39.9310 H   0  0  0  0  0  0  0  0  0  0  0  0
   39.3834   33.9498   41.2649 H   0  0  0  0  0  0  0  0  0  0  0  0
   39.0633   35.5923   40.5144 H   0  0  0  0  0  0  0  0  0  0  0  0
  1  6  2  0
  2  1  1  0
  3  2  2  0
  3  4  1  0
  4  5  2  0
  5  6  1  0
  7  3  1  0
  8  7  2  0
  9  8  1  0
 10 11  1  0
 10  9  2  0
 11 12  2  0
 12  7  1  0
 13  2  1  0
 14 15  1  0
 15 16  2  0
 16 13  1  0
 17 16  1  0
 18 14  1  0
 18 17  2  0
 19 24  1  0
 19 18  1  0
 20 19  1  0
 21 22  1  0
 21 20  1  0
 22 23  1  0
 23 24  1  0
  1 25  1  0
  5 26  1  0
  8 27  1  0
  9 28  1  0
 10 29  1  0
 11 30  1  0
 12 31  1  0
 14 32  1  0
 17 33  1  0
 20 34  1  0
 20 35  1  0
 21 36  1  0
 21 37  1  0
 23 38  1  0
 23 39  1  0
 24 40  1  0
 24 41  1  0
M  ISO  8  25  14  26  14  27  14  28  14  29  14  30  14  31  14  32   9
M  ISO  8  33  14  34  13  35  13  36  13  37  13  38  13  39  13  40  13
M  ISO  1  41  13
M  END
>  <minimizedAffinity>  (1) 
-6.47243547

>  <minimizedRMSD>  (1) 
0.656233966

$$$$
