
     RDKit          3D

 35 38  0  0  0  0  0  0  0  0999 V2000
   44.7750   34.8250   45.1380 C   0  0  0  0  0  0  0  0  0  0  0  0
   45.2920   34.9200   43.8310 C   0  0  0  0  0  0  0  0  0  0  0  0
   46.4350   34.1730   43.5020 C   0  0  0  0  0  0  0  0  0  0  0  0
   46.9940   33.3860   44.4700 N   0  0  0  0  0  0  0  0  0  0  0  0
   46.4640   33.3250   45.7150 C   0  0  0  0  0  0  0  0  0  0  0  0
   45.3730   34.0340   46.0390 N   0  0  0  0  0  0  0  0  0  0  0  0
   46.9810   34.2610   42.1550 C   0  0  0  0  0  0  0  0  0  0  0  0
   48.0220   35.1680   42.0250 C   0  0  0  0  0  0  0  0  0  0  0  0
   48.6580   35.3860   40.8330 C   0  0  0  0  0  0  0  0  0  0  0  0
   48.2670   34.6810   39.6890 C   0  0  0  0  0  0  0  0  0  0  0  0
   47.2400   33.7940   39.8410 C   0  0  0  0  0  0  0  0  0  0  0  0
   46.5950   33.5690   41.0320 C   0  0  0  0  0  0  0  0  0  0  0  0
   44.4910   35.9780   42.6280 S   0  0  0  0  0  0  0  0  0  0  0  0
   41.8450   33.6490   41.0100 N   0  0  0  0  0  0  0  0  0  0  0  0
   43.0090   33.8380   41.5850 N   0  0  0  0  0  0  0  0  0  0  0  0
   43.1340   35.1680   41.8610 C   0  0  0  0  0  0  0  0  0  0  0  0
   41.9920   35.7530   41.4230 C   0  0  0  0  0  0  0  0  0  0  0  0
   41.1390   34.8020   40.8680 C   0  0  0  0  0  0  0  0  0  0  0  0
   39.8180   35.0800   40.2970 C   0  0  0  0  0  0  0  0  0  0  0  0
   38.8820   33.9880   39.9250 C   0  0  0  0  0  0  0  0  0  0  0  0
   39.6690   34.5850   38.8260 C   0  0  0  0  0  0  0  0  0  0  0  0
   43.8804   35.4002   45.4188 H   0  0  0  0  0  0  0  0  0  0  0  0
   46.9365   32.6830   46.4730 H   0  0  0  0  0  0  0  0  0  0  0  0
   48.3480   35.7321   42.9113 H   0  0  0  0  0  0  0  0  0  0  0  0
   49.4781   36.1167   40.7740 H   0  0  0  0  0  0  0  0  0  0  0  0
   48.7612   34.8334   38.7181 H   0  0  0  0  0  0  0  0  0  0  0  0
   46.9103   33.2268   38.9580 H   0  0  0  0  0  0  0  0  0  0  0  0
   45.7740   32.8390   41.0871 H   0  0  0  0  0  0  0  0  0  0  0  0
   41.5035   32.7280   40.7001 H   0  0  0  0  0  0  0  0  0  0  0  0
   41.7702   36.8280   41.4958 H   0  0  0  0  0  0  0  0  0  0  0  0
   39.6884   35.9969   40.8907 H   0  0  0  0  0  0  0  0  0  0  0  0
   39.0981   32.9585   40.2466 H   0  0  0  0  0  0  0  0  0  0  0  0
   37.8055   33.8271   40.0841 H   0  0  0  0  0  0  0  0  0  0  0  0
   40.4783   34.0123   38.3494 H   0  0  0  0  0  0  0  0  0  0  0  0
   39.4384   35.0537   37.8579 H   0  0  0  0  0  0  0  0  0  0  0  0
  1  6  2  0
  2  1  1  0
  3  2  2  0
  3  4  1  0
  4  5  2  0
  5  6  1  0
  7  3  1  0
  8  7  2  0
  9  8  1  0
 10 11  1  0
 10  9  2  0
 11 12  2  0
 12  7  1  0
 13  2  1  0
 14 15  1  0
 15 16  2  0
 16 13  1  0
 17 16  1  0
 18 14  1  0
 18 17  2  0
 19 18  1  0
 20 19  1  0
 21 20  1  0
 21 19  1  0
  1 22  1  0
  5 23  1  0
  8 24  1  0
  9 25  1  0
 10 26  1  0
 11 27  1  0
 12 28  1  0
 14 29  1  0
 17 30  1  0
 19 31  1  0
 20 32  1  0
 20 33  1  0
 21 34  1  0
 21 35  1  0
M  ISO  8  22  14  23  14  24  14  25  14  26  14  27  14  28  14  29   9
M  ISO  6  30  14  31  13  32  13  33  13  34  13  35  13
M  END
>  <minimizedAffinity>  (1) 
-6.21310711

>  <minimizedRMSD>  (1) 
0.491622806

$$$$
