
     RDKit          3D

 31 33  0  0  0  0  0  0  0  0999 V2000
   45.1680   34.3020   45.4450 C   0  0  0  0  0  0  0  0  0  0  0  0
   45.6630   34.6170   44.1580 C   0  0  0  0  0  0  0  0  0  0  0  0
   46.7690   33.9230   43.6750 C   0  0  0  0  0  0  0  0  0  0  0  0
   47.3380   32.9580   44.4690 N   0  0  0  0  0  0  0  0  0  0  0  0
   46.8410   32.6850   45.6860 C   0  0  0  0  0  0  0  0  0  0  0  0
   45.7780   33.3440   46.1650 N   0  0  0  0  0  0  0  0  0  0  0  0
   47.2940   34.2390   42.3450 C   0  0  0  0  0  0  0  0  0  0  0  0
   48.2870   35.1950   42.3380 C   0  0  0  0  0  0  0  0  0  0  0  0
   48.8960   35.6160   41.1790 C   0  0  0  0  0  0  0  0  0  0  0  0
   48.5120   35.0690   39.9520 C   0  0  0  0  0  0  0  0  0  0  0  0
   47.5210   34.1160   39.9820 C   0  0  0  0  0  0  0  0  0  0  0  0
   46.9170   33.6990   41.1330 C   0  0  0  0  0  0  0  0  0  0  0  0
   44.8650   35.8920   43.1840 S   0  0  0  0  0  0  0  0  0  0  0  0
   42.6430   33.7910   40.7760 N   0  0  0  0  0  0  0  0  0  0  0  0
   43.3650   33.9040   41.8700 N   0  0  0  0  0  0  0  0  0  0  0  0
   43.8450   35.1990   41.9290 C   0  0  0  0  0  0  0  0  0  0  0  0
   43.3570   35.8120   40.8150 C   0  0  0  0  0  0  0  0  0  0  0  0
   42.5960   34.9440   40.0710 C   0  0  0  0  0  0  0  0  0  0  0  0
   41.9060   35.2080   38.8230 C   0  0  0  0  0  0  0  0  0  0  0  0
   40.6500   35.1850   38.7740 O   0  0  0  0  0  0  0  0  0  0  0  0
   42.6610   35.4870   37.6910 O   0  0  0  0  0  0  0  0  0  0  0  0
   44.2952   34.8339   45.8517 H   0  0  0  0  0  0  0  0  0  0  0  0
   47.3155   31.9060   46.3008 H   0  0  0  0  0  0  0  0  0  0  0  0
   48.6038   35.6372   43.2941 H   0  0  0  0  0  0  0  0  0  0  0  0
   49.6843   36.3822   41.2179 H   0  0  0  0  0  0  0  0  0  0  0  0
   48.9796   35.3853   39.0079 H   0  0  0  0  0  0  0  0  0  0  0  0
   47.1989   33.6672   39.0308 H   0  0  0  0  0  0  0  0  0  0  0  0
   46.1294   32.9321   41.0939 H   0  0  0  0  0  0  0  0  0  0  0  0
   42.1678   32.9233   40.4892 H   0  0  0  0  0  0  0  0  0  0  0  0
   43.5470   36.8618   40.5470 H   0  0  0  0  0  0  0  0  0  0  0  0
   42.2108   35.6702   36.8285 H   0  0  0  0  0  0  0  0  0  0  0  0
  1  6  2  0
  2  1  1  0
  3  2  2  0
  3  4  1  0
  4  5  2  0
  5  6  1  0
  7  3  1  0
  8  7  2  0
  9  8  1  0
 10 11  1  0
 10  9  2  0
 11 12  2  0
 12  7  1  0
 13  2  1  0
 14 15  1  0
 15 16  2  0
 16 13  1  0
 17 16  1  0
 18 14  1  0
 18 17  2  0
 19 18  1  0
 20 19  2  0
 21 19  1  0
  1 22  1  0
  5 23  1  0
  8 24  1  0
  9 25  1  0
 10 26  1  0
 11 27  1  0
 12 28  1  0
 14 29  1  0
 17 30  1  0
 21 31  1  0
M  ISO  8  22  14  23  14  24  14  25  14  26  14  27  14  28  14  29   9
M  ISO  2  30  14  31   3
M  END
>  <minimizedAffinity>  (1) 
-6.07656384

>  <minimizedRMSD>  (1) 
0.881744206

$$$$
