
     RDKit          3D

 34 37  0  0  0  0  0  0  0  0999 V2000
   45.1480   34.3460   45.3980 C   0  0  0  0  0  0  0  0  0  0  0  0
   45.6410   34.6450   44.1140 C   0  0  0  0  0  0  0  0  0  0  0  0
   46.7750   33.9590   43.6560 C   0  0  0  0  0  0  0  0  0  0  0  0
   47.3520   33.0270   44.4810 N   0  0  0  0  0  0  0  0  0  0  0  0
   46.8500   32.7710   45.6990 C   0  0  0  0  0  0  0  0  0  0  0  0
   45.7710   33.4140   46.1530 N   0  0  0  0  0  0  0  0  0  0  0  0
   47.2980   34.2530   42.3350 C   0  0  0  0  0  0  0  0  0  0  0  0
   48.3020   35.2100   42.3180 C   0  0  0  0  0  0  0  0  0  0  0  0
   48.9140   35.6100   41.1470 C   0  0  0  0  0  0  0  0  0  0  0  0
   48.5300   35.0520   39.9330 C   0  0  0  0  0  0  0  0  0  0  0  0
   47.5390   34.1120   39.9680 C   0  0  0  0  0  0  0  0  0  0  0  0
   46.9290   33.7100   41.1200 C   0  0  0  0  0  0  0  0  0  0  0  0
   44.8300   35.8770   43.0970 S   0  0  0  0  0  0  0  0  0  0  0  0
   42.5470   33.6630   40.8740 N   0  0  0  0  0  0  0  0  0  0  0  0
   43.3720   33.7960   41.8730 N   0  0  0  0  0  0  0  0  0  0  0  0
   43.7390   35.1280   41.9460 C   0  0  0  0  0  0  0  0  0  0  0  0
   43.0690   35.7390   40.9260 C   0  0  0  0  0  0  0  0  0  0  0  0
   42.3010   34.8280   40.2260 C   0  0  0  0  0  0  0  0  0  0  0  0
   41.4400   34.9690   39.1050 N   0  0  0  0  0  0  0  0  0  0  0  0
   41.4120   35.7790   38.0420 C   0  0  0  0  0  0  0  0  0  0  0  0
   40.3570   35.4870   37.2600 N   0  0  0  0  0  0  0  0  0  0  0  0
   39.7340   34.4540   37.8920 C   0  0  0  0  0  0  0  0  0  0  0  0
   40.4060   34.1340   39.0360 N   0  0  0  0  0  0  0  0  0  0  0  0
   44.2604   34.8680   45.7849 H   0  0  0  0  0  0  0  0  0  0  0  0
   47.3365   32.0172   46.3355 H   0  0  0  0  0  0  0  0  0  0  0  0
   48.6206   35.6646   43.2677 H   0  0  0  0  0  0  0  0  0  0  0  0
   49.7071   36.3718   41.1746 H   0  0  0  0  0  0  0  0  0  0  0  0
   49.0028   35.3537   38.9867 H   0  0  0  0  0  0  0  0  0  0  0  0
   47.2170   33.6567   39.0199 H   0  0  0  0  0  0  0  0  0  0  0  0
   46.1371   32.9475   41.0809 H   0  0  0  0  0  0  0  0  0  0  0  0
   42.1242   32.7635   40.6036 H   0  0  0  0  0  0  0  0  0  0  0  0
   43.1318   36.8121   40.6925 H   0  0  0  0  0  0  0  0  0  0  0  0
   42.1468   36.5713   37.8361 H   0  0  0  0  0  0  0  0  0  0  0  0
   38.8235   33.9516   37.5334 H   0  0  0  0  0  0  0  0  0  0  0  0
  1  6  2  0
  2  1  1  0
  3  2  2  0
  3  4  1  0
  4  5  2  0
  5  6  1  0
  7  3  1  0
  8  7  2  0
  9  8  1  0
 10 11  1  0
 10  9  2  0
 11 12  2  0
 12  7  1  0
 13  2  1  0
 14 15  1  0
 15 16  2  0
 16 13  1  0
 17 16  1  0
 18 14  1  0
 18 17  2  0
 19 18  1  0
 20 19  1  0
 21 22  1  0
 21 20  2  0
 22 23  2  0
 23 19  1  0
  1 24  1  0
  5 25  1  0
  8 26  1  0
  9 27  1  0
 10 28  1  0
 11 29  1  0
 12 30  1  0
 14 31  1  0
 17 32  1  0
 20 33  1  0
 22 34  1  0
M  ISO  8  24  14  25  14  26  14  27  14  28  14  29  14  30  14  31   9
M  ISO  3  32  14  33  14  34  14
M  END
>  <minimizedAffinity>  (1) 
-6.342484

>  <minimizedRMSD>  (1) 
0.634936213

$$$$
