
     RDKit          3D

 29 31  0  0  0  0  0  0  0  0999 V2000
   44.9560   34.5930   45.3050 C   0  0  0  0  0  0  0  0  0  0  0  0
   45.4770   34.7830   43.9940 C   0  0  0  0  0  0  0  0  0  0  0  0
   46.6240   34.0610   43.6080 C   0  0  0  0  0  0  0  0  0  0  0  0
   47.1840   33.2140   44.5100 N   0  0  0  0  0  0  0  0  0  0  0  0
   46.6650   33.0580   45.7480 C   0  0  0  0  0  0  0  0  0  0  0  0
   45.5820   33.7280   46.1350 N   0  0  0  0  0  0  0  0  0  0  0  0
   47.1570   34.2500   42.2750 C   0  0  0  0  0  0  0  0  0  0  0  0
   48.1740   35.1890   42.2000 C   0  0  0  0  0  0  0  0  0  0  0  0
   48.8030   35.5030   41.0160 C   0  0  0  0  0  0  0  0  0  0  0  0
   48.4310   34.8790   39.8410 C   0  0  0  0  0  0  0  0  0  0  0  0
   47.4160   33.9450   39.9300 C   0  0  0  0  0  0  0  0  0  0  0  0
   46.7860   33.6300   41.1100 C   0  0  0  0  0  0  0  0  0  0  0  0
   44.6680   35.9220   42.8780 S   0  0  0  0  0  0  0  0  0  0  0  0
   42.2610   33.5740   40.9430 N   0  0  0  0  0  0  0  0  0  0  0  0
   43.2810   33.7650   41.7460 N   0  0  0  0  0  0  0  0  0  0  0  0
   43.4500   35.1210   41.9070 C   0  0  0  0  0  0  0  0  0  0  0  0
   42.4820   35.6910   41.1620 C   0  0  0  0  0  0  0  0  0  0  0  0
   41.6980   34.7490   40.5280 C   0  0  0  0  0  0  0  0  0  0  0  0
   40.3110   35.0030   39.4470 S   0  0  0  0  0  0  0  0  0  0  0  0
   44.0609   35.1395   45.6368 H   0  0  0  0  0  0  0  0  0  0  0  0
   47.1477   32.3627   46.4506 H   0  0  0  0  0  0  0  0  0  0  0  0
   48.4902   35.7022   43.1202 H   0  0  0  0  0  0  0  0  0  0  0  0
   49.6060   36.2547   41.0057 H   0  0  0  0  0  0  0  0  0  0  0  0
   48.9180   35.1136   38.8830 H   0  0  0  0  0  0  0  0  0  0  0  0
   47.0972   33.4291   39.0123 H   0  0  0  0  0  0  0  0  0  0  0  0
   45.9824   32.8789   41.1197 H   0  0  0  0  0  0  0  0  0  0  0  0
   41.9226   32.6440   40.6575 H   0  0  0  0  0  0  0  0  0  0  0  0
   42.3347   36.7772   41.0704 H   0  0  0  0  0  0  0  0  0  0  0  0
   39.1815   35.2098   40.1942 H   0  0  0  0  0  0  0  0  0  0  0  0
  1  6  2  0
  2  1  1  0
  3  2  2  0
  3  4  1  0
  4  5  2  0
  5  6  1  0
  7  3  1  0
  8  7  2  0
  9  8  1  0
 10 11  1  0
 10  9  2  0
 11 12  2  0
 12  7  1  0
 13  2  1  0
 14 15  1  0
 15 16  2  0
 16 13  1  0
 17 16  1  0
 18 14  1  0
 18 17  2  0
 19 18  1  0
  1 20  1  0
  5 21  1  0
  8 22  1  0
  9 23  1  0
 10 24  1  0
 11 25  1  0
 12 26  1  0
 14 27  1  0
 17 28  1  0
 19 29  1  0
M  ISO  8  20  14  21  14  22  14  23  14  24  14  25  14  26  14  27   9
M  ISO  2  28  14  29  11
M  END
>  <minimizedAffinity>  (1) 
-5.57091331

>  <minimizedRMSD>  (1) 
0.0349534638

$$$$
