
     RDKit          3D

 23 24  0  0  0  0  0  0  0  0999 V2000
   45.1390   35.7700   44.0210 C   0  0  0  0  0  0  0  0  0  0  0  0
   46.0240   34.7370   43.7160 C   0  0  0  0  0  0  0  0  0  0  0  0
   46.2170   33.6860   44.6540 C   0  0  0  0  0  0  0  0  0  0  0  0
   45.5160   33.7350   45.8220 N   0  0  0  0  0  0  0  0  0  0  0  0
   44.6550   34.7610   46.0810 C   0  0  0  0  0  0  0  0  0  0  0  0
   44.4820   35.7570   45.1790 N   0  0  0  0  0  0  0  0  0  0  0  0
   44.9040   36.9390   43.2630 N   0  0  0  0  0  0  0  0  0  0  0  0
   45.0850   38.2700   43.7910 C   0  0  0  0  0  0  0  0  0  0  0  0
   45.0790   38.3990   45.1000 N   0  0  0  0  0  0  0  0  0  0  0  0
   45.2710   39.4350   42.9590 N   0  0  0  0  0  0  0  0  0  0  0  0
   45.2090   39.3530   45.4770 H   0  0  0  0  0  0  0  0  0  0  0  0
   46.6800   34.7390   42.4550 N   0  0  0  0  0  0  0  0  0  0  0  0
   46.2780   34.1270   41.2900 C   0  0  0  0  0  0  0  0  0  0  0  0
   47.2040   34.3730   40.3330 N   0  0  0  0  0  0  0  0  0  0  0  0
   48.1800   35.1410   40.9230 C   0  0  0  0  0  0  0  0  0  0  0  0
   47.8500   35.3670   42.2450 N   0  0  0  0  0  0  0  0  0  0  0  0
   46.9108   32.8587   44.4436 H   0  0  0  0  0  0  0  0  0  0  0  0
   44.0972   34.7798   47.0289 H   0  0  0  0  0  0  0  0  0  0  0  0
   44.5887   36.8365   42.2878 H   0  0  0  0  0  0  0  0  0  0  0  0
   45.3957   40.3617   43.3909 H   0  0  0  0  0  0  0  0  0  0  0  0
   45.2791   39.3395   41.9335 H   0  0  0  0  0  0  0  0  0  0  0  0
   45.3590   33.5371   41.1582 H   0  0  0  0  0  0  0  0  0  0  0  0
   49.0833   35.5170   40.4203 H   0  0  0  0  0  0  0  0  0  0  0  0
  1  6  2  0
  2  1  1  0
  2  3  2  0
  3  4  1  0
  4  5  2  0
  6  5  1  0
  7  8  1  0
  7  1  1  0
  8  9  2  0
  9 11  1  0
 10  8  1  0
 12  2  1  0
 13 12  1  0
 14 15  1  0
 14 13  2  0
 15 16  2  0
 16 12  1  0
  3 17  1  0
  5 18  1  0
  7 19  1  0
 10 20  1  0
 10 21  1  0
 13 22  1  0
 15 23  1  0
M  ISO  4  17  14  18  14  22  14  23  14
M  END
>  <minimizedAffinity>  (1) 
-4.85809326

>  <minimizedRMSD>  (1) 
2.44807458

$$$$
