
     RDKit          3D

 26 28  0  0  0  0  0  0  0  0999 V2000
   46.4820   34.6280   41.9090 C   0  0  0  0  0  0  0  0  0  0  0  0
   46.0890   34.0770   40.6960 C   0  0  0  0  0  0  0  0  0  0  0  0
   47.0350   34.0230   39.6410 C   0  0  0  0  0  0  0  0  0  0  0  0
   48.2700   34.5130   39.8740 N   0  0  0  0  0  0  0  0  0  0  0  0
   48.6360   35.0410   41.0490 C   0  0  0  0  0  0  0  0  0  0  0  0
   47.7280   35.0930   42.0590 N   0  0  0  0  0  0  0  0  0  0  0  0
   45.8590   34.9160   43.1770 C   0  0  0  0  0  0  0  0  0  0  0  0
   46.0580   33.9540   44.1890 C   0  0  0  0  0  0  0  0  0  0  0  0
   45.5270   33.9490   45.4860 C   0  0  0  0  0  0  0  0  0  0  0  0
   44.7260   35.0350   45.7420 C   0  0  0  0  0  0  0  0  0  0  0  0
   44.4410   36.0470   44.8580 C   0  0  0  0  0  0  0  0  0  0  0  0
   45.0300   35.9170   43.6290 C   0  0  0  0  0  0  0  0  0  0  0  0
   44.7680   33.6300   40.5590 N   0  0  0  0  0  0  0  0  0  0  0  0
   44.2480   32.4020   40.6410 C   0  0  0  0  0  0  0  0  0  0  0  0
   42.9260   32.4100   40.4520 N   0  0  0  0  0  0  0  0  0  0  0  0
   42.5870   33.7250   40.2340 C   0  0  0  0  0  0  0  0  0  0  0  0
   43.7320   34.4460   40.3050 N   0  0  0  0  0  0  0  0  0  0  0  0
   46.7700   33.5948   38.6630 H   0  0  0  0  0  0  0  0  0  0  0  0
   49.6558   35.4267   41.1945 H   0  0  0  0  0  0  0  0  0  0  0  0
   46.7081   33.1056   43.9290 H   0  0  0  0  0  0  0  0  0  0  0  0
   45.7306   33.1576   46.2224 H   0  0  0  0  0  0  0  0  0  0  0  0
   44.2732   35.1000   46.7424 H   0  0  0  0  0  0  0  0  0  0  0  0
   43.7905   36.8953   45.1172 H   0  0  0  0  0  0  0  0  0  0  0  0
   44.8118   36.7184   42.9078 H   0  0  0  0  0  0  0  0  0  0  0  0
   44.8372   31.4947   40.8400 H   0  0  0  0  0  0  0  0  0  0  0  0
   41.5779   34.1170   40.0390 H   0  0  0  0  0  0  0  0  0  0  0  0
  1  6  1  0
  1  7  1  0
  2  1  2  0
  3  4  2  0
  3  2  1  0
  4  5  1  0
  5  6  2  0
  7 12  1  0
  7  8  2  0
  8  9  1  0
  9 10  2  0
 11 10  1  0
 12 11  2  0
 13 14  1  0
 13  2  1  0
 15 14  2  0
 16 17  2  0
 16 15  1  0
 17 13  1  0
  3 18  1  0
  5 19  1  0
  8 20  1  0
  9 21  1  0
 10 22  1  0
 11 23  1  0
 12 24  1  0
 14 25  1  0
 16 26  1  0
M  ISO  8  18  14  19  14  20  14  21  14  22  14  23  14  24  14  25  14
M  ISO  1  26  14
M  END
>  <minimizedAffinity>  (1) 
-4.86527872

>  <minimizedRMSD>  (1) 
3.74009895

$$$$
