
     RDKit          3D

 30 32  0  0  0  0  0  0  0  0999 V2000
   45.0760   34.4570   45.3190 C   0  0  0  0  0  0  0  0  0  0  0  0
   45.5770   34.6970   44.0140 C   0  0  0  0  0  0  0  0  0  0  0  0
   46.7150   34.0010   43.5880 C   0  0  0  0  0  0  0  0  0  0  0  0
   47.2880   33.1180   44.4540 N   0  0  0  0  0  0  0  0  0  0  0  0
   46.7820   32.9160   45.6840 C   0  0  0  0  0  0  0  0  0  0  0  0
   45.7010   33.5650   46.1160 N   0  0  0  0  0  0  0  0  0  0  0  0
   47.2380   34.2390   42.2540 C   0  0  0  0  0  0  0  0  0  0  0  0
   48.2250   35.1940   42.1890 C   0  0  0  0  0  0  0  0  0  0  0  0
   48.8370   35.5530   41.0150 C   0  0  0  0  0  0  0  0  0  0  0  0
   48.4600   34.9340   39.8190 C   0  0  0  0  0  0  0  0  0  0  0  0
   47.4760   33.9840   39.8950 C   0  0  0  0  0  0  0  0  0  0  0  0
   46.8560   33.6190   41.0700 C   0  0  0  0  0  0  0  0  0  0  0  0
   44.7500   35.8790   42.9530 S   0  0  0  0  0  0  0  0  0  0  0  0
   42.3660   33.5900   40.9240 N   0  0  0  0  0  0  0  0  0  0  0  0
   43.3390   33.7460   41.7980 N   0  0  0  0  0  0  0  0  0  0  0  0
   43.5660   35.1000   41.9260 C   0  0  0  0  0  0  0  0  0  0  0  0
   42.6760   35.7000   41.0850 C   0  0  0  0  0  0  0  0  0  0  0  0
   41.8980   34.7660   40.4350 C   0  0  0  0  0  0  0  0  0  0  0  0
   40.8510   34.8580   39.4810 N   0  0  0  0  0  0  0  0  0  0  0  0
   44.1855   34.9934   45.6785 H   0  0  0  0  0  0  0  0  0  0  0  0
   47.2746   32.1945   46.3524 H   0  0  0  0  0  0  0  0  0  0  0  0
   48.5375   35.6918   43.1188 H   0  0  0  0  0  0  0  0  0  0  0  0
   49.6210   36.3246   41.0143 H   0  0  0  0  0  0  0  0  0  0  0  0
   48.9320   35.1979   38.8611 H   0  0  0  0  0  0  0  0  0  0  0  0
   47.1634   33.4847   38.9660 H   0  0  0  0  0  0  0  0  0  0  0  0
   46.0707   32.8487   41.0711 H   0  0  0  0  0  0  0  0  0  0  0  0
   41.9984   32.6704   40.6410 H   0  0  0  0  0  0  0  0  0  0  0  0
   42.5901   36.7875   40.9437 H   0  0  0  0  0  0  0  0  0  0  0  0
   40.5384   35.7808   39.1468 H   0  0  0  0  0  0  0  0  0  0  0  0
   40.4039   34.0020   39.1229 H   0  0  0  0  0  0  0  0  0  0  0  0
  1  6  2  0
  2  1  1  0
  3  2  2  0
  3  4  1  0
  4  5  2  0
  5  6  1  0
  7  3  1  0
  8  7  2  0
  9  8  1  0
 10 11  1  0
 10  9  2  0
 11 12  2  0
 12  7  1  0
 13  2  1  0
 14 15  1  0
 15 16  2  0
 16 13  1  0
 17 16  1  0
 18 14  1  0
 18 17  2  0
 19 18  1  0
  1 20  1  0
  5 21  1  0
  8 22  1  0
  9 23  1  0
 10 24  1  0
 11 25  1  0
 12 26  1  0
 14 27  1  0
 17 28  1  0
 19 29  1  0
 19 30  1  0
M  ISO  8  20  14  21  14  22  14  23  14  24  14  25  14  26  14  27   9
M  ISO  1  28  14
M  END
>  <minimizedAffinity>  (1) 
-5.50566339

>  <minimizedRMSD>  (1) 
0.126122177

$$$$
