
     RDKit          3D

 23 25  0  0  0  0  0  0  0  0999 V2000
   45.6450   34.0200   44.8750 C   0  0  0  0  0  0  0  0  0  0  0  0
   46.1600   34.2180   43.5850 C   0  0  0  0  0  0  0  0  0  0  0  0
   45.8170   35.3970   42.8890 C   0  0  0  0  0  0  0  0  0  0  0  0
   44.9930   36.2870   43.5210 N   0  0  0  0  0  0  0  0  0  0  0  0
   44.5150   36.0570   44.7750 C   0  0  0  0  0  0  0  0  0  0  0  0
   44.8490   34.9200   45.4390 N   0  0  0  0  0  0  0  0  0  0  0  0
   45.8250   32.9200   45.7500 N   0  0  0  0  0  0  0  0  0  0  0  0
   46.2500   31.7040   45.4080 N   0  0  0  0  0  0  0  0  0  0  0  0
   46.2830   30.9140   46.4950 C   0  0  0  0  0  0  0  0  0  0  0  0
   45.8610   31.6450   47.5790 C   0  0  0  0  0  0  0  0  0  0  0  0
   45.5710   32.9260   47.0920 C   0  0  0  0  0  0  0  0  0  0  0  0
   47.0100   33.2250   43.0500 N   0  0  0  0  0  0  0  0  0  0  0  0
   48.3660   33.0850   43.1780 C   0  0  0  0  0  0  0  0  0  0  0  0
   48.7610   31.9860   42.4900 N   0  0  0  0  0  0  0  0  0  0  0  0
   47.6320   31.4480   41.9350 C   0  0  0  0  0  0  0  0  0  0  0  0
   46.5560   32.2200   42.2860 N   0  0  0  0  0  0  0  0  0  0  0  0
   46.1982   35.5928   41.8759 H   0  0  0  0  0  0  0  0  0  0  0  0
   43.8549   36.7958   45.2529 H   0  0  0  0  0  0  0  0  0  0  0  0
   46.5954   29.8595   46.5135 H   0  0  0  0  0  0  0  0  0  0  0  0
   45.7695   31.2955   48.6180 H   0  0  0  0  0  0  0  0  0  0  0  0
   45.2059   33.7797   47.6818 H   0  0  0  0  0  0  0  0  0  0  0  0
   49.0272   33.7554   43.7467 H   0  0  0  0  0  0  0  0  0  0  0  0
   47.5944   30.5439   41.3096 H   0  0  0  0  0  0  0  0  0  0  0  0
  1  6  1  0
  1  7  1  0
  2  1  2  0
  3  4  2  0
  3  2  1  0
  4  5  1  0
  5  6  2  0
  7 11  1  0
  8  7  1  0
  8  9  2  0
  9 10  1  0
 11 10  2  0
 12 13  1  0
 12  2  1  0
 14 13  2  0
 15 16  2  0
 15 14  1  0
 16 12  1  0
  3 17  1  0
  5 18  1  0
  9 19  1  0
 10 20  1  0
 11 21  1  0
 13 22  1  0
 15 23  1  0
M  ISO  7  17  14  18  14  19  14  20  14  21  14  22  14  23  14
M  END
>  <minimizedAffinity>  (1) 
-4.41333961

>  <minimizedRMSD>  (1) 
5.05191326

$$$$
