
     RDKit          3D

 23 25  0  0  0  0  0  0  0  0999 V2000
   46.0670   34.0200   44.0380 C   0  0  0  0  0  0  0  0  0  0  0  0
   46.0300   35.0290   43.0850 C   0  0  0  0  0  0  0  0  0  0  0  0
   45.2670   36.1930   43.3170 C   0  0  0  0  0  0  0  0  0  0  0  0
   44.5860   36.2950   44.4850 N   0  0  0  0  0  0  0  0  0  0  0  0
   44.6390   35.2960   45.4140 C   0  0  0  0  0  0  0  0  0  0  0  0
   45.3680   34.1840   45.1850 N   0  0  0  0  0  0  0  0  0  0  0  0
   46.8640   34.8580   41.9410 N   0  0  0  0  0  0  0  0  0  0  0  0
   48.1450   35.3240   41.7050 C   0  0  0  0  0  0  0  0  0  0  0  0
   48.5140   34.9320   40.4610 N   0  0  0  0  0  0  0  0  0  0  0  0
   47.4520   34.2280   39.9470 C   0  0  0  0  0  0  0  0  0  0  0  0
   46.4210   34.1790   40.8660 N   0  0  0  0  0  0  0  0  0  0  0  0
   46.6050   32.6480   43.9640 C   0  0  0  0  0  0  0  0  0  0  0  0
   47.9360   32.1950   43.7940 C   0  0  0  0  0  0  0  0  0  0  0  0
   48.1140   30.8730   43.6700 C   0  0  0  0  0  0  0  0  0  0  0  0
   46.9730   30.0020   43.7120 C   0  0  0  0  0  0  0  0  0  0  0  0
   45.6190   31.1420   43.9380 S   0  0  0  0  0  0  0  0  0  0  0  0
   45.2257   36.9981   42.5685 H   0  0  0  0  0  0  0  0  0  0  0  0
   44.0826   35.3986   46.3573 H   0  0  0  0  0  0  0  0  0  0  0  0
   48.7577   35.9107   42.4052 H   0  0  0  0  0  0  0  0  0  0  0  0
   47.4261   33.7693   38.9476 H   0  0  0  0  0  0  0  0  0  0  0  0
   48.7836   32.8955   43.7651 H   0  0  0  0  0  0  0  0  0  0  0  0
   49.1243   30.4587   43.5373 H   0  0  0  0  0  0  0  0  0  0  0  0
   46.9416   28.9058   43.6263 H   0  0  0  0  0  0  0  0  0  0  0  0
  1  6  2  0
  2  3  2  0
  2  1  1  0
  3  4  1  0
  4  5  2  0
  6  5  1  0
  7  2  1  0
  8  7  1  0
  9  8  2  0
 10  9  1  0
 10 11  2  0
 11  7  1  0
 12  1  1  0
 13 12  2  0
 14 15  2  0
 14 13  1  0
 15 16  1  0
 16 12  1  0
  3 17  1  0
  5 18  1  0
  8 19  1  0
 10 20  1  0
 13 21  1  0
 14 22  1  0
 15 23  1  0
M  ISO  7  17  14  18  14  19  14  20  14  21  14  22  14  23  14
M  END
>  <minimizedAffinity>  (1) 
-4.34408379

>  <minimizedRMSD>  (1) 
5.05658388

$$$$
