
     RDKit          3D

 30 32  0  0  0  0  0  0  0  0999 V2000
   45.7060   33.2050   44.8380 C   0  0  0  0  0  0  0  0  0  0  0  0
   45.9570   31.9350   44.3300 C   0  0  0  0  0  0  0  0  0  0  0  0
   46.7220   31.0600   45.1210 C   0  0  0  0  0  0  0  0  0  0  0  0
   47.1720   31.4940   46.3280 N   0  0  0  0  0  0  0  0  0  0  0  0
   46.9140   32.7230   46.7910 C   0  0  0  0  0  0  0  0  0  0  0  0
   46.1730   33.5780   46.0300 N   0  0  0  0  0  0  0  0  0  0  0  0
   44.9820   34.3340   44.4010 N   0  0  0  0  0  0  0  0  0  0  0  0
   44.2890   35.5020   44.8870 C   0  0  0  0  0  0  0  0  0  0  0  0
   44.9270   36.7830   44.3970 C   0  0  0  0  0  0  0  0  0  0  0  0
   45.0900   36.7620   42.9510 N   0  0  0  0  0  0  0  0  0  0  0  0
   44.4210   35.6110   42.3690 C   0  0  0  0  0  0  0  0  0  0  0  0
   44.8990   34.3080   42.9330 C   0  0  0  0  0  0  0  0  0  0  0  0
   45.4500   31.6160   43.0630 N   0  0  0  0  0  0  0  0  0  0  0  0
   44.2230   31.2550   42.6630 C   0  0  0  0  0  0  0  0  0  0  0  0
   44.1800   31.0410   41.3440 N   0  0  0  0  0  0  0  0  0  0  0  0
   45.4490   31.2800   40.8850 C   0  0  0  0  0  0  0  0  0  0  0  0
   46.2130   31.6310   41.9540 N   0  0  0  0  0  0  0  0  0  0  0  0
   46.9521   30.0433   44.7698 H   0  0  0  0  0  0  0  0  0  0  0  0
   47.2950   33.0394   47.7732 H   0  0  0  0  0  0  0  0  0  0  0  0
   43.2466   35.4678   44.5373 H   0  0  0  0  0  0  0  0  0  0  0  0
   44.3400   35.4952   45.9858 H   0  0  0  0  0  0  0  0  0  0  0  0
   44.2870   37.6333   44.6750 H   0  0  0  0  0  0  0  0  0  0  0  0
   45.9194   36.8812   44.8611 H   0  0  0  0  0  0  0  0  0  0  0  0
   44.6867   37.6226   42.5539 H   0  0  0  0  0  0  0  0  0  0  0  0
   44.6034   35.6112   41.2842 H   0  0  0  0  0  0  0  0  0  0  0  0
   43.3504   35.6986   42.6058 H   0  0  0  0  0  0  0  0  0  0  0  0
   44.1997   33.5141   42.6319 H   0  0  0  0  0  0  0  0  0  0  0  0
   45.9099   34.1216   42.5413 H   0  0  0  0  0  0  0  0  0  0  0  0
   43.3593   31.1481   43.3357 H   0  0  0  0  0  0  0  0  0  0  0  0
   45.7881   31.2021   39.8415 H   0  0  0  0  0  0  0  0  0  0  0  0
  1  6  2  0
  2  1  1  0
  2  3  2  0
  3  4  1  0
  4  5  2  0
  6  5  1  0
  7  1  1  0
  7  8  1  0
  9  8  1  0
 10  9  1  0
 11 12  1  0
 11 10  1  0
 12  7  1  0
 13  2  1  0
 14 13  1  0
 15 14  2  0
 16 15  1  0
 16 17  2  0
 17 13  1  0
  3 18  1  0
  5 19  1  0
  8 20  1  0
  8 21  1  0
  9 22  1  0
  9 23  1  0
 10 24  1  0
 11 25  1  0
 11 26  1  0
 12 27  1  0
 12 28  1  0
 14 29  1  0
 16 30  1  0
M  ISO  8  18  14  19  14  20  13  21  13  22  13  23  13  24   5  25  13
M  ISO  5  26  13  27  13  28  13  29  14  30  14
M  END
>  <minimizedAffinity>  (1) 
-3.62067437

>  <minimizedRMSD>  (1) 
2.99729156

$$$$
