
     RDKit          3D

 23 25  0  0  0  0  0  0  0  0999 V2000
   46.2910   34.0500   44.2230 C   0  0  0  0  0  0  0  0  0  0  0  0
   46.1140   34.9790   43.1840 C   0  0  0  0  0  0  0  0  0  0  0  0
   45.1690   36.0150   43.3470 C   0  0  0  0  0  0  0  0  0  0  0  0
   44.4650   36.0730   44.5050 N   0  0  0  0  0  0  0  0  0  0  0  0
   44.6540   35.1640   45.4940 C   0  0  0  0  0  0  0  0  0  0  0  0
   45.5590   34.1750   45.3360 N   0  0  0  0  0  0  0  0  0  0  0  0
   46.8880   34.8340   42.0130 N   0  0  0  0  0  0  0  0  0  0  0  0
   48.1190   35.3040   41.7300 C   0  0  0  0  0  0  0  0  0  0  0  0
   48.5000   34.9390   40.5020 N   0  0  0  0  0  0  0  0  0  0  0  0
   47.4600   34.2060   39.9910 C   0  0  0  0  0  0  0  0  0  0  0  0
   46.4740   34.1500   40.9350 N   0  0  0  0  0  0  0  0  0  0  0  0
   47.2410   32.9210   44.2380 C   0  0  0  0  0  0  0  0  0  0  0  0
   47.1310   31.7030   43.4570 C   0  0  0  0  0  0  0  0  0  0  0  0
   46.5870   31.6290   44.8450 C   0  0  0  0  0  0  0  0  0  0  0  0
   45.0072   36.7586   42.5527 H   0  0  0  0  0  0  0  0  0  0  0  0
   44.0703   35.2328   46.4238 H   0  0  0  0  0  0  0  0  0  0  0  0
   48.7290   35.9077   42.4181 H   0  0  0  0  0  0  0  0  0  0  0  0
   47.4255   33.7432   38.9937 H   0  0  0  0  0  0  0  0  0  0  0  0
   48.0990   33.5985   44.3602 H   0  0  0  0  0  0  0  0  0  0  0  0
   46.4358   31.6720   42.6051 H   0  0  0  0  0  0  0  0  0  0  0  0
   47.8640   31.0966   42.9047 H   0  0  0  0  0  0  0  0  0  0  0  0
   47.1091   31.0491   45.6203 H   0  0  0  0  0  0  0  0  0  0  0  0
   45.6270   31.3650   45.3127 H   0  0  0  0  0  0  0  0  0  0  0  0
  1 12  1  0
  1  6  2  0
  2  3  2  0
  2  1  1  0
  3  4  1  0
  4  5  2  0
  6  5  1  0
  7  2  1  0
  8  7  1  0
  9  8  2  0
 10  9  1  0
 10 11  2  0
 11  7  1  0
 12 14  1  0
 13 12  1  0
 13 14  1  0
  3 15  1  0
  5 16  1  0
  8 17  1  0
 10 18  1  0
 12 19  1  0
 13 20  1  0
 13 21  1  0
 14 22  1  0
 14 23  1  0
M  ISO  8  15  14  16  14  17  14  18  14  19  13  20  13  21  13  22  13
M  ISO  1  23  13
M  END
>  <minimizedAffinity>  (1) 
-4.28217888

>  <minimizedRMSD>  (1) 
3.98789501

$$$$
