
     RDKit          3D

 29 31  0  0  0  0  0  0  0  0999 V2000
   43.4360   33.4060   41.6510 C   0  0  0  0  0  0  0  0  0  0  0  0
   42.0900   33.3040   41.3090 C   0  0  0  0  0  0  0  0  0  0  0  0
   41.3920   32.1050   41.5810 C   0  0  0  0  0  0  0  0  0  0  0  0
   42.0820   31.0890   42.1760 N   0  0  0  0  0  0  0  0  0  0  0  0
   43.4010   31.2190   42.5000 C   0  0  0  0  0  0  0  0  0  0  0  0
   44.0540   32.3810   42.2300 N   0  0  0  0  0  0  0  0  0  0  0  0
   41.4560   34.4100   40.7040 N   0  0  0  0  0  0  0  0  0  0  0  0
   40.7660   35.4150   41.2730 C   0  0  0  0  0  0  0  0  0  0  0  0
   40.3140   36.2680   40.3280 N   0  0  0  0  0  0  0  0  0  0  0  0
   40.7450   35.7670   39.1240 C   0  0  0  0  0  0  0  0  0  0  0  0
   41.4490   34.6180   39.3700 N   0  0  0  0  0  0  0  0  0  0  0  0
   44.3610   34.5300   41.4570 C   0  0  0  0  0  0  0  0  0  0  0  0
   44.2700   35.4600   42.6420 C   0  0  0  0  0  0  0  0  0  0  0  0
   45.6100   35.4060   43.3520 C   0  0  0  0  0  0  0  0  0  0  0  0
   46.5310   35.2190   42.1350 C   0  0  0  0  0  0  0  0  0  0  0  0
   45.8290   34.0390   41.4850 C   0  0  0  0  0  0  0  0  0  0  0  0
   40.3287   31.9948   41.3218 H   0  0  0  0  0  0  0  0  0  0  0  0
   43.9354   30.3852   42.9788 H   0  0  0  0  0  0  0  0  0  0  0  0
   40.5943   35.5263   42.3538 H   0  0  0  0  0  0  0  0  0  0  0  0
   40.5576   36.2108   38.1351 H   0  0  0  0  0  0  0  0  0  0  0  0
   44.0974   35.0064   40.5012 H   0  0  0  0  0  0  0  0  0  0  0  0
   44.0635   36.4857   42.3023 H   0  0  0  0  0  0  0  0  0  0  0  0
   43.4556   35.1576   43.3168 H   0  0  0  0  0  0  0  0  0  0  0  0
   45.8269   36.3396   43.8918 H   0  0  0  0  0  0  0  0  0  0  0  0
   45.6980   34.6337   44.1303 H   0  0  0  0  0  0  0  0  0  0  0  0
   46.5380   36.1050   41.4831 H   0  0  0  0  0  0  0  0  0  0  0  0
   47.5957   35.0673   42.3663 H   0  0  0  0  0  0  0  0  0  0  0  0
   45.9357   33.1257   42.0887 H   0  0  0  0  0  0  0  0  0  0  0  0
   46.2299   33.7674   40.4973 H   0  0  0  0  0  0  0  0  0  0  0  0
  1  6  2  0
  2  3  2  0
  2  1  1  0
  3  4  1  0
  4  5  2  0
  6  5  1  0
  7  8  1  0
  7  2  1  0
  9  8  2  0
 10 11  2  0
 10  9  1  0
 11  7  1  0
 12 16  1  0
 12  1  1  0
 12 13  1  0
 13 14  1  0
 15 14  1  0
 16 15  1  0
  3 17  1  0
  5 18  1  0
  8 19  1  0
 10 20  1  0
 12 21  1  0
 13 22  1  0
 13 23  1  0
 14 24  1  0
 14 25  1  0
 15 26  1  0
 15 27  1  0
 16 28  1  0
 16 29  1  0
M  ISO  8  17  14  18  14  19  14  20  14  21  13  22  13  23  13  24  13
M  ISO  5  25  13  26  13  27  13  28  13  29  13
M  END
>  <minimizedAffinity>  (1) 
-4.28980637

>  <minimizedRMSD>  (1) 
3.77159119

$$$$
