
     RDKit          3D

 30 32  0  0  0  0  0  0  0  0999 V2000
   46.0510   32.8100   46.9100 C   0  0  0  0  0  0  0  0  0  0  0  0
   47.0060   32.1090   47.7060 N   0  0  0  0  0  0  0  0  0  0  0  0
   48.0320   32.5010   48.4420 N   0  0  0  0  0  0  0  0  0  0  0  0
   48.6550   31.4790   49.0160 C   0  0  0  0  0  0  0  0  0  0  0  0
   47.9970   30.3380   48.6340 C   0  0  0  0  0  0  0  0  0  0  0  0
   46.9790   30.7600   47.8220 C   0  0  0  0  0  0  0  0  0  0  0  0
   46.0730   29.7990   47.2340 N   0  0  0  0  0  0  0  0  0  0  0  0
   44.7940   29.4140   47.4630 C   0  0  0  0  0  0  0  0  0  0  0  0
   44.4870   28.4270   46.5420 C   0  0  0  0  0  0  0  0  0  0  0  0
   45.5410   28.1880   45.7480 N   0  0  0  0  0  0  0  0  0  0  0  0
   46.4950   29.0340   46.1860 C   0  0  0  0  0  0  0  0  0  0  0  0
   46.3770   32.8470   45.4370 C   0  0  0  0  0  0  0  0  0  0  0  0
   45.8540   34.0270   44.7770 C   0  0  0  0  0  0  0  0  0  0  0  0
   46.3820   34.3000   43.5180 C   0  0  0  0  0  0  0  0  0  0  0  0
   45.9660   35.4040   42.7730 C   0  0  0  0  0  0  0  0  0  0  0  0
   45.0230   36.1950   43.3390 N   0  0  0  0  0  0  0  0  0  0  0  0
   44.5190   35.9190   44.5610 C   0  0  0  0  0  0  0  0  0  0  0  0
   44.9400   34.8540   45.2450 N   0  0  0  0  0  0  0  0  0  0  0  0
   45.0736   32.3208   47.0342 H   0  0  0  0  0  0  0  0  0  0  0  0
   46.0548   33.8530   47.2595 H   0  0  0  0  0  0  0  0  0  0  0  0
   49.5342   31.5365   49.6746 H   0  0  0  0  0  0  0  0  0  0  0  0
   48.2365   29.3031   48.9196 H   0  0  0  0  0  0  0  0  0  0  0  0
   44.1230   29.8125   48.2382 H   0  0  0  0  0  0  0  0  0  0  0  0
   43.5173   27.9125   46.4716 H   0  0  0  0  0  0  0  0  0  0  0  0
   47.5016   29.1001   45.7473 H   0  0  0  0  0  0  0  0  0  0  0  0
   47.4705   32.8331   45.3183 H   0  0  0  0  0  0  0  0  0  0  0  0
   45.9056   31.9694   44.9706 H   0  0  0  0  0  0  0  0  0  0  0  0
   47.1464   33.6284   43.1001 H   0  0  0  0  0  0  0  0  0  0  0  0
   46.3820   35.6208   41.7780 H   0  0  0  0  0  0  0  0  0  0  0  0
   43.7540   36.5787   44.9965 H   0  0  0  0  0  0  0  0  0  0  0  0
  1  2  1  0
  2  6  1  0
  2  3  1  0
  3  4  2  0
  5  4  1  0
  6  5  2  0
  7  8  1  0
  7  6  1  0
  9  8  2  0
 10 11  2  0
 10  9  1  0
 11  7  1  0
 12  1  1  0
 13 18  1  0
 13 12  1  0
 14 13  2  0
 15 16  2  0
 15 14  1  0
 16 17  1  0
 17 18  2  0
  1 19  1  0
  1 20  1  0
  4 21  1  0
  5 22  1  0
  8 23  1  0
  9 24  1  0
 11 25  1  0
 12 26  1  0
 12 27  1  0
 14 28  1  0
 15 29  1  0
 17 30  1  0
M  ISO  8  19   8  20   8  21  14  22  14  23  14  24  14  25  14  26   8
M  ISO  4  27   8  28  14  29  14  30  14
M  END
>  <minimizedAffinity>  (1) 
-4.48681879

>  <minimizedRMSD>  (1) 
3.97529507

$$$$
