
     RDKit          3D

 30 32  0  0  0  0  0  0  0  0999 V2000
   47.6380   34.8950   41.1980 C   0  0  0  0  0  0  0  0  0  0  0  0
   47.1060   34.0990   40.1960 C   0  0  0  0  0  0  0  0  0  0  0  0
   45.7420   33.7130   40.2420 C   0  0  0  0  0  0  0  0  0  0  0  0
   45.0010   34.1490   41.2920 N   0  0  0  0  0  0  0  0  0  0  0  0
   45.5400   34.9170   42.2490 C   0  0  0  0  0  0  0  0  0  0  0  0
   46.8270   35.2680   42.1810 N   0  0  0  0  0  0  0  0  0  0  0  0
   47.9490   33.6850   39.1310 N   0  0  0  0  0  0  0  0  0  0  0  0
   48.1880   34.3170   37.9700 C   0  0  0  0  0  0  0  0  0  0  0  0
   49.0540   33.5970   37.2170 N   0  0  0  0  0  0  0  0  0  0  0  0
   49.3560   32.4870   37.9450 C   0  0  0  0  0  0  0  0  0  0  0  0
   48.6650   32.5620   39.1180 N   0  0  0  0  0  0  0  0  0  0  0  0
   49.0030   35.4080   41.3520 C   0  0  0  0  0  0  0  0  0  0  0  0
   49.6870   34.8070   42.5910 C   0  0  0  0  0  0  0  0  0  0  0  0
   49.8330   33.3560   42.4710 C   0  0  0  0  0  0  0  0  0  0  0  0
   50.9770   32.8540   41.8800 C   0  0  0  0  0  0  0  0  0  0  0  0
   51.2730   31.5140   41.6890 C   0  0  0  0  0  0  0  0  0  0  0  0
   50.3180   30.6580   42.1420 N   0  0  0  0  0  0  0  0  0  0  0  0
   49.2000   31.1210   42.7190 C   0  0  0  0  0  0  0  0  0  0  0  0
   48.9220   32.4410   42.9010 N   0  0  0  0  0  0  0  0  0  0  0  0
   45.3009   33.0832   39.4553 H   0  0  0  0  0  0  0  0  0  0  0  0
   44.9215   35.2589   43.0919 H   0  0  0  0  0  0  0  0  0  0  0  0
   47.7450   35.2793   37.6737 H   0  0  0  0  0  0  0  0  0  0  0  0
   50.0347   31.6762   37.6417 H   0  0  0  0  0  0  0  0  0  0  0  0
   49.5874   35.1467   40.4575 H   0  0  0  0  0  0  0  0  0  0  0  0
   48.9525   36.4997   41.4775 H   0  0  0  0  0  0  0  0  0  0  0  0
   50.6837   35.2586   42.7036 H   0  0  0  0  0  0  0  0  0  0  0  0
   49.0597   35.0197   43.4692 H   0  0  0  0  0  0  0  0  0  0  0  0
   51.7204   33.5850   41.5292 H   0  0  0  0  0  0  0  0  0  0  0  0
   52.2025   31.1711   41.2110 H   0  0  0  0  0  0  0  0  0  0  0  0
   48.4592   30.3865   43.0680 H   0  0  0  0  0  0  0  0  0  0  0  0
  1 12  1  0
  1  6  2  0
  2  3  2  0
  2  1  1  0
  3  4  1  0
  4  5  2  0
  6  5  1  0
  7  2  1  0
  8  7  1  0
  9 10  1  0
  9  8  2  0
 10 11  2  0
 11  7  1  0
 12 13  1  0
 14 13  1  0
 14 19  1  0
 15 14  2  0
 16 15  1  0
 16 17  2  0
 17 18  1  0
 18 19  2  0
  3 20  1  0
  5 21  1  0
  8 22  1  0
 10 23  1  0
 12 24  1  0
 12 25  1  0
 13 26  1  0
 13 27  1  0
 15 28  1  0
 16 29  1  0
 18 30  1  0
M  ISO  8  20  14  21  14  22  14  23  14  24   8  25   8  26   8  27   8
M  ISO  3  28  14  29  14  30  14
M  END
>  <minimizedAffinity>  (1) 
-4.48901367

>  <minimizedRMSD>  (1) 
0.302683651

$$$$
