
     RDKit          3D

 24 25  0  0  0  0  0  0  0  0999 V2000
   47.6770   34.8740   41.0830 C   0  0  0  0  0  0  0  0  0  0  0  0
   47.1790   34.0280   40.1060 C   0  0  0  0  0  0  0  0  0  0  0  0
   45.8650   33.5110   40.2210 C   0  0  0  0  0  0  0  0  0  0  0  0
   45.1330   33.8670   41.2970 N   0  0  0  0  0  0  0  0  0  0  0  0
   45.6370   34.6970   42.2440 C   0  0  0  0  0  0  0  0  0  0  0  0
   46.8730   35.1670   42.1100 N   0  0  0  0  0  0  0  0  0  0  0  0
   47.9990   33.6980   39.0120 N   0  0  0  0  0  0  0  0  0  0  0  0
   48.1260   34.3430   37.8370 C   0  0  0  0  0  0  0  0  0  0  0  0
   49.0180   33.7100   37.0420 N   0  0  0  0  0  0  0  0  0  0  0  0
   49.4610   32.6320   37.7520 C   0  0  0  0  0  0  0  0  0  0  0  0
   48.8200   32.6510   38.9520 N   0  0  0  0  0  0  0  0  0  0  0  0
   48.9900   35.5260   41.1810 C   0  0  0  0  0  0  0  0  0  0  0  0
   49.7320   35.0800   42.4480 C   0  0  0  0  0  0  0  0  0  0  0  0
   49.6620   33.6740   42.6500 N   0  0  0  0  0  0  0  0  0  0  0  0
   45.4531   32.8381   39.4545 H   0  0  0  0  0  0  0  0  0  0  0  0
   45.0279   34.9788   43.1156 H   0  0  0  0  0  0  0  0  0  0  0  0
   47.5801   35.2576   37.5621 H   0  0  0  0  0  0  0  0  0  0  0  0
   50.1981   31.8874   37.4170 H   0  0  0  0  0  0  0  0  0  0  0  0
   49.5910   35.2589   40.2993 H   0  0  0  0  0  0  0  0  0  0  0  0
   48.8382   36.6144   41.2285 H   0  0  0  0  0  0  0  0  0  0  0  0
   50.7888   35.3722   42.3599 H   0  0  0  0  0  0  0  0  0  0  0  0
   49.2498   35.5671   43.3084 H   0  0  0  0  0  0  0  0  0  0  0  0
   49.6520   33.4723   43.6600 H   0  0  0  0  0  0  0  0  0  0  0  0
   48.8017   33.3075   42.2181 H   0  0  0  0  0  0  0  0  0  0  0  0
  1 12  1  0
  1  6  2  0
  2  3  2  0
  2  1  1  0
  3  4  1  0
  4  5  2  0
  6  5  1  0
  7  2  1  0
  8  7  1  0
  9 10  1  0
  9  8  2  0
 10 11  2  0
 11  7  1  0
 12 13  1  0
 13 14  1  0
  3 15  1  0
  5 16  1  0
  8 17  1  0
 10 18  1  0
 12 19  1  0
 12 20  1  0
 13 21  1  0
 13 22  1  0
 14 23  1  0
 14 24  1  0
M  ISO  8  15  14  16  14  17  14  18  14  19   8  20   8  21   8  22   8
M  ISO  2  23   5  24   5
M  END
>  <minimizedAffinity>  (1) 
-3.7429173

>  <minimizedRMSD>  (1) 
0.143933311

$$$$
