
     RDKit          3D

 29 30  0  0  0  0  0  0  0  0999 V2000
   47.2430   33.9560   41.0580 C   0  0  0  0  0  0  0  0  0  0  0  0
   46.0960   33.8760   41.8700 C   0  0  0  0  0  0  0  0  0  0  0  0
   46.2520   33.6690   43.2660 C   0  0  0  0  0  0  0  0  0  0  0  0
   47.5010   33.5540   43.7600 N   0  0  0  0  0  0  0  0  0  0  0  0
   48.5840   33.6340   42.9520 C   0  0  0  0  0  0  0  0  0  0  0  0
   48.4260   33.8290   41.6500 N   0  0  0  0  0  0  0  0  0  0  0  0
   44.8310   34.0070   41.2870 N   0  0  0  0  0  0  0  0  0  0  0  0
   44.1380   35.1280   41.0190 C   0  0  0  0  0  0  0  0  0  0  0  0
   42.9490   34.8180   40.4490 N   0  0  0  0  0  0  0  0  0  0  0  0
   42.9030   33.4630   40.3600 C   0  0  0  0  0  0  0  0  0  0  0  0
   44.0700   32.9910   40.8810 N   0  0  0  0  0  0  0  0  0  0  0  0
   47.3150   34.1610   39.5890 C   0  0  0  0  0  0  0  0  0  0  0  0
   46.9360   32.8680   38.8530 C   0  0  0  0  0  0  0  0  0  0  0  0
   46.6670   33.1220   37.4690 N   0  0  0  0  0  0  0  0  0  0  0  0
   45.4420   33.2650   36.7830 C   0  0  0  0  0  0  0  0  0  0  0  0
   44.4970   33.7140   37.5640 N   0  0  0  0  0  0  0  0  0  0  0  0
   45.2730   32.9490   35.3940 N   0  0  0  0  0  0  0  0  0  0  0  0
   43.5210   33.8820   37.2280 H   0  0  0  0  0  0  0  0  0  0  0  0
   45.3757   33.6041   43.9278 H   0  0  0  0  0  0  0  0  0  0  0  0
   49.5947   33.5373   43.3753 H   0  0  0  0  0  0  0  0  0  0  0  0
   44.4865   36.1494   41.2320 H   0  0  0  0  0  0  0  0  0  0  0  0
   42.0802   32.8616   39.9461 H   0  0  0  0  0  0  0  0  0  0  0  0
   46.6181   34.9613   39.2994 H   0  0  0  0  0  0  0  0  0  0  0  0
   48.3432   34.4407   39.3160 H   0  0  0  0  0  0  0  0  0  0  0  0
   47.7680   32.1527   38.9319 H   0  0  0  0  0  0  0  0  0  0  0  0
   46.0269   32.4564   39.3157 H   0  0  0  0  0  0  0  0  0  0  0  0
   47.5051   33.2156   36.8776 H   0  0  0  0  0  0  0  0  0  0  0  0
   44.3541   33.0734   34.9456 H   0  0  0  0  0  0  0  0  0  0  0  0
   46.0706   32.5977   34.8450 H   0  0  0  0  0  0  0  0  0  0  0  0
  1  6  2  0
  1  2  1  0
  2  3  2  0
  3  4  1  0
  5  4  2  0
  6  5  1  0
  7  2  1  0
  8  7  1  0
  9  8  2  0
 10  9  1  0
 10 11  2  0
 11  7  1  0
 12  1  1  0
 13 12  1  0
 14 13  1  0
 15 14  1  0
 15 16  2  0
 17 15  1  0
 18 16  1  0
  3 19  1  0
  5 20  1  0
  8 21  1  0
 10 22  1  0
 12 23  1  0
 12 24  1  0
 13 25  1  0
 13 26  1  0
 14 27  1  0
 17 28  1  0
 17 29  1  0
M  ISO  8  19  14  20  14  21  14  22  14  23   8  24   8  25   8  26   8
M  END
>  <minimizedAffinity>  (1) 
-3.85000062

>  <minimizedRMSD>  (1) 
5.7926116

$$$$
