
     RDKit          3D

 33 35  0  0  0  0  0  0  0  0999 V2000
   48.8680   33.7030   37.2740 C   0  0  0  0  0  0  0  0  0  0  0  0
   49.0740   32.6180   36.3030 C   0  0  0  0  0  0  0  0  0  0  0  0
   49.9450   31.5430   36.4030 C   0  0  0  0  0  0  0  0  0  0  0  0
   50.0010   30.5810   35.3420 C   0  0  0  0  0  0  0  0  0  0  0  0
   49.1940   30.7670   34.2810 N   0  0  0  0  0  0  0  0  0  0  0  0
   48.3520   31.8390   34.2220 C   0  0  0  0  0  0  0  0  0  0  0  0
   48.3210   32.7090   35.2140 N   0  0  0  0  0  0  0  0  0  0  0  0
   50.7590   31.4080   37.5370 N   0  0  0  0  0  0  0  0  0  0  0  0
   52.0260   31.7810   37.7260 C   0  0  0  0  0  0  0  0  0  0  0  0
   52.4490   31.4720   38.9610 N   0  0  0  0  0  0  0  0  0  0  0  0
   51.3920   30.8720   39.5820 C   0  0  0  0  0  0  0  0  0  0  0  0
   50.3710   30.8440   38.6910 N   0  0  0  0  0  0  0  0  0  0  0  0
   47.4290   33.6810   37.8210 C   0  0  0  0  0  0  0  0  0  0  0  0
   47.4670   32.8640   39.4580 S   0  0  0  0  0  0  0  0  0  0  0  0
   48.3920   33.8260   40.6370 C   0  0  0  0  0  0  0  0  0  0  0  0
   49.1590   33.0700   41.5010 C   0  0  0  0  0  0  0  0  0  0  0  0
   49.9220   33.7350   42.4660 C   0  0  0  0  0  0  0  0  0  0  0  0
   49.8570   35.1130   42.4880 C   0  0  0  0  0  0  0  0  0  0  0  0
   49.0730   35.8290   41.6010 C   0  0  0  0  0  0  0  0  0  0  0  0
   48.3180   35.1840   40.6470 C   0  0  0  0  0  0  0  0  0  0  0  0
   49.0514   34.6686   36.7801 H   0  0  0  0  0  0  0  0  0  0  0  0
   49.5662   33.5632   38.1125 H   0  0  0  0  0  0  0  0  0  0  0  0
   50.6817   29.7184   35.3932 H   0  0  0  0  0  0  0  0  0  0  0  0
   47.6991   31.9781   33.3477 H   0  0  0  0  0  0  0  0  0  0  0  0
   52.6454   32.2789   36.9654 H   0  0  0  0  0  0  0  0  0  0  0  0
   51.3724   30.4844   40.6112 H   0  0  0  0  0  0  0  0  0  0  0  0
   47.0519   34.7092   37.9243 H   0  0  0  0  0  0  0  0  0  0  0  0
   46.7646   33.1360   37.1343 H   0  0  0  0  0  0  0  0  0  0  0  0
   49.1696   31.9722   41.4320 H   0  0  0  0  0  0  0  0  0  0  0  0
   50.5495   33.1810   43.1797 H   0  0  0  0  0  0  0  0  0  0  0  0
   50.4486   35.6610   43.2362 H   0  0  0  0  0  0  0  0  0  0  0  0
   49.0525   36.9273   41.6586 H   0  0  0  0  0  0  0  0  0  0  0  0
   47.6899   35.7364   39.9327 H   0  0  0  0  0  0  0  0  0  0  0  0
  1 13  1  0
  2  3  1  0
  2  1  1  0
  3  8  1  0
  4  3  2  0
  5  4  1  0
  6  5  2  0
  6  7  1  0
  7  2  2  0
  8  9  1  0
  8 12  1  0
  9 10  2  0
 10 11  1  0
 12 11  2  0
 13 14  1  0
 14 15  1  0
 15 20  1  0
 15 16  2  0
 16 17  1  0
 17 18  2  0
 19 18  1  0
 20 19  2  0
  1 21  1  0
  1 22  1  0
  4 23  1  0
  6 24  1  0
  9 25  1  0
 11 26  1  0
 13 27  1  0
 13 28  1  0
 16 29  1  0
 17 30  1  0
 18 31  1  0
 19 32  1  0
 20 33  1  0
M  ISO  8  21   8  22   8  23  14  24  14  25  14  26  14  27   8  28   8
M  ISO  5  29  14  30  14  31  14  32  14  33  14
M  END
>  <minimizedAffinity>  (1) 
-4.46472359

>  <minimizedRMSD>  (1) 
5.57862425

$$$$
