
     RDKit          3D

 33 35  0  0  0  0  0  0  0  0999 V2000
   47.6690   34.8650   41.2040 C   0  0  0  0  0  0  0  0  0  0  0  0
   47.1380   34.0870   40.1710 C   0  0  0  0  0  0  0  0  0  0  0  0
   45.7720   33.7060   40.2160 C   0  0  0  0  0  0  0  0  0  0  0  0
   45.0390   34.1250   41.2770 N   0  0  0  0  0  0  0  0  0  0  0  0
   45.5770   34.8710   42.2550 C   0  0  0  0  0  0  0  0  0  0  0  0
   46.8590   35.2150   42.1900 N   0  0  0  0  0  0  0  0  0  0  0  0
   47.9690   33.6940   39.1030 N   0  0  0  0  0  0  0  0  0  0  0  0
   48.2170   34.3440   37.9520 C   0  0  0  0  0  0  0  0  0  0  0  0
   49.0700   33.6400   37.1810 N   0  0  0  0  0  0  0  0  0  0  0  0
   49.3640   32.4960   37.8890 C   0  0  0  0  0  0  0  0  0  0  0  0
   48.6720   32.5560   39.0700 N   0  0  0  0  0  0  0  0  0  0  0  0
   49.0400   35.3620   41.3490 C   0  0  0  0  0  0  0  0  0  0  0  0
   49.7090   34.8080   42.6170 C   0  0  0  0  0  0  0  0  0  0  0  0
   50.5920   33.2780   42.1610 S   0  0  0  0  0  0  0  0  0  0  0  0
   49.7040   31.8390   42.7040 C   0  0  0  0  0  0  0  0  0  0  0  0
   48.3990   32.0920   43.1200 C   0  0  0  0  0  0  0  0  0  0  0  0
   47.6410   31.0080   43.5600 C   0  0  0  0  0  0  0  0  0  0  0  0
   48.1490   29.7180   43.5910 C   0  0  0  0  0  0  0  0  0  0  0  0
   49.4490   29.5410   43.1660 C   0  0  0  0  0  0  0  0  0  0  0  0
   50.2620   30.5770   42.7140 C   0  0  0  0  0  0  0  0  0  0  0  0
   45.3242   33.0934   39.4196 H   0  0  0  0  0  0  0  0  0  0  0  0
   44.9599   35.1958   43.1057 H   0  0  0  0  0  0  0  0  0  0  0  0
   47.7833   35.3168   37.6773 H   0  0  0  0  0  0  0  0  0  0  0  0
   50.0315   31.6836   37.5659 H   0  0  0  0  0  0  0  0  0  0  0  0
   49.6268   35.0533   40.4713 H   0  0  0  0  0  0  0  0  0  0  0  0
   49.0029   36.4584   41.4294 H   0  0  0  0  0  0  0  0  0  0  0  0
   50.4206   35.5453   43.0169 H   0  0  0  0  0  0  0  0  0  0  0  0
   48.9539   34.5994   43.3892 H   0  0  0  0  0  0  0  0  0  0  0  0
   47.9819   33.1097   43.1020 H   0  0  0  0  0  0  0  0  0  0  0  0
   46.6071   31.1814   43.8932 H   0  0  0  0  0  0  0  0  0  0  0  0
   47.5402   28.8710   43.9401 H   0  0  0  0  0  0  0  0  0  0  0  0
   49.8672   28.5238   43.1852 H   0  0  0  0  0  0  0  0  0  0  0  0
   51.2955   30.3987   42.3821 H   0  0  0  0  0  0  0  0  0  0  0  0
  1 12  1  0
  1  6  2  0
  2  3  2  0
  2  1  1  0
  3  4  1  0
  4  5  2  0
  6  5  1  0
  7  2  1  0
  8  7  1  0
  9 10  1  0
  9  8  2  0
 10 11  2  0
 11  7  1  0
 12 13  1  0
 14 13  1  0
 14 15  1  0
 15 20  1  0
 15 16  2  0
 16 17  1  0
 17 18  2  0
 19 18  1  0
 20 19  2  0
  3 21  1  0
  5 22  1  0
  8 23  1  0
 10 24  1  0
 12 25  1  0
 12 26  1  0
 13 27  1  0
 13 28  1  0
 16 29  1  0
 17 30  1  0
 18 31  1  0
 19 32  1  0
 20 33  1  0
M  ISO  8  21  14  22  14  23  14  24  14  25   8  26   8  27   8  28   8
M  ISO  5  29  14  30  14  31  14  32  14  33  14
M  END
>  <minimizedAffinity>  (1) 
-4.11069584

>  <minimizedRMSD>  (1) 
2.21174455

$$$$
