
     RDKit          3D

 26 27  0  0  0  0  0  0  0  0999 V2000
   46.8410   32.8000   45.0470 C   0  0  0  0  0  0  0  0  0  0  0  0
   46.0980   33.9690   44.6190 C   0  0  0  0  0  0  0  0  0  0  0  0
   46.4160   34.4610   43.3580 C   0  0  0  0  0  0  0  0  0  0  0  0
   45.7750   35.5810   42.8230 C   0  0  0  0  0  0  0  0  0  0  0  0
   44.8220   36.1640   43.6070 N   0  0  0  0  0  0  0  0  0  0  0  0
   44.5300   35.6730   44.8250 C   0  0  0  0  0  0  0  0  0  0  0  0
   45.1660   34.6000   45.2970 N   0  0  0  0  0  0  0  0  0  0  0  0
   46.7120   32.5330   46.5290 C   0  0  0  0  0  0  0  0  0  0  0  0
   46.0420   31.3180   46.8450 N   0  0  0  0  0  0  0  0  0  0  0  0
   45.7090   30.2730   46.1430 N   0  0  0  0  0  0  0  0  0  0  0  0
   45.0760   29.3400   46.8590 C   0  0  0  0  0  0  0  0  0  0  0  0
   44.9930   29.8260   48.1380 C   0  0  0  0  0  0  0  0  0  0  0  0
   45.5990   31.0510   48.0970 C   0  0  0  0  0  0  0  0  0  0  0  0
   45.7190   31.9250   49.3170 C   0  0  0  0  0  0  0  0  0  0  0  0
   47.9040   32.9528   44.8088 H   0  0  0  0  0  0  0  0  0  0  0  0
   46.4243   31.9309   44.5169 H   0  0  0  0  0  0  0  0  0  0  0  0
   47.1928   33.9549   42.7660 H   0  0  0  0  0  0  0  0  0  0  0  0
   46.0245   35.9713   41.8253 H   0  0  0  0  0  0  0  0  0  0  0  0
   43.7585   36.1617   45.4381 H   0  0  0  0  0  0  0  0  0  0  0  0
   47.7225   32.4928   46.9619 H   0  0  0  0  0  0  0  0  0  0  0  0
   46.1029   33.3485   46.9460 H   0  0  0  0  0  0  0  0  0  0  0  0
   44.6967   28.3738   46.4948 H   0  0  0  0  0  0  0  0  0  0  0  0
   44.5366   29.3356   49.0105 H   0  0  0  0  0  0  0  0  0  0  0  0
   45.6339   31.3053   50.2218 H   0  0  0  0  0  0  0  0  0  0  0  0
   46.6952   32.4320   49.3103 H   0  0  0  0  0  0  0  0  0  0  0  0
   44.9156   32.6763   49.3103 H   0  0  0  0  0  0  0  0  0  0  0  0
  1  8  1  0
  2  1  1  0
  2  7  1  0
  3  2  2  0
  4  3  1  0
  4  5  2  0
  5  6  1  0
  6  7  2  0
  8  9  1  0
  9 13  1  0
 10  9  1  0
 10 11  2  0
 11 12  1  0
 13 12  2  0
 13 14  1  0
  1 15  1  0
  1 16  1  0
  3 17  1  0
  4 18  1  0
  6 19  1  0
  8 20  1  0
  8 21  1  0
 11 22  1  0
 12 23  1  0
 14 24  1  0
 14 25  1  0
 14 26  1  0
M  ISO  8  15   8  16   8  17  14  18  14  19  14  20   8  21   8  22  14
M  ISO  4  23  14  24   8  25   8  26   8
M  END
>  <minimizedAffinity>  (1) 
-4.34733009

>  <minimizedRMSD>  (1) 
1.09790719

$$$$
