
     RDKit          3D

 31 33  0  0  0  0  0  0  0  0999 V2000
   47.6710   34.8770   41.1650 C   0  0  0  0  0  0  0  0  0  0  0  0
   47.1450   34.0810   40.1320 C   0  0  0  0  0  0  0  0  0  0  0  0
   45.7940   33.6670   40.1990 C   0  0  0  0  0  0  0  0  0  0  0  0
   45.0640   34.0630   41.2700 N   0  0  0  0  0  0  0  0  0  0  0  0
   45.5960   34.8230   42.2420 C   0  0  0  0  0  0  0  0  0  0  0  0
   46.8610   35.1980   42.1570 N   0  0  0  0  0  0  0  0  0  0  0  0
   47.9730   33.7160   39.0550 N   0  0  0  0  0  0  0  0  0  0  0  0
   48.2210   34.3680   37.9150 C   0  0  0  0  0  0  0  0  0  0  0  0
   49.0750   33.6840   37.1370 N   0  0  0  0  0  0  0  0  0  0  0  0
   49.3790   32.5300   37.8390 C   0  0  0  0  0  0  0  0  0  0  0  0
   48.6890   32.5830   39.0060 N   0  0  0  0  0  0  0  0  0  0  0  0
   49.0300   35.4110   41.2930 C   0  0  0  0  0  0  0  0  0  0  0  0
   49.6980   34.9400   42.5830 C   0  0  0  0  0  0  0  0  0  0  0  0
   50.5580   33.3650   42.2560 S   0  0  0  0  0  0  0  0  0  0  0  0
   49.3850   32.0490   42.5440 C   0  0  0  0  0  0  0  0  0  0  0  0
   49.4900   30.7740   42.0260 C   0  0  0  0  0  0  0  0  0  0  0  0
   48.5350   29.8230   42.3020 C   0  0  0  0  0  0  0  0  0  0  0  0
   47.4870   30.1350   43.0850 N   0  0  0  0  0  0  0  0  0  0  0  0
   47.3920   31.3940   43.5910 C   0  0  0  0  0  0  0  0  0  0  0  0
   48.3220   32.3350   43.3280 N   0  0  0  0  0  0  0  0  0  0  0  0
   45.3506   33.0443   39.4080 H   0  0  0  0  0  0  0  0  0  0  0  0
   44.9835   35.1310   43.1022 H   0  0  0  0  0  0  0  0  0  0  0  0
   47.7817   35.3405   37.6483 H   0  0  0  0  0  0  0  0  0  0  0  0
   50.0520   31.7235   37.5126 H   0  0  0  0  0  0  0  0  0  0  0  0
   49.6296   35.0714   40.4356 H   0  0  0  0  0  0  0  0  0  0  0  0
   48.9681   36.5090   41.3177 H   0  0  0  0  0  0  0  0  0  0  0  0
   50.4236   35.6946   42.9208 H   0  0  0  0  0  0  0  0  0  0  0  0
   48.9396   34.7968   43.3668 H   0  0  0  0  0  0  0  0  0  0  0  0
   50.3463   30.5155   41.3857 H   0  0  0  0  0  0  0  0  0  0  0  0
   48.6283   28.8101   41.8834 H   0  0  0  0  0  0  0  0  0  0  0  0
   46.5351   31.6513   44.2309 H   0  0  0  0  0  0  0  0  0  0  0  0
  1 12  1  0
  1  6  2  0
  2  3  2  0
  2  1  1  0
  3  4  1  0
  4  5  2  0
  6  5  1  0
  7  2  1  0
  8  7  1  0
  9 10  1  0
  9  8  2  0
 10 11  2  0
 11  7  1  0
 12 13  1  0
 14 15  1  0
 14 13  1  0
 15 20  2  0
 16 17  2  0
 16 15  1  0
 17 18  1  0
 18 19  2  0
 20 19  1  0
  3 21  1  0
  5 22  1  0
  8 23  1  0
 10 24  1  0
 12 25  1  0
 12 26  1  0
 13 27  1  0
 13 28  1  0
 16 29  1  0
 17 30  1  0
 19 31  1  0
M  ISO  8  21  14  22  14  23  14  24  14  25   8  26   8  27   8  28   8
M  ISO  3  29  14  30  14  31  14
M  END
>  <minimizedAffinity>  (1) 
-4.08523464

>  <minimizedRMSD>  (1) 
2.59514737

$$$$
