
     RDKit          3D

 30 32  0  0  0  0  0  0  0  0999 V2000
   45.3370   33.2930   42.1430 C   0  0  0  0  0  0  0  0  0  0  0  0
   46.7240   33.1780   42.2710 C   0  0  0  0  0  0  0  0  0  0  0  0
   47.2730   32.0860   43.0020 C   0  0  0  0  0  0  0  0  0  0  0  0
   46.4060   31.1960   43.5420 N   0  0  0  0  0  0  0  0  0  0  0  0
   45.0680   31.3410   43.4100 C   0  0  0  0  0  0  0  0  0  0  0  0
   44.5830   32.3740   42.7290 N   0  0  0  0  0  0  0  0  0  0  0  0
   47.5560   34.1350   41.6660 N   0  0  0  0  0  0  0  0  0  0  0  0
   47.8200   34.3170   40.3610 C   0  0  0  0  0  0  0  0  0  0  0  0
   48.6700   35.3450   40.1830 N   0  0  0  0  0  0  0  0  0  0  0  0
   48.9450   35.8240   41.4420 C   0  0  0  0  0  0  0  0  0  0  0  0
   48.2480   35.0610   42.3320 N   0  0  0  0  0  0  0  0  0  0  0  0
   44.5750   34.3320   41.4420 C   0  0  0  0  0  0  0  0  0  0  0  0
   43.0680   34.0220   41.4730 C   0  0  0  0  0  0  0  0  0  0  0  0
   42.1960   35.3960   40.6550 S   0  0  0  0  0  0  0  0  0  0  0  0
   42.2300   35.0210   38.8690 C   0  0  0  0  0  0  0  0  0  0  0  0
   41.5190   35.9100   37.9240 C   0  0  0  0  0  0  0  0  0  0  0  0
   40.8450   34.6510   38.2970 C   0  0  0  0  0  0  0  0  0  0  0  0
   48.3600   31.9696   43.1236 H   0  0  0  0  0  0  0  0  0  0  0  0
   44.3848   30.6080   43.8638 H   0  0  0  0  0  0  0  0  0  0  0  0
   47.3982   33.7079   39.5480 H   0  0  0  0  0  0  0  0  0  0  0  0
   49.6063   36.6683   41.6868 H   0  0  0  0  0  0  0  0  0  0  0  0
   44.9112   34.3813   40.3958 H   0  0  0  0  0  0  0  0  0  0  0  0
   44.7465   35.2945   41.9461 H   0  0  0  0  0  0  0  0  0  0  0  0
   42.8689   33.0818   40.9379 H   0  0  0  0  0  0  0  0  0  0  0  0
   42.7210   33.9122   42.5110 H   0  0  0  0  0  0  0  0  0  0  0  0
   43.2491   34.6075   38.8915 H   0  0  0  0  0  0  0  0  0  0  0  0
   41.9063   36.0348   36.9020 H   0  0  0  0  0  0  0  0  0  0  0  0
   41.2220   36.9687   37.9537 H   0  0  0  0  0  0  0  0  0  0  0  0
   39.9557   34.6696   38.9441 H   0  0  0  0  0  0  0  0  0  0  0  0
   40.4236   33.7938   37.7515 H   0  0  0  0  0  0  0  0  0  0  0  0
  1  2  1  0
  1  6  2  0
  2  3  2  0
  3  4  1  0
  5  4  2  0
  6  5  1  0
  7  2  1  0
  7 11  1  0
  8  7  1  0
  9  8  2  0
  9 10  1  0
 10 11  2  0
 12 13  1  0
 12  1  1  0
 14 13  1  0
 15 14  1  0
 16 17  1  0
 16 15  1  0
 17 15  1  0
  3 18  1  0
  5 19  1  0
  8 20  1  0
 10 21  1  0
 12 22  1  0
 12 23  1  0
 13 24  1  0
 13 25  1  0
 15 26  1  0
 16 27  1  0
 16 28  1  0
 17 29  1  0
 17 30  1  0
M  ISO  8  18  14  19  14  20  14  21  14  22   8  23   8  24   8  25   8
M  ISO  5  26  13  27  13  28  13  29  13  30  13
M  END
>  <minimizedAffinity>  (1) 
-3.6567049

>  <minimizedRMSD>  (1) 
6.42433977

$$$$
