
     RDKit          3D

 35 36  0  0  0  0  0  0  0  0999 V2000
   46.5530   32.8250   46.5950 C   0  0  0  0  0  0  0  0  0  0  0  0
   46.0370   32.0180   47.6490 N   0  0  0  0  0  0  0  0  0  0  0  0
   45.6010   32.3120   48.8470 N   0  0  0  0  0  0  0  0  0  0  0  0
   45.1950   31.2470   49.5430 C   0  0  0  0  0  0  0  0  0  0  0  0
   45.3910   30.1790   48.7060 C   0  0  0  0  0  0  0  0  0  0  0  0
   45.9170   30.6650   47.5240 C   0  0  0  0  0  0  0  0  0  0  0  0
   46.2690   29.7810   46.3540 C   0  0  0  0  0  0  0  0  0  0  0  0
   47.7690   29.8240   46.0760 C   0  0  0  0  0  0  0  0  0  0  0  0
   45.5860   30.2080   45.0840 C   0  0  0  0  0  0  0  0  0  0  0  0
   45.9820   28.3250   46.6850 C   0  0  0  0  0  0  0  0  0  0  0  0
   45.5370   33.7680   45.9740 C   0  0  0  0  0  0  0  0  0  0  0  0
   45.9270   34.2280   44.6550 C   0  0  0  0  0  0  0  0  0  0  0  0
   45.1000   35.1830   44.0750 C   0  0  0  0  0  0  0  0  0  0  0  0
   45.3550   35.7140   42.8100 C   0  0  0  0  0  0  0  0  0  0  0  0
   46.4560   35.2460   42.1780 N   0  0  0  0  0  0  0  0  0  0  0  0
   47.2560   34.3130   42.7530 C   0  0  0  0  0  0  0  0  0  0  0  0
   46.9750   33.8300   43.9660 N   0  0  0  0  0  0  0  0  0  0  0  0
   47.3814   33.4272   46.9963 H   0  0  0  0  0  0  0  0  0  0  0  0
   46.8712   32.1364   45.7984 H   0  0  0  0  0  0  0  0  0  0  0  0
   44.7910   31.2303   50.5660 H   0  0  0  0  0  0  0  0  0  0  0  0
   45.1697   29.1259   48.9340 H   0  0  0  0  0  0  0  0  0  0  0  0
   48.3182   29.8397   47.0289 H   0  0  0  0  0  0  0  0  0  0  0  0
   48.0607   28.9338   45.4993 H   0  0  0  0  0  0  0  0  0  0  0  0
   48.0092   30.7294   45.4993 H   0  0  0  0  0  0  0  0  0  0  0  0
   44.6769   30.7764   45.3298 H   0  0  0  0  0  0  0  0  0  0  0  0
   46.2669   30.8415   44.4966 H   0  0  0  0  0  0  0  0  0  0  0  0
   45.3147   29.3184   44.4966 H   0  0  0  0  0  0  0  0  0  0  0  0
   45.9565   28.1954   47.7770 H   0  0  0  0  0  0  0  0  0  0  0  0
   45.0098   28.0368   46.2587 H   0  0  0  0  0  0  0  0  0  0  0  0
   46.7721   27.6894   46.2587 H   0  0  0  0  0  0  0  0  0  0  0  0
   44.5743   33.2422   45.8920 H   0  0  0  0  0  0  0  0  0  0  0  0
   45.4662   34.6522   46.6246 H   0  0  0  0  0  0  0  0  0  0  0  0
   44.2168   35.5311   44.6307 H   0  0  0  0  0  0  0  0  0  0  0  0
   44.6988   36.4694   42.3530 H   0  0  0  0  0  0  0  0  0  0  0  0
   48.1445   33.9510   42.2149 H   0  0  0  0  0  0  0  0  0  0  0  0
  1  2  1  0
  2  3  1  0
  3  4  2  0
  5  4  1  0
  6  2  1  0
  6  5  2  0
  7 10  1  0
  7  6  1  0
  8  7  1  0
  9  7  1  0
 11  1  1  0
 12 11  1  0
 13 12  2  0
 14 13  1  0
 15 16  1  0
 15 14  2  0
 16 17  2  0
 17 12  1  0
  1 18  1  0
  1 19  1  0
  4 20  1  0
  5 21  1  0
  8 22  1  0
  8 23  1  0
  8 24  1  0
  9 25  1  0
  9 26  1  0
  9 27  1  0
 10 28  1  0
 10 29  1  0
 10 30  1  0
 11 31  1  0
 11 32  1  0
 13 33  1  0
 14 34  1  0
 16 35  1  0
M  ISO  8  18   8  19   8  20  14  21  14  22   8  23   8  24   8  25   8
M  ISO  8  26   8  27   8  28   8  29   8  30   8  31   8  32   8  33  14
M  ISO  2  34  14  35  14
M  END
>  <minimizedAffinity>  (1) 
-4.32178879

>  <minimizedRMSD>  (1) 
3.33183384

$$$$
