
     RDKit          3D

 29 30  0  0  0  0  0  0  0  0999 V2000
   47.6880   34.8960   41.1570 C   0  0  0  0  0  0  0  0  0  0  0  0
   47.1700   34.0780   40.1510 C   0  0  0  0  0  0  0  0  0  0  0  0
   45.8190   33.6360   40.2320 C   0  0  0  0  0  0  0  0  0  0  0  0
   45.0990   34.0150   41.3130 N   0  0  0  0  0  0  0  0  0  0  0  0
   45.6240   34.8190   42.2670 C   0  0  0  0  0  0  0  0  0  0  0  0
   46.8850   35.2270   42.1590 N   0  0  0  0  0  0  0  0  0  0  0  0
   47.9880   33.7060   39.0700 N   0  0  0  0  0  0  0  0  0  0  0  0
   48.2090   34.3700   37.9200 C   0  0  0  0  0  0  0  0  0  0  0  0
   49.0590   33.6860   37.1320 N   0  0  0  0  0  0  0  0  0  0  0  0
   49.3890   32.5500   37.8320 C   0  0  0  0  0  0  0  0  0  0  0  0
   48.7120   32.5870   39.0160 N   0  0  0  0  0  0  0  0  0  0  0  0
   49.0430   35.4540   41.2660 C   0  0  0  0  0  0  0  0  0  0  0  0
   49.7180   34.9880   42.5670 C   0  0  0  0  0  0  0  0  0  0  0  0
   50.4770   33.3670   42.2570 S   0  0  0  0  0  0  0  0  0  0  0  0
   49.3260   32.0160   42.5820 C   0  0  0  0  0  0  0  0  0  0  0  0
   50.1240   30.7210   42.4810 C   0  0  0  0  0  0  0  0  0  0  0  0
   45.3765   33.0089   39.4440 H   0  0  0  0  0  0  0  0  0  0  0  0
   45.0119   35.1326   43.1255 H   0  0  0  0  0  0  0  0  0  0  0  0
   47.7570   35.3386   37.6601 H   0  0  0  0  0  0  0  0  0  0  0  0
   50.0737   31.7562   37.4986 H   0  0  0  0  0  0  0  0  0  0  0  0
   49.6425   35.1176   40.4073 H   0  0  0  0  0  0  0  0  0  0  0  0
   48.9744   36.5518   41.2759 H   0  0  0  0  0  0  0  0  0  0  0  0
   50.4912   35.7110   42.8660 H   0  0  0  0  0  0  0  0  0  0  0  0
   48.9769   34.9141   43.3765 H   0  0  0  0  0  0  0  0  0  0  0  0
   48.8971   32.1185   43.5897 H   0  0  0  0  0  0  0  0  0  0  0  0
   48.4954   32.0241   41.8609 H   0  0  0  0  0  0  0  0  0  0  0  0
   50.3520   30.3510   43.4915 H   0  0  0  0  0  0  0  0  0  0  0  0
   49.5333   29.9676   41.9393 H   0  0  0  0  0  0  0  0  0  0  0  0
   51.0625   30.9099   41.9393 H   0  0  0  0  0  0  0  0  0  0  0  0
  1 12  1  0
  1  6  2  0
  2  3  2  0
  2  1  1  0
  3  4  1  0
  4  5  2  0
  6  5  1  0
  7  2  1  0
  8  7  1  0
  9 10  1  0
  9  8  2  0
 10 11  2  0
 11  7  1  0
 12 13  1  0
 14 13  1  0
 14 15  1  0
 16 15  1  0
  3 17  1  0
  5 18  1  0
  8 19  1  0
 10 20  1  0
 12 21  1  0
 12 22  1  0
 13 23  1  0
 13 24  1  0
 15 25  1  0
 15 26  1  0
 16 27  1  0
 16 28  1  0
 16 29  1  0
M  ISO  8  17  14  18  14  19  14  20  14  21   8  22   8  23   8  24   8
M  ISO  5  25   8  26   8  27   8  28   8  29   8
M  END
>  <minimizedAffinity>  (1) 
-3.75003958

>  <minimizedRMSD>  (1) 
0.350440323

$$$$
