
     RDKit          3D

 29 31  0  0  1  0  0  0  0  0999 V2000
   46.9780   32.1710   46.6500 C   0  0  2  0  0  0  0  0  0  0  0  0
   46.8000   30.7350   46.4030 C   0  0  0  0  0  0  0  0  0  0  0  0
   46.9920   31.1540   47.8200 C   0  0  1  0  0  0  0  0  0  0  0  0
   48.2810   30.7650   48.4030 C   0  0  0  0  0  0  0  0  0  0  0  0
   48.7760   29.4930   48.0980 C   0  0  0  0  0  0  0  0  0  0  0  0
   49.9930   29.1840   48.6760 C   0  0  0  0  0  0  0  0  0  0  0  0
   50.7320   30.0040   49.5020 C   0  0  0  0  0  0  0  0  0  0  0  0
   50.1500   31.2290   49.7340 C   0  0  0  0  0  0  0  0  0  0  0  0
   48.9410   31.6490   49.2130 C   0  0  0  0  0  0  0  0  0  0  0  0
   45.7960   33.0900   46.6570 C   0  0  0  0  0  0  0  0  0  0  0  0
   45.0220   33.0100   47.6510 O   0  0  0  0  0  0  0  0  0  0  0  0
   44.5170   35.8730   44.6610 C   0  0  0  0  0  0  0  0  0  0  0  0
   45.2010   35.7370   43.4370 C   0  0  0  0  0  0  0  0  0  0  0  0
   46.0890   34.6730   43.3500 C   0  0  0  0  0  0  0  0  0  0  0  0
   46.2390   33.8540   44.4180 N   0  0  0  0  0  0  0  0  0  0  0  0
   45.5680   34.0210   45.5650 C   0  0  0  0  0  0  0  0  0  0  0  0
   44.7070   35.0250   45.6950 N   0  0  0  0  0  0  0  0  0  0  0  0
   47.6461   32.9271   46.2120 H   0  0  0  0  0  0  0  0  0  0  0  0
   45.8184   30.3596   46.0782 H   0  0  0  0  0  0  0  0  0  0  0  0
   47.3080   30.0088   45.7513 H   0  0  0  0  0  0  0  0  0  0  0  0
   46.4515   31.0740   48.7747 H   0  0  0  0  0  0  0  0  0  0  0  0
   48.2365   28.7902   47.4461 H   0  0  0  0  0  0  0  0  0  0  0  0
   50.4111   28.1906   48.4563 H   0  0  0  0  0  0  0  0  0  0  0  0
   51.6981   29.7063   49.9357 H   0  0  0  0  0  0  0  0  0  0  0  0
   50.6905   31.9303   50.3866 H   0  0  0  0  0  0  0  0  0  0  0  0
   48.5296   32.6441   49.4380 H   0  0  0  0  0  0  0  0  0  0  0  0
   43.8018   36.7003   44.7790 H   0  0  0  0  0  0  0  0  0  0  0  0
   45.0411   36.4324   42.5998 H   0  0  0  0  0  0  0  0  0  0  0  0
   46.6620   34.4980   42.4275 H   0  0  0  0  0  0  0  0  0  0  0  0
  1 10  1  0
  1  3  1  0
  2  1  1  0
  2  3  1  0
  3  4  1  0
  4  9  1  0
  5  4  2  0
  5  6  1  0
  6  7  2  0
  7  8  1  0
  9  8  2  0
 10 11  2  0
 12 17  2  0
 13 12  1  0
 14 13  2  0
 14 15  1  0
 15 16  2  0
 16 17  1  0
 16 10  1  0
  1 18  1  6
  2 19  1  0
  2 20  1  0
  3 21  1  1
  5 22  1  0
  6 23  1  0
  7 24  1  0
  8 25  1  0
  9 26  1  0
 12 27  1  0
 13 28  1  0
 14 29  1  0
M  ISO  8  18  13  19  13  20  13  21  13  22  14  23  14  24  14  25  14
M  ISO  4  26  14  27  14  28  14  29  14
M  END
>  <minimizedAffinity>  (1) 
-5.08479548

>  <minimizedRMSD>  (1) 
1.37204266

$$$$
