
     RDKit          3D

 29 31  0  0  1  0  0  0  0  0999 V2000
   47.0350   32.5040   46.6470 C   0  0  2  0  0  0  0  0  0  0  0  0
   47.2010   31.2590   45.8960 C   0  0  0  0  0  0  0  0  0  0  0  0
   46.8780   31.1310   47.3500 C   0  0  1  0  0  0  0  0  0  0  0  0
   47.9210   30.6790   48.2220 N   0  0  0  0  0  0  0  0  0  0  0  0
   48.6470   31.4650   49.0570 C   0  0  0  0  0  0  0  0  0  0  0  0
   49.6430   30.9180   49.8660 C   0  0  0  0  0  0  0  0  0  0  0  0
   49.8760   29.5490   49.7970 C   0  0  0  0  0  0  0  0  0  0  0  0
   50.7760   29.1310   50.5410 O   0  0  0  0  0  0  0  0  0  0  0  0
   49.1270   28.8080   48.9480 N   0  0  0  0  0  0  0  0  0  0  0  0
   48.1710   29.3570   48.1780 C   0  0  0  0  0  0  0  0  0  0  0  0
   47.5850   28.5150   47.4600 O   0  0  0  0  0  0  0  0  0  0  0  0
   45.7630   33.2890   46.5470 C   0  0  0  0  0  0  0  0  0  0  0  0
   44.9220   33.1270   47.4750 O   0  0  0  0  0  0  0  0  0  0  0  0
   44.4830   36.0150   44.4790 C   0  0  0  0  0  0  0  0  0  0  0  0
   45.1690   35.8540   43.2600 C   0  0  0  0  0  0  0  0  0  0  0  0
   46.0620   34.7920   43.1960 C   0  0  0  0  0  0  0  0  0  0  0  0
   46.2100   34.0000   44.2820 N   0  0  0  0  0  0  0  0  0  0  0  0
   45.5400   34.1850   45.4240 C   0  0  0  0  0  0  0  0  0  0  0  0
   44.6690   35.1950   45.5350 N   0  0  0  0  0  0  0  0  0  0  0  0
   47.6577   33.4059   46.7411 H   0  0  0  0  0  0  0  0  0  0  0  0
   46.4471   30.9743   45.1473 H   0  0  0  0  0  0  0  0  0  0  0  0
   48.0036   30.8586   45.2592 H   0  0  0  0  0  0  0  0  0  0  0  0
   46.1011   30.6437   47.9575 H   0  0  0  0  0  0  0  0  0  0  0  0
   48.4476   32.5461   49.0962 H   0  0  0  0  0  0  0  0  0  0  0  0
   50.2307   31.5552   50.5432 H   0  0  0  0  0  0  0  0  0  0  0  0
   49.2941   27.7933   48.8898 H   0  0  0  0  0  0  0  0  0  0  0  0
   43.7657   36.8434   44.5748 H   0  0  0  0  0  0  0  0  0  0  0  0
   45.0071   36.5302   42.4076 H   0  0  0  0  0  0  0  0  0  0  0  0
   46.6380   34.5988   42.2790 H   0  0  0  0  0  0  0  0  0  0  0  0
  1  3  1  0
  2  1  1  0
  2  3  1  0
  3  4  1  0
  4  5  1  0
  5  6  2  0
  7  6  1  0
  7  8  2  0
  9  7  1  0
 10  4  1  0
 10  9  1  0
 11 10  2  0
 12  1  1  0
 12 13  2  0
 14 19  2  0
 15 14  1  0
 16 15  2  0
 16 17  1  0
 17 18  2  0
 18 19  1  0
 18 12  1  0
  1 20  1  1
  2 21  1  0
  2 22  1  0
  3 23  1  6
  5 24  1  0
  6 25  1  0
  9 26  1  0
 14 27  1  0
 15 28  1  0
 16 29  1  0
M  ISO  8  20  13  21  13  22  13  23  13  24  14  25  14  26   9  27  14
M  ISO  2  28  14  29  14
M  END
>  <minimizedAffinity>  (1) 
-5.28479958

>  <minimizedRMSD>  (1) 
2.04793787

$$$$
