
     RDKit          3D

 32 34  0  0  1  0  0  0  0  0999 V2000
   46.9970   32.4070   46.5850 C   0  0  2  0  0  0  0  0  0  0  0  0
   47.0990   31.1600   45.8320 C   0  0  0  0  0  0  0  0  0  0  0  0
   46.7960   31.0330   47.2880 C   0  0  1  0  0  0  0  0  0  0  0  0
   47.8540   30.5470   48.1230 N   0  0  0  0  0  0  0  0  0  0  0  0
   48.6160   31.3290   48.9250 C   0  0  0  0  0  0  0  0  0  0  0  0
   49.6200   30.8250   49.7100 C   0  0  0  0  0  0  0  0  0  0  0  0
   50.4630   31.6770   50.5950 C   0  0  0  0  0  0  0  0  0  0  0  0
   49.8940   29.4670   49.7100 C   0  0  0  0  0  0  0  0  0  0  0  0
   50.8150   28.9670   50.4240 O   0  0  0  0  0  0  0  0  0  0  0  0
   49.1270   28.7040   48.9070 N   0  0  0  0  0  0  0  0  0  0  0  0
   48.1330   29.2310   48.1340 C   0  0  0  0  0  0  0  0  0  0  0  0
   47.5180   28.3690   47.4470 O   0  0  0  0  0  0  0  0  0  0  0  0
   45.7780   33.2610   46.5310 C   0  0  0  0  0  0  0  0  0  0  0  0
   44.9770   33.1420   47.5000 O   0  0  0  0  0  0  0  0  0  0  0  0
   44.4870   36.0040   44.5010 C   0  0  0  0  0  0  0  0  0  0  0  0
   45.1790   35.8620   43.2840 C   0  0  0  0  0  0  0  0  0  0  0  0
   46.0790   34.8070   43.2050 C   0  0  0  0  0  0  0  0  0  0  0  0
   46.2300   34.0000   44.2800 N   0  0  0  0  0  0  0  0  0  0  0  0
   45.5550   34.1640   45.4230 C   0  0  0  0  0  0  0  0  0  0  0  0
   44.6920   35.1600   45.5250 N   0  0  0  0  0  0  0  0  0  0  0  0
   47.6580   33.2830   46.6605 H   0  0  0  0  0  0  0  0  0  0  0  0
   46.3217   30.9094   45.0951 H   0  0  0  0  0  0  0  0  0  0  0  0
   47.8753   30.7312   45.1812 H   0  0  0  0  0  0  0  0  0  0  0  0
   46.0117   30.5724   47.9066 H   0  0  0  0  0  0  0  0  0  0  0  0
   48.4211   32.4114   48.9470 H   0  0  0  0  0  0  0  0  0  0  0  0
   50.2372   31.4488   51.6471 H   0  0  0  0  0  0  0  0  0  0  0  0
   51.5256   31.4739   50.3957 H   0  0  0  0  0  0  0  0  0  0  0  0
   50.2487   32.7373   50.3957 H   0  0  0  0  0  0  0  0  0  0  0  0
   49.2964   27.6885   48.8753 H   0  0  0  0  0  0  0  0  0  0  0  0
   43.7627   36.8239   44.6159 H   0  0  0  0  0  0  0  0  0  0  0  0
   45.0160   36.5493   42.4408 H   0  0  0  0  0  0  0  0  0  0  0  0
   46.6577   34.6312   42.2862 H   0  0  0  0  0  0  0  0  0  0  0  0
  1  3  1  0
  2  1  1  0
  2  3  1  0
  3  4  1  0
  4 11  1  0
  4  5  1  0
  5  6  2  0
  6  7  1  0
  8  6  1  0
  8  9  2  0
 10  8  1  0
 11 10  1  0
 12 11  2  0
 13  1  1  0
 13 14  2  0
 15 20  2  0
 16 15  1  0
 17 16  2  0
 17 18  1  0
 18 19  2  0
 19 20  1  0
 19 13  1  0
  1 21  1  1
  2 22  1  0
  2 23  1  0
  3 24  1  6
  5 25  1  0
  7 26  1  0
  7 27  1  0
  7 28  1  0
 10 29  1  0
 15 30  1  0
 16 31  1  0
 17 32  1  0
M  ISO  8  21  13  22  13  23  13  24  13  25  14  26   8  27   8  28   8
M  ISO  4  29   9  30  14  31  14  32  14
M  END
>  <minimizedAffinity>  (1) 
-5.59334707

>  <minimizedRMSD>  (1) 
2.16952038

$$$$
