
     RDKit          3D

 25 27  0  0  1  0  0  0  0  0999 V2000
   46.9820   32.1880   46.6810 C   0  0  2  0  0  0  0  0  0  0  0  0
   46.8000   30.7580   46.4020 C   0  0  0  0  0  0  0  0  0  0  0  0
   46.9760   31.1440   47.8220 C   0  0  1  0  0  0  0  0  0  0  0  0
   48.2930   30.8200   48.4590 C   0  0  0  0  0  0  0  0  0  0  0  0
   48.8770   29.5390   48.2260 C   0  0  0  0  0  0  0  0  0  0  0  0
   50.3960   29.6370   49.1710 S   0  0  0  0  0  0  0  0  0  0  0  0
   50.0070   31.4270   49.7510 C   0  0  0  0  0  0  0  0  0  0  0  0
   48.9450   31.6680   49.2300 N   0  0  0  0  0  0  0  0  0  0  0  0
   45.7920   33.0990   46.6710 C   0  0  0  0  0  0  0  0  0  0  0  0
   45.0020   33.0240   47.6540 O   0  0  0  0  0  0  0  0  0  0  0  0
   44.5110   35.8760   44.6590 C   0  0  0  0  0  0  0  0  0  0  0  0
   45.2010   35.7320   43.4400 C   0  0  0  0  0  0  0  0  0  0  0  0
   46.1050   34.6590   43.3500 C   0  0  0  0  0  0  0  0  0  0  0  0
   46.2390   33.8550   44.4330 N   0  0  0  0  0  0  0  0  0  0  0  0
   45.5640   34.0250   45.5770 C   0  0  0  0  0  0  0  0  0  0  0  0
   44.7110   35.0280   45.6780 N   0  0  0  0  0  0  0  0  0  0  0  0
   47.6616   32.9555   46.2821 H   0  0  0  0  0  0  0  0  0  0  0  0
   45.8205   30.3945   46.0577 H   0  0  0  0  0  0  0  0  0  0  0  0
   47.3123   30.0430   45.7414 H   0  0  0  0  0  0  0  0  0  0  0  0
   46.4142   30.9981   48.7564 H   0  0  0  0  0  0  0  0  0  0  0  0
   48.4928   28.7046   47.6209 H   0  0  0  0  0  0  0  0  0  0  0  0
   50.6088   32.0774   50.4027 H   0  0  0  0  0  0  0  0  0  0  0  0
   43.7932   36.7011   44.7776 H   0  0  0  0  0  0  0  0  0  0  0  0
   45.0408   36.4243   42.6003 H   0  0  0  0  0  0  0  0  0  0  0  0
   46.6837   34.4782   42.4322 H   0  0  0  0  0  0  0  0  0  0  0  0
  1  3  1  0
  2  1  1  0
  2  3  1  0
  3  4  1  0
  4  8  1  0
  5  4  2  0
  5  6  1  0
  6  7  1  0
  8  7  2  0
  9  1  1  0
  9 10  2  0
 11 16  2  0
 12 11  1  0
 13 12  2  0
 13 14  1  0
 14 15  2  0
 15 16  1  0
 15  9  1  0
  1 17  1  6
  2 18  1  0
  2 19  1  0
  3 20  1  1
  5 21  1  0
  7 22  1  0
 11 23  1  0
 12 24  1  0
 13 25  1  0
M  ISO  8  17  13  18  13  19  13  20  13  21  14  22  14  23  14  24  14
M  ISO  1  25  14
M  END
>  <minimizedAffinity>  (1) 
-4.76654339

>  <minimizedRMSD>  (1) 
1.30895615

$$$$
