
     RDKit          3D

 24 25  0  0  0  0  0  0  0  0999 V2000
   46.8740   32.7930   45.0150 C   0  0  0  0  0  0  0  0  0  0  0  0
   46.1190   33.9640   44.6070 C   0  0  0  0  0  0  0  0  0  0  0  0
   46.4240   34.4660   43.3510 C   0  0  0  0  0  0  0  0  0  0  0  0
   45.7720   35.5860   42.8290 C   0  0  0  0  0  0  0  0  0  0  0  0
   44.8210   36.1530   43.6210 N   0  0  0  0  0  0  0  0  0  0  0  0
   44.5360   35.6520   44.8410 C   0  0  0  0  0  0  0  0  0  0  0  0
   45.1860   34.5790   45.3010 N   0  0  0  0  0  0  0  0  0  0  0  0
   46.5670   32.3560   46.4320 C   0  0  0  0  0  0  0  0  0  0  0  0
   45.9200   31.0800   46.5060 N   0  0  0  0  0  0  0  0  0  0  0  0
   45.6590   30.1370   45.6290 N   0  0  0  0  0  0  0  0  0  0  0  0
   45.0200   29.0920   46.1420 C   0  0  0  0  0  0  0  0  0  0  0  0
   44.8510   29.3820   47.4720 C   0  0  0  0  0  0  0  0  0  0  0  0
   45.4110   30.6130   47.6860 C   0  0  0  0  0  0  0  0  0  0  0  0
   45.3770   31.3320   49.3470 S   0  0  0  0  0  0  0  0  0  0  0  0
   47.9469   33.0254   44.9444 H   0  0  0  0  0  0  0  0  0  0  0  0
   46.5881   31.9675   44.3466 H   0  0  0  0  0  0  0  0  0  0  0  0
   47.1998   33.9694   42.7497 H   0  0  0  0  0  0  0  0  0  0  0  0
   46.0136   35.9872   41.8337 H   0  0  0  0  0  0  0  0  0  0  0  0
   43.7634   36.1301   45.4611 H   0  0  0  0  0  0  0  0  0  0  0  0
   47.5119   32.3009   46.9924 H   0  0  0  0  0  0  0  0  0  0  0  0
   45.8740   33.0968   46.8575 H   0  0  0  0  0  0  0  0  0  0  0  0
   44.6947   28.1847   45.6119 H   0  0  0  0  0  0  0  0  0  0  0  0
   44.3593   28.7467   48.2234 H   0  0  0  0  0  0  0  0  0  0  0  0
   45.4244   30.3295   50.2796 H   0  0  0  0  0  0  0  0  0  0  0  0
  1  8  1  0
  2  1  1  0
  2  7  1  0
  3  2  2  0
  4  3  1  0
  4  5  2  0
  5  6  1  0
  6  7  2  0
  8  9  1  0
  9 13  1  0
 10 11  2  0
 10  9  1  0
 11 12  1  0
 12 13  2  0
 13 14  1  0
  1 15  1  0
  1 16  1  0
  3 17  1  0
  4 18  1  0
  6 19  1  0
  8 20  1  0
  8 21  1  0
 11 22  1  0
 12 23  1  0
 14 24  1  0
M  ISO  8  15   8  16   8  17  14  18  14  19  14  20   8  21   8  22  14
M  ISO  2  23  14  24  11
M  END
>  <minimizedAffinity>  (1) 
-4.16836786

>  <minimizedRMSD>  (1) 
1.54664731

$$$$
