
     RDKit          3D

 26 27  0  0  1  0  0  0  0  0999 V2000
   46.5550   32.2550   45.6850 C   0  0  2  0  0  0  0  0  0  0  0  0
   46.2300   30.9230   46.2000 C   0  0  0  0  0  0  0  0  0  0  0  0
   47.2400   31.7000   46.9450 C   0  0  2  0  0  0  0  0  0  0  0  0
   46.8740   32.1850   48.2350 N   0  0  0  0  0  0  0  0  0  0  0  0
   46.1460   31.2970   49.1120 C   0  0  0  0  0  0  0  0  0  0  0  0
   46.1850   30.0120   48.9960 N   0  0  0  0  0  0  0  0  0  0  0  0
   45.3250   31.7690   50.1790 N   0  0  0  0  0  0  0  0  0  0  0  0
   45.6940   29.3260   49.5850 H   0  0  0  0  0  0  0  0  0  0  0  0
   45.6550   33.4110   45.8980 C   0  0  0  0  0  0  0  0  0  0  0  0
   45.0350   33.4420   46.9840 O   0  0  0  0  0  0  0  0  0  0  0  0
   44.5920   36.4530   44.1500 C   0  0  0  0  0  0  0  0  0  0  0  0
   45.2720   36.3660   42.9210 C   0  0  0  0  0  0  0  0  0  0  0  0
   46.0820   35.2520   42.7410 C   0  0  0  0  0  0  0  0  0  0  0  0
   46.1780   34.3220   43.7330 N   0  0  0  0  0  0  0  0  0  0  0  0
   45.5020   34.4450   44.9060 C   0  0  0  0  0  0  0  0  0  0  0  0
   44.7150   35.5110   45.1040 N   0  0  0  0  0  0  0  0  0  0  0  0
   46.8457   32.6251   44.6908 H   0  0  0  0  0  0  0  0  0  0  0  0
   45.2435   30.7433   46.6522 H   0  0  0  0  0  0  0  0  0  0  0  0
   46.2226   29.9174   45.7542 H   0  0  0  0  0  0  0  0  0  0  0  0
   48.2853   31.5683   47.2612 H   0  0  0  0  0  0  0  0  0  0  0  0
   47.1211   33.1396   48.5327 H   0  0  0  0  0  0  0  0  0  0  0  0
   44.8243   31.0981   50.7791 H   0  0  0  0  0  0  0  0  0  0  0  0
   45.2330   32.7807   50.3493 H   0  0  0  0  0  0  0  0  0  0  0  0
   43.9391   37.3183   44.3372 H   0  0  0  0  0  0  0  0  0  0  0  0
   45.1677   37.1384   42.1448 H   0  0  0  0  0  0  0  0  0  0  0  0
   46.6426   35.1211   41.8037 H   0  0  0  0  0  0  0  0  0  0  0  0
  1  9  1  0
  1  2  1  0
  1  3  1  0
  2  3  1  0
  3  4  1  0
  4  5  1  0
  5  7  1  0
  6  5  2  0
  6  8  1  0
  9 10  2  0
 11 16  2  0
 12 11  1  0
 13 12  2  0
 13 14  1  0
 14 15  2  0
 15 16  1  0
 15  9  1  0
  1 17  1  6
  2 18  1  0
  2 19  1  0
  3 20  1  6
  4 21  1  0
  7 22  1  0
  7 23  1  0
 11 24  1  0
 12 25  1  0
 13 26  1  0
M  ISO  7  17  13  18  13  19  13  20  13  24  14  25  14  26  14
M  END
>  <minimizedAffinity>  (1) 
-4.77075005

>  <minimizedRMSD>  (1) 
1.2776078

$$$$
