
     RDKit          3D

 22 23  0  0  1  0  0  0  0  0999 V2000
   45.7400   33.2060   46.5800 C   0  0  0  0  0  0  0  0  0  0  0  0
   44.9590   33.1980   47.5710 O   0  0  0  0  0  0  0  0  0  0  0  0
   44.5420   35.9700   44.4940 C   0  0  0  0  0  0  0  0  0  0  0  0
   45.2660   35.8030   43.2990 C   0  0  0  0  0  0  0  0  0  0  0  0
   46.1490   34.7320   43.2590 C   0  0  0  0  0  0  0  0  0  0  0  0
   46.2570   33.9290   44.3520 N   0  0  0  0  0  0  0  0  0  0  0  0
   45.5520   34.1160   45.4750 C   0  0  0  0  0  0  0  0  0  0  0  0
   44.6930   35.1430   45.5390 N   0  0  0  0  0  0  0  0  0  0  0  0
   46.8640   32.2340   46.6050 C   0  0  2  0  0  0  0  0  0  0  0  0
   46.7270   30.9000   46.0260 C   0  0  0  0  0  0  0  0  0  0  0  0
   46.5890   30.9800   47.4890 C   0  0  1  0  0  0  0  0  0  0  0  0
   47.6530   30.5700   48.4240 C   0  0  0  0  0  0  0  0  0  0  0  0
   48.3000   29.5710   48.0210 O   0  0  0  0  0  0  0  0  0  0  0  0
   47.9100   31.2100   49.6050 O   0  0  0  0  0  0  0  0  0  0  0  0
   43.8301   36.8048   44.5735 H   0  0  0  0  0  0  0  0  0  0  0  0
   45.1395   36.4832   42.4438 H   0  0  0  0  0  0  0  0  0  0  0  0
   46.7507   34.5362   42.3592 H   0  0  0  0  0  0  0  0  0  0  0  0
   47.6237   33.0213   46.4911 H   0  0  0  0  0  0  0  0  0  0  0  0
   45.8429   30.6673   45.4142 H   0  0  0  0  0  0  0  0  0  0  0  0
   47.3661   30.2988   45.3626 H   0  0  0  0  0  0  0  0  0  0  0  0
   45.8300   30.6187   48.1985 H   0  0  0  0  0  0  0  0  0  0  0  0
   48.6386   30.8892   50.1935 H   0  0  0  0  0  0  0  0  0  0  0  0
  1  9  1  0
  1  2  2  0
  3  8  2  0
  4  3  1  0
  5  4  2  0
  5  6  1  0
  6  7  2  0
  7  8  1  0
  7  1  1  0
  9 11  1  0
 10  9  1  0
 10 11  1  0
 11 12  1  0
 12 14  1  0
 13 12  2  0
  3 15  1  0
  4 16  1  0
  5 17  1  0
  9 18  1  1
 10 19  1  0
 10 20  1  0
 11 21  1  1
 14 22  1  0
M  ISO  8  15  14  16  14  17  14  18  13  19  13  20  13  21  13  22   3
M  END
>  <minimizedAffinity>  (1) 
-4.51608562

>  <minimizedRMSD>  (1) 
1.41656196

$$$$
