
     RDKit          3D

 24 26  0  0  1  0  0  0  0  0999 V2000
   46.9720   32.1720   46.7100 C   0  0  2  0  0  0  0  0  0  0  0  0
   46.8180   30.7290   46.5150 C   0  0  0  0  0  0  0  0  0  0  0  0
   47.0100   31.2010   47.9190 C   0  0  1  0  0  0  0  0  0  0  0  0
   48.3030   31.0080   48.6030 C   0  0  0  0  0  0  0  0  0  0  0  0
   48.9320   29.8320   48.6830 N   0  0  0  0  0  0  0  0  0  0  0  0
   50.0400   30.0170   49.3500 O   0  0  0  0  0  0  0  0  0  0  0  0
   50.1550   31.2880   49.7120 C   0  0  0  0  0  0  0  0  0  0  0  0
   49.0660   31.9120   49.2440 N   0  0  0  0  0  0  0  0  0  0  0  0
   45.7870   33.0870   46.6950 C   0  0  0  0  0  0  0  0  0  0  0  0
   45.0100   33.0100   47.6870 O   0  0  0  0  0  0  0  0  0  0  0  0
   44.5370   35.8490   44.6680 C   0  0  0  0  0  0  0  0  0  0  0  0
   45.2340   35.7000   43.4530 C   0  0  0  0  0  0  0  0  0  0  0  0
   46.1230   34.6370   43.3680 C   0  0  0  0  0  0  0  0  0  0  0  0
   46.2540   33.8300   44.4440 N   0  0  0  0  0  0  0  0  0  0  0  0
   45.5750   34.0010   45.5850 C   0  0  0  0  0  0  0  0  0  0  0  0
   44.7070   35.0180   45.7030 N   0  0  0  0  0  0  0  0  0  0  0  0
   47.6238   32.9197   46.2345 H   0  0  0  0  0  0  0  0  0  0  0  0
   45.8414   30.3259   46.2088 H   0  0  0  0  0  0  0  0  0  0  0  0
   47.3354   29.9894   45.8863 H   0  0  0  0  0  0  0  0  0  0  0  0
   46.4652   31.0660   48.8650 H   0  0  0  0  0  0  0  0  0  0  0  0
   50.9800   31.7394   50.2826 H   0  0  0  0  0  0  0  0  0  0  0  0
   43.8249   36.6812   44.7700 H   0  0  0  0  0  0  0  0  0  0  0  0
   45.0813   36.3925   42.6121 H   0  0  0  0  0  0  0  0  0  0  0  0
   46.7039   34.4569   42.4514 H   0  0  0  0  0  0  0  0  0  0  0  0
  1  3  1  0
  2  1  1  0
  2  3  1  0
  3  4  1  0
  4  5  2  0
  4  8  1  0
  5  6  1  0
  6  7  1  0
  8  7  2  0
  9  1  1  0
  9 10  2  0
 11 16  2  0
 12 11  1  0
 13 12  2  0
 13 14  1  0
 14 15  2  0
 15 16  1  0
 15  9  1  0
  1 17  1  6
  2 18  1  0
  2 19  1  0
  3 20  1  1
  7 21  1  0
 11 22  1  0
 12 23  1  0
 13 24  1  0
M  ISO  8  17  13  18  13  19  13  20  13  21  14  22  14  23  14  24  14
M  END
>  <minimizedAffinity>  (1) 
-4.70403576

>  <minimizedRMSD>  (1) 
1.2849865

$$$$
