
     RDKit          3D

 34 36  0  0  1  0  0  0  0  0999 V2000
   46.6790   32.0110   46.3560 C   0  0  2  0  0  0  0  0  0  0  0  0
   46.2740   30.6240   46.5810 C   0  0  0  0  0  0  0  0  0  0  0  0
   46.9890   31.2820   47.6910 C   0  0  1  0  0  0  0  0  0  0  0  0
   48.3330   30.9190   47.9920 N   0  0  0  0  0  0  0  0  0  0  0  0
   48.8010   31.6160   49.1510 C   0  0  0  0  0  0  0  0  0  0  0  0
   50.2320   31.3020   49.4970 C   0  0  0  0  0  0  0  0  0  0  0  0
   50.5870   29.8610   49.3540 C   0  0  0  0  0  0  0  0  0  0  0  0
   50.0920   29.3100   48.0390 C   0  0  0  0  0  0  0  0  0  0  0  0
   48.5840   29.5080   48.0150 C   0  0  0  0  0  0  0  0  0  0  0  0
   45.6960   33.1330   46.4760 C   0  0  0  0  0  0  0  0  0  0  0  0
   45.0370   33.1840   47.5520 O   0  0  0  0  0  0  0  0  0  0  0  0
   44.5520   36.0150   44.5470 C   0  0  0  0  0  0  0  0  0  0  0  0
   45.2510   35.8910   43.3330 C   0  0  0  0  0  0  0  0  0  0  0  0
   46.1130   34.7920   43.2210 C   0  0  0  0  0  0  0  0  0  0  0  0
   46.2190   33.9310   44.2680 N   0  0  0  0  0  0  0  0  0  0  0  0
   45.5320   34.0890   45.4070 C   0  0  0  0  0  0  0  0  0  0  0  0
   44.7050   35.1260   45.5380 N   0  0  0  0  0  0  0  0  0  0  0  0
   47.2256   32.5086   45.5414 H   0  0  0  0  0  0  0  0  0  0  0  0
   45.2061   30.3856   46.6936 H   0  0  0  0  0  0  0  0  0  0  0  0
   46.4400   29.6896   46.0249 H   0  0  0  0  0  0  0  0  0  0  0  0
   46.7915   31.4582   48.7587 H   0  0  0  0  0  0  0  0  0  0  0  0
   48.7155   32.6971   48.9666 H   0  0  0  0  0  0  0  0  0  0  0  0
   48.1815   31.2901   49.9995 H   0  0  0  0  0  0  0  0  0  0  0  0
   50.8851   31.8870   48.8327 H   0  0  0  0  0  0  0  0  0  0  0  0
   50.3675   31.5600   50.5577 H   0  0  0  0  0  0  0  0  0  0  0  0
   51.6808   29.7537   49.4001 H   0  0  0  0  0  0  0  0  0  0  0  0
   50.1100   29.2998   50.1710 H   0  0  0  0  0  0  0  0  0  0  0  0
   50.5578   29.8519   47.2027 H   0  0  0  0  0  0  0  0  0  0  0  0
   50.3505   28.2457   47.9364 H   0  0  0  0  0  0  0  0  0  0  0  0
   48.1326   29.0612   48.9131 H   0  0  0  0  0  0  0  0  0  0  0  0
   48.1444   29.0227   47.1311 H   0  0  0  0  0  0  0  0  0  0  0  0
   43.8636   36.8615   44.6864 H   0  0  0  0  0  0  0  0  0  0  0  0
   45.1278   36.6171   42.5160 H   0  0  0  0  0  0  0  0  0  0  0  0
   46.6942   34.6285   42.3015 H   0  0  0  0  0  0  0  0  0  0  0  0
  1 10  1  0
  1  2  1  0
  1  3  1  0
  2  3  1  0
  3  4  1  0
  4  9  1  0
  4  5  1  0
  5  6  1  0
  7  6  1  0
  8  7  1  0
  9  8  1  0
 10 11  2  0
 12 17  2  0
 13 12  1  0
 14 13  2  0
 14 15  1  0
 15 16  2  0
 16 17  1  0
 16 10  1  0
  1 18  1  6
  2 19  1  0
  2 20  1  0
  3 21  1  1
  5 22  1  0
  5 23  1  0
  6 24  1  0
  6 25  1  0
  7 26  1  0
  7 27  1  0
  8 28  1  0
  8 29  1  0
  9 30  1  0
  9 31  1  0
 12 32  1  0
 13 33  1  0
 14 34  1  0
M  ISO  8  18  13  19  13  20  13  21  13  22  13  23  13  24  13  25  13
M  ISO  8  26  13  27  13  28  13  29  13  30  13  31  13  32  14  33  14
M  ISO  1  34  14
M  END
>  <minimizedAffinity>  (1) 
-4.79617023

>  <minimizedRMSD>  (1) 
1.48636603

$$$$
