
     RDKit          3D

 20 21  0  0  1  0  0  0  0  0999 V2000
   45.7680   33.0940   46.8000 C   0  0  0  0  0  0  0  0  0  0  0  0
   44.9010   32.9490   47.7080 O   0  0  0  0  0  0  0  0  0  0  0  0
   44.5630   35.7940   44.6590 C   0  0  0  0  0  0  0  0  0  0  0  0
   45.2860   35.6030   43.4550 C   0  0  0  0  0  0  0  0  0  0  0  0
   46.1730   34.5330   43.4330 C   0  0  0  0  0  0  0  0  0  0  0  0
   46.2850   33.7610   44.5360 N   0  0  0  0  0  0  0  0  0  0  0  0
   45.5850   33.9710   45.6580 C   0  0  0  0  0  0  0  0  0  0  0  0
   44.7180   34.9930   45.7230 N   0  0  0  0  0  0  0  0  0  0  0  0
   47.0310   32.3040   46.9470 C   0  0  2  0  0  0  0  0  0  0  0  0
   46.9870   30.9180   47.4190 C   0  0  0  0  0  0  0  0  0  0  0  0
   47.3920   31.9410   48.4080 C   0  0  1  0  0  0  0  0  0  0  0  0
   48.7040   31.9200   48.7960 O   0  0  0  0  0  0  0  0  0  0  0  0
   43.8496   36.6288   44.7228 H   0  0  0  0  0  0  0  0  0  0  0  0
   45.1526   36.2646   42.5864 H   0  0  0  0  0  0  0  0  0  0  0  0
   46.7718   34.3191   42.5354 H   0  0  0  0  0  0  0  0  0  0  0  0
   47.5060   32.7882   46.0810 H   0  0  0  0  0  0  0  0  0  0  0  0
   46.0147   30.4154   47.5290 H   0  0  0  0  0  0  0  0  0  0  0  0
   47.4463   29.9830   47.0656 H   0  0  0  0  0  0  0  0  0  0  0  0
   47.0563   32.2919   49.3950 H   0  0  0  0  0  0  0  0  0  0  0  0
   48.7558   31.9192   49.7846 H   0  0  0  0  0  0  0  0  0  0  0  0
  1  9  1  0
  1  2  2  0
  3  8  2  0
  4  3  1  0
  5  4  2  0
  5  6  1  0
  6  7  2  0
  7  8  1  0
  7  1  1  0
  9 10  1  0
  9 11  1  0
 10 11  1  0
 11 12  1  0
  3 13  1  0
  4 14  1  0
  5 15  1  0
  9 16  1  6
 10 17  1  0
 10 18  1  0
 11 19  1  1
 12 20  1  0
M  ISO  8  13  14  14  14  15  14  16  13  17  13  18  13  19  13  20   3
M  END
>  <minimizedAffinity>  (1) 
-4.14317513

>  <minimizedRMSD>  (1) 
0.298776269

$$$$
