
     RDKit          3D

 31 33  0  0  1  0  0  0  0  0999 V2000
   46.7430   31.6990   46.7680 C   0  0  2  0  0  0  0  0  0  0  0  0
   46.5170   30.4190   47.4400 C   0  0  0  0  0  0  0  0  0  0  0  0
   47.4730   31.3400   48.0820 C   0  0  1  0  0  0  0  0  0  0  0  0
   48.8680   31.0920   48.0470 N   0  0  0  0  0  0  0  0  0  0  0  0
   49.4020   31.5720   49.3330 C   0  0  0  0  0  0  0  0  0  0  0  0
   49.5000   30.3780   50.2300 C   0  0  0  0  0  0  0  0  0  0  0  0
   49.5850   29.2150   49.2980 C   0  0  0  0  0  0  0  0  0  0  0  0
   49.3000   29.7500   47.9090 C   0  0  0  0  0  0  0  0  0  0  0  0
   45.7690   32.8190   46.8730 C   0  0  0  0  0  0  0  0  0  0  0  0
   45.1220   32.8900   47.9570 O   0  0  0  0  0  0  0  0  0  0  0  0
   44.6050   35.6440   44.8820 C   0  0  0  0  0  0  0  0  0  0  0  0
   45.3220   35.5100   43.6770 C   0  0  0  0  0  0  0  0  0  0  0  0
   46.1890   34.4300   43.5980 C   0  0  0  0  0  0  0  0  0  0  0  0
   46.2810   33.6020   44.6620 N   0  0  0  0  0  0  0  0  0  0  0  0
   45.5830   33.7630   45.7920 C   0  0  0  0  0  0  0  0  0  0  0  0
   44.7390   34.7860   45.9110 N   0  0  0  0  0  0  0  0  0  0  0  0
   46.9959   31.9653   45.7311 H   0  0  0  0  0  0  0  0  0  0  0  0
   45.5470   30.2255   47.9214 H   0  0  0  0  0  0  0  0  0  0  0  0
   46.5796   29.3708   47.1123 H   0  0  0  0  0  0  0  0  0  0  0  0
   47.5776   31.7750   49.0869 H   0  0  0  0  0  0  0  0  0  0  0  0
   50.3963   32.0195   49.1874 H   0  0  0  0  0  0  0  0  0  0  0  0
   48.7497   32.3426   49.7696 H   0  0  0  0  0  0  0  0  0  0  0  0
   50.3999   30.4379   50.8598 H   0  0  0  0  0  0  0  0  0  0  0  0
   48.6450   30.3007   50.9177 H   0  0  0  0  0  0  0  0  0  0  0  0
   50.5912   28.7721   49.3348 H   0  0  0  0  0  0  0  0  0  0  0  0
   48.8652   28.4310   49.5760 H   0  0  0  0  0  0  0  0  0  0  0  0
   48.5123   29.1498   47.4302 H   0  0  0  0  0  0  0  0  0  0  0  0
   50.2024   29.6973   47.2821 H   0  0  0  0  0  0  0  0  0  0  0  0
   43.9052   36.4862   44.9869 H   0  0  0  0  0  0  0  0  0  0  0  0
   45.2014   36.2209   42.8463 H   0  0  0  0  0  0  0  0  0  0  0  0
   46.7867   34.2520   42.6919 H   0  0  0  0  0  0  0  0  0  0  0  0
  1  9  1  0
  1  2  1  0
  1  3  1  0
  2  3  1  0
  4  3  1  0
  4  5  1  0
  5  6  1  0
  7  6  1  0
  8  4  1  0
  8  7  1  0
  9 10  2  0
 11 16  2  0
 12 11  1  0
 13 12  2  0
 13 14  1  0
 14 15  2  0
 15 16  1  0
 15  9  1  0
  1 17  1  6
  2 18  1  0
  2 19  1  0
  3 20  1  1
  5 21  1  0
  5 22  1  0
  6 23  1  0
  6 24  1  0
  7 25  1  0
  7 26  1  0
  8 27  1  0
  8 28  1  0
 11 29  1  0
 12 30  1  0
 13 31  1  0
M  ISO  8  17  13  18  13  19  13  20  13  21  13  22  13  23  13  24  13
M  ISO  7  25  13  26  13  27  13  28  13  29  14  30  14  31  14
M  END
>  <minimizedAffinity>  (1) 
-4.34030914

>  <minimizedRMSD>  (1) 
1.30018973

$$$$
