
     RDKit          3D

 30 32  0  0  1  0  0  0  0  0999 V2000
   45.7760   31.1350   41.0630 C   0  0  2  0  0  0  0  0  0  0  0  0
   46.9750   30.2970   41.1660 C   0  0  0  0  0  0  0  0  0  0  0  0
   47.0940   31.5250   40.3540 C   0  0  2  0  0  0  0  0  0  0  0  0
   47.9070   32.5620   41.0020 N   0  0  0  0  0  0  0  0  0  0  0  0
   48.7050   32.0870   42.0010 C   0  0  0  0  0  0  0  0  0  0  0  0
   49.5000   32.9890   42.6620 C   0  0  0  0  0  0  0  0  0  0  0  0
   49.4860   34.3180   42.3240 C   0  0  0  0  0  0  0  0  0  0  0  0
   50.3080   35.2630   43.0050 N   0  0  0  0  0  0  0  0  0  0  0  0
   48.6720   34.6810   41.3350 N   0  0  0  0  0  0  0  0  0  0  0  0
   47.8690   33.8540   40.6470 C   0  0  0  0  0  0  0  0  0  0  0  0
   47.1040   34.2130   39.7130 O   0  0  0  0  0  0  0  0  0  0  0  0
   45.3770   32.0440   42.1700 C   0  0  0  0  0  0  0  0  0  0  0  0
   45.6810   31.6780   43.3390 O   0  0  0  0  0  0  0  0  0  0  0  0
   44.1060   35.4600   42.4780 C   0  0  0  0  0  0  0  0  0  0  0  0
   43.2950   35.6060   41.3360 C   0  0  0  0  0  0  0  0  0  0  0  0
   43.2200   34.5030   40.4920 C   0  0  0  0  0  0  0  0  0  0  0  0
   43.9150   33.3730   40.8070 N   0  0  0  0  0  0  0  0  0  0  0  0
   44.6730   33.2940   41.9110 C   0  0  0  0  0  0  0  0  0  0  0  0
   44.7710   34.3210   42.7400 N   0  0  0  0  0  0  0  0  0  0  0  0
   44.7310   30.9172   40.7973 H   0  0  0  0  0  0  0  0  0  0  0  0
   47.5070   30.2307   42.1265 H   0  0  0  0  0  0  0  0  0  0  0  0
   47.1756   29.2342   40.9656 H   0  0  0  0  0  0  0  0  0  0  0  0
   47.3639   31.7937   39.3220 H   0  0  0  0  0  0  0  0  0  0  0  0
   48.7110   31.0197   42.2670 H   0  0  0  0  0  0  0  0  0  0  0  0
   50.1568   32.6418   43.4732 H   0  0  0  0  0  0  0  0  0  0  0  0
   50.2822   36.2567   42.7353 H   0  0  0  0  0  0  0  0  0  0  0  0
   50.9277   34.9520   43.7667 H   0  0  0  0  0  0  0  0  0  0  0  0
   44.1984   36.3039   43.1774 H   0  0  0  0  0  0  0  0  0  0  0  0
   42.7520   36.5388   41.1237 H   0  0  0  0  0  0  0  0  0  0  0  0
   42.6064   34.5419   39.5799 H   0  0  0  0  0  0  0  0  0  0  0  0
  1  2  1  0
  1 12  1  0
  3  4  1  0
  3  1  1  0
  3  2  1  0
  4  5  1  0
  5  6  2  0
  7  6  1  0
  7  8  1  0
  9  7  2  0
 10  4  1  0
 10  9  1  0
 11 10  2  0
 12 13  2  0
 14 19  2  0
 15 14  1  0
 16 17  1  0
 16 15  2  0
 17 18  2  0
 18 12  1  0
 18 19  1  0
  1 20  1  6
  2 21  1  0
  2 22  1  0
  3 23  1  6
  5 24  1  0
  6 25  1  0
  8 26  1  0
  8 27  1  0
 14 28  1  0
 15 29  1  0
 16 30  1  0
M  ISO  8  20  13  21  13  22  13  23  13  24  14  25  14  28  14  29  14
M  ISO  1  30  14
M  END
>  <minimizedAffinity>  (1) 
-4.19228792

>  <minimizedRMSD>  (1) 
7.21295309

$$$$
