
     RDKit          3D

 22 23  0  0  1  0  0  0  0  0999 V2000
   45.5150   32.8220   46.5240 C   0  0  0  0  0  0  0  0  0  0  0  0
   45.0710   32.9770   47.6950 O   0  0  0  0  0  0  0  0  0  0  0  0
   44.6630   35.8940   44.7460 C   0  0  0  0  0  0  0  0  0  0  0  0
   45.3960   35.7960   43.5500 C   0  0  0  0  0  0  0  0  0  0  0  0
   46.1680   34.6530   43.3970 C   0  0  0  0  0  0  0  0  0  0  0  0
   46.1660   33.7290   44.3850 N   0  0  0  0  0  0  0  0  0  0  0  0
   45.4530   33.8620   45.5100 C   0  0  0  0  0  0  0  0  0  0  0  0
   44.7060   34.9370   45.6900 N   0  0  0  0  0  0  0  0  0  0  0  0
   46.1240   31.4930   46.2260 C   0  0  2  0  0  0  0  0  0  0  0  0
   46.0310   30.3790   47.1660 C   0  0  0  0  0  0  0  0  0  0  0  0
   47.3340   31.1070   47.0780 C   0  0  2  0  0  0  0  0  0  0  0  0
   47.7550   31.8850   48.2650 C   0  0  0  0  0  0  0  0  0  0  0  0
   48.9800   31.3440   48.6900 F   0  0  0  0  0  0  0  0  0  0  0  0
   47.9670   33.2210   48.0640 F   0  0  0  0  0  0  0  0  0  0  0  0
   46.9260   31.6880   49.3770 F   0  0  0  0  0  0  0  0  0  0  0  0
   44.0348   36.7811   44.9148 H   0  0  0  0  0  0  0  0  0  0  0  0
   45.3596   36.5805   42.7797 H   0  0  0  0  0  0  0  0  0  0  0  0
   46.7704   34.5012   42.4892 H   0  0  0  0  0  0  0  0  0  0  0  0
   45.8804   31.5879   45.1575 H   0  0  0  0  0  0  0  0  0  0  0  0
   45.4117   30.4804   48.0694 H   0  0  0  0  0  0  0  0  0  0  0  0
   45.7381   29.3228   47.0725 H   0  0  0  0  0  0  0  0  0  0  0  0
   48.3861   30.8848   46.8462 H   0  0  0  0  0  0  0  0  0  0  0  0
  1  2  2  0
  3  8  2  0
  4  3  1  0
  5  4  2  0
  5  6  1  0
  6  7  2  0
  7  8  1  0
  7  1  1  0
  9  1  1  0
  9 11  1  0
  9 10  1  0
 11 10  1  0
 11 12  1  0
 12 13  1  0
 12 15  1  0
 14 12  1  0
  3 16  1  0
  4 17  1  0
  5 18  1  0
  9 19  1  6
 10 20  1  0
 10 21  1  0
 11 22  1  6
M  ISO  7  16  14  17  14  18  14  19  13  20  13  21  13  22  13
M  END
>  <minimizedAffinity>  (1) 
-4.35250425

>  <minimizedRMSD>  (1) 
1.16703844

$$$$
