
     RDKit          3D

 22 23  0  0  1  0  0  0  0  0999 V2000
   45.4720   33.0070   46.5470 C   0  0  0  0  0  0  0  0  0  0  0  0
   45.0100   33.2560   47.6950 O   0  0  0  0  0  0  0  0  0  0  0  0
   44.6780   35.9610   44.5450 C   0  0  0  0  0  0  0  0  0  0  0  0
   45.4590   35.7830   43.3890 C   0  0  0  0  0  0  0  0  0  0  0  0
   46.2410   34.6380   43.3460 C   0  0  0  0  0  0  0  0  0  0  0  0
   46.2130   33.7670   44.3960 N   0  0  0  0  0  0  0  0  0  0  0  0
   45.4490   33.9780   45.4830 C   0  0  0  0  0  0  0  0  0  0  0  0
   44.6930   35.0680   45.5450 N   0  0  0  0  0  0  0  0  0  0  0  0
   46.0440   31.6470   46.3580 C   0  0  2  0  0  0  0  0  0  0  0  0
   46.0390   30.6550   47.4360 C   0  0  0  0  0  0  0  0  0  0  0  0
   47.3260   31.3600   47.1840 C   0  0  2  0  0  0  0  0  0  0  0  0
   47.7200   32.4420   48.1590 C   0  0  0  0  0  0  0  0  0  0  0  0
   44.0403   36.8532   44.6307 H   0  0  0  0  0  0  0  0  0  0  0  0
   45.4502   36.5113   42.5647 H   0  0  0  0  0  0  0  0  0  0  0  0
   46.8782   34.4340   42.4729 H   0  0  0  0  0  0  0  0  0  0  0  0
   45.7146   31.6077   45.3092 H   0  0  0  0  0  0  0  0  0  0  0  0
   45.4803   30.8640   48.3602 H   0  0  0  0  0  0  0  0  0  0  0  0
   45.7542   29.5938   47.4874 H   0  0  0  0  0  0  0  0  0  0  0  0
   48.3612   31.0496   46.9789 H   0  0  0  0  0  0  0  0  0  0  0  0
   47.5864   32.0752   49.1874 H   0  0  0  0  0  0  0  0  0  0  0  0
   48.7743   32.7125   48.0002 H   0  0  0  0  0  0  0  0  0  0  0  0
   47.0865   33.3271   48.0002 H   0  0  0  0  0  0  0  0  0  0  0  0
  1  2  2  0
  3  8  2  0
  4  3  1  0
  5  4  2  0
  5  6  1  0
  6  7  2  0
  7  8  1  0
  7  1  1  0
  9  1  1  0
  9 11  1  0
  9 10  1  0
 11 10  1  0
 11 12  1  0
  3 13  1  0
  4 14  1  0
  5 15  1  0
  9 16  1  6
 10 17  1  0
 10 18  1  0
 11 19  1  6
 12 20  1  0
 12 21  1  0
 12 22  1  0
M  ISO  8  13  14  14  14  15  14  16  13  17  13  18  13  19  13  20   8
M  ISO  2  21   8  22   8
M  END
>  <minimizedAffinity>  (1) 
-3.88053155

>  <minimizedRMSD>  (1) 
0.739036024

$$$$
