
     RDKit          3D

 28 29  0  0  1  0  0  0  0  0999 V2000
   45.5930   33.1240   46.4890 C   0  0  0  0  0  0  0  0  0  0  0  0
   45.0310   33.2590   47.6060 O   0  0  0  0  0  0  0  0  0  0  0  0
   44.5910   36.0350   44.5390 C   0  0  0  0  0  0  0  0  0  0  0  0
   45.3040   35.8950   43.3330 C   0  0  0  0  0  0  0  0  0  0  0  0
   46.1170   34.7760   43.2290 C   0  0  0  0  0  0  0  0  0  0  0  0
   46.1550   33.9290   44.2790 N   0  0  0  0  0  0  0  0  0  0  0  0
   45.4610   34.0910   45.4200 C   0  0  0  0  0  0  0  0  0  0  0  0
   44.6620   35.1650   45.5530 N   0  0  0  0  0  0  0  0  0  0  0  0
   46.4280   31.8940   46.3070 C   0  0  2  0  0  0  0  0  0  0  0  0
   45.8690   30.5590   46.4870 C   0  0  0  0  0  0  0  0  0  0  0  0
   46.6590   31.0970   47.6270 C   0  0  1  0  0  0  0  0  0  0  0  0
   48.0730   30.7350   47.8650 C   0  0  0  0  0  0  0  0  0  0  0  0
   48.3290   29.2400   47.8290 C   0  0  0  0  0  0  0  0  0  0  0  0
   48.5730   31.2910   49.1590 C   0  0  0  0  0  0  0  0  0  0  0  0
   43.9367   36.9117   44.6544 H   0  0  0  0  0  0  0  0  0  0  0  0
   45.2210   36.6310   42.5197 H   0  0  0  0  0  0  0  0  0  0  0  0
   46.7101   34.5856   42.3223 H   0  0  0  0  0  0  0  0  0  0  0  0
   47.0177   32.3443   45.4949 H   0  0  0  0  0  0  0  0  0  0  0  0
   44.7807   30.4404   46.5939 H   0  0  0  0  0  0  0  0  0  0  0  0
   45.9286   29.6309   45.8995 H   0  0  0  0  0  0  0  0  0  0  0  0
   46.4533   31.1677   48.7053 H   0  0  0  0  0  0  0  0  0  0  0  0
   48.6282   31.1869   47.0298 H   0  0  0  0  0  0  0  0  0  0  0  0
   48.3950   28.8544   48.8571 H   0  0  0  0  0  0  0  0  0  0  0  0
   47.5035   28.7392   47.3019 H   0  0  0  0  0  0  0  0  0  0  0  0
   49.2741   29.0424   47.3019 H   0  0  0  0  0  0  0  0  0  0  0  0
   48.0952   30.7597   49.9954 H   0  0  0  0  0  0  0  0  0  0  0  0
   49.6637   31.1607   49.2170 H   0  0  0  0  0  0  0  0  0  0  0  0
   48.3281   32.3618   49.2170 H   0  0  0  0  0  0  0  0  0  0  0  0
  1  2  2  0
  3  8  2  0
  4  3  1  0
  5  4  2  0
  5  6  1  0
  6  7  2  0
  7  8  1  0
  7  1  1  0
  9 10  1  0
  9  1  1  0
  9 11  1  0
 10 11  1  0
 11 12  1  0
 12 14  1  0
 13 12  1  0
  3 15  1  0
  4 16  1  0
  5 17  1  0
  9 18  1  6
 10 19  1  0
 10 20  1  0
 11 21  1  1
 12 22  1  0
 13 23  1  0
 13 24  1  0
 13 25  1  0
 14 26  1  0
 14 27  1  0
 14 28  1  0
M  ISO  8  15  14  16  14  17  14  18  13  19  13  20  13  21  13  22   8
M  ISO  6  23   8  24   8  25   8  26   8  27   8  28   8
M  END
>  <minimizedAffinity>  (1) 
-4.31463194

>  <minimizedRMSD>  (1) 
1.27067089

$$$$
