
     RDKit          3D

 35 37  0  0  1  0  0  0  0  0999 V2000
   46.9600   32.1190   46.0480 C   0  0  2  0  0  0  0  0  0  0  0  0
   46.5990   30.7770   45.5260 C   0  0  0  0  0  0  0  0  0  0  0  0
   46.8790   30.9020   46.9800 C   0  0  1  0  0  0  0  0  0  0  0  0
   45.8740   33.1450   46.2590 C   0  0  0  0  0  0  0  0  0  0  0  0
   45.2390   33.0560   47.3560 O   0  0  0  0  0  0  0  0  0  0  0  0
   44.5010   36.0290   44.5240 C   0  0  0  0  0  0  0  0  0  0  0  0
   45.1320   36.0020   43.2760 C   0  0  0  0  0  0  0  0  0  0  0  0
   46.0290   34.9750   43.0680 C   0  0  0  0  0  0  0  0  0  0  0  0
   46.2240   34.0900   44.0690 N   0  0  0  0  0  0  0  0  0  0  0  0
   45.6050   34.1420   45.2520 C   0  0  0  0  0  0  0  0  0  0  0  0
   44.7250   35.1270   45.4910 N   0  0  0  0  0  0  0  0  0  0  0  0
   48.1350   30.5340   47.6360 C   0  0  2  0  0  0  0  0  0  0  0  0
   48.5550   29.1060   47.3500 C   0  0  0  0  0  0  0  0  0  0  0  0
   48.0510   30.7340   49.1230 C   0  0  0  0  0  0  0  0  0  0  0  0
   49.3490   31.1340   49.7220 C   0  0  0  0  0  0  0  0  0  0  0  0
   49.8620   30.2140   50.6360 C   0  0  0  0  0  0  0  0  0  0  0  0
   51.0640   30.7330   51.0980 C   0  0  0  0  0  0  0  0  0  0  0  0
   51.2540   31.8960   50.4910 N   0  0  0  0  0  0  0  0  0  0  0  0
   50.2440   32.1350   49.6790 N   0  0  0  0  0  0  0  0  0  0  0  0
   47.7095   32.8694   45.7562 H   0  0  0  0  0  0  0  0  0  0  0  0
   45.5711   30.5848   45.1848 H   0  0  0  0  0  0  0  0  0  0  0  0
   46.9946   30.1371   44.7235 H   0  0  0  0  0  0  0  0  0  0  0  0
   46.3207   30.5485   47.8594 H   0  0  0  0  0  0  0  0  0  0  0  0
   43.7803   36.8356   44.7237 H   0  0  0  0  0  0  0  0  0  0  0  0
   44.9245   36.7574   42.5037 H   0  0  0  0  0  0  0  0  0  0  0  0
   46.5696   34.8798   42.1147 H   0  0  0  0  0  0  0  0  0  0  0  0
   48.8988   31.2030   47.2128 H   0  0  0  0  0  0  0  0  0  0  0  0
   48.7118   28.5728   48.2993 H   0  0  0  0  0  0  0  0  0  0  0  0
   47.7673   28.6010   46.7716 H   0  0  0  0  0  0  0  0  0  0  0  0
   49.4906   29.1078   46.7716 H   0  0  0  0  0  0  0  0  0  0  0  0
   47.3104   31.5203   49.3309 H   0  0  0  0  0  0  0  0  0  0  0  0
   47.7607   29.7724   49.5715 H   0  0  0  0  0  0  0  0  0  0  0  0
   49.4024   29.2600   50.9338 H   0  0  0  0  0  0  0  0  0  0  0  0
   51.7355   30.2650   51.8329 H   0  0  0  0  0  0  0  0  0  0  0  0
   52.0644   32.5159   50.6320 H   0  0  0  0  0  0  0  0  0  0  0  0
  1  4  1  0
  1  3  1  0
  2  1  1  0
  2  3  1  0
  3 12  1  0
  4  5  2  0
  6 11  2  0
  7  6  1  0
  8  7  2  0
  8  9  1  0
  9 10  2  0
 10 11  1  0
 10  4  1  0
 12 14  1  0
 13 12  1  0
 14 15  1  0
 15 16  1  0
 16 17  2  0
 18 17  1  0
 19 15  2  0
 19 18  1  0
  1 20  1  6
  2 21  1  0
  2 22  1  0
  3 23  1  1
  6 24  1  0
  7 25  1  0
  8 26  1  0
 12 27  1  6
 13 28  1  0
 13 29  1  0
 13 30  1  0
 14 31  1  0
 14 32  1  0
 16 33  1  0
 17 34  1  0
 18 35  1  0
M  ISO  8  20  13  21  13  22  13  23  13  24  14  25  14  26  14  27   8
M  ISO  8  28   8  29   8  30   8  31   8  32   8  33  14  34  14  35   9
M  END
>  <minimizedAffinity>  (1) 
-5.08040285

>  <minimizedRMSD>  (1) 
1.89416695

$$$$
