
     RDKit          3D

 35 36  0  0  1  0  0  0  0  0999 V2000
   46.7900   32.0450   46.2340 C   0  0  2  0  0  0  0  0  0  0  0  0
   46.3370   30.6590   45.9660 C   0  0  0  0  0  0  0  0  0  0  0  0
   46.7910   30.9900   47.3410 C   0  0  1  0  0  0  0  0  0  0  0  0
   45.7730   33.1400   46.4190 C   0  0  0  0  0  0  0  0  0  0  0  0
   45.1430   33.1310   47.5030 O   0  0  0  0  0  0  0  0  0  0  0  0
   44.5150   36.0110   44.5580 C   0  0  0  0  0  0  0  0  0  0  0  0
   45.1900   35.9180   43.3120 C   0  0  0  0  0  0  0  0  0  0  0  0
   46.0660   34.8680   43.1630 C   0  0  0  0  0  0  0  0  0  0  0  0
   46.2170   34.0140   44.1990 N   0  0  0  0  0  0  0  0  0  0  0  0
   45.5590   34.1230   45.3810 C   0  0  0  0  0  0  0  0  0  0  0  0
   44.7070   35.1370   45.5380 N   0  0  0  0  0  0  0  0  0  0  0  0
   48.0930   30.6710   47.9160 C   0  0  2  0  0  0  0  0  0  0  0  0
   48.4930   29.2090   47.7120 C   0  0  0  0  0  0  0  0  0  0  0  0
   48.2200   31.0070   49.3460 C   0  0  0  0  0  0  0  0  0  0  0  0
   49.5060   31.3560   49.8530 N   0  0  0  0  0  0  0  0  0  0  0  0
   50.2640   30.7850   50.8990 C   0  0  0  0  0  0  0  0  0  0  0  0
   50.3020   29.5040   50.7930 N   0  0  0  0  0  0  0  0  0  0  0  0
   50.8960   31.5120   51.9130 N   0  0  0  0  0  0  0  0  0  0  0  0
   50.7820   28.8350   51.4190 H   0  0  0  0  0  0  0  0  0  0  0  0
   47.5153   32.7091   45.7412 H   0  0  0  0  0  0  0  0  0  0  0  0
   45.2714   30.4615   45.7774 H   0  0  0  0  0  0  0  0  0  0  0  0
   46.6180   29.8902   45.2311 H   0  0  0  0  0  0  0  0  0  0  0  0
   46.3328   30.7959   48.3220 H   0  0  0  0  0  0  0  0  0  0  0  0
   43.8070   36.8378   44.7166 H   0  0  0  0  0  0  0  0  0  0  0  0
   45.0209   36.6484   42.5071 H   0  0  0  0  0  0  0  0  0  0  0  0
   46.6273   34.7277   42.2275 H   0  0  0  0  0  0  0  0  0  0  0  0
   48.7842   31.3171   47.3550 H   0  0  0  0  0  0  0  0  0  0  0  0
   48.6254   28.7251   48.6909 H   0  0  0  0  0  0  0  0  0  0  0  0
   47.7043   28.6882   47.1492 H   0  0  0  0  0  0  0  0  0  0  0  0
   49.4370   29.1622   47.1492 H   0  0  0  0  0  0  0  0  0  0  0  0
   47.5528   31.8599   49.5393 H   0  0  0  0  0  0  0  0  0  0  0  0
   47.9723   30.0693   49.8650 H   0  0  0  0  0  0  0  0  0  0  0  0
   49.9548   32.1534   49.3800 H   0  0  0  0  0  0  0  0  0  0  0  0
   51.4319   31.0200   52.6421 H   0  0  0  0  0  0  0  0  0  0  0  0
   50.8255   32.5394   51.9306 H   0  0  0  0  0  0  0  0  0  0  0  0
  1  4  1  0
  1  3  1  0
  2  1  1  0
  2  3  1  0
  3 12  1  0
  4  5  2  0
  6 11  2  0
  7  6  1  0
  8  7  2  0
  8  9  1  0
  9 10  2  0
 10 11  1  0
 10  4  1  0
 12 14  1  0
 13 12  1  0
 14 15  1  0
 15 16  1  0
 16 18  1  0
 17 16  2  0
 17 19  1  0
  1 20  1  6
  2 21  1  0
  2 22  1  0
  3 23  1  1
  6 24  1  0
  7 25  1  0
  8 26  1  0
 12 27  1  6
 13 28  1  0
 13 29  1  0
 13 30  1  0
 14 31  1  0
 14 32  1  0
 15 33  1  0
 18 34  1  0
 18 35  1  0
M  ISO  8  20  13  21  13  22  13  23  13  24  14  25  14  26  14  27   8
M  ISO  5  28   8  29   8  30   8  31   8  32   8
M  END
>  <minimizedAffinity>  (1) 
-5.10675049

>  <minimizedRMSD>  (1) 
2.13366008

$$$$
