
     RDKit          3D

 30 31  0  0  1  0  0  0  0  0999 V2000
   46.9640   32.1500   46.1490 C   0  0  2  0  0  0  0  0  0  0  0  0
   46.6680   30.8370   45.5270 C   0  0  0  0  0  0  0  0  0  0  0  0
   46.8250   30.8840   47.0030 C   0  0  1  0  0  0  0  0  0  0  0  0
   45.8500   33.1520   46.3240 C   0  0  0  0  0  0  0  0  0  0  0  0
   45.1840   33.0550   47.4000 O   0  0  0  0  0  0  0  0  0  0  0  0
   44.4910   36.0210   44.5490 C   0  0  0  0  0  0  0  0  0  0  0  0
   45.1210   35.9800   43.3010 C   0  0  0  0  0  0  0  0  0  0  0  0
   46.0220   34.9420   43.1080 C   0  0  0  0  0  0  0  0  0  0  0  0
   46.2100   34.0720   44.1230 N   0  0  0  0  0  0  0  0  0  0  0  0
   45.5900   34.1410   45.3030 C   0  0  0  0  0  0  0  0  0  0  0  0
   44.7040   35.1380   45.5340 N   0  0  0  0  0  0  0  0  0  0  0  0
   48.0260   30.4990   47.7460 C   0  0  2  0  0  0  0  0  0  0  0  0
   48.3210   29.0090   47.6450 C   0  0  0  0  0  0  0  0  0  0  0  0
   47.8930   30.8680   49.2020 C   0  0  0  0  0  0  0  0  0  0  0  0
   46.4930   31.0410   49.5430 N   0  0  0  0  0  0  0  0  0  0  0  0
   47.7237   32.9232   45.9618 H   0  0  0  0  0  0  0  0  0  0  0  0
   45.6748   30.6532   45.0914 H   0  0  0  0  0  0  0  0  0  0  0  0
   47.1381   30.2469   44.7266 H   0  0  0  0  0  0  0  0  0  0  0  0
   46.2015   30.4730   47.8106 H   0  0  0  0  0  0  0  0  0  0  0  0
   43.7723   36.8328   44.7344 H   0  0  0  0  0  0  0  0  0  0  0  0
   44.9148   36.7258   42.5192 H   0  0  0  0  0  0  0  0  0  0  0  0
   46.5656   34.8318   42.1581 H   0  0  0  0  0  0  0  0  0  0  0  0
   48.8613   31.0494   47.2884 H   0  0  0  0  0  0  0  0  0  0  0  0
   48.4054   28.5826   48.6555 H   0  0  0  0  0  0  0  0  0  0  0  0
   47.5043   28.5094   47.1033 H   0  0  0  0  0  0  0  0  0  0  0  0
   49.2664   28.8583   47.1033 H   0  0  0  0  0  0  0  0  0  0  0  0
   48.3229   30.0673   49.8217 H   0  0  0  0  0  0  0  0  0  0  0  0
   48.4293   31.8105   49.3867 H   0  0  0  0  0  0  0  0  0  0  0  0
   46.3883   31.0539   50.5676 H   0  0  0  0  0  0  0  0  0  0  0  0
   46.1517   31.9306   49.1517 H   0  0  0  0  0  0  0  0  0  0  0  0
  1  4  1  0
  1  3  1  0
  2  1  1  0
  2  3  1  0
  3 12  1  0
  4  5  2  0
  6 11  2  0
  7  6  1  0
  8  7  2  0
  8  9  1  0
  9 10  2  0
 10 11  1  0
 10  4  1  0
 12 14  1  0
 13 12  1  0
 14 15  1  0
  1 16  1  6
  2 17  1  0
  2 18  1  0
  3 19  1  1
  6 20  1  0
  7 21  1  0
  8 22  1  0
 12 23  1  6
 13 24  1  0
 13 25  1  0
 13 26  1  0
 14 27  1  0
 14 28  1  0
 15 29  1  0
 15 30  1  0
M  ISO  8  16  13  17  13  18  13  19  13  20  14  21  14  22  14  23   8
M  ISO  7  24   8  25   8  26   8  27   8  28   8  29   5  30   5
M  END
>  <minimizedAffinity>  (1) 
-4.63109255

>  <minimizedRMSD>  (1) 
0.839014053

$$$$
