
     RDKit          3D

 38 40  0  0  1  0  0  0  0  0999 V2000
   46.4830   31.2120   46.9100 C   0  0  2  0  0  0  0  0  0  0  0  0
   47.2080   32.3960   47.4330 C   0  0  0  0  0  0  0  0  0  0  0  0
   45.9710   32.6330   46.6420 C   0  0  1  0  0  0  0  0  0  0  0  0
   45.6200   30.3970   47.8420 C   0  0  0  0  0  0  0  0  0  0  0  0
   45.5530   30.8180   49.0370 O   0  0  0  0  0  0  0  0  0  0  0  0
   44.4140   26.9800   47.5360 C   0  0  0  0  0  0  0  0  0  0  0  0
   43.6380   27.0020   46.3720 C   0  0  0  0  0  0  0  0  0  0  0  0
   43.5480   28.2170   45.7160 C   0  0  0  0  0  0  0  0  0  0  0  0
   44.2060   29.2690   46.2440 N   0  0  0  0  0  0  0  0  0  0  0  0
   44.9410   29.2220   47.3580 C   0  0  0  0  0  0  0  0  0  0  0  0
   45.0560   28.0530   48.0310 N   0  0  0  0  0  0  0  0  0  0  0  0
   45.9250   33.0330   45.2360 C   0  0  2  0  0  0  0  0  0  0  0  0
   47.2900   33.0950   44.5910 C   0  0  0  0  0  0  0  0  0  0  0  0
   45.2290   34.3390   45.0410 C   0  0  0  0  0  0  0  0  0  0  0  0
   44.7940   34.6000   43.6480 C   0  0  0  0  0  0  0  0  0  0  0  0
   44.6010   35.7950   42.9930 C   0  0  0  0  0  0  0  0  0  0  0  0
   44.1830   35.8300   41.6870 C   0  0  0  0  0  0  0  0  0  0  0  0
   43.9290   34.6970   40.9480 C   0  0  0  0  0  0  0  0  0  0  0  0
   44.1130   33.4960   41.5700 C   0  0  0  0  0  0  0  0  0  0  0  0
   44.5280   33.4660   42.8670 C   0  0  0  0  0  0  0  0  0  0  0  0
   46.7916   30.3355   46.3214 H   0  0  0  0  0  0  0  0  0  0  0  0
   47.2095   32.5990   48.5141 H   0  0  0  0  0  0  0  0  0  0  0  0
   48.2455   32.7532   47.3556 H   0  0  0  0  0  0  0  0  0  0  0  0
   45.0913   33.2631   46.8397 H   0  0  0  0  0  0  0  0  0  0  0  0
   44.5044   26.0276   48.0790 H   0  0  0  0  0  0  0  0  0  0  0  0
   43.1272   26.1022   45.9986 H   0  0  0  0  0  0  0  0  0  0  0  0
   42.9585   28.3214   44.7932 H   0  0  0  0  0  0  0  0  0  0  0  0
   45.3471   32.2406   44.7379 H   0  0  0  0  0  0  0  0  0  0  0  0
   48.0635   33.1301   45.3723 H   0  0  0  0  0  0  0  0  0  0  0  0
   47.4409   32.2028   43.9656 H   0  0  0  0  0  0  0  0  0  0  0  0
   47.3594   33.9972   43.9656 H   0  0  0  0  0  0  0  0  0  0  0  0
   44.3393   34.3545   45.6877 H   0  0  0  0  0  0  0  0  0  0  0  0
   45.9574   35.1234   45.2942 H   0  0  0  0  0  0  0  0  0  0  0  0
   44.7853   36.7391   43.5265 H   0  0  0  0  0  0  0  0  0  0  0  0
   44.0442   36.8102   41.2075 H   0  0  0  0  0  0  0  0  0  0  0  0
   43.5926   34.7567   39.9024 H   0  0  0  0  0  0  0  0  0  0  0  0
   43.9272   32.5576   41.0269 H   0  0  0  0  0  0  0  0  0  0  0  0
   44.6644   32.4804   43.3360 H   0  0  0  0  0  0  0  0  0  0  0  0
  1  2  1  0
  1  4  1  0
  3  1  1  0
  3  2  1  0
  4  5  2  0
  6 11  2  0
  7  6  1  0
  8  9  1  0
  8  7  2  0
  9 10  2  0
 10  4  1  0
 10 11  1  0
 12  3  1  0
 13 12  1  0
 14 12  1  0
 15 14  1  0
 16 15  2  0
 17 16  1  0
 18 19  1  0
 18 17  2  0
 19 20  2  0
 20 15  1  0
  1 21  1  6
  2 22  1  0
  2 23  1  0
  3 24  1  1
  6 25  1  0
  7 26  1  0
  8 27  1  0
 12 28  1  6
 13 29  1  0
 13 30  1  0
 13 31  1  0
 14 32  1  0
 14 33  1  0
 16 34  1  0
 17 35  1  0
 18 36  1  0
 19 37  1  0
 20 38  1  0
M  ISO  8  21  13  22  13  23  13  24  13  25  14  26  14  27  14  28   8
M  ISO  8  29   8  30   8  31   8  32   8  33   8  34  14  35  14  36  14
M  ISO  2  37  14  38  14
M  END
>  <minimizedAffinity>  (1) 
-4.59234285

>  <minimizedRMSD>  (1) 
6.6183486

$$$$
