
     RDKit          3D

 41 43  0  0  1  0  0  0  0  0999 V2000
   51.4420   29.6030   49.3900 C   0  0  2  0  0  0  0  0  0  0  0  0
   49.2470   30.8030   49.7550 C   0  0  2  0  0  0  0  0  0  0  0  0
   50.2500   31.7820   50.2370 C   0  0  0  0  0  0  0  0  0  0  0  0
   50.6660   30.8210   49.1770 C   0  0  1  0  0  0  0  0  0  0  0  0
   48.1730   31.2560   48.7970 C   0  0  0  0  0  0  0  0  0  0  0  0
   48.1860   32.4900   48.5030 O   0  0  0  0  0  0  0  0  0  0  0  0
   45.0510   29.6450   47.8600 C   0  0  0  0  0  0  0  0  0  0  0  0
   45.4510   28.4560   47.2430 C   0  0  0  0  0  0  0  0  0  0  0  0
   46.8220   28.2420   47.1610 C   0  0  0  0  0  0  0  0  0  0  0  0
   47.6330   29.1900   47.6760 N   0  0  0  0  0  0  0  0  0  0  0  0
   47.2060   30.3310   48.2680 C   0  0  0  0  0  0  0  0  0  0  0  0
   45.8930   30.5570   48.3580 N   0  0  0  0  0  0  0  0  0  0  0  0
   51.8220   29.3980   50.8450 C   0  0  0  0  0  0  0  0  0  0  0  0
   52.6970   29.5830   48.5840 C   0  0  0  0  0  0  0  0  0  0  0  0
   52.5610   29.5610   47.1630 N   0  0  0  0  0  0  0  0  0  0  0  0
   51.7450   28.8470   46.3700 C   0  0  0  0  0  0  0  0  0  0  0  0
   51.7590   28.9720   44.9970 C   0  0  0  0  0  0  0  0  0  0  0  0
   50.8310   28.1510   44.1920 C   0  0  0  0  0  0  0  0  0  0  0  0
   52.6150   29.8400   44.3630 C   0  0  0  0  0  0  0  0  0  0  0  0
   52.6720   29.9950   43.1180 O   0  0  0  0  0  0  0  0  0  0  0  0
   53.4180   30.5390   45.1850 N   0  0  0  0  0  0  0  0  0  0  0  0
   53.4110   30.4230   46.5290 C   0  0  0  0  0  0  0  0  0  0  0  0
   54.2470   31.1720   47.1390 O   0  0  0  0  0  0  0  0  0  0  0  0
   50.7770   28.7887   49.0665 H   0  0  0  0  0  0  0  0  0  0  0  0
   48.5880   30.0836   50.2631 H   0  0  0  0  0  0  0  0  0  0  0  0
   50.1329   32.8475   49.9900 H   0  0  0  0  0  0  0  0  0  0  0  0
   50.6462   32.0468   51.2284 H   0  0  0  0  0  0  0  0  0  0  0  0
   51.1876   30.9767   48.2211 H   0  0  0  0  0  0  0  0  0  0  0  0
   43.9721   29.8436   47.9413 H   0  0  0  0  0  0  0  0  0  0  0  0
   44.7237   27.7325   46.8459 H   0  0  0  0  0  0  0  0  0  0  0  0
   47.2307   27.3339   46.6938 H   0  0  0  0  0  0  0  0  0  0  0  0
   51.0388   29.8205   51.4916 H   0  0  0  0  0  0  0  0  0  0  0  0
   51.9249   28.3220   51.0490 H   0  0  0  0  0  0  0  0  0  0  0  0
   52.7778   29.9029   51.0490 H   0  0  0  0  0  0  0  0  0  0  0  0
   53.2733   30.4822   48.8471 H   0  0  0  0  0  0  0  0  0  0  0  0
   53.1804   28.6278   48.8368 H   0  0  0  0  0  0  0  0  0  0  0  0
   51.0417   28.1384   46.8318 H   0  0  0  0  0  0  0  0  0  0  0  0
   50.1775   27.5729   44.8619 H   0  0  0  0  0  0  0  0  0  0  0  0
   50.2172   28.8071   43.5574 H   0  0  0  0  0  0  0  0  0  0  0  0
   51.4074   27.4618   43.5574 H   0  0  0  0  0  0  0  0  0  0  0  0
   54.0800   31.2048   44.7616 H   0  0  0  0  0  0  0  0  0  0  0  0
  1 13  1  0
  2  3  1  0
  4  1  1  0
  4  2  1  0
  4  3  1  0
  5  2  1  0
  6  5  2  0
  7 12  2  0
  8  7  1  0
  9  8  2  0
  9 10  1  0
 10 11  2  0
 11 12  1  0
 11  5  1  0
 14  1  1  0
 15 14  1  0
 16 15  1  0
 17 16  2  0
 18 17  1  0
 19 17  1  0
 19 21  1  0
 20 19  2  0
 21 22  1  0
 22 23  2  0
 22 15  1  0
  1 24  1  6
  2 25  1  1
  3 26  1  0
  3 27  1  0
  4 28  1  6
  7 29  1  0
  8 30  1  0
  9 31  1  0
 13 32  1  0
 13 33  1  0
 13 34  1  0
 14 35  1  0
 14 36  1  0
 16 37  1  0
 18 38  1  0
 18 39  1  0
 18 40  1  0
 21 41  1  0
M  ISO  8  24   8  25  13  26  13  27  13  28  13  29  14  30  14  31  14
M  ISO  8  32   8  33   8  34   8  35   8  36   8  37  14  38   8  39   8
M  ISO  2  40   8  41   9
M  END
>  <minimizedAffinity>  (1) 
-3.86586452

>  <minimizedRMSD>  (1) 
6.75127077

$$$$
