
     RDKit          3D

 29 30  0  0  1  0  0  0  0  0999 V2000
   46.9790   31.8720   45.4800 C   0  0  2  0  0  0  0  0  0  0  0  0
   46.3970   30.6800   44.8200 C   0  0  0  0  0  0  0  0  0  0  0  0
   46.8670   30.5330   46.2210 C   0  0  1  0  0  0  0  0  0  0  0  0
   46.0620   32.9550   45.9910 C   0  0  0  0  0  0  0  0  0  0  0  0
   45.6630   32.8180   47.1870 O   0  0  0  0  0  0  0  0  0  0  0  0
   44.4810   35.9740   44.7380 C   0  0  0  0  0  0  0  0  0  0  0  0
   45.0130   36.1200   43.4450 C   0  0  0  0  0  0  0  0  0  0  0  0
   45.9130   35.1610   43.0410 C   0  0  0  0  0  0  0  0  0  0  0  0
   46.2110   34.1690   43.9090 N   0  0  0  0  0  0  0  0  0  0  0  0
   45.6880   34.0550   45.1330 C   0  0  0  0  0  0  0  0  0  0  0  0
   44.7990   34.9810   45.5630 N   0  0  0  0  0  0  0  0  0  0  0  0
   48.1410   29.9410   46.6350 C   0  0  2  0  0  0  0  0  0  0  0  0
   48.4430   28.6320   45.9220 C   0  0  0  0  0  0  0  0  0  0  0  0
   48.1690   29.7070   48.1220 C   0  0  0  0  0  0  0  0  0  0  0  0
   48.5140   31.2720   48.9650 S   0  0  0  0  0  0  0  0  0  0  0  0
   47.7727   32.5810   45.2019 H   0  0  0  0  0  0  0  0  0  0  0  0
   45.3191   30.6511   44.6024 H   0  0  0  0  0  0  0  0  0  0  0  0
   46.6100   30.1454   43.8826 H   0  0  0  0  0  0  0  0  0  0  0  0
   46.3825   30.0941   47.1056 H   0  0  0  0  0  0  0  0  0  0  0  0
   43.7586   36.7261   45.0881 H   0  0  0  0  0  0  0  0  0  0  0  0
   44.7251   36.9564   42.7911 H   0  0  0  0  0  0  0  0  0  0  0  0
   46.3751   35.2004   42.0436 H   0  0  0  0  0  0  0  0  0  0  0  0
   48.9169   30.6684   46.3542 H   0  0  0  0  0  0  0  0  0  0  0  0
   48.6251   27.8427   46.6662 H   0  0  0  0  0  0  0  0  0  0  0  0
   47.5860   28.3514   45.2921 H   0  0  0  0  0  0  0  0  0  0  0  0
   49.3363   28.7552   45.2921 H   0  0  0  0  0  0  0  0  0  0  0  0
   47.1940   29.3187   48.4517 H   0  0  0  0  0  0  0  0  0  0  0  0
   48.9531   28.9752   48.3661 H   0  0  0  0  0  0  0  0  0  0  0  0
   48.4716   31.0795   50.3207 H   0  0  0  0  0  0  0  0  0  0  0  0
  1  4  1  0
  1  3  1  0
  2  1  1  0
  2  3  1  0
  3 12  1  0
  4  5  2  0
  6 11  2  0
  7  6  1  0
  8  7  2  0
  8  9  1  0
  9 10  2  0
 10 11  1  0
 10  4  1  0
 12 14  1  0
 13 12  1  0
 14 15  1  0
  1 16  1  6
  2 17  1  0
  2 18  1  0
  3 19  1  1
  6 20  1  0
  7 21  1  0
  8 22  1  0
 12 23  1  1
 13 24  1  0
 13 25  1  0
 13 26  1  0
 14 27  1  0
 14 28  1  0
 15 29  1  0
M  ISO  8  16  13  17  13  18  13  19  13  20  14  21  14  22  14  23   8
M  ISO  6  24   8  25   8  26   8  27   8  28   8  29  11
M  END
>  <minimizedAffinity>  (1) 
-3.94212985

>  <minimizedRMSD>  (1) 
1.2064501

$$$$
