
     RDKit          3D

 36 38  0  0  1  0  0  0  0  0999 V2000
   46.9720   32.1270   46.0500 C   0  0  2  0  0  0  0  0  0  0  0  0
   46.6320   30.7880   45.5150 C   0  0  0  0  0  0  0  0  0  0  0  0
   46.8930   30.9090   46.9760 C   0  0  1  0  0  0  0  0  0  0  0  0
   45.8790   33.1460   46.2580 C   0  0  0  0  0  0  0  0  0  0  0  0
   45.2380   33.0490   47.3480 O   0  0  0  0  0  0  0  0  0  0  0  0
   44.4990   36.0300   44.5220 C   0  0  0  0  0  0  0  0  0  0  0  0
   45.1260   36.0070   43.2730 C   0  0  0  0  0  0  0  0  0  0  0  0
   46.0330   34.9750   43.0640 C   0  0  0  0  0  0  0  0  0  0  0  0
   46.2290   34.0960   44.0670 N   0  0  0  0  0  0  0  0  0  0  0  0
   45.6100   34.1490   45.2510 C   0  0  0  0  0  0  0  0  0  0  0  0
   44.7170   35.1350   45.5060 N   0  0  0  0  0  0  0  0  0  0  0  0
   48.1380   30.5450   47.6500 C   0  0  2  0  0  0  0  0  0  0  0  0
   48.6110   29.1410   47.3280 C   0  0  0  0  0  0  0  0  0  0  0  0
   48.0380   30.6970   49.1300 C   0  0  0  0  0  0  0  0  0  0  0  0
   49.3050   30.8750   49.8470 C   0  0  0  0  0  0  0  0  0  0  0  0
   49.9740   30.0680   50.7380 C   0  0  0  0  0  0  0  0  0  0  0  0
   51.1680   30.4370   51.2880 C   0  0  0  0  0  0  0  0  0  0  0  0
   51.7010   31.6280   50.9420 N   0  0  0  0  0  0  0  0  0  0  0  0
   51.0790   32.4450   50.0740 C   0  0  0  0  0  0  0  0  0  0  0  0
   49.9040   32.0640   49.5440 N   0  0  0  0  0  0  0  0  0  0  0  0
   47.7171   32.8854   45.7676 H   0  0  0  0  0  0  0  0  0  0  0  0
   45.6105   30.5874   45.1595 H   0  0  0  0  0  0  0  0  0  0  0  0
   47.0439   30.1569   44.7137 H   0  0  0  0  0  0  0  0  0  0  0  0
   46.3282   30.5485   47.8484 H   0  0  0  0  0  0  0  0  0  0  0  0
   43.7760   36.8361   44.7158 H   0  0  0  0  0  0  0  0  0  0  0  0
   44.9140   36.7613   42.5009 H   0  0  0  0  0  0  0  0  0  0  0  0
   46.5735   34.8786   42.1108 H   0  0  0  0  0  0  0  0  0  0  0  0
   48.8839   31.2520   47.2578 H   0  0  0  0  0  0  0  0  0  0  0  0
   48.7957   28.5927   48.2636 H   0  0  0  0  0  0  0  0  0  0  0  0
   47.8391   28.6191   46.7434 H   0  0  0  0  0  0  0  0  0  0  0  0
   49.5414   29.1926   46.7434 H   0  0  0  0  0  0  0  0  0  0  0  0
   47.4089   31.5755   49.3360 H   0  0  0  0  0  0  0  0  0  0  0  0
   47.6213   29.7475   49.4972 H   0  0  0  0  0  0  0  0  0  0  0  0
   49.5347   29.0983   51.0151 H   0  0  0  0  0  0  0  0  0  0  0  0
   51.6856   29.7766   51.9993 H   0  0  0  0  0  0  0  0  0  0  0  0
   51.5258   33.4124   49.8012 H   0  0  0  0  0  0  0  0  0  0  0  0
  1  4  1  0
  1  3  1  0
  2  1  1  0
  2  3  1  0
  3 12  1  0
  4  5  2  0
  6 11  2  0
  7  6  1  0
  8  7  2  0
  8  9  1  0
  9 10  2  0
 10 11  1  0
 10  4  1  0
 12 14  1  0
 13 12  1  0
 14 15  1  0
 15 16  2  0
 16 17  1  0
 18 17  2  0
 19 18  1  0
 20 15  1  0
 20 19  2  0
  1 21  1  6
  2 22  1  0
  2 23  1  0
  3 24  1  1
  6 25  1  0
  7 26  1  0
  8 27  1  0
 12 28  1  6
 13 29  1  0
 13 30  1  0
 13 31  1  0
 14 32  1  0
 14 33  1  0
 16 34  1  0
 17 35  1  0
 19 36  1  0
M  ISO  8  21  13  22  13  23  13  24  13  25  14  26  14  27  14  28   8
M  ISO  8  29   8  30   8  31   8  32   8  33   8  34  14  35  14  36  14
M  END
>  <minimizedAffinity>  (1) 
-5.3049798

>  <minimizedRMSD>  (1) 
2.35958314

$$$$
