
     RDKit          3D

 49 52  0  0  1  0  0  0  0  0999 V2000
   48.3160   30.7760   47.8730 C   0  0  2  0  0  0  0  0  0  0  0  0
   46.9950   32.1360   46.2160 C   0  0  2  0  0  0  0  0  0  0  0  0
   46.5830   30.7170   45.8920 C   0  0  0  0  0  0  0  0  0  0  0  0
   47.0240   31.0410   47.2540 C   0  0  1  0  0  0  0  0  0  0  0  0
   45.8690   33.1500   46.3740 C   0  0  0  0  0  0  0  0  0  0  0  0
   45.1960   33.0460   47.4640 O   0  0  0  0  0  0  0  0  0  0  0  0
   44.4980   35.9850   44.5680 C   0  0  0  0  0  0  0  0  0  0  0  0
   45.1390   35.9200   43.3170 C   0  0  0  0  0  0  0  0  0  0  0  0
   46.0490   34.8820   43.1380 C   0  0  0  0  0  0  0  0  0  0  0  0
   46.2410   34.0340   44.1670 N   0  0  0  0  0  0  0  0  0  0  0  0
   45.6080   34.1260   45.3530 C   0  0  0  0  0  0  0  0  0  0  0  0
   44.7160   35.1140   45.5790 N   0  0  0  0  0  0  0  0  0  0  0  0
   48.9590   29.4900   47.3830 C   0  0  0  0  0  0  0  0  0  0  0  0
   48.1990   30.6890   49.3710 C   0  0  0  0  0  0  0  0  0  0  0  0
   49.4660   30.7420   50.0990 C   0  0  0  0  0  0  0  0  0  0  0  0
   50.1080   29.7730   50.8440 C   0  0  0  0  0  0  0  0  0  0  0  0
   51.2970   30.0180   51.4470 C   0  0  0  0  0  0  0  0  0  0  0  0
   51.8560   31.2430   51.3060 N   0  0  0  0  0  0  0  0  0  0  0  0
   51.2580   32.2130   50.5860 C   0  0  0  0  0  0  0  0  0  0  0  0
   50.0780   31.9450   49.9970 N   0  0  0  0  0  0  0  0  0  0  0  0
   51.8940   33.4870   50.4730 N   0  0  0  0  0  0  0  0  0  0  0  0
   51.0780   34.6690   50.3130 C   0  0  0  0  0  0  0  0  0  0  0  0
   51.8160   35.8630   50.8170 C   0  0  0  0  0  0  0  0  0  0  0  0
   52.6510   35.5030   51.8460 O   0  0  0  0  0  0  0  0  0  0  0  0
   53.7280   34.7250   51.4300 C   0  0  0  0  0  0  0  0  0  0  0  0
   53.3070   33.6100   50.5120 C   0  0  0  0  0  0  0  0  0  0  0  0
   48.9519   31.6250   47.5818 H   0  0  0  0  0  0  0  0  0  0  0  0
   47.7125   32.8577   45.7985 H   0  0  0  0  0  0  0  0  0  0  0  0
   45.5253   30.4841   45.6996 H   0  0  0  0  0  0  0  0  0  0  0  0
   46.8866   29.9773   45.1366 H   0  0  0  0  0  0  0  0  0  0  0  0
   46.5646   30.7794   48.2186 H   0  0  0  0  0  0  0  0  0  0  0  0
   43.7735   36.7959   44.7340 H   0  0  0  0  0  0  0  0  0  0  0  0
   44.9317   36.6514   42.5219 H   0  0  0  0  0  0  0  0  0  0  0  0
   46.5923   34.7585   42.1896 H   0  0  0  0  0  0  0  0  0  0  0  0
   49.2638   28.8804   48.2464 H   0  0  0  0  0  0  0  0  0  0  0  0
   48.2361   28.9275   46.7739 H   0  0  0  0  0  0  0  0  0  0  0  0
   49.8427   29.7309   46.7739 H   0  0  0  0  0  0  0  0  0  0  0  0
   47.5749   31.5279   49.7128 H   0  0  0  0  0  0  0  0  0  0  0  0
   47.7646   29.7016   49.5862 H   0  0  0  0  0  0  0  0  0  0  0  0
   49.6447   28.7810   50.9505 H   0  0  0  0  0  0  0  0  0  0  0  0
   51.7975   29.2375   52.0388 H   0  0  0  0  0  0  0  0  0  0  0  0
   50.8416   34.8084   49.2478 H   0  0  0  0  0  0  0  0  0  0  0  0
   50.1468   34.5484   50.8860 H   0  0  0  0  0  0  0  0  0  0  0  0
   52.4118   36.2942   49.9991 H   0  0  0  0  0  0  0  0  0  0  0  0
   51.0917   36.6049   51.1844 H   0  0  0  0  0  0  0  0  0  0  0  0
   54.4449   35.3686   50.8990 H   0  0  0  0  0  0  0  0  0  0  0  0
   54.1804   34.2715   52.3243 H   0  0  0  0  0  0  0  0  0  0  0  0
   53.7401   32.6652   50.8721 H   0  0  0  0  0  0  0  0  0  0  0  0
   53.6662   33.8379   49.4976 H   0  0  0  0  0  0  0  0  0  0  0  0
  1 14  1  0
  2  5  1  0
  2  4  1  0
  3  2  1  0
  3  4  1  0
  4  1  1  0
  5  6  2  0
  7 12  2  0
  8  7  1  0
  9  8  2  0
  9 10  1  0
 10 11  2  0
 11 12  1  0
 11  5  1  0
 13  1  1  0
 14 15  1  0
 15 16  2  0
 16 17  1  0
 18 17  2  0
 19 18  1  0
 20 15  1  0
 20 19  2  0
 21 26  1  0
 21 19  1  0
 22 21  1  0
 22 23  1  0
 23 24  1  0
 25 24  1  0
 26 25  1  0
  1 27  1  1
  2 28  1  6
  3 29  1  0
  3 30  1  0
  4 31  1  1
  7 32  1  0
  8 33  1  0
  9 34  1  0
 13 35  1  0
 13 36  1  0
 13 37  1  0
 14 38  1  0
 14 39  1  0
 16 40  1  0
 17 41  1  0
 22 42  1  0
 22 43  1  0
 23 44  1  0
 23 45  1  0
 25 46  1  0
 25 47  1  0
 26 48  1  0
 26 49  1  0
M  ISO  8  27   8  28  13  29  13  30  13  31  13  32  14  33  14  34  14
M  ISO  8  35   8  36   8  37   8  38   8  39   8  40  14  41  14  42  13
M  ISO  7  43  13  44  13  45  13  46  13  47  13  48  13  49  13
M  END
>  <minimizedAffinity>  (1) 
-6.13824749

>  <minimizedRMSD>  (1) 
0.553068757

$$$$
