
     RDKit          3D

 43 45  0  0  1  0  0  0  0  0999 V2000
   48.0770   30.4520   47.6340 C   0  0  2  0  0  0  0  0  0  0  0  0
   46.9740   32.1050   46.0820 C   0  0  2  0  0  0  0  0  0  0  0  0
   46.5620   30.7640   45.5060 C   0  0  0  0  0  0  0  0  0  0  0  0
   46.8670   30.8700   46.9400 C   0  0  1  0  0  0  0  0  0  0  0  0
   45.8730   33.1350   46.2790 C   0  0  0  0  0  0  0  0  0  0  0  0
   45.2220   33.0200   47.3770 O   0  0  0  0  0  0  0  0  0  0  0  0
   44.5010   36.0130   44.5440 C   0  0  0  0  0  0  0  0  0  0  0  0
   45.1370   35.9830   43.2900 C   0  0  0  0  0  0  0  0  0  0  0  0
   46.0510   34.9440   43.0830 C   0  0  0  0  0  0  0  0  0  0  0  0
   46.2440   34.0710   44.0930 N   0  0  0  0  0  0  0  0  0  0  0  0
   45.6120   34.1350   45.2840 C   0  0  0  0  0  0  0  0  0  0  0  0
   44.7170   35.1250   45.5300 N   0  0  0  0  0  0  0  0  0  0  0  0
   48.4450   29.0030   47.3700 C   0  0  0  0  0  0  0  0  0  0  0  0
   47.9450   30.6400   49.1220 C   0  0  0  0  0  0  0  0  0  0  0  0
   49.2250   30.8240   49.8280 C   0  0  0  0  0  0  0  0  0  0  0  0
   49.9320   29.9620   50.6420 C   0  0  0  0  0  0  0  0  0  0  0  0
   51.1140   30.3190   51.2000 C   0  0  0  0  0  0  0  0  0  0  0  0
   51.5920   31.5420   50.9460 N   0  0  0  0  0  0  0  0  0  0  0  0
   50.9460   32.4330   50.1580 C   0  0  0  0  0  0  0  0  0  0  0  0
   49.7730   32.0570   49.6130 N   0  0  0  0  0  0  0  0  0  0  0  0
   51.4860   33.7310   49.9080 N   0  0  0  0  0  0  0  0  0  0  0  0
   52.2920   34.3530   50.8930 C   0  0  0  0  0  0  0  0  0  0  0  0
   52.1180   34.0940   52.1450 N   0  0  0  0  0  0  0  0  0  0  0  0
   53.2940   35.2660   50.4630 N   0  0  0  0  0  0  0  0  0  0  0  0
   52.7230   34.5640   52.8360 H   0  0  0  0  0  0  0  0  0  0  0  0
   48.8764   31.0934   47.2346 H   0  0  0  0  0  0  0  0  0  0  0  0
   47.7490   32.8504   45.8503 H   0  0  0  0  0  0  0  0  0  0  0  0
   45.5248   30.6042   45.1764 H   0  0  0  0  0  0  0  0  0  0  0  0
   46.9238   30.1311   44.6822 H   0  0  0  0  0  0  0  0  0  0  0  0
   46.3031   30.4964   47.8074 H   0  0  0  0  0  0  0  0  0  0  0  0
   43.7764   36.8192   44.7311 H   0  0  0  0  0  0  0  0  0  0  0  0
   44.9275   36.7348   42.5148 H   0  0  0  0  0  0  0  0  0  0  0  0
   46.5926   34.8428   42.1310 H   0  0  0  0  0  0  0  0  0  0  0  0
   48.5783   28.4782   48.3275 H   0  0  0  0  0  0  0  0  0  0  0  0
   47.6412   28.5193   46.7956 H   0  0  0  0  0  0  0  0  0  0  0  0
   49.3822   28.9615   46.7956 H   0  0  0  0  0  0  0  0  0  0  0  0
   47.3217   31.5282   49.3026 H   0  0  0  0  0  0  0  0  0  0  0  0
   47.4987   29.7154   49.5169 H   0  0  0  0  0  0  0  0  0  0  0  0
   49.5255   28.9598   50.8428 H   0  0  0  0  0  0  0  0  0  0  0  0
   51.6665   29.6205   51.8456 H   0  0  0  0  0  0  0  0  0  0  0  0
   51.2909   34.2115   49.0181 H   0  0  0  0  0  0  0  0  0  0  0  0
   53.8958   35.7340   51.1557 H   0  0  0  0  0  0  0  0  0  0  0  0
   53.4180   35.4593   49.4589 H   0  0  0  0  0  0  0  0  0  0  0  0
  1 14  1  0
  2  5  1  0
  2  4  1  0
  3  2  1  0
  3  4  1  0
  4  1  1  0
  5  6  2  0
  7 12  2  0
  8  7  1  0
  9  8  2  0
  9 10  1  0
 10 11  2  0
 11 12  1  0
 11  5  1  0
 13  1  1  0
 14 15  1  0
 15 16  2  0
 16 17  1  0
 18 17  2  0
 19 18  1  0
 20 15  1  0
 20 19  2  0
 21 19  1  0
 21 22  1  0
 22 23  2  0
 23 25  1  0
 24 22  1  0
  1 26  1  6
  2 27  1  6
  3 28  1  0
  3 29  1  0
  4 30  1  1
  7 31  1  0
  8 32  1  0
  9 33  1  0
 13 34  1  0
 13 35  1  0
 13 36  1  0
 14 37  1  0
 14 38  1  0
 16 39  1  0
 17 40  1  0
 21 41  1  0
 24 42  1  0
 24 43  1  0
M  ISO  8  26   8  27  13  28  13  29  13  30  13  31  14  32  14  33  14
M  ISO  7  34   8  35   8  36   8  37   8  38   8  39  14  40  14
M  END
>  <minimizedAffinity>  (1) 
-6.29823256

>  <minimizedRMSD>  (1) 
0.152919635

$$$$
