
     RDKit          3D

 44 47  0  0  1  0  0  0  0  0999 V2000
   48.3340   30.7440   47.8870 C   0  0  2  0  0  0  0  0  0  0  0  0
   47.0080   32.1040   46.2310 C   0  0  2  0  0  0  0  0  0  0  0  0
   46.5910   30.6850   45.9150 C   0  0  0  0  0  0  0  0  0  0  0  0
   47.0400   31.0130   47.2730 C   0  0  1  0  0  0  0  0  0  0  0  0
   45.8870   33.1220   46.3970 C   0  0  0  0  0  0  0  0  0  0  0  0
   45.2200   33.0250   47.4890 O   0  0  0  0  0  0  0  0  0  0  0  0
   44.5060   35.9490   44.5850 C   0  0  0  0  0  0  0  0  0  0  0  0
   45.1500   35.8940   43.3360 C   0  0  0  0  0  0  0  0  0  0  0  0
   46.0700   34.8610   43.1610 C   0  0  0  0  0  0  0  0  0  0  0  0
   46.2630   34.0120   44.1920 N   0  0  0  0  0  0  0  0  0  0  0  0
   45.6240   34.0970   45.3770 C   0  0  0  0  0  0  0  0  0  0  0  0
   44.7220   35.0840   45.5940 N   0  0  0  0  0  0  0  0  0  0  0  0
   49.0670   29.5790   47.2440 C   0  0  0  0  0  0  0  0  0  0  0  0
   48.1950   30.4550   49.3570 C   0  0  0  0  0  0  0  0  0  0  0  0
   49.4570   30.4050   50.1010 C   0  0  0  0  0  0  0  0  0  0  0  0
   50.1960   29.3220   50.5370 C   0  0  0  0  0  0  0  0  0  0  0  0
   51.3590   29.4880   51.2120 C   0  0  0  0  0  0  0  0  0  0  0  0
   51.7940   30.7430   51.4560 N   0  0  0  0  0  0  0  0  0  0  0  0
   51.1010   31.8290   51.0460 C   0  0  0  0  0  0  0  0  0  0  0  0
   49.9480   31.6390   50.3780 N   0  0  0  0  0  0  0  0  0  0  0  0
   51.6430   33.1490   51.3540 C   0  0  0  0  0  0  0  0  0  0  0  0
   51.4250   34.2210   50.5150 C   0  0  0  0  0  0  0  0  0  0  0  0
   51.9740   35.4380   50.8790 C   0  0  0  0  0  0  0  0  0  0  0  0
   52.6970   35.5650   52.0150 N   0  0  0  0  0  0  0  0  0  0  0  0
   52.8870   34.4950   52.8060 C   0  0  0  0  0  0  0  0  0  0  0  0
   52.3590   33.2810   52.4750 N   0  0  0  0  0  0  0  0  0  0  0  0
   48.9228   31.6599   47.7303 H   0  0  0  0  0  0  0  0  0  0  0  0
   47.7239   32.8218   45.8041 H   0  0  0  0  0  0  0  0  0  0  0  0
   45.5317   30.4539   45.7292 H   0  0  0  0  0  0  0  0  0  0  0  0
   46.8888   29.9416   45.1609 H   0  0  0  0  0  0  0  0  0  0  0  0
   46.5854   30.7577   48.2416 H   0  0  0  0  0  0  0  0  0  0  0  0
   43.7751   36.7546   44.7490 H   0  0  0  0  0  0  0  0  0  0  0  0
   44.9397   36.6251   42.5415 H   0  0  0  0  0  0  0  0  0  0  0  0
   46.6194   34.7422   42.2154 H   0  0  0  0  0  0  0  0  0  0  0  0
   49.4777   28.9263   48.0284 H   0  0  0  0  0  0  0  0  0  0  0  0
   48.3668   29.0053   46.6190 H   0  0  0  0  0  0  0  0  0  0  0  0
   49.8872   29.9619   46.6190 H   0  0  0  0  0  0  0  0  0  0  0  0
   47.5678   31.2418   49.8016 H   0  0  0  0  0  0  0  0  0  0  0  0
   47.7540   29.4501   49.4322 H   0  0  0  0  0  0  0  0  0  0  0  0
   49.8327   28.3042   50.3319 H   0  0  0  0  0  0  0  0  0  0  0  0
   51.9376   28.6175   51.5546 H   0  0  0  0  0  0  0  0  0  0  0  0
   50.8371   34.1131   49.5915 H   0  0  0  0  0  0  0  0  0  0  0  0
   51.8200   36.3159   50.2343 H   0  0  0  0  0  0  0  0  0  0  0  0
   53.4745   34.5991   53.7302 H   0  0  0  0  0  0  0  0  0  0  0  0
  1 14  1  0
  2  5  1  0
  2  4  1  0
  3  2  1  0
  3  4  1  0
  4  1  1  0
  5  6  2  0
  7 12  2  0
  8  7  1  0
  9  8  2  0
  9 10  1  0
 10 11  2  0
 11 12  1  0
 11  5  1  0
 13  1  1  0
 14 15  1  0
 15 20  1  0
 15 16  2  0
 16 17  1  0
 17 18  2  0
 19 21  1  0
 19 18  1  0
 20 19  2  0
 21 26  2  0
 22 23  2  0
 22 21  1  0
 23 24  1  0
 24 25  2  0
 26 25  1  0
  1 27  1  1
  2 28  1  6
  3 29  1  0
  3 30  1  0
  4 31  1  1
  7 32  1  0
  8 33  1  0
  9 34  1  0
 13 35  1  0
 13 36  1  0
 13 37  1  0
 14 38  1  0
 14 39  1  0
 16 40  1  0
 17 41  1  0
 22 42  1  0
 23 43  1  0
 25 44  1  0
M  ISO  8  27   8  28  13  29  13  30  13  31  13  32  14  33  14  34  14
M  ISO  8  35   8  36   8  37   8  38   8  39   8  40  14  41  14  42  14
M  ISO  2  43  14  44  14
M  END
>  <minimizedAffinity>  (1) 
-5.98765278

>  <minimizedRMSD>  (1) 
1.19870007

$$$$
