
     RDKit          3D

 52 55  0  0  1  0  0  0  0  0999 V2000
   48.3580   30.8430   47.9490 C   0  0  2  0  0  0  0  0  0  0  0  0
   47.0190   32.1530   46.2630 C   0  0  2  0  0  0  0  0  0  0  0  0
   46.6440   30.7190   45.9530 C   0  0  0  0  0  0  0  0  0  0  0  0
   47.0690   31.0740   47.3140 C   0  0  1  0  0  0  0  0  0  0  0  0
   45.8750   33.1460   46.3980 C   0  0  0  0  0  0  0  0  0  0  0  0
   45.1860   33.0330   47.4750 O   0  0  0  0  0  0  0  0  0  0  0  0
   44.5010   35.9640   44.5680 C   0  0  0  0  0  0  0  0  0  0  0  0
   45.1480   35.8980   43.3200 C   0  0  0  0  0  0  0  0  0  0  0  0
   46.0660   34.8620   43.1530 C   0  0  0  0  0  0  0  0  0  0  0  0
   46.2540   34.0190   44.1880 N   0  0  0  0  0  0  0  0  0  0  0  0
   45.6140   34.1140   45.3710 C   0  0  0  0  0  0  0  0  0  0  0  0
   44.7110   35.1070   45.5850 N   0  0  0  0  0  0  0  0  0  0  0  0
   49.0680   29.6090   47.4200 C   0  0  0  0  0  0  0  0  0  0  0  0
   48.2120   30.6850   49.4390 C   0  0  0  0  0  0  0  0  0  0  0  0
   49.4870   30.5860   50.1700 C   0  0  0  0  0  0  0  0  0  0  0  0
   50.0960   29.4940   50.7510 C   0  0  0  0  0  0  0  0  0  0  0  0
   51.2910   29.5970   51.3820 C   0  0  0  0  0  0  0  0  0  0  0  0
   51.8760   30.7990   51.4320 N   0  0  0  0  0  0  0  0  0  0  0  0
   51.3270   31.9070   50.8810 C   0  0  0  0  0  0  0  0  0  0  0  0
   50.1380   31.7730   50.2590 N   0  0  0  0  0  0  0  0  0  0  0  0
   52.0090   33.2320   50.9560 C   0  0  0  0  0  0  0  0  0  0  0  0
   51.2820   34.3240   50.2420 C   0  0  0  0  0  0  0  0  0  0  0  0
   51.4560   35.6380   50.9870 C   0  0  0  0  0  0  0  0  0  0  0  0
   52.8420   35.7610   51.6070 C   0  0  0  0  0  0  0  0  0  0  0  0
   53.0990   34.7160   52.6550 C   0  0  0  0  0  0  0  0  0  0  0  0
   52.0900   33.6100   52.4390 C   0  0  0  0  0  0  0  0  0  0  0  0
   48.9610   31.7311   47.7089 H   0  0  0  0  0  0  0  0  0  0  0  0
   47.7213   32.8868   45.8406 H   0  0  0  0  0  0  0  0  0  0  0  0
   45.5937   30.4571   45.7575 H   0  0  0  0  0  0  0  0  0  0  0  0
   46.9702   29.9773   45.2091 H   0  0  0  0  0  0  0  0  0  0  0  0
   46.6106   30.8171   48.2804 H   0  0  0  0  0  0  0  0  0  0  0  0
   43.7721   36.7730   44.7236 H   0  0  0  0  0  0  0  0  0  0  0  0
   44.9408   36.6240   42.5200 H   0  0  0  0  0  0  0  0  0  0  0  0
   46.6176   34.7369   42.2096 H   0  0  0  0  0  0  0  0  0  0  0  0
   49.4196   28.9980   48.2644 H   0  0  0  0  0  0  0  0  0  0  0  0
   48.3709   29.0197   46.8062 H   0  0  0  0  0  0  0  0  0  0  0  0
   49.9278   29.9155   46.8062 H   0  0  0  0  0  0  0  0  0  0  0  0
   47.6614   31.5557   49.8246 H   0  0  0  0  0  0  0  0  0  0  0  0
   47.6826   29.7348   49.6027 H   0  0  0  0  0  0  0  0  0  0  0  0
   49.5992   28.5139   50.7011 H   0  0  0  0  0  0  0  0  0  0  0  0
   51.7664   28.7171   51.8401 H   0  0  0  0  0  0  0  0  0  0  0  0
   52.9916   33.1330   50.4715 H   0  0  0  0  0  0  0  0  0  0  0  0
   51.6864   34.4260   49.2241 H   0  0  0  0  0  0  0  0  0  0  0  0
   50.2117   34.0746   50.1948 H   0  0  0  0  0  0  0  0  0  0  0  0
   51.3070   36.4689   50.2818 H   0  0  0  0  0  0  0  0  0  0  0  0
   50.7153   35.6695   51.7996 H   0  0  0  0  0  0  0  0  0  0  0  0
   53.5946   35.6555   50.8118 H   0  0  0  0  0  0  0  0  0  0  0  0
   52.9035   36.7451   52.0946 H   0  0  0  0  0  0  0  0  0  0  0  0
   54.1201   34.3205   52.5507 H   0  0  0  0  0  0  0  0  0  0  0  0
   53.0017   35.1423   53.6643 H   0  0  0  0  0  0  0  0  0  0  0  0
   51.1013   33.9519   52.7789 H   0  0  0  0  0  0  0  0  0  0  0  0
   52.4063   32.7261   53.0123 H   0  0  0  0  0  0  0  0  0  0  0  0
  1 14  1  0
  2  5  1  0
  2  4  1  0
  3  2  1  0
  3  4  1  0
  4  1  1  0
  5  6  2  0
  7 12  2  0
  8  7  1  0
  9  8  2  0
  9 10  1  0
 10 11  2  0
 11 12  1  0
 11  5  1  0
 13  1  1  0
 14 15  1  0
 15 20  1  0
 15 16  2  0
 16 17  1  0
 17 18  2  0
 19 21  1  0
 19 18  1  0
 20 19  2  0
 21 26  1  0
 22 21  1  0
 22 23  1  0
 23 24  1  0
 24 25  1  0
 26 25  1  0
  1 27  1  1
  2 28  1  6
  3 29  1  0
  3 30  1  0
  4 31  1  1
  7 32  1  0
  8 33  1  0
  9 34  1  0
 13 35  1  0
 13 36  1  0
 13 37  1  0
 14 38  1  0
 14 39  1  0
 16 40  1  0
 17 41  1  0
 21 42  1  0
 22 43  1  0
 22 44  1  0
 23 45  1  0
 23 46  1  0
 24 47  1  0
 24 48  1  0
 25 49  1  0
 25 50  1  0
 26 51  1  0
 26 52  1  0
M  ISO  8  27   8  28  13  29  13  30  13  31  13  32  14  33  14  34  14
M  ISO  8  35   8  36   8  37   8  38   8  39   8  40  14  41  14  42  13
M  ISO  8  43  13  44  13  45  13  46  13  47  13  48  13  49  13  50  13
M  ISO  2  51  13  52  13
M  END
>  <minimizedAffinity>  (1) 
-6.13488388

>  <minimizedRMSD>  (1) 
1.06761277

$$$$
