
     RDKit          3D

 44 47  0  0  1  0  0  0  0  0999 V2000
   48.3430   30.8090   47.8900 C   0  0  2  0  0  0  0  0  0  0  0  0
   46.9990   32.1420   46.2240 C   0  0  2  0  0  0  0  0  0  0  0  0
   46.6020   30.7130   45.9140 C   0  0  0  0  0  0  0  0  0  0  0  0
   47.0500   31.0570   47.2690 C   0  0  1  0  0  0  0  0  0  0  0  0
   45.8670   33.1470   46.3780 C   0  0  0  0  0  0  0  0  0  0  0  0
   45.1910   33.0390   47.4630 O   0  0  0  0  0  0  0  0  0  0  0  0
   44.4980   35.9810   44.5670 C   0  0  0  0  0  0  0  0  0  0  0  0
   45.1390   35.9170   43.3150 C   0  0  0  0  0  0  0  0  0  0  0  0
   46.0490   34.8800   43.1400 C   0  0  0  0  0  0  0  0  0  0  0  0
   46.2410   34.0300   44.1690 N   0  0  0  0  0  0  0  0  0  0  0  0
   45.6080   34.1210   45.3570 C   0  0  0  0  0  0  0  0  0  0  0  0
   44.7100   35.1160   45.5790 N   0  0  0  0  0  0  0  0  0  0  0  0
   49.0040   29.5330   47.3940 C   0  0  0  0  0  0  0  0  0  0  0  0
   48.2290   30.7250   49.3890 C   0  0  0  0  0  0  0  0  0  0  0  0
   49.4980   30.7160   50.1110 C   0  0  0  0  0  0  0  0  0  0  0  0
   50.1430   29.6940   50.7780 C   0  0  0  0  0  0  0  0  0  0  0  0
   51.3460   29.8990   51.3910 C   0  0  0  0  0  0  0  0  0  0  0  0
   51.9020   31.1330   51.3370 N   0  0  0  0  0  0  0  0  0  0  0  0
   51.2960   32.1490   50.6940 C   0  0  0  0  0  0  0  0  0  0  0  0
   50.1130   31.9300   50.0960 N   0  0  0  0  0  0  0  0  0  0  0  0
   51.9640   33.4470   50.6840 C   0  0  0  0  0  0  0  0  0  0  0  0
   51.2250   34.6070   50.6210 C   0  0  0  0  0  0  0  0  0  0  0  0
   51.8270   35.8540   50.6100 C   0  0  0  0  0  0  0  0  0  0  0  0
   53.1720   35.8480   50.6650 N   0  0  0  0  0  0  0  0  0  0  0  0
   53.8720   34.7160   50.7270 C   0  0  0  0  0  0  0  0  0  0  0  0
   53.2950   33.4800   50.7380 N   0  0  0  0  0  0  0  0  0  0  0  0
   48.9691   31.6666   47.6028 H   0  0  0  0  0  0  0  0  0  0  0  0
   47.7044   32.8694   45.7959 H   0  0  0  0  0  0  0  0  0  0  0  0
   45.5459   30.4646   45.7324 H   0  0  0  0  0  0  0  0  0  0  0  0
   46.9086   29.9703   45.1628 H   0  0  0  0  0  0  0  0  0  0  0  0
   46.6017   30.7998   48.2400 H   0  0  0  0  0  0  0  0  0  0  0  0
   43.7742   36.7930   44.7307 H   0  0  0  0  0  0  0  0  0  0  0  0
   44.9314   36.6472   42.5189 H   0  0  0  0  0  0  0  0  0  0  0  0
   46.5945   34.7572   42.1927 H   0  0  0  0  0  0  0  0  0  0  0  0
   49.3191   28.9248   48.2547 H   0  0  0  0  0  0  0  0  0  0  0  0
   48.2881   28.9623   46.7842 H   0  0  0  0  0  0  0  0  0  0  0  0
   49.8831   29.7886   46.7842 H   0  0  0  0  0  0  0  0  0  0  0  0
   47.6472   31.5921   49.7348 H   0  0  0  0  0  0  0  0  0  0  0  0
   47.7493   29.7588   49.6042 H   0  0  0  0  0  0  0  0  0  0  0  0
   49.6799   28.6970   50.8164 H   0  0  0  0  0  0  0  0  0  0  0  0
   51.8536   29.0779   51.9184 H   0  0  0  0  0  0  0  0  0  0  0  0
   50.1278   34.5415   50.5783 H   0  0  0  0  0  0  0  0  0  0  0  0
   51.2455   36.7864   50.5597 H   0  0  0  0  0  0  0  0  0  0  0  0
   54.9692   34.7814   50.7715 H   0  0  0  0  0  0  0  0  0  0  0  0
  1 14  1  0
  2  5  1  0
  2  4  1  0
  3  2  1  0
  3  4  1  0
  4  1  1  0
  5  6  2  0
  7 12  2  0
  8  7  1  0
  9  8  2  0
  9 10  1  0
 10 11  2  0
 11 12  1  0
 11  5  1  0
 13  1  1  0
 14 15  1  0
 15 16  2  0
 16 17  1  0
 18 17  2  0
 19 18  1  0
 20 15  1  0
 20 19  2  0
 21 19  1  0
 21 26  1  0
 22 21  2  0
 23 22  1  0
 23 24  2  0
 24 25  1  0
 25 26  2  0
  1 27  1  1
  2 28  1  6
  3 29  1  0
  3 30  1  0
  4 31  1  1
  7 32  1  0
  8 33  1  0
  9 34  1  0
 13 35  1  0
 13 36  1  0
 13 37  1  0
 14 38  1  0
 14 39  1  0
 16 40  1  0
 17 41  1  0
 22 42  1  0
 23 43  1  0
 25 44  1  0
M  ISO  8  27   8  28  13  29  13  30  13  31  13  32  14  33  14  34  14
M  ISO  8  35   8  36   8  37   8  38   8  39   8  40  14  41  14  42  14
M  ISO  2  43  14  44  14
M  END
>  <minimizedAffinity>  (1) 
-5.9833951

>  <minimizedRMSD>  (1) 
0.753450871

$$$$
