
     RDKit          3D

 49 52  0  0  1  0  0  0  0  0999 V2000
   48.2940   30.7820   47.8720 C   0  0  2  0  0  0  0  0  0  0  0  0
   46.9920   32.1520   46.2050 C   0  0  2  0  0  0  0  0  0  0  0  0
   46.5880   30.7330   45.8660 C   0  0  0  0  0  0  0  0  0  0  0  0
   47.0120   31.0480   47.2360 C   0  0  1  0  0  0  0  0  0  0  0  0
   45.8590   33.1610   46.3610 C   0  0  0  0  0  0  0  0  0  0  0  0
   45.1790   33.0520   47.4450 O   0  0  0  0  0  0  0  0  0  0  0  0
   44.4920   35.9980   44.5550 C   0  0  0  0  0  0  0  0  0  0  0  0
   45.1350   35.9360   43.3040 C   0  0  0  0  0  0  0  0  0  0  0  0
   46.0480   34.8950   43.1270 C   0  0  0  0  0  0  0  0  0  0  0  0
   46.2330   34.0500   44.1580 N   0  0  0  0  0  0  0  0  0  0  0  0
   45.5990   34.1400   45.3440 C   0  0  0  0  0  0  0  0  0  0  0  0
   44.7060   35.1310   45.5620 N   0  0  0  0  0  0  0  0  0  0  0  0
   48.8940   29.4530   47.4580 C   0  0  0  0  0  0  0  0  0  0  0  0
   48.1790   30.7790   49.3710 C   0  0  0  0  0  0  0  0  0  0  0  0
   49.4570   30.7650   50.0910 C   0  0  0  0  0  0  0  0  0  0  0  0
   50.0460   29.7800   50.8500 C   0  0  0  0  0  0  0  0  0  0  0  0
   51.2530   29.9510   51.4420 C   0  0  0  0  0  0  0  0  0  0  0  0
   51.8790   31.1230   51.2730 N   0  0  0  0  0  0  0  0  0  0  0  0
   51.3450   32.1240   50.5380 C   0  0  0  0  0  0  0  0  0  0  0  0
   50.1450   31.9250   49.9610 N   0  0  0  0  0  0  0  0  0  0  0  0
   52.0600   33.4380   50.3560 C   0  0  0  0  0  0  0  0  0  0  0  0
   51.1100   34.6090   50.3620 C   0  0  0  0  0  0  0  0  0  0  0  0
   52.0540   35.7000   50.8830 C   0  0  0  0  0  0  0  0  0  0  0  0
   52.6250   35.0000   52.0940 C   0  0  0  0  0  0  0  0  0  0  0  0
   52.9970   33.6340   51.5050 C   0  0  0  0  0  0  0  0  0  0  0  0
   48.9516   31.5972   47.5358 H   0  0  0  0  0  0  0  0  0  0  0  0
   47.7115   32.8788   45.8000 H   0  0  0  0  0  0  0  0  0  0  0  0
   45.5334   30.4984   45.6594 H   0  0  0  0  0  0  0  0  0  0  0  0
   46.9029   29.9998   45.1089 H   0  0  0  0  0  0  0  0  0  0  0  0
   46.5421   30.7772   48.1930 H   0  0  0  0  0  0  0  0  0  0  0  0
   43.7669   36.8085   44.7203 H   0  0  0  0  0  0  0  0  0  0  0  0
   44.9291   36.6681   42.5093 H   0  0  0  0  0  0  0  0  0  0  0  0
   46.5953   34.7701   42.1810 H   0  0  0  0  0  0  0  0  0  0  0  0
   49.1557   28.8734   48.3555 H   0  0  0  0  0  0  0  0  0  0  0  0
   48.1623   28.8910   46.8590 H   0  0  0  0  0  0  0  0  0  0  0  0
   49.7995   29.6302   46.8590 H   0  0  0  0  0  0  0  0  0  0  0  0
   47.6273   31.6816   49.6727 H   0  0  0  0  0  0  0  0  0  0  0  0
   47.6656   29.8435   49.6380 H   0  0  0  0  0  0  0  0  0  0  0  0
   49.5201   28.8227   50.9805 H   0  0  0  0  0  0  0  0  0  0  0  0
   51.7059   29.1498   52.0444 H   0  0  0  0  0  0  0  0  0  0  0  0
   52.5787   33.3993   49.3868 H   0  0  0  0  0  0  0  0  0  0  0  0
   50.7352   34.8382   49.3535 H   0  0  0  0  0  0  0  0  0  0  0  0
   50.1926   34.4639   50.9513 H   0  0  0  0  0  0  0  0  0  0  0  0
   52.8351   35.9479   50.1492 H   0  0  0  0  0  0  0  0  0  0  0  0
   51.5726   36.6668   51.0920 H   0  0  0  0  0  0  0  0  0  0  0  0
   53.5099   35.5253   52.4826 H   0  0  0  0  0  0  0  0  0  0  0  0
   51.9366   34.9485   52.9504 H   0  0  0  0  0  0  0  0  0  0  0  0
   52.8609   32.8402   52.2542 H   0  0  0  0  0  0  0  0  0  0  0  0
   54.0502   33.5935   51.1900 H   0  0  0  0  0  0  0  0  0  0  0  0
  1 14  1  0
  2  5  1  0
  2  4  1  0
  3  2  1  0
  3  4  1  0
  4  1  1  0
  5  6  2  0
  7 12  2  0
  8  7  1  0
  9  8  2  0
  9 10  1  0
 10 11  2  0
 11 12  1  0
 11  5  1  0
 13  1  1  0
 14 15  1  0
 15 16  2  0
 16 17  1  0
 18 17  2  0
 19 18  1  0
 20 15  1  0
 20 19  2  0
 21 22  1  0
 21 19  1  0
 21 25  1  0
 22 23  1  0
 23 24  1  0
 25 24  1  0
  1 26  1  1
  2 27  1  6
  3 28  1  0
  3 29  1  0
  4 30  1  1
  7 31  1  0
  8 32  1  0
  9 33  1  0
 13 34  1  0
 13 35  1  0
 13 36  1  0
 14 37  1  0
 14 38  1  0
 16 39  1  0
 17 40  1  0
 21 41  1  0
 22 42  1  0
 22 43  1  0
 23 44  1  0
 23 45  1  0
 24 46  1  0
 24 47  1  0
 25 48  1  0
 25 49  1  0
M  ISO  8  26   8  27  13  28  13  29  13  30  13  31  14  32  14  33  14
M  ISO  8  34   8  35   8  36   8  37   8  38   8  39  14  40  14  41  13
M  ISO  8  42  13  43  13  44  13  45  13  46  13  47  13  48  13  49  13
M  END
>  <minimizedAffinity>  (1) 
-5.88751841

>  <minimizedRMSD>  (1) 
0.506390393

$$$$
