
     RDKit          3D

 39 41  0  0  1  0  0  0  0  0999 V2000
   48.2260   30.6470   47.7320 C   0  0  2  0  0  0  0  0  0  0  0  0
   47.0260   32.1670   46.1190 C   0  0  2  0  0  0  0  0  0  0  0  0
   46.6420   30.7870   45.6340 C   0  0  0  0  0  0  0  0  0  0  0  0
   46.9830   30.9790   47.0490 C   0  0  1  0  0  0  0  0  0  0  0  0
   45.8860   33.1650   46.2990 C   0  0  0  0  0  0  0  0  0  0  0  0
   45.2130   33.0360   47.3860 O   0  0  0  0  0  0  0  0  0  0  0  0
   44.4870   36.0180   44.5390 C   0  0  0  0  0  0  0  0  0  0  0  0
   45.1150   35.9790   43.2860 C   0  0  0  0  0  0  0  0  0  0  0  0
   46.0360   34.9470   43.0880 C   0  0  0  0  0  0  0  0  0  0  0  0
   46.2380   34.0880   44.1060 N   0  0  0  0  0  0  0  0  0  0  0  0
   45.6130   34.1570   45.2990 C   0  0  0  0  0  0  0  0  0  0  0  0
   44.7140   35.1360   45.5430 N   0  0  0  0  0  0  0  0  0  0  0  0
   48.7020   29.2330   47.4450 C   0  0  0  0  0  0  0  0  0  0  0  0
   48.0880   30.7890   49.2240 C   0  0  0  0  0  0  0  0  0  0  0  0
   49.3550   30.8150   49.9600 C   0  0  0  0  0  0  0  0  0  0  0  0
   49.9580   29.8390   50.7290 C   0  0  0  0  0  0  0  0  0  0  0  0
   51.1530   30.0480   51.3370 C   0  0  0  0  0  0  0  0  0  0  0  0
   51.7500   31.2400   51.1780 N   0  0  0  0  0  0  0  0  0  0  0  0
   51.1990   32.2300   50.4350 C   0  0  0  0  0  0  0  0  0  0  0  0
   50.0130   31.9950   49.8420 N   0  0  0  0  0  0  0  0  0  0  0  0
   51.8870   33.5140   50.2900 C   0  0  0  0  0  0  0  0  0  0  0  0
   53.1520   33.5720   50.4410 O   0  0  0  0  0  0  0  0  0  0  0  0
   51.1620   34.6410   49.9930 O   0  0  0  0  0  0  0  0  0  0  0  0
   48.9666   31.3602   47.3410 H   0  0  0  0  0  0  0  0  0  0  0  0
   47.7689   32.9214   45.8207 H   0  0  0  0  0  0  0  0  0  0  0  0
   45.6015   30.5780   45.3449 H   0  0  0  0  0  0  0  0  0  0  0  0
   47.0011   30.1205   44.8360 H   0  0  0  0  0  0  0  0  0  0  0  0
   46.4562   30.6316   47.9500 H   0  0  0  0  0  0  0  0  0  0  0  0
   43.7581   36.8217   44.7202 H   0  0  0  0  0  0  0  0  0  0  0  0
   44.8950   36.7193   42.5027 H   0  0  0  0  0  0  0  0  0  0  0  0
   46.5763   34.8399   42.1358 H   0  0  0  0  0  0  0  0  0  0  0  0
   48.8794   28.7061   48.3942 H   0  0  0  0  0  0  0  0  0  0  0  0
   47.9344   28.6980   46.8665 H   0  0  0  0  0  0  0  0  0  0  0  0
   49.6368   29.2711   46.8665 H   0  0  0  0  0  0  0  0  0  0  0  0
   47.5535   31.7281   49.4301 H   0  0  0  0  0  0  0  0  0  0  0  0
   47.5475   29.8959   49.5707 H   0  0  0  0  0  0  0  0  0  0  0  0
   49.4568   28.8675   50.8517 H   0  0  0  0  0  0  0  0  0  0  0  0
   51.6211   29.2601   51.9453 H   0  0  0  0  0  0  0  0  0  0  0  0
   51.6207   35.5127   49.8935 H   0  0  0  0  0  0  0  0  0  0  0  0
  1 14  1  0
  2  5  1  0
  2  4  1  0
  3  2  1  0
  3  4  1  0
  4  1  1  0
  5  6  2  0
  7 12  2  0
  8  7  1  0
  9  8  2  0
  9 10  1  0
 10 11  2  0
 11 12  1  0
 11  5  1  0
 13  1  1  0
 14 15  1  0
 15 16  2  0
 16 17  1  0
 18 17  2  0
 19 18  1  0
 20 15  1  0
 20 19  2  0
 21 19  1  0
 21 22  2  0
 23 21  1  0
  1 24  1  6
  2 25  1  6
  3 26  1  0
  3 27  1  0
  4 28  1  1
  7 29  1  0
  8 30  1  0
  9 31  1  0
 13 32  1  0
 13 33  1  0
 13 34  1  0
 14 35  1  0
 14 36  1  0
 16 37  1  0
 17 38  1  0
 23 39  1  0
M  ISO  8  24   8  25  13  26  13  27  13  28  13  29  14  30  14  31  14
M  ISO  8  32   8  33   8  34   8  35   8  36   8  37  14  38  14  39   3
M  END
>  <minimizedAffinity>  (1) 
-5.70100927

>  <minimizedRMSD>  (1) 
0.321467251

$$$$
