
     RDKit          3D

 38 40  0  0  1  0  0  0  0  0999 V2000
   48.1900   30.5790   47.6620 C   0  0  2  0  0  0  0  0  0  0  0  0
   47.0080   32.1390   46.0760 C   0  0  2  0  0  0  0  0  0  0  0  0
   46.6000   30.7740   45.5690 C   0  0  0  0  0  0  0  0  0  0  0  0
   46.9500   30.9350   46.9870 C   0  0  1  0  0  0  0  0  0  0  0  0
   45.8860   33.1530   46.2700 C   0  0  0  0  0  0  0  0  0  0  0  0
   45.2260   33.0310   47.3650 O   0  0  0  0  0  0  0  0  0  0  0  0
   44.4960   36.0220   44.5260 C   0  0  0  0  0  0  0  0  0  0  0  0
   45.1240   35.9930   43.2850 C   0  0  0  0  0  0  0  0  0  0  0  0
   46.0460   34.9600   43.0730 C   0  0  0  0  0  0  0  0  0  0  0  0
   46.2460   34.0870   44.0840 N   0  0  0  0  0  0  0  0  0  0  0  0
   45.6140   34.1510   45.2740 C   0  0  0  0  0  0  0  0  0  0  0  0
   44.7200   35.1270   45.5210 N   0  0  0  0  0  0  0  0  0  0  0  0
   48.6300   29.1540   47.3770 C   0  0  0  0  0  0  0  0  0  0  0  0
   48.0660   30.7260   49.1560 C   0  0  0  0  0  0  0  0  0  0  0  0
   49.3270   30.8820   49.8750 C   0  0  0  0  0  0  0  0  0  0  0  0
   49.9840   30.0080   50.7190 C   0  0  0  0  0  0  0  0  0  0  0  0
   51.1800   30.3550   51.2930 C   0  0  0  0  0  0  0  0  0  0  0  0
   51.7070   31.5630   51.0220 N   0  0  0  0  0  0  0  0  0  0  0  0
   51.0880   32.4340   50.2020 C   0  0  0  0  0  0  0  0  0  0  0  0
   49.9170   32.0850   49.6450 N   0  0  0  0  0  0  0  0  0  0  0  0
   51.7270   33.6830   49.9810 N   0  0  0  0  0  0  0  0  0  0  0  0
   48.9425   31.2757   47.2642 H   0  0  0  0  0  0  0  0  0  0  0  0
   47.7626   32.8867   45.7906 H   0  0  0  0  0  0  0  0  0  0  0  0
   45.5551   30.5868   45.2808 H   0  0  0  0  0  0  0  0  0  0  0  0
   46.9453   30.1161   44.7578 H   0  0  0  0  0  0  0  0  0  0  0  0
   46.4215   30.5760   47.8824 H   0  0  0  0  0  0  0  0  0  0  0  0
   43.7682   36.8252   44.7134 H   0  0  0  0  0  0  0  0  0  0  0  0
   44.9076   36.7429   42.5099 H   0  0  0  0  0  0  0  0  0  0  0  0
   46.5864   34.8635   42.1198 H   0  0  0  0  0  0  0  0  0  0  0  0
   48.7937   28.6239   48.3268 H   0  0  0  0  0  0  0  0  0  0  0  0
   47.8494   28.6379   46.7988 H   0  0  0  0  0  0  0  0  0  0  0  0
   49.5657   29.1679   46.7988 H   0  0  0  0  0  0  0  0  0  0  0  0
   47.4468   31.6120   49.3599 H   0  0  0  0  0  0  0  0  0  0  0  0
   47.6240   29.7861   49.5182 H   0  0  0  0  0  0  0  0  0  0  0  0
   49.5431   29.0232   50.9329 H   0  0  0  0  0  0  0  0  0  0  0  0
   51.7006   29.6565   51.9647 H   0  0  0  0  0  0  0  0  0  0  0  0
   51.2919   34.3816   49.3617 H   0  0  0  0  0  0  0  0  0  0  0  0
   52.6255   33.8902   50.4400 H   0  0  0  0  0  0  0  0  0  0  0  0
  1 14  1  0
  2  5  1  0
  2  4  1  0
  3  2  1  0
  3  4  1  0
  4  1  1  0
  5  6  2  0
  7 12  2  0
  8  7  1  0
  9  8  2  0
  9 10  1  0
 10 11  2  0
 11 12  1  0
 11  5  1  0
 13  1  1  0
 14 15  1  0
 15 16  2  0
 16 17  1  0
 18 17  2  0
 19 18  1  0
 20 15  1  0
 20 19  2  0
 21 19  1  0
  1 22  1  6
  2 23  1  6
  3 24  1  0
  3 25  1  0
  4 26  1  1
  7 27  1  0
  8 28  1  0
  9 29  1  0
 13 30  1  0
 13 31  1  0
 13 32  1  0
 14 33  1  0
 14 34  1  0
 16 35  1  0
 17 36  1  0
 21 37  1  0
 21 38  1  0
M  ISO  8  22   8  23  13  24  13  25  13  26  13  27  14  28  14  29  14
M  ISO  7  30   8  31   8  32   8  33   8  34   8  35  14  36  14
M  END
>  <minimizedAffinity>  (1) 
-5.65513659

>  <minimizedRMSD>  (1) 
0.0692474917

$$$$
