
     RDKit          3D

 43 46  0  0  1  0  0  0  0  0999 V2000
   48.2490   30.7390   47.7870 C   0  0  2  0  0  0  0  0  0  0  0  0
   46.9640   32.1600   46.1490 C   0  0  2  0  0  0  0  0  0  0  0  0
   46.5550   30.7550   45.7720 C   0  0  0  0  0  0  0  0  0  0  0  0
   46.9740   31.0340   47.1510 C   0  0  1  0  0  0  0  0  0  0  0  0
   45.8440   33.1790   46.3190 C   0  0  0  0  0  0  0  0  0  0  0  0
   45.1790   33.0710   47.4090 O   0  0  0  0  0  0  0  0  0  0  0  0
   44.4870   36.0370   44.5390 C   0  0  0  0  0  0  0  0  0  0  0  0
   45.1190   35.9830   43.2870 C   0  0  0  0  0  0  0  0  0  0  0  0
   46.0260   34.9340   43.0940 C   0  0  0  0  0  0  0  0  0  0  0  0
   46.2130   34.0750   44.1170 N   0  0  0  0  0  0  0  0  0  0  0  0
   45.5840   34.1620   45.3070 C   0  0  0  0  0  0  0  0  0  0  0  0
   44.6970   35.1610   45.5410 N   0  0  0  0  0  0  0  0  0  0  0  0
   48.8330   29.4110   47.3410 C   0  0  0  0  0  0  0  0  0  0  0  0
   48.1340   30.7110   49.2860 C   0  0  0  0  0  0  0  0  0  0  0  0
   49.4010   30.7770   50.0100 C   0  0  0  0  0  0  0  0  0  0  0  0
   50.0170   29.8420   50.8190 C   0  0  0  0  0  0  0  0  0  0  0  0
   51.2200   30.1030   51.4080 C   0  0  0  0  0  0  0  0  0  0  0  0
   51.8060   31.3020   51.1860 N   0  0  0  0  0  0  0  0  0  0  0  0
   51.2290   32.2340   50.4030 C   0  0  0  0  0  0  0  0  0  0  0  0
   50.0430   31.9560   49.8310 N   0  0  0  0  0  0  0  0  0  0  0  0
   51.9420   33.5250   50.2130 C   0  0  0  0  0  0  0  0  0  0  0  0
   51.5310   34.6630   51.1750 C   0  0  0  0  0  0  0  0  0  0  0  0
   52.8870   34.0460   51.2150 C   0  0  0  0  0  0  0  0  0  0  0  0
   48.9186   31.5535   47.4735 H   0  0  0  0  0  0  0  0  0  0  0  0
   47.6899   32.8924   45.7662 H   0  0  0  0  0  0  0  0  0  0  0  0
   45.5002   30.5312   45.5546 H   0  0  0  0  0  0  0  0  0  0  0  0
   46.8696   30.0395   44.9980 H   0  0  0  0  0  0  0  0  0  0  0  0
   46.4988   30.7459   48.1003 H   0  0  0  0  0  0  0  0  0  0  0  0
   43.7695   36.8521   44.7146 H   0  0  0  0  0  0  0  0  0  0  0  0
   44.9131   36.7241   42.5006 H   0  0  0  0  0  0  0  0  0  0  0  0
   46.5661   34.8148   42.1432 H   0  0  0  0  0  0  0  0  0  0  0  0
   49.0968   28.8112   48.2246 H   0  0  0  0  0  0  0  0  0  0  0  0
   48.0906   28.8681   46.7376 H   0  0  0  0  0  0  0  0  0  0  0  0
   49.7349   29.5912   46.7376 H   0  0  0  0  0  0  0  0  0  0  0  0
   47.5202   31.5696   49.5960 H   0  0  0  0  0  0  0  0  0  0  0  0
   47.6891   29.7374   49.5391 H   0  0  0  0  0  0  0  0  0  0  0  0
   49.5298   28.8710   50.9913 H   0  0  0  0  0  0  0  0  0  0  0  0
   51.7039   29.3530   52.0509 H   0  0  0  0  0  0  0  0  0  0  0  0
   52.0206   33.3569   49.1288 H   0  0  0  0  0  0  0  0  0  0  0  0
   51.3980   35.6879   50.7983 H   0  0  0  0  0  0  0  0  0  0  0  0
   50.7187   34.8313   51.8973 H   0  0  0  0  0  0  0  0  0  0  0  0
   53.1707   33.4163   52.0711 H   0  0  0  0  0  0  0  0  0  0  0  0
   53.9084   34.4504   51.1589 H   0  0  0  0  0  0  0  0  0  0  0  0
  1 14  1  0
  2  5  1  0
  2  4  1  0
  3  2  1  0
  3  4  1  0
  4  1  1  0
  5  6  2  0
  7 12  2  0
  8  7  1  0
  9  8  2  0
  9 10  1  0
 10 11  2  0
 11 12  1  0
 11  5  1  0
 13  1  1  0
 14 15  1  0
 15 16  2  0
 16 17  1  0
 18 17  2  0
 19 18  1  0
 20 15  1  0
 20 19  2  0
 21 19  1  0
 21 22  1  0
 21 23  1  0
 22 23  1  0
  1 24  1  1
  2 25  1  6
  3 26  1  0
  3 27  1  0
  4 28  1  1
  7 29  1  0
  8 30  1  0
  9 31  1  0
 13 32  1  0
 13 33  1  0
 13 34  1  0
 14 35  1  0
 14 36  1  0
 16 37  1  0
 17 38  1  0
 21 39  1  0
 22 40  1  0
 22 41  1  0
 23 42  1  0
 23 43  1  0
M  ISO  8  24   8  25  13  26  13  27  13  28  13  29  14  30  14  31  14
M  ISO  8  32   8  33   8  34   8  35   8  36   8  37  14  38  14  39  13
M  ISO  4  40  13  41  13  42  13  43  13
M  END
>  <minimizedAffinity>  (1) 
-5.60397148

>  <minimizedRMSD>  (1) 
0.663867652

$$$$
