
     RDKit          3D

 48 50  0  0  1  0  0  0  0  0999 V2000
   48.3520   30.8380   47.9410 C   0  0  2  0  0  0  0  0  0  0  0  0
   47.0150   32.1480   46.2560 C   0  0  2  0  0  0  0  0  0  0  0  0
   46.6290   30.7150   45.9550 C   0  0  0  0  0  0  0  0  0  0  0  0
   47.0590   31.0740   47.3130 C   0  0  1  0  0  0  0  0  0  0  0  0
   45.8750   33.1460   46.3920 C   0  0  0  0  0  0  0  0  0  0  0  0
   45.1830   33.0340   47.4690 O   0  0  0  0  0  0  0  0  0  0  0  0
   44.4980   35.9640   44.5610 C   0  0  0  0  0  0  0  0  0  0  0  0
   45.1410   35.9010   43.3160 C   0  0  0  0  0  0  0  0  0  0  0  0
   46.0660   34.8650   43.1490 C   0  0  0  0  0  0  0  0  0  0  0  0
   46.2570   34.0240   44.1870 N   0  0  0  0  0  0  0  0  0  0  0  0
   45.6170   34.1190   45.3700 C   0  0  0  0  0  0  0  0  0  0  0  0
   44.7160   35.1030   45.5800 N   0  0  0  0  0  0  0  0  0  0  0  0
   49.0490   29.5960   47.4140 C   0  0  0  0  0  0  0  0  0  0  0  0
   48.2200   30.6910   49.4340 C   0  0  0  0  0  0  0  0  0  0  0  0
   49.4900   30.6120   50.1610 C   0  0  0  0  0  0  0  0  0  0  0  0
   50.1000   29.5350   50.7740 C   0  0  0  0  0  0  0  0  0  0  0  0
   51.2970   29.6640   51.3990 C   0  0  0  0  0  0  0  0  0  0  0  0
   51.8920   30.8770   51.4150 N   0  0  0  0  0  0  0  0  0  0  0  0
   51.3270   31.9550   50.8290 C   0  0  0  0  0  0  0  0  0  0  0  0
   50.1370   31.7980   50.2130 N   0  0  0  0  0  0  0  0  0  0  0  0
   52.0540   33.2530   50.8960 C   0  0  0  0  0  0  0  0  0  0  0  0
   51.2210   34.3750   50.3070 C   0  0  0  0  0  0  0  0  0  0  0  0
   53.4410   33.1770   50.3420 C   0  0  0  0  0  0  0  0  0  0  0  0
   52.1570   33.5700   52.3940 C   0  0  0  0  0  0  0  0  0  0  0  0
   48.9575   31.7216   47.6910 H   0  0  0  0  0  0  0  0  0  0  0  0
   47.7213   32.8743   45.8274 H   0  0  0  0  0  0  0  0  0  0  0  0
   45.5764   30.4597   45.7629 H   0  0  0  0  0  0  0  0  0  0  0  0
   46.9484   29.9668   45.2146 H   0  0  0  0  0  0  0  0  0  0  0  0
   46.6003   30.8259   48.2815 H   0  0  0  0  0  0  0  0  0  0  0  0
   43.7659   36.7696   44.7190 H   0  0  0  0  0  0  0  0  0  0  0  0
   44.9297   36.6256   42.5158 H   0  0  0  0  0  0  0  0  0  0  0  0
   46.6178   34.7403   42.2056 H   0  0  0  0  0  0  0  0  0  0  0  0
   49.3934   28.9823   48.2594 H   0  0  0  0  0  0  0  0  0  0  0  0
   48.3460   29.0135   46.8004 H   0  0  0  0  0  0  0  0  0  0  0  0
   49.9125   29.8926   46.8004 H   0  0  0  0  0  0  0  0  0  0  0  0
   47.6618   31.5590   49.8148 H   0  0  0  0  0  0  0  0  0  0  0  0
   47.7063   29.7335   49.6055 H   0  0  0  0  0  0  0  0  0  0  0  0
   49.6051   28.5528   50.7550 H   0  0  0  0  0  0  0  0  0  0  0  0
   51.7736   28.7987   51.8829 H   0  0  0  0  0  0  0  0  0  0  0  0
   50.7795   34.9697   51.1203 H   0  0  0  0  0  0  0  0  0  0  0  0
   51.8608   35.0200   49.6868 H   0  0  0  0  0  0  0  0  0  0  0  0
   50.4185   33.9492   49.6868 H   0  0  0  0  0  0  0  0  0  0  0  0
   54.1647   33.1373   51.1695 H   0  0  0  0  0  0  0  0  0  0  0  0
   53.5401   32.2721   49.7245 H   0  0  0  0  0  0  0  0  0  0  0  0
   53.6384   34.0657   49.7245 H   0  0  0  0  0  0  0  0  0  0  0  0
   51.8688   32.6830   52.9772 H   0  0  0  0  0  0  0  0  0  0  0  0
   53.1922   33.8496   52.6393 H   0  0  0  0  0  0  0  0  0  0  0  0
   51.4838   34.4047   52.6393 H   0  0  0  0  0  0  0  0  0  0  0  0
  1 14  1  0
  2  5  1  0
  2  4  1  0
  3  2  1  0
  3  4  1  0
  4  1  1  0
  5  6  2  0
  7 12  2  0
  8  7  1  0
  9  8  2  0
  9 10  1  0
 10 11  2  0
 11 12  1  0
 11  5  1  0
 13  1  1  0
 14 15  1  0
 15 20  1  0
 15 16  2  0
 16 17  1  0
 17 18  2  0
 19 21  1  0
 19 18  1  0
 20 19  2  0
 21 24  1  0
 22 21  1  0
 23 21  1  0
  1 25  1  1
  2 26  1  6
  3 27  1  0
  3 28  1  0
  4 29  1  1
  7 30  1  0
  8 31  1  0
  9 32  1  0
 13 33  1  0
 13 34  1  0
 13 35  1  0
 14 36  1  0
 14 37  1  0
 16 38  1  0
 17 39  1  0
 22 40  1  0
 22 41  1  0
 22 42  1  0
 23 43  1  0
 23 44  1  0
 23 45  1  0
 24 46  1  0
 24 47  1  0
 24 48  1  0
M  ISO  8  25   8  26  13  27  13  28  13  29  13  30  14  31  14  32  14
M  ISO  8  33   8  34   8  35   8  36   8  37   8  38  14  39  14  40   8
M  ISO  8  41   8  42   8  43   8  44   8  45   8  46   8  47   8  48   8
M  END
>  <minimizedAffinity>  (1) 
-5.65156889

>  <minimizedRMSD>  (1) 
0.727250814

$$$$
