
     RDKit          3D

 39 41  0  0  1  0  0  0  0  0999 V2000
   48.1670   30.5440   47.6050 C   0  0  2  0  0  0  0  0  0  0  0  0
   47.0210   32.1570   46.0440 C   0  0  2  0  0  0  0  0  0  0  0  0
   46.6330   30.8070   45.4800 C   0  0  0  0  0  0  0  0  0  0  0  0
   46.9450   30.9250   46.9100 C   0  0  1  0  0  0  0  0  0  0  0  0
   45.8980   33.1620   46.2390 C   0  0  0  0  0  0  0  0  0  0  0  0
   45.2380   33.0320   47.3320 O   0  0  0  0  0  0  0  0  0  0  0  0
   44.4910   36.0290   44.5170 C   0  0  0  0  0  0  0  0  0  0  0  0
   45.1210   36.0100   43.2580 C   0  0  0  0  0  0  0  0  0  0  0  0
   46.0430   34.9840   43.0470 C   0  0  0  0  0  0  0  0  0  0  0  0
   46.2480   34.1100   44.0550 N   0  0  0  0  0  0  0  0  0  0  0  0
   45.6220   34.1630   45.2480 C   0  0  0  0  0  0  0  0  0  0  0  0
   44.7180   35.1430   45.4980 N   0  0  0  0  0  0  0  0  0  0  0  0
   48.6360   29.1440   47.2510 C   0  0  0  0  0  0  0  0  0  0  0  0
   47.9980   30.6100   49.0980 C   0  0  0  0  0  0  0  0  0  0  0  0
   49.2380   30.7350   49.8620 C   0  0  0  0  0  0  0  0  0  0  0  0
   49.9080   29.8010   50.6260 C   0  0  0  0  0  0  0  0  0  0  0  0
   51.0730   30.1220   51.2680 C   0  0  0  0  0  0  0  0  0  0  0  0
   51.5590   31.3670   51.1420 N   0  0  0  0  0  0  0  0  0  0  0  0
   50.9280   32.3060   50.4020 C   0  0  0  0  0  0  0  0  0  0  0  0
   49.7860   31.9780   49.7770 N   0  0  0  0  0  0  0  0  0  0  0  0
   51.5510   33.6530   50.3290 C   0  0  0  0  0  0  0  0  0  0  0  0
   48.9235   31.2701   47.2725 H   0  0  0  0  0  0  0  0  0  0  0  0
   47.7795   32.9168   45.8046 H   0  0  0  0  0  0  0  0  0  0  0  0
   45.5970   30.6247   45.1584 H   0  0  0  0  0  0  0  0  0  0  0  0
   47.0023   30.1774   44.6571 H   0  0  0  0  0  0  0  0  0  0  0  0
   46.3947   30.5388   47.7806 H   0  0  0  0  0  0  0  0  0  0  0  0
   43.7600   36.8280   44.7100 H   0  0  0  0  0  0  0  0  0  0  0  0
   44.8992   36.7607   42.4852 H   0  0  0  0  0  0  0  0  0  0  0  0
   46.5834   34.8908   42.0934 H   0  0  0  0  0  0  0  0  0  0  0  0
   48.8261   28.5766   48.1740 H   0  0  0  0  0  0  0  0  0  0  0  0
   47.8592   28.6352   46.6613 H   0  0  0  0  0  0  0  0  0  0  0  0
   49.5625   29.2058   46.6613 H   0  0  0  0  0  0  0  0  0  0  0  0
   47.3664   31.4801   49.3304 H   0  0  0  0  0  0  0  0  0  0  0  0
   47.5523   29.6497   49.3965 H   0  0  0  0  0  0  0  0  0  0  0  0
   49.4996   28.7840   50.7202 H   0  0  0  0  0  0  0  0  0  0  0  0
   51.6017   29.3734   51.8763 H   0  0  0  0  0  0  0  0  0  0  0  0
   51.7261   34.0316   51.3468 H   0  0  0  0  0  0  0  0  0  0  0  0
   52.5092   33.5852   49.7931 H   0  0  0  0  0  0  0  0  0  0  0  0
   50.8789   34.3393   49.7931 H   0  0  0  0  0  0  0  0  0  0  0  0
  1 14  1  0
  2  5  1  0
  2  4  1  0
  3  2  1  0
  3  4  1  0
  4  1  1  0
  5  6  2  0
  7 12  2  0
  8  7  1  0
  9  8  2  0
  9 10  1  0
 10 11  2  0
 11 12  1  0
 11  5  1  0
 13  1  1  0
 14 15  1  0
 15 16  2  0
 16 17  1  0
 18 17  2  0
 19 18  1  0
 20 15  1  0
 20 19  2  0
 21 19  1  0
  1 22  1  6
  2 23  1  6
  3 24  1  0
  3 25  1  0
  4 26  1  1
  7 27  1  0
  8 28  1  0
  9 29  1  0
 13 30  1  0
 13 31  1  0
 13 32  1  0
 14 33  1  0
 14 34  1  0
 16 35  1  0
 17 36  1  0
 21 37  1  0
 21 38  1  0
 21 39  1  0
M  ISO  8  22   8  23  13  24  13  25  13  26  13  27  14  28  14  29  14
M  ISO  8  30   8  31   8  32   8  33   8  34   8  35  14  36  14  37   8
M  ISO  2  38   8  39   8
M  END
>  <minimizedAffinity>  (1) 
-5.47563171

>  <minimizedRMSD>  (1) 
0.217348635

$$$$
