
     RDKit          3D

 45 47  0  0  1  0  0  0  0  0999 V2000
   48.2220   30.6500   47.7460 C   0  0  2  0  0  0  0  0  0  0  0  0
   47.0050   32.1610   46.1340 C   0  0  2  0  0  0  0  0  0  0  0  0
   46.6190   30.7740   45.6620 C   0  0  0  0  0  0  0  0  0  0  0  0
   46.9760   30.9810   47.0710 C   0  0  1  0  0  0  0  0  0  0  0  0
   45.8740   33.1640   46.3110 C   0  0  0  0  0  0  0  0  0  0  0  0
   45.2070   33.0380   47.4000 O   0  0  0  0  0  0  0  0  0  0  0  0
   44.4870   36.0170   44.5520 C   0  0  0  0  0  0  0  0  0  0  0  0
   45.1150   35.9750   43.2960 C   0  0  0  0  0  0  0  0  0  0  0  0
   46.0280   34.9420   43.0980 C   0  0  0  0  0  0  0  0  0  0  0  0
   46.2280   34.0810   44.1160 N   0  0  0  0  0  0  0  0  0  0  0  0
   45.6050   34.1550   45.3090 C   0  0  0  0  0  0  0  0  0  0  0  0
   44.7070   35.1420   45.5530 N   0  0  0  0  0  0  0  0  0  0  0  0
   48.7250   29.2590   47.4060 C   0  0  0  0  0  0  0  0  0  0  0  0
   48.0780   30.7400   49.2430 C   0  0  0  0  0  0  0  0  0  0  0  0
   49.3450   30.7350   49.9830 C   0  0  0  0  0  0  0  0  0  0  0  0
   49.9210   29.7550   50.7650 C   0  0  0  0  0  0  0  0  0  0  0  0
   51.1200   29.9370   51.3720 C   0  0  0  0  0  0  0  0  0  0  0  0
   51.7490   31.1110   51.1970 N   0  0  0  0  0  0  0  0  0  0  0  0
   51.2270   32.1040   50.4420 C   0  0  0  0  0  0  0  0  0  0  0  0
   50.0370   31.8970   49.8500 N   0  0  0  0  0  0  0  0  0  0  0  0
   51.9630   33.3960   50.2730 C   0  0  0  0  0  0  0  0  0  0  0  0
   53.4710   33.1200   50.2730 C   0  0  0  0  0  0  0  0  0  0  0  0
   51.6160   34.4090   51.3290 C   0  0  0  0  0  0  0  0  0  0  0  0
   48.9518   31.3903   47.3863 H   0  0  0  0  0  0  0  0  0  0  0  0
   47.7432   32.9154   45.8244 H   0  0  0  0  0  0  0  0  0  0  0  0
   45.5759   30.5592   45.3867 H   0  0  0  0  0  0  0  0  0  0  0  0
   46.9705   30.1019   44.8653 H   0  0  0  0  0  0  0  0  0  0  0  0
   46.4605   30.6431   47.9821 H   0  0  0  0  0  0  0  0  0  0  0  0
   43.7617   36.8242   44.7317 H   0  0  0  0  0  0  0  0  0  0  0  0
   44.8978   36.7163   42.5129 H   0  0  0  0  0  0  0  0  0  0  0  0
   46.5666   34.8326   42.1451 H   0  0  0  0  0  0  0  0  0  0  0  0
   48.9255   28.7045   48.3346 H   0  0  0  0  0  0  0  0  0  0  0  0
   47.9624   28.7268   46.8185 H   0  0  0  0  0  0  0  0  0  0  0  0
   49.6516   29.3376   46.8185 H   0  0  0  0  0  0  0  0  0  0  0  0
   47.5464   31.6733   49.4804 H   0  0  0  0  0  0  0  0  0  0  0  0
   47.5317   29.8383   49.5570 H   0  0  0  0  0  0  0  0  0  0  0  0
   49.3930   28.7995   50.8999 H   0  0  0  0  0  0  0  0  0  0  0  0
   51.5656   29.1444   51.9911 H   0  0  0  0  0  0  0  0  0  0  0  0
   51.6549   33.8323   49.3114 H   0  0  0  0  0  0  0  0  0  0  0  0
   53.8317   33.0540   51.3101 H   0  0  0  0  0  0  0  0  0  0  0  0
   53.6700   32.1705   49.7545 H   0  0  0  0  0  0  0  0  0  0  0  0
   53.9934   33.9375   49.7545 H   0  0  0  0  0  0  0  0  0  0  0  0
   51.7674   33.9671   52.3249 H   0  0  0  0  0  0  0  0  0  0  0  0
   52.2631   35.2915   51.2173 H   0  0  0  0  0  0  0  0  0  0  0  0
   50.5637   34.7094   51.2173 H   0  0  0  0  0  0  0  0  0  0  0  0
  1 14  1  0
  2  5  1  0
  2  4  1  0
  3  2  1  0
  3  4  1  0
  4  1  1  0
  5  6  2  0
  7 12  2  0
  8  7  1  0
  9  8  2  0
  9 10  1  0
 10 11  2  0
 11 12  1  0
 11  5  1  0
 13  1  1  0
 14 15  1  0
 15 16  2  0
 16 17  1  0
 18 17  2  0
 19 18  1  0
 20 15  1  0
 20 19  2  0
 21 19  1  0
 21 23  1  0
 22 21  1  0
  1 24  1  6
  2 25  1  6
  3 26  1  0
  3 27  1  0
  4 28  1  1
  7 29  1  0
  8 30  1  0
  9 31  1  0
 13 32  1  0
 13 33  1  0
 13 34  1  0
 14 35  1  0
 14 36  1  0
 16 37  1  0
 17 38  1  0
 21 39  1  0
 22 40  1  0
 22 41  1  0
 22 42  1  0
 23 43  1  0
 23 44  1  0
 23 45  1  0
M  ISO  8  24   8  25  13  26  13  27  13  28  13  29  14  30  14  31  14
M  ISO  8  32   8  33   8  34   8  35   8  36   8  37  14  38  14  39   8
M  ISO  6  40   8  41   8  42   8  43   8  44   8  45   8
M  END
>  <minimizedAffinity>  (1) 
-5.58909512

>  <minimizedRMSD>  (1) 
0.484621108

$$$$
