
     RDKit          3D

 28 30  0  0  0  0  0  0  0  0999 V2000
   44.5220   35.8840   44.6920 C   0  0  0  0  0  0  0  0  0  0  0  0
   45.2440   35.7660   43.5090 C   0  0  0  0  0  0  0  0  0  0  0  0
   46.1240   34.7030   43.4180 C   0  0  0  0  0  0  0  0  0  0  0  0
   46.2020   33.8730   44.4910 N   0  0  0  0  0  0  0  0  0  0  0  0
   45.5110   33.9870   45.6200 C   0  0  0  0  0  0  0  0  0  0  0  0
   44.6860   35.0060   45.6730 N   0  0  0  0  0  0  0  0  0  0  0  0
   45.8310   32.9340   46.5650 C   0  0  0  0  0  0  0  0  0  0  0  0
   45.3810   32.9450   47.8690 C   0  0  0  0  0  0  0  0  0  0  0  0
   45.6510   31.9830   48.7990 C   0  0  0  0  0  0  0  0  0  0  0  0
   46.4270   30.8970   48.4650 C   0  0  0  0  0  0  0  0  0  0  0  0
   46.9000   30.8330   47.1860 C   0  0  0  0  0  0  0  0  0  0  0  0
   47.6760   29.7370   46.8690 C   0  0  0  0  0  0  0  0  0  0  0  0
   48.1910   29.5870   45.6200 C   0  0  0  0  0  0  0  0  0  0  0  0
   47.9000   30.5860   44.6870 C   0  0  0  0  0  0  0  0  0  0  0  0
   47.1210   31.6640   45.0450 C   0  0  0  0  0  0  0  0  0  0  0  0
   46.5970   31.8290   46.2930 C   0  0  0  0  0  0  0  0  0  0  0  0
   46.9290   34.4710   42.2460 N   0  0  0  0  0  0  0  0  0  0  0  0
   43.8089   36.7124   44.8153 H   0  0  0  0  0  0  0  0  0  0  0  0
   45.1209   36.4841   42.6849 H   0  0  0  0  0  0  0  0  0  0  0  0
   44.7566   33.7943   48.1835 H   0  0  0  0  0  0  0  0  0  0  0  0
   45.2472   32.0762   49.8180 H   0  0  0  0  0  0  0  0  0  0  0  0
   46.6572   30.1113   49.1996 H   0  0  0  0  0  0  0  0  0  0  0  0
   47.8803   28.9756   47.6361 H   0  0  0  0  0  0  0  0  0  0  0  0
   48.8099   28.7171   45.3551 H   0  0  0  0  0  0  0  0  0  0  0  0
   48.2946   30.5111   43.6629 H   0  0  0  0  0  0  0  0  0  0  0  0
   46.9108   32.4311   44.2852 H   0  0  0  0  0  0  0  0  0  0  0  0
   47.5736   33.6683   42.2146 H   0  0  0  0  0  0  0  0  0  0  0  0
   46.8599   35.1078   41.4394 H   0  0  0  0  0  0  0  0  0  0  0  0
  1  6  2  0
  2  1  1  0
  3  2  2  0
  3  4  1  0
  4  5  2  0
  5  6  1  0
  5  7  1  0
  7  8  2  0
  8  9  1  0
 10  9  2  0
 11 10  1  0
 12 11  2  0
 13 12  1  0
 14 15  1  0
 14 13  2  0
 15 16  2  0
 16  7  1  0
 16 11  1  0
 17  3  1  0
  1 18  1  0
  2 19  1  0
  8 20  1  0
  9 21  1  0
 10 22  1  0
 12 23  1  0
 13 24  1  0
 14 25  1  0
 15 26  1  0
 17 27  1  0
 17 28  1  0
M  ISO  8  18  14  19  14  20  14  21  14  22  14  23  14  24  14  25  14
M  ISO  1  26  14
M  END
>  <minimizedAffinity>  (1) 
-5.44910097

>  <minimizedRMSD>  (1) 
1.07586181

$$$$
