
     RDKit          3D

 25 26  0  0  0  0  0  0  0  0999 V2000
   45.7440   35.1140   42.4320 C   0  0  0  0  0  0  0  0  0  0  0  0
   47.0550   34.9650   41.9380 C   0  0  0  0  0  0  0  0  0  0  0  0
   47.9690   34.2800   42.7260 C   0  0  0  0  0  0  0  0  0  0  0  0
   47.5420   33.7880   43.9440 N   0  0  0  0  0  0  0  0  0  0  0  0
   46.2860   33.9520   44.3740 C   0  0  0  0  0  0  0  0  0  0  0  0
   45.3910   34.6070   43.6320 N   0  0  0  0  0  0  0  0  0  0  0  0
   46.1040   33.3530   45.6540 N   0  0  0  0  0  0  0  0  0  0  0  0
   46.7800   32.2810   46.0630 C   0  0  0  0  0  0  0  0  0  0  0  0
   46.5140   31.7840   47.3400 C   0  0  0  0  0  0  0  0  0  0  0  0
   47.2400   30.5970   47.8340 C   0  0  0  0  0  0  0  0  0  0  0  0
   45.5750   32.4180   48.1120 C   0  0  0  0  0  0  0  0  0  0  0  0
   45.3710   31.9320   49.2560 O   0  0  0  0  0  0  0  0  0  0  0  0
   44.9080   33.5020   47.6680 N   0  0  0  0  0  0  0  0  0  0  0  0
   45.1740   33.9740   46.4290 C   0  0  0  0  0  0  0  0  0  0  0  0
   44.5080   34.9880   46.0940 O   0  0  0  0  0  0  0  0  0  0  0  0
   49.3120   34.1000   42.2740 N   0  0  0  0  0  0  0  0  0  0  0  0
   44.9965   35.6519   41.8304 H   0  0  0  0  0  0  0  0  0  0  0  0
   47.3444   35.3779   40.9603 H   0  0  0  0  0  0  0  0  0  0  0  0
   47.5265   31.8010   45.4132 H   0  0  0  0  0  0  0  0  0  0  0  0
   47.2392   30.5982   48.9340 H   0  0  0  0  0  0  0  0  0  0  0  0
   46.7446   29.6856   47.4680 H   0  0  0  0  0  0  0  0  0  0  0  0
   48.2770   30.6228   47.4680 H   0  0  0  0  0  0  0  0  0  0  0  0
   44.2061   33.9640   48.2637 H   0  0  0  0  0  0  0  0  0  0  0  0
   49.9889   33.5912   42.8604 H   0  0  0  0  0  0  0  0  0  0  0  0
   49.6035   34.4790   41.3617 H   0  0  0  0  0  0  0  0  0  0  0  0
  1  6  2  0
  2  1  1  0
  2  3  2  0
  3  4  1  0
  4  5  2  0
  5  7  1  0
  6  5  1  0
  7  8  1  0
  7 14  1  0
  8  9  2  0
  9 10  1  0
  9 11  1  0
 11 12  2  0
 13 11  1  0
 14 13  1  0
 15 14  2  0
 16  3  1  0
  1 17  1  0
  2 18  1  0
  8 19  1  0
 10 20  1  0
 10 21  1  0
 10 22  1  0
 13 23  1  0
 16 24  1  0
 16 25  1  0
M  ISO  7  17  14  18  14  19  14  20   8  21   8  22   8  23   9
M  END
>  <minimizedAffinity>  (1) 
-5.8434782

>  <minimizedRMSD>  (1) 
1.86282909

$$$$
