
     RDKit          3D

 26 28  0  0  0  0  0  0  0  0999 V2000
   44.6060   35.5150   45.2980 C   0  0  0  0  0  0  0  0  0  0  0  0
   44.3360   35.7260   43.9390 C   0  0  0  0  0  0  0  0  0  0  0  0
   44.7590   34.7860   43.0080 C   0  0  0  0  0  0  0  0  0  0  0  0
   45.4310   33.6800   43.4650 N   0  0  0  0  0  0  0  0  0  0  0  0
   45.6740   33.5070   44.7770 C   0  0  0  0  0  0  0  0  0  0  0  0
   45.2720   34.4040   45.6830 N   0  0  0  0  0  0  0  0  0  0  0  0
   46.3660   32.3760   45.2880 N   0  0  0  0  0  0  0  0  0  0  0  0
   47.2000   31.5990   44.5750 C   0  0  0  0  0  0  0  0  0  0  0  0
   47.6860   30.6090   45.3790 N   0  0  0  0  0  0  0  0  0  0  0  0
   47.1440   30.7780   46.6030 C   0  0  0  0  0  0  0  0  0  0  0  0
   47.3170   30.0400   47.7580 C   0  0  0  0  0  0  0  0  0  0  0  0
   48.0790   29.0280   47.7960 O   0  0  0  0  0  0  0  0  0  0  0  0
   46.6410   30.4480   48.8370 N   0  0  0  0  0  0  0  0  0  0  0  0
   45.8260   31.5320   48.7960 C   0  0  0  0  0  0  0  0  0  0  0  0
   45.1970   31.8040   50.0430 N   0  0  0  0  0  0  0  0  0  0  0  0
   45.6670   32.2430   47.6570 N   0  0  0  0  0  0  0  0  0  0  0  0
   46.3220   31.8820   46.5370 C   0  0  0  0  0  0  0  0  0  0  0  0
   44.4900   34.9910   41.6310 N   0  0  0  0  0  0  0  0  0  0  0  0
   44.2774   36.2501   46.0475 H   0  0  0  0  0  0  0  0  0  0  0  0
   43.7948   36.6265   43.6131 H   0  0  0  0  0  0  0  0  0  0  0  0
   47.4506   31.7389   43.5131 H   0  0  0  0  0  0  0  0  0  0  0  0
   46.7413   29.9272   49.7200 H   0  0  0  0  0  0  0  0  0  0  0  0
   44.5549   32.6044   50.1322 H   0  0  0  0  0  0  0  0  0  0  0  0
   45.3838   31.2005   50.8565 H   0  0  0  0  0  0  0  0  0  0  0  0
   43.9827   35.8337   41.3252 H   0  0  0  0  0  0  0  0  0  0  0  0
   44.8019   34.2972   40.9365 H   0  0  0  0  0  0  0  0  0  0  0  0
  1  6  2  0
  2  1  1  0
  3  4  1  0
  3  2  2  0
  4  5  2  0
  5  7  1  0
  5  6  1  0
  7 17  1  0
  8  7  1  0
  8  9  2  0
  9 10  1  0
 10 11  1  0
 11 12  2  0
 11 13  1  0
 14 13  1  0
 14 15  1  0
 16 14  2  0
 17 10  2  0
 17 16  1  0
 18  3  1  0
  1 19  1  0
  2 20  1  0
  8 21  1  0
 13 22  1  0
 15 23  1  0
 15 24  1  0
 18 25  1  0
 18 26  1  0
M  ISO  4  19  14  20  14  21  14  22   9
M  END
>  <minimizedAffinity>  (1) 
-5.94511223

>  <minimizedRMSD>  (1) 
2.402246

$$$$
