
     RDKit          3D

 22 23  0  0  0  0  0  0  0  0999 V2000
   44.5330   35.8770   44.1450 C   0  0  0  0  0  0  0  0  0  0  0  0
   45.2940   35.8430   42.9690 C   0  0  0  0  0  0  0  0  0  0  0  0
   46.3320   34.8980   42.8900 C   0  0  0  0  0  0  0  0  0  0  0  0
   46.5420   34.0640   43.9630 N   0  0  0  0  0  0  0  0  0  0  0  0
   45.7860   34.1360   45.0660 C   0  0  0  0  0  0  0  0  0  0  0  0
   44.7850   35.0380   45.1580 N   0  0  0  0  0  0  0  0  0  0  0  0
   46.0160   33.2640   46.1690 N   0  0  0  0  0  0  0  0  0  0  0  0
   46.9360   32.2800   46.1920 C   0  0  0  0  0  0  0  0  0  0  0  0
   47.0910   31.4800   47.3110 C   0  0  0  0  0  0  0  0  0  0  0  0
   46.2370   31.7890   48.3490 C   0  0  0  0  0  0  0  0  0  0  0  0
   46.3320   31.0890   49.4050 O   0  0  0  0  0  0  0  0  0  0  0  0
   45.3090   32.7640   48.3560 N   0  0  0  0  0  0  0  0  0  0  0  0
   45.2090   33.5040   47.2430 C   0  0  0  0  0  0  0  0  0  0  0  0
   44.3390   34.4170   47.2510 O   0  0  0  0  0  0  0  0  0  0  0  0
   47.1400   34.8170   41.7180 N   0  0  0  0  0  0  0  0  0  0  0  0
   43.7142   36.6056   44.2378 H   0  0  0  0  0  0  0  0  0  0  0  0
   45.0866   36.5316   42.1367 H   0  0  0  0  0  0  0  0  0  0  0  0
   47.5719   32.1102   45.3106 H   0  0  0  0  0  0  0  0  0  0  0  0
   47.8311   30.6682   47.3675 H   0  0  0  0  0  0  0  0  0  0  0  0
   44.7068   32.9327   49.1744 H   0  0  0  0  0  0  0  0  0  0  0  0
   47.8997   34.1236   41.6631 H   0  0  0  0  0  0  0  0  0  0  0  0
   46.9640   35.4519   40.9262 H   0  0  0  0  0  0  0  0  0  0  0  0
  1  6  2  0
  2  1  1  0
  3  2  2  0
  3  4  1  0
  4  5  2  0
  5  6  1  0
  5  7  1  0
  7  8  1  0
  7 13  1  0
  8  9  2  0
  9 10  1  0
 10 12  1  0
 10 11  2  0
 13 14  2  0
 13 12  1  0
 15  3  1  0
  1 16  1  0
  2 17  1  0
  8 18  1  0
  9 19  1  0
 12 20  1  0
 15 21  1  0
 15 22  1  0
M  ISO  5  16  14  17  14  18  14  19  14  20   9
M  END
>  <minimizedAffinity>  (1) 
-5.49661636

>  <minimizedRMSD>  (1) 
0.378511518

$$$$
