
     RDKit          3D

 26 28  0  0  0  0  0  0  0  0999 V2000
   46.7530   32.8470   39.4150 C   0  0  0  0  0  0  0  0  0  0  0  0
   47.9610   33.4310   39.8290 C   0  0  0  0  0  0  0  0  0  0  0  0
   47.9040   34.4750   40.7520 C   0  0  0  0  0  0  0  0  0  0  0  0
   46.6760   34.8900   41.2180 N   0  0  0  0  0  0  0  0  0  0  0  0
   45.5440   34.2970   40.7910 C   0  0  0  0  0  0  0  0  0  0  0  0
   45.5800   33.2910   39.9040 N   0  0  0  0  0  0  0  0  0  0  0  0
   44.2720   34.7750   41.3160 C   0  0  0  0  0  0  0  0  0  0  0  0
   44.0620   35.0490   42.6520 C   0  0  0  0  0  0  0  0  0  0  0  0
   42.7770   35.4720   42.8020 N   0  0  0  0  0  0  0  0  0  0  0  0
   42.2190   35.4560   41.5780 C   0  0  0  0  0  0  0  0  0  0  0  0
   40.9170   35.8070   41.2270 C   0  0  0  0  0  0  0  0  0  0  0  0
   40.5780   35.7040   39.8900 C   0  0  0  0  0  0  0  0  0  0  0  0
   41.4690   35.2730   38.9030 C   0  0  0  0  0  0  0  0  0  0  0  0
   42.7670   34.9290   39.2940 C   0  0  0  0  0  0  0  0  0  0  0  0
   43.1130   35.0270   40.6130 C   0  0  0  0  0  0  0  0  0  0  0  0
   49.1010   35.0970   41.1990 N   0  0  0  0  0  0  0  0  0  0  0  0
   46.7652   32.0223   38.6872 H   0  0  0  0  0  0  0  0  0  0  0  0
   48.9250   33.0751   39.4364 H   0  0  0  0  0  0  0  0  0  0  0  0
   44.8046   34.9438   43.4566 H   0  0  0  0  0  0  0  0  0  0  0  0
   42.3203   35.7504   43.6822 H   0  0  0  0  0  0  0  0  0  0  0  0
   40.1916   36.1505   41.9792 H   0  0  0  0  0  0  0  0  0  0  0  0
   39.5555   35.9750   39.5882 H   0  0  0  0  0  0  0  0  0  0  0  0
   41.1585   35.2064   37.8499 H   0  0  0  0  0  0  0  0  0  0  0  0
   43.5000   34.5841   38.5499 H   0  0  0  0  0  0  0  0  0  0  0  0
   49.0573   35.8679   41.8807 H   0  0  0  0  0  0  0  0  0  0  0  0
   50.0123   34.7769   40.8413 H   0  0  0  0  0  0  0  0  0  0  0  0
  1  2  2  0
  1  6  1  0
  2  3  1  0
  3 16  1  0
  3  4  2  0
  5  4  1  0
  5  7  1  0
  6  5  2  0
  7  8  2  0
  8  9  1  0
 10  9  1  0
 11 10  2  0
 12 11  1  0
 13 14  1  0
 13 12  2  0
 14 15  2  0
 15  7  1  0
 15 10  1  0
  1 17  1  0
  2 18  1  0
  8 19  1  0
  9 20  1  0
 11 21  1  0
 12 22  1  0
 13 23  1  0
 14 24  1  0
 16 25  1  0
 16 26  1  0
M  ISO  8  17  14  18  14  19  14  20   9  21  14  22  14  23  14  24  14
M  END
>  <minimizedAffinity>  (1) 
-5.43593168

>  <minimizedRMSD>  (1) 
7.53511429

$$$$
