
     RDKit          3D

 19 20  0  0  0  0  0  0  0  0999 V2000
   44.4900   36.1230   44.4260 C   0  0  0  0  0  0  0  0  0  0  0  0
   45.2150   35.9480   43.2440 C   0  0  0  0  0  0  0  0  0  0  0  0
   46.1010   34.8820   43.1500 C   0  0  0  0  0  0  0  0  0  0  0  0
   46.2300   34.0390   44.2260 N   0  0  0  0  0  0  0  0  0  0  0  0
   45.5120   34.2420   45.3480 C   0  0  0  0  0  0  0  0  0  0  0  0
   44.6610   35.2650   45.4420 N   0  0  0  0  0  0  0  0  0  0  0  0
   45.6730   33.3290   46.4740 C   0  0  0  0  0  0  0  0  0  0  0  0
   46.6170   32.3310   46.5950 C   0  0  0  0  0  0  0  0  0  0  0  0
   46.4610   31.6910   47.7710 N   0  0  0  0  0  0  0  0  0  0  0  0
   45.4060   32.2820   48.4110 C   0  0  0  0  0  0  0  0  0  0  0  0
   44.9440   33.2730   47.6050 N   0  0  0  0  0  0  0  0  0  0  0  0
   46.8560   34.6750   41.9560 N   0  0  0  0  0  0  0  0  0  0  0  0
   43.7829   36.9601   44.5222 H   0  0  0  0  0  0  0  0  0  0  0  0
   45.0861   36.6433   42.4014 H   0  0  0  0  0  0  0  0  0  0  0  0
   47.3837   32.0925   45.8432 H   0  0  0  0  0  0  0  0  0  0  0  0
   45.0054   32.0054   49.3974 H   0  0  0  0  0  0  0  0  0  0  0  0
   44.1511   33.8919   47.8267 H   0  0  0  0  0  0  0  0  0  0  0  0
   47.5114   33.8830   41.8919 H   0  0  0  0  0  0  0  0  0  0  0  0
   46.7453   35.3177   41.1587 H   0  0  0  0  0  0  0  0  0  0  0  0
  1  6  2  0
  2  1  1  0
  3  2  2  0
  3  4  1  0
  4  5  2  0
  5  6  1  0
  5  7  1  0
  7  8  2  0
  7 11  1  0
  8  9  1  0
  9 10  2  0
 11 10  1  0
 12  3  1  0
  1 13  1  0
  2 14  1  0
  8 15  1  0
 10 16  1  0
 11 17  1  0
 12 18  1  0
 12 19  1  0
M  ISO  5  13  14  14  14  15  14  16  14  17   9
M  END
>  <minimizedAffinity>  (1) 
-4.79769516

>  <minimizedRMSD>  (1) 
0.439160883

$$$$
