
     RDKit          3D

 24 25  0  0  0  0  0  0  0  0999 V2000
   44.4780   35.9330   44.7550 C   0  0  0  0  0  0  0  0  0  0  0  0
   45.1240   35.8770   43.5050 C   0  0  0  0  0  0  0  0  0  0  0  0
   46.0390   34.8500   43.2740 C   0  0  0  0  0  0  0  0  0  0  0  0
   46.2650   33.9340   44.2880 N   0  0  0  0  0  0  0  0  0  0  0  0
   45.6230   34.0340   45.4570 C   0  0  0  0  0  0  0  0  0  0  0  0
   44.7460   35.0030   45.7050 N   0  0  0  0  0  0  0  0  0  0  0  0
   45.9150   33.0490   46.4450 N   0  0  0  0  0  0  0  0  0  0  0  0
   45.1480   32.7680   47.6450 C   0  0  0  0  0  0  0  0  0  0  0  0
   46.1290   32.2130   48.6580 C   0  0  0  0  0  0  0  0  0  0  0  0
   47.4560   32.3980   47.9470 C   0  0  0  0  0  0  0  0  0  0  0  0
   47.0090   32.0970   46.5290 C   0  0  0  0  0  0  0  0  0  0  0  0
   46.7160   34.7500   42.0310 N   0  0  0  0  0  0  0  0  0  0  0  0
   43.7532   36.7342   44.9617 H   0  0  0  0  0  0  0  0  0  0  0  0
   44.9118   36.6264   42.7282 H   0  0  0  0  0  0  0  0  0  0  0  0
   44.6874   33.6909   48.0272 H   0  0  0  0  0  0  0  0  0  0  0  0
   44.3365   32.0537   47.4421 H   0  0  0  0  0  0  0  0  0  0  0  0
   46.0969   32.7823   49.5987 H   0  0  0  0  0  0  0  0  0  0  0  0
   45.9237   31.1725   48.9498 H   0  0  0  0  0  0  0  0  0  0  0  0
   47.8395   33.4239   48.0497 H   0  0  0  0  0  0  0  0  0  0  0  0
   48.2846   31.7800   48.3232 H   0  0  0  0  0  0  0  0  0  0  0  0
   46.6652   31.0585   46.4139 H   0  0  0  0  0  0  0  0  0  0  0  0
   47.7835   32.1877   45.7532 H   0  0  0  0  0  0  0  0  0  0  0  0
   47.3897   33.9874   41.8714 H   0  0  0  0  0  0  0  0  0  0  0  0
   46.5337   35.4400   41.2883 H   0  0  0  0  0  0  0  0  0  0  0  0
  1  6  2  0
  2  1  1  0
  3  2  2  0
  3  4  1  0
  4  5  2  0
  5  6  1  0
  5  7  1  0
  7 11  1  0
  7  8  1  0
  8  9  1  0
 10  9  1  0
 11 10  1  0
 12  3  1  0
  1 13  1  0
  2 14  1  0
  8 15  1  0
  8 16  1  0
  9 17  1  0
  9 18  1  0
 10 19  1  0
 10 20  1  0
 11 21  1  0
 11 22  1  0
 12 23  1  0
 12 24  1  0
M  ISO  8  13  14  14  14  15  13  16  13  17  13  18  13  19  13  20  13
M  ISO  2  21  13  22  13
M  END
>  <minimizedAffinity>  (1) 
-4.7800293

>  <minimizedRMSD>  (1) 
0.227369174

$$$$
