
     RDKit          3D

 25 26  0  0  0  0  0  0  0  0999 V2000
   44.5240   35.7070   44.8320 C   0  0  0  0  0  0  0  0  0  0  0  0
   45.1570   35.7380   43.5680 C   0  0  0  0  0  0  0  0  0  0  0  0
   46.1360   34.7910   43.3000 C   0  0  0  0  0  0  0  0  0  0  0  0
   46.4480   33.8700   44.2620 N   0  0  0  0  0  0  0  0  0  0  0  0
   45.8260   33.8660   45.4570 C   0  0  0  0  0  0  0  0  0  0  0  0
   44.8760   34.7760   45.7340 N   0  0  0  0  0  0  0  0  0  0  0  0
   46.1660   32.8640   46.5050 C   0  0  0  0  0  0  0  0  0  0  0  0
   46.0490   31.4380   46.0160 C   0  0  0  0  0  0  0  0  0  0  0  0
   46.1230   30.6830   47.3490 C   0  0  0  0  0  0  0  0  0  0  0  0
   45.0800   31.4470   48.1460 C   0  0  0  0  0  0  0  0  0  0  0  0
   45.2430   32.8930   47.6820 C   0  0  0  0  0  0  0  0  0  0  0  0
   46.7950   34.7920   42.0370 N   0  0  0  0  0  0  0  0  0  0  0  0
   43.7447   36.4440   45.0762 H   0  0  0  0  0  0  0  0  0  0  0  0
   44.8809   36.4927   42.8168 H   0  0  0  0  0  0  0  0  0  0  0  0
   47.1954   33.1439   46.7732 H   0  0  0  0  0  0  0  0  0  0  0  0
   45.0931   31.2617   45.5011 H   0  0  0  0  0  0  0  0  0  0  0  0
   46.8076   31.1415   45.2767 H   0  0  0  0  0  0  0  0  0  0  0  0
   45.8520   29.6232   47.2330 H   0  0  0  0  0  0  0  0  0  0  0  0
   47.1225   30.6505   47.8071 H   0  0  0  0  0  0  0  0  0  0  0  0
   44.0688   31.0766   47.9220 H   0  0  0  0  0  0  0  0  0  0  0  0
   45.2125   31.3344   49.2322 H   0  0  0  0  0  0  0  0  0  0  0  0
   45.6755   33.5036   48.4883 H   0  0  0  0  0  0  0  0  0  0  0  0
   44.2721   33.3347   47.4133 H   0  0  0  0  0  0  0  0  0  0  0  0
   47.5219   34.0908   41.8348 H   0  0  0  0  0  0  0  0  0  0  0  0
   46.5446   35.4939   41.3260 H   0  0  0  0  0  0  0  0  0  0  0  0
  1  6  2  0
  2  1  1  0
  3  2  2  0
  3  4  1  0
  4  5  2  0
  5  6  1  0
  5  7  1  0
  7 11  1  0
  8  7  1  0
  8  9  1  0
  9 10  1  0
 11 10  1  0
 12  3  1  0
  1 13  1  0
  2 14  1  0
  7 15  1  0
  8 16  1  0
  8 17  1  0
  9 18  1  0
  9 19  1  0
 10 20  1  0
 10 21  1  0
 11 22  1  0
 11 23  1  0
 12 24  1  0
 12 25  1  0
M  ISO  8  13  14  14  14  15  13  16  13  17  13  18  13  19  13  20  13
M  ISO  3  21  13  22  13  23  13
M  END
>  <minimizedAffinity>  (1) 
-4.39257956

>  <minimizedRMSD>  (1) 
0.575487614

$$$$
