
     RDKit          3D

 25 26  0  0  0  0  0  0  0  0999 V2000
   44.4600   35.9020   43.9770 C   0  0  0  0  0  0  0  0  0  0  0  0
   44.6000   35.7530   42.5950 C   0  0  0  0  0  0  0  0  0  0  0  0
   45.3110   34.6630   42.0960 C   0  0  0  0  0  0  0  0  0  0  0  0
   45.8380   33.7890   43.0110 N   0  0  0  0  0  0  0  0  0  0  0  0
   45.6900   33.9540   44.3330 C   0  0  0  0  0  0  0  0  0  0  0  0
   45.0120   34.9940   44.8180 N   0  0  0  0  0  0  0  0  0  0  0  0
   47.3660   31.2130   47.0100 C   0  0  0  0  0  0  0  0  0  0  0  0
   47.4070   30.9320   45.6510 C   0  0  0  0  0  0  0  0  0  0  0  0
   46.8600   31.8240   44.7520 C   0  0  0  0  0  0  0  0  0  0  0  0
   46.2830   32.9790   45.2420 C   0  0  0  0  0  0  0  0  0  0  0  0
   46.2530   33.2400   46.6160 C   0  0  0  0  0  0  0  0  0  0  0  0
   46.7970   32.3540   47.5140 C   0  0  0  0  0  0  0  0  0  0  0  0
   48.0640   30.0730   48.1410 S   0  0  0  0  0  0  0  0  0  0  0  0
   48.2290   30.7440   49.4780 O   0  0  0  0  0  0  0  0  0  0  0  0
   49.4400   29.7140   47.6490 O   0  0  0  0  0  0  0  0  0  0  0  0
   45.4670   34.4900   40.6980 N   0  0  0  0  0  0  0  0  0  0  0  0
   43.9008   36.7578   44.3832 H   0  0  0  0  0  0  0  0  0  0  0  0
   44.1541   36.4877   41.9084 H   0  0  0  0  0  0  0  0  0  0  0  0
   47.8735   30.0024   45.2928 H   0  0  0  0  0  0  0  0  0  0  0  0
   46.8829   31.6202   43.6713 H   0  0  0  0  0  0  0  0  0  0  0  0
   45.7876   34.1670   46.9823 H   0  0  0  0  0  0  0  0  0  0  0  0
   46.7768   32.5524   48.5958 H   0  0  0  0  0  0  0  0  0  0  0  0
   47.2597   28.9693   48.2497 H   0  0  0  0  0  0  0  0  0  0  0  0
   45.9934   33.6827   40.3345 H   0  0  0  0  0  0  0  0  0  0  0  0
   45.0540   35.1716   40.0455 H   0  0  0  0  0  0  0  0  0  0  0  0
  1  6  2  0
  2  1  1  0
  3  2  2  0
  3  4  1  0
  4  5  2  0
  5  6  1  0
  5 10  1  0
  7 12  2  0
  7 13  1  0
  8  7  1  0
  9 10  1  0
  9  8  2  0
 10 11  2  0
 11 12  1  0
 13 14  2  0
 15 13  2  0
 16  3  1  0
  1 17  1  0
  2 18  1  0
  8 19  1  0
  9 20  1  0
 11 21  1  0
 12 22  1  0
 13 23  1  0
 16 24  1  0
 16 25  1  0
M  ISO  7  17  14  18  14  19  14  20  14  21  14  22  14  23  11
M  END
>  <minimizedAffinity>  (1) 
-4.54451752

>  <minimizedRMSD>  (1) 
1.57566702

$$$$
