
     RDKit          3D

 24 24  0  0  0  0  0  0  0  0999 V2000
   47.0140   32.5580   45.2210 C   0  0  0  0  0  0  0  0  0  0  0  0
   46.2830   32.7650   46.4020 C   0  0  0  0  0  0  0  0  0  0  0  0
   45.3220   33.7750   46.3960 C   0  0  0  0  0  0  0  0  0  0  0  0
   45.1250   34.5220   45.2510 N   0  0  0  0  0  0  0  0  0  0  0  0
   45.8660   34.2710   44.1440 C   0  0  0  0  0  0  0  0  0  0  0  0
   46.7950   33.3040   44.1300 N   0  0  0  0  0  0  0  0  0  0  0  0
   45.7020   35.0350   42.8920 C   0  0  0  0  0  0  0  0  0  0  0  0
   45.1800   36.4330   43.1010 C   0  0  0  0  0  0  0  0  0  0  0  0
   47.0460   35.1230   42.2130 C   0  0  0  0  0  0  0  0  0  0  0  0
   44.6860   34.3030   42.0440 C   0  0  0  0  0  0  0  0  0  0  0  0
   44.5460   34.0300   47.5750 N   0  0  0  0  0  0  0  0  0  0  0  0
   47.7801   31.7692   45.1912 H   0  0  0  0  0  0  0  0  0  0  0  0
   46.4620   32.1531   47.2984 H   0  0  0  0  0  0  0  0  0  0  0  0
   45.1033   36.6384   44.1789 H   0  0  0  0  0  0  0  0  0  0  0  0
   45.8692   37.1547   42.6383 H   0  0  0  0  0  0  0  0  0  0  0  0
   44.1864   36.5264   42.6383 H   0  0  0  0  0  0  0  0  0  0  0  0
   47.8386   35.1749   42.9740 H   0  0  0  0  0  0  0  0  0  0  0  0
   47.1985   34.2329   41.5849 H   0  0  0  0  0  0  0  0  0  0  0  0
   47.0811   36.0254   41.5849 H   0  0  0  0  0  0  0  0  0  0  0  0
   43.9679   33.7856   42.6971 H   0  0  0  0  0  0  0  0  0  0  0  0
   44.1506   35.0242   41.4090 H   0  0  0  0  0  0  0  0  0  0  0  0
   45.2006   33.5668   41.4090 H   0  0  0  0  0  0  0  0  0  0  0  0
   43.8355   34.7757   47.5726 H   0  0  0  0  0  0  0  0  0  0  0  0
   44.6992   33.4674   48.4241 H   0  0  0  0  0  0  0  0  0  0  0  0
  1  2  2  0
  3  2  1  0
  3 11  1  0
  4  3  2  0
  5  4  1  0
  6  5  2  0
  6  1  1  0
  7  8  1  0
  7  5  1  0
  9  7  1  0
 10  7  1  0
  1 12  1  0
  2 13  1  0
  8 14  1  0
  8 15  1  0
  8 16  1  0
  9 17  1  0
  9 18  1  0
  9 19  1  0
 10 20  1  0
 10 21  1  0
 10 22  1  0
 11 23  1  0
 11 24  1  0
M  ISO  8  12  14  13  14  14   8  15   8  16   8  17   8  18   8  19   8
M  ISO  3  20   8  21   8  22   8
M  END
>  <minimizedAffinity>  (1) 
-4.35322189

>  <minimizedRMSD>  (1) 
4.33405447

$$$$
