
     RDKit          3D

 18 18  0  0  0  0  0  0  0  0999 V2000
   44.5170   35.7310   44.8540 C   0  0  0  0  0  0  0  0  0  0  0  0
   45.1280   35.7660   43.5940 C   0  0  0  0  0  0  0  0  0  0  0  0
   46.0960   34.8180   43.2850 C   0  0  0  0  0  0  0  0  0  0  0  0
   46.4090   33.8830   44.2430 N   0  0  0  0  0  0  0  0  0  0  0  0
   45.8070   33.8740   45.4420 C   0  0  0  0  0  0  0  0  0  0  0  0
   44.8720   34.7820   45.7550 N   0  0  0  0  0  0  0  0  0  0  0  0
   46.7310   34.8310   42.0120 N   0  0  0  0  0  0  0  0  0  0  0  0
   46.2050   32.8250   46.4240 C   0  0  0  0  0  0  0  0  0  0  0  0
   45.2760   32.8070   47.6260 C   0  0  0  0  0  0  0  0  0  0  0  0
   43.7484   36.4742   45.1128 H   0  0  0  0  0  0  0  0  0  0  0  0
   44.8453   36.5338   42.8588 H   0  0  0  0  0  0  0  0  0  0  0  0
   47.4480   34.1266   41.7869 H   0  0  0  0  0  0  0  0  0  0  0  0
   46.4738   35.5448   41.3154 H   0  0  0  0  0  0  0  0  0  0  0  0
   46.1708   31.8423   45.9309 H   0  0  0  0  0  0  0  0  0  0  0  0
   47.2221   33.0505   46.7770 H   0  0  0  0  0  0  0  0  0  0  0  0
   45.8722   32.8186   48.5504 H   0  0  0  0  0  0  0  0  0  0  0  0
   44.6242   33.6927   47.5990 H   0  0  0  0  0  0  0  0  0  0  0  0
   44.6590   31.8967   47.5990 H   0  0  0  0  0  0  0  0  0  0  0  0
  1  6  2  0
  2  1  1  0
  3  2  2  0
  3  4  1  0
  4  5  2  0
  5  6  1  0
  5  8  1  0
  7  3  1  0
  8  9  1  0
  1 10  1  0
  2 11  1  0
  7 12  1  0
  7 13  1  0
  8 14  1  0
  8 15  1  0
  9 16  1  0
  9 17  1  0
  9 18  1  0
M  ISO  7  10  14  11  14  14   8  15   8  16   8  17   8  18   8
M  END
>  <minimizedAffinity>  (1) 
-3.49601793

>  <minimizedRMSD>  (1) 
0.397749186

$$$$
