
     RDKit          3D

 19 20  0  0  0  0  0  0  0  0999 V2000
   44.5130   35.8620   44.6680 C   0  0  0  0  0  0  0  0  0  0  0  0
   45.2580   35.7110   43.4810 C   0  0  0  0  0  0  0  0  0  0  0  0
   46.1730   34.6560   43.4040 C   0  0  0  0  0  0  0  0  0  0  0  0
   46.3030   33.8190   44.4820 N   0  0  0  0  0  0  0  0  0  0  0  0
   45.5690   34.0010   45.5990 C   0  0  0  0  0  0  0  0  0  0  0  0
   44.6900   34.9980   45.7000 N   0  0  0  0  0  0  0  0  0  0  0  0
   46.9360   34.4800   42.2220 N   0  0  0  0  0  0  0  0  0  0  0  0
   45.7520   33.0560   46.7480 C   0  0  0  0  0  0  0  0  0  0  0  0
   45.9800   31.5870   46.3460 C   0  0  0  0  0  0  0  0  0  0  0  0
   47.0660   32.4040   46.9560 C   0  0  0  0  0  0  0  0  0  0  0  0
   43.7859   36.6825   44.7584 H   0  0  0  0  0  0  0  0  0  0  0  0
   45.1234   36.4044   42.6377 H   0  0  0  0  0  0  0  0  0  0  0  0
   47.6123   33.7059   42.1561 H   0  0  0  0  0  0  0  0  0  0  0  0
   46.8140   35.1262   41.4293 H   0  0  0  0  0  0  0  0  0  0  0  0
   45.0755   33.6218   47.4055 H   0  0  0  0  0  0  0  0  0  0  0  0
   45.5079   30.7759   46.9198 H   0  0  0  0  0  0  0  0  0  0  0  0
   45.8628   30.9963   45.4255 H   0  0  0  0  0  0  0  0  0  0  0  0
   47.9266   32.7085   46.3423 H   0  0  0  0  0  0  0  0  0  0  0  0
   47.7226   32.2713   47.8285 H   0  0  0  0  0  0  0  0  0  0  0  0
  1  6  2  0
  2  1  1  0
  3  2  2  0
  3  4  1  0
  4  5  2  0
  5  6  1  0
  5  8  1  0
  7  3  1  0
  8 10  1  0
  9  8  1  0
  9 10  1  0
  1 11  1  0
  2 12  1  0
  7 13  1  0
  7 14  1  0
  8 15  1  0
  9 16  1  0
  9 17  1  0
 10 18  1  0
 10 19  1  0
M  ISO  7  11  14  12  14  15  13  16  13  17  13  18  13  19  13
M  END
>  <minimizedAffinity>  (1) 
-3.65705061

>  <minimizedRMSD>  (1) 
0.458197653

$$$$
