
     RDKit          3D

 14 14  0  0  0  0  0  0  0  0999 V2000
   44.4990   35.9780   44.6170 C   0  0  0  0  0  0  0  0  0  0  0  0
   45.1620   35.9300   43.3780 C   0  0  0  0  0  0  0  0  0  0  0  0
   46.0760   34.9000   43.1620 C   0  0  0  0  0  0  0  0  0  0  0  0
   46.2900   33.9720   44.1720 N   0  0  0  0  0  0  0  0  0  0  0  0
   45.6270   34.0730   45.3290 C   0  0  0  0  0  0  0  0  0  0  0  0
   44.7490   35.0460   45.5600 N   0  0  0  0  0  0  0  0  0  0  0  0
   46.7690   34.8120   41.9250 N   0  0  0  0  0  0  0  0  0  0  0  0
   45.8650   33.0870   46.3800 C   0  0  0  0  0  0  0  0  0  0  0  0
   45.1780   33.0310   47.4360 O   0  0  0  0  0  0  0  0  0  0  0  0
   43.7729   36.7794   44.8185 H   0  0  0  0  0  0  0  0  0  0  0  0
   44.9650   36.6837   42.6014 H   0  0  0  0  0  0  0  0  0  0  0  0
   47.4443   34.0507   41.7660 H   0  0  0  0  0  0  0  0  0  0  0  0
   46.5962   35.5095   41.1871 H   0  0  0  0  0  0  0  0  0  0  0  0
   46.6800   32.3608   46.2443 H   0  0  0  0  0  0  0  0  0  0  0  0
  1  6  2  0
  2  1  1  0
  3  2  2  0
  3  4  1  0
  4  5  2  0
  5  6  1  0
  5  8  1  0
  7  3  1  0
  8  9  2  0
  1 10  1  0
  2 11  1  0
  7 12  1  0
  7 13  1  0
  8 14  1  0
M  ISO  3  10  14  11  14  14   6
M  END
>  <minimizedAffinity>  (1) 
-3.48616362

>  <minimizedRMSD>  (1) 
0.261672735

$$$$
