
     RDKit          3D

 15 15  0  0  0  0  0  0  0  0999 V2000
   44.5430   36.1440   44.3760 C   0  0  0  0  0  0  0  0  0  0  0  0
   45.3060   35.9300   43.2090 C   0  0  0  0  0  0  0  0  0  0  0  0
   46.1550   34.8230   43.1820 C   0  0  0  0  0  0  0  0  0  0  0  0
   46.2050   33.9960   44.2940 N   0  0  0  0  0  0  0  0  0  0  0  0
   45.4560   34.2540   45.3720 C   0  0  0  0  0  0  0  0  0  0  0  0
   44.6370   35.3020   45.4260 N   0  0  0  0  0  0  0  0  0  0  0  0
   46.9480   34.5580   42.0290 N   0  0  0  0  0  0  0  0  0  0  0  0
   45.5390   33.3560   46.5260 C   0  0  0  0  0  0  0  0  0  0  0  0
   46.3530   32.3930   46.5600 O   0  0  0  0  0  0  0  0  0  0  0  0
   44.7180   33.5360   47.6330 O   0  0  0  0  0  0  0  0  0  0  0  0
   43.8635   37.0073   44.4306 H   0  0  0  0  0  0  0  0  0  0  0  0
   45.2341   36.6126   42.3494 H   0  0  0  0  0  0  0  0  0  0  0  0
   47.5740   33.7402   42.0113 H   0  0  0  0  0  0  0  0  0  0  0  0
   46.8955   35.1841   41.2128 H   0  0  0  0  0  0  0  0  0  0  0  0
   44.7863   32.9203   48.4053 H   0  0  0  0  0  0  0  0  0  0  0  0
  1  6  2  0
  2  1  1  0
  3  2  2  0
  3  4  1  0
  4  5  2  0
  5  6  1  0
  5  8  1  0
  7  3  1  0
  8  9  2  0
  8 10  1  0
  1 11  1  0
  2 12  1  0
  7 13  1  0
  7 14  1  0
 10 15  1  0
M  ISO  3  11  14  12  14  15   3
M  END
>  <minimizedAffinity>  (1) 
-4.13010454

>  <minimizedRMSD>  (1) 
0.546313882

$$$$
