
     RDKit          3D

 31 33  0  0  0  0  0  0  0  0999 V2000
   44.4700   33.8050   40.2950 C   0  0  0  0  0  0  0  0  0  0  0  0
   44.8470   33.3740   39.0540 C   0  0  0  0  0  0  0  0  0  0  0  0
   46.1750   33.2870   38.6960 C   0  0  0  0  0  0  0  0  0  0  0  0
   47.1780   33.6400   39.5990 C   0  0  0  0  0  0  0  0  0  0  0  0
   46.7330   34.0680   40.8350 C   0  0  0  0  0  0  0  0  0  0  0  0
   45.4370   34.1620   41.2050 C   0  0  0  0  0  0  0  0  0  0  0  0
   41.1660   32.8470   41.5260 C   0  0  0  0  0  0  0  0  0  0  0  0
   40.4400   34.0300   41.3870 C   0  0  0  0  0  0  0  0  0  0  0  0
   41.0760   35.1410   40.8790 C   0  0  0  0  0  0  0  0  0  0  0  0
   42.4070   35.0550   40.5210 N   0  0  0  0  0  0  0  0  0  0  0  0
   43.0710   33.8880   40.6720 C   0  0  0  0  0  0  0  0  0  0  0  0
   42.4510   32.7910   41.1730 N   0  0  0  0  0  0  0  0  0  0  0  0
   40.3890   36.3610   40.7150 N   0  0  0  0  0  0  0  0  0  0  0  0
   45.2080   34.6520   42.5580 C   0  0  0  0  0  0  0  0  0  0  0  0
   44.8380   35.9490   42.9480 C   0  0  0  0  0  0  0  0  0  0  0  0
   44.6700   36.2300   44.2920 C   0  0  0  0  0  0  0  0  0  0  0  0
   44.8660   35.2310   45.2330 C   0  0  0  0  0  0  0  0  0  0  0  0
   45.2320   33.9560   44.8310 C   0  0  0  0  0  0  0  0  0  0  0  0
   45.3910   33.6990   43.5220 N   0  0  0  0  0  0  0  0  0  0  0  0
   44.0736   33.0904   38.3250 H   0  0  0  0  0  0  0  0  0  0  0  0
   46.4464   32.9361   37.6894 H   0  0  0  0  0  0  0  0  0  0  0  0
   48.2467   33.5818   39.3452 H   0  0  0  0  0  0  0  0  0  0  0  0
   47.4937   34.3548   41.5760 H   0  0  0  0  0  0  0  0  0  0  0  0
   40.6735   31.9507   41.9311 H   0  0  0  0  0  0  0  0  0  0  0  0
   39.3800   34.0747   41.6775 H   0  0  0  0  0  0  0  0  0  0  0  0
   40.8807   37.1817   40.3335 H   0  0  0  0  0  0  0  0  0  0  0  0
   39.3953   36.4317   40.9767 H   0  0  0  0  0  0  0  0  0  0  0  0
   44.6833   36.7336   42.1927 H   0  0  0  0  0  0  0  0  0  0  0  0
   44.3821   37.2420   44.6128 H   0  0  0  0  0  0  0  0  0  0  0  0
   44.7306   35.4509   46.3023 H   0  0  0  0  0  0  0  0  0  0  0  0
   45.3907   33.1626   45.5762 H   0  0  0  0  0  0  0  0  0  0  0  0
  1 11  1  0
  1  6  1  0
  2  1  2  0
  3  2  1  0
  3  4  2  0
  4  5  1  0
  5  6  2  0
  6 14  1  0
  8  7  2  0
  9  8  1  0
 10 11  1  0
 10  9  2  0
 11 12  2  0
 12  7  1  0
 13  9  1  0
 14 15  2  0
 14 19  1  0
 15 16  1  0
 16 17  2  0
 18 17  1  0
 19 18  2  0
  2 20  1  0
  3 21  1  0
  4 22  1  0
  5 23  1  0
  7 24  1  0
  8 25  1  0
 13 26  1  0
 13 27  1  0
 15 28  1  0
 16 29  1  0
 17 30  1  0
 18 31  1  0
M  ISO  8  20  14  21  14  22  14  23  14  24  14  25  14  28  14  29  14
M  ISO  2  30  14  31  14
M  END
>  <minimizedAffinity>  (1) 
-5.3023982

>  <minimizedRMSD>  (1) 
6.55451441

$$$$
