
     RDKit          3D

 24 25  0  0  0  0  0  0  0  0999 V2000
   45.8650   32.9480   46.3930 C   0  0  0  0  0  0  0  0  0  0  0  0
   45.2840   33.0050   47.6320 C   0  0  0  0  0  0  0  0  0  0  0  0
   45.5140   32.0380   48.5830 C   0  0  0  0  0  0  0  0  0  0  0  0
   46.3450   30.9710   48.3170 C   0  0  0  0  0  0  0  0  0  0  0  0
   46.9030   30.9700   47.0490 C   0  0  0  0  0  0  0  0  0  0  0  0
   46.7040   31.8990   46.0840 C   0  0  0  0  0  0  0  0  0  0  0  0
   44.5010   35.9130   44.7480 C   0  0  0  0  0  0  0  0  0  0  0  0
   45.1580   35.8930   43.5110 C   0  0  0  0  0  0  0  0  0  0  0  0
   46.0570   34.8840   43.2360 C   0  0  0  0  0  0  0  0  0  0  0  0
   46.2680   33.9290   44.2060 N   0  0  0  0  0  0  0  0  0  0  0  0
   45.6200   33.9780   45.3830 C   0  0  0  0  0  0  0  0  0  0  0  0
   44.7350   34.9640   45.6630 N   0  0  0  0  0  0  0  0  0  0  0  0
   46.7310   34.8430   41.9970 N   0  0  0  0  0  0  0  0  0  0  0  0
   47.3530   31.7550   44.8270 N   0  0  0  0  0  0  0  0  0  0  0  0
   44.6164   33.8455   47.8728 H   0  0  0  0  0  0  0  0  0  0  0  0
   45.0291   32.1172   49.5672 H   0  0  0  0  0  0  0  0  0  0  0  0
   46.5494   30.1811   49.0547 H   0  0  0  0  0  0  0  0  0  0  0  0
   47.5729   30.1332   46.8020 H   0  0  0  0  0  0  0  0  0  0  0  0
   43.7846   36.7176   44.9702 H   0  0  0  0  0  0  0  0  0  0  0  0
   44.9584   36.6761   42.7647 H   0  0  0  0  0  0  0  0  0  0  0  0
   47.4008   34.0858   41.7999 H   0  0  0  0  0  0  0  0  0  0  0  0
   46.5531   35.5703   41.2897 H   0  0  0  0  0  0  0  0  0  0  0  0
   47.9695   30.9480   44.6552 H   0  0  0  0  0  0  0  0  0  0  0  0
   47.2066   32.4577   44.0883 H   0  0  0  0  0  0  0  0  0  0  0  0
  1  2  2  0
  2  3  1  0
  4  3  2  0
  5  4  1  0
  6  1  1  0
  6  5  2  0
  7 12  2  0
  8  7  1  0
  9  8  2  0
  9 10  1  0
 10 11  2  0
 11 12  1  0
 11  1  1  0
 13  9  1  0
 14  6  1  0
  2 15  1  0
  3 16  1  0
  4 17  1  0
  5 18  1  0
  7 19  1  0
  8 20  1  0
 13 21  1  0
 13 22  1  0
 14 23  1  0
 14 24  1  0
M  ISO  6  15  14  16  14  17  14  18  14  19  14  20  14
M  END
>  <minimizedAffinity>  (1) 
-4.86763287

>  <minimizedRMSD>  (1) 
0.436627477

$$$$
