
     RDKit          3D

 36 39  0  0  0  0  0  0  0  0999 V2000
   46.6980   29.8300   44.8070 C   0  0  0  0  0  0  0  0  0  0  0  0
   46.5350   28.4800   44.7880 C   0  0  0  0  0  0  0  0  0  0  0  0
   46.4750   27.7460   43.6310 C   0  0  0  0  0  0  0  0  0  0  0  0
   46.5780   28.3640   42.4100 C   0  0  0  0  0  0  0  0  0  0  0  0
   46.7410   29.7320   42.4840 C   0  0  0  0  0  0  0  0  0  0  0  0
   46.8060   30.4960   43.6100 C   0  0  0  0  0  0  0  0  0  0  0  0
   46.9850   31.9390   43.4790 C   0  0  0  0  0  0  0  0  0  0  0  0
   46.0360   32.8900   43.7130 N   0  0  0  0  0  0  0  0  0  0  0  0
   46.2890   34.2010   43.5790 C   0  0  0  0  0  0  0  0  0  0  0  0
   47.5270   34.5570   43.2020 N   0  0  0  0  0  0  0  0  0  0  0  0
   48.5250   33.7080   42.9490 C   0  0  0  0  0  0  0  0  0  0  0  0
   49.7580   34.2080   42.5670 C   0  0  0  0  0  0  0  0  0  0  0  0
   50.7890   33.3330   42.3050 C   0  0  0  0  0  0  0  0  0  0  0  0
   50.5370   31.9850   42.4390 C   0  0  0  0  0  0  0  0  0  0  0  0
   49.3000   31.4600   42.8250 C   0  0  0  0  0  0  0  0  0  0  0  0
   48.2640   32.3560   43.0870 C   0  0  0  0  0  0  0  0  0  0  0  0
   47.9840   31.3460   47.8700 C   0  0  0  0  0  0  0  0  0  0  0  0
   46.8400   31.9750   48.3860 C   0  0  0  0  0  0  0  0  0  0  0  0
   45.6520   31.8800   47.6970 C   0  0  0  0  0  0  0  0  0  0  0  0
   45.6570   31.1690   46.5340 N   0  0  0  0  0  0  0  0  0  0  0  0
   46.7540   30.5700   46.0480 C   0  0  0  0  0  0  0  0  0  0  0  0
   47.9100   30.6640   46.7210 N   0  0  0  0  0  0  0  0  0  0  0  0
   44.4990   32.5060   48.2000 N   0  0  0  0  0  0  0  0  0  0  0  0
   46.4469   27.9505   45.7481 H   0  0  0  0  0  0  0  0  0  0  0  0
   46.3435   26.6551   43.6820 H   0  0  0  0  0  0  0  0  0  0  0  0
   46.5345   27.8170   41.4566 H   0  0  0  0  0  0  0  0  0  0  0  0
   46.8283   30.2658   41.5262 H   0  0  0  0  0  0  0  0  0  0  0  0
   45.5115   34.9551   43.7708 H   0  0  0  0  0  0  0  0  0  0  0  0
   49.9128   35.2930   42.4736 H   0  0  0  0  0  0  0  0  0  0  0  0
   51.7805   33.6982   41.9990 H   0  0  0  0  0  0  0  0  0  0  0  0
   51.3563   31.2813   42.2302 H   0  0  0  0  0  0  0  0  0  0  0  0
   49.1487   30.3745   42.9191 H   0  0  0  0  0  0  0  0  0  0  0  0
   48.9402   31.4136   48.4095 H   0  0  0  0  0  0  0  0  0  0  0  0
   46.8922   32.5373   49.3300 H   0  0  0  0  0  0  0  0  0  0  0  0
   43.6092   32.4361   47.6860 H   0  0  0  0  0  0  0  0  0  0  0  0
   44.5436   33.0348   49.0828 H   0  0  0  0  0  0  0  0  0  0  0  0
  1 21  1  0
  2  1  2  0
  3  2  1  0
  4  5  1  0
  4  3  2  0
  5  6  2  0
  6  1  1  0
  7  6  1  0
  7  8  2  0
  9  8  1  0
 10  9  2  0
 11 16  2  0
 11 10  1  0
 12 11  1  0
 13 14  1  0
 13 12  2  0
 14 15  2  0
 15 16  1  0
 16  7  1  0
 17 18  2  0
 19 23  1  0
 19 18  1  0
 20 19  2  0
 21 20  1  0
 21 22  2  0
 22 17  1  0
  2 24  1  0
  3 25  1  0
  4 26  1  0
  5 27  1  0
  9 28  1  0
 12 29  1  0
 13 30  1  0
 14 31  1  0
 15 32  1  0
 17 33  1  0
 18 34  1  0
 23 35  1  0
 23 36  1  0
M  ISO  8  24  14  25  14  26  14  27  14  28  14  29  14  30  14  31  14
M  ISO  3  32  14  33  14  34  14
M  END
>  <minimizedAffinity>  (1) 
-4.96124887

>  <minimizedRMSD>  (1) 
4.66796875

$$$$
