
     RDKit          3D

 25 26  0  0  0  0  0  0  0  0999 V2000
   45.8590   32.9250   46.3970 C   0  0  0  0  0  0  0  0  0  0  0  0
   45.2920   33.0000   47.6570 C   0  0  0  0  0  0  0  0  0  0  0  0
   45.5140   32.0300   48.6110 C   0  0  0  0  0  0  0  0  0  0  0  0
   46.3160   30.9470   48.3300 C   0  0  0  0  0  0  0  0  0  0  0  0
   46.8530   30.9330   47.0490 C   0  0  0  0  0  0  0  0  0  0  0  0
   46.6660   31.8620   46.0780 C   0  0  0  0  0  0  0  0  0  0  0  0
   44.4730   35.9320   44.8230 C   0  0  0  0  0  0  0  0  0  0  0  0
   45.1140   35.9360   43.5810 C   0  0  0  0  0  0  0  0  0  0  0  0
   46.0050   34.9230   43.2920 C   0  0  0  0  0  0  0  0  0  0  0  0
   46.2240   33.9510   44.2430 N   0  0  0  0  0  0  0  0  0  0  0  0
   45.5940   33.9730   45.4280 C   0  0  0  0  0  0  0  0  0  0  0  0
   44.7300   34.9620   45.6960 N   0  0  0  0  0  0  0  0  0  0  0  0
   46.6760   34.8880   42.0480 N   0  0  0  0  0  0  0  0  0  0  0  0
   47.3060   31.7190   44.7440 C   0  0  0  0  0  0  0  0  0  0  0  0
   44.6471   33.8562   47.9039 H   0  0  0  0  0  0  0  0  0  0  0  0
   45.0474   32.1219   49.6029 H   0  0  0  0  0  0  0  0  0  0  0  0
   46.5164   30.1528   49.0643 H   0  0  0  0  0  0  0  0  0  0  0  0
   47.4978   30.0787   46.7951 H   0  0  0  0  0  0  0  0  0  0  0  0
   43.7583   36.7285   45.0777 H   0  0  0  0  0  0  0  0  0  0  0  0
   44.9121   36.7312   42.8483 H   0  0  0  0  0  0  0  0  0  0  0  0
   47.3393   34.1275   41.8419 H   0  0  0  0  0  0  0  0  0  0  0  0
   46.5015   35.6230   41.3479 H   0  0  0  0  0  0  0  0  0  0  0  0
   48.3722   31.4808   44.8725 H   0  0  0  0  0  0  0  0  0  0  0  0
   46.8139   30.9087   44.1862 H   0  0  0  0  0  0  0  0  0  0  0  0
   47.2056   32.6617   44.1862 H   0  0  0  0  0  0  0  0  0  0  0  0
  1  2  2  0
  2  3  1  0
  4  3  2  0
  5  4  1  0
  6  1  1  0
  6  5  2  0
  7 12  2  0
  8  7  1  0
  9  8  2  0
  9 10  1  0
 10 11  2  0
 11 12  1  0
 11  1  1  0
 13  9  1  0
 14  6  1  0
  2 15  1  0
  3 16  1  0
  4 17  1  0
  5 18  1  0
  7 19  1  0
  8 20  1  0
 13 21  1  0
 13 22  1  0
 14 23  1  0
 14 24  1  0
 14 25  1  0
M  ISO  8  15  14  16  14  17  14  18  14  19  14  20  14  23   8  24   8
M  ISO  1  25   8
M  END
>  <minimizedAffinity>  (1) 
-4.90774488

>  <minimizedRMSD>  (1) 
0.415963233

$$$$
