
     RDKit          3D

 23 24  0  0  0  0  0  0  0  0999 V2000
   45.8610   32.9180   46.3480 C   0  0  0  0  0  0  0  0  0  0  0  0
   45.3250   33.0170   47.6150 C   0  0  0  0  0  0  0  0  0  0  0  0
   45.5460   32.0350   48.5530 C   0  0  0  0  0  0  0  0  0  0  0  0
   46.3100   30.9280   48.2480 C   0  0  0  0  0  0  0  0  0  0  0  0
   46.8170   30.8880   46.9670 C   0  0  0  0  0  0  0  0  0  0  0  0
   46.6280   31.8290   46.0060 C   0  0  0  0  0  0  0  0  0  0  0  0
   44.4970   35.9230   44.7390 C   0  0  0  0  0  0  0  0  0  0  0  0
   45.1810   35.9190   43.5130 C   0  0  0  0  0  0  0  0  0  0  0  0
   46.0880   34.9160   43.2380 C   0  0  0  0  0  0  0  0  0  0  0  0
   46.2960   33.9370   44.1860 N   0  0  0  0  0  0  0  0  0  0  0  0
   45.6120   33.9780   45.3630 C   0  0  0  0  0  0  0  0  0  0  0  0
   44.7230   34.9580   45.6390 N   0  0  0  0  0  0  0  0  0  0  0  0
   46.7890   34.8900   42.0100 N   0  0  0  0  0  0  0  0  0  0  0  0
   47.3510   31.6410   44.3850 S   0  0  0  0  0  0  0  0  0  0  0  0
   44.7131   33.8922   47.8789 H   0  0  0  0  0  0  0  0  0  0  0  0
   45.1085   32.1339   49.5574 H   0  0  0  0  0  0  0  0  0  0  0  0
   46.5022   30.1292   48.9794 H   0  0  0  0  0  0  0  0  0  0  0  0
   47.4301   30.0150   46.6987 H   0  0  0  0  0  0  0  0  0  0  0  0
   43.7734   36.7212   44.9607 H   0  0  0  0  0  0  0  0  0  0  0  0
   44.9946   36.7125   42.7743 H   0  0  0  0  0  0  0  0  0  0  0  0
   47.4632   34.1354   41.8177 H   0  0  0  0  0  0  0  0  0  0  0  0
   46.6253   35.6256   41.3079 H   0  0  0  0  0  0  0  0  0  0  0  0
   48.6713   31.2977   44.5109 H   0  0  0  0  0  0  0  0  0  0  0  0
  1  2  2  0
  2  3  1  0
  4  3  2  0
  5  4  1  0
  6  1  1  0
  6  5  2  0
  7 12  2  0
  8  7  1  0
  9  8  2  0
  9 10  1  0
 10 11  2  0
 11 12  1  0
 11  1  1  0
 13  9  1  0
 14  6  1  0
  2 15  1  0
  3 16  1  0
  4 17  1  0
  5 18  1  0
  7 19  1  0
  8 20  1  0
 13 21  1  0
 13 22  1  0
 14 23  1  0
M  ISO  7  15  14  16  14  17  14  18  14  19  14  20  14  23  11
M  END
>  <minimizedAffinity>  (1) 
-4.79371834

>  <minimizedRMSD>  (1) 
0.523384988

$$$$
