
     RDKit          3D

 29 31  0  0  0  0  0  0  0  0999 V2000
   45.7150   32.8870   46.3360 C   0  0  0  0  0  0  0  0  0  0  0  0
   45.4310   33.0890   47.6520 C   0  0  0  0  0  0  0  0  0  0  0  0
   45.5850   32.0830   48.5720 C   0  0  0  0  0  0  0  0  0  0  0  0
   46.0300   30.8280   48.2100 C   0  0  0  0  0  0  0  0  0  0  0  0
   46.3030   30.6840   46.8540 C   0  0  0  0  0  0  0  0  0  0  0  0
   46.1680   31.6480   45.8970 C   0  0  0  0  0  0  0  0  0  0  0  0
   44.5000   35.9290   44.7050 C   0  0  0  0  0  0  0  0  0  0  0  0
   45.2520   35.9550   43.5270 C   0  0  0  0  0  0  0  0  0  0  0  0
   46.1610   34.9500   43.2900 C   0  0  0  0  0  0  0  0  0  0  0  0
   46.2920   33.9570   44.2270 N   0  0  0  0  0  0  0  0  0  0  0  0
   45.5640   33.9460   45.3500 C   0  0  0  0  0  0  0  0  0  0  0  0
   44.6710   34.9380   45.5790 N   0  0  0  0  0  0  0  0  0  0  0  0
   46.9450   34.9460   42.0960 N   0  0  0  0  0  0  0  0  0  0  0  0
   46.5010   31.2810   44.5170 C   0  0  0  0  0  0  0  0  0  0  0  0
   47.8370   31.1980   43.9480 C   0  0  0  0  0  0  0  0  0  0  0  0
   47.9140   30.8330   42.6360 C   0  0  0  0  0  0  0  0  0  0  0  0
   46.8140   30.5480   41.8500 C   0  0  0  0  0  0  0  0  0  0  0  0
   45.3790   30.8080   43.0700 S   0  0  0  0  0  0  0  0  0  0  0  0
   45.0723   34.0748   47.9830 H   0  0  0  0  0  0  0  0  0  0  0  0
   45.3472   32.2823   49.6273 H   0  0  0  0  0  0  0  0  0  0  0  0
   46.1581   30.0096   48.9337 H   0  0  0  0  0  0  0  0  0  0  0  0
   46.6621   29.6991   46.5207 H   0  0  0  0  0  0  0  0  0  0  0  0
   43.7688   36.7248   44.9100 H   0  0  0  0  0  0  0  0  0  0  0  0
   45.1187   36.7686   42.7988 H   0  0  0  0  0  0  0  0  0  0  0  0
   47.6230   34.1891   41.9276 H   0  0  0  0  0  0  0  0  0  0  0  0
   46.8324   35.7000   41.4034 H   0  0  0  0  0  0  0  0  0  0  0  0
   48.7358   31.4175   44.5430 H   0  0  0  0  0  0  0  0  0  0  0  0
   48.9109   30.7613   42.1765 H   0  0  0  0  0  0  0  0  0  0  0  0
   46.7778   30.2483   40.7922 H   0  0  0  0  0  0  0  0  0  0  0  0
  1  2  2  0
  2  3  1  0
  4  3  2  0
  5  4  1  0
  6  1  1  0
  6  5  2  0
  7 12  2  0
  8  7  1  0
  9  8  2  0
  9 10  1  0
 10 11  2  0
 11 12  1  0
 11  1  1  0
 13  9  1  0
 14  6  1  0
 15 14  2  0
 16 15  1  0
 17 16  2  0
 17 18  1  0
 18 14  1  0
  2 19  1  0
  3 20  1  0
  4 21  1  0
  5 22  1  0
  7 23  1  0
  8 24  1  0
 13 25  1  0
 13 26  1  0
 15 27  1  0
 16 28  1  0
 17 29  1  0
M  ISO  8  19  14  20  14  21  14  22  14  23  14  24  14  27  14  28  14
M  ISO  1  29  14
M  END
>  <minimizedAffinity>  (1) 
-4.78994131

>  <minimizedRMSD>  (1) 
1.60725212

$$$$
