
     RDKit          3D

 29 30  0  0  0  0  0  0  0  0999 V2000
   45.9070   32.9610   46.3900 C   0  0  0  0  0  0  0  0  0  0  0  0
   45.2570   33.0110   47.6160 C   0  0  0  0  0  0  0  0  0  0  0  0
   45.4800   32.0500   48.5640 C   0  0  0  0  0  0  0  0  0  0  0  0
   46.3710   31.0050   48.3030 C   0  0  0  0  0  0  0  0  0  0  0  0
   46.9810   31.0270   47.0530 C   0  0  0  0  0  0  0  0  0  0  0  0
   46.8010   31.9530   46.0690 C   0  0  0  0  0  0  0  0  0  0  0  0
   44.4790   35.9220   44.7570 C   0  0  0  0  0  0  0  0  0  0  0  0
   45.1320   35.9040   43.5040 C   0  0  0  0  0  0  0  0  0  0  0  0
   46.0390   34.9020   43.2310 C   0  0  0  0  0  0  0  0  0  0  0  0
   46.2550   33.9720   44.2040 N   0  0  0  0  0  0  0  0  0  0  0  0
   45.6340   33.9950   45.3870 C   0  0  0  0  0  0  0  0  0  0  0  0
   44.7400   34.9770   45.6610 N   0  0  0  0  0  0  0  0  0  0  0  0
   46.7170   34.8600   41.9790 N   0  0  0  0  0  0  0  0  0  0  0  0
   47.5530   31.8260   44.8850 N   0  0  0  0  0  0  0  0  0  0  0  0
   47.4410   30.7290   43.9880 C   0  0  0  0  0  0  0  0  0  0  0  0
   46.2480   30.2740   43.7490 N   0  0  0  0  0  0  0  0  0  0  0  0
   48.5800   30.1140   43.3350 N   0  0  0  0  0  0  0  0  0  0  0  0
   46.1430   29.4740   43.0960 H   0  0  0  0  0  0  0  0  0  0  0  0
   44.5556   33.8316   47.8272 H   0  0  0  0  0  0  0  0  0  0  0  0
   44.9584   32.0997   49.5312 H   0  0  0  0  0  0  0  0  0  0  0  0
   46.5769   30.2147   49.0399 H   0  0  0  0  0  0  0  0  0  0  0  0
   47.6840   30.2095   46.8353 H   0  0  0  0  0  0  0  0  0  0  0  0
   43.7542   36.7168   44.9871 H   0  0  0  0  0  0  0  0  0  0  0  0
   44.9191   36.6807   42.7547 H   0  0  0  0  0  0  0  0  0  0  0  0
   47.3928   34.1075   41.7843 H   0  0  0  0  0  0  0  0  0  0  0  0
   46.5314   35.5821   41.2684 H   0  0  0  0  0  0  0  0  0  0  0  0
   48.2243   32.5727   44.6553 H   0  0  0  0  0  0  0  0  0  0  0  0
   48.4393   29.3205   42.6936 H   0  0  0  0  0  0  0  0  0  0  0  0
   49.5299   30.4706   43.5125 H   0  0  0  0  0  0  0  0  0  0  0  0
  1  2  2  0
  2  3  1  0
  4  3  2  0
  5  4  1  0
  6  1  1  0
  6  5  2  0
  7 12  2  0
  8  7  1  0
  9  8  2  0
  9 10  1  0
 10 11  2  0
 11 12  1  0
 11  1  1  0
 13  9  1  0
 14  6  1  0
 15 14  1  0
 16 15  2  0
 17 15  1  0
 18 16  1  0
  2 19  1  0
  3 20  1  0
  4 21  1  0
  5 22  1  0
  7 23  1  0
  8 24  1  0
 13 25  1  0
 13 26  1  0
 14 27  1  0
 17 28  1  0
 17 29  1  0
M  ISO  6  19  14  20  14  21  14  22  14  23  14  24  14
M  END
>  <minimizedAffinity>  (1) 
-4.83467245

>  <minimizedRMSD>  (1) 
1.03465366

$$$$
