
     RDKit          3D

 38 40  0  0  0  0  0  0  0  0999 V2000
   45.7200   32.8660   46.3940 C   0  0  0  0  0  0  0  0  0  0  0  0
   45.3890   33.1200   47.7170 C   0  0  0  0  0  0  0  0  0  0  0  0
   45.5170   32.1180   48.6530 C   0  0  0  0  0  0  0  0  0  0  0  0
   45.9780   30.8500   48.2790 C   0  0  0  0  0  0  0  0  0  0  0  0
   46.2870   30.6870   46.9270 C   0  0  0  0  0  0  0  0  0  0  0  0
   46.1850   31.6250   45.9590 C   0  0  0  0  0  0  0  0  0  0  0  0
   44.5260   35.9110   44.7360 C   0  0  0  0  0  0  0  0  0  0  0  0
   45.2680   35.9060   43.5400 C   0  0  0  0  0  0  0  0  0  0  0  0
   46.1640   34.8790   43.3090 C   0  0  0  0  0  0  0  0  0  0  0  0
   46.2750   33.9120   44.2770 N   0  0  0  0  0  0  0  0  0  0  0  0
   45.5570   33.9440   45.4040 C   0  0  0  0  0  0  0  0  0  0  0  0
   44.6780   34.9460   45.6360 N   0  0  0  0  0  0  0  0  0  0  0  0
   46.9320   34.8300   42.1260 N   0  0  0  0  0  0  0  0  0  0  0  0
   46.5770   31.2580   44.5810 C   0  0  0  0  0  0  0  0  0  0  0  0
   45.6380   30.3510   43.8660 C   0  0  0  0  0  0  0  0  0  0  0  0
   46.2690   29.0060   43.4770 C   0  0  0  0  0  0  0  0  0  0  0  0
   47.4930   29.1890   42.6390 C   0  0  0  0  0  0  0  0  0  0  0  0
   48.3750   30.3070   43.1660 C   0  0  0  0  0  0  0  0  0  0  0  0
   47.9370   30.5300   44.6010 C   0  0  0  0  0  0  0  0  0  0  0  0
   45.0269   34.1146   48.0163 H   0  0  0  0  0  0  0  0  0  0  0  0
   45.2549   32.3155   49.7029 H   0  0  0  0  0  0  0  0  0  0  0  0
   46.0900   30.0320   49.0059 H   0  0  0  0  0  0  0  0  0  0  0  0
   46.6500   29.6955   46.6186 H   0  0  0  0  0  0  0  0  0  0  0  0
   43.8110   36.7246   44.9279 H   0  0  0  0  0  0  0  0  0  0  0  0
   45.1367   36.7084   42.7991 H   0  0  0  0  0  0  0  0  0  0  0  0
   47.5940   34.0558   41.9735 H   0  0  0  0  0  0  0  0  0  0  0  0
   46.8305   35.5684   41.4151 H   0  0  0  0  0  0  0  0  0  0  0  0
   46.5935   32.2187   44.0455 H   0  0  0  0  0  0  0  0  0  0  0  0
   44.7755   30.1556   44.5201 H   0  0  0  0  0  0  0  0  0  0  0  0
   45.3455   30.8552   42.9331 H   0  0  0  0  0  0  0  0  0  0  0  0
   46.5429   28.4628   44.3935 H   0  0  0  0  0  0  0  0  0  0  0  0
   45.5324   28.4404   42.8875 H   0  0  0  0  0  0  0  0  0  0  0  0
   47.1874   29.4313   41.6105 H   0  0  0  0  0  0  0  0  0  0  0  0
   48.0714   28.2538   42.6696 H   0  0  0  0  0  0  0  0  0  0  0  0
   49.4337   30.0106   43.1293 H   0  0  0  0  0  0  0  0  0  0  0  0
   48.2761   31.2219   42.5634 H   0  0  0  0  0  0  0  0  0  0  0  0
   48.6817   31.1460   45.1264 H   0  0  0  0  0  0  0  0  0  0  0  0
   47.8454   29.5671   45.1248 H   0  0  0  0  0  0  0  0  0  0  0  0
  1  2  2  0
  2  3  1  0
  4  3  2  0
  5  4  1  0
  6  1  1  0
  6  5  2  0
  7 12  2  0
  8  7  1  0
  9  8  2  0
  9 10  1  0
 10 11  2  0
 11 12  1  0
 11  1  1  0
 13  9  1  0
 14 19  1  0
 14  6  1  0
 15 14  1  0
 16 15  1  0
 17 18  1  0
 17 16  1  0
 18 19  1  0
  2 20  1  0
  3 21  1  0
  4 22  1  0
  5 23  1  0
  7 24  1  0
  8 25  1  0
 13 26  1  0
 13 27  1  0
 14 28  1  0
 15 29  1  0
 15 30  1  0
 16 31  1  0
 16 32  1  0
 17 33  1  0
 17 34  1  0
 18 35  1  0
 18 36  1  0
 19 37  1  0
 19 38  1  0
M  ISO  8  20  14  21  14  22  14  23  14  24  14  25  14  28  13  29  13
M  ISO  8  30  13  31  13  32  13  33  13  34  13  35  13  36  13  37  13
M  ISO  1  38  13
M  END
>  <minimizedAffinity>  (1) 
-4.85644579

>  <minimizedRMSD>  (1) 
1.60138834

$$$$
