
     RDKit          3D

 33 35  0  0  0  0  0  0  0  0999 V2000
   45.8520   33.4410   44.9350 C   0  0  0  0  0  0  0  0  0  0  0  0
   45.3550   33.4610   46.2050 C   0  0  0  0  0  0  0  0  0  0  0  0
   45.9240   32.7520   47.2370 C   0  0  0  0  0  0  0  0  0  0  0  0
   47.0440   31.9780   47.0110 C   0  0  0  0  0  0  0  0  0  0  0  0
   47.5170   31.9850   45.7080 C   0  0  0  0  0  0  0  0  0  0  0  0
   46.9660   32.6810   44.6830 C   0  0  0  0  0  0  0  0  0  0  0  0
   47.5700   32.5830   43.3990 N   0  0  0  0  0  0  0  0  0  0  0  0
   48.4790   33.5540   43.0940 C   0  0  0  0  0  0  0  0  0  0  0  0
   49.1400   33.5840   41.8890 C   0  0  0  0  0  0  0  0  0  0  0  0
   48.8650   32.5960   40.9700 C   0  0  0  0  0  0  0  0  0  0  0  0
   49.5540   32.6330   39.7240 N   0  0  0  0  0  0  0  0  0  0  0  0
   47.9700   31.6520   41.2880 N   0  0  0  0  0  0  0  0  0  0  0  0
   47.3270   31.6330   42.4750 C   0  0  0  0  0  0  0  0  0  0  0  0
   46.4830   30.7550   42.7910 O   0  0  0  0  0  0  0  0  0  0  0  0
   44.8970   36.2520   42.8090 C   0  0  0  0  0  0  0  0  0  0  0  0
   44.0730   35.6420   41.8550 C   0  0  0  0  0  0  0  0  0  0  0  0
   43.8500   34.2840   41.9450 C   0  0  0  0  0  0  0  0  0  0  0  0
   44.4480   33.5820   42.9670 N   0  0  0  0  0  0  0  0  0  0  0  0
   45.2330   34.1990   43.8650 C   0  0  0  0  0  0  0  0  0  0  0  0
   45.4500   35.5270   43.7780 N   0  0  0  0  0  0  0  0  0  0  0  0
   43.0260   33.6240   41.0050 N   0  0  0  0  0  0  0  0  0  0  0  0
   44.4623   34.0693   46.4124 H   0  0  0  0  0  0  0  0  0  0  0  0
   45.4855   32.8020   48.2446 H   0  0  0  0  0  0  0  0  0  0  0  0
   47.5277   31.3960   47.8093 H   0  0  0  0  0  0  0  0  0  0  0  0
   48.4084   31.3790   45.4885 H   0  0  0  0  0  0  0  0  0  0  0  0
   48.6896   34.3380   43.8363 H   0  0  0  0  0  0  0  0  0  0  0  0
   49.8694   34.3763   41.6648 H   0  0  0  0  0  0  0  0  0  0  0  0
   50.2329   33.3837   39.5330 H   0  0  0  0  0  0  0  0  0  0  0  0
   49.3734   31.9091   39.0139 H   0  0  0  0  0  0  0  0  0  0  0  0
   45.0877   37.3341   42.7571 H   0  0  0  0  0  0  0  0  0  0  0  0
   43.6129   36.2340   41.0501 H   0  0  0  0  0  0  0  0  0  0  0  0
   42.8668   32.6093   41.0825 H   0  0  0  0  0  0  0  0  0  0  0  0
   42.5848   34.1578   40.2426 H   0  0  0  0  0  0  0  0  0  0  0  0
  1  2  2  0
  2  3  1  0
  4  3  2  0
  5  4  1  0
  6  1  1  0
  6  5  2  0
  7  6  1  0
  8  7  1  0
  9  8  2  0
 10 12  2  0
 10  9  1  0
 11 10  1  0
 12 13  1  0
 13 14  2  0
 13  7  1  0
 15 20  2  0
 16 17  2  0
 16 15  1  0
 17 18  1  0
 18 19  2  0
 19  1  1  0
 20 19  1  0
 21 17  1  0
  2 22  1  0
  3 23  1  0
  4 24  1  0
  5 25  1  0
  8 26  1  0
  9 27  1  0
 11 28  1  0
 11 29  1  0
 15 30  1  0
 16 31  1  0
 21 32  1  0
 21 33  1  0
M  ISO  8  22  14  23  14  24  14  25  14  26  14  27  14  30  14  31  14
M  END
>  <minimizedAffinity>  (1) 
-4.74117184

>  <minimizedRMSD>  (1) 
2.35052466

$$$$
