
     RDKit          3D

 31 32  0  0  0  0  0  0  0  0999 V2000
   45.7280   32.8630   46.3280 C   0  0  0  0  0  0  0  0  0  0  0  0
   45.4060   33.0890   47.6560 C   0  0  0  0  0  0  0  0  0  0  0  0
   45.5530   32.0870   48.5930 C   0  0  0  0  0  0  0  0  0  0  0  0
   46.0250   30.8300   48.2160 C   0  0  0  0  0  0  0  0  0  0  0  0
   46.3240   30.6910   46.8590 C   0  0  0  0  0  0  0  0  0  0  0  0
   46.2000   31.6400   45.8960 C   0  0  0  0  0  0  0  0  0  0  0  0
   44.5180   35.9390   44.7440 C   0  0  0  0  0  0  0  0  0  0  0  0
   45.2330   35.9540   43.5440 C   0  0  0  0  0  0  0  0  0  0  0  0
   46.1180   34.9280   43.2740 C   0  0  0  0  0  0  0  0  0  0  0  0
   46.2540   33.9370   44.2060 N   0  0  0  0  0  0  0  0  0  0  0  0
   45.5580   33.9410   45.3540 C   0  0  0  0  0  0  0  0  0  0  0  0
   44.6920   34.9430   45.6180 N   0  0  0  0  0  0  0  0  0  0  0  0
   46.8810   34.8700   42.0860 N   0  0  0  0  0  0  0  0  0  0  0  0
   46.5820   31.3080   44.4980 C   0  0  0  0  0  0  0  0  0  0  0  0
   45.5890   30.3820   43.8480 C   0  0  0  0  0  0  0  0  0  0  0  0
   47.9110   30.5230   44.5430 C   0  0  0  0  0  0  0  0  0  0  0  0
   45.0301   34.0752   47.9661 H   0  0  0  0  0  0  0  0  0  0  0  0
   45.2961   32.2810   49.6448 H   0  0  0  0  0  0  0  0  0  0  0  0
   46.1525   30.0077   48.9354 H   0  0  0  0  0  0  0  0  0  0  0  0
   46.6997   29.7088   46.5362 H   0  0  0  0  0  0  0  0  0  0  0  0
   43.8096   36.7495   44.9703 H   0  0  0  0  0  0  0  0  0  0  0  0
   45.0931   36.7727   42.8228 H   0  0  0  0  0  0  0  0  0  0  0  0
   47.5288   34.0850   41.9278 H   0  0  0  0  0  0  0  0  0  0  0  0
   46.7894   35.6128   41.3783 H   0  0  0  0  0  0  0  0  0  0  0  0
   46.6406   32.2511   43.9348 H   0  0  0  0  0  0  0  0  0  0  0  0
   45.0196   29.8510   44.6251 H   0  0  0  0  0  0  0  0  0  0  0  0
   44.8983   30.9660   43.2220 H   0  0  0  0  0  0  0  0  0  0  0  0
   46.1234   29.6523   43.2220 H   0  0  0  0  0  0  0  0  0  0  0  0
   48.2005   30.3520   45.5903 H   0  0  0  0  0  0  0  0  0  0  0  0
   47.7828   29.5556   44.0354 H   0  0  0  0  0  0  0  0  0  0  0  0
   48.6964   31.1022   44.0354 H   0  0  0  0  0  0  0  0  0  0  0  0
  1  2  2  0
  2  3  1  0
  4  3  2  0
  5  4  1  0
  6  1  1  0
  6  5  2  0
  7 12  2  0
  8  7  1  0
  9  8  2  0
  9 10  1  0
 10 11  2  0
 11 12  1  0
 11  1  1  0
 13  9  1  0
 14 16  1  0
 14  6  1  0
 15 14  1  0
  2 17  1  0
  3 18  1  0
  4 19  1  0
  5 20  1  0
  7 21  1  0
  8 22  1  0
 13 23  1  0
 13 24  1  0
 14 25  1  0
 15 26  1  0
 15 27  1  0
 15 28  1  0
 16 29  1  0
 16 30  1  0
 16 31  1  0
M  ISO  8  17  14  18  14  19  14  20  14  21  14  22  14  25   8  26   8
M  ISO  5  27   8  28   8  29   8  30   8  31   8
M  END
>  <minimizedAffinity>  (1) 
-4.67587328

>  <minimizedRMSD>  (1) 
1.08495247

$$$$
