
     RDKit          3D

 32 34  0  0  0  0  0  0  0  0999 V2000
   45.8080   32.9450   46.1270 C   0  0  0  0  0  0  0  0  0  0  0  0
   45.6100   33.2060   47.4600 C   0  0  0  0  0  0  0  0  0  0  0  0
   45.7360   32.2290   48.4140 C   0  0  0  0  0  0  0  0  0  0  0  0
   46.0730   30.9350   48.0550 C   0  0  0  0  0  0  0  0  0  0  0  0
   46.2640   30.7270   46.6870 C   0  0  0  0  0  0  0  0  0  0  0  0
   46.1500   31.6620   45.7040 C   0  0  0  0  0  0  0  0  0  0  0  0
   46.3940   31.2690   44.3240 C   0  0  0  0  0  0  0  0  0  0  0  0
   45.5040   31.0290   43.3000 C   0  0  0  0  0  0  0  0  0  0  0  0
   45.9140   30.6600   42.0390 C   0  0  0  0  0  0  0  0  0  0  0  0
   47.2800   30.5200   41.7710 C   0  0  0  0  0  0  0  0  0  0  0  0
   48.1890   30.7590   42.7930 C   0  0  0  0  0  0  0  0  0  0  0  0
   47.7610   31.1280   44.0510 C   0  0  0  0  0  0  0  0  0  0  0  0
   44.5510   35.8900   44.3700 C   0  0  0  0  0  0  0  0  0  0  0  0
   45.3910   35.9400   43.2360 C   0  0  0  0  0  0  0  0  0  0  0  0
   46.3760   34.9740   43.0800 C   0  0  0  0  0  0  0  0  0  0  0  0
   46.4720   34.0180   44.0530 N   0  0  0  0  0  0  0  0  0  0  0  0
   45.6650   33.9870   45.1220 C   0  0  0  0  0  0  0  0  0  0  0  0
   44.7000   34.9260   45.2800 N   0  0  0  0  0  0  0  0  0  0  0  0
   47.2310   34.9980   41.9570 N   0  0  0  0  0  0  0  0  0  0  0  0
   45.3430   34.2266   47.7714 H   0  0  0  0  0  0  0  0  0  0  0  0
   45.5680   32.4753   49.4728 H   0  0  0  0  0  0  0  0  0  0  0  0
   46.1825   30.1281   48.7945 H   0  0  0  0  0  0  0  0  0  0  0  0
   46.5329   29.7076   46.3731 H   0  0  0  0  0  0  0  0  0  0  0  0
   44.4272   31.1361   43.4973 H   0  0  0  0  0  0  0  0  0  0  0  0
   45.1727   30.4764   41.2473 H   0  0  0  0  0  0  0  0  0  0  0  0
   47.6273   30.2261   40.7695 H   0  0  0  0  0  0  0  0  0  0  0  0
   49.2660   30.6525   42.5964 H   0  0  0  0  0  0  0  0  0  0  0  0
   48.4984   31.3130   44.8460 H   0  0  0  0  0  0  0  0  0  0  0  0
   43.7683   36.6513   44.5039 H   0  0  0  0  0  0  0  0  0  0  0  0
   45.2665   36.7345   42.4855 H   0  0  0  0  0  0  0  0  0  0  0  0
   47.9592   34.2777   41.8487 H   0  0  0  0  0  0  0  0  0  0  0  0
   47.1266   35.7358   41.2459 H   0  0  0  0  0  0  0  0  0  0  0  0
  1  2  2  0
  2  3  1  0
  4  3  2  0
  5  4  1  0
  6  1  1  0
  6  5  2  0
  7  6  1  0
  8  7  2  0
  9  8  1  0
 10  9  2  0
 10 11  1  0
 11 12  2  0
 12  7  1  0
 13 18  2  0
 14 13  1  0
 15 14  2  0
 15 16  1  0
 16 17  2  0
 17 18  1  0
 17  1  1  0
 19 15  1  0
  2 20  1  0
  3 21  1  0
  4 22  1  0
  5 23  1  0
  8 24  1  0
  9 25  1  0
 10 26  1  0
 11 27  1  0
 12 28  1  0
 13 29  1  0
 14 30  1  0
 19 31  1  0
 19 32  1  0
M  ISO  8  20  14  21  14  22  14  23  14  24  14  25  14  26  14  27  14
M  ISO  3  28  14  29  14  30  14
M  END
>  <minimizedAffinity>  (1) 
-4.70857191

>  <minimizedRMSD>  (1) 
1.97303641

$$$$
