
     RDKit          3D

 37 39  0  0  0  0  0  0  0  0999 V2000
   47.0490   32.6260   44.6670 C   0  0  0  0  0  0  0  0  0  0  0  0
   46.0570   33.6630   44.3890 C   0  0  0  0  0  0  0  0  0  0  0  0
   45.5750   34.3270   45.5120 C   0  0  0  0  0  0  0  0  0  0  0  0
   44.6240   35.3410   45.4140 C   0  0  0  0  0  0  0  0  0  0  0  0
   44.2000   35.6380   44.1620 N   0  0  0  0  0  0  0  0  0  0  0  0
   44.6810   34.9800   43.0700 C   0  0  0  0  0  0  0  0  0  0  0  0
   45.5860   34.0200   43.2030 N   0  0  0  0  0  0  0  0  0  0  0  0
   44.1520   35.3900   41.8160 N   0  0  0  0  0  0  0  0  0  0  0  0
   42.9880   34.7650   41.2910 C   0  0  0  0  0  0  0  0  0  0  0  0
   42.6160   33.6250   41.7980 N   0  0  0  0  0  0  0  0  0  0  0  0
   42.2490   35.3940   40.2230 N   0  0  0  0  0  0  0  0  0  0  0  0
   41.7600   33.1900   41.3930 H   0  0  0  0  0  0  0  0  0  0  0  0
   47.2510   31.7130   43.4410 C   0  0  0  0  0  0  0  0  0  0  0  0
   48.6240   31.4760   43.1200 N   0  0  0  0  0  0  0  0  0  0  0  0
   49.4170   30.4350   43.3200 N   0  0  0  0  0  0  0  0  0  0  0  0
   50.6490   30.6430   42.8540 C   0  0  0  0  0  0  0  0  0  0  0  0
   50.6290   31.9080   42.3190 C   0  0  0  0  0  0  0  0  0  0  0  0
   49.3340   32.4230   42.4970 C   0  0  0  0  0  0  0  0  0  0  0  0
   49.1620   33.7800   41.9700 C   0  0  0  0  0  0  0  0  0  0  0  0
   48.5020   34.1940   40.8210 C   0  0  0  0  0  0  0  0  0  0  0  0
   48.5650   35.5180   40.6760 N   0  0  0  0  0  0  0  0  0  0  0  0
   49.2690   36.0080   41.7220 C   0  0  0  0  0  0  0  0  0  0  0  0
   49.6000   34.9480   42.4600 N   0  0  0  0  0  0  0  0  0  0  0  0
   48.0067   33.1032   44.9220 H   0  0  0  0  0  0  0  0  0  0  0  0
   46.6893   32.0123   45.5060 H   0  0  0  0  0  0  0  0  0  0  0  0
   45.9548   34.0440   46.5048 H   0  0  0  0  0  0  0  0  0  0  0  0
   44.2407   35.8685   46.2999 H   0  0  0  0  0  0  0  0  0  0  0  0
   44.6137   36.1427   41.2857 H   0  0  0  0  0  0  0  0  0  0  0  0
   42.5651   36.2963   39.8398 H   0  0  0  0  0  0  0  0  0  0  0  0
   41.4054   34.9407   39.8439 H   0  0  0  0  0  0  0  0  0  0  0  0
   46.7704   30.7450   43.6461 H   0  0  0  0  0  0  0  0  0  0  0  0
   46.8042   32.2296   42.5788 H   0  0  0  0  0  0  0  0  0  0  0  0
   51.5012   29.9484   42.8903 H   0  0  0  0  0  0  0  0  0  0  0  0
   51.4734   32.4240   41.8386 H   0  0  0  0  0  0  0  0  0  0  0  0
   47.9924   33.5166   40.1200 H   0  0  0  0  0  0  0  0  0  0  0  0
   49.5167   37.0609   41.9220 H   0  0  0  0  0  0  0  0  0  0  0  0
   50.1450   35.0205   43.3310 H   0  0  0  0  0  0  0  0  0  0  0  0
  2  1  1  0
  2  3  2  0
  4  3  1  0
  5  4  2  0
  6  7  2  0
  6  5  1  0
  7  2  1  0
  8  6  1  0
  9 10  2  0
  9  8  1  0
 11  9  1  0
 12 10  1  0
 13  1  1  0
 14 15  1  0
 14 13  1  0
 16 15  2  0
 17 18  2  0
 17 16  1  0
 18 14  1  0
 19 23  1  0
 19 18  1  0
 20 19  2  0
 21 20  1  0
 21 22  2  0
 22 23  1  0
  1 24  1  0
  1 25  1  0
  3 26  1  0
  4 27  1  0
  8 28  1  0
 11 29  1  0
 11 30  1  0
 13 31  1  0
 13 32  1  0
 16 33  1  0
 17 34  1  0
 20 35  1  0
 22 36  1  0
 23 37  1  0
M  ISO  8  24   8  25   8  26  14  27  14  31   8  32   8  33  14  34  14
M  ISO  3  35  14  36  14  37   9
M  END
>  <minimizedAffinity>  (1) 
-5.28115606

>  <minimizedRMSD>  (1) 
0.985429585

$$$$
