
     RDKit          3D

 29 31  0  0  0  0  0  0  0  0999 V2000
   45.7700   33.2610   45.8620 C   0  0  0  0  0  0  0  0  0  0  0  0
   45.1400   33.2840   47.0850 C   0  0  0  0  0  0  0  0  0  0  0  0
   45.6170   32.5480   48.1480 C   0  0  0  0  0  0  0  0  0  0  0  0
   46.7450   31.7610   48.0160 C   0  0  0  0  0  0  0  0  0  0  0  0
   47.3210   31.7890   46.7590 C   0  0  0  0  0  0  0  0  0  0  0  0
   46.9010   32.4910   45.6780 C   0  0  0  0  0  0  0  0  0  0  0  0
   44.7230   36.1170   43.8320 C   0  0  0  0  0  0  0  0  0  0  0  0
   44.2870   35.5040   42.6520 C   0  0  0  0  0  0  0  0  0  0  0  0
   44.3490   34.1300   42.5490 C   0  0  0  0  0  0  0  0  0  0  0  0
   44.8430   33.4070   43.6230 N   0  0  0  0  0  0  0  0  0  0  0  0
   45.2550   34.0450   44.7480 C   0  0  0  0  0  0  0  0  0  0  0  0
   45.1930   35.3930   44.8480 N   0  0  0  0  0  0  0  0  0  0  0  0
   43.9190   33.4720   41.3740 N   0  0  0  0  0  0  0  0  0  0  0  0
   47.5530   32.4630   44.4230 N   0  0  0  0  0  0  0  0  0  0  0  0
   48.1150   33.2990   43.5740 N   0  0  0  0  0  0  0  0  0  0  0  0
   48.5820   32.6330   42.4980 C   0  0  0  0  0  0  0  0  0  0  0  0
   48.3020   31.2940   42.6710 C   0  0  0  0  0  0  0  0  0  0  0  0
   47.6460   31.2050   43.9020 C   0  0  0  0  0  0  0  0  0  0  0  0
   44.2390   33.9012   47.2167 H   0  0  0  0  0  0  0  0  0  0  0  0
   45.0928   32.5876   49.1143 H   0  0  0  0  0  0  0  0  0  0  0  0
   47.1518   31.1610   48.8434 H   0  0  0  0  0  0  0  0  0  0  0  0
   48.2213   31.1722   46.6208 H   0  0  0  0  0  0  0  0  0  0  0  0
   44.6773   37.2123   43.9226 H   0  0  0  0  0  0  0  0  0  0  0  0
   43.9005   36.1092   41.8187 H   0  0  0  0  0  0  0  0  0  0  0  0
   43.9708   32.4453   41.3104 H   0  0  0  0  0  0  0  0  0  0  0  0
   43.5539   34.0193   40.5815 H   0  0  0  0  0  0  0  0  0  0  0  0
   49.0960   33.0797   41.6341 H   0  0  0  0  0  0  0  0  0  0  0  0
   48.5440   30.4692   41.9845 H   0  0  0  0  0  0  0  0  0  0  0  0
   47.2705   30.2826   44.3691 H   0  0  0  0  0  0  0  0  0  0  0  0
  1  2  2  0
  2  3  1  0
  4  3  2  0
  5  4  1  0
  6  1  1  0
  6  5  2  0
  7 12  2  0
  8  7  1  0
  9  8  2  0
  9 10  1  0
 10 11  2  0
 11 12  1  0
 11  1  1  0
 13  9  1  0
 14  6  1  0
 15 14  1  0
 16 17  1  0
 16 15  2  0
 17 18  2  0
 18 14  1  0
  2 19  1  0
  3 20  1  0
  4 21  1  0
  5 22  1  0
  7 23  1  0
  8 24  1  0
 13 25  1  0
 13 26  1  0
 16 27  1  0
 17 28  1  0
 18 29  1  0
M  ISO  8  19  14  20  14  21  14  22  14  23  14  24  14  27  14  28  14
M  ISO  1  29  14
M  END
>  <minimizedAffinity>  (1) 
-4.42421532

>  <minimizedRMSD>  (1) 
1.42200267

$$$$
