
     RDKit          3D

 42 46  0  0  0  0  0  0  0  0999 V2000
   45.8790   32.9490   46.0660 C   0  0  0  0  0  0  0  0  0  0  0  0
   45.4920   33.0900   47.3890 C   0  0  0  0  0  0  0  0  0  0  0  0
   45.6770   32.0810   48.2920 C   0  0  0  0  0  0  0  0  0  0  0  0
   46.2540   30.8870   47.9280 C   0  0  0  0  0  0  0  0  0  0  0  0
   46.6260   30.7980   46.5790 C   0  0  0  0  0  0  0  0  0  0  0  0
   46.4650   31.7700   45.6380 C   0  0  0  0  0  0  0  0  0  0  0  0
   46.8880   31.5470   44.3040 N   0  0  0  0  0  0  0  0  0  0  0  0
   45.9830   31.0580   43.4340 C   0  0  0  0  0  0  0  0  0  0  0  0
   46.5760   30.9140   42.2150 N   0  0  0  0  0  0  0  0  0  0  0  0
   47.8660   31.3270   42.3620 C   0  0  0  0  0  0  0  0  0  0  0  0
   48.0350   31.7110   43.6510 N   0  0  0  0  0  0  0  0  0  0  0  0
   48.8420   31.3410   41.3250 N   0  0  0  0  0  0  0  0  0  0  0  0
   49.9900   30.6180   41.4730 C   0  0  0  0  0  0  0  0  0  0  0  0
   50.7810   30.7560   40.3990 N   0  0  0  0  0  0  0  0  0  0  0  0
   50.1630   31.5670   39.5410 C   0  0  0  0  0  0  0  0  0  0  0  0
   50.3840   32.1210   38.2880 C   0  0  0  0  0  0  0  0  0  0  0  0
   51.4700   31.8220   37.7160 O   0  0  0  0  0  0  0  0  0  0  0  0
   49.4850   32.9480   37.6920 N   0  0  0  0  0  0  0  0  0  0  0  0
   48.3230   33.2480   38.3430 C   0  0  0  0  0  0  0  0  0  0  0  0
   47.4900   34.1340   37.5680 N   0  0  0  0  0  0  0  0  0  0  0  0
   48.0510   32.7410   39.5600 N   0  0  0  0  0  0  0  0  0  0  0  0
   48.9620   31.9260   40.1200 C   0  0  0  0  0  0  0  0  0  0  0  0
   44.5620   35.9710   44.5020 C   0  0  0  0  0  0  0  0  0  0  0  0
   45.3110   36.0350   43.3150 C   0  0  0  0  0  0  0  0  0  0  0  0
   46.2560   35.0480   43.0590 C   0  0  0  0  0  0  0  0  0  0  0  0
   46.4190   34.0560   43.9760 N   0  0  0  0  0  0  0  0  0  0  0  0
   45.6790   34.0280   45.1080 C   0  0  0  0  0  0  0  0  0  0  0  0
   44.7490   34.9770   45.3830 N   0  0  0  0  0  0  0  0  0  0  0  0
   47.0230   35.0820   41.8830 N   0  0  0  0  0  0  0  0  0  0  0  0
   45.0275   34.0311   47.7184 H   0  0  0  0  0  0  0  0  0  0  0  0
   45.3569   32.2274   49.3342 H   0  0  0  0  0  0  0  0  0  0  0  0
   46.4117   30.0643   48.6409 H   0  0  0  0  0  0  0  0  0  0  0  0
   47.0906   29.8567   46.2502 H   0  0  0  0  0  0  0  0  0  0  0  0
   44.9363   30.8146   43.6690 H   0  0  0  0  0  0  0  0  0  0  0  0
   50.2334   30.0053   42.3536 H   0  0  0  0  0  0  0  0  0  0  0  0
   49.6780   33.3435   36.7607 H   0  0  0  0  0  0  0  0  0  0  0  0
   46.5807   34.4429   37.9403 H   0  0  0  0  0  0  0  0  0  0  0  0
   47.8044   34.4579   36.6422 H   0  0  0  0  0  0  0  0  0  0  0  0
   43.8114   36.7473   44.7119 H   0  0  0  0  0  0  0  0  0  0  0  0
   45.1520   36.8543   42.5985 H   0  0  0  0  0  0  0  0  0  0  0  0
   47.7208   34.3464   41.7018 H   0  0  0  0  0  0  0  0  0  0  0  0
   46.8877   35.8425   41.2017 H   0  0  0  0  0  0  0  0  0  0  0  0
  1  2  2  0
  2  3  1  0
  4  3  2  0
  5  4  1  0
  6  1  1  0
  6  5  2  0
  7  6  1  0
  8  7  1  0
  9 10  1  0
  9  8  2  0
 10 11  2  0
 11  7  1  0
 12 13  1  0
 12 10  1  0
 14 13  2  0
 15 22  2  0
 15 14  1  0
 16 15  1  0
 17 16  2  0
 18 16  1  0
 18 19  1  0
 19 21  2  0
 20 19  1  0
 21 22  1  0
 22 12  1  0
 23 28  2  0
 24 23  1  0
 25 24  2  0
 25 26  1  0
 26 27  2  0
 27 28  1  0
 27  1  1  0
 29 25  1  0
  2 30  1  0
  3 31  1  0
  4 32  1  0
  5 33  1  0
  8 34  1  0
 13 35  1  0
 18 36  1  0
 20 37  1  0
 20 38  1  0
 23 39  1  0
 24 40  1  0
 29 41  1  0
 29 42  1  0
M  ISO  8  30  14  31  14  32  14  33  14  34  14  35  14  36   9  39  14
M  ISO  1  40  14
M  END
>  <minimizedAffinity>  (1) 
-6.85318708

>  <minimizedRMSD>  (1) 
0.384608448

$$$$
