
     RDKit          3D

 42 46  0  0  0  0  0  0  0  0999 V2000
   45.8270   32.9120   46.2740 C   0  0  0  0  0  0  0  0  0  0  0  0
   45.3820   33.0040   47.5730 C   0  0  0  0  0  0  0  0  0  0  0  0
   45.6070   31.9920   48.4720 C   0  0  0  0  0  0  0  0  0  0  0  0
   46.2850   30.8550   48.1030 C   0  0  0  0  0  0  0  0  0  0  0  0
   46.7110   30.8190   46.7750 C   0  0  0  0  0  0  0  0  0  0  0  0
   46.5130   31.7940   45.8450 C   0  0  0  0  0  0  0  0  0  0  0  0
   44.4610   35.9600   44.7820 C   0  0  0  0  0  0  0  0  0  0  0  0
   45.1410   36.0090   43.5450 C   0  0  0  0  0  0  0  0  0  0  0  0
   46.0410   35.0140   43.2430 C   0  0  0  0  0  0  0  0  0  0  0  0
   46.2510   34.0180   44.1420 N   0  0  0  0  0  0  0  0  0  0  0  0
   45.5800   33.9950   45.3330 C   0  0  0  0  0  0  0  0  0  0  0  0
   44.6900   34.9610   45.6500 N   0  0  0  0  0  0  0  0  0  0  0  0
   46.7470   35.0250   42.0090 N   0  0  0  0  0  0  0  0  0  0  0  0
   47.0000   31.6290   44.5300 N   0  0  0  0  0  0  0  0  0  0  0  0
   46.2400   30.9150   43.6700 C   0  0  0  0  0  0  0  0  0  0  0  0
   46.8880   30.8750   42.4610 N   0  0  0  0  0  0  0  0  0  0  0  0
   48.0370   31.5690   42.6030 C   0  0  0  0  0  0  0  0  0  0  0  0
   48.0870   32.0180   43.8650 N   0  0  0  0  0  0  0  0  0  0  0  0
   49.0210   31.7690   41.5440 C   0  0  0  0  0  0  0  0  0  0  0  0
   48.8240   32.5310   40.4130 C   0  0  0  0  0  0  0  0  0  0  0  0
   49.9430   32.4940   39.6500 N   0  0  0  0  0  0  0  0  0  0  0  0
   50.8130   31.7210   40.3030 C   0  0  0  0  0  0  0  0  0  0  0  0
   52.0900   31.3670   39.9550 C   0  0  0  0  0  0  0  0  0  0  0  0
   52.8460   30.5460   40.7700 C   0  0  0  0  0  0  0  0  0  0  0  0
   52.3320   30.0580   41.9640 C   0  0  0  0  0  0  0  0  0  0  0  0
   51.0340   30.4200   42.3170 C   0  0  0  0  0  0  0  0  0  0  0  0
   50.2930   31.2410   41.4890 C   0  0  0  0  0  0  0  0  0  0  0  0
   44.8371   33.9034   47.8959 H   0  0  0  0  0  0  0  0  0  0  0  0
   45.2391   32.0924   49.5038 H   0  0  0  0  0  0  0  0  0  0  0  0
   46.4783   30.0310   48.8056 H   0  0  0  0  0  0  0  0  0  0  0  0
   47.2566   29.9211   46.4493 H   0  0  0  0  0  0  0  0  0  0  0  0
   43.7368   36.7477   45.0370 H   0  0  0  0  0  0  0  0  0  0  0  0
   44.9540   36.8287   42.8356 H   0  0  0  0  0  0  0  0  0  0  0  0
   47.4188   34.2746   41.7933 H   0  0  0  0  0  0  0  0  0  0  0  0
   46.5867   35.7834   41.3307 H   0  0  0  0  0  0  0  0  0  0  0  0
   45.2710   30.4475   43.8993 H   0  0  0  0  0  0  0  0  0  0  0  0
   47.9040   33.0821   40.1683 H   0  0  0  0  0  0  0  0  0  0  0  0
   50.0922   32.9673   38.7474 H   0  0  0  0  0  0  0  0  0  0  0  0
   52.5194   31.7414   39.0140 H   0  0  0  0  0  0  0  0  0  0  0  0
   53.8688   30.2755   40.4687 H   0  0  0  0  0  0  0  0  0  0  0  0
   52.9329   29.4039   42.6129 H   0  0  0  0  0  0  0  0  0  0  0  0
   50.5980   30.0513   43.2572 H   0  0  0  0  0  0  0  0  0  0  0  0
  1  2  2  0
  2  3  1  0
  4  3  2  0
  5  4  1  0
  6  1  1  0
  6  5  2  0
  7 12  2  0
  8  7  1  0
  9  8  2  0
  9 10  1  0
 10 11  2  0
 11 12  1  0
 11  1  1  0
 13  9  1  0
 14  6  1  0
 15 14  1  0
 16 17  1  0
 16 15  2  0
 17 18  2  0
 18 14  1  0
 19 17  1  0
 20 19  2  0
 21 22  1  0
 21 20  1  0
 22 27  2  0
 23 22  1  0
 23 24  2  0
 24 25  1  0
 25 26  2  0
 27 19  1  0
 27 26  1  0
  2 28  1  0
  3 29  1  0
  4 30  1  0
  5 31  1  0
  7 32  1  0
  8 33  1  0
 13 34  1  0
 13 35  1  0
 15 36  1  0
 20 37  1  0
 21 38  1  0
 23 39  1  0
 24 40  1  0
 25 41  1  0
 26 42  1  0
M  ISO  8  28  14  29  14  30  14  31  14  32  14  33  14  36  14  37  14
M  ISO  5  38   9  39  14  40  14  41  14  42  14
M  END
>  <minimizedAffinity>  (1) 
-6.22191238

>  <minimizedRMSD>  (1) 
0.621351242

$$$$
