
     RDKit          3D

 41 44  0  0  0  0  0  0  0  0999 V2000
   45.9320   32.9990   46.0220 C   0  0  0  0  0  0  0  0  0  0  0  0
   45.4510   33.0730   47.3140 C   0  0  0  0  0  0  0  0  0  0  0  0
   45.7320   32.0980   48.2320 C   0  0  0  0  0  0  0  0  0  0  0  0
   46.5090   31.0040   47.9060 C   0  0  0  0  0  0  0  0  0  0  0  0
   46.9650   30.9830   46.5940 C   0  0  0  0  0  0  0  0  0  0  0  0
   46.7200   31.9120   45.6460 C   0  0  0  0  0  0  0  0  0  0  0  0
   47.2560   31.7630   44.3320 N   0  0  0  0  0  0  0  0  0  0  0  0
   46.6210   30.9540   43.4780 C   0  0  0  0  0  0  0  0  0  0  0  0
   47.2810   30.9470   42.2930 N   0  0  0  0  0  0  0  0  0  0  0  0
   48.3440   31.7720   42.4290 C   0  0  0  0  0  0  0  0  0  0  0  0
   48.3010   32.2570   43.6890 N   0  0  0  0  0  0  0  0  0  0  0  0
   49.3970   32.1800   41.5620 N   0  0  0  0  0  0  0  0  0  0  0  0
   50.8400   31.9870   41.7730 C   0  0  0  0  0  0  0  0  0  0  0  0
   51.4030   31.5780   40.4540 C   0  0  0  0  0  0  0  0  0  0  0  0
   50.4920   31.0330   39.5700 O   0  0  0  0  0  0  0  0  0  0  0  0
   49.4420   31.8470   39.2230 C   0  0  0  0  0  0  0  0  0  0  0  0
   49.0940   32.8730   40.3050 C   0  0  0  0  0  0  0  0  0  0  0  0
   44.5150   35.9990   44.4970 C   0  0  0  0  0  0  0  0  0  0  0  0
   45.0800   35.9700   43.2110 C   0  0  0  0  0  0  0  0  0  0  0  0
   45.9380   34.9320   42.8750 C   0  0  0  0  0  0  0  0  0  0  0  0
   46.2020   33.9670   43.8150 N   0  0  0  0  0  0  0  0  0  0  0  0
   45.6290   34.0370   45.0540 C   0  0  0  0  0  0  0  0  0  0  0  0
   44.7930   35.0430   45.3930 N   0  0  0  0  0  0  0  0  0  0  0  0
   46.5220   34.8700   41.5980 N   0  0  0  0  0  0  0  0  0  0  0  0
   44.8305   33.9314   47.6108 H   0  0  0  0  0  0  0  0  0  0  0  0
   45.3301   32.1876   49.2520 H   0  0  0  0  0  0  0  0  0  0  0  0
   46.7484   30.2105   48.6293 H   0  0  0  0  0  0  0  0  0  0  0  0
   47.5868   30.1250   46.2987 H   0  0  0  0  0  0  0  0  0  0  0  0
   45.7072   30.3838   43.7011 H   0  0  0  0  0  0  0  0  0  0  0  0
   51.3046   32.9249   42.1115 H   0  0  0  0  0  0  0  0  0  0  0  0
   51.0339   31.2271   42.5443 H   0  0  0  0  0  0  0  0  0  0  0  0
   51.8451   32.4677   39.9819 H   0  0  0  0  0  0  0  0  0  0  0  0
   52.1347   30.7846   40.6667 H   0  0  0  0  0  0  0  0  0  0  0  0
   49.7068   32.3862   38.3015 H   0  0  0  0  0  0  0  0  0  0  0  0
   48.5602   31.2040   39.0852 H   0  0  0  0  0  0  0  0  0  0  0  0
   49.7107   33.7777   40.1988 H   0  0  0  0  0  0  0  0  0  0  0  0
   48.0483   33.2096   40.2486 H   0  0  0  0  0  0  0  0  0  0  0  0
   43.8347   36.8185   44.7719 H   0  0  0  0  0  0  0  0  0  0  0  0
   44.8457   36.7587   42.4808 H   0  0  0  0  0  0  0  0  0  0  0  0
   47.1573   34.0952   41.3593 H   0  0  0  0  0  0  0  0  0  0  0  0
   46.3146   35.5994   40.9009 H   0  0  0  0  0  0  0  0  0  0  0  0
  1  2  2  0
  2  3  1  0
  4  3  2  0
  5  4  1  0
  6  1  1  0
  6  5  2  0
  7  6  1  0
  8  7  1  0
  9 10  1  0
  9  8  2  0
 10 11  2  0
 11  7  1  0
 12 13  1  0
 12 10  1  0
 14 13  1  0
 15 14  1  0
 16 15  1  0
 16 17  1  0
 17 12  1  0
 18 23  2  0
 19 18  1  0
 20 19  2  0
 20 21  1  0
 21 22  2  0
 22 23  1  0
 22  1  1  0
 24 20  1  0
  2 25  1  0
  3 26  1  0
  4 27  1  0
  5 28  1  0
  8 29  1  0
 13 30  1  0
 13 31  1  0
 14 32  1  0
 14 33  1  0
 16 34  1  0
 16 35  1  0
 17 36  1  0
 17 37  1  0
 18 38  1  0
 19 39  1  0
 24 40  1  0
 24 41  1  0
M  ISO  8  25  14  26  14  27  14  28  14  29  14  30  13  31  13  32  13
M  ISO  7  33  13  34  13  35  13  36  13  37  13  38  14  39  14
M  END
>  <minimizedAffinity>  (1) 
-5.84467316

>  <minimizedRMSD>  (1) 
0.938123345

$$$$
