
     RDKit          3D

 35 38  0  0  0  0  0  0  0  0999 V2000
   45.8180   32.9910   46.1490 C   0  0  0  0  0  0  0  0  0  0  0  0
   45.3710   33.1530   47.4420 C   0  0  0  0  0  0  0  0  0  0  0  0
   45.5410   32.1600   48.3700 C   0  0  0  0  0  0  0  0  0  0  0  0
   46.1620   30.9680   48.0470 C   0  0  0  0  0  0  0  0  0  0  0  0
   46.5880   30.8680   46.7280 C   0  0  0  0  0  0  0  0  0  0  0  0
   46.4470   31.8110   45.7740 C   0  0  0  0  0  0  0  0  0  0  0  0
   46.9340   31.5760   44.4510 N   0  0  0  0  0  0  0  0  0  0  0  0
   46.1190   30.9420   43.5860 C   0  0  0  0  0  0  0  0  0  0  0  0
   46.7660   30.8160   42.3880 N   0  0  0  0  0  0  0  0  0  0  0  0
   47.9840   31.3820   42.5420 C   0  0  0  0  0  0  0  0  0  0  0  0
   48.0580   31.8390   43.8130 N   0  0  0  0  0  0  0  0  0  0  0  0
   49.0570   31.5290   41.6200 N   0  0  0  0  0  0  0  0  0  0  0  0
   50.1930   32.0190   42.1540 C   0  0  0  0  0  0  0  0  0  0  0  0
   51.1340   32.0980   41.1280 C   0  0  0  0  0  0  0  0  0  0  0  0
   50.5250   31.6530   40.0180 N   0  0  0  0  0  0  0  0  0  0  0  0
   49.2470   31.3020   40.3170 C   0  0  0  0  0  0  0  0  0  0  0  0
   44.5220   35.9800   44.4780 C   0  0  0  0  0  0  0  0  0  0  0  0
   45.3160   36.0190   43.2970 C   0  0  0  0  0  0  0  0  0  0  0  0
   46.2690   35.0290   43.1030 C   0  0  0  0  0  0  0  0  0  0  0  0
   46.4060   34.0600   44.0490 N   0  0  0  0  0  0  0  0  0  0  0  0
   45.6350   34.0520   45.1580 C   0  0  0  0  0  0  0  0  0  0  0  0
   44.6940   35.0050   45.3800 N   0  0  0  0  0  0  0  0  0  0  0  0
   47.0680   35.0410   41.9510 N   0  0  0  0  0  0  0  0  0  0  0  0
   44.8724   34.0896   47.7322 H   0  0  0  0  0  0  0  0  0  0  0  0
   45.1750   32.3146   49.3957 H   0  0  0  0  0  0  0  0  0  0  0  0
   46.3079   30.1597   48.7787 H   0  0  0  0  0  0  0  0  0  0  0  0
   47.0867   29.9325   46.4346 H   0  0  0  0  0  0  0  0  0  0  0  0
   45.1022   30.5850   43.8066 H   0  0  0  0  0  0  0  0  0  0  0  0
   50.3491   32.3040   43.2049 H   0  0  0  0  0  0  0  0  0  0  0  0
   52.1711   32.4548   41.2119 H   0  0  0  0  0  0  0  0  0  0  0  0
   48.5023   30.9026   39.6128 H   0  0  0  0  0  0  0  0  0  0  0  0
   43.7619   36.7561   44.6509 H   0  0  0  0  0  0  0  0  0  0  0  0
   45.1770   36.8176   42.5534 H   0  0  0  0  0  0  0  0  0  0  0  0
   47.7753   34.3062   41.8071 H   0  0  0  0  0  0  0  0  0  0  0  0
   46.9477   35.7846   41.2486 H   0  0  0  0  0  0  0  0  0  0  0  0
  1  2  2  0
  2  3  1  0
  4  3  2  0
  5  4  1  0
  6  1  1  0
  6  5  2  0
  7  6  1  0
  8  7  1  0
  9 10  1  0
  9  8  2  0
 10 11  2  0
 11  7  1  0
 12 13  1  0
 12 10  1  0
 14 13  2  0
 15 16  2  0
 15 14  1  0
 16 12  1  0
 17 22  2  0
 18 17  1  0
 19 18  2  0
 19 20  1  0
 20 21  2  0
 21 22  1  0
 21  1  1  0
 23 19  1  0
  2 24  1  0
  3 25  1  0
  4 26  1  0
  5 27  1  0
  8 28  1  0
 13 29  1  0
 14 30  1  0
 16 31  1  0
 17 32  1  0
 18 33  1  0
 23 34  1  0
 23 35  1  0
M  ISO  8  24  14  25  14  26  14  27  14  28  14  29  14  30  14  31  14
M  ISO  2  32  14  33  14
M  END
>  <minimizedAffinity>  (1) 
-5.65719938

>  <minimizedRMSD>  (1) 
0.3962304

$$$$
