
     RDKit          3D

 42 46  0  0  0  0  0  0  0  0999 V2000
   45.7720   32.9420   46.3590 C   0  0  0  0  0  0  0  0  0  0  0  0
   45.4620   33.1560   47.6860 C   0  0  0  0  0  0  0  0  0  0  0  0
   45.6420   32.1610   48.6250 C   0  0  0  0  0  0  0  0  0  0  0  0
   46.1340   30.9260   48.2770 C   0  0  0  0  0  0  0  0  0  0  0  0
   46.4300   30.7660   46.9250 C   0  0  0  0  0  0  0  0  0  0  0  0
   46.2720   31.7080   45.9590 C   0  0  0  0  0  0  0  0  0  0  0  0
   44.4750   35.9120   44.6990 C   0  0  0  0  0  0  0  0  0  0  0  0
   45.2490   35.9420   43.5030 C   0  0  0  0  0  0  0  0  0  0  0  0
   46.1890   34.9560   43.2920 C   0  0  0  0  0  0  0  0  0  0  0  0
   46.3380   33.9900   44.2400 N   0  0  0  0  0  0  0  0  0  0  0  0
   45.5810   33.9930   45.3700 C   0  0  0  0  0  0  0  0  0  0  0  0
   44.6550   34.9430   45.6040 N   0  0  0  0  0  0  0  0  0  0  0  0
   46.9790   34.9430   42.1260 N   0  0  0  0  0  0  0  0  0  0  0  0
   46.6100   31.4100   44.6080 N   0  0  0  0  0  0  0  0  0  0  0  0
   45.7190   30.7790   43.8480 C   0  0  0  0  0  0  0  0  0  0  0  0
   46.2630   30.6070   42.6120 N   0  0  0  0  0  0  0  0  0  0  0  0
   47.5000   31.1340   42.6100 C   0  0  0  0  0  0  0  0  0  0  0  0
   47.6600   31.6090   43.8490 N   0  0  0  0  0  0  0  0  0  0  0  0
   48.6280   31.3150   41.6950 C   0  0  0  0  0  0  0  0  0  0  0  0
   49.9210   31.0820   41.9990 N   0  0  0  0  0  0  0  0  0  0  0  0
   50.9420   31.2510   41.1540 C   0  0  0  0  0  0  0  0  0  0  0  0
   50.7400   31.6840   39.8910 N   0  0  0  0  0  0  0  0  0  0  0  0
   49.4690   31.9500   39.4760 C   0  0  0  0  0  0  0  0  0  0  0  0
   49.2860   32.3840   38.2010 C   0  0  0  0  0  0  0  0  0  0  0  0
   48.0210   32.6640   37.7430 C   0  0  0  0  0  0  0  0  0  0  0  0
   46.9570   32.4920   38.6140 C   0  0  0  0  0  0  0  0  0  0  0  0
   47.2260   32.0470   39.8920 C   0  0  0  0  0  0  0  0  0  0  0  0
   48.4580   31.7540   40.4000 C   0  0  0  0  0  0  0  0  0  0  0  0
   45.0659   34.1330   47.9999 H   0  0  0  0  0  0  0  0  0  0  0  0
   45.3859   32.3609   49.6759 H   0  0  0  0  0  0  0  0  0  0  0  0
   46.2833   30.1219   49.0126 H   0  0  0  0  0  0  0  0  0  0  0  0
   46.8273   29.7893   46.6116 H   0  0  0  0  0  0  0  0  0  0  0  0
   43.7220   36.6932   44.8801 H   0  0  0  0  0  0  0  0  0  0  0  0
   45.0988   36.7391   42.7600 H   0  0  0  0  0  0  0  0  0  0  0  0
   47.6766   34.1985   41.9849 H   0  0  0  0  0  0  0  0  0  0  0  0
   46.8591   35.6780   41.4145 H   0  0  0  0  0  0  0  0  0  0  0  0
   44.7169   30.4529   44.1634 H   0  0  0  0  0  0  0  0  0  0  0  0
   51.9655   31.0335   41.4932 H   0  0  0  0  0  0  0  0  0  0  0  0
   50.1519   32.5113   37.5347 H   0  0  0  0  0  0  0  0  0  0  0  0
   47.8575   33.0150   36.7134 H   0  0  0  0  0  0  0  0  0  0  0  0
   45.9259   32.7045   38.2951 H   0  0  0  0  0  0  0  0  0  0  0  0
   46.3658   31.9160   40.5650 H   0  0  0  0  0  0  0  0  0  0  0  0
  1  2  2  0
  2  3  1  0
  4  3  2  0
  5  4  1  0
  6  1  1  0
  6  5  2  0
  7 12  2  0
  8  7  1  0
  9  8  2  0
  9 10  1  0
 10 11  2  0
 11 12  1  0
 11  1  1  0
 13  9  1  0
 14  6  1  0
 15 14  1  0
 16 15  2  0
 17 16  1  0
 17 18  2  0
 18 14  1  0
 19 20  2  0
 19 17  1  0
 21 20  1  0
 22 21  2  0
 23 22  1  0
 23 28  2  0
 24 23  1  0
 25 24  2  0
 25 26  1  0
 26 27  2  0
 27 28  1  0
 28 19  1  0
  2 29  1  0
  3 30  1  0
  4 31  1  0
  5 32  1  0
  7 33  1  0
  8 34  1  0
 13 35  1  0
 13 36  1  0
 15 37  1  0
 21 38  1  0
 24 39  1  0
 25 40  1  0
 26 41  1  0
 27 42  1  0
M  ISO  8  29  14  30  14  31  14  32  14  33  14  34  14  37  14  38  14
M  ISO  4  39  14  40  14  41  14  42  14
M  END
>  <minimizedAffinity>  (1) 
-5.83075523

>  <minimizedRMSD>  (1) 
0.985595644

$$$$
