
     RDKit          3D

 36 39  0  0  0  0  0  0  0  0999 V2000
   45.7870   32.9120   46.3120 C   0  0  0  0  0  0  0  0  0  0  0  0
   45.3480   33.0470   47.6140 C   0  0  0  0  0  0  0  0  0  0  0  0
   45.5230   32.0590   48.5390 C   0  0  0  0  0  0  0  0  0  0  0  0
   46.1520   30.8770   48.2010 C   0  0  0  0  0  0  0  0  0  0  0  0
   46.5800   30.7840   46.8730 C   0  0  0  0  0  0  0  0  0  0  0  0
   46.4270   31.7420   45.9230 C   0  0  0  0  0  0  0  0  0  0  0  0
   44.4960   35.9170   44.6970 C   0  0  0  0  0  0  0  0  0  0  0  0
   45.2440   35.9560   43.4970 C   0  0  0  0  0  0  0  0  0  0  0  0
   46.1720   34.9550   43.2710 C   0  0  0  0  0  0  0  0  0  0  0  0
   46.3340   33.9670   44.2050 N   0  0  0  0  0  0  0  0  0  0  0  0
   45.5940   33.9690   45.3420 C   0  0  0  0  0  0  0  0  0  0  0  0
   44.6780   34.9330   45.5960 N   0  0  0  0  0  0  0  0  0  0  0  0
   46.9430   34.9550   42.0840 N   0  0  0  0  0  0  0  0  0  0  0  0
   46.9080   31.5220   44.6080 N   0  0  0  0  0  0  0  0  0  0  0  0
   46.1050   30.9020   43.7320 C   0  0  0  0  0  0  0  0  0  0  0  0
   46.7540   30.7900   42.5350 N   0  0  0  0  0  0  0  0  0  0  0  0
   47.9720   31.3570   42.7020 C   0  0  0  0  0  0  0  0  0  0  0  0
   48.0460   31.7950   43.9670 N   0  0  0  0  0  0  0  0  0  0  0  0
   49.0130   31.4680   41.6840 C   0  0  0  0  0  0  0  0  0  0  0  0
   50.3190   31.7260   42.0460 C   0  0  0  0  0  0  0  0  0  0  0  0
   51.2170   31.8110   41.0010 C   0  0  0  0  0  0  0  0  0  0  0  0
   50.9220   31.6630   39.6940 N   0  0  0  0  0  0  0  0  0  0  0  0
   49.6320   31.4110   39.4060 C   0  0  0  0  0  0  0  0  0  0  0  0
   48.6880   31.3150   40.3870 N   0  0  0  0  0  0  0  0  0  0  0  0
   44.8430   33.9770   47.9142 H   0  0  0  0  0  0  0  0  0  0  0  0
   45.1586   32.2060   49.5664 H   0  0  0  0  0  0  0  0  0  0  0  0
   46.3058   30.0646   48.9265 H   0  0  0  0  0  0  0  0  0  0  0  0
   47.0844   29.8540   46.5718 H   0  0  0  0  0  0  0  0  0  0  0  0
   43.7539   36.7036   44.8982 H   0  0  0  0  0  0  0  0  0  0  0  0
   45.0919   36.7609   42.7629 H   0  0  0  0  0  0  0  0  0  0  0  0
   47.6332   34.2086   41.9182 H   0  0  0  0  0  0  0  0  0  0  0  0
   46.8139   35.7014   41.3860 H   0  0  0  0  0  0  0  0  0  0  0  0
   45.0874   30.5414   43.9429 H   0  0  0  0  0  0  0  0  0  0  0  0
   50.6238   31.8551   43.0950 H   0  0  0  0  0  0  0  0  0  0  0  0
   52.2665   32.0179   41.2576 H   0  0  0  0  0  0  0  0  0  0  0  0
   49.3314   31.2794   38.3561 H   0  0  0  0  0  0  0  0  0  0  0  0
  1  2  2  0
  2  3  1  0
  4  3  2  0
  5  4  1  0
  6  1  1  0
  6  5  2  0
  7 12  2  0
  8  7  1  0
  9  8  2  0
  9 10  1  0
 10 11  2  0
 11 12  1  0
 11  1  1  0
 13  9  1  0
 14  6  1  0
 15 14  1  0
 16 17  1  0
 16 15  2  0
 17 18  2  0
 18 14  1  0
 19 20  2  0
 19 17  1  0
 21 20  1  0
 22 21  2  0
 23 22  1  0
 23 24  2  0
 24 19  1  0
  2 25  1  0
  3 26  1  0
  4 27  1  0
  5 28  1  0
  7 29  1  0
  8 30  1  0
 13 31  1  0
 13 32  1  0
 15 33  1  0
 20 34  1  0
 21 35  1  0
 23 36  1  0
M  ISO  8  25  14  26  14  27  14  28  14  29  14  30  14  33  14  34  14
M  ISO  2  35  14  36  14
M  END
>  <minimizedAffinity>  (1) 
-5.52580976

>  <minimizedRMSD>  (1) 
0.541441619

$$$$
