
     RDKit          3D

 37 40  0  0  0  0  0  0  0  0999 V2000
   45.7960   32.9090   46.2970 C   0  0  0  0  0  0  0  0  0  0  0  0
   45.3250   33.0560   47.5920 C   0  0  0  0  0  0  0  0  0  0  0  0
   45.5030   32.0560   48.5240 C   0  0  0  0  0  0  0  0  0  0  0  0
   46.1520   30.8770   48.2030 C   0  0  0  0  0  0  0  0  0  0  0  0
   46.5980   30.8020   46.8820 C   0  0  0  0  0  0  0  0  0  0  0  0
   46.4520   31.7490   45.9220 C   0  0  0  0  0  0  0  0  0  0  0  0
   44.5080   35.8970   44.6570 C   0  0  0  0  0  0  0  0  0  0  0  0
   45.2700   35.9350   43.4620 C   0  0  0  0  0  0  0  0  0  0  0  0
   46.2010   34.9420   43.2450 C   0  0  0  0  0  0  0  0  0  0  0  0
   46.3570   33.9630   44.1860 N   0  0  0  0  0  0  0  0  0  0  0  0
   45.6060   33.9670   45.3140 C   0  0  0  0  0  0  0  0  0  0  0  0
   44.6840   34.9280   45.5520 N   0  0  0  0  0  0  0  0  0  0  0  0
   46.9820   34.9400   42.0710 N   0  0  0  0  0  0  0  0  0  0  0  0
   46.9610   31.5270   44.6160 N   0  0  0  0  0  0  0  0  0  0  0  0
   46.1700   30.9090   43.7240 C   0  0  0  0  0  0  0  0  0  0  0  0
   46.8480   30.7960   42.5420 N   0  0  0  0  0  0  0  0  0  0  0  0
   48.0690   31.3610   42.7370 C   0  0  0  0  0  0  0  0  0  0  0  0
   48.1110   31.7970   44.0050 N   0  0  0  0  0  0  0  0  0  0  0  0
   49.1130   31.4570   41.7280 C   0  0  0  0  0  0  0  0  0  0  0  0
   50.4180   31.8110   42.0040 C   0  0  0  0  0  0  0  0  0  0  0  0
   51.3010   31.8580   40.9300 C   0  0  0  0  0  0  0  0  0  0  0  0
   50.8980   31.5650   39.6460 C   0  0  0  0  0  0  0  0  0  0  0  0
   49.5660   31.2120   39.4130 C   0  0  0  0  0  0  0  0  0  0  0  0
   48.7370   31.1720   40.4490 N   0  0  0  0  0  0  0  0  0  0  0  0
   44.8034   33.9808   47.8794 H   0  0  0  0  0  0  0  0  0  0  0  0
   45.1206   32.1985   49.5455 H   0  0  0  0  0  0  0  0  0  0  0  0
   46.3042   30.0650   48.9293 H   0  0  0  0  0  0  0  0  0  0  0  0
   47.1217   29.8799   46.5897 H   0  0  0  0  0  0  0  0  0  0  0  0
   43.7598   36.6806   44.8473 H   0  0  0  0  0  0  0  0  0  0  0  0
   45.1217   36.7382   42.7252 H   0  0  0  0  0  0  0  0  0  0  0  0
   47.6759   34.1949   41.9153 H   0  0  0  0  0  0  0  0  0  0  0  0
   46.8586   35.6837   41.3691 H   0  0  0  0  0  0  0  0  0  0  0  0
   45.1465   30.5528   43.9129 H   0  0  0  0  0  0  0  0  0  0  0  0
   50.7454   32.0456   43.0276 H   0  0  0  0  0  0  0  0  0  0  0  0
   52.3496   32.1368   41.1112 H   0  0  0  0  0  0  0  0  0  0  0  0
   51.6160   31.6083   38.8138 H   0  0  0  0  0  0  0  0  0  0  0  0
   49.2140   30.9737   38.3984 H   0  0  0  0  0  0  0  0  0  0  0  0
  1  2  2  0
  2  3  1  0
  4  3  2  0
  5  4  1  0
  6  1  1  0
  6  5  2  0
  7 12  2  0
  8  7  1  0
  9  8  2  0
  9 10  1  0
 10 11  2  0
 11 12  1  0
 11  1  1  0
 13  9  1  0
 14  6  1  0
 15 14  1  0
 16 17  1  0
 16 15  2  0
 17 18  2  0
 18 14  1  0
 19 20  2  0
 19 17  1  0
 21 20  1  0
 22 21  2  0
 23 22  1  0
 23 24  2  0
 24 19  1  0
  2 25  1  0
  3 26  1  0
  4 27  1  0
  5 28  1  0
  7 29  1  0
  8 30  1  0
 13 31  1  0
 13 32  1  0
 15 33  1  0
 20 34  1  0
 21 35  1  0
 22 36  1  0
 23 37  1  0
M  ISO  8  25  14  26  14  27  14  28  14  29  14  30  14  33  14  34  14
M  ISO  3  35  14  36  14  37  14
M  END
>  <minimizedAffinity>  (1) 
-5.51018858

>  <minimizedRMSD>  (1) 
0.563747942

$$$$
