
     RDKit          3D

 38 41  0  0  0  0  0  0  0  0999 V2000
   45.7670   32.9180   46.3130 C   0  0  0  0  0  0  0  0  0  0  0  0
   45.3230   33.0640   47.6190 C   0  0  0  0  0  0  0  0  0  0  0  0
   45.5020   32.0690   48.5420 C   0  0  0  0  0  0  0  0  0  0  0  0
   46.1320   30.8860   48.2000 C   0  0  0  0  0  0  0  0  0  0  0  0
   46.5560   30.7990   46.8740 C   0  0  0  0  0  0  0  0  0  0  0  0
   46.4020   31.7570   45.9180 C   0  0  0  0  0  0  0  0  0  0  0  0
   44.4860   35.9480   44.7190 C   0  0  0  0  0  0  0  0  0  0  0  0
   45.2270   35.9770   43.5020 C   0  0  0  0  0  0  0  0  0  0  0  0
   46.1360   34.9660   43.2660 C   0  0  0  0  0  0  0  0  0  0  0  0
   46.2950   33.9810   44.1950 N   0  0  0  0  0  0  0  0  0  0  0  0
   45.5640   33.9910   45.3480 C   0  0  0  0  0  0  0  0  0  0  0  0
   44.6680   34.9640   45.6110 N   0  0  0  0  0  0  0  0  0  0  0  0
   46.8940   34.9510   42.0730 N   0  0  0  0  0  0  0  0  0  0  0  0
   46.8830   31.5350   44.6040 N   0  0  0  0  0  0  0  0  0  0  0  0
   46.0600   30.9050   43.7340 C   0  0  0  0  0  0  0  0  0  0  0  0
   46.7010   30.7880   42.5360 N   0  0  0  0  0  0  0  0  0  0  0  0
   47.9210   31.3550   42.6900 C   0  0  0  0  0  0  0  0  0  0  0  0
   48.0040   31.8040   43.9650 N   0  0  0  0  0  0  0  0  0  0  0  0
   48.9310   31.4440   41.6430 C   0  0  0  0  0  0  0  0  0  0  0  0
   50.2130   31.5430   42.1850 C   0  0  0  0  0  0  0  0  0  0  0  0
   51.3340   31.6390   41.3780 C   0  0  0  0  0  0  0  0  0  0  0  0
   51.1750   31.6360   39.9980 C   0  0  0  0  0  0  0  0  0  0  0  0
   49.9070   31.5370   39.4750 C   0  0  0  0  0  0  0  0  0  0  0  0
   48.7910   31.4420   40.2700 C   0  0  0  0  0  0  0  0  0  0  0  0
   44.8187   33.9948   47.9180 H   0  0  0  0  0  0  0  0  0  0  0  0
   45.1396   32.2123   49.5706 H   0  0  0  0  0  0  0  0  0  0  0  0
   46.2876   30.0714   48.9227 H   0  0  0  0  0  0  0  0  0  0  0  0
   47.0619   29.8701   46.5722 H   0  0  0  0  0  0  0  0  0  0  0  0
   43.7555   36.7431   44.9291 H   0  0  0  0  0  0  0  0  0  0  0  0
   45.0782   36.7843   42.7698 H   0  0  0  0  0  0  0  0  0  0  0  0
   47.5710   34.1937   41.9025 H   0  0  0  0  0  0  0  0  0  0  0  0
   46.7693   35.6974   41.3742 H   0  0  0  0  0  0  0  0  0  0  0  0
   45.0438   30.5471   43.9560 H   0  0  0  0  0  0  0  0  0  0  0  0
   50.3358   31.5448   43.2781 H   0  0  0  0  0  0  0  0  0  0  0  0
   52.3367   31.7166   41.8235 H   0  0  0  0  0  0  0  0  0  0  0  0
   52.0491   31.7116   39.3344 H   0  0  0  0  0  0  0  0  0  0  0  0
   49.7822   31.5338   38.3821 H   0  0  0  0  0  0  0  0  0  0  0  0
   47.7923   31.3648   39.8154 H   0  0  0  0  0  0  0  0  0  0  0  0
  1  2  2  0
  2  3  1  0
  4  3  2  0
  5  4  1  0
  6  1  1  0
  6  5  2  0
  7 12  2  0
  8  7  1  0
  9  8  2  0
  9 10  1  0
 10 11  2  0
 11 12  1  0
 11  1  1  0
 13  9  1  0
 14  6  1  0
 15 14  1  0
 16 17  1  0
 16 15  2  0
 17 18  2  0
 18 14  1  0
 19 20  2  0
 19 17  1  0
 21 20  1  0
 22 21  2  0
 23 22  1  0
 23 24  2  0
 24 19  1  0
  2 25  1  0
  3 26  1  0
  4 27  1  0
  5 28  1  0
  7 29  1  0
  8 30  1  0
 13 31  1  0
 13 32  1  0
 15 33  1  0
 20 34  1  0
 21 35  1  0
 22 36  1  0
 23 37  1  0
 24 38  1  0
M  ISO  8  25  14  26  14  27  14  28  14  29  14  30  14  33  14  34  14
M  ISO  4  35  14  36  14  37  14  38  14
M  END
>  <minimizedAffinity>  (1) 
-5.55693626

>  <minimizedRMSD>  (1) 
0.810092628

$$$$
