
     RDKit          3D

 41 44  0  0  0  0  0  0  0  0999 V2000
   45.8470   33.0180   46.1320 C   0  0  0  0  0  0  0  0  0  0  0  0
   45.3320   33.0880   47.4030 C   0  0  0  0  0  0  0  0  0  0  0  0
   45.5450   32.1010   48.3200 C   0  0  0  0  0  0  0  0  0  0  0  0
   46.2930   30.9870   47.9970 C   0  0  0  0  0  0  0  0  0  0  0  0
   46.7960   30.9570   46.7010 C   0  0  0  0  0  0  0  0  0  0  0  0
   46.6090   31.9150   45.7610 C   0  0  0  0  0  0  0  0  0  0  0  0
   44.4870   36.0320   44.5870 C   0  0  0  0  0  0  0  0  0  0  0  0
   45.1710   36.0660   43.3490 C   0  0  0  0  0  0  0  0  0  0  0  0
   46.0790   35.0660   43.0660 C   0  0  0  0  0  0  0  0  0  0  0  0
   46.2870   34.0750   43.9920 N   0  0  0  0  0  0  0  0  0  0  0  0
   45.6120   34.0820   45.1610 C   0  0  0  0  0  0  0  0  0  0  0  0
   44.7140   35.0520   45.4660 N   0  0  0  0  0  0  0  0  0  0  0  0
   46.7870   35.0560   41.8420 N   0  0  0  0  0  0  0  0  0  0  0  0
   47.1760   31.7720   44.4590 N   0  0  0  0  0  0  0  0  0  0  0  0
   46.5400   30.9880   43.5770 C   0  0  0  0  0  0  0  0  0  0  0  0
   47.2380   30.9840   42.4030 N   0  0  0  0  0  0  0  0  0  0  0  0
   48.3270   31.7920   42.5920 C   0  0  0  0  0  0  0  0  0  0  0  0
   48.2510   32.2500   43.8540 N   0  0  0  0  0  0  0  0  0  0  0  0
   49.4200   32.1480   41.6520 C   0  0  0  0  0  0  0  0  0  0  0  0
   49.3180   31.3770   40.3510 C   0  0  0  0  0  0  0  0  0  0  0  0
   50.7160   31.4590   39.7920 C   0  0  0  0  0  0  0  0  0  0  0  0
   51.6230   31.8410   40.9170 C   0  0  0  0  0  0  0  0  0  0  0  0
   50.7740   31.6980   42.1620 C   0  0  0  0  0  0  0  0  0  0  0  0
   44.7313   33.9639   47.6894 H   0  0  0  0  0  0  0  0  0  0  0  0
   45.1157   32.1940   49.3285 H   0  0  0  0  0  0  0  0  0  0  0  0
   46.4789   30.1765   48.7171 H   0  0  0  0  0  0  0  0  0  0  0  0
   47.3967   30.0812   46.4145 H   0  0  0  0  0  0  0  0  0  0  0  0
   43.7601   36.8215   44.8285 H   0  0  0  0  0  0  0  0  0  0  0  0
   44.9828   36.8736   42.6263 H   0  0  0  0  0  0  0  0  0  0  0  0
   47.4619   34.3036   41.6435 H   0  0  0  0  0  0  0  0  0  0  0  0
   46.6278   35.8011   41.1489 H   0  0  0  0  0  0  0  0  0  0  0  0
   45.6072   30.4372   43.7678 H   0  0  0  0  0  0  0  0  0  0  0  0
   49.3259   33.2378   41.5360 H   0  0  0  0  0  0  0  0  0  0  0  0
   49.0267   30.3321   40.5334 H   0  0  0  0  0  0  0  0  0  0  0  0
   48.5559   31.7811   39.6685 H   0  0  0  0  0  0  0  0  0  0  0  0
   51.0153   30.4831   39.3820 H   0  0  0  0  0  0  0  0  0  0  0  0
   50.7682   32.2002   38.9809 H   0  0  0  0  0  0  0  0  0  0  0  0
   52.4916   31.1675   40.9606 H   0  0  0  0  0  0  0  0  0  0  0  0
   52.0230   32.8591   40.8012 H   0  0  0  0  0  0  0  0  0  0  0  0
   51.1353   32.3480   42.9725 H   0  0  0  0  0  0  0  0  0  0  0  0
   50.7784   30.6874   42.5964 H   0  0  0  0  0  0  0  0  0  0  0  0
  1  2  2  0
  2  3  1  0
  4  3  2  0
  5  4  1  0
  6  1  1  0
  6  5  2  0
  7 12  2  0
  8  7  1  0
  9  8  2  0
  9 10  1  0
 10 11  2  0
 11 12  1  0
 11  1  1  0
 13  9  1  0
 14  6  1  0
 15 14  1  0
 16 17  1  0
 16 15  2  0
 17 18  2  0
 18 14  1  0
 19 23  1  0
 19 17  1  0
 20 19  1  0
 21 20  1  0
 21 22  1  0
 22 23  1  0
  2 24  1  0
  3 25  1  0
  4 26  1  0
  5 27  1  0
  7 28  1  0
  8 29  1  0
 13 30  1  0
 13 31  1  0
 15 32  1  0
 19 33  1  0
 20 34  1  0
 20 35  1  0
 21 36  1  0
 21 37  1  0
 22 38  1  0
 22 39  1  0
 23 40  1  0
 23 41  1  0
M  ISO  8  24  14  25  14  26  14  27  14  28  14  29  14  32  14  33  13
M  ISO  8  34  13  35  13  36  13  37  13  38  13  39  13  40  13  41  13
M  END
>  <minimizedAffinity>  (1) 
-5.48756218

>  <minimizedRMSD>  (1) 
0.926328003

$$$$
