
     RDKit          3D

 35 38  0  0  0  0  0  0  0  0999 V2000
   45.8170   32.9990   46.1560 C   0  0  0  0  0  0  0  0  0  0  0  0
   45.3600   33.1540   47.4470 C   0  0  0  0  0  0  0  0  0  0  0  0
   45.5300   32.1700   48.3800 C   0  0  0  0  0  0  0  0  0  0  0  0
   46.1630   30.9910   48.0650 C   0  0  0  0  0  0  0  0  0  0  0  0
   46.6030   30.8950   46.7480 C   0  0  0  0  0  0  0  0  0  0  0  0
   46.4610   31.8340   45.7830 C   0  0  0  0  0  0  0  0  0  0  0  0
   44.5230   35.9700   44.4810 C   0  0  0  0  0  0  0  0  0  0  0  0
   45.2970   36.0140   43.3000 C   0  0  0  0  0  0  0  0  0  0  0  0
   46.2440   35.0350   43.0950 C   0  0  0  0  0  0  0  0  0  0  0  0
   46.3980   34.0600   44.0410 N   0  0  0  0  0  0  0  0  0  0  0  0
   45.6340   34.0530   45.1600 C   0  0  0  0  0  0  0  0  0  0  0  0
   44.6940   35.0070   45.3860 N   0  0  0  0  0  0  0  0  0  0  0  0
   47.0450   35.0330   41.9310 N   0  0  0  0  0  0  0  0  0  0  0  0
   46.9600   31.6010   44.4730 N   0  0  0  0  0  0  0  0  0  0  0  0
   46.1810   30.9140   43.6150 C   0  0  0  0  0  0  0  0  0  0  0  0
   46.8410   30.8000   42.4190 N   0  0  0  0  0  0  0  0  0  0  0  0
   48.0270   31.4300   42.5740 C   0  0  0  0  0  0  0  0  0  0  0  0
   48.0890   31.9120   43.8250 N   0  0  0  0  0  0  0  0  0  0  0  0
   49.0560   31.5550   41.5470 C   0  0  0  0  0  0  0  0  0  0  0  0
   50.4010   31.7650   41.7770 C   0  0  0  0  0  0  0  0  0  0  0  0
   51.0350   31.8260   40.5890 N   0  0  0  0  0  0  0  0  0  0  0  0
   50.0690   31.6520   39.6400 C   0  0  0  0  0  0  0  0  0  0  0  0
   48.8570   31.4870   40.2190 N   0  0  0  0  0  0  0  0  0  0  0  0
   44.8495   34.0860   47.7313 H   0  0  0  0  0  0  0  0  0  0  0  0
   45.1534   32.3242   49.4019 H   0  0  0  0  0  0  0  0  0  0  0  0
   46.3106   30.1845   48.7983 H   0  0  0  0  0  0  0  0  0  0  0  0
   47.1166   29.9649   46.4632 H   0  0  0  0  0  0  0  0  0  0  0  0
   43.7639   36.7463   44.6570 H   0  0  0  0  0  0  0  0  0  0  0  0
   45.1465   36.8134   42.5596 H   0  0  0  0  0  0  0  0  0  0  0  0
   47.7491   34.2943   41.7916 H   0  0  0  0  0  0  0  0  0  0  0  0
   46.9248   35.7703   41.2219 H   0  0  0  0  0  0  0  0  0  0  0  0
   45.1817   30.5115   43.8372 H   0  0  0  0  0  0  0  0  0  0  0  0
   50.8757   31.8657   42.7642 H   0  0  0  0  0  0  0  0  0  0  0  0
   50.2507   31.6467   38.5551 H   0  0  0  0  0  0  0  0  0  0  0  0
   47.9588   31.3385   39.7372 H   0  0  0  0  0  0  0  0  0  0  0  0
  1  2  2  0
  2  3  1  0
  4  3  2  0
  5  4  1  0
  6  1  1  0
  6  5  2  0
  7 12  2  0
  8  7  1  0
  9  8  2  0
  9 10  1  0
 10 11  2  0
 11 12  1  0
 11  1  1  0
 13  9  1  0
 14  6  1  0
 15 14  1  0
 16 17  1  0
 16 15  2  0
 17 18  2  0
 18 14  1  0
 19 20  2  0
 19 17  1  0
 21 20  1  0
 22 23  1  0
 22 21  2  0
 23 19  1  0
  2 24  1  0
  3 25  1  0
  4 26  1  0
  5 27  1  0
  7 28  1  0
  8 29  1  0
 13 30  1  0
 13 31  1  0
 15 32  1  0
 20 33  1  0
 22 34  1  0
 23 35  1  0
M  ISO  8  24  14  25  14  26  14  27  14  28  14  29  14  32  14  33  14
M  ISO  2  34  14  35   9
M  END
>  <minimizedAffinity>  (1) 
-5.35046434

>  <minimizedRMSD>  (1) 
0.449029207

$$$$
