
     RDKit          3D

 40 44  0  0  0  0  0  0  0  0999 V2000
   45.8710   32.8650   46.1810 C   0  0  0  0  0  0  0  0  0  0  0  0
   45.6320   32.9650   47.5390 C   0  0  0  0  0  0  0  0  0  0  0  0
   45.8830   31.9250   48.3850 C   0  0  0  0  0  0  0  0  0  0  0  0
   46.3830   30.7290   47.9270 C   0  0  0  0  0  0  0  0  0  0  0  0
   46.6100   30.6720   46.5420 C   0  0  0  0  0  0  0  0  0  0  0  0
   46.3770   31.6770   45.6650 C   0  0  0  0  0  0  0  0  0  0  0  0
   44.4510   35.9330   44.8320 C   0  0  0  0  0  0  0  0  0  0  0  0
   45.1150   36.0680   43.5930 C   0  0  0  0  0  0  0  0  0  0  0  0
   46.0380   35.1040   43.2410 C   0  0  0  0  0  0  0  0  0  0  0  0
   46.2660   34.0680   44.1060 N   0  0  0  0  0  0  0  0  0  0  0  0
   45.5980   33.9880   45.2870 C   0  0  0  0  0  0  0  0  0  0  0  0
   44.6940   34.9100   45.6550 N   0  0  0  0  0  0  0  0  0  0  0  0
   46.7370   35.1690   42.0280 N   0  0  0  0  0  0  0  0  0  0  0  0
   46.6470   31.4970   44.2890 N   0  0  0  0  0  0  0  0  0  0  0  0
   45.7660   30.7940   43.5530 C   0  0  0  0  0  0  0  0  0  0  0  0
   46.2040   30.7340   42.2600 N   0  0  0  0  0  0  0  0  0  0  0  0
   47.3780   31.4170   42.2210 C   0  0  0  0  0  0  0  0  0  0  0  0
   47.6170   31.8650   43.4610 N   0  0  0  0  0  0  0  0  0  0  0  0
   48.3280   31.7140   41.1480 C   0  0  0  0  0  0  0  0  0  0  0  0
   48.2360   32.3930   39.9810 N   0  0  0  0  0  0  0  0  0  0  0  0
   49.4010   32.3580   39.3820 O   0  0  0  0  0  0  0  0  0  0  0  0
   50.2620   31.6870   40.0980 C   0  0  0  0  0  0  0  0  0  0  0  0
   49.6270   31.2730   41.2020 N   0  0  0  0  0  0  0  0  0  0  0  0
   51.6610   31.4180   39.7840 C   0  0  0  0  0  0  0  0  0  0  0  0
   52.5700   30.7040   40.5390 C   0  0  0  0  0  0  0  0  0  0  0  0
   53.7620   30.6800   39.9100 N   0  0  0  0  0  0  0  0  0  0  0  0
   53.5710   31.3890   38.7600 C   0  0  0  0  0  0  0  0  0  0  0  0
   52.3040   31.8370   38.6790 N   0  0  0  0  0  0  0  0  0  0  0  0
   45.2303   33.9045   47.9464 H   0  0  0  0  0  0  0  0  0  0  0  0
   45.6805   32.0461   49.4594 H   0  0  0  0  0  0  0  0  0  0  0  0
   46.5898   29.8801   48.5953 H   0  0  0  0  0  0  0  0  0  0  0  0
   47.0108   29.7317   46.1356 H   0  0  0  0  0  0  0  0  0  0  0  0
   43.7123   36.6925   45.1276 H   0  0  0  0  0  0  0  0  0  0  0  0
   44.9026   36.9175   42.9272 H   0  0  0  0  0  0  0  0  0  0  0  0
   47.4210   34.4373   41.7879 H   0  0  0  0  0  0  0  0  0  0  0  0
   46.5668   35.9485   41.3766 H   0  0  0  0  0  0  0  0  0  0  0  0
   44.8392   30.3393   43.9327 H   0  0  0  0  0  0  0  0  0  0  0  0
   52.3544   30.2273   41.5066 H   0  0  0  0  0  0  0  0  0  0  0  0
   54.3471   31.5700   38.0018 H   0  0  0  0  0  0  0  0  0  0  0  0
   51.9018   32.3965   37.9134 H   0  0  0  0  0  0  0  0  0  0  0  0
  1  2  2  0
  2  3  1  0
  4  3  2  0
  5  4  1  0
  6  1  1  0
  6  5  2  0
  7 12  2  0
  8  7  1  0
  9  8  2  0
  9 10  1  0
 10 11  2  0
 11 12  1  0
 11  1  1  0
 13  9  1  0
 14  6  1  0
 15 14  1  0
 16 15  2  0
 17 16  1  0
 17 18  2  0
 18 14  1  0
 19 23  1  0
 19 17  1  0
 20 19  2  0
 21 20  1  0
 21 22  1  0
 22 23  2  0
 24 22  1  0
 24 25  2  0
 26 25  1  0
 27 26  2  0
 28 27  1  0
 28 24  1  0
  2 29  1  0
  3 30  1  0
  4 31  1  0
  5 32  1  0
  7 33  1  0
  8 34  1  0
 13 35  1  0
 13 36  1  0
 15 37  1  0
 25 38  1  0
 27 39  1  0
 28 40  1  0
M  ISO  8  29  14  30  14  31  14  32  14  33  14  34  14  37  14  38  14
M  ISO  2  39  14  40   9
M  END
>  <minimizedAffinity>  (1) 
-6.0368638

>  <minimizedRMSD>  (1) 
1.32201159

$$$$
