
     RDKit          3D

 35 38  0  0  0  0  0  0  0  0999 V2000
   45.7910   32.9010   46.2900 C   0  0  0  0  0  0  0  0  0  0  0  0
   45.4190   33.0540   47.6080 C   0  0  0  0  0  0  0  0  0  0  0  0
   45.6130   32.0510   48.5200 C   0  0  0  0  0  0  0  0  0  0  0  0
   46.1860   30.8500   48.1570 C   0  0  0  0  0  0  0  0  0  0  0  0
   46.5390   30.7600   46.8030 C   0  0  0  0  0  0  0  0  0  0  0  0
   46.3730   31.7130   45.8640 C   0  0  0  0  0  0  0  0  0  0  0  0
   44.4850   35.9240   44.7250 C   0  0  0  0  0  0  0  0  0  0  0  0
   45.2070   35.9870   43.5240 C   0  0  0  0  0  0  0  0  0  0  0  0
   46.1310   34.9930   43.2650 C   0  0  0  0  0  0  0  0  0  0  0  0
   46.3060   33.9950   44.1810 N   0  0  0  0  0  0  0  0  0  0  0  0
   45.5750   33.9850   45.3350 C   0  0  0  0  0  0  0  0  0  0  0  0
   44.6720   34.9460   45.6000 N   0  0  0  0  0  0  0  0  0  0  0  0
   46.8940   34.9930   42.0730 N   0  0  0  0  0  0  0  0  0  0  0  0
   46.7780   31.4900   44.5240 N   0  0  0  0  0  0  0  0  0  0  0  0
   45.9190   30.8470   43.7080 C   0  0  0  0  0  0  0  0  0  0  0  0
   46.4870   30.7330   42.4820 N   0  0  0  0  0  0  0  0  0  0  0  0
   47.7050   31.3130   42.5550 C   0  0  0  0  0  0  0  0  0  0  0  0
   47.8550   31.7660   43.8120 N   0  0  0  0  0  0  0  0  0  0  0  0
   48.7920   31.5170   41.5920 C   0  0  0  0  0  0  0  0  0  0  0  0
   48.8780   31.4680   40.2490 N   0  0  0  0  0  0  0  0  0  0  0  0
   50.1000   31.7340   39.8800 O   0  0  0  0  0  0  0  0  0  0  0  0
   50.8540   31.9660   40.9190 C   0  0  0  0  0  0  0  0  0  0  0  0
   50.0570   31.8350   41.9950 N   0  0  0  0  0  0  0  0  0  0  0  0
   52.2190   32.2960   41.1180 N   0  0  0  0  0  0  0  0  0  0  0  0
   44.9581   33.9984   47.9332 H   0  0  0  0  0  0  0  0  0  0  0  0
   45.3052   32.2065   49.5646 H   0  0  0  0  0  0  0  0  0  0  0  0
   46.3524   30.0301   48.8712 H   0  0  0  0  0  0  0  0  0  0  0  0
   46.9979   29.8161   46.4735 H   0  0  0  0  0  0  0  0  0  0  0  0
   43.7444   36.7066   44.9465 H   0  0  0  0  0  0  0  0  0  0  0  0
   45.0420   36.8055   42.8079 H   0  0  0  0  0  0  0  0  0  0  0  0
   47.5777   34.2425   41.8992 H   0  0  0  0  0  0  0  0  0  0  0  0
   46.7656   35.7435   41.3793 H   0  0  0  0  0  0  0  0  0  0  0  0
   44.9225   30.4763   43.9900 H   0  0  0  0  0  0  0  0  0  0  0  0
   52.5821   32.4320   42.0722 H   0  0  0  0  0  0  0  0  0  0  0  0
   52.8471   32.3996   40.3083 H   0  0  0  0  0  0  0  0  0  0  0  0
  1  2  2  0
  2  3  1  0
  4  3  2  0
  5  4  1  0
  6  1  1  0
  6  5  2  0
  7 12  2  0
  8  7  1  0
  9  8  2  0
  9 10  1  0
 10 11  2  0
 11 12  1  0
 11  1  1  0
 13  9  1  0
 14  6  1  0
 15 14  1  0
 16 17  1  0
 16 15  2  0
 17 18  2  0
 18 14  1  0
 19 23  1  0
 19 17  1  0
 20 19  2  0
 21 20  1  0
 21 22  1  0
 22 24  1  0
 22 23  2  0
  2 25  1  0
  3 26  1  0
  4 27  1  0
  5 28  1  0
  7 29  1  0
  8 30  1  0
 13 31  1  0
 13 32  1  0
 15 33  1  0
 24 34  1  0
 24 35  1  0
M  ISO  7  25  14  26  14  27  14  28  14  29  14  30  14  33  14
M  END
>  <minimizedAffinity>  (1) 
-5.93934011

>  <minimizedRMSD>  (1) 
0.256560266

$$$$
