
     RDKit          3D

 39 43  0  0  0  0  0  0  0  0999 V2000
   46.5550   32.6190   46.2490 C   0  0  0  0  0  0  0  0  0  0  0  0
   46.4970   32.7210   47.6160 C   0  0  0  0  0  0  0  0  0  0  0  0
   46.9690   31.7280   48.4340 C   0  0  0  0  0  0  0  0  0  0  0  0
   47.5240   30.5790   47.9110 C   0  0  0  0  0  0  0  0  0  0  0  0
   47.5580   30.5250   46.5140 C   0  0  0  0  0  0  0  0  0  0  0  0
   47.1050   31.4790   45.6690 C   0  0  0  0  0  0  0  0  0  0  0  0
   44.5620   35.4210   45.0550 C   0  0  0  0  0  0  0  0  0  0  0  0
   45.1160   35.6740   43.7780 C   0  0  0  0  0  0  0  0  0  0  0  0
   46.1650   34.8750   43.3520 C   0  0  0  0  0  0  0  0  0  0  0  0
   46.6160   33.8880   44.1710 N   0  0  0  0  0  0  0  0  0  0  0  0
   46.0510   33.6800   45.3960 C   0  0  0  0  0  0  0  0  0  0  0  0
   45.0310   34.4450   45.8290 N   0  0  0  0  0  0  0  0  0  0  0  0
   46.7630   35.0700   42.0950 N   0  0  0  0  0  0  0  0  0  0  0  0
   47.2000   31.2990   44.2630 N   0  0  0  0  0  0  0  0  0  0  0  0
   46.3670   30.4520   43.6630 C   0  0  0  0  0  0  0  0  0  0  0  0
   46.6220   30.4260   42.3300 N   0  0  0  0  0  0  0  0  0  0  0  0
   47.6480   31.2900   42.1120 C   0  0  0  0  0  0  0  0  0  0  0  0
   47.9710   31.7980   43.3110 N   0  0  0  0  0  0  0  0  0  0  0  0
   48.3800   31.7110   40.9240 C   0  0  0  0  0  0  0  0  0  0  0  0
   48.1890   32.6810   40.0070 N   0  0  0  0  0  0  0  0  0  0  0  0
   49.1430   32.6430   39.1240 O   0  0  0  0  0  0  0  0  0  0  0  0
   49.9780   31.6800   39.4060 C   0  0  0  0  0  0  0  0  0  0  0  0
   49.5170   31.0880   40.5260 N   0  0  0  0  0  0  0  0  0  0  0  0
   51.1290   31.3980   38.6080 N   0  0  0  0  0  0  0  0  0  0  0  0
   51.2560   30.9480   37.3290 C   0  0  0  0  0  0  0  0  0  0  0  0
   52.5480   30.8390   37.0200 N   0  0  0  0  0  0  0  0  0  0  0  0
   53.2670   31.2180   38.0990 C   0  0  0  0  0  0  0  0  0  0  0  0
   52.3830   31.5540   39.0530 N   0  0  0  0  0  0  0  0  0  0  0  0
   46.0600   33.6239   48.0674 H   0  0  0  0  0  0  0  0  0  0  0  0
   46.9041   31.8494   49.5254 H   0  0  0  0  0  0  0  0  0  0  0  0
   47.9105   29.7669   48.5444 H   0  0  0  0  0  0  0  0  0  0  0  0
   47.9937   29.6227   46.0601 H   0  0  0  0  0  0  0  0  0  0  0  0
   43.7285   36.0422   45.4147 H   0  0  0  0  0  0  0  0  0  0  0  0
   44.7253   36.4817   43.1416 H   0  0  0  0  0  0  0  0  0  0  0  0
   47.5417   34.4659   41.7959 H   0  0  0  0  0  0  0  0  0  0  0  0
   46.4225   35.8170   41.4730 H   0  0  0  0  0  0  0  0  0  0  0  0
   45.5895   29.8622   44.1705 H   0  0  0  0  0  0  0  0  0  0  0  0
   50.4203   30.7108   36.6542 H   0  0  0  0  0  0  0  0  0  0  0  0
   54.3636   31.2460   38.1806 H   0  0  0  0  0  0  0  0  0  0  0  0
  1  2  2  0
  2  3  1  0
  4  3  2  0
  5  4  1  0
  6  1  1  0
  6  5  2  0
  7 12  2  0
  8  7  1  0
  9  8  2  0
  9 10  1  0
 10 11  2  0
 11 12  1  0
 11  1  1  0
 13  9  1  0
 14  6  1  0
 15 14  1  0
 16 15  2  0
 17 16  1  0
 17 18  2  0
 18 14  1  0
 19 17  1  0
 20 19  2  0
 21 22  1  0
 21 20  1  0
 22 23  2  0
 23 19  1  0
 24 28  1  0
 24 22  1  0
 25 24  1  0
 26 25  2  0
 26 27  1  0
 27 28  2  0
  2 29  1  0
  3 30  1  0
  4 31  1  0
  5 32  1  0
  7 33  1  0
  8 34  1  0
 13 35  1  0
 13 36  1  0
 15 37  1  0
 25 38  1  0
 27 39  1  0
M  ISO  8  29  14  30  14  31  14  32  14  33  14  34  14  37  14  38  14
M  ISO  1  39  14
M  END
>  <minimizedAffinity>  (1) 
-5.89432764

>  <minimizedRMSD>  (1) 
1.92639124

$$$$
