
     RDKit          3D

 37 40  0  0  0  0  0  0  0  0999 V2000
   47.1900   32.7270   44.0350 C   0  0  0  0  0  0  0  0  0  0  0  0
   47.8720   33.6950   43.2340 N   0  0  0  0  0  0  0  0  0  0  0  0
   49.1510   34.0050   43.1140 N   0  0  0  0  0  0  0  0  0  0  0  0
   49.3590   34.9890   42.2390 C   0  0  0  0  0  0  0  0  0  0  0  0
   48.1100   35.3230   41.7720 C   0  0  0  0  0  0  0  0  0  0  0  0
   47.1760   34.4910   42.4160 C   0  0  0  0  0  0  0  0  0  0  0  0
   45.7880   34.7360   42.0120 C   0  0  0  0  0  0  0  0  0  0  0  0
   45.1110   34.2750   40.8920 C   0  0  0  0  0  0  0  0  0  0  0  0
   43.8530   34.7220   40.8770 N   0  0  0  0  0  0  0  0  0  0  0  0
   43.6710   35.4790   41.9730 C   0  0  0  0  0  0  0  0  0  0  0  0
   44.8390   35.4600   42.6160 N   0  0  0  0  0  0  0  0  0  0  0  0
   46.5870   33.3150   45.3310 C   0  0  0  0  0  0  0  0  0  0  0  0
   46.5030   32.3020   46.3740 C   0  0  0  0  0  0  0  0  0  0  0  0
   47.2410   32.5610   47.5100 C   0  0  0  0  0  0  0  0  0  0  0  0
   47.2670   31.6890   48.5990 C   0  0  0  0  0  0  0  0  0  0  0  0
   46.5080   30.5550   48.4660 N   0  0  0  0  0  0  0  0  0  0  0  0
   45.7870   30.3140   47.3440 C   0  0  0  0  0  0  0  0  0  0  0  0
   45.8000   31.1870   46.3300 N   0  0  0  0  0  0  0  0  0  0  0  0
   45.0350   29.0340   47.3970 C   0  0  0  0  0  0  0  0  0  0  0  0
   44.2080   28.6380   46.2040 C   0  0  0  0  0  0  0  0  0  0  0  0
   45.4790   27.9120   46.4910 C   0  0  0  0  0  0  0  0  0  0  0  0
   47.9043   31.9371   44.3103 H   0  0  0  0  0  0  0  0  0  0  0  0
   46.3531   32.3412   43.4343 H   0  0  0  0  0  0  0  0  0  0  0  0
   50.3220   35.4369   41.9526 H   0  0  0  0  0  0  0  0  0  0  0  0
   47.8818   36.1009   41.0285 H   0  0  0  0  0  0  0  0  0  0  0  0
   45.5519   33.6277   40.1196 H   0  0  0  0  0  0  0  0  0  0  0  0
   42.7525   36.0033   42.2755 H   0  0  0  0  0  0  0  0  0  0  0  0
   44.9971   35.9602   43.5024 H   0  0  0  0  0  0  0  0  0  0  0  0
   47.2238   34.1405   45.6818 H   0  0  0  0  0  0  0  0  0  0  0  0
   45.5718   33.6776   45.1121 H   0  0  0  0  0  0  0  0  0  0  0  0
   47.8304   33.4885   47.5593 H   0  0  0  0  0  0  0  0  0  0  0  0
   47.8570   31.8975   49.5037 H   0  0  0  0  0  0  0  0  0  0  0  0
   44.8458   29.1435   48.4751 H   0  0  0  0  0  0  0  0  0  0  0  0
   44.1434   29.3084   45.3343 H   0  0  0  0  0  0  0  0  0  0  0  0
   43.1609   28.3371   46.0523 H   0  0  0  0  0  0  0  0  0  0  0  0
   45.4491   26.8723   46.8488 H   0  0  0  0  0  0  0  0  0  0  0  0
   46.3926   27.6900   45.9200 H   0  0  0  0  0  0  0  0  0  0  0  0
  1 12  1  0
  2  1  1  0
  3  2  1  0
  4  3  2  0
  5  4  1  0
  5  6  2  0
  6  2  1  0
  7  6  1  0
  7 11  1  0
  8  7  2  0
  9  8  1  0
  9 10  2  0
 10 11  1  0
 12 13  1  0
 13 14  2  0
 14 15  1  0
 16 15  2  0
 17 19  1  0
 17 16  1  0
 18 13  1  0
 18 17  2  0
 20 21  1  0
 20 19  1  0
 21 19  1  0
  1 22  1  0
  1 23  1  0
  4 24  1  0
  5 25  1  0
  8 26  1  0
 10 27  1  0
 11 28  1  0
 12 29  1  0
 12 30  1  0
 14 31  1  0
 15 32  1  0
 19 33  1  0
 20 34  1  0
 20 35  1  0
 21 36  1  0
 21 37  1  0
M  ISO  8  22   8  23   8  24  14  25  14  26  14  27  14  28   9  29   8
M  ISO  8  30   8  31  14  32  14  33  13  34  13  35  13  36  13  37  13
M  END
>  <minimizedAffinity>  (1) 
-5.02144384

>  <minimizedRMSD>  (1) 
5.35883904

$$$$
