
     RDKit          3D

 40 44  0  0  0  0  0  0  0  0999 V2000
   45.7180   32.9000   46.3000 C   0  0  0  0  0  0  0  0  0  0  0  0
   45.4590   33.0880   47.6490 C   0  0  0  0  0  0  0  0  0  0  0  0
   45.6290   32.0740   48.5510 C   0  0  0  0  0  0  0  0  0  0  0  0
   46.0630   30.8330   48.1620 C   0  0  0  0  0  0  0  0  0  0  0  0
   46.3100   30.6940   46.7930 C   0  0  0  0  0  0  0  0  0  0  0  0
   46.1570   31.6690   45.8520 C   0  0  0  0  0  0  0  0  0  0  0  0
   44.4770   35.9560   44.7410 C   0  0  0  0  0  0  0  0  0  0  0  0
   45.2100   36.0090   43.5490 C   0  0  0  0  0  0  0  0  0  0  0  0
   46.1240   34.9970   43.2920 C   0  0  0  0  0  0  0  0  0  0  0  0
   46.2600   34.0040   44.2090 N   0  0  0  0  0  0  0  0  0  0  0  0
   45.5330   33.9830   45.3540 C   0  0  0  0  0  0  0  0  0  0  0  0
   44.6360   34.9640   45.6210 N   0  0  0  0  0  0  0  0  0  0  0  0
   46.8950   34.9980   42.1040 N   0  0  0  0  0  0  0  0  0  0  0  0
   46.4460   31.3960   44.4830 N   0  0  0  0  0  0  0  0  0  0  0  0
   45.5200   30.7700   43.7600 C   0  0  0  0  0  0  0  0  0  0  0  0
   45.9950   30.6110   42.4990 N   0  0  0  0  0  0  0  0  0  0  0  0
   47.2340   31.1530   42.4580 C   0  0  0  0  0  0  0  0  0  0  0  0
   47.4780   31.6250   43.6910 N   0  0  0  0  0  0  0  0  0  0  0  0
   48.2530   31.3040   41.4200 C   0  0  0  0  0  0  0  0  0  0  0  0
   48.2460   31.8840   40.1940 N   0  0  0  0  0  0  0  0  0  0  0  0
   49.4220   31.7500   39.6500 O   0  0  0  0  0  0  0  0  0  0  0  0
   50.2290   31.0960   40.4680 C   0  0  0  0  0  0  0  0  0  0  0  0
   49.5070   30.8160   41.5710 N   0  0  0  0  0  0  0  0  0  0  0  0
   51.5900   30.7450   40.2530 N   0  0  0  0  0  0  0  0  0  0  0  0
   51.9170   29.4440   40.0500 C   0  0  0  0  0  0  0  0  0  0  0  0
   53.2660   29.3140   39.8640 C   0  0  0  0  0  0  0  0  0  0  0  0
   53.7710   30.5780   39.9570 N   0  0  0  0  0  0  0  0  0  0  0  0
   52.7510   31.4150   40.1890 C   0  0  0  0  0  0  0  0  0  0  0  0
   45.1105   34.0704   48.0002 H   0  0  0  0  0  0  0  0  0  0  0  0
   45.4124   32.2585   49.6136 H   0  0  0  0  0  0  0  0  0  0  0  0
   46.2063   30.0074   48.8747 H   0  0  0  0  0  0  0  0  0  0  0  0
   46.6587   29.7109   46.4439 H   0  0  0  0  0  0  0  0  0  0  0  0
   43.7506   36.7529   44.9584 H   0  0  0  0  0  0  0  0  0  0  0  0
   45.0649   36.8324   42.8342 H   0  0  0  0  0  0  0  0  0  0  0  0
   47.5695   34.2399   41.9272 H   0  0  0  0  0  0  0  0  0  0  0  0
   46.7812   35.7568   41.4169 H   0  0  0  0  0  0  0  0  0  0  0  0
   44.5363   30.4379   44.1233 H   0  0  0  0  0  0  0  0  0  0  0  0
   51.1986   28.6111   40.0368 H   0  0  0  0  0  0  0  0  0  0  0  0
   53.8259   28.3855   39.6785 H   0  0  0  0  0  0  0  0  0  0  0  0
   52.8515   32.5036   40.3105 H   0  0  0  0  0  0  0  0  0  0  0  0
  1  2  2  0
  2  3  1  0
  4  3  2  0
  5  4  1  0
  6  1  1  0
  6  5  2  0
  7 12  2  0
  8  7  1  0
  9  8  2  0
  9 10  1  0
 10 11  2  0
 11 12  1  0
 11  1  1  0
 13  9  1  0
 14  6  1  0
 15 14  1  0
 16 15  2  0
 17 16  1  0
 17 18  2  0
 18 14  1  0
 19 23  1  0
 19 17  1  0
 20 19  2  0
 21 20  1  0
 21 22  1  0
 22 23  2  0
 24 22  1  0
 25 24  1  0
 26 27  1  0
 26 25  2  0
 27 28  2  0
 28 24  1  0
  2 29  1  0
  3 30  1  0
  4 31  1  0
  5 32  1  0
  7 33  1  0
  8 34  1  0
 13 35  1  0
 13 36  1  0
 15 37  1  0
 25 38  1  0
 26 39  1  0
 28 40  1  0
M  ISO  8  29  14  30  14  31  14  32  14  33  14  34  14  37  14  38  14
M  ISO  2  39  14  40  14
M  END
>  <minimizedAffinity>  (1) 
-5.72462416

>  <minimizedRMSD>  (1) 
1.2768178

$$$$
