
     RDKit          3D

 40 44  0  0  0  0  0  0  0  0999 V2000
   45.8160   32.8890   46.2880 C   0  0  0  0  0  0  0  0  0  0  0  0
   45.4700   33.0360   47.6140 C   0  0  0  0  0  0  0  0  0  0  0  0
   45.6780   32.0320   48.5150 C   0  0  0  0  0  0  0  0  0  0  0  0
   46.2420   30.8340   48.1320 C   0  0  0  0  0  0  0  0  0  0  0  0
   46.5720   30.7440   46.7710 C   0  0  0  0  0  0  0  0  0  0  0  0
   46.3870   31.7080   45.8440 C   0  0  0  0  0  0  0  0  0  0  0  0
   44.4730   35.9280   44.7630 C   0  0  0  0  0  0  0  0  0  0  0  0
   45.1730   36.0000   43.5440 C   0  0  0  0  0  0  0  0  0  0  0  0
   46.0940   35.0090   43.2610 C   0  0  0  0  0  0  0  0  0  0  0  0
   46.2830   34.0040   44.1760 N   0  0  0  0  0  0  0  0  0  0  0  0
   45.5840   33.9760   45.3410 C   0  0  0  0  0  0  0  0  0  0  0  0
   44.6820   34.9390   45.6290 N   0  0  0  0  0  0  0  0  0  0  0  0
   46.8280   35.0180   42.0610 N   0  0  0  0  0  0  0  0  0  0  0  0
   46.7650   31.4920   44.4960 N   0  0  0  0  0  0  0  0  0  0  0  0
   45.9150   30.8140   43.6960 C   0  0  0  0  0  0  0  0  0  0  0  0
   46.4560   30.7150   42.4550 N   0  0  0  0  0  0  0  0  0  0  0  0
   47.6590   31.3460   42.5010 C   0  0  0  0  0  0  0  0  0  0  0  0
   47.8190   31.8090   43.7570 N   0  0  0  0  0  0  0  0  0  0  0  0
   48.7090   31.5880   41.5220 C   0  0  0  0  0  0  0  0  0  0  0  0
   48.6980   31.9950   40.2260 N   0  0  0  0  0  0  0  0  0  0  0  0
   49.9100   32.0630   39.7710 O   0  0  0  0  0  0  0  0  0  0  0  0
   50.7590   31.7100   40.7250 C   0  0  0  0  0  0  0  0  0  0  0  0
   50.0330   31.4130   41.8120 N   0  0  0  0  0  0  0  0  0  0  0  0
   52.2340   31.6710   40.5520 C   0  0  0  0  0  0  0  0  0  0  0  0
   52.7830   31.0010   39.2900 C   0  0  0  0  0  0  0  0  0  0  0  0
   52.9910   30.3990   40.6750 C   0  0  0  0  0  0  0  0  0  0  0  0
   45.0178   33.9799   47.9525 H   0  0  0  0  0  0  0  0  0  0  0  0
   45.3902   32.1817   49.5661 H   0  0  0  0  0  0  0  0  0  0  0  0
   46.4199   30.0108   48.8396 H   0  0  0  0  0  0  0  0  0  0  0  0
   47.0229   29.8012   46.4278 H   0  0  0  0  0  0  0  0  0  0  0  0
   43.7358   36.7075   45.0057 H   0  0  0  0  0  0  0  0  0  0  0  0
   44.9921   36.8223   42.8361 H   0  0  0  0  0  0  0  0  0  0  0  0
   47.5098   34.2703   41.8687 H   0  0  0  0  0  0  0  0  0  0  0  0
   46.6836   35.7723   41.3746 H   0  0  0  0  0  0  0  0  0  0  0  0
   44.9397   30.4068   44.0010 H   0  0  0  0  0  0  0  0  0  0  0  0
   52.3305   32.6538   41.0366 H   0  0  0  0  0  0  0  0  0  0  0  0
   52.0992   30.5221   38.5737 H   0  0  0  0  0  0  0  0  0  0  0  0
   53.4334   31.3036   38.4561 H   0  0  0  0  0  0  0  0  0  0  0  0
   53.9938   30.4009   41.1272 H   0  0  0  0  0  0  0  0  0  0  0  0
   52.7833   29.4188   41.1289 H   0  0  0  0  0  0  0  0  0  0  0  0
  1  2  2  0
  2  3  1  0
  4  3  2  0
  5  4  1  0
  6  1  1  0
  6  5  2  0
  7 12  2  0
  8  7  1  0
  9  8  2  0
  9 10  1  0
 10 11  2  0
 11 12  1  0
 11  1  1  0
 13  9  1  0
 14  6  1  0
 15 14  1  0
 16 17  1  0
 16 15  2  0
 17 18  2  0
 18 14  1  0
 19 23  1  0
 19 17  1  0
 20 19  2  0
 21 20  1  0
 21 22  1  0
 22 23  2  0
 24 26  1  0
 24 22  1  0
 25 24  1  0
 25 26  1  0
  2 27  1  0
  3 28  1  0
  4 29  1  0
  5 30  1  0
  7 31  1  0
  8 32  1  0
 13 33  1  0
 13 34  1  0
 15 35  1  0
 24 36  1  0
 25 37  1  0
 25 38  1  0
 26 39  1  0
 26 40  1  0
M  ISO  8  27  14  28  14  29  14  30  14  31  14  32  14  35  14  36  13
M  ISO  4  37  13  38  13  39  13  40  13
M  END
>  <minimizedAffinity>  (1) 
-5.58568192

>  <minimizedRMSD>  (1) 
0.534133375

$$$$
