
     RDKit          3D

 45 48  0  0  0  0  0  0  0  0999 V2000
   46.5670   32.7130   45.9650 C   0  0  0  0  0  0  0  0  0  0  0  0
   46.4720   32.8360   47.3370 C   0  0  0  0  0  0  0  0  0  0  0  0
   46.9000   31.8400   48.1660 C   0  0  0  0  0  0  0  0  0  0  0  0
   47.4400   30.6820   47.6730 C   0  0  0  0  0  0  0  0  0  0  0  0
   47.5140   30.6070   46.2810 C   0  0  0  0  0  0  0  0  0  0  0  0
   47.1040   31.5640   45.4100 C   0  0  0  0  0  0  0  0  0  0  0  0
   44.6120   35.4890   44.6430 C   0  0  0  0  0  0  0  0  0  0  0  0
   45.2760   35.7820   43.4340 C   0  0  0  0  0  0  0  0  0  0  0  0
   46.3760   35.0290   43.0920 C   0  0  0  0  0  0  0  0  0  0  0  0
   46.7760   34.0340   43.9350 N   0  0  0  0  0  0  0  0  0  0  0  0
   46.1050   33.7850   45.0950 C   0  0  0  0  0  0  0  0  0  0  0  0
   45.0290   34.5120   45.4430 N   0  0  0  0  0  0  0  0  0  0  0  0
   47.0860   35.2680   41.8970 N   0  0  0  0  0  0  0  0  0  0  0  0
   47.2350   31.3670   44.0110 N   0  0  0  0  0  0  0  0  0  0  0  0
   46.2630   30.6960   43.3720 C   0  0  0  0  0  0  0  0  0  0  0  0
   46.5750   30.6160   42.0530 N   0  0  0  0  0  0  0  0  0  0  0  0
   47.7690   31.2590   41.8980 C   0  0  0  0  0  0  0  0  0  0  0  0
   48.1400   31.7030   43.1070 N   0  0  0  0  0  0  0  0  0  0  0  0
   48.6210   31.5150   40.7380 C   0  0  0  0  0  0  0  0  0  0  0  0
   48.4570   32.1890   39.5790 N   0  0  0  0  0  0  0  0  0  0  0  0
   49.5340   32.1170   38.8700 O   0  0  0  0  0  0  0  0  0  0  0  0
   50.4450   31.4110   39.5050 C   0  0  0  0  0  0  0  0  0  0  0  0
   49.8950   31.0280   40.6710 N   0  0  0  0  0  0  0  0  0  0  0  0
   51.8420   31.0370   39.1240 C   0  0  0  0  0  0  0  0  0  0  0  0
   52.8160   31.3840   40.2220 C   0  0  0  0  0  0  0  0  0  0  0  0
   52.3100   31.7440   37.8680 C   0  0  0  0  0  0  0  0  0  0  0  0
   51.9090   29.5390   38.8110 C   0  0  0  0  0  0  0  0  0  0  0  0
   46.0440   33.7525   47.7692 H   0  0  0  0  0  0  0  0  0  0  0  0
   46.8092   31.9702   49.2545 H   0  0  0  0  0  0  0  0  0  0  0  0
   47.7902   29.8696   48.3267 H   0  0  0  0  0  0  0  0  0  0  0  0
   47.9432   29.6899   45.8513 H   0  0  0  0  0  0  0  0  0  0  0  0
   43.7306   36.0810   44.9304 H   0  0  0  0  0  0  0  0  0  0  0  0
   44.9232   36.5930   42.7799 H   0  0  0  0  0  0  0  0  0  0  0  0
   47.9066   34.6917   41.6614 H   0  0  0  0  0  0  0  0  0  0  0  0
   46.7839   36.0188   41.2599 H   0  0  0  0  0  0  0  0  0  0  0  0
   45.3599   30.2786   43.8413 H   0  0  0  0  0  0  0  0  0  0  0  0
   52.3416   31.2150   41.1999 H   0  0  0  0  0  0  0  0  0  0  0  0
   53.7098   30.7490   40.1334 H   0  0  0  0  0  0  0  0  0  0  0  0
   53.1070   32.4411   40.1334 H   0  0  0  0  0  0  0  0  0  0  0  0
   52.8977   32.6318   38.1444 H   0  0  0  0  0  0  0  0  0  0  0  0
   52.9349   31.0609   37.2740 H   0  0  0  0  0  0  0  0  0  0  0  0
   51.4371   32.0524   37.2740 H   0  0  0  0  0  0  0  0  0  0  0  0
   51.9345   28.9687   39.7513 H   0  0  0  0  0  0  0  0  0  0  0  0
   51.0231   29.2461   38.2285 H   0  0  0  0  0  0  0  0  0  0  0  0
   52.8176   29.3264   38.2285 H   0  0  0  0  0  0  0  0  0  0  0  0
  1  2  2  0
  2  3  1  0
  4  3  2  0
  5  4  1  0
  6  1  1  0
  6  5  2  0
  7 12  2  0
  8  7  1  0
  9  8  2  0
  9 10  1  0
 10 11  2  0
 11 12  1  0
 11  1  1  0
 13  9  1  0
 14  6  1  0
 15 14  1  0
 16 15  2  0
 17 16  1  0
 17 18  2  0
 18 14  1  0
 19 17  1  0
 20 19  2  0
 21 22  1  0
 21 20  1  0
 22 23  2  0
 23 19  1  0
 24 22  1  0
 24 25  1  0
 26 24  1  0
 27 24  1  0
  2 28  1  0
  3 29  1  0
  4 30  1  0
  5 31  1  0
  7 32  1  0
  8 33  1  0
 13 34  1  0
 13 35  1  0
 15 36  1  0
 25 37  1  0
 25 38  1  0
 25 39  1  0
 26 40  1  0
 26 41  1  0
 26 42  1  0
 27 43  1  0
 27 44  1  0
 27 45  1  0
M  ISO  8  28  14  29  14  30  14  31  14  32  14  33  14  36  14  37   8
M  ISO  8  38   8  39   8  40   8  41   8  42   8  43   8  44   8  45   8
M  END
>  <minimizedAffinity>  (1) 
-5.39954233

>  <minimizedRMSD>  (1) 
1.495911

$$$$
