
     RDKit          3D

 33 35  0  0  0  0  0  0  0  0999 V2000
   47.3580   31.4790   43.5350 C   0  0  0  0  0  0  0  0  0  0  0  0
   48.7190   31.2420   43.1400 N   0  0  0  0  0  0  0  0  0  0  0  0
   49.5010   30.1610   43.1990 N   0  0  0  0  0  0  0  0  0  0  0  0
   50.7170   30.3770   42.7210 C   0  0  0  0  0  0  0  0  0  0  0  0
   50.7120   31.6890   42.3280 C   0  0  0  0  0  0  0  0  0  0  0  0
   49.4410   32.2280   42.5990 C   0  0  0  0  0  0  0  0  0  0  0  0
   49.2880   33.6360   42.2270 C   0  0  0  0  0  0  0  0  0  0  0  0
   48.6110   34.1770   41.1430 C   0  0  0  0  0  0  0  0  0  0  0  0
   48.7100   35.5060   41.1420 N   0  0  0  0  0  0  0  0  0  0  0  0
   49.4370   35.8790   42.2020 C   0  0  0  0  0  0  0  0  0  0  0  0
   49.7530   34.7380   42.8100 N   0  0  0  0  0  0  0  0  0  0  0  0
   47.2220   32.0100   44.9590 C   0  0  0  0  0  0  0  0  0  0  0  0
   46.3490   33.1800   45.0040 C   0  0  0  0  0  0  0  0  0  0  0  0
   45.6870   33.3650   46.2220 C   0  0  0  0  0  0  0  0  0  0  0  0
   44.8210   34.4380   46.4200 C   0  0  0  0  0  0  0  0  0  0  0  0
   44.6570   35.2840   45.3780 N   0  0  0  0  0  0  0  0  0  0  0  0
   45.3120   35.0830   44.1990 C   0  0  0  0  0  0  0  0  0  0  0  0
   46.1330   34.0600   44.0240 N   0  0  0  0  0  0  0  0  0  0  0  0
   44.9360   36.1200   43.2720 C   0  0  0  0  0  0  0  0  0  0  0  0
   44.3810   35.9400   42.1650 O   0  0  0  0  0  0  0  0  0  0  0  0
   45.0110   37.4800   43.2110 O   0  0  0  0  0  0  0  0  0  0  0  0
   46.8041   30.5314   43.4622 H   0  0  0  0  0  0  0  0  0  0  0  0
   46.9550   32.2501   42.8619 H   0  0  0  0  0  0  0  0  0  0  0  0
   51.5486   29.6600   42.6543 H   0  0  0  0  0  0  0  0  0  0  0  0
   51.5576   32.2292   41.8773 H   0  0  0  0  0  0  0  0  0  0  0  0
   48.0674   33.5896   40.3884 H   0  0  0  0  0  0  0  0  0  0  0  0
   49.7120   36.9005   42.5034 H   0  0  0  0  0  0  0  0  0  0  0  0
   50.3176   34.7100   43.6710 H   0  0  0  0  0  0  0  0  0  0  0  0
   46.7980   31.2209   45.5975 H   0  0  0  0  0  0  0  0  0  0  0  0
   48.2191   32.3047   45.3181 H   0  0  0  0  0  0  0  0  0  0  0  0
   45.8535   32.6488   47.0401 H   0  0  0  0  0  0  0  0  0  0  0  0
   44.2972   34.5894   47.3754 H   0  0  0  0  0  0  0  0  0  0  0  0
   44.6589   37.9602   42.4201 H   0  0  0  0  0  0  0  0  0  0  0  0
  1 12  1  0
  2  3  1  0
  2  1  1  0
  4  3  2  0
  5  6  2  0
  5  4  1  0
  6  2  1  0
  7  6  1  0
  7 11  1  0
  8  7  2  0
  9  8  1  0
  9 10  2  0
 10 11  1  0
 12 13  1  0
 13 14  2  0
 14 15  1  0
 16 15  2  0
 17 16  1  0
 18 17  2  0
 18 13  1  0
 19 17  1  0
 20 19  2  0
 21 19  1  0
  1 22  1  0
  1 23  1  0
  4 24  1  0
  5 25  1  0
  8 26  1  0
 10 27  1  0
 11 28  1  0
 12 29  1  0
 12 30  1  0
 14 31  1  0
 15 32  1  0
 21 33  1  0
M  ISO  8  22   8  23   8  24  14  25  14  26  14  27  14  28   9  29   8
M  ISO  4  30   8  31  14  32  14  33   3
M  END
>  <minimizedAffinity>  (1) 
-4.97962856

>  <minimizedRMSD>  (1) 
0.869057834

$$$$
