
     RDKit          3D

 40 43  0  0  0  0  0  0  0  0999 V2000
   46.4980   33.3430   44.7220 C   0  0  0  0  0  0  0  0  0  0  0  0
   45.5380   33.8690   43.7430 C   0  0  0  0  0  0  0  0  0  0  0  0
   45.5500   35.2710   43.6690 C   0  0  0  0  0  0  0  0  0  0  0  0
   44.6850   35.9270   42.7720 C   0  0  0  0  0  0  0  0  0  0  0  0
   43.8780   35.1290   42.0200 N   0  0  0  0  0  0  0  0  0  0  0  0
   43.8960   33.7530   42.1260 C   0  0  0  0  0  0  0  0  0  0  0  0
   44.7140   33.1460   42.9720 N   0  0  0  0  0  0  0  0  0  0  0  0
   42.8940   33.2260   41.2170 C   0  0  0  0  0  0  0  0  0  0  0  0
   42.1800   32.0740   41.4420 C   0  0  0  0  0  0  0  0  0  0  0  0
   41.1870   31.5290   40.6820 C   0  0  0  0  0  0  0  0  0  0  0  0
   40.8350   32.2050   39.5330 C   0  0  0  0  0  0  0  0  0  0  0  0
   41.5000   33.3670   39.2370 C   0  0  0  0  0  0  0  0  0  0  0  0
   42.4850   33.8410   40.0570 C   0  0  0  0  0  0  0  0  0  0  0  0
   45.9040   33.3110   46.1250 C   0  0  0  0  0  0  0  0  0  0  0  0
   46.5820   32.4500   47.0330 N   0  0  0  0  0  0  0  0  0  0  0  0
   47.5230   32.6730   47.9370 N   0  0  0  0  0  0  0  0  0  0  0  0
   47.8940   31.5700   48.5900 C   0  0  0  0  0  0  0  0  0  0  0  0
   47.1210   30.5740   48.0500 C   0  0  0  0  0  0  0  0  0  0  0  0
   46.2930   31.1420   47.0650 C   0  0  0  0  0  0  0  0  0  0  0  0
   45.4020   30.1870   46.3910 C   0  0  0  0  0  0  0  0  0  0  0  0
   44.6440   29.1810   46.9250 C   0  0  0  0  0  0  0  0  0  0  0  0
   43.9840   28.5220   45.9470 N   0  0  0  0  0  0  0  0  0  0  0  0
   44.2950   29.0820   44.7760 C   0  0  0  0  0  0  0  0  0  0  0  0
   45.1240   30.0460   45.0990 N   0  0  0  0  0  0  0  0  0  0  0  0
   47.3915   33.9845   44.7267 H   0  0  0  0  0  0  0  0  0  0  0  0
   46.7566   32.3136   44.4331 H   0  0  0  0  0  0  0  0  0  0  0  0
   46.2306   35.8532   44.3075 H   0  0  0  0  0  0  0  0  0  0  0  0
   44.6626   37.0232   42.6838 H   0  0  0  0  0  0  0  0  0  0  0  0
   42.4435   31.5186   42.3542 H   0  0  0  0  0  0  0  0  0  0  0  0
   40.6893   30.5921   40.9728 H   0  0  0  0  0  0  0  0  0  0  0  0
   40.0429   31.8228   38.8723 H   0  0  0  0  0  0  0  0  0  0  0  0
   41.2369   33.9255   38.3266 H   0  0  0  0  0  0  0  0  0  0  0  0
   42.9846   34.7780   39.7697 H   0  0  0  0  0  0  0  0  0  0  0  0
   45.9321   34.3320   46.5335 H   0  0  0  0  0  0  0  0  0  0  0  0
   44.8822   32.9166   46.0234 H   0  0  0  0  0  0  0  0  0  0  0  0
   48.6503   31.4798   49.3836 H   0  0  0  0  0  0  0  0  0  0  0  0
   47.1445   29.5126   48.3380 H   0  0  0  0  0  0  0  0  0  0  0  0
   44.5808   28.9427   47.9970 H   0  0  0  0  0  0  0  0  0  0  0  0
   43.9392   28.8008   43.7739 H   0  0  0  0  0  0  0  0  0  0  0  0
   45.5390   30.6632   44.3865 H   0  0  0  0  0  0  0  0  0  0  0  0
  1 14  1  0
  2  1  1  0
  3  2  2  0
  4  3  1  0
  5  6  1  0
  5  4  2  0
  6  7  2  0
  7  2  1  0
  8  9  2  0
  8  6  1  0
 10  9  1  0
 11 10  2  0
 12 11  1  0
 12 13  2  0
 13  8  1  0
 14 15  1  0
 15 19  1  0
 15 16  1  0
 16 17  2  0
 18 17  1  0
 19 18  2  0
 20 21  2  0
 20 19  1  0
 22 21  1  0
 23 24  1  0
 23 22  2  0
 24 20  1  0
  1 25  1  0
  1 26  1  0
  3 27  1  0
  4 28  1  0
  9 29  1  0
 10 30  1  0
 11 31  1  0
 12 32  1  0
 13 33  1  0
 14 34  1  0
 14 35  1  0
 17 36  1  0
 18 37  1  0
 21 38  1  0
 23 39  1  0
 24 40  1  0
M  ISO  8  25   8  26   8  27  14  28  14  29  14  30  14  31  14  32  14
M  ISO  8  33  14  34   8  35   8  36  14  37  14  38  14  39  14  40   9
M  END
>  <minimizedAffinity>  (1) 
-4.90644503

>  <minimizedRMSD>  (1) 
5.68012428

$$$$
