
     RDKit          3D

 42 44  0  0  0  0  0  0  0  0999 V2000
   46.3960   34.5250   43.5210 C   0  0  0  0  0  0  0  0  0  0  0  0
   46.0570   33.9710   44.7490 C   0  0  0  0  0  0  0  0  0  0  0  0
   45.0530   34.5750   45.4740 C   0  0  0  0  0  0  0  0  0  0  0  0
   44.4410   35.6760   44.9630 N   0  0  0  0  0  0  0  0  0  0  0  0
   44.7710   36.2010   43.7840 C   0  0  0  0  0  0  0  0  0  0  0  0
   45.7330   35.6390   43.0660 N   0  0  0  0  0  0  0  0  0  0  0  0
   47.4760   34.0610   42.5870 C   0  0  0  0  0  0  0  0  0  0  0  0
   48.2960   35.1740   42.0720 C   0  0  0  0  0  0  0  0  0  0  0  0
   48.4910   35.0270   40.6090 C   0  0  0  0  0  0  0  0  0  0  0  0
   47.3420   34.1800   40.1700 C   0  0  0  0  0  0  0  0  0  0  0  0
   46.8170   33.4290   41.3470 C   0  0  0  0  0  0  0  0  0  0  0  0
   46.7900   32.8070   45.1560 C   0  0  0  0  0  0  0  0  0  0  0  0
   46.7730   32.7090   46.6770 C   0  0  0  0  0  0  0  0  0  0  0  0
   46.2390   31.4170   47.0910 N   0  0  0  0  0  0  0  0  0  0  0  0
   46.0540   30.4730   46.1240 C   0  0  0  0  0  0  0  0  0  0  0  0
   45.5510   29.2370   46.4740 C   0  0  0  0  0  0  0  0  0  0  0  0
   45.3010   28.1190   45.5260 C   0  0  0  0  0  0  0  0  0  0  0  0
   45.2360   28.9570   47.7880 C   0  0  0  0  0  0  0  0  0  0  0  0
   44.7670   27.8360   48.1760 O   0  0  0  0  0  0  0  0  0  0  0  0
   45.4300   29.9180   48.7340 N   0  0  0  0  0  0  0  0  0  0  0  0
   45.9230   31.1150   48.3630 C   0  0  0  0  0  0  0  0  0  0  0  0
   46.1080   32.0210   49.2430 O   0  0  0  0  0  0  0  0  0  0  0  0
   44.7511   34.1721   46.4520 H   0  0  0  0  0  0  0  0  0  0  0  0
   44.2492   37.0939   43.4093 H   0  0  0  0  0  0  0  0  0  0  0  0
   48.1080   33.3631   43.1557 H   0  0  0  0  0  0  0  0  0  0  0  0
   47.7866   36.1270   42.2775 H   0  0  0  0  0  0  0  0  0  0  0  0
   49.2768   35.1598   42.5698 H   0  0  0  0  0  0  0  0  0  0  0  0
   48.4653   36.0077   40.1114 H   0  0  0  0  0  0  0  0  0  0  0  0
   49.4642   34.5810   40.3562 H   0  0  0  0  0  0  0  0  0  0  0  0
   46.5485   34.8199   39.7566 H   0  0  0  0  0  0  0  0  0  0  0  0
   47.6749   33.4733   39.3956 H   0  0  0  0  0  0  0  0  0  0  0  0
   45.7229   33.5267   41.4048 H   0  0  0  0  0  0  0  0  0  0  0  0
   47.0468   32.3558   41.2734 H   0  0  0  0  0  0  0  0  0  0  0  0
   46.3235   31.9092   44.7245 H   0  0  0  0  0  0  0  0  0  0  0  0
   47.8289   32.8829   44.8026 H   0  0  0  0  0  0  0  0  0  0  0  0
   47.7984   32.8182   47.0599 H   0  0  0  0  0  0  0  0  0  0  0  0
   46.1347   33.5082   47.0817 H   0  0  0  0  0  0  0  0  0  0  0  0
   46.3033   30.6949   45.0759 H   0  0  0  0  0  0  0  0  0  0  0  0
   45.0951   27.1981   46.0912 H   0  0  0  0  0  0  0  0  0  0  0  0
   44.4350   28.3619   44.8927 H   0  0  0  0  0  0  0  0  0  0  0  0
   46.1880   27.9699   44.8927 H   0  0  0  0  0  0  0  0  0  0  0  0
   45.2024   29.7313   49.7210 H   0  0  0  0  0  0  0  0  0  0  0  0
  1  2  1  0
  2 12  1  0
  2  3  2  0
  4  3  1  0
  5  4  2  0
  6  1  2  0
  6  5  1  0
  7  1  1  0
  8  7  1  0
  9  8  1  0
 10  9  1  0
 10 11  1  0
 11  7  1  0
 12 13  1  0
 13 14  1  0
 14 21  1  0
 15 16  2  0
 15 14  1  0
 16 18  1  0
 17 16  1  0
 18 19  2  0
 18 20  1  0
 21 20  1  0
 21 22  2  0
  3 23  1  0
  5 24  1  0
  7 25  1  0
  8 26  1  0
  8 27  1  0
  9 28  1  0
  9 29  1  0
 10 30  1  0
 10 31  1  0
 11 32  1  0
 11 33  1  0
 12 34  1  0
 12 35  1  0
 13 36  1  0
 13 37  1  0
 15 38  1  0
 17 39  1  0
 17 40  1  0
 17 41  1  0
 20 42  1  0
M  ISO  8  23  14  24  14  25  13  26  13  27  13  28  13  29  13  30  13
M  ISO  8  31  13  32  13  33  13  34   8  35   8  36   8  37   8  38  14
M  ISO  4  39   8  40   8  41   8  42   9
M  END
>  <minimizedAffinity>  (1) 
-6.16127205

>  <minimizedRMSD>  (1) 
2.40896583

$$$$
