
     RDKit          3D

 45 47  0  0  0  0  0  0  0  0999 V2000
   46.4100   34.6790   43.3170 C   0  0  0  0  0  0  0  0  0  0  0  0
   45.9860   34.1130   44.5140 C   0  0  0  0  0  0  0  0  0  0  0  0
   44.9690   34.7450   45.1960 C   0  0  0  0  0  0  0  0  0  0  0  0
   44.4250   35.8840   44.6840 N   0  0  0  0  0  0  0  0  0  0  0  0
   44.8450   36.4150   43.5340 C   0  0  0  0  0  0  0  0  0  0  0  0
   45.8240   35.8290   42.8500 N   0  0  0  0  0  0  0  0  0  0  0  0
   47.5110   34.1800   42.4340 C   0  0  0  0  0  0  0  0  0  0  0  0
   48.3220   35.2730   41.8660 C   0  0  0  0  0  0  0  0  0  0  0  0
   48.5530   35.0380   40.4160 C   0  0  0  0  0  0  0  0  0  0  0  0
   47.4120   34.1700   40.0120 C   0  0  0  0  0  0  0  0  0  0  0  0
   46.8810   33.4630   41.2240 C   0  0  0  0  0  0  0  0  0  0  0  0
   46.6370   32.9250   44.9510 C   0  0  0  0  0  0  0  0  0  0  0  0
   46.8990   33.0000   46.4390 C   0  0  0  0  0  0  0  0  0  0  0  0
   46.0120   32.0720   47.2310 C   0  0  0  0  0  0  0  0  0  0  0  0
   46.3520   32.0240   48.7060 C   0  0  0  0  0  0  0  0  0  0  0  0
   45.1410   31.3520   49.3640 C   0  0  0  0  0  0  0  0  0  0  0  0
   45.0950   29.9400   48.8780 C   0  0  0  0  0  0  0  0  0  0  0  0
   46.0000   29.6690   47.6910 C   0  0  0  0  0  0  0  0  0  0  0  0
   45.7850   30.7370   46.6170 C   0  0  0  0  0  0  0  0  0  0  0  0
   44.5993   34.3329   46.1465 H   0  0  0  0  0  0  0  0  0  0  0  0
   44.3819   37.3367   43.1519 H   0  0  0  0  0  0  0  0  0  0  0  0
   48.1456   33.5295   43.0537 H   0  0  0  0  0  0  0  0  0  0  0  0
   47.7913   36.2272   41.9998 H   0  0  0  0  0  0  0  0  0  0  0  0
   49.2918   35.3081   42.3839 H   0  0  0  0  0  0  0  0  0  0  0  0
   48.5411   35.9861   39.8583 H   0  0  0  0  0  0  0  0  0  0  0  0
   49.5312   34.5793   40.2094 H   0  0  0  0  0  0  0  0  0  0  0  0
   46.6176   34.7883   39.5685 H   0  0  0  0  0  0  0  0  0  0  0  0
   47.7519   33.4315   39.2710 H   0  0  0  0  0  0  0  0  0  0  0  0
   45.7842   33.5380   41.2620 H   0  0  0  0  0  0  0  0  0  0  0  0
   47.1309   32.3918   41.2114 H   0  0  0  0  0  0  0  0  0  0  0  0
   45.9955   32.0575   44.7367 H   0  0  0  0  0  0  0  0  0  0  0  0
   47.5941   32.8196   44.4193 H   0  0  0  0  0  0  0  0  0  0  0  0
   47.9486   32.7293   46.6261 H   0  0  0  0  0  0  0  0  0  0  0  0
   46.6813   34.0279   46.7645 H   0  0  0  0  0  0  0  0  0  0  0  0
   45.0201   32.5445   47.1770 H   0  0  0  0  0  0  0  0  0  0  0  0
   47.2634   31.4316   48.8747 H   0  0  0  0  0  0  0  0  0  0  0  0
   46.5486   33.0239   49.1201 H   0  0  0  0  0  0  0  0  0  0  0  0
   45.2498   31.3696   50.4585 H   0  0  0  0  0  0  0  0  0  0  0  0
   44.2133   31.8828   49.1039 H   0  0  0  0  0  0  0  0  0  0  0  0
   45.3991   29.2795   49.7034 H   0  0  0  0  0  0  0  0  0  0  0  0
   44.0643   29.7507   48.5436 H   0  0  0  0  0  0  0  0  0  0  0  0
   47.0493   29.6892   48.0204 H   0  0  0  0  0  0  0  0  0  0  0  0
   45.7606   28.6807   47.2716 H   0  0  0  0  0  0  0  0  0  0  0  0
   44.7564   30.6751   46.2321 H   0  0  0  0  0  0  0  0  0  0  0  0
   46.4848   30.5806   45.7829 H   0  0  0  0  0  0  0  0  0  0  0  0
  1  2  1  0
  2 12  1  0
  2  3  2  0
  4  3  1  0
  5  4  2  0
  6  1  2  0
  6  5  1  0
  7  1  1  0
  8  7  1  0
  9  8  1  0
 10  9  1  0
 10 11  1  0
 11  7  1  0
 12 13  1  0
 13 14  1  0
 14 15  1  0
 15 16  1  0
 17 16  1  0
 18 17  1  0
 19 14  1  0
 19 18  1  0
  3 20  1  0
  5 21  1  0
  7 22  1  0
  8 23  1  0
  8 24  1  0
  9 25  1  0
  9 26  1  0
 10 27  1  0
 10 28  1  0
 11 29  1  0
 11 30  1  0
 12 31  1  0
 12 32  1  0
 13 33  1  0
 13 34  1  0
 14 35  1  0
 15 36  1  0
 15 37  1  0
 16 38  1  0
 16 39  1  0
 17 40  1  0
 17 41  1  0
 18 42  1  0
 18 43  1  0
 19 44  1  0
 19 45  1  0
M  ISO  8  20  14  21  14  22  13  23  13  24  13  25  13  26  13  27  13
M  ISO  8  28  13  29  13  30  13  31   8  32   8  33   8  34   8  35  13
M  ISO  8  36  13  37  13  38  13  39  13  40  13  41  13  42  13  43  13
M  ISO  2  44  13  45  13
M  END
>  <minimizedAffinity>  (1) 
-5.95556259

>  <minimizedRMSD>  (1) 
1.89517319

$$$$
