
     RDKit          3D

 45 48  0  0  0  0  0  0  0  0999 V2000
   46.3030   34.6490   43.3640 C   0  0  0  0  0  0  0  0  0  0  0  0
   45.8350   34.0760   44.5370 C   0  0  0  0  0  0  0  0  0  0  0  0
   44.8880   34.7650   45.2590 C   0  0  0  0  0  0  0  0  0  0  0  0
   44.4490   35.9620   44.8090 N   0  0  0  0  0  0  0  0  0  0  0  0
   44.9060   36.5120   43.6720 C   0  0  0  0  0  0  0  0  0  0  0  0
   45.8190   35.8650   42.9600 N   0  0  0  0  0  0  0  0  0  0  0  0
   47.3570   34.1040   42.4470 C   0  0  0  0  0  0  0  0  0  0  0  0
   48.2320   35.1630   41.9030 C   0  0  0  0  0  0  0  0  0  0  0  0
   48.4200   34.9220   40.4360 C   0  0  0  0  0  0  0  0  0  0  0  0
   47.2240   34.1380   40.0300 C   0  0  0  0  0  0  0  0  0  0  0  0
   46.6630   33.4530   41.2360 C   0  0  0  0  0  0  0  0  0  0  0  0
   46.3860   32.7930   44.8990 C   0  0  0  0  0  0  0  0  0  0  0  0
   46.9650   32.8700   46.2980 C   0  0  0  0  0  0  0  0  0  0  0  0
   46.2850   31.9040   47.2370 C   0  0  0  0  0  0  0  0  0  0  0  0
   45.7860   32.3600   48.4640 C   0  0  0  0  0  0  0  0  0  0  0  0
   45.1730   31.5780   49.4090 C   0  0  0  0  0  0  0  0  0  0  0  0
   45.0370   30.2400   49.1300 C   0  0  0  0  0  0  0  0  0  0  0  0
   45.5110   29.7380   47.9360 C   0  0  0  0  0  0  0  0  0  0  0  0
   45.3710   28.3860   47.6410 C   0  0  0  0  0  0  0  0  0  0  0  0
   45.8320   27.8560   46.4420 C   0  0  0  0  0  0  0  0  0  0  0  0
   46.4320   28.7060   45.5480 C   0  0  0  0  0  0  0  0  0  0  0  0
   46.5700   30.0460   45.8420 C   0  0  0  0  0  0  0  0  0  0  0  0
   46.1170   30.5730   47.0260 C   0  0  0  0  0  0  0  0  0  0  0  0
   44.4911   34.3453   46.1951 H   0  0  0  0  0  0  0  0  0  0  0  0
   44.5272   37.4882   43.3351 H   0  0  0  0  0  0  0  0  0  0  0  0
   47.9618   33.3955   43.0321 H   0  0  0  0  0  0  0  0  0  0  0  0
   47.7649   36.1464   42.0600 H   0  0  0  0  0  0  0  0  0  0  0  0
   49.2058   35.1450   42.4143 H   0  0  0  0  0  0  0  0  0  0  0  0
   48.4643   35.8749   39.8882 H   0  0  0  0  0  0  0  0  0  0  0  0
   49.3598   34.3942   40.2164 H   0  0  0  0  0  0  0  0  0  0  0  0
   46.4674   34.8127   39.6029 H   0  0  0  0  0  0  0  0  0  0  0  0
   47.5066   33.3907   39.2739 H   0  0  0  0  0  0  0  0  0  0  0  0
   45.5748   33.6038   41.2910 H   0  0  0  0  0  0  0  0  0  0  0  0
   46.8376   32.3674   41.2037 H   0  0  0  0  0  0  0  0  0  0  0  0
   45.5923   32.0319   44.8717 H   0  0  0  0  0  0  0  0  0  0  0  0
   47.1794   32.5200   44.1876 H   0  0  0  0  0  0  0  0  0  0  0  0
   48.0374   32.6292   46.2538 H   0  0  0  0  0  0  0  0  0  0  0  0
   46.8055   33.8893   46.6797 H   0  0  0  0  0  0  0  0  0  0  0  0
   45.8947   33.4316   48.6874 H   0  0  0  0  0  0  0  0  0  0  0  0
   44.8047   32.0054   50.3533 H   0  0  0  0  0  0  0  0  0  0  0  0
   44.5518   29.5712   49.8562 H   0  0  0  0  0  0  0  0  0  0  0  0
   44.8854   27.7226   48.3718 H   0  0  0  0  0  0  0  0  0  0  0  0
   45.7190   26.7854   46.2162 H   0  0  0  0  0  0  0  0  0  0  0  0
   46.8057   28.3158   44.5898 H   0  0  0  0  0  0  0  0  0  0  0  0
   47.0548   30.7089   45.1102 H   0  0  0  0  0  0  0  0  0  0  0  0
  1  2  1  0
  2 12  1  0
  2  3  2  0
  4  3  1  0
  5  4  2  0
  6  1  2  0
  6  5  1  0
  7  1  1  0
  8  7  1  0
  9  8  1  0
 10  9  1  0
 10 11  1  0
 11  7  1  0
 12 13  1  0
 13 14  1  0
 14 15  2  0
 15 16  1  0
 17 16  2  0
 18 17  1  0
 19 18  2  0
 20 19  1  0
 21 22  1  0
 21 20  2  0
 22 23  2  0
 23 14  1  0
 23 18  1  0
  3 24  1  0
  5 25  1  0
  7 26  1  0
  8 27  1  0
  8 28  1  0
  9 29  1  0
  9 30  1  0
 10 31  1  0
 10 32  1  0
 11 33  1  0
 11 34  1  0
 12 35  1  0
 12 36  1  0
 13 37  1  0
 13 38  1  0
 15 39  1  0
 16 40  1  0
 17 41  1  0
 19 42  1  0
 20 43  1  0
 21 44  1  0
 22 45  1  0
M  ISO  8  24  14  25  14  26  13  27  13  28  13  29  13  30  13  31  13
M  ISO  8  32  13  33  13  34  13  35   8  36   8  37   8  38   8  39  14
M  ISO  6  40  14  41  14  42  14  43  14  44  14  45  14
M  END
>  <minimizedAffinity>  (1) 
-6.46362162

>  <minimizedRMSD>  (1) 
2.59939265

$$$$
