
     RDKit          3D

 39 41  0  0  0  0  0  0  0  0999 V2000
   46.3990   34.4880   43.5660 C   0  0  0  0  0  0  0  0  0  0  0  0
   46.0900   33.9260   44.8000 C   0  0  0  0  0  0  0  0  0  0  0  0
   45.0870   34.5230   45.5340 C   0  0  0  0  0  0  0  0  0  0  0  0
   44.4510   35.6140   45.0350 N   0  0  0  0  0  0  0  0  0  0  0  0
   44.7570   36.1450   43.8460 C   0  0  0  0  0  0  0  0  0  0  0  0
   45.7170   35.5940   43.1170 N   0  0  0  0  0  0  0  0  0  0  0  0
   47.4660   34.0440   42.6140 C   0  0  0  0  0  0  0  0  0  0  0  0
   48.2840   35.1660   42.1110 C   0  0  0  0  0  0  0  0  0  0  0  0
   48.4830   35.0180   40.6490 C   0  0  0  0  0  0  0  0  0  0  0  0
   47.3310   34.1880   40.2050 C   0  0  0  0  0  0  0  0  0  0  0  0
   46.7930   33.4160   41.3780 C   0  0  0  0  0  0  0  0  0  0  0  0
   46.8280   32.7740   45.1990 C   0  0  0  0  0  0  0  0  0  0  0  0
   46.8420   32.6810   46.7190 C   0  0  0  0  0  0  0  0  0  0  0  0
   46.2820   31.3950   47.1560 N   0  0  0  0  0  0  0  0  0  0  0  0
   46.1780   30.3720   46.2860 C   0  0  0  0  0  0  0  0  0  0  0  0
   45.6720   29.1240   46.5750 C   0  0  0  0  0  0  0  0  0  0  0  0
   45.2500   28.9540   47.8750 C   0  0  0  0  0  0  0  0  0  0  0  0
   44.7740   27.8360   48.2180 O   0  0  0  0  0  0  0  0  0  0  0  0
   45.3530   29.9800   48.7540 N   0  0  0  0  0  0  0  0  0  0  0  0
   45.8550   31.1800   48.4170 C   0  0  0  0  0  0  0  0  0  0  0  0
   45.9650   32.1520   49.2050 O   0  0  0  0  0  0  0  0  0  0  0  0
   44.8040   34.1183   46.5169 H   0  0  0  0  0  0  0  0  0  0  0  0
   44.2175   37.0298   43.4771 H   0  0  0  0  0  0  0  0  0  0  0  0
   48.1106   33.3416   43.1627 H   0  0  0  0  0  0  0  0  0  0  0  0
   47.7688   36.1159   42.3163 H   0  0  0  0  0  0  0  0  0  0  0  0
   49.2613   35.1615   42.6158 H   0  0  0  0  0  0  0  0  0  0  0  0
   48.4708   35.9995   40.1525 H   0  0  0  0  0  0  0  0  0  0  0  0
   49.4520   34.5606   40.4003 H   0  0  0  0  0  0  0  0  0  0  0  0
   46.5423   34.8400   39.8014 H   0  0  0  0  0  0  0  0  0  0  0  0
   47.6610   33.4879   39.4233 H   0  0  0  0  0  0  0  0  0  0  0  0
   45.6996   33.5190   41.4394 H   0  0  0  0  0  0  0  0  0  0  0  0
   47.0047   32.3397   41.2954 H   0  0  0  0  0  0  0  0  0  0  0  0
   46.3554   31.8729   44.7809 H   0  0  0  0  0  0  0  0  0  0  0  0
   47.8602   32.8530   44.8271 H   0  0  0  0  0  0  0  0  0  0  0  0
   47.8781   32.7665   47.0783 H   0  0  0  0  0  0  0  0  0  0  0  0
   46.2312   33.4967   47.1332 H   0  0  0  0  0  0  0  0  0  0  0  0
   46.5267   30.5482   45.2577 H   0  0  0  0  0  0  0  0  0  0  0  0
   45.6096   28.3230   45.8237 H   0  0  0  0  0  0  0  0  0  0  0  0
   45.0328   29.8338   49.7220 H   0  0  0  0  0  0  0  0  0  0  0  0
  1  2  1  0
  2 12  1  0
  2  3  2  0
  4  3  1  0
  5  4  2  0
  6  1  2  0
  6  5  1  0
  7  1  1  0
  8  7  1  0
  9  8  1  0
 10  9  1  0
 10 11  1  0
 11  7  1  0
 12 13  1  0
 13 14  1  0
 14 20  1  0
 15 16  2  0
 15 14  1  0
 16 17  1  0
 17 18  2  0
 17 19  1  0
 20 19  1  0
 20 21  2  0
  3 22  1  0
  5 23  1  0
  7 24  1  0
  8 25  1  0
  8 26  1  0
  9 27  1  0
  9 28  1  0
 10 29  1  0
 10 30  1  0
 11 31  1  0
 11 32  1  0
 12 33  1  0
 12 34  1  0
 13 35  1  0
 13 36  1  0
 15 37  1  0
 16 38  1  0
 19 39  1  0
M  ISO  8  22  14  23  14  24  13  25  13  26  13  27  13  28  13  29  13
M  ISO  8  30  13  31  13  32  13  33   8  34   8  35   8  36   8  37  14
M  ISO  2  38  14  39   9
M  END
>  <minimizedAffinity>  (1) 
-6.07405233

>  <minimizedRMSD>  (1) 
1.95767546

$$$$
