
     RDKit          3D

 43 46  0  0  0  0  0  0  0  0999 V2000
   46.4950   34.4500   43.5520 C   0  0  0  0  0  0  0  0  0  0  0  0
   46.2110   33.8070   44.7550 C   0  0  0  0  0  0  0  0  0  0  0  0
   45.2050   34.3330   45.5320 C   0  0  0  0  0  0  0  0  0  0  0  0
   44.5380   35.4440   45.1000 N   0  0  0  0  0  0  0  0  0  0  0  0
   44.8240   36.0440   43.9490 C   0  0  0  0  0  0  0  0  0  0  0  0
   45.7890   35.5600   43.1750 N   0  0  0  0  0  0  0  0  0  0  0  0
   47.5650   34.0580   42.5730 C   0  0  0  0  0  0  0  0  0  0  0  0
   48.2750   35.2280   42.0270 C   0  0  0  0  0  0  0  0  0  0  0  0
   48.4360   35.0700   40.5540 C   0  0  0  0  0  0  0  0  0  0  0  0
   47.2880   34.2110   40.1660 C   0  0  0  0  0  0  0  0  0  0  0  0
   46.8750   33.4020   41.3550 C   0  0  0  0  0  0  0  0  0  0  0  0
   46.9780   32.6630   45.1110 C   0  0  0  0  0  0  0  0  0  0  0  0
   46.8220   32.3860   46.6040 C   0  0  0  0  0  0  0  0  0  0  0  0
   47.3250   31.0530   46.9160 N   0  0  0  0  0  0  0  0  0  0  0  0
   47.0550   29.9360   46.1790 C   0  0  0  0  0  0  0  0  0  0  0  0
   47.6710   28.8600   46.7360 N   0  0  0  0  0  0  0  0  0  0  0  0
   48.3380   29.2880   47.8300 C   0  0  0  0  0  0  0  0  0  0  0  0
   49.1180   28.6030   48.7420 C   0  0  0  0  0  0  0  0  0  0  0  0
   49.2770   27.3540   48.5850 O   0  0  0  0  0  0  0  0  0  0  0  0
   49.6520   29.3360   49.7400 N   0  0  0  0  0  0  0  0  0  0  0  0
   49.4170   30.6580   49.8130 C   0  0  0  0  0  0  0  0  0  0  0  0
   50.0530   31.2940   50.9270 N   0  0  0  0  0  0  0  0  0  0  0  0
   48.6620   31.3450   48.9360 N   0  0  0  0  0  0  0  0  0  0  0  0
   48.1090   30.6470   47.9210 C   0  0  0  0  0  0  0  0  0  0  0  0
   44.9405   33.8638   46.4911 H   0  0  0  0  0  0  0  0  0  0  0  0
   44.2636   36.9382   43.6385 H   0  0  0  0  0  0  0  0  0  0  0  0
   48.2707   33.4003   43.1015 H   0  0  0  0  0  0  0  0  0  0  0  0
   47.6953   36.1391   42.2366 H   0  0  0  0  0  0  0  0  0  0  0  0
   49.2663   35.3070   42.4973 H   0  0  0  0  0  0  0  0  0  0  0  0
   48.3858   36.0448   40.0469 H   0  0  0  0  0  0  0  0  0  0  0  0
   49.4074   34.6360   40.2749 H   0  0  0  0  0  0  0  0  0  0  0  0
   46.4485   34.8407   39.8363 H   0  0  0  0  0  0  0  0  0  0  0  0
   47.5788   33.5448   39.3404 H   0  0  0  0  0  0  0  0  0  0  0  0
   45.7818   33.4278   41.4745 H   0  0  0  0  0  0  0  0  0  0  0  0
   47.1649   32.3465   41.2462 H   0  0  0  0  0  0  0  0  0  0  0  0
   46.6247   31.7928   44.5384 H   0  0  0  0  0  0  0  0  0  0  0  0
   48.0380   32.8485   44.8828 H   0  0  0  0  0  0  0  0  0  0  0  0
   47.3915   33.1338   47.1753 H   0  0  0  0  0  0  0  0  0  0  0  0
   45.7573   32.4441   46.8741 H   0  0  0  0  0  0  0  0  0  0  0  0
   46.4332   29.9106   45.2719 H   0  0  0  0  0  0  0  0  0  0  0  0
   50.2431   28.8808   50.4502 H   0  0  0  0  0  0  0  0  0  0  0  0
   49.9380   32.3066   51.0765 H   0  0  0  0  0  0  0  0  0  0  0  0
   50.6256   30.7389   51.5789 H   0  0  0  0  0  0  0  0  0  0  0  0
  1  2  1  0
  2 12  1  0
  2  3  2  0
  4  3  1  0
  5  4  2  0
  6  1  2  0
  6  5  1  0
  7  1  1  0
  8  7  1  0
  9  8  1  0
 10  9  1  0
 10 11  1  0
 11  7  1  0
 12 13  1  0
 13 14  1  0
 14 24  1  0
 15 16  2  0
 15 14  1  0
 16 17  1  0
 17 24  2  0
 17 18  1  0
 18 20  1  0
 19 18  2  0
 20 21  1  0
 21 22  1  0
 23 21  2  0
 24 23  1  0
  3 25  1  0
  5 26  1  0
  7 27  1  0
  8 28  1  0
  8 29  1  0
  9 30  1  0
  9 31  1  0
 10 32  1  0
 10 33  1  0
 11 34  1  0
 11 35  1  0
 12 36  1  0
 12 37  1  0
 13 38  1  0
 13 39  1  0
 15 40  1  0
 20 41  1  0
 22 42  1  0
 22 43  1  0
M  ISO  8  25  14  26  14  27  13  28  13  29  13  30  13  31  13  32  13
M  ISO  8  33  13  34  13  35  13  36   8  37   8  38   8  39   8  40  14
M  ISO  1  41   9
M  END
>  <minimizedAffinity>  (1) 
-6.36930656

>  <minimizedRMSD>  (1) 
0.646906316

$$$$
