
     RDKit          3D

 36 38  0  0  0  0  0  0  0  0999 V2000
   47.2500   32.7990   43.9790 C   0  0  0  0  0  0  0  0  0  0  0  0
   47.9260   33.7730   43.1850 N   0  0  0  0  0  0  0  0  0  0  0  0
   49.2130   34.1020   43.0880 N   0  0  0  0  0  0  0  0  0  0  0  0
   49.4180   35.0810   42.2160 C   0  0  0  0  0  0  0  0  0  0  0  0
   48.1780   35.4010   41.7190 C   0  0  0  0  0  0  0  0  0  0  0  0
   47.2410   34.5600   42.3470 C   0  0  0  0  0  0  0  0  0  0  0  0
   45.8580   34.7800   41.9220 C   0  0  0  0  0  0  0  0  0  0  0  0
   45.1710   34.2280   40.8490 C   0  0  0  0  0  0  0  0  0  0  0  0
   43.9160   34.6850   40.7860 N   0  0  0  0  0  0  0  0  0  0  0  0
   43.7540   35.5490   41.8230 C   0  0  0  0  0  0  0  0  0  0  0  0
   44.9220   35.5710   42.4600 N   0  0  0  0  0  0  0  0  0  0  0  0
   46.4520   33.4160   45.1530 C   0  0  0  0  0  0  0  0  0  0  0  0
   46.5200   32.5560   46.3330 C   0  0  0  0  0  0  0  0  0  0  0  0
   45.5770   32.8420   47.3110 C   0  0  0  0  0  0  0  0  0  0  0  0
   45.5090   32.1140   48.4990 C   0  0  0  0  0  0  0  0  0  0  0  0
   46.4250   31.1040   48.6370 N   0  0  0  0  0  0  0  0  0  0  0  0
   47.3400   30.8440   47.6600 C   0  0  0  0  0  0  0  0  0  0  0  0
   47.3730   31.5600   46.5440 N   0  0  0  0  0  0  0  0  0  0  0  0
   48.2580   29.7230   47.9680 C   0  0  0  0  0  0  0  0  0  0  0  0
   49.0380   29.3210   46.7310 C   0  0  0  0  0  0  0  0  0  0  0  0
   47.9969   32.1044   44.3909 H   0  0  0  0  0  0  0  0  0  0  0  0
   46.5273   32.2889   43.3251 H   0  0  0  0  0  0  0  0  0  0  0  0
   50.3805   35.5406   41.9471 H   0  0  0  0  0  0  0  0  0  0  0  0
   47.9579   36.1735   40.9675 H   0  0  0  0  0  0  0  0  0  0  0  0
   45.6042   33.5064   40.1407 H   0  0  0  0  0  0  0  0  0  0  0  0
   42.8457   36.1130   42.0818 H   0  0  0  0  0  0  0  0  0  0  0  0
   45.0914   36.1479   43.2963 H   0  0  0  0  0  0  0  0  0  0  0  0
   46.8755   34.4009   45.3992 H   0  0  0  0  0  0  0  0  0  0  0  0
   45.3995   33.5178   44.8500 H   0  0  0  0  0  0  0  0  0  0  0  0
   44.8651   33.6639   47.1448 H   0  0  0  0  0  0  0  0  0  0  0  0
   44.7651   32.3371   49.2780 H   0  0  0  0  0  0  0  0  0  0  0  0
   48.9613   30.0363   48.7537 H   0  0  0  0  0  0  0  0  0  0  0  0
   47.6658   28.8618   48.3111 H   0  0  0  0  0  0  0  0  0  0  0  0
   49.9785   28.8363   47.0320 H   0  0  0  0  0  0  0  0  0  0  0  0
   48.4392   28.6192   46.1319 H   0  0  0  0  0  0  0  0  0  0  0  0
   49.2621   30.2159   46.1319 H   0  0  0  0  0  0  0  0  0  0  0  0
  1 12  1  0
  2  1  1  0
  3  2  1  0
  4  3  2  0
  5  4  1  0
  5  6  2  0
  6  2  1  0
  7  6  1  0
  7 11  1  0
  8  7  2  0
  9  8  1  0
  9 10  2  0
 10 11  1  0
 12 13  1  0
 13 18  1  0
 13 14  2  0
 14 15  1  0
 15 16  2  0
 17 19  1  0
 17 16  1  0
 18 17  2  0
 20 19  1  0
  1 21  1  0
  1 22  1  0
  4 23  1  0
  5 24  1  0
  8 25  1  0
 10 26  1  0
 11 27  1  0
 12 28  1  0
 12 29  1  0
 14 30  1  0
 15 31  1  0
 19 32  1  0
 19 33  1  0
 20 34  1  0
 20 35  1  0
 20 36  1  0
M  ISO  8  21   8  22   8  23  14  24  14  25  14  26  14  27   9  28   8
M  ISO  8  29   8  30  14  31  14  32   8  33   8  34   8  35   8  36   8
M  END
>  <minimizedAffinity>  (1) 
-4.81682968

>  <minimizedRMSD>  (1) 
4.93413496

$$$$
