
     RDKit          3D

 36 38  0  0  0  0  0  0  0  0999 V2000
   46.2810   34.5790   43.5090 C   0  0  0  0  0  0  0  0  0  0  0  0
   45.8620   34.0750   44.7370 C   0  0  0  0  0  0  0  0  0  0  0  0
   44.9050   34.7860   45.4320 C   0  0  0  0  0  0  0  0  0  0  0  0
   44.4220   35.9300   44.8930 N   0  0  0  0  0  0  0  0  0  0  0  0
   44.8230   36.4110   43.7190 C   0  0  0  0  0  0  0  0  0  0  0  0
   45.7430   35.7470   43.0280 N   0  0  0  0  0  0  0  0  0  0  0  0
   47.3250   33.9890   42.6050 C   0  0  0  0  0  0  0  0  0  0  0  0
   48.3080   34.9840   42.1500 C   0  0  0  0  0  0  0  0  0  0  0  0
   48.5240   34.8750   40.6880 C   0  0  0  0  0  0  0  0  0  0  0  0
   47.2850   34.2070   40.1880 C   0  0  0  0  0  0  0  0  0  0  0  0
   46.6310   33.4900   41.3210 C   0  0  0  0  0  0  0  0  0  0  0  0
   46.4610   32.8520   45.1780 C   0  0  0  0  0  0  0  0  0  0  0  0
   46.8210   32.9750   46.6550 C   0  0  0  0  0  0  0  0  0  0  0  0
   46.0730   31.9490   47.4460 C   0  0  0  0  0  0  0  0  0  0  0  0
   46.0340   31.9700   48.8250 C   0  0  0  0  0  0  0  0  0  0  0  0
   45.2680   30.8910   49.1250 N   0  0  0  0  0  0  0  0  0  0  0  0
   44.8780   30.2690   47.9760 C   0  0  0  0  0  0  0  0  0  0  0  0
   45.3820   30.9300   46.9190 N   0  0  0  0  0  0  0  0  0  0  0  0
   44.5410   34.4294   46.4069 H   0  0  0  0  0  0  0  0  0  0  0  0
   44.3982   37.3464   43.3257 H   0  0  0  0  0  0  0  0  0  0  0  0
   47.8308   33.1977   43.1777 H   0  0  0  0  0  0  0  0  0  0  0  0
   47.9372   35.9923   42.3862 H   0  0  0  0  0  0  0  0  0  0  0  0
   49.2629   34.7989   42.6637 H   0  0  0  0  0  0  0  0  0  0  0  0
   48.6415   35.8704   40.2349 H   0  0  0  0  0  0  0  0  0  0  0  0
   49.4373   34.3162   40.4357 H   0  0  0  0  0  0  0  0  0  0  0  0
   46.5961   34.9627   39.7826 H   0  0  0  0  0  0  0  0  0  0  0  0
   47.5425   33.4913   39.3934 H   0  0  0  0  0  0  0  0  0  0  0  0
   45.5570   33.7256   41.3520 H   0  0  0  0  0  0  0  0  0  0  0  0
   46.7253   32.3994   41.2127 H   0  0  0  0  0  0  0  0  0  0  0  0
   45.7506   32.0235   45.0400 H   0  0  0  0  0  0  0  0  0  0  0  0
   47.3697   32.6524   44.5911 H   0  0  0  0  0  0  0  0  0  0  0  0
   47.9022   32.8169   46.7817 H   0  0  0  0  0  0  0  0  0  0  0  0
   46.5487   33.9789   47.0128 H   0  0  0  0  0  0  0  0  0  0  0  0
   46.5078   32.6860   49.5127 H   0  0  0  0  0  0  0  0  0  0  0  0
   44.2496   29.3678   47.9222 H   0  0  0  0  0  0  0  0  0  0  0  0
   45.2626   30.7023   45.9216 H   0  0  0  0  0  0  0  0  0  0  0  0
  1  2  1  0
  2 12  1  0
  2  3  2  0
  4  3  1  0
  5  4  2  0
  6  1  2  0
  6  5  1  0
  7  1  1  0
  8  7  1  0
  9  8  1  0
 10  9  1  0
 10 11  1  0
 11  7  1  0
 12 13  1  0
 13 14  1  0
 14 15  2  0
 15 16  1  0
 17 16  2  0
 18 14  1  0
 18 17  1  0
  3 19  1  0
  5 20  1  0
  7 21  1  0
  8 22  1  0
  8 23  1  0
  9 24  1  0
  9 25  1  0
 10 26  1  0
 10 27  1  0
 11 28  1  0
 11 29  1  0
 12 30  1  0
 12 31  1  0
 13 32  1  0
 13 33  1  0
 15 34  1  0
 17 35  1  0
 18 36  1  0
M  ISO  8  19  14  20  14  21  13  22  13  23  13  24  13  25  13  26  13
M  ISO  8  27  13  28  13  29  13  30   8  31   8  32   8  33   8  34  14
M  ISO  2  35  14  36   9
M  END
>  <minimizedAffinity>  (1) 
-5.53478289

>  <minimizedRMSD>  (1) 
1.75651824

$$$$
