
     RDKit          3D

 36 38  0  0  0  0  0  0  0  0999 V2000
   46.1960   34.4580   43.6370 C   0  0  0  0  0  0  0  0  0  0  0  0
   45.7850   33.9530   44.8660 C   0  0  0  0  0  0  0  0  0  0  0  0
   44.8850   34.6980   45.5930 C   0  0  0  0  0  0  0  0  0  0  0  0
   44.4340   35.8780   45.1000 N   0  0  0  0  0  0  0  0  0  0  0  0
   44.8390   36.3540   43.9090 C   0  0  0  0  0  0  0  0  0  0  0  0
   45.7090   35.6580   43.1830 N   0  0  0  0  0  0  0  0  0  0  0  0
   47.1820   33.8420   42.7020 C   0  0  0  0  0  0  0  0  0  0  0  0
   48.3500   34.7040   42.4460 C   0  0  0  0  0  0  0  0  0  0  0  0
   48.6340   34.7590   40.9860 C   0  0  0  0  0  0  0  0  0  0  0  0
   47.3670   34.3510   40.3450 C   0  0  0  0  0  0  0  0  0  0  0  0
   46.5030   33.6380   41.3330 C   0  0  0  0  0  0  0  0  0  0  0  0
   46.3280   32.7010   45.2750 C   0  0  0  0  0  0  0  0  0  0  0  0
   46.9610   32.8330   46.6480 C   0  0  0  0  0  0  0  0  0  0  0  0
   46.1830   31.9950   47.6370 C   0  0  0  0  0  0  0  0  0  0  0  0
   45.8440   32.2350   48.9520 C   0  0  0  0  0  0  0  0  0  0  0  0
   45.1220   31.1580   49.4310 C   0  0  0  0  0  0  0  0  0  0  0  0
   45.0650   30.3000   48.3410 C   0  0  0  0  0  0  0  0  0  0  0  0
   45.6860   30.8160   47.3260 O   0  0  0  0  0  0  0  0  0  0  0  0
   44.5326   34.3376   46.5707 H   0  0  0  0  0  0  0  0  0  0  0  0
   44.4524   37.3144   43.5373 H   0  0  0  0  0  0  0  0  0  0  0  0
   47.5163   32.9056   43.1726 H   0  0  0  0  0  0  0  0  0  0  0  0
   48.1410   35.7191   42.8146 H   0  0  0  0  0  0  0  0  0  0  0  0
   49.2251   34.2895   42.9679 H   0  0  0  0  0  0  0  0  0  0  0  0
   48.9120   35.7791   40.6825 H   0  0  0  0  0  0  0  0  0  0  0  0
   49.4747   34.1100   40.6995 H   0  0  0  0  0  0  0  0  0  0  0  0
   46.8402   35.2440   39.9776 H   0  0  0  0  0  0  0  0  0  0  0  0
   47.5876   33.6767   39.5043 H   0  0  0  0  0  0  0  0  0  0  0  0
   45.4907   34.0684   41.3387 H   0  0  0  0  0  0  0  0  0  0  0  0
   46.3979   32.5712   41.0861 H   0  0  0  0  0  0  0  0  0  0  0  0
   45.5243   31.9511   45.3151 H   0  0  0  0  0  0  0  0  0  0  0  0
   47.0956   32.3872   44.5523 H   0  0  0  0  0  0  0  0  0  0  0  0
   48.0028   32.4823   46.6080 H   0  0  0  0  0  0  0  0  0  0  0  0
   46.9441   33.8868   46.9629 H   0  0  0  0  0  0  0  0  0  0  0  0
   46.1054   33.1362   49.5259 H   0  0  0  0  0  0  0  0  0  0  0  0
   44.6951   31.0151   50.4347 H   0  0  0  0  0  0  0  0  0  0  0  0
   44.5639   29.3208   48.3386 H   0  0  0  0  0  0  0  0  0  0  0  0
  1  2  1  0
  2 12  1  0
  2  3  2  0
  4  3  1  0
  5  4  2  0
  6  1  2  0
  6  5  1  0
  7  1  1  0
  8  7  1  0
  9  8  1  0
 10  9  1  0
 10 11  1  0
 11  7  1  0
 12 13  1  0
 13 14  1  0
 14 15  2  0
 15 16  1  0
 17 16  2  0
 18 14  1  0
 18 17  1  0
  3 19  1  0
  5 20  1  0
  7 21  1  0
  8 22  1  0
  8 23  1  0
  9 24  1  0
  9 25  1  0
 10 26  1  0
 10 27  1  0
 11 28  1  0
 11 29  1  0
 12 30  1  0
 12 31  1  0
 13 32  1  0
 13 33  1  0
 15 34  1  0
 16 35  1  0
 17 36  1  0
M  ISO  8  19  14  20  14  21  13  22  13  23  13  24  13  25  13  26  13
M  ISO  8  27  13  28  13  29  13  30   8  31   8  32   8  33   8  34  14
M  ISO  2  35  14  36  14
M  END
>  <minimizedAffinity>  (1) 
-5.64843082

>  <minimizedRMSD>  (1) 
1.87539327

$$$$
