
     RDKit          3D

 42 44  0  0  0  0  0  0  0  0999 V2000
   46.4230   34.6090   43.4220 C   0  0  0  0  0  0  0  0  0  0  0  0
   46.0590   34.0390   44.6370 C   0  0  0  0  0  0  0  0  0  0  0  0
   45.0420   34.6410   45.3460 C   0  0  0  0  0  0  0  0  0  0  0  0
   44.4440   35.7570   44.8340 N   0  0  0  0  0  0  0  0  0  0  0  0
   44.8080   36.2910   43.6640 C   0  0  0  0  0  0  0  0  0  0  0  0
   45.7850   35.7330   42.9590 N   0  0  0  0  0  0  0  0  0  0  0  0
   47.5160   34.1270   42.5090 C   0  0  0  0  0  0  0  0  0  0  0  0
   48.3130   35.2340   41.9530 C   0  0  0  0  0  0  0  0  0  0  0  0
   48.5130   35.0230   40.4920 C   0  0  0  0  0  0  0  0  0  0  0  0
   47.3690   34.1700   40.0890 C   0  0  0  0  0  0  0  0  0  0  0  0
   46.8650   33.4370   41.2950 C   0  0  0  0  0  0  0  0  0  0  0  0
   46.7630   32.8770   45.0550 C   0  0  0  0  0  0  0  0  0  0  0  0
   46.7880   32.8090   46.5840 C   0  0  0  0  0  0  0  0  0  0  0  0
   45.8390   31.6390   46.8890 C   0  0  0  0  0  0  0  0  0  0  0  0
   45.3690   31.6590   48.3180 C   0  0  0  0  0  0  0  0  0  0  0  0
   45.0760   30.1960   48.5950 C   0  0  0  0  0  0  0  0  0  0  0  0
   46.0290   29.4020   47.7470 C   0  0  0  0  0  0  0  0  0  0  0  0
   46.5560   30.3330   46.6800 C   0  0  0  0  0  0  0  0  0  0  0  0
   44.7161   34.2279   46.3120 H   0  0  0  0  0  0  0  0  0  0  0  0
   44.2995   37.1903   43.2862 H   0  0  0  0  0  0  0  0  0  0  0  0
   48.1626   33.4636   43.1022 H   0  0  0  0  0  0  0  0  0  0  0  0
   47.7833   36.1841   42.1163 H   0  0  0  0  0  0  0  0  0  0  0  0
   49.2917   35.2664   42.4541 H   0  0  0  0  0  0  0  0  0  0  0  0
   48.4940   35.9817   39.9530 H   0  0  0  0  0  0  0  0  0  0  0  0
   49.4848   34.5620   40.2615 H   0  0  0  0  0  0  0  0  0  0  0  0
   46.5663   34.7988   39.6763 H   0  0  0  0  0  0  0  0  0  0  0  0
   47.6912   33.4505   39.3218 H   0  0  0  0  0  0  0  0  0  0  0  0
   45.7690   33.5084   41.3562 H   0  0  0  0  0  0  0  0  0  0  0  0
   47.1185   32.3674   41.2536 H   0  0  0  0  0  0  0  0  0  0  0  0
   46.2606   31.9827   44.6577 H   0  0  0  0  0  0  0  0  0  0  0  0
   47.7947   32.9210   44.6761 H   0  0  0  0  0  0  0  0  0  0  0  0
   47.8029   32.6029   46.9548 H   0  0  0  0  0  0  0  0  0  0  0  0
   46.4872   33.7506   47.0665 H   0  0  0  0  0  0  0  0  0  0  0  0
   44.9770   31.7422   46.2135 H   0  0  0  0  0  0  0  0  0  0  0  0
   46.1538   32.0399   48.9881 H   0  0  0  0  0  0  0  0  0  0  0  0
   44.5022   32.3159   48.4826 H   0  0  0  0  0  0  0  0  0  0  0  0
   45.2369   29.9712   49.6597 H   0  0  0  0  0  0  0  0  0  0  0  0
   44.0310   29.9478   48.3578 H   0  0  0  0  0  0  0  0  0  0  0  0
   46.8590   29.0261   48.3632 H   0  0  0  0  0  0  0  0  0  0  0  0
   45.5229   28.5359   47.2956 H   0  0  0  0  0  0  0  0  0  0  0  0
   46.3382   29.9318   45.6792 H   0  0  0  0  0  0  0  0  0  0  0  0
   47.6472   30.4533   46.7490 H   0  0  0  0  0  0  0  0  0  0  0  0
  1  2  1  0
  2 12  1  0
  2  3  2  0
  4  3  1  0
  5  4  2  0
  6  1  2  0
  6  5  1  0
  7  1  1  0
  8  7  1  0
  9  8  1  0
 10  9  1  0
 10 11  1  0
 11  7  1  0
 12 13  1  0
 13 14  1  0
 14 15  1  0
 15 16  1  0
 17 16  1  0
 18 14  1  0
 18 17  1  0
  3 19  1  0
  5 20  1  0
  7 21  1  0
  8 22  1  0
  8 23  1  0
  9 24  1  0
  9 25  1  0
 10 26  1  0
 10 27  1  0
 11 28  1  0
 11 29  1  0
 12 30  1  0
 12 31  1  0
 13 32  1  0
 13 33  1  0
 14 34  1  0
 15 35  1  0
 15 36  1  0
 16 37  1  0
 16 38  1  0
 17 39  1  0
 17 40  1  0
 18 41  1  0
 18 42  1  0
M  ISO  8  19  14  20  14  21  13  22  13  23  13  24  13  25  13  26  13
M  ISO  8  27  13  28  13  29  13  30   8  31   8  32   8  33   8  34  13
M  ISO  8  35  13  36  13  37  13  38  13  39  13  40  13  41  13  42  13
M  END
>  <minimizedAffinity>  (1) 
-5.52940702

>  <minimizedRMSD>  (1) 
1.56394792

$$$$
