
     RDKit          3D

 44 46  0  0  0  0  0  0  0  0999 V2000
   46.3410   34.3490   43.7060 C   0  0  0  0  0  0  0  0  0  0  0  0
   46.0340   33.8390   44.9560 C   0  0  0  0  0  0  0  0  0  0  0  0
   45.0590   34.5030   45.6960 C   0  0  0  0  0  0  0  0  0  0  0  0
   44.4650   35.6080   45.1580 N   0  0  0  0  0  0  0  0  0  0  0  0
   44.7790   36.0840   43.9440 C   0  0  0  0  0  0  0  0  0  0  0  0
   45.7050   35.4650   43.2200 N   0  0  0  0  0  0  0  0  0  0  0  0
   47.3780   33.8130   42.7570 C   0  0  0  0  0  0  0  0  0  0  0  0
   48.6780   34.4990   42.8990 C   0  0  0  0  0  0  0  0  0  0  0  0
   49.2110   34.8210   41.5390 C   0  0  0  0  0  0  0  0  0  0  0  0
   48.0100   34.8490   40.6720 C   0  0  0  0  0  0  0  0  0  0  0  0
   46.9010   34.0630   41.3130 C   0  0  0  0  0  0  0  0  0  0  0  0
   46.7310   32.6690   45.3930 C   0  0  0  0  0  0  0  0  0  0  0  0
   46.8210   32.6540   46.9050 C   0  0  0  0  0  0  0  0  0  0  0  0
   46.7260   31.3860   47.4990 N   0  0  0  0  0  0  0  0  0  0  0  0
   47.0570   31.3460   48.8940 C   0  0  0  0  0  0  0  0  0  0  0  0
   48.5610   31.2700   49.0960 C   0  0  0  0  0  0  0  0  0  0  0  0
   48.9060   29.8500   48.6210 C   0  0  0  0  0  0  0  0  0  0  0  0
   48.5820   29.8390   47.1620 C   0  0  0  0  0  0  0  0  0  0  0  0
   47.1780   30.2450   46.8160 C   0  0  0  0  0  0  0  0  0  0  0  0
   44.7728   34.1437   46.6955 H   0  0  0  0  0  0  0  0  0  0  0  0
   44.2742   36.9790   43.5513 H   0  0  0  0  0  0  0  0  0  0  0  0
   47.5068   32.7447   42.9852 H   0  0  0  0  0  0  0  0  0  0  0  0
   48.5437   35.4284   43.4718 H   0  0  0  0  0  0  0  0  0  0  0  0
   49.3862   33.8461   43.4302 H   0  0  0  0  0  0  0  0  0  0  0  0
   49.7142   35.7992   41.5393 H   0  0  0  0  0  0  0  0  0  0  0  0
   49.9590   34.0905   41.1971 H   0  0  0  0  0  0  0  0  0  0  0  0
   48.2543   34.4060   39.6952 H   0  0  0  0  0  0  0  0  0  0  0  0
   47.6848   35.8909   40.5355 H   0  0  0  0  0  0  0  0  0  0  0  0
   45.9646   34.6402   41.3089 H   0  0  0  0  0  0  0  0  0  0  0  0
   46.6933   33.1254   40.7765 H   0  0  0  0  0  0  0  0  0  0  0  0
   46.1903   31.7740   45.0514 H   0  0  0  0  0  0  0  0  0  0  0  0
   47.7468   32.6751   44.9709 H   0  0  0  0  0  0  0  0  0  0  0  0
   47.7882   33.0922   47.1922 H   0  0  0  0  0  0  0  0  0  0  0  0
   45.9534   33.2252   47.2670 H   0  0  0  0  0  0  0  0  0  0  0  0
   46.6744   32.2554   49.3805 H   0  0  0  0  0  0  0  0  0  0  0  0
   46.5987   30.4494   49.3368 H   0  0  0  0  0  0  0  0  0  0  0  0
   49.0796   32.0263   48.4885 H   0  0  0  0  0  0  0  0  0  0  0  0
   48.8679   31.4648   50.1342 H   0  0  0  0  0  0  0  0  0  0  0  0
   49.9733   29.6376   48.7813 H   0  0  0  0  0  0  0  0  0  0  0  0
   48.3449   29.0823   49.1740 H   0  0  0  0  0  0  0  0  0  0  0  0
   49.2710   30.5306   46.6551 H   0  0  0  0  0  0  0  0  0  0  0  0
   48.6876   28.7945   46.8336 H   0  0  0  0  0  0  0  0  0  0  0  0
   47.1336   30.4487   45.7359 H   0  0  0  0  0  0  0  0  0  0  0  0
   46.5239   29.4142   47.1190 H   0  0  0  0  0  0  0  0  0  0  0  0
  1  2  1  0
  2 12  1  0
  2  3  2  0
  4  3  1  0
  5  4  2  0
  6  1  2  0
  6  5  1  0
  7  8  1  0
  7  1  1  0
  9  8  1  0
 10 11  1  0
 10  9  1  0
 11  7  1  0
 12 13  1  0
 13 14  1  0
 14 15  1  0
 15 16  1  0
 17 16  1  0
 18 17  1  0
 19 18  1  0
 19 14  1  0
  3 20  1  0
  5 21  1  0
  7 22  1  0
  8 23  1  0
  8 24  1  0
  9 25  1  0
  9 26  1  0
 10 27  1  0
 10 28  1  0
 11 29  1  0
 11 30  1  0
 12 31  1  0
 12 32  1  0
 13 33  1  0
 13 34  1  0
 15 35  1  0
 15 36  1  0
 16 37  1  0
 16 38  1  0
 17 39  1  0
 17 40  1  0
 18 41  1  0
 18 42  1  0
 19 43  1  0
 19 44  1  0
M  ISO  8  20  14  21  14  22  13  23  13  24  13  25  13  26  13  27  13
M  ISO  8  28  13  29  13  30  13  31   8  32   8  33   8  34   8  35  13
M  ISO  8  36  13  37  13  38  13  39  13  40  13  41  13  42  13  43  13
M  ISO  1  44  13
M  END
>  <minimizedAffinity>  (1) 
-5.47332811

>  <minimizedRMSD>  (1) 
1.95338821

$$$$
