
     RDKit          3D

 32 34  0  0  0  0  0  0  0  0999 V2000
   47.3210   31.6810   43.4880 C   0  0  0  0  0  0  0  0  0  0  0  0
   48.6920   31.4560   43.1330 N   0  0  0  0  0  0  0  0  0  0  0  0
   49.5030   30.4210   43.3070 N   0  0  0  0  0  0  0  0  0  0  0  0
   50.7260   30.6400   42.8150 C   0  0  0  0  0  0  0  0  0  0  0  0
   50.6760   31.8980   42.2960 C   0  0  0  0  0  0  0  0  0  0  0  0
   49.3850   32.4100   42.5010 C   0  0  0  0  0  0  0  0  0  0  0  0
   49.1880   33.7700   41.9860 C   0  0  0  0  0  0  0  0  0  0  0  0
   48.5080   34.1790   40.8470 C   0  0  0  0  0  0  0  0  0  0  0  0
   48.5480   35.5080   40.7060 N   0  0  0  0  0  0  0  0  0  0  0  0
   49.2590   36.0010   41.7530 C   0  0  0  0  0  0  0  0  0  0  0  0
   49.6140   34.9400   42.4780 N   0  0  0  0  0  0  0  0  0  0  0  0
   47.1540   32.3490   44.8740 C   0  0  0  0  0  0  0  0  0  0  0  0
   46.2810   33.5230   44.7670 C   0  0  0  0  0  0  0  0  0  0  0  0
   45.5480   33.8020   45.9010 C   0  0  0  0  0  0  0  0  0  0  0  0
   44.6680   34.8830   45.9700 C   0  0  0  0  0  0  0  0  0  0  0  0
   44.5780   35.6450   44.8430 N   0  0  0  0  0  0  0  0  0  0  0  0
   45.3080   35.3570   43.7300 C   0  0  0  0  0  0  0  0  0  0  0  0
   46.1380   34.3050   43.7240 N   0  0  0  0  0  0  0  0  0  0  0  0
   45.2390   36.1290   42.5430 N   0  0  0  0  0  0  0  0  0  0  0  0
   46.7994   30.7126   43.5011 H   0  0  0  0  0  0  0  0  0  0  0  0
   46.8972   32.3673   42.7401 H   0  0  0  0  0  0  0  0  0  0  0  0
   51.5856   29.9538   42.8267 H   0  0  0  0  0  0  0  0  0  0  0  0
   51.5057   32.4234   41.8006 H   0  0  0  0  0  0  0  0  0  0  0  0
   48.0008   33.4965   40.1492 H   0  0  0  0  0  0  0  0  0  0  0  0
   49.4931   37.0557   41.9597 H   0  0  0  0  0  0  0  0  0  0  0  0
   50.1686   35.0141   43.3428 H   0  0  0  0  0  0  0  0  0  0  0  0
   46.7084   31.6271   45.5743 H   0  0  0  0  0  0  0  0  0  0  0  0
   48.1409   32.6671   45.2411 H   0  0  0  0  0  0  0  0  0  0  0  0
   45.6606   33.1510   46.7805 H   0  0  0  0  0  0  0  0  0  0  0  0
   44.0845   35.1059   46.8755 H   0  0  0  0  0  0  0  0  0  0  0  0
   45.8114   35.8706   41.7266 H   0  0  0  0  0  0  0  0  0  0  0  0
   44.6164   36.9483   42.4969 H   0  0  0  0  0  0  0  0  0  0  0  0
  1 12  1  0
  2  3  1  0
  2  1  1  0
  4  3  2  0
  5  6  2  0
  5  4  1  0
  6  2  1  0
  7 11  1  0
  7  6  1  0
  8  7  2  0
  9  8  1  0
  9 10  2  0
 10 11  1  0
 13 12  1  0
 13 14  2  0
 14 15  1  0
 16 15  2  0
 17 16  1  0
 18 17  2  0
 18 13  1  0
 19 17  1  0
  1 20  1  0
  1 21  1  0
  4 22  1  0
  5 23  1  0
  8 24  1  0
 10 25  1  0
 11 26  1  0
 12 27  1  0
 12 28  1  0
 14 29  1  0
 15 30  1  0
 19 31  1  0
 19 32  1  0
M  ISO  8  20   8  21   8  22  14  23  14  24  14  25  14  26   9  27   8
M  ISO  3  28   8  29  14  30  14
M  END
>  <minimizedAffinity>  (1) 
-4.53092289

>  <minimizedRMSD>  (1) 
0.39909485

$$$$
