
     RDKit          3D

 35 37  0  0  0  0  0  0  0  0999 V2000
   46.3980   34.4750   43.5690 C   0  0  0  0  0  0  0  0  0  0  0  0
   46.0840   33.8990   44.7970 C   0  0  0  0  0  0  0  0  0  0  0  0
   45.0910   34.4960   45.5400 C   0  0  0  0  0  0  0  0  0  0  0  0
   44.4690   35.6060   45.0550 N   0  0  0  0  0  0  0  0  0  0  0  0
   44.7830   36.1470   43.8700 C   0  0  0  0  0  0  0  0  0  0  0  0
   45.7300   35.5950   43.1390 N   0  0  0  0  0  0  0  0  0  0  0  0
   47.4720   34.0260   42.6170 C   0  0  0  0  0  0  0  0  0  0  0  0
   48.2910   35.1500   42.1240 C   0  0  0  0  0  0  0  0  0  0  0  0
   48.4880   35.0230   40.6590 C   0  0  0  0  0  0  0  0  0  0  0  0
   47.3280   34.1940   40.2030 C   0  0  0  0  0  0  0  0  0  0  0  0
   46.7920   33.4330   41.3680 C   0  0  0  0  0  0  0  0  0  0  0  0
   46.7990   32.7350   45.1800 C   0  0  0  0  0  0  0  0  0  0  0  0
   46.9270   32.6840   46.7010 C   0  0  0  0  0  0  0  0  0  0  0  0
   46.1320   31.5360   47.1830 N   0  0  0  0  0  0  0  0  0  0  0  0
   45.7390   31.2880   48.4470 C   0  0  0  0  0  0  0  0  0  0  0  0
   45.0290   30.1400   48.4830 N   0  0  0  0  0  0  0  0  0  0  0  0
   44.9810   29.6720   47.2260 C   0  0  0  0  0  0  0  0  0  0  0  0
   45.6610   30.5350   46.4370 N   0  0  0  0  0  0  0  0  0  0  0  0
   44.8025   34.0802   46.5167 H   0  0  0  0  0  0  0  0  0  0  0  0
   44.2554   37.0430   43.5111 H   0  0  0  0  0  0  0  0  0  0  0  0
   48.1080   33.3106   43.1589 H   0  0  0  0  0  0  0  0  0  0  0  0
   47.7789   36.0986   42.3428 H   0  0  0  0  0  0  0  0  0  0  0  0
   49.2701   35.1334   42.6251 H   0  0  0  0  0  0  0  0  0  0  0  0
   48.4748   36.0114   40.1764 H   0  0  0  0  0  0  0  0  0  0  0  0
   49.4567   34.5697   40.4019 H   0  0  0  0  0  0  0  0  0  0  0  0
   46.5430   34.8488   39.7967 H   0  0  0  0  0  0  0  0  0  0  0  0
   47.6543   33.4950   39.4189 H   0  0  0  0  0  0  0  0  0  0  0  0
   45.7007   33.5547   41.4337 H   0  0  0  0  0  0  0  0  0  0  0  0
   46.9967   32.3564   41.2726 H   0  0  0  0  0  0  0  0  0  0  0  0
   46.2597   31.8430   44.8287 H   0  0  0  0  0  0  0  0  0  0  0  0
   47.8031   32.7614   44.7315 H   0  0  0  0  0  0  0  0  0  0  0  0
   47.9821   32.5535   46.9835 H   0  0  0  0  0  0  0  0  0  0  0  0
   46.5612   33.6197   47.1489 H   0  0  0  0  0  0  0  0  0  0  0  0
   45.9622   31.9233   49.3168 H   0  0  0  0  0  0  0  0  0  0  0  0
   44.4783   28.7508   46.8962 H   0  0  0  0  0  0  0  0  0  0  0  0
  1  2  1  0
  2 12  1  0
  2  3  2  0
  4  3  1  0
  5  4  2  0
  6  1  2  0
  6  5  1  0
  7  1  1  0
  8  7  1  0
  9  8  1  0
 10  9  1  0
 10 11  1  0
 11  7  1  0
 12 13  1  0
 13 14  1  0
 14 15  1  0
 15 16  2  0
 17 16  1  0
 18 14  1  0
 18 17  2  0
  3 19  1  0
  5 20  1  0
  7 21  1  0
  8 22  1  0
  8 23  1  0
  9 24  1  0
  9 25  1  0
 10 26  1  0
 10 27  1  0
 11 28  1  0
 11 29  1  0
 12 30  1  0
 12 31  1  0
 13 32  1  0
 13 33  1  0
 15 34  1  0
 17 35  1  0
M  ISO  8  19  14  20  14  21  13  22  13  23  13  24  13  25  13  26  13
M  ISO  8  27  13  28  13  29  13  30   8  31   8  32   8  33   8  34  14
M  ISO  1  35  14
M  END
>  <minimizedAffinity>  (1) 
-5.3097477

>  <minimizedRMSD>  (1) 
1.63696909

$$$$
