
     RDKit          3D

 30 31  0  0  0  0  0  0  0  0999 V2000
   46.4310   34.6070   43.3800 C   0  0  0  0  0  0  0  0  0  0  0  0
   46.0920   34.0480   44.6130 C   0  0  0  0  0  0  0  0  0  0  0  0
   45.0610   34.6410   45.3210 C   0  0  0  0  0  0  0  0  0  0  0  0
   44.4350   35.7190   44.7930 N   0  0  0  0  0  0  0  0  0  0  0  0
   44.7740   36.2420   43.6070 C   0  0  0  0  0  0  0  0  0  0  0  0
   45.7540   35.7020   42.9030 N   0  0  0  0  0  0  0  0  0  0  0  0
   47.5430   34.1670   42.4730 C   0  0  0  0  0  0  0  0  0  0  0  0
   48.3040   35.3140   41.9370 C   0  0  0  0  0  0  0  0  0  0  0  0
   48.5400   35.0970   40.4790 C   0  0  0  0  0  0  0  0  0  0  0  0
   47.4320   34.1740   40.0590 C   0  0  0  0  0  0  0  0  0  0  0  0
   46.9320   33.4380   41.2680 C   0  0  0  0  0  0  0  0  0  0  0  0
   46.8290   32.8820   45.0290 C   0  0  0  0  0  0  0  0  0  0  0  0
   46.4650   32.5590   46.4650 C   0  0  0  0  0  0  0  0  0  0  0  0
   47.3590   33.1490   47.3560 O   0  0  0  0  0  0  0  0  0  0  0  0
   44.7545   34.2419   46.2991 H   0  0  0  0  0  0  0  0  0  0  0  0
   44.2371   37.1203   43.2192 H   0  0  0  0  0  0  0  0  0  0  0  0
   48.2163   33.5249   43.0598 H   0  0  0  0  0  0  0  0  0  0  0  0
   47.7291   36.2402   42.0844 H   0  0  0  0  0  0  0  0  0  0  0  0
   49.2667   35.4014   42.4620 H   0  0  0  0  0  0  0  0  0  0  0  0
   48.4848   36.0481   39.9292 H   0  0  0  0  0  0  0  0  0  0  0  0
   49.5366   34.6803   40.2712 H   0  0  0  0  0  0  0  0  0  0  0  0
   46.6118   34.7582   39.6163 H   0  0  0  0  0  0  0  0  0  0  0  0
   47.8050   33.4573   39.3125 H   0  0  0  0  0  0  0  0  0  0  0  0
   45.8335   33.4742   41.3132 H   0  0  0  0  0  0  0  0  0  0  0  0
   47.2167   32.3757   41.2461 H   0  0  0  0  0  0  0  0  0  0  0  0
   46.5702   32.0310   44.3819 H   0  0  0  0  0  0  0  0  0  0  0  0
   47.9090   33.0761   44.9523 H   0  0  0  0  0  0  0  0  0  0  0  0
   45.4520   32.9346   46.6716 H   0  0  0  0  0  0  0  0  0  0  0  0
   46.5088   31.4680   46.5986 H   0  0  0  0  0  0  0  0  0  0  0  0
   47.0726   32.9600   48.2846 H   0  0  0  0  0  0  0  0  0  0  0  0
  1  2  2  0
  2 12  1  0
  2  3  1  0
  4  3  2  0
  5  4  1  0
  6  1  1  0
  6  5  2  0
  7  1  1  0
  8  7  1  0
  9  8  1  0
 10  9  1  0
 10 11  1  0
 11  7  1  0
 12 13  1  0
 13 14  1  0
  3 15  1  0
  5 16  1  0
  7 17  1  0
  8 18  1  0
  8 19  1  0
  9 20  1  0
  9 21  1  0
 10 22  1  0
 10 23  1  0
 11 24  1  0
 11 25  1  0
 12 26  1  0
 12 27  1  0
 13 28  1  0
 13 29  1  0
 14 30  1  0
M  ISO  8  15  14  16  14  17  13  18  13  19  13  20  13  21  13  22  13
M  ISO  8  23  13  24  13  25  13  26   8  27   8  28   8  29   8  30   3
M  END
>  <minimizedAffinity>  (1) 
-5.06722784

>  <minimizedRMSD>  (1) 
0.243067354

$$$$
