
     RDKit          3D

 31 33  0  0  0  0  0  0  0  0999 V2000
   47.3430   31.5420   43.5840 C   0  0  0  0  0  0  0  0  0  0  0  0
   48.6990   31.3330   43.2000 N   0  0  0  0  0  0  0  0  0  0  0  0
   49.5310   30.3210   43.3860 N   0  0  0  0  0  0  0  0  0  0  0  0
   50.7320   30.5450   42.8520 C   0  0  0  0  0  0  0  0  0  0  0  0
   50.6510   31.7950   42.2870 C   0  0  0  0  0  0  0  0  0  0  0  0
   49.3540   32.2800   42.5180 C   0  0  0  0  0  0  0  0  0  0  0  0
   49.1140   33.6200   41.9660 C   0  0  0  0  0  0  0  0  0  0  0  0
   48.5320   33.9650   40.7510 C   0  0  0  0  0  0  0  0  0  0  0  0
   48.4880   35.2950   40.5960 N   0  0  0  0  0  0  0  0  0  0  0  0
   49.0400   35.8480   41.7040 C   0  0  0  0  0  0  0  0  0  0  0  0
   49.3910   34.8220   42.4780 N   0  0  0  0  0  0  0  0  0  0  0  0
   47.1820   32.2910   44.9260 C   0  0  0  0  0  0  0  0  0  0  0  0
   46.3420   33.4730   44.7580 C   0  0  0  0  0  0  0  0  0  0  0  0
   45.5650   33.7920   45.8620 C   0  0  0  0  0  0  0  0  0  0  0  0
   44.7070   34.8980   45.8550 C   0  0  0  0  0  0  0  0  0  0  0  0
   44.6800   35.6340   44.7140 N   0  0  0  0  0  0  0  0  0  0  0  0
   45.4490   35.3030   43.6430 C   0  0  0  0  0  0  0  0  0  0  0  0
   46.2560   34.2420   43.6870 N   0  0  0  0  0  0  0  0  0  0  0  0
   45.4630   36.0140   42.4560 O   0  0  0  0  0  0  0  0  0  0  0  0
   46.8530   30.5612   43.6735 H   0  0  0  0  0  0  0  0  0  0  0  0
   46.8846   32.1731   42.8084 H   0  0  0  0  0  0  0  0  0  0  0  0
   51.6024   29.8724   42.8617 H   0  0  0  0  0  0  0  0  0  0  0  0
   51.4557   32.3199   41.7514 H   0  0  0  0  0  0  0  0  0  0  0  0
   48.1567   33.2404   40.0134 H   0  0  0  0  0  0  0  0  0  0  0  0
   49.1706   36.9189   41.9188 H   0  0  0  0  0  0  0  0  0  0  0  0
   49.8397   34.9458   43.3968 H   0  0  0  0  0  0  0  0  0  0  0  0
   46.7166   31.6185   45.6616 H   0  0  0  0  0  0  0  0  0  0  0  0
   48.1753   32.6090   45.2756 H   0  0  0  0  0  0  0  0  0  0  0  0
   45.6244   33.1624   46.7621 H   0  0  0  0  0  0  0  0  0  0  0  0
   44.0880   35.1570   46.7267 H   0  0  0  0  0  0  0  0  0  0  0  0
   44.8890   36.8138   42.3513 H   0  0  0  0  0  0  0  0  0  0  0  0
  1 12  1  0
  2  3  1  0
  2  1  1  0
  4  3  2  0
  5  6  2  0
  5  4  1  0
  6  2  1  0
  7 11  1  0
  7  6  1  0
  8  7  2  0
  9  8  1  0
  9 10  2  0
 10 11  1  0
 13 12  1  0
 13 14  2  0
 15 14  1  0
 16 15  2  0
 17 18  2  0
 17 16  1  0
 18 13  1  0
 19 17  1  0
  1 20  1  0
  1 21  1  0
  4 22  1  0
  5 23  1  0
  8 24  1  0
 10 25  1  0
 11 26  1  0
 12 27  1  0
 12 28  1  0
 14 29  1  0
 15 30  1  0
 19 31  1  0
M  ISO  8  20   8  21   8  22  14  23  14  24  14  25  14  26   9  27   8
M  ISO  4  28   8  29  14  30  14  31   3
M  END
>  <minimizedAffinity>  (1) 
-4.46068382

>  <minimizedRMSD>  (1) 
0.386300713

$$$$
