
     RDKit          3D

 40 42  0  0  0  0  0  0  0  0999 V2000
   46.7270   34.5810   43.1360 C   0  0  0  0  0  0  0  0  0  0  0  0
   46.3340   33.8380   44.2410 C   0  0  0  0  0  0  0  0  0  0  0  0
   45.2490   34.2920   44.9630 C   0  0  0  0  0  0  0  0  0  0  0  0
   44.6150   35.4280   44.5780 N   0  0  0  0  0  0  0  0  0  0  0  0
   45.0070   36.1380   43.5050 C   0  0  0  0  0  0  0  0  0  0  0  0
   46.0500   35.7230   42.7880 N   0  0  0  0  0  0  0  0  0  0  0  0
   47.8920   34.2910   42.2370 C   0  0  0  0  0  0  0  0  0  0  0  0
   48.5410   35.5140   41.7370 C   0  0  0  0  0  0  0  0  0  0  0  0
   48.8130   35.3780   40.2800 C   0  0  0  0  0  0  0  0  0  0  0  0
   47.8020   34.4020   39.8110 C   0  0  0  0  0  0  0  0  0  0  0  0
   47.3440   33.5830   40.9710 C   0  0  0  0  0  0  0  0  0  0  0  0
   47.0450   32.6580   44.5570 C   0  0  0  0  0  0  0  0  0  0  0  0
   46.3140   31.8580   45.6440 C   0  0  0  0  0  0  0  0  0  0  0  0
   47.0320   31.6880   46.8480 N   0  0  0  0  0  0  0  0  0  0  0  0
   47.4900   32.4160   47.8650 C   0  0  0  0  0  0  0  0  0  0  0  0
   48.1640   31.9410   48.9580 C   0  0  0  0  0  0  0  0  0  0  0  0
   48.4330   30.6030   49.0880 C   0  0  0  0  0  0  0  0  0  0  0  0
   49.1370   30.2270   50.2600 N   0  0  0  0  0  0  0  0  0  0  0  0
   48.0000   29.8050   48.0960 N   0  0  0  0  0  0  0  0  0  0  0  0
   47.3340   30.3600   47.0400 C   0  0  0  0  0  0  0  0  0  0  0  0
   47.0330   29.4010   46.2450 O   0  0  0  0  0  0  0  0  0  0  0  0
   44.9002   33.7359   45.8457 H   0  0  0  0  0  0  0  0  0  0  0  0
   44.4699   37.0551   43.2215 H   0  0  0  0  0  0  0  0  0  0  0  0
   48.6126   33.6977   42.8190 H   0  0  0  0  0  0  0  0  0  0  0  0
   47.8779   36.3752   41.9063 H   0  0  0  0  0  0  0  0  0  0  0  0
   49.4899   35.6675   42.2719 H   0  0  0  0  0  0  0  0  0  0  0  0
   48.6896   36.3439   39.7683 H   0  0  0  0  0  0  0  0  0  0  0  0
   49.8425   35.0508   40.0724 H   0  0  0  0  0  0  0  0  0  0  0  0
   46.9453   34.9381   39.3767 H   0  0  0  0  0  0  0  0  0  0  0  0
   48.2438   33.7477   39.0450 H   0  0  0  0  0  0  0  0  0  0  0  0
   46.2451   33.5433   41.0007 H   0  0  0  0  0  0  0  0  0  0  0  0
   47.7060   32.5467   40.9004 H   0  0  0  0  0  0  0  0  0  0  0  0
   47.1363   32.0384   43.6527 H   0  0  0  0  0  0  0  0  0  0  0  0
   48.0412   32.9354   44.9321 H   0  0  0  0  0  0  0  0  0  0  0  0
   45.3749   32.3807   45.8782 H   0  0  0  0  0  0  0  0  0  0  0  0
   46.1631   30.8491   45.2324 H   0  0  0  0  0  0  0  0  0  0  0  0
   47.3099   33.5003   47.8228 H   0  0  0  0  0  0  0  0  0  0  0  0
   48.4933   32.6406   49.7404 H   0  0  0  0  0  0  0  0  0  0  0  0
   49.3733   29.2380   50.4238 H   0  0  0  0  0  0  0  0  0  0  0  0
   49.4121   30.9429   50.9475 H   0  0  0  0  0  0  0  0  0  0  0  0
  1  2  1  0
  2 12  1  0
  2  3  2  0
  4  3  1  0
  5  4  2  0
  6  1  2  0
  6  5  1  0
  7  1  1  0
  8  7  1  0
  9  8  1  0
 10  9  1  0
 10 11  1  0
 11  7  1  0
 12 13  1  0
 13 14  1  0
 14 20  1  0
 14 15  1  0
 15 16  2  0
 16 17  1  0
 17 18  1  0
 19 17  2  0
 20 19  1  0
 21 20  2  0
  3 22  1  0
  5 23  1  0
  7 24  1  0
  8 25  1  0
  8 26  1  0
  9 27  1  0
  9 28  1  0
 10 29  1  0
 10 30  1  0
 11 31  1  0
 11 32  1  0
 12 33  1  0
 12 34  1  0
 13 35  1  0
 13 36  1  0
 15 37  1  0
 16 38  1  0
 18 39  1  0
 18 40  1  0
M  ISO  8  22  14  23  14  24  13  25  13  26  13  27  13  28  13  29  13
M  ISO  8  30  13  31  13  32  13  33   8  34   8  35   8  36   8  37  14
M  ISO  1  38  14
M  END
>  <minimizedAffinity>  (1) 
-5.9100275

>  <minimizedRMSD>  (1) 
2.45939827

$$$$
