
     RDKit          3D

 49 51  0  0  0  0  0  0  0  0999 V2000
   46.4390   34.4660   43.5590 C   0  0  0  0  0  0  0  0  0  0  0  0
   46.1590   33.9110   44.7880 C   0  0  0  0  0  0  0  0  0  0  0  0
   45.1710   34.4620   45.5540 C   0  0  0  0  0  0  0  0  0  0  0  0
   44.4880   35.5430   45.0760 N   0  0  0  0  0  0  0  0  0  0  0  0
   44.7560   36.0870   43.8750 C   0  0  0  0  0  0  0  0  0  0  0  0
   45.7210   35.5600   43.1180 N   0  0  0  0  0  0  0  0  0  0  0  0
   47.5360   34.0860   42.6290 C   0  0  0  0  0  0  0  0  0  0  0  0
   48.2820   35.2150   42.0840 C   0  0  0  0  0  0  0  0  0  0  0  0
   48.4770   35.0670   40.6260 C   0  0  0  0  0  0  0  0  0  0  0  0
   47.3550   34.2030   40.2020 C   0  0  0  0  0  0  0  0  0  0  0  0
   46.8440   33.4280   41.3760 C   0  0  0  0  0  0  0  0  0  0  0  0
   46.8640   32.7780   45.1960 C   0  0  0  0  0  0  0  0  0  0  0  0
   46.2710   32.1110   46.4370 C   0  0  0  0  0  0  0  0  0  0  0  0
   47.1670   31.3850   47.2040 N   0  0  0  0  0  0  0  0  0  0  0  0
   48.0050   31.6060   48.2340 C   0  0  0  0  0  0  0  0  0  0  0  0
   48.7970   30.6850   48.8520 C   0  0  0  0  0  0  0  0  0  0  0  0
   48.7940   29.3790   48.4390 C   0  0  0  0  0  0  0  0  0  0  0  0
   49.6450   28.4990   49.1530 N   0  0  0  0  0  0  0  0  0  0  0  0
   47.9830   29.0790   47.4140 N   0  0  0  0  0  0  0  0  0  0  0  0
   47.2180   30.0690   46.8490 C   0  0  0  0  0  0  0  0  0  0  0  0
   46.5430   29.5470   45.9190 O   0  0  0  0  0  0  0  0  0  0  0  0
   49.6460   31.1720   49.9800 C   0  0  0  0  0  0  0  0  0  0  0  0
   49.9950   30.0120   50.9190 C   0  0  0  0  0  0  0  0  0  0  0  0
   50.9210   31.8130   49.4880 C   0  0  0  0  0  0  0  0  0  0  0  0
   44.9295   34.0409   46.5411 H   0  0  0  0  0  0  0  0  0  0  0  0
   44.1853   36.9579   43.5202 H   0  0  0  0  0  0  0  0  0  0  0  0
   48.2299   33.4481   43.1961 H   0  0  0  0  0  0  0  0  0  0  0  0
   47.7245   36.1428   42.2800 H   0  0  0  0  0  0  0  0  0  0  0  0
   49.2693   35.2491   42.5679 H   0  0  0  0  0  0  0  0  0  0  0  0
   48.4294   36.0445   40.1238 H   0  0  0  0  0  0  0  0  0  0  0  0
   49.4590   34.6421   40.3708 H   0  0  0  0  0  0  0  0  0  0  0  0
   46.5457   34.8276   39.7958 H   0  0  0  0  0  0  0  0  0  0  0  0
   47.7055   33.5039   39.4285 H   0  0  0  0  0  0  0  0  0  0  0  0
   45.7497   33.5131   41.4492 H   0  0  0  0  0  0  0  0  0  0  0  0
   47.0709   32.3548   41.2939 H   0  0  0  0  0  0  0  0  0  0  0  0
   46.8601   32.0490   44.3723 H   0  0  0  0  0  0  0  0  0  0  0  0
   47.8818   33.1039   45.4563 H   0  0  0  0  0  0  0  0  0  0  0  0
   45.8396   32.8983   47.0726 H   0  0  0  0  0  0  0  0  0  0  0  0
   45.5297   31.3868   46.0682 H   0  0  0  0  0  0  0  0  0  0  0  0
   48.0558   32.6362   48.6163 H   0  0  0  0  0  0  0  0  0  0  0  0
   49.6905   27.5032   48.8937 H   0  0  0  0  0  0  0  0  0  0  0  0
   50.2180   28.8552   49.9313 H   0  0  0  0  0  0  0  0  0  0  0  0
   49.0640   31.9324   50.5213 H   0  0  0  0  0  0  0  0  0  0  0  0
   49.8954   30.3429   51.9633 H   0  0  0  0  0  0  0  0  0  0  0  0
   49.3100   29.1715   50.7338 H   0  0  0  0  0  0  0  0  0  0  0  0
   51.0301   29.6890   50.7338 H   0  0  0  0  0  0  0  0  0  0  0  0
   51.5327   32.1205   50.3489 H   0  0  0  0  0  0  0  0  0  0  0  0
   51.4831   31.0903   48.8783 H   0  0  0  0  0  0  0  0  0  0  0  0
   50.6763   32.6952   48.8783 H   0  0  0  0  0  0  0  0  0  0  0  0
  1  2  1  0
  2 12  1  0
  2  3  2  0
  4  3  1  0
  5  4  2  0
  6  1  2  0
  6  5  1  0
  7  1  1  0
  8  7  1  0
  9  8  1  0
 10  9  1  0
 10 11  1  0
 11  7  1  0
 12 13  1  0
 13 14  1  0
 14 15  1  0
 15 16  2  0
 16 22  1  0
 17 16  1  0
 17 18  1  0
 19 17  2  0
 20 14  1  0
 20 19  1  0
 21 20  2  0
 22 23  1  0
 24 22  1  0
  3 25  1  0
  5 26  1  0
  7 27  1  0
  8 28  1  0
  8 29  1  0
  9 30  1  0
  9 31  1  0
 10 32  1  0
 10 33  1  0
 11 34  1  0
 11 35  1  0
 12 36  1  0
 12 37  1  0
 13 38  1  0
 13 39  1  0
 15 40  1  0
 18 41  1  0
 18 42  1  0
 22 43  1  0
 23 44  1  0
 23 45  1  0
 23 46  1  0
 24 47  1  0
 24 48  1  0
 24 49  1  0
M  ISO  8  25  14  26  14  27  13  28  13  29  13  30  13  31  13  32  13
M  ISO  8  33  13  34  13  35  13  36   8  37   8  38   8  39   8  40  14
M  ISO  7  43   8  44   8  45   8  46   8  47   8  48   8  49   8
M  END
>  <minimizedAffinity>  (1) 
-6.15788555

>  <minimizedRMSD>  (1) 
1.17807281

$$$$
