
     RDKit          3D

 47 49  0  0  0  0  0  0  0  0999 V2000
   46.8480   32.7800   45.2160 C   0  0  0  0  0  0  0  0  0  0  0  0
   46.4330   34.4670   43.5680 C   0  0  0  0  0  0  0  0  0  0  0  0
   46.1450   33.9120   44.7960 C   0  0  0  0  0  0  0  0  0  0  0  0
   45.1560   34.4690   45.5590 C   0  0  0  0  0  0  0  0  0  0  0  0
   44.4840   35.5570   45.0750 N   0  0  0  0  0  0  0  0  0  0  0  0
   44.7630   36.0980   43.8750 C   0  0  0  0  0  0  0  0  0  0  0  0
   45.7240   35.5640   43.1290 N   0  0  0  0  0  0  0  0  0  0  0  0
   47.5300   34.0760   42.6420 C   0  0  0  0  0  0  0  0  0  0  0  0
   48.2890   35.1950   42.0990 C   0  0  0  0  0  0  0  0  0  0  0  0
   48.4830   35.0420   40.6410 C   0  0  0  0  0  0  0  0  0  0  0  0
   47.3470   34.2000   40.2150 C   0  0  0  0  0  0  0  0  0  0  0  0
   46.8300   33.4270   41.3870 C   0  0  0  0  0  0  0  0  0  0  0  0
   46.2490   32.1240   46.4570 C   0  0  0  0  0  0  0  0  0  0  0  0
   47.1660   31.5660   47.3340 N   0  0  0  0  0  0  0  0  0  0  0  0
   48.0320   31.9950   48.2640 C   0  0  0  0  0  0  0  0  0  0  0  0
   48.8550   31.2410   49.0420 C   0  0  0  0  0  0  0  0  0  0  0  0
   48.8450   29.8610   48.9090 C   0  0  0  0  0  0  0  0  0  0  0  0
   49.7180   29.1370   49.7460 N   0  0  0  0  0  0  0  0  0  0  0  0
   48.0050   29.3570   48.0000 N   0  0  0  0  0  0  0  0  0  0  0  0
   47.2110   30.2080   47.2600 C   0  0  0  0  0  0  0  0  0  0  0  0
   46.5040   29.5040   46.4750 O   0  0  0  0  0  0  0  0  0  0  0  0
   49.7180   31.8490   49.9960 N   0  0  0  0  0  0  0  0  0  0  0  0
   51.0360   32.3130   49.7270 C   0  0  0  0  0  0  0  0  0  0  0  0
   51.7600   31.4560   49.0450 N   0  0  0  0  0  0  0  0  0  0  0  0
   51.4340   33.6150   50.2100 N   0  0  0  0  0  0  0  0  0  0  0  0
   52.7260   31.7900   48.8460 H   0  0  0  0  0  0  0  0  0  0  0  0
   47.8830   33.0757   45.4424 H   0  0  0  0  0  0  0  0  0  0  0  0
   46.7966   32.0432   44.4008 H   0  0  0  0  0  0  0  0  0  0  0  0
   44.9057   34.0492   46.5444 H   0  0  0  0  0  0  0  0  0  0  0  0
   44.2015   36.9729   43.5155 H   0  0  0  0  0  0  0  0  0  0  0  0
   48.2170   33.4318   43.2103 H   0  0  0  0  0  0  0  0  0  0  0  0
   47.7423   36.1294   42.2936 H   0  0  0  0  0  0  0  0  0  0  0  0
   49.2757   35.2194   42.5845 H   0  0  0  0  0  0  0  0  0  0  0  0
   48.4548   36.0200   40.1382 H   0  0  0  0  0  0  0  0  0  0  0  0
   49.4570   34.5978   40.3882 H   0  0  0  0  0  0  0  0  0  0  0  0
   46.5461   34.8398   39.8160 H   0  0  0  0  0  0  0  0  0  0  0  0
   47.6820   33.5010   39.4346 H   0  0  0  0  0  0  0  0  0  0  0  0
   45.7367   33.5221   41.4614 H   0  0  0  0  0  0  0  0  0  0  0  0
   47.0466   32.3519   41.3020 H   0  0  0  0  0  0  0  0  0  0  0  0
   45.6783   32.8891   47.0037 H   0  0  0  0  0  0  0  0  0  0  0  0
   45.6316   31.2901   46.0918 H   0  0  0  0  0  0  0  0  0  0  0  0
   48.0828   33.0834   48.4154 H   0  0  0  0  0  0  0  0  0  0  0  0
   49.7515   28.1091   49.6892 H   0  0  0  0  0  0  0  0  0  0  0  0
   50.3224   29.6358   50.4144 H   0  0  0  0  0  0  0  0  0  0  0  0
   49.3611   31.9620   50.9555 H   0  0  0  0  0  0  0  0  0  0  0  0
   52.3846   33.9650   50.0235 H   0  0  0  0  0  0  0  0  0  0  0  0
   50.7672   34.1933   50.7409 H   0  0  0  0  0  0  0  0  0  0  0  0
  1 13  1  0
  2  3  1  0
  3  1  1  0
  3  4  2  0
  5  4  1  0
  6  5  2  0
  7  2  2  0
  7  6  1  0
  8  2  1  0
  9  8  1  0
 10  9  1  0
 11 10  1  0
 11 12  1  0
 12  8  1  0
 13 14  1  0
 14 15  1  0
 15 16  2  0
 16 22  1  0
 17 16  1  0
 17 18  1  0
 19 17  2  0
 20 14  1  0
 20 19  1  0
 21 20  2  0
 23 22  1  0
 23 25  1  0
 24 23  2  0
 26 24  1  0
  1 27  1  0
  1 28  1  0
  4 29  1  0
  6 30  1  0
  8 31  1  0
  9 32  1  0
  9 33  1  0
 10 34  1  0
 10 35  1  0
 11 36  1  0
 11 37  1  0
 12 38  1  0
 12 39  1  0
 13 40  1  0
 13 41  1  0
 15 42  1  0
 18 43  1  0
 18 44  1  0
 22 45  1  0
 25 46  1  0
 25 47  1  0
M  ISO  8  27   8  28   8  29  14  30  14  31  13  32  13  33  13  34  13
M  ISO  8  35  13  36  13  37  13  38  13  39  13  40   8  41   8  42  14
M  END
>  <minimizedAffinity>  (1) 
-6.47517347

>  <minimizedRMSD>  (1) 
0.963777304

$$$$
