
     RDKit          3D

 47 50  0  0  0  0  0  0  0  0999 V2000
   46.6000   34.5860   43.2910 C   0  0  0  0  0  0  0  0  0  0  0  0
   46.2660   33.9580   44.4720 C   0  0  0  0  0  0  0  0  0  0  0  0
   45.2230   34.4430   45.2090 C   0  0  0  0  0  0  0  0  0  0  0  0
   44.5400   35.5370   44.7440 N   0  0  0  0  0  0  0  0  0  0  0  0
   44.8620   36.1490   43.5910 C   0  0  0  0  0  0  0  0  0  0  0  0
   45.8800   35.6840   42.8680 N   0  0  0  0  0  0  0  0  0  0  0  0
   47.7540   34.2790   42.4050 C   0  0  0  0  0  0  0  0  0  0  0  0
   48.4110   35.4510   41.8420 C   0  0  0  0  0  0  0  0  0  0  0  0
   48.6680   35.2690   40.3970 C   0  0  0  0  0  0  0  0  0  0  0  0
   47.6390   34.2960   39.9700 C   0  0  0  0  0  0  0  0  0  0  0  0
   47.1620   33.5190   41.1600 C   0  0  0  0  0  0  0  0  0  0  0  0
   46.9700   32.8180   44.8580 C   0  0  0  0  0  0  0  0  0  0  0  0
   46.1940   31.9190   45.8170 C   0  0  0  0  0  0  0  0  0  0  0  0
   46.9770   31.1580   46.6810 N   0  0  0  0  0  0  0  0  0  0  0  0
   47.6340   31.3240   47.8420 C   0  0  0  0  0  0  0  0  0  0  0  0
   48.3350   30.3910   48.5240 C   0  0  0  0  0  0  0  0  0  0  0  0
   48.4220   29.1170   48.0300 C   0  0  0  0  0  0  0  0  0  0  0  0
   49.1270   28.1560   48.8170 N   0  0  0  0  0  0  0  0  0  0  0  0
   47.8010   28.8540   46.8750 N   0  0  0  0  0  0  0  0  0  0  0  0
   47.1110   29.8640   46.2510 C   0  0  0  0  0  0  0  0  0  0  0  0
   46.6040   29.3950   45.1920 O   0  0  0  0  0  0  0  0  0  0  0  0
   48.9090   30.9600   49.7730 C   0  0  0  0  0  0  0  0  0  0  0  0
   50.1660   30.4750   50.3730 C   0  0  0  0  0  0  0  0  0  0  0  0
   50.1840   31.7860   49.6780 C   0  0  0  0  0  0  0  0  0  0  0  0
   44.9367   33.9649   46.1574 H   0  0  0  0  0  0  0  0  0  0  0  0
   44.2910   37.0244   43.2481 H   0  0  0  0  0  0  0  0  0  0  0  0
   48.4865   33.7272   43.0125 H   0  0  0  0  0  0  0  0  0  0  0  0
   47.7647   36.3296   41.9850 H   0  0  0  0  0  0  0  0  0  0  0  0
   49.3736   35.5945   42.3547 H   0  0  0  0  0  0  0  0  0  0  0  0
   48.5544   36.2205   39.8568 H   0  0  0  0  0  0  0  0  0  0  0  0
   49.6909   34.9217   40.1895 H   0  0  0  0  0  0  0  0  0  0  0  0
   46.7915   34.8328   39.5188 H   0  0  0  0  0  0  0  0  0  0  0  0
   48.0712   33.6058   39.2305 H   0  0  0  0  0  0  0  0  0  0  0  0
   46.0628   33.5086   41.1999 H   0  0  0  0  0  0  0  0  0  0  0  0
   47.4853   32.4682   41.1246 H   0  0  0  0  0  0  0  0  0  0  0  0
   47.2135   32.2371   43.9562 H   0  0  0  0  0  0  0  0  0  0  0  0
   47.8703   33.1584   45.3905 H   0  0  0  0  0  0  0  0  0  0  0  0
   45.5375   32.5577   46.4261 H   0  0  0  0  0  0  0  0  0  0  0  0
   45.6478   31.2009   45.1877 H   0  0  0  0  0  0  0  0  0  0  0  0
   47.5971   32.3298   48.2858 H   0  0  0  0  0  0  0  0  0  0  0  0
   49.2177   27.1852   48.4849 H   0  0  0  0  0  0  0  0  0  0  0  0
   49.5447   28.4337   49.7166 H   0  0  0  0  0  0  0  0  0  0  0  0
   47.8881   31.0920   50.1606 H   0  0  0  0  0  0  0  0  0  0  0  0
   50.2680   30.4374   51.4676 H   0  0  0  0  0  0  0  0  0  0  0  0
   50.7531   29.5496   50.2788 H   0  0  0  0  0  0  0  0  0  0  0  0
   50.7027   31.8943   48.7141 H   0  0  0  0  0  0  0  0  0  0  0  0
   50.4763   32.8123   49.9451 H   0  0  0  0  0  0  0  0  0  0  0  0
  1  2  1  0
  2 12  1  0
  2  3  2  0
  4  3  1  0
  5  4  2  0
  6  1  2  0
  6  5  1  0
  7  1  1  0
  8  7  1  0
  9  8  1  0
 10  9  1  0
 10 11  1  0
 11  7  1  0
 12 13  1  0
 13 14  1  0
 14 15  1  0
 15 16  2  0
 16 22  1  0
 17 16  1  0
 17 18  1  0
 19 17  2  0
 20 14  1  0
 20 19  1  0
 21 20  2  0
 22 23  1  0
 24 22  1  0
 24 23  1  0
  3 25  1  0
  5 26  1  0
  7 27  1  0
  8 28  1  0
  8 29  1  0
  9 30  1  0
  9 31  1  0
 10 32  1  0
 10 33  1  0
 11 34  1  0
 11 35  1  0
 12 36  1  0
 12 37  1  0
 13 38  1  0
 13 39  1  0
 15 40  1  0
 18 41  1  0
 18 42  1  0
 22 43  1  0
 23 44  1  0
 23 45  1  0
 24 46  1  0
 24 47  1  0
M  ISO  8  25  14  26  14  27  13  28  13  29  13  30  13  31  13  32  13
M  ISO  8  33  13  34  13  35  13  36   8  37   8  38   8  39   8  40  14
M  ISO  5  43  13  44  13  45  13  46  13  47  13
M  END
>  <minimizedAffinity>  (1) 
-6.14214802

>  <minimizedRMSD>  (1) 
1.26865029

$$$$
