
     RDKit          3D

 43 45  0  0  0  0  0  0  0  0999 V2000
   46.4260   34.6050   43.4080 C   0  0  0  0  0  0  0  0  0  0  0  0
   46.0960   34.0690   44.6350 C   0  0  0  0  0  0  0  0  0  0  0  0
   45.0890   34.6490   45.3560 C   0  0  0  0  0  0  0  0  0  0  0  0
   44.4420   35.7310   44.8380 N   0  0  0  0  0  0  0  0  0  0  0  0
   44.7590   36.2510   43.6410 C   0  0  0  0  0  0  0  0  0  0  0  0
   45.7400   35.7020   42.9260 N   0  0  0  0  0  0  0  0  0  0  0  0
   47.5490   34.1950   42.5220 C   0  0  0  0  0  0  0  0  0  0  0  0
   48.2910   35.3050   41.9360 C   0  0  0  0  0  0  0  0  0  0  0  0
   48.5170   35.0850   40.4920 C   0  0  0  0  0  0  0  0  0  0  0  0
   47.4250   34.1790   40.0900 C   0  0  0  0  0  0  0  0  0  0  0  0
   46.8910   33.4610   41.2920 C   0  0  0  0  0  0  0  0  0  0  0  0
   46.7660   32.9290   45.0780 C   0  0  0  0  0  0  0  0  0  0  0  0
   46.1710   32.3400   46.3610 C   0  0  0  0  0  0  0  0  0  0  0  0
   47.0180   31.5240   47.0890 N   0  0  0  0  0  0  0  0  0  0  0  0
   47.9090   31.6580   48.0900 C   0  0  0  0  0  0  0  0  0  0  0  0
   48.6430   30.6600   48.6730 C   0  0  0  0  0  0  0  0  0  0  0  0
   48.5020   29.3560   48.2360 C   0  0  0  0  0  0  0  0  0  0  0  0
   49.3120   28.4090   48.8960 N   0  0  0  0  0  0  0  0  0  0  0  0
   47.6270   29.1500   47.2390 N   0  0  0  0  0  0  0  0  0  0  0  0
   46.9350   30.2180   46.7170 C   0  0  0  0  0  0  0  0  0  0  0  0
   46.1790   29.7610   45.8120 O   0  0  0  0  0  0  0  0  0  0  0  0
   49.5530   31.0400   49.7490 C   0  0  0  0  0  0  0  0  0  0  0  0
   49.6810   30.3720   50.8060 O   0  0  0  0  0  0  0  0  0  0  0  0
   50.3320   32.2060   49.6190 O   0  0  0  0  0  0  0  0  0  0  0  0
   44.8052   34.2479   46.3402 H   0  0  0  0  0  0  0  0  0  0  0  0
   44.2127   37.1237   43.2538 H   0  0  0  0  0  0  0  0  0  0  0  0
   48.2413   33.5988   43.1345 H   0  0  0  0  0  0  0  0  0  0  0  0
   47.7177   36.2337   42.0733 H   0  0  0  0  0  0  0  0  0  0  0  0
   49.2674   35.3783   42.4372 H   0  0  0  0  0  0  0  0  0  0  0  0
   48.4602   36.0342   39.9390 H   0  0  0  0  0  0  0  0  0  0  0  0
   49.5119   34.6666   40.2797 H   0  0  0  0  0  0  0  0  0  0  0  0
   46.6175   34.7642   39.6258 H   0  0  0  0  0  0  0  0  0  0  0  0
   47.8112   33.4428   39.3697 H   0  0  0  0  0  0  0  0  0  0  0  0
   45.7946   33.5389   41.3350 H   0  0  0  0  0  0  0  0  0  0  0  0
   47.1268   32.3867   41.2737 H   0  0  0  0  0  0  0  0  0  0  0  0
   46.7175   32.1656   44.2875 H   0  0  0  0  0  0  0  0  0  0  0  0
   47.8012   33.2250   45.3034 H   0  0  0  0  0  0  0  0  0  0  0  0
   45.8660   33.1756   47.0081 H   0  0  0  0  0  0  0  0  0  0  0  0
   45.3355   31.7000   46.0410 H   0  0  0  0  0  0  0  0  0  0  0  0
   48.0631   32.6750   48.4797 H   0  0  0  0  0  0  0  0  0  0  0  0
   49.2653   27.4155   48.6281 H   0  0  0  0  0  0  0  0  0  0  0  0
   49.9503   28.7108   49.6459 H   0  0  0  0  0  0  0  0  0  0  0  0
   50.9517   32.4707   50.3443 H   0  0  0  0  0  0  0  0  0  0  0  0
  1  2  1  0
  2 12  1  0
  2  3  2  0
  4  3  1  0
  5  4  2  0
  6  1  2  0
  6  5  1  0
  7  1  1  0
  8  7  1  0
  9  8  1  0
 10  9  1  0
 10 11  1  0
 11  7  1  0
 12 13  1  0
 13 14  1  0
 14 15  1  0
 15 16  2  0
 16 22  1  0
 17 16  1  0
 17 18  1  0
 19 17  2  0
 20 14  1  0
 20 19  1  0
 21 20  2  0
 22 23  2  0
 24 22  1  0
  3 25  1  0
  5 26  1  0
  7 27  1  0
  8 28  1  0
  8 29  1  0
  9 30  1  0
  9 31  1  0
 10 32  1  0
 10 33  1  0
 11 34  1  0
 11 35  1  0
 12 36  1  0
 12 37  1  0
 13 38  1  0
 13 39  1  0
 15 40  1  0
 18 41  1  0
 18 42  1  0
 24 43  1  0
M  ISO  8  25  14  26  14  27  13  28  13  29  13  30  13  31  13  32  13
M  ISO  8  33  13  34  13  35  13  36   8  37   8  38   8  39   8  40  14
M  ISO  1  43   3
M  END
>  <minimizedAffinity>  (1) 
-6.18379879

>  <minimizedRMSD>  (1) 
1.19981682

$$$$
