
     RDKit          3D

 26 27  0  0  0  0  0  0  0  0999 V2000
   44.6850   36.0660   44.0540 C   0  0  0  0  0  0  0  0  0  0  0  0
   45.6560   35.6490   43.1230 C   0  0  0  0  0  0  0  0  0  0  0  0
   46.4370   34.5260   43.4520 C   0  0  0  0  0  0  0  0  0  0  0  0
   46.2120   33.9140   44.6410 N   0  0  0  0  0  0  0  0  0  0  0  0
   45.2630   34.3450   45.5190 C   0  0  0  0  0  0  0  0  0  0  0  0
   44.5130   35.4140   45.2150 N   0  0  0  0  0  0  0  0  0  0  0  0
   47.4800   34.0200   42.5300 C   0  0  0  0  0  0  0  0  0  0  0  0
   48.3660   35.1150   41.9930 C   0  0  0  0  0  0  0  0  0  0  0  0
   49.7820   35.0400   42.4940 C   0  0  0  0  0  0  0  0  0  0  0  0
   50.4310   33.7060   42.2590 C   0  0  0  0  0  0  0  0  0  0  0  0
   49.3950   32.6030   42.1220 C   0  0  0  0  0  0  0  0  0  0  0  0
   48.3230   32.9230   43.1550 C   0  0  0  0  0  0  0  0  0  0  0  0
   44.0573   36.9401   43.8262 H   0  0  0  0  0  0  0  0  0  0  0  0
   45.7988   36.1827   42.1718 H   0  0  0  0  0  0  0  0  0  0  0  0
   45.1130   33.8182   46.4729 H   0  0  0  0  0  0  0  0  0  0  0  0
   46.9304   33.5874   41.6810 H   0  0  0  0  0  0  0  0  0  0  0  0
   47.9416   36.0847   42.2923 H   0  0  0  0  0  0  0  0  0  0  0  0
   48.4024   34.9954   40.9001 H   0  0  0  0  0  0  0  0  0  0  0  0
   50.3746   35.8109   41.9796 H   0  0  0  0  0  0  0  0  0  0  0  0
   49.7488   35.1963   43.5823 H   0  0  0  0  0  0  0  0  0  0  0  0
   51.0261   33.7551   41.3352 H   0  0  0  0  0  0  0  0  0  0  0  0
   51.0711   33.4749   43.1232 H   0  0  0  0  0  0  0  0  0  0  0  0
   48.9654   32.6024   41.1094 H   0  0  0  0  0  0  0  0  0  0  0  0
   49.8342   31.6075   42.2838 H   0  0  0  0  0  0  0  0  0  0  0  0
   48.7821   33.2754   44.0904 H   0  0  0  0  0  0  0  0  0  0  0  0
   47.7214   32.0380   43.4097 H   0  0  0  0  0  0  0  0  0  0  0  0
  1  6  2  0
  2  3  2  0
  2  1  1  0
  3  4  1  0
  4  5  2  0
  6  5  1  0
  7 12  1  0
  7  3  1  0
  8  9  1  0
  8  7  1  0
 10  9  1  0
 11 10  1  0
 11 12  1  0
  1 13  1  0
  2 14  1  0
  5 15  1  0
  7 16  1  0
  8 17  1  0
  8 18  1  0
  9 19  1  0
  9 20  1  0
 10 21  1  0
 10 22  1  0
 11 23  1  0
 11 24  1  0
 12 25  1  0
 12 26  1  0
M  ISO  8  13  14  14  14  15  14  16  13  17  13  18  13  19  13  20  13
M  ISO  6  21  13  22  13  23  13  24  13  25  13  26  13
M  END
>  <minimizedAffinity>  (1) 
-4.70931911

>  <minimizedRMSD>  (1) 
0.662201822

$$$$
