
     RDKit          3D

 40 43  0  0  1  0  0  0  0  0999 V2000
   47.4610   33.9010   41.6620 C   0  0  1  0  0  0  0  0  0  0  0  0
   48.1030   35.0100   40.8430 C   0  0  0  0  0  0  0  0  0  0  0  0
   48.9710   35.9210   41.6430 C   0  0  0  0  0  0  0  0  0  0  0  0
   50.0210   35.2010   42.4310 C   0  0  0  0  0  0  0  0  0  0  0  0
   49.6110   33.7860   42.7590 C   0  0  0  0  0  0  0  0  0  0  0  0
   48.1160   33.8180   43.0090 C   0  0  2  0  0  0  0  0  0  0  0  0
   47.6590   32.7280   43.8000 N   0  0  0  0  0  0  0  0  0  0  0  0
   48.0290   31.4270   43.6090 C   0  0  0  0  0  0  0  0  0  0  0  0
   47.4470   30.6240   44.4950 N   0  0  0  0  0  0  0  0  0  0  0  0
   46.6740   31.3540   45.3010 C   0  0  0  0  0  0  0  0  0  0  0  0
   45.8580   31.0470   46.3750 C   0  0  0  0  0  0  0  0  0  0  0  0
   45.7670   29.8300   46.7370 O   0  0  0  0  0  0  0  0  0  0  0  0
   45.2010   32.0520   46.9810 N   0  0  0  0  0  0  0  0  0  0  0  0
   45.3590   33.2940   46.5290 C   0  0  0  0  0  0  0  0  0  0  0  0
   44.6510   34.3280   47.1930 N   0  0  0  0  0  0  0  0  0  0  0  0
   46.1520   33.6250   45.4800 N   0  0  0  0  0  0  0  0  0  0  0  0
   46.8250   32.6600   44.8450 C   0  0  0  0  0  0  0  0  0  0  0  0
   43.7410   33.3770   41.3380 C   0  0  0  0  0  0  0  0  0  0  0  0
   45.1090   33.1210   41.2010 C   0  0  0  0  0  0  0  0  0  0  0  0
   45.9810   34.0790   41.7400 C   0  0  0  0  0  0  0  0  0  0  0  0
   45.4710   35.1850   42.3590 N   0  0  0  0  0  0  0  0  0  0  0  0
   44.1220   35.3920   42.4700 C   0  0  0  0  0  0  0  0  0  0  0  0
   43.2680   34.4820   41.9570 N   0  0  0  0  0  0  0  0  0  0  0  0
   47.6226   32.9353   41.1608 H   0  0  0  0  0  0  0  0  0  0  0  0
   47.3034   35.6085   40.3819 H   0  0  0  0  0  0  0  0  0  0  0  0
   48.7486   34.5251   40.0960 H   0  0  0  0  0  0  0  0  0  0  0  0
   49.4692   36.6207   40.9558 H   0  0  0  0  0  0  0  0  0  0  0  0
   48.3213   36.4386   42.3641 H   0  0  0  0  0  0  0  0  0  0  0  0
   50.9503   35.1742   41.8430 H   0  0  0  0  0  0  0  0  0  0  0  0
   50.1649   35.7412   43.3783 H   0  0  0  0  0  0  0  0  0  0  0  0
   49.8410   33.1185   41.9155 H   0  0  0  0  0  0  0  0  0  0  0  0
   50.1534   33.4084   43.6383 H   0  0  0  0  0  0  0  0  0  0  0  0
   47.8430   34.6943   43.6153 H   0  0  0  0  0  0  0  0  0  0  0  0
   48.7197   31.0872   42.8232 H   0  0  0  0  0  0  0  0  0  0  0  0
   44.5840   31.8632   47.7839 H   0  0  0  0  0  0  0  0  0  0  0  0
   44.7453   35.3031   46.8750 H   0  0  0  0  0  0  0  0  0  0  0  0
   44.0425   34.1038   47.9932 H   0  0  0  0  0  0  0  0  0  0  0  0
   43.0230   32.6522   40.9268 H   0  0  0  0  0  0  0  0  0  0  0  0
   45.4816   32.2167   40.6975 H   0  0  0  0  0  0  0  0  0  0  0  0
   43.7381   36.2919   42.9728 H   0  0  0  0  0  0  0  0  0  0  0  0
  1 20  1  0
  1  6  1  0
  2  3  1  0
  2  1  1  0
  3  4  1  0
  4  5  1  0
  5  6  1  0
  6  7  1  0
  7 17  1  0
  8  7  1  0
  8  9  2  0
  9 10  1  0
 10 11  1  0
 11 12  2  0
 11 13  1  0
 14 13  1  0
 14 15  1  0
 16 14  2  0
 17 10  2  0
 17 16  1  0
 18 23  2  0
 19 18  1  0
 19 20  2  0
 20 21  1  0
 21 22  2  0
 23 22  1  0
  1 24  1  6
  2 25  1  0
  2 26  1  0
  3 27  1  0
  3 28  1  0
  4 29  1  0
  4 30  1  0
  5 31  1  0
  5 32  1  0
  6 33  1  1
  8 34  1  0
 13 35  1  0
 15 36  1  0
 15 37  1  0
 18 38  1  0
 19 39  1  0
 22 40  1  0
M  ISO  8  24  13  25  13  26  13  27  13  28  13  29  13  30  13  31  13
M  ISO  7  32  13  33  13  34  14  35   9  38  14  39  14  40  14
M  END
>  <minimizedAffinity>  (1) 
-6.69018888

>  <minimizedRMSD>  (1) 
3.483711

$$$$
