
     RDKit          3D

 40 43  0  0  1  0  0  0  0  0999 V2000
   47.4970   34.1340   41.7240 C   0  0  1  0  0  0  0  0  0  0  0  0
   48.3090   35.2240   41.0280 C   0  0  0  0  0  0  0  0  0  0  0  0
   49.3540   35.8230   41.9120 C   0  0  0  0  0  0  0  0  0  0  0  0
   50.2900   34.8020   42.4970 C   0  0  0  0  0  0  0  0  0  0  0  0
   49.6430   33.4400   42.5570 C   0  0  0  0  0  0  0  0  0  0  0  0
   48.1940   33.6890   42.9710 C   0  0  2  0  0  0  0  0  0  0  0  0
   47.6160   32.5470   43.6640 C   0  0  0  0  0  0  0  0  0  0  0  0
   47.6950   31.3080   43.0290 C   0  0  0  0  0  0  0  0  0  0  0  0
   47.0860   30.3710   43.8110 N   0  0  0  0  0  0  0  0  0  0  0  0
   46.6080   30.9410   44.9390 C   0  0  0  0  0  0  0  0  0  0  0  0
   45.9330   30.5030   46.0600 C   0  0  0  0  0  0  0  0  0  0  0  0
   45.6130   31.4110   47.0440 C   0  0  0  0  0  0  0  0  0  0  0  0
   45.9530   32.7300   46.9200 C   0  0  0  0  0  0  0  0  0  0  0  0
   46.6250   33.2170   45.8200 C   0  0  0  0  0  0  0  0  0  0  0  0
   46.9330   32.2640   44.8430 C   0  0  0  0  0  0  0  0  0  0  0  0
   43.7630   34.5250   41.3670 C   0  0  0  0  0  0  0  0  0  0  0  0
   45.0590   34.0740   41.0890 C   0  0  0  0  0  0  0  0  0  0  0  0
   46.0930   34.5400   41.9040 C   0  0  0  0  0  0  0  0  0  0  0  0
   45.7720   35.3860   42.9000 N   0  0  0  0  0  0  0  0  0  0  0  0
   44.5140   35.8230   43.1690 C   0  0  0  0  0  0  0  0  0  0  0  0
   43.5110   35.3790   42.3860 N   0  0  0  0  0  0  0  0  0  0  0  0
   47.4402   33.2434   41.0808 H   0  0  0  0  0  0  0  0  0  0  0  0
   48.8024   34.7863   40.1477 H   0  0  0  0  0  0  0  0  0  0  0  0
   47.6121   36.0278   40.7485 H   0  0  0  0  0  0  0  0  0  0  0  0
   49.9432   36.5396   41.3210 H   0  0  0  0  0  0  0  0  0  0  0  0
   48.8339   36.3088   42.7508 H   0  0  0  0  0  0  0  0  0  0  0  0
   51.1930   34.7431   41.8717 H   0  0  0  0  0  0  0  0  0  0  0  0
   50.5469   35.1111   43.5209 H   0  0  0  0  0  0  0  0  0  0  0  0
   49.6821   32.9530   41.5714 H   0  0  0  0  0  0  0  0  0  0  0  0
   50.1595   32.7759   43.2657 H   0  0  0  0  0  0  0  0  0  0  0  0
   48.0902   34.4765   43.7320 H   0  0  0  0  0  0  0  0  0  0  0  0
   48.1710   31.1173   42.0558 H   0  0  0  0  0  0  0  0  0  0  0  0
   47.0024   29.3718   43.5754 H   0  0  0  0  0  0  0  0  0  0  0  0
   45.6547   29.4440   46.1658 H   0  0  0  0  0  0  0  0  0  0  0  0
   45.0766   31.0711   47.9422 H   0  0  0  0  0  0  0  0  0  0  0  0
   45.6804   33.4264   47.7267 H   0  0  0  0  0  0  0  0  0  0  0  0
   46.8992   34.2773   45.7175 H   0  0  0  0  0  0  0  0  0  0  0  0
   42.9284   34.1762   40.7411 H   0  0  0  0  0  0  0  0  0  0  0  0
   45.2555   33.3786   40.2596 H   0  0  0  0  0  0  0  0  0  0  0  0
   44.3202   36.5174   43.9998 H   0  0  0  0  0  0  0  0  0  0  0  0
  1 18  1  0
  1  6  1  0
  2  1  1  0
  2  3  1  0
  3  4  1  0
  4  5  1  0
  5  6  1  0
  6  7  1  0
  7 15  1  0
  8  7  2  0
  8  9  1  0
  9 10  1  0
 10 11  2  0
 11 12  1  0
 13 12  2  0
 14 13  1  0
 15 10  1  0
 15 14  2  0
 16 21  2  0
 17 16  1  0
 17 18  2  0
 18 19  1  0
 19 20  2  0
 21 20  1  0
  1 22  1  6
  2 23  1  0
  2 24  1  0
  3 25  1  0
  3 26  1  0
  4 27  1  0
  4 28  1  0
  5 29  1  0
  5 30  1  0
  6 31  1  1
  8 32  1  0
  9 33  1  0
 11 34  1  0
 12 35  1  0
 13 36  1  0
 14 37  1  0
 16 38  1  0
 17 39  1  0
 20 40  1  0
M  ISO  8  22  13  23  13  24  13  25  13  26  13  27  13  28  13  29  13
M  ISO  8  30  13  31  13  32  14  33   9  34  14  35  14  36  14  37  14
M  ISO  3  38  14  39  14  40  14
M  END
>  <minimizedAffinity>  (1) 
-6.02580929

>  <minimizedRMSD>  (1) 
2.82359743

$$$$
