
     RDKit          3D

 41 43  0  0  1  0  0  0  0  0999 V2000
   47.1450   34.0070   41.4580 C   0  0  1  0  0  0  0  0  0  0  0  0
   48.0940   34.7900   40.5670 C   0  0  0  0  0  0  0  0  0  0  0  0
   48.9370   35.7750   41.3010 C   0  0  0  0  0  0  0  0  0  0  0  0
   49.6800   35.1940   42.4630 C   0  0  0  0  0  0  0  0  0  0  0  0
   49.0080   33.9330   42.9890 C   0  0  0  0  0  0  0  0  0  0  0  0
   47.5120   34.1830   42.9060 C   0  0  2  0  0  0  0  0  0  0  0  0
   43.6640   33.9810   40.0120 C   0  0  0  0  0  0  0  0  0  0  0  0
   45.0170   33.6130   40.2030 C   0  0  0  0  0  0  0  0  0  0  0  0
   45.7180   34.3490   41.1910 C   0  0  0  0  0  0  0  0  0  0  0  0
   45.0850   35.3420   41.8860 N   0  0  0  0  0  0  0  0  0  0  0  0
   43.7840   35.6480   41.6560 C   0  0  0  0  0  0  0  0  0  0  0  0
   43.0870   34.9730   40.7300 N   0  0  0  0  0  0  0  0  0  0  0  0
   46.8450   33.1670   43.6540 N   0  0  0  0  0  0  0  0  0  0  0  0
   46.0860   33.5770   44.7750 C   0  0  0  0  0  0  0  0  0  0  0  0
   46.6220   33.0990   46.1180 C   0  0  0  0  0  0  0  0  0  0  0  0
   46.9710   31.6280   46.0760 C   0  0  0  0  0  0  0  0  0  0  0  0
   46.6900   31.0340   44.7090 C   0  0  0  0  0  0  0  0  0  0  0  0
   47.4700   31.8960   43.7070 C   0  0  0  0  0  0  0  0  0  0  0  0
   47.2540   32.9400   41.2139 H   0  0  0  0  0  0  0  0  0  0  0  0
   47.4978   35.3336   39.8193 H   0  0  0  0  0  0  0  0  0  0  0  0
   48.7794   34.0602   40.1114 H   0  0  0  0  0  0  0  0  0  0  0  0
   49.6702   36.1954   40.5969 H   0  0  0  0  0  0  0  0  0  0  0  0
   48.2554   36.5366   41.7077 H   0  0  0  0  0  0  0  0  0  0  0  0
   50.7030   34.9458   42.1437 H   0  0  0  0  0  0  0  0  0  0  0  0
   49.6888   35.9400   43.2714 H   0  0  0  0  0  0  0  0  0  0  0  0
   49.2847   33.0670   42.3698 H   0  0  0  0  0  0  0  0  0  0  0  0
   49.3207   33.7130   44.0204 H   0  0  0  0  0  0  0  0  0  0  0  0
   47.2384   35.1768   43.2900 H   0  0  0  0  0  0  0  0  0  0  0  0
   43.0650   33.4466   39.2599 H   0  0  0  0  0  0  0  0  0  0  0  0
   45.4933   32.8088   39.6230 H   0  0  0  0  0  0  0  0  0  0  0  0
   43.2994   36.4515   42.2301 H   0  0  0  0  0  0  0  0  0  0  0  0
   46.0614   34.6766   44.7881 H   0  0  0  0  0  0  0  0  0  0  0  0
   45.0912   33.1222   44.6588 H   0  0  0  0  0  0  0  0  0  0  0  0
   47.5249   33.6748   46.3694 H   0  0  0  0  0  0  0  0  0  0  0  0
   45.8413   33.2499   46.8780 H   0  0  0  0  0  0  0  0  0  0  0  0
   48.0396   31.5065   46.3067 H   0  0  0  0  0  0  0  0  0  0  0  0
   46.3508   31.1026   46.8171 H   0  0  0  0  0  0  0  0  0  0  0  0
   47.0360   29.9907   44.6668 H   0  0  0  0  0  0  0  0  0  0  0  0
   45.6131   31.0288   44.4847 H   0  0  0  0  0  0  0  0  0  0  0  0
   47.4488   31.4263   42.7125 H   0  0  0  0  0  0  0  0  0  0  0  0
   48.5199   31.9956   44.0198 H   0  0  0  0  0  0  0  0  0  0  0  0
  1  6  1  0
  2  3  1  0
  2  1  1  0
  3  4  1  0
  4  5  1  0
  6  5  1  0
  6 13  1  0
  7  8  2  0
  7 12  1  0
  8  9  1  0
  9  1  1  0
  9 10  2  0
 11 10  1  0
 12 11  2  0
 13 18  1  0
 13 14  1  0
 14 15  1  0
 16 15  1  0
 17 16  1  0
 18 17  1  0
  1 19  1  6
  2 20  1  0
  2 21  1  0
  3 22  1  0
  3 23  1  0
  4 24  1  0
  4 25  1  0
  5 26  1  0
  5 27  1  0
  6 28  1  1
  7 29  1  0
  8 30  1  0
 11 31  1  0
 14 32  1  0
 14 33  1  0
 15 34  1  0
 15 35  1  0
 16 36  1  0
 16 37  1  0
 17 38  1  0
 17 39  1  0
 18 40  1  0
 18 41  1  0
M  ISO  8  19  13  20  13  21  13  22  13  23  13  24  13  25  13  26  13
M  ISO  8  27  13  28  13  29  14  30  14  31  14  32  13  33  13  34  13
M  ISO  7  35  13  36  13  37  13  38  13  39  13  40  13  41  13
M  END
>  <minimizedAffinity>  (1) 
-5.45057297

>  <minimizedRMSD>  (1) 
2.73478484

$$$$
