
     RDKit          3D

 33 35  0  0  1  0  0  0  0  0999 V2000
   46.4550   34.9790   41.8960 C   0  0  1  0  0  0  0  0  0  0  0  0
   47.9470   35.2670   41.9030 C   0  0  0  0  0  0  0  0  0  0  0  0
   48.7770   34.1090   41.4710 C   0  0  0  0  0  0  0  0  0  0  0  0
   48.3780   33.4910   40.1750 C   0  0  0  0  0  0  0  0  0  0  0  0
   46.9520   33.8350   39.8240 C   0  0  0  0  0  0  0  0  0  0  0  0
   46.1480   33.7450   41.1110 C   0  0  2  0  0  0  0  0  0  0  0  0
   44.5020   35.8550   45.0040 C   0  0  0  0  0  0  0  0  0  0  0  0
   45.0110   35.9730   43.6830 C   0  0  0  0  0  0  0  0  0  0  0  0
   45.8900   34.9470   43.2770 C   0  0  0  0  0  0  0  0  0  0  0  0
   46.2020   33.9270   44.1320 N   0  0  0  0  0  0  0  0  0  0  0  0
   45.6810   33.8670   45.3870 C   0  0  0  0  0  0  0  0  0  0  0  0
   44.8370   34.8280   45.8180 N   0  0  0  0  0  0  0  0  0  0  0  0
   44.7100   33.7930   40.7100 C   0  0  0  0  0  0  0  0  0  0  0  0
   43.7280   32.8290   40.8600 C   0  0  0  0  0  0  0  0  0  0  0  0
   42.5820   33.3200   40.3480 N   0  0  0  0  0  0  0  0  0  0  0  0
   42.8640   34.5520   39.8970 C   0  0  0  0  0  0  0  0  0  0  0  0
   44.1640   34.8650   40.1080 N   0  0  0  0  0  0  0  0  0  0  0  0
   45.9512   35.8118   41.3836 H   0  0  0  0  0  0  0  0  0  0  0  0
   48.1424   36.1087   41.2223 H   0  0  0  0  0  0  0  0  0  0  0  0
   48.2275   35.4968   42.9415 H   0  0  0  0  0  0  0  0  0  0  0  0
   49.8180   34.4522   41.3782 H   0  0  0  0  0  0  0  0  0  0  0  0
   48.6375   33.3310   42.2360 H   0  0  0  0  0  0  0  0  0  0  0  0
   49.0426   33.8618   39.3808 H   0  0  0  0  0  0  0  0  0  0  0  0
   48.4599   32.3982   40.2699 H   0  0  0  0  0  0  0  0  0  0  0  0
   46.8983   34.8546   39.4147 H   0  0  0  0  0  0  0  0  0  0  0  0
   46.5562   33.1466   39.0628 H   0  0  0  0  0  0  0  0  0  0  0  0
   46.3735   32.8395   41.6934 H   0  0  0  0  0  0  0  0  0  0  0  0
   43.8116   36.6254   45.3778 H   0  0  0  0  0  0  0  0  0  0  0  0
   44.7381   36.8082   43.0212 H   0  0  0  0  0  0  0  0  0  0  0  0
   45.9483   33.0329   46.0525 H   0  0  0  0  0  0  0  0  0  0  0  0
   43.8597   31.8370   41.3166 H   0  0  0  0  0  0  0  0  0  0  0  0
   42.1336   35.2207   39.4180 H   0  0  0  0  0  0  0  0  0  0  0  0
   44.6384   35.7446   39.8585 H   0  0  0  0  0  0  0  0  0  0  0  0
  1  2  1  0
  1  9  1  0
  3  2  1  0
  4  3  1  0
  5  4  1  0
  5  6  1  0
  6  1  1  0
  7 12  2  0
  8  7  1  0
  9  8  2  0
  9 10  1  0
 10 11  2  0
 11 12  1  0
 13 14  2  0
 13  6  1  0
 15 14  1  0
 16 17  1  0
 16 15  2  0
 17 13  1  0
  1 18  1  6
  2 19  1  0
  2 20  1  0
  3 21  1  0
  3 22  1  0
  4 23  1  0
  4 24  1  0
  5 25  1  0
  5 26  1  0
  6 27  1  1
  7 28  1  0
  8 29  1  0
 11 30  1  0
 14 31  1  0
 16 32  1  0
 17 33  1  0
M  ISO  8  18  13  19  13  20  13  21  13  22  13  23  13  24  13  25  13
M  ISO  8  26  13  27  13  28  14  29  14  30  14  31  14  32  14  33   9
M  END
>  <minimizedAffinity>  (1) 
-5.30797195

>  <minimizedRMSD>  (1) 
3.31559634

$$$$
