
     RDKit          3D

 36 38  0  0  1  0  0  0  0  0999 V2000
   46.2310   34.9230   42.1240 C   0  0  1  0  0  0  0  0  0  0  0  0
   47.7530   34.9170   42.0580 C   0  0  0  0  0  0  0  0  0  0  0  0
   48.3250   33.6870   41.4480 C   0  0  0  0  0  0  0  0  0  0  0  0
   47.7480   33.3260   40.1070 C   0  0  0  0  0  0  0  0  0  0  0  0
   46.3650   33.9090   39.9340 C   0  0  0  0  0  0  0  0  0  0  0  0
   45.6790   33.8120   41.2770 C   0  0  2  0  0  0  0  0  0  0  0  0
   44.4440   35.7010   45.3510 C   0  0  0  0  0  0  0  0  0  0  0  0
   44.8670   35.8430   44.0100 C   0  0  0  0  0  0  0  0  0  0  0  0
   45.7490   34.8640   43.5360 C   0  0  0  0  0  0  0  0  0  0  0  0
   46.1480   33.8480   44.3590 N   0  0  0  0  0  0  0  0  0  0  0  0
   45.7120   33.7510   45.6460 C   0  0  0  0  0  0  0  0  0  0  0  0
   44.8630   34.6790   46.1330 N   0  0  0  0  0  0  0  0  0  0  0  0
   44.2630   33.7930   41.1980 N   0  0  0  0  0  0  0  0  0  0  0  0
   43.5660   34.7460   40.5100 C   0  0  0  0  0  0  0  0  0  0  0  0
   42.2040   34.8450   40.3560 C   0  0  0  0  0  0  0  0  0  0  0  0
   41.4740   33.8500   40.9810 C   0  0  0  0  0  0  0  0  0  0  0  0
   40.2190   33.8730   40.8860 O   0  0  0  0  0  0  0  0  0  0  0  0
   42.1270   32.8970   41.6670 N   0  0  0  0  0  0  0  0  0  0  0  0
   43.4880   32.8610   41.7790 C   0  0  0  0  0  0  0  0  0  0  0  0
   44.0100   31.9420   42.4330 O   0  0  0  0  0  0  0  0  0  0  0  0
   45.8566   35.8724   41.7136 H   0  0  0  0  0  0  0  0  0  0  0  0
   48.0772   35.7824   41.4614 H   0  0  0  0  0  0  0  0  0  0  0  0
   48.1177   34.9584   43.0950 H   0  0  0  0  0  0  0  0  0  0  0  0
   49.4080   33.8362   41.3265 H   0  0  0  0  0  0  0  0  0  0  0  0
   48.0768   32.8581   42.1272 H   0  0  0  0  0  0  0  0  0  0  0  0
   48.4045   33.7182   39.3163 H   0  0  0  0  0  0  0  0  0  0  0  0
   47.6754   32.2303   40.0419 H   0  0  0  0  0  0  0  0  0  0  0  0
   46.4341   34.9607   39.6192 H   0  0  0  0  0  0  0  0  0  0  0  0
   45.8009   33.3645   39.1625 H   0  0  0  0  0  0  0  0  0  0  0  0
   45.8965   32.8405   41.7448 H   0  0  0  0  0  0  0  0  0  0  0  0
   43.7521   36.4450   45.7726 H   0  0  0  0  0  0  0  0  0  0  0  0
   44.5236   36.6737   43.3759 H   0  0  0  0  0  0  0  0  0  0  0  0
   46.0502   32.9211   46.2839 H   0  0  0  0  0  0  0  0  0  0  0  0
   44.1668   35.5271   40.0211 H   0  0  0  0  0  0  0  0  0  0  0  0
   41.7305   35.6536   39.7798 H   0  0  0  0  0  0  0  0  0  0  0  0
   41.5762   32.1598   42.1296 H   0  0  0  0  0  0  0  0  0  0  0  0
  1  9  1  0
  2  1  1  0
  3  2  1  0
  4  3  1  0
  5  4  1  0
  5  6  1  0
  6  1  1  0
  7 12  2  0
  8  7  1  0
  9  8  2  0
  9 10  1  0
 10 11  2  0
 11 12  1  0
 13  6  1  0
 13 19  1  0
 14 13  1  0
 15 14  2  0
 15 16  1  0
 16 18  1  0
 17 16  2  0
 18 19  1  0
 19 20  2  0
  1 21  1  6
  2 22  1  0
  2 23  1  0
  3 24  1  0
  3 25  1  0
  4 26  1  0
  4 27  1  0
  5 28  1  0
  5 29  1  0
  6 30  1  1
  7 31  1  0
  8 32  1  0
 11 33  1  0
 14 34  1  0
 15 35  1  0
 18 36  1  0
M  ISO  8  21  13  22  13  23  13  24  13  25  13  26  13  27  13  28  13
M  ISO  8  29  13  30  13  31  14  32  14  33  14  34  14  35  14  36   9
M  END
>  <minimizedAffinity>  (1) 
-5.6333456

>  <minimizedRMSD>  (1) 
4.24753761

$$$$
