
     RDKit          3D

 32 34  0  0  1  0  0  0  0  0999 V2000
   47.2820   34.1070   41.6440 C   0  0  1  0  0  0  0  0  0  0  0  0
   48.1150   34.9630   40.7010 C   0  0  0  0  0  0  0  0  0  0  0  0
   49.0530   35.8760   41.4130 C   0  0  0  0  0  0  0  0  0  0  0  0
   49.9390   35.1890   42.4090 C   0  0  0  0  0  0  0  0  0  0  0  0
   49.3270   33.9040   42.9050 C   0  0  0  0  0  0  0  0  0  0  0  0
   47.8330   34.1620   43.0370 C   0  0  2  0  0  0  0  0  0  0  0  0
   43.6450   34.2040   40.6540 C   0  0  0  0  0  0  0  0  0  0  0  0
   44.9930   33.8230   40.6450 C   0  0  0  0  0  0  0  0  0  0  0  0
   45.8380   34.4540   41.5600 C   0  0  0  0  0  0  0  0  0  0  0  0
   45.3260   35.3810   42.3930 N   0  0  0  0  0  0  0  0  0  0  0  0
   44.0040   35.7390   42.3870 C   0  0  0  0  0  0  0  0  0  0  0  0
   43.1830   35.1420   41.5140 N   0  0  0  0  0  0  0  0  0  0  0  0
   47.2870   33.0800   43.8950 C   0  0  0  0  0  0  0  0  0  0  0  0
   47.5810   31.7670   43.4190 C   0  0  0  0  0  0  0  0  0  0  0  0
   46.7470   30.7610   44.7350 S   0  0  0  0  0  0  0  0  0  0  0  0
   46.1660   32.2890   45.6660 C   0  0  0  0  0  0  0  0  0  0  0  0
   46.5980   33.4160   44.9870 N   0  0  0  0  0  0  0  0  0  0  0  0
   47.3524   33.0567   41.3246 H   0  0  0  0  0  0  0  0  0  0  0  0
   47.4343   35.5705   40.0866 H   0  0  0  0  0  0  0  0  0  0  0  0
   48.7234   34.2800   40.0901 H   0  0  0  0  0  0  0  0  0  0  0  0
   49.6914   36.3677   40.6642 H   0  0  0  0  0  0  0  0  0  0  0  0
   48.4341   36.5887   41.9778 H   0  0  0  0  0  0  0  0  0  0  0  0
   50.9042   34.9635   41.9319 H   0  0  0  0  0  0  0  0  0  0  0  0
   50.0727   35.8604   43.2700 H   0  0  0  0  0  0  0  0  0  0  0  0
   49.5107   33.0926   42.1854 H   0  0  0  0  0  0  0  0  0  0  0  0
   49.7653   33.5989   43.8667 H   0  0  0  0  0  0  0  0  0  0  0  0
   47.5776   35.1308   43.4911 H   0  0  0  0  0  0  0  0  0  0  0  0
   42.9471   33.7311   39.9474 H   0  0  0  0  0  0  0  0  0  0  0  0
   45.3693   33.0601   39.9476 H   0  0  0  0  0  0  0  0  0  0  0  0
   43.6250   36.5006   43.0844 H   0  0  0  0  0  0  0  0  0  0  0  0
   48.1407   31.4447   42.5286 H   0  0  0  0  0  0  0  0  0  0  0  0
   45.5796   32.2875   46.5967 H   0  0  0  0  0  0  0  0  0  0  0  0
  1  6  1  0
  2  3  1  0
  2  1  1  0
  3  4  1  0
  4  5  1  0
  5  6  1  0
  6 13  1  0
  7 12  2  0
  8  7  1  0
  8  9  2  0
  9  1  1  0
  9 10  1  0
 11 10  2  0
 12 11  1  0
 13 17  1  0
 14 13  2  0
 14 15  1  0
 15 16  1  0
 17 16  2  0
  1 18  1  6
  2 19  1  0
  2 20  1  0
  3 21  1  0
  3 22  1  0
  4 23  1  0
  4 24  1  0
  5 25  1  0
  5 26  1  0
  6 27  1  1
  7 28  1  0
  8 29  1  0
 11 30  1  0
 14 31  1  0
 16 32  1  0
M  ISO  8  18  13  19  13  20  13  21  13  22  13  23  13  24  13  25  13
M  ISO  7  26  13  27  13  28  14  29  14  30  14  31  14  32  14
M  END
>  <minimizedAffinity>  (1) 
-5.1734004

>  <minimizedRMSD>  (1) 
2.59009504

$$$$
