
     RDKit          3D

 39 41  0  0  1  0  0  0  0  0999 V2000
   47.6880   34.2930   41.3130 C   0  0  1  0  0  0  0  0  0  0  0  0
   48.7260   35.4090   41.5650 C   0  0  0  0  0  0  0  0  0  0  0  0
   49.7010   35.0260   42.6240 C   0  0  0  0  0  0  0  0  0  0  0  0
   50.4180   33.7650   42.2910 C   0  0  0  0  0  0  0  0  0  0  0  0
   49.5960   32.8460   41.4440 C   0  0  0  0  0  0  0  0  0  0  0  0
   48.1320   32.9990   41.8060 C   0  0  1  0  0  0  0  0  0  0  0  0
   44.6790   35.9830   42.8370 C   0  0  0  0  0  0  0  0  0  0  0  0
   46.0380   35.6450   42.6760 C   0  0  0  0  0  0  0  0  0  0  0  0
   46.3390   34.7590   41.6430 C   0  0  0  0  0  0  0  0  0  0  0  0
   45.3280   34.3170   40.9100 N   0  0  0  0  0  0  0  0  0  0  0  0
   44.0280   34.6230   41.0430 C   0  0  0  0  0  0  0  0  0  0  0  0
   43.7150   35.4780   42.0370 N   0  0  0  0  0  0  0  0  0  0  0  0
   47.7180   32.2770   42.9980 C   0  0  0  0  0  0  0  0  0  0  0  0
   47.3720   33.0230   44.2530 C   0  0  0  0  0  0  0  0  0  0  0  0
   45.9350   32.5420   44.6280 C   0  0  0  0  0  0  0  0  0  0  0  0
   46.1340   31.0850   44.2680 C   0  0  0  0  0  0  0  0  0  0  0  0
   46.5060   31.3720   42.7940 C   0  0  0  0  0  0  0  0  0  0  0  0
   47.6048   34.0705   40.2390 H   0  0  0  0  0  0  0  0  0  0  0  0
   49.2729   35.6046   40.6309 H   0  0  0  0  0  0  0  0  0  0  0  0
   48.1884   36.3073   41.9027 H   0  0  0  0  0  0  0  0  0  0  0  0
   50.4382   35.8345   42.7374 H   0  0  0  0  0  0  0  0  0  0  0  0
   49.1426   34.8633   43.5577 H   0  0  0  0  0  0  0  0  0  0  0  0
   51.3401   34.0166   41.7465 H   0  0  0  0  0  0  0  0  0  0  0  0
   50.6356   33.2445   43.2353 H   0  0  0  0  0  0  0  0  0  0  0  0
   49.9103   31.8065   41.6193 H   0  0  0  0  0  0  0  0  0  0  0  0
   49.7396   33.0987   40.3831 H   0  0  0  0  0  0  0  0  0  0  0  0
   47.3581   32.3969   41.3074 H   0  0  0  0  0  0  0  0  0  0  0  0
   44.3947   36.6798   43.6393 H   0  0  0  0  0  0  0  0  0  0  0  0
   46.8193   36.0584   43.3307 H   0  0  0  0  0  0  0  0  0  0  0  0
   43.2608   34.1997   40.3780 H   0  0  0  0  0  0  0  0  0  0  0  0
   48.6759   31.7580   43.1497 H   0  0  0  0  0  0  0  0  0  0  0  0
   48.0830   32.7788   45.0560 H   0  0  0  0  0  0  0  0  0  0  0  0
   47.4182   34.1128   44.1110 H   0  0  0  0  0  0  0  0  0  0  0  0
   45.7072   32.6855   45.6946 H   0  0  0  0  0  0  0  0  0  0  0  0
   45.0970   33.0616   44.1404 H   0  0  0  0  0  0  0  0  0  0  0  0
   46.9489   30.6090   44.8332 H   0  0  0  0  0  0  0  0  0  0  0  0
   45.3058   30.3881   44.4641 H   0  0  0  0  0  0  0  0  0  0  0  0
   45.6947   31.8900   42.2616 H   0  0  0  0  0  0  0  0  0  0  0  0
   46.6932   30.4781   42.1809 H   0  0  0  0  0  0  0  0  0  0  0  0
  1  2  1  0
  1  9  1  0
  1  6  1  0
  2  3  1  0
  4  3  1  0
  5  6  1  0
  5  4  1  0
  6 13  1  0
  8  7  2  0
  9  8  1  0
 10 11  1  0
 10  9  2  0
 11 12  2  0
 12  7  1  0
 13 14  1  0
 14 15  1  0
 16 15  1  0
 17 13  1  0
 17 16  1  0
  1 18  1  6
  2 19  1  0
  2 20  1  0
  3 21  1  0
  3 22  1  0
  4 23  1  0
  4 24  1  0
  5 25  1  0
  5 26  1  0
  6 27  1  6
  7 28  1  0
  8 29  1  0
 11 30  1  0
 13 31  1  0
 14 32  1  0
 14 33  1  0
 15 34  1  0
 15 35  1  0
 16 36  1  0
 16 37  1  0
 17 38  1  0
 17 39  1  0
M  ISO  8  18  13  19  13  20  13  21  13  22  13  23  13  24  13  25  13
M  ISO  8  26  13  27  13  28  14  29  14  30  14  31  13  32  13  33  13
M  ISO  6  34  13  35  13  36  13  37  13  38  13  39  13
M  END
>  <minimizedAffinity>  (1) 
-5.00166893

>  <minimizedRMSD>  (1) 
2.24318671

$$$$
