
     RDKit          3D

 33 35  0  0  1  0  0  0  0  0999 V2000
   47.2900   34.0720   41.5840 C   0  0  1  0  0  0  0  0  0  0  0  0
   48.1340   35.0260   40.7620 C   0  0  0  0  0  0  0  0  0  0  0  0
   49.0950   35.8280   41.5700 C   0  0  0  0  0  0  0  0  0  0  0  0
   49.9750   35.0150   42.4720 C   0  0  0  0  0  0  0  0  0  0  0  0
   49.3420   33.6880   42.8050 C   0  0  0  0  0  0  0  0  0  0  0  0
   47.8580   33.9340   42.9680 C   0  0  2  0  0  0  0  0  0  0  0  0
   43.6130   34.2710   40.7680 C   0  0  0  0  0  0  0  0  0  0  0  0
   44.9670   33.8620   40.6790 C   0  0  0  0  0  0  0  0  0  0  0  0
   45.8560   34.4680   41.6040 C   0  0  0  0  0  0  0  0  0  0  0  0
   45.3790   35.3830   42.5020 N   0  0  0  0  0  0  0  0  0  0  0  0
   44.0720   35.7320   42.5360 C   0  0  0  0  0  0  0  0  0  0  0  0
   43.1940   35.1820   41.6780 N   0  0  0  0  0  0  0  0  0  0  0  0
   47.2120   32.9250   43.7460 N   0  0  0  0  0  0  0  0  0  0  0  0
   46.7090   33.1810   44.9860 C   0  0  0  0  0  0  0  0  0  0  0  0
   46.1530   32.0230   45.4830 C   0  0  0  0  0  0  0  0  0  0  0  0
   46.3060   31.0530   44.5630 N   0  0  0  0  0  0  0  0  0  0  0  0
   46.9520   31.6360   43.5240 C   0  0  0  0  0  0  0  0  0  0  0  0
   47.3257   33.0841   41.1016 H   0  0  0  0  0  0  0  0  0  0  0  0
   47.4610   35.7187   40.2355 H   0  0  0  0  0  0  0  0  0  0  0  0
   48.7307   34.4119   40.0714 H   0  0  0  0  0  0  0  0  0  0  0  0
   49.7384   36.3925   40.8790 H   0  0  0  0  0  0  0  0  0  0  0  0
   48.4920   36.4775   42.2215 H   0  0  0  0  0  0  0  0  0  0  0  0
   50.9368   34.8369   41.9687 H   0  0  0  0  0  0  0  0  0  0  0  0
   50.1228   35.5735   43.4080 H   0  0  0  0  0  0  0  0  0  0  0  0
   49.5187   32.9702   41.9904 H   0  0  0  0  0  0  0  0  0  0  0  0
   49.7735   33.2673   43.7252 H   0  0  0  0  0  0  0  0  0  0  0  0
   47.6796   34.8552   43.5421 H   0  0  0  0  0  0  0  0  0  0  0  0
   42.8786   33.8342   40.0753 H   0  0  0  0  0  0  0  0  0  0  0  0
   45.3071   33.1218   39.9398 H   0  0  0  0  0  0  0  0  0  0  0  0
   43.7244   36.4721   43.2718 H   0  0  0  0  0  0  0  0  0  0  0  0
   46.7415   34.1509   45.5039 H   0  0  0  0  0  0  0  0  0  0  0  0
   45.6673   31.9105   46.4635 H   0  0  0  0  0  0  0  0  0  0  0  0
   47.2305   31.1057   42.6014 H   0  0  0  0  0  0  0  0  0  0  0  0
  1  9  1  0
  1  6  1  0
  2  3  1  0
  2  1  1  0
  3  4  1  0
  4  5  1  0
  5  6  1  0
  6 13  1  0
  7 12  2  0
  8  7  1  0
  8  9  2  0
  9 10  1  0
 10 11  2  0
 12 11  1  0
 13 14  1  0
 14 15  2  0
 16 15  1  0
 17 13  1  0
 17 16  2  0
  1 18  1  6
  2 19  1  0
  2 20  1  0
  3 21  1  0
  3 22  1  0
  4 23  1  0
  4 24  1  0
  5 25  1  0
  5 26  1  0
  6 27  1  1
  7 28  1  0
  8 29  1  0
 11 30  1  0
 14 31  1  0
 15 32  1  0
 17 33  1  0
M  ISO  8  18  13  19  13  20  13  21  13  22  13  23  13  24  13  25  13
M  ISO  8  26  13  27  13  28  14  29  14  30  14  31  14  32  14  33  14
M  END
>  <minimizedAffinity>  (1) 
-5.02304649

>  <minimizedRMSD>  (1) 
2.21954918

$$$$
