
     RDKit          3D

 29 30  0  0  1  0  0  0  0  0999 V2000
   47.7340   34.3160   41.2940 C   0  0  1  0  0  0  0  0  0  0  0  0
   48.7440   35.4430   41.5360 C   0  0  0  0  0  0  0  0  0  0  0  0
   49.7600   35.0940   42.5460 C   0  0  0  0  0  0  0  0  0  0  0  0
   50.4440   33.7710   42.3420 C   0  0  0  0  0  0  0  0  0  0  0  0
   49.6680   32.9040   41.3770 C   0  0  0  0  0  0  0  0  0  0  0  0
   48.2020   33.0240   41.7890 C   0  0  1  0  0  0  0  0  0  0  0  0
   44.7380   35.8940   42.9800 C   0  0  0  0  0  0  0  0  0  0  0  0
   46.0760   35.5610   42.7450 C   0  0  0  0  0  0  0  0  0  0  0  0
   46.3750   34.7360   41.6580 C   0  0  0  0  0  0  0  0  0  0  0  0
   45.3460   34.3240   40.9120 N   0  0  0  0  0  0  0  0  0  0  0  0
   44.0630   34.6410   41.1330 C   0  0  0  0  0  0  0  0  0  0  0  0
   43.7700   35.4320   42.1750 N   0  0  0  0  0  0  0  0  0  0  0  0
   47.9040   32.4190   43.0730 C   0  0  0  0  0  0  0  0  0  0  0  0
   46.5490   31.9560   42.9680 F   0  0  0  0  0  0  0  0  0  0  0  0
   47.7240   33.3150   44.1480 F   0  0  0  0  0  0  0  0  0  0  0  0
   48.6130   31.3890   43.5560 F   0  0  0  0  0  0  0  0  0  0  0  0
   47.6560   34.1177   40.2148 H   0  0  0  0  0  0  0  0  0  0  0  0
   49.2541   35.6672   40.5876 H   0  0  0  0  0  0  0  0  0  0  0  0
   48.1857   36.3117   41.9150 H   0  0  0  0  0  0  0  0  0  0  0  0
   50.5304   35.8792   42.5378 H   0  0  0  0  0  0  0  0  0  0  0  0
   49.2218   35.0128   43.5019 H   0  0  0  0  0  0  0  0  0  0  0  0
   51.4522   33.9456   41.9381 H   0  0  0  0  0  0  0  0  0  0  0  0
   50.5017   33.2529   43.3106 H   0  0  0  0  0  0  0  0  0  0  0  0
   50.0012   31.8582   41.4499 H   0  0  0  0  0  0  0  0  0  0  0  0
   49.8214   33.2232   40.3356 H   0  0  0  0  0  0  0  0  0  0  0  0
   47.4621   32.3608   41.3171 H   0  0  0  0  0  0  0  0  0  0  0  0
   44.4777   36.5398   43.8316 H   0  0  0  0  0  0  0  0  0  0  0  0
   46.8740   35.9398   43.4006 H   0  0  0  0  0  0  0  0  0  0  0  0
   43.2682   34.2608   40.4744 H   0  0  0  0  0  0  0  0  0  0  0  0
  1  2  1  0
  1  9  1  0
  1  6  1  0
  2  3  1  0
  4  3  1  0
  5  6  1  0
  5  4  1  0
  6 13  1  0
  8  7  2  0
  9  8  1  0
 10 11  1  0
 10  9  2  0
 11 12  2  0
 12  7  1  0
 13 16  1  0
 13 15  1  0
 14 13  1  0
  1 17  1  6
  2 18  1  0
  2 19  1  0
  3 20  1  0
  3 21  1  0
  4 22  1  0
  4 23  1  0
  5 24  1  0
  5 25  1  0
  6 26  1  6
  7 27  1  0
  8 28  1  0
 11 29  1  0
M  ISO  8  17  13  18  13  19  13  20  13  21  13  22  13  23  13  24  13
M  ISO  5  25  13  26  13  27  14  28  14  29  14
M  END
>  <minimizedAffinity>  (1) 
-4.98298693

>  <minimizedRMSD>  (1) 
2.08319664

$$$$
