
     RDKit          3D

 33 35  0  0  1  0  0  0  0  0999 V2000
   47.5150   33.9950   42.5550 C   0  0  1  0  0  0  0  0  0  0  0  0
   48.3750   35.1270   42.0100 C   0  0  0  0  0  0  0  0  0  0  0  0
   49.7840   35.0820   42.4890 C   0  0  0  0  0  0  0  0  0  0  0  0
   50.4720   33.7640   42.2760 C   0  0  0  0  0  0  0  0  0  0  0  0
   49.4780   32.6400   42.1770 C   0  0  0  0  0  0  0  0  0  0  0  0
   48.3630   32.9250   43.1680 C   0  0  2  0  0  0  0  0  0  0  0  0
   44.6810   36.0220   43.9960 C   0  0  0  0  0  0  0  0  0  0  0  0
   45.6740   35.6020   43.0720 C   0  0  0  0  0  0  0  0  0  0  0  0
   46.4620   34.5080   43.4760 C   0  0  0  0  0  0  0  0  0  0  0  0
   46.2500   33.9160   44.6920 N   0  0  0  0  0  0  0  0  0  0  0  0
   45.2850   34.3620   45.5310 C   0  0  0  0  0  0  0  0  0  0  0  0
   44.5090   35.4060   45.1810 N   0  0  0  0  0  0  0  0  0  0  0  0
   47.5550   31.6220   43.1810 C   0  0  0  0  0  0  0  0  0  0  0  0
   48.2230   30.3380   42.8200 C   0  0  0  0  0  0  0  0  0  0  0  0
   47.7360   30.6230   44.2500 C   0  0  0  0  0  0  0  0  0  0  0  0
   46.9818   33.5270   41.7143 H   0  0  0  0  0  0  0  0  0  0  0  0
   47.9309   36.0837   42.3222 H   0  0  0  0  0  0  0  0  0  0  0  0
   48.4002   35.0179   40.9157 H   0  0  0  0  0  0  0  0  0  0  0  0
   50.3534   35.8571   41.9551 H   0  0  0  0  0  0  0  0  0  0  0  0
   49.7504   35.2455   43.5763 H   0  0  0  0  0  0  0  0  0  0  0  0
   51.0549   33.8103   41.3443 H   0  0  0  0  0  0  0  0  0  0  0  0
   51.1296   33.5719   43.1366 H   0  0  0  0  0  0  0  0  0  0  0  0
   49.0694   32.5892   41.1570 H   0  0  0  0  0  0  0  0  0  0  0  0
   49.9595   31.6772   42.4033 H   0  0  0  0  0  0  0  0  0  0  0  0
   48.7041   33.2311   44.1680 H   0  0  0  0  0  0  0  0  0  0  0  0
   44.0348   36.8736   43.7368 H   0  0  0  0  0  0  0  0  0  0  0  0
   45.8183   36.1001   42.1019 H   0  0  0  0  0  0  0  0  0  0  0  0
   45.1341   33.8694   46.5029 H   0  0  0  0  0  0  0  0  0  0  0  0
   46.6800   32.1709   42.8026 H   0  0  0  0  0  0  0  0  0  0  0  0
   47.7024   29.5987   42.1936 H   0  0  0  0  0  0  0  0  0  0  0  0
   49.1774   30.0496   42.3553 H   0  0  0  0  0  0  0  0  0  0  0  0
   48.4636   30.8022   45.0553 H   0  0  0  0  0  0  0  0  0  0  0  0
   47.0728   30.1151   44.9657 H   0  0  0  0  0  0  0  0  0  0  0  0
  1  6  1  0
  1  9  1  0
  2  3  1  0
  2  1  1  0
  4  3  1  0
  5  4  1  0
  5  6  1  0
  6 13  1  0
  7 12  2  0
  8  9  2  0
  8  7  1  0
  9 10  1  0
 10 11  2  0
 12 11  1  0
 13 15  1  0
 14 13  1  0
 14 15  1  0
  1 16  1  6
  2 17  1  0
  2 18  1  0
  3 19  1  0
  3 20  1  0
  4 21  1  0
  4 22  1  0
  5 23  1  0
  5 24  1  0
  6 25  1  1
  7 26  1  0
  8 27  1  0
 11 28  1  0
 13 29  1  0
 14 30  1  0
 14 31  1  0
 15 32  1  0
 15 33  1  0
M  ISO  8  16  13  17  13  18  13  19  13  20  13  21  13  22  13  23  13
M  ISO  8  24  13  25  13  26  14  27  14  28  14  29  13  30  13  31  13
M  ISO  2  32  13  33  13
M  END
>  <minimizedAffinity>  (1) 
-4.86158323

>  <minimizedRMSD>  (1) 
0.657903433

$$$$
