
     RDKit          3D

 35 36  0  0  1  0  0  0  0  0999 V2000
   47.5100   34.0220   42.5040 C   0  0  1  0  0  0  0  0  0  0  0  0
   48.3970   35.1510   42.0020 C   0  0  0  0  0  0  0  0  0  0  0  0
   49.7980   35.0680   42.5030 C   0  0  0  0  0  0  0  0  0  0  0  0
   50.4690   33.7540   42.2900 C   0  0  0  0  0  0  0  0  0  0  0  0
   49.4570   32.6520   42.0910 C   0  0  0  0  0  0  0  0  0  0  0  0
   48.3230   32.9040   43.0620 C   0  0  2  0  0  0  0  0  0  0  0  0
   44.6890   36.0120   44.0210 C   0  0  0  0  0  0  0  0  0  0  0  0
   45.6590   35.6180   43.0870 C   0  0  0  0  0  0  0  0  0  0  0  0
   46.4620   34.5320   43.4370 C   0  0  0  0  0  0  0  0  0  0  0  0
   46.2780   33.9130   44.6410 N   0  0  0  0  0  0  0  0  0  0  0  0
   45.3180   34.3300   45.5250 C   0  0  0  0  0  0  0  0  0  0  0  0
   44.5340   35.3760   45.2040 N   0  0  0  0  0  0  0  0  0  0  0  0
   47.5400   31.5970   43.1130 C   0  0  0  0  0  0  0  0  0  0  0  0
   47.0390   31.1710   41.7740 C   0  0  0  0  0  0  0  0  0  0  0  0
   48.3970   30.5410   43.7790 C   0  0  0  0  0  0  0  0  0  0  0  0
   46.9650   33.5954   41.6490 H   0  0  0  0  0  0  0  0  0  0  0  0
   47.9646   36.1073   42.3314 H   0  0  0  0  0  0  0  0  0  0  0  0
   48.4380   35.0699   40.9058 H   0  0  0  0  0  0  0  0  0  0  0  0
   50.3898   35.8400   41.9895 H   0  0  0  0  0  0  0  0  0  0  0  0
   49.7427   35.2107   43.5923 H   0  0  0  0  0  0  0  0  0  0  0  0
   51.1098   33.8184   41.3982 H   0  0  0  0  0  0  0  0  0  0  0  0
   51.0690   33.5199   43.1817 H   0  0  0  0  0  0  0  0  0  0  0  0
   49.0794   32.6693   41.0580 H   0  0  0  0  0  0  0  0  0  0  0  0
   49.9125   31.6669   42.2702 H   0  0  0  0  0  0  0  0  0  0  0  0
   48.6430   33.1866   44.0758 H   0  0  0  0  0  0  0  0  0  0  0  0
   44.0349   36.8640   43.7837 H   0  0  0  0  0  0  0  0  0  0  0  0
   45.7804   36.1396   42.1262 H   0  0  0  0  0  0  0  0  0  0  0  0
   45.1891   33.8147   46.4883 H   0  0  0  0  0  0  0  0  0  0  0  0
   46.6311   31.7504   43.7133 H   0  0  0  0  0  0  0  0  0  0  0  0
   46.2067   30.4633   41.9021 H   0  0  0  0  0  0  0  0  0  0  0  0
   46.6886   32.0520   41.2163 H   0  0  0  0  0  0  0  0  0  0  0  0
   47.8522   30.6836   41.2163 H   0  0  0  0  0  0  0  0  0  0  0  0
   48.3171   30.6395   44.8717 H   0  0  0  0  0  0  0  0  0  0  0  0
   48.0508   29.5423   43.4746 H   0  0  0  0  0  0  0  0  0  0  0  0
   49.4456   30.6742   43.4746 H   0  0  0  0  0  0  0  0  0  0  0  0
  1  6  1  0
  1  9  1  0
  2  3  1  0
  2  1  1  0
  4  3  1  0
  5  4  1  0
  5  6  1  0
  6 13  1  0
  7 12  2  0
  8  9  2  0
  8  7  1  0
  9 10  1  0
 10 11  2  0
 12 11  1  0
 13 15  1  0
 14 13  1  0
  1 16  1  6
  2 17  1  0
  2 18  1  0
  3 19  1  0
  3 20  1  0
  4 21  1  0
  4 22  1  0
  5 23  1  0
  5 24  1  0
  6 25  1  1
  7 26  1  0
  8 27  1  0
 11 28  1  0
 13 29  1  0
 14 30  1  0
 14 31  1  0
 14 32  1  0
 15 33  1  0
 15 34  1  0
 15 35  1  0
M  ISO  8  16  13  17  13  18  13  19  13  20  13  21  13  22  13  23  13
M  ISO  8  24  13  25  13  26  14  27  14  28  14  29   8  30   8  31   8
M  ISO  4  32   8  33   8  34   8  35   8
M  END
>  <minimizedAffinity>  (1) 
-4.89270878

>  <minimizedRMSD>  (1) 
0.722859979

$$$$
