
     RDKit          3D

 38 39  0  0  1  0  0  0  0  0999 V2000
   47.5350   33.9820   42.5390 C   0  0  1  0  0  0  0  0  0  0  0  0
   48.3730   35.1100   41.9600 C   0  0  0  0  0  0  0  0  0  0  0  0
   49.7650   35.1100   42.4820 C   0  0  0  0  0  0  0  0  0  0  0  0
   50.5010   33.8310   42.3390 C   0  0  0  0  0  0  0  0  0  0  0  0
   49.5520   32.6930   42.1700 C   0  0  0  0  0  0  0  0  0  0  0  0
   48.3530   32.8780   43.1040 C   0  0  2  0  0  0  0  0  0  0  0  0
   44.6520   35.9460   43.9600 C   0  0  0  0  0  0  0  0  0  0  0  0
   45.6490   35.5510   43.0390 C   0  0  0  0  0  0  0  0  0  0  0  0
   46.4840   34.5120   43.4570 C   0  0  0  0  0  0  0  0  0  0  0  0
   46.3110   33.9590   44.6640 N   0  0  0  0  0  0  0  0  0  0  0  0
   45.3330   34.3590   45.5460 C   0  0  0  0  0  0  0  0  0  0  0  0
   44.5120   35.3570   45.1710 N   0  0  0  0  0  0  0  0  0  0  0  0
   47.6660   31.5140   42.8730 C   0  0  0  0  0  0  0  0  0  0  0  0
   47.1470   30.8410   44.0790 C   0  0  0  0  0  0  0  0  0  0  0  0
   46.5910   31.5950   41.8140 C   0  0  0  0  0  0  0  0  0  0  0  0
   48.6710   30.5220   42.2640 C   0  0  0  0  0  0  0  0  0  0  0  0
   46.9967   33.5029   41.7079 H   0  0  0  0  0  0  0  0  0  0  0  0
   47.8997   36.0691   42.2171 H   0  0  0  0  0  0  0  0  0  0  0  0
   48.4241   34.9638   40.8710 H   0  0  0  0  0  0  0  0  0  0  0  0
   50.3284   35.8870   41.9445 H   0  0  0  0  0  0  0  0  0  0  0  0
   49.6815   35.2907   43.5638 H   0  0  0  0  0  0  0  0  0  0  0  0
   51.1568   33.8883   41.4577 H   0  0  0  0  0  0  0  0  0  0  0  0
   51.0972   33.6624   43.2479 H   0  0  0  0  0  0  0  0  0  0  0  0
   49.2020   32.6605   41.1277 H   0  0  0  0  0  0  0  0  0  0  0  0
   50.0644   31.7515   42.4171 H   0  0  0  0  0  0  0  0  0  0  0  0
   48.5495   33.1194   44.1591 H   0  0  0  0  0  0  0  0  0  0  0  0
   43.9661   36.7602   43.6832 H   0  0  0  0  0  0  0  0  0  0  0  0
   45.7602   36.0313   42.0556 H   0  0  0  0  0  0  0  0  0  0  0  0
   45.2256   33.8769   46.5289 H   0  0  0  0  0  0  0  0  0  0  0  0
   47.5357   31.3451   44.9761 H   0  0  0  0  0  0  0  0  0  0  0  0
   46.0479   30.8866   44.0800 H   0  0  0  0  0  0  0  0  0  0  0  0
   47.4704   29.7896   44.0800 H   0  0  0  0  0  0  0  0  0  0  0  0
   45.6055   31.6693   42.2969 H   0  0  0  0  0  0  0  0  0  0  0  0
   46.7600   32.4830   41.1871 H   0  0  0  0  0  0  0  0  0  0  0  0
   46.6250   30.6917   41.1871 H   0  0  0  0  0  0  0  0  0  0  0  0
   49.2029   29.9970   43.0711 H   0  0  0  0  0  0  0  0  0  0  0  0
   48.1335   29.7905   41.6426 H   0  0  0  0  0  0  0  0  0  0  0  0
   49.3954   31.0689   41.6426 H   0  0  0  0  0  0  0  0  0  0  0  0
  1  6  1  0
  1  9  1  0
  2  3  1  0
  2  1  1  0
  4  3  1  0
  5  4  1  0
  5  6  1  0
  7 12  2  0
  8  9  2  0
  8  7  1  0
  9 10  1  0
 10 11  2  0
 12 11  1  0
 13  6  1  0
 13 14  1  0
 15 13  1  0
 16 13  1  0
  1 17  1  6
  2 18  1  0
  2 19  1  0
  3 20  1  0
  3 21  1  0
  4 22  1  0
  4 23  1  0
  5 24  1  0
  5 25  1  0
  6 26  1  1
  7 27  1  0
  8 28  1  0
 11 29  1  0
 14 30  1  0
 14 31  1  0
 14 32  1  0
 15 33  1  0
 15 34  1  0
 15 35  1  0
 16 36  1  0
 16 37  1  0
 16 38  1  0
M  ISO  8  17  13  18  13  19  13  20  13  21  13  22  13  23  13  24  13
M  ISO  8  25  13  26  13  27  14  28  14  29  14  30   8  31   8  32   8
M  ISO  6  33   8  34   8  35   8  36   8  37   8  38   8
M  END
>  <minimizedAffinity>  (1) 
-4.91946745

>  <minimizedRMSD>  (1) 
0.309825122

$$$$
