
     RDKit          3D

 20 21  0  0  0  0  0  0  0  0999 V2000
   46.5610   34.0950   43.7130 C   0  0  0  0  0  0  0  0  0  0  0  0
   45.5320   34.8680   44.2030 C   0  0  0  0  0  0  0  0  0  0  0  0
   44.9750   34.7160   45.4530 C   0  0  0  0  0  0  0  0  0  0  0  0
   45.5440   33.7060   46.1840 C   0  0  0  0  0  0  0  0  0  0  0  0
   46.5800   32.8850   45.7620 C   0  0  0  0  0  0  0  0  0  0  0  0
   47.0470   33.1280   44.5150 N   0  0  0  0  0  0  0  0  0  0  0  0
   48.7000   35.3280   41.0470 C   0  0  0  0  0  0  0  0  0  0  0  0
   48.1970   34.6890   39.8870 C   0  0  0  0  0  0  0  0  0  0  0  0
   47.1160   33.8300   40.0370 C   0  0  0  0  0  0  0  0  0  0  0  0
   46.6000   33.6520   41.2880 N   0  0  0  0  0  0  0  0  0  0  0  0
   47.1200   34.2940   42.3850 C   0  0  0  0  0  0  0  0  0  0  0  0
   48.1700   35.1310   42.2590 N   0  0  0  0  0  0  0  0  0  0  0  0
   44.8770   36.1660   43.1330 S   0  0  0  0  0  0  0  0  0  0  0  0
   44.1535   35.3439   45.8283 H   0  0  0  0  0  0  0  0  0  0  0  0
   45.1444   33.5308   47.1938 H   0  0  0  0  0  0  0  0  0  0  0  0
   46.9943   32.0894   46.3987 H   0  0  0  0  0  0  0  0  0  0  0  0
   49.5569   36.0104   40.9473 H   0  0  0  0  0  0  0  0  0  0  0  0
   48.6479   34.8674   38.8996 H   0  0  0  0  0  0  0  0  0  0  0  0
   46.6867   33.3066   39.1699 H   0  0  0  0  0  0  0  0  0  0  0  0
   44.3664   37.1779   43.9026 H   0  0  0  0  0  0  0  0  0  0  0  0
  1  2  2  0
  1  6  1  0
  2  3  1  0
  3  4  2  0
  5  4  1  0
  6  5  2  0
  7 12  2  0
  8  9  2  0
  8  7  1  0
  9 10  1  0
 10 11  2  0
 11  1  1  0
 12 11  1  0
 13  2  1  0
  3 14  1  0
  4 15  1  0
  5 16  1  0
  7 17  1  0
  8 18  1  0
  9 19  1  0
 13 20  1  0
M  ISO  7  14  14  15  14  16  14  17  14  18  14  19  14  20  11
M  END
>  <minimizedAffinity>  (1) 
-4.18384171

>  <minimizedRMSD>  (1) 
4.27358294

$$$$
