
     RDKit          3D

 22 23  0  0  0  0  0  0  0  0999 V2000
   46.4550   32.2240   45.3300 C   0  0  0  0  0  0  0  0  0  0  0  0
   46.3740   31.6980   46.5880 C   0  0  0  0  0  0  0  0  0  0  0  0
   47.0350   30.5810   47.0390 C   0  0  0  0  0  0  0  0  0  0  0  0
   47.8290   29.9900   46.0960 C   0  0  0  0  0  0  0  0  0  0  0  0
   47.9510   30.4650   44.8290 C   0  0  0  0  0  0  0  0  0  0  0  0
   47.2530   31.5740   44.4920 N   0  0  0  0  0  0  0  0  0  0  0  0
   44.6330   35.3730   45.5370 C   0  0  0  0  0  0  0  0  0  0  0  0
   44.3340   35.6580   44.1700 C   0  0  0  0  0  0  0  0  0  0  0  0
   44.7720   34.7440   43.1940 C   0  0  0  0  0  0  0  0  0  0  0  0
   45.4570   33.6400   43.6130 N   0  0  0  0  0  0  0  0  0  0  0  0
   45.7210   33.4100   44.9470 C   0  0  0  0  0  0  0  0  0  0  0  0
   45.3060   34.2740   45.8620 N   0  0  0  0  0  0  0  0  0  0  0  0
   45.5440   32.2410   47.6450 C   0  0  0  0  0  0  0  0  0  0  0  0
   45.8430   32.5780   48.8190 O   0  0  0  0  0  0  0  0  0  0  0  0
   44.3260   32.6610   48.0910 O   0  0  0  0  0  0  0  0  0  0  0  0
   46.9345   30.1974   48.0650 H   0  0  0  0  0  0  0  0  0  0  0  0
   48.3947   29.0891   46.3758 H   0  0  0  0  0  0  0  0  0  0  0  0
   48.5997   29.9616   44.0970 H   0  0  0  0  0  0  0  0  0  0  0  0
   44.3046   36.0666   46.3250 H   0  0  0  0  0  0  0  0  0  0  0  0
   43.7781   36.5645   43.8886 H   0  0  0  0  0  0  0  0  0  0  0  0
   44.5687   34.9138   42.1264 H   0  0  0  0  0  0  0  0  0  0  0  0
   44.2271   32.9983   49.0165 H   0  0  0  0  0  0  0  0  0  0  0  0
  1  2  2  0
  2  3  1  0
  2 13  1  0
  4  3  2  0
  5  4  1  0
  6  5  2  0
  6  1  1  0
  7 12  2  0
  8  7  1  0
  9 10  1  0
  9  8  2  0
 10 11  2  0
 11  1  1  0
 11 12  1  0
 13 15  1  0
 13 14  2  0
  3 16  1  0
  4 17  1  0
  5 18  1  0
  7 19  1  0
  8 20  1  0
  9 21  1  0
 15 22  1  0
M  ISO  7  16  14  17  14  18  14  19  14  20  14  21  14  22   3
M  END
>  <minimizedAffinity>  (1) 
-4.57236958

>  <minimizedRMSD>  (1) 
2.09328914

$$$$
