
     RDKit          3D

 26 27  0  0  0  0  0  0  0  0999 V2000
   47.2650   31.2460   45.5010 C   0  0  0  0  0  0  0  0  0  0  0  0
   47.3550   31.1210   46.8790 C   0  0  0  0  0  0  0  0  0  0  0  0
   48.1860   30.1410   47.4240 C   0  0  0  0  0  0  0  0  0  0  0  0
   48.8760   29.3440   46.5520 C   0  0  0  0  0  0  0  0  0  0  0  0
   48.7970   29.4510   45.1880 C   0  0  0  0  0  0  0  0  0  0  0  0
   47.9820   30.4140   44.7120 N   0  0  0  0  0  0  0  0  0  0  0  0
   45.6270   34.4530   44.9410 C   0  0  0  0  0  0  0  0  0  0  0  0
   44.8670   34.2180   43.7730 C   0  0  0  0  0  0  0  0  0  0  0  0
   44.9090   32.9460   43.1670 C   0  0  0  0  0  0  0  0  0  0  0  0
   45.6910   32.0190   43.7590 N   0  0  0  0  0  0  0  0  0  0  0  0
   46.4240   32.2690   44.8980 C   0  0  0  0  0  0  0  0  0  0  0  0
   46.3660   33.4840   45.4530 N   0  0  0  0  0  0  0  0  0  0  0  0
   46.6550   31.9210   47.8050 N   0  0  0  0  0  0  0  0  0  0  0  0
   45.4840   31.5210   48.5080 C   0  0  0  0  0  0  0  0  0  0  0  0
   44.5880   30.8590   47.8030 N   0  0  0  0  0  0  0  0  0  0  0  0
   45.1960   31.7790   49.8970 N   0  0  0  0  0  0  0  0  0  0  0  0
   43.7100   30.5370   48.2550 H   0  0  0  0  0  0  0  0  0  0  0  0
   48.2824   30.0144   48.5124 H   0  0  0  0  0  0  0  0  0  0  0  0
   49.5349   28.5695   46.9716 H   0  0  0  0  0  0  0  0  0  0  0  0
   49.3663   28.7887   44.5193 H   0  0  0  0  0  0  0  0  0  0  0  0
   45.6036   35.4412   45.4236 H   0  0  0  0  0  0  0  0  0  0  0  0
   44.2492   35.0192   43.3413 H   0  0  0  0  0  0  0  0  0  0  0  0
   44.3333   32.7203   42.2573 H   0  0  0  0  0  0  0  0  0  0  0  0
   47.0189   32.8673   47.9866 H   0  0  0  0  0  0  0  0  0  0  0  0
   44.3143   31.4440   50.3110 H   0  0  0  0  0  0  0  0  0  0  0  0
   45.8719   32.2983   50.4753 H   0  0  0  0  0  0  0  0  0  0  0  0
  1  2  2  0
  2  3  1  0
  2 13  1  0
  4  3  2  0
  5  4  1  0
  6  5  2  0
  6  1  1  0
  7 12  2  0
  8  7  1  0
  9 10  1  0
  9  8  2  0
 10 11  2  0
 11 12  1  0
 11  1  1  0
 13 14  1  0
 14 16  1  0
 15 17  1  0
 15 14  2  0
  3 18  1  0
  4 19  1  0
  5 20  1  0
  7 21  1  0
  8 22  1  0
  9 23  1  0
 13 24  1  0
 16 25  1  0
 16 26  1  0
M  ISO  6  18  14  19  14  20  14  21  14  22  14  23  14
M  END
>  <minimizedAffinity>  (1) 
-4.12392282

>  <minimizedRMSD>  (1) 
2.74534655

$$$$
