
     RDKit          3D

 31 33  0  0  0  0  0  0  0  0999 V2000
   44.5630   35.8360   44.6420 C   0  0  0  0  0  0  0  0  0  0  0  0
   45.1770   35.8410   43.3850 C   0  0  0  0  0  0  0  0  0  0  0  0
   46.1080   34.8610   43.1210 C   0  0  0  0  0  0  0  0  0  0  0  0
   46.3800   33.9460   44.0870 N   0  0  0  0  0  0  0  0  0  0  0  0
   45.7580   33.9730   45.3050 C   0  0  0  0  0  0  0  0  0  0  0  0
   44.8460   34.9270   45.5730 N   0  0  0  0  0  0  0  0  0  0  0  0
   46.0630   32.9850   46.3250 C   0  0  0  0  0  0  0  0  0  0  0  0
   45.3930   32.9690   47.5340 C   0  0  0  0  0  0  0  0  0  0  0  0
   45.6280   32.0640   48.5470 C   0  0  0  0  0  0  0  0  0  0  0  0
   46.6090   31.1640   48.2320 C   0  0  0  0  0  0  0  0  0  0  0  0
   47.3190   31.1160   47.0540 C   0  0  0  0  0  0  0  0  0  0  0  0
   46.9960   32.0540   46.1430 N   0  0  0  0  0  0  0  0  0  0  0  0
   44.3880   33.9750   47.7240 N   0  0  0  0  0  0  0  0  0  0  0  0
   46.8300   34.7310   41.8720 C   0  0  0  0  0  0  0  0  0  0  0  0
   48.0260   35.3940   41.7320 C   0  0  0  0  0  0  0  0  0  0  0  0
   48.7760   35.3150   40.5560 C   0  0  0  0  0  0  0  0  0  0  0  0
   48.2780   34.5330   39.5090 C   0  0  0  0  0  0  0  0  0  0  0  0
   47.0850   33.8580   39.6200 C   0  0  0  0  0  0  0  0  0  0  0  0
   46.3890   33.9760   40.8060 C   0  0  0  0  0  0  0  0  0  0  0  0
   43.8180   36.6126   44.8700 H   0  0  0  0  0  0  0  0  0  0  0  0
   44.9246   36.6025   42.6324 H   0  0  0  0  0  0  0  0  0  0  0  0
   45.0859   32.0654   49.5041 H   0  0  0  0  0  0  0  0  0  0  0  0
   46.8534   30.4073   48.9920 H   0  0  0  0  0  0  0  0  0  0  0  0
   48.0982   30.3620   46.8689 H   0  0  0  0  0  0  0  0  0  0  0  0
   43.8563   34.0118   48.6054 H   0  0  0  0  0  0  0  0  0  0  0  0
   44.1981   34.6605   46.9790 H   0  0  0  0  0  0  0  0  0  0  0  0
   48.4023   36.0025   42.5676 H   0  0  0  0  0  0  0  0  0  0  0  0
   49.7306   35.8524   40.4565 H   0  0  0  0  0  0  0  0  0  0  0  0
   48.8539   34.4560   38.5750 H   0  0  0  0  0  0  0  0  0  0  0  0
   46.6988   33.2452   38.7922 H   0  0  0  0  0  0  0  0  0  0  0  0
   45.4335   33.4402   40.9058 H   0  0  0  0  0  0  0  0  0  0  0  0
  1  6  2  0
  2  1  1  0
  3  2  2  0
  3  4  1  0
  4  5  2  0
  5  6  1  0
  5  7  1  0
  7  8  2  0
  8 13  1  0
  8  9  1  0
 10  9  2  0
 11 10  1  0
 12  7  1  0
 12 11  2  0
 14  3  1  0
 15 14  2  0
 16 15  1  0
 17 18  1  0
 17 16  2  0
 18 19  2  0
 19 14  1  0
  1 20  1  0
  2 21  1  0
  9 22  1  0
 10 23  1  0
 11 24  1  0
 13 25  1  0
 13 26  1  0
 15 27  1  0
 16 28  1  0
 17 29  1  0
 18 30  1  0
 19 31  1  0
M  ISO  8  20  14  21  14  22  14  23  14  24  14  27  14  28  14  29  14
M  ISO  2  30  14  31  14
M  END
>  <minimizedAffinity>  (1) 
-7.27645159

>  <minimizedRMSD>  (1) 
0.165776163

$$$$
