
     RDKit          3D

 32 35  0  0  0  0  0  0  0  0999 V2000
   44.5570   35.7880   44.5410 C   0  0  0  0  0  0  0  0  0  0  0  0
   45.2590   35.8470   43.3290 C   0  0  0  0  0  0  0  0  0  0  0  0
   46.2530   34.9170   43.1120 C   0  0  0  0  0  0  0  0  0  0  0  0
   46.4970   33.9920   44.0930 N   0  0  0  0  0  0  0  0  0  0  0  0
   45.7920   33.9650   45.2630 C   0  0  0  0  0  0  0  0  0  0  0  0
   44.8230   34.8720   45.4750 N   0  0  0  0  0  0  0  0  0  0  0  0
   47.0470   34.8480   41.9390 N   0  0  0  0  0  0  0  0  0  0  0  0
   48.2420   35.4690   41.9460 C   0  0  0  0  0  0  0  0  0  0  0  0
   48.8340   35.2870   40.7530 N   0  0  0  0  0  0  0  0  0  0  0  0
   48.0370   34.5500   39.9590 C   0  0  0  0  0  0  0  0  0  0  0  0
   48.0160   34.0100   38.6700 C   0  0  0  0  0  0  0  0  0  0  0  0
   46.9900   33.2940   38.2160 N   0  0  0  0  0  0  0  0  0  0  0  0
   45.9180   33.0720   39.0290 C   0  0  0  0  0  0  0  0  0  0  0  0
   45.8740   33.5690   40.2990 N   0  0  0  0  0  0  0  0  0  0  0  0
   46.9260   34.2880   40.7240 C   0  0  0  0  0  0  0  0  0  0  0  0
   46.0510   32.9890   46.2970 C   0  0  0  0  0  0  0  0  0  0  0  0
   45.3830   32.9820   47.5010 C   0  0  0  0  0  0  0  0  0  0  0  0
   45.5960   32.0730   48.5100 C   0  0  0  0  0  0  0  0  0  0  0  0
   46.5550   31.1530   48.2070 C   0  0  0  0  0  0  0  0  0  0  0  0
   47.2680   31.0890   47.0320 C   0  0  0  0  0  0  0  0  0  0  0  0
   46.9770   32.0290   46.1140 N   0  0  0  0  0  0  0  0  0  0  0  0
   44.4020   34.0150   47.6720 N   0  0  0  0  0  0  0  0  0  0  0  0
   43.7594   36.5218   44.7289 H   0  0  0  0  0  0  0  0  0  0  0  0
   45.0238   36.6120   42.5743 H   0  0  0  0  0  0  0  0  0  0  0  0
   48.6647   36.0332   42.7904 H   0  0  0  0  0  0  0  0  0  0  0  0
   48.8772   34.1827   38.0079 H   0  0  0  0  0  0  0  0  0  0  0  0
   45.0707   32.4797   38.6530 H   0  0  0  0  0  0  0  0  0  0  0  0
   45.0487   32.0867   49.4641 H   0  0  0  0  0  0  0  0  0  0  0  0
   46.7790   30.3935   48.9705 H   0  0  0  0  0  0  0  0  0  0  0  0
   48.0300   30.3160   46.8537 H   0  0  0  0  0  0  0  0  0  0  0  0
   43.8623   34.0729   48.5474 H   0  0  0  0  0  0  0  0  0  0  0  0
   44.2374   34.6986   46.9194 H   0  0  0  0  0  0  0  0  0  0  0  0
  1  6  2  0
  2  1  1  0
  3  2  2  0
  3  4  1  0
  4  5  2  0
  5  6  1  0
  5 16  1  0
  7  8  1  0
  7  3  1  0
  9  8  2  0
 10 15  2  0
 10  9  1  0
 11 10  1  0
 12 11  2  0
 12 13  1  0
 13 14  2  0
 14 15  1  0
 15  7  1  0
 16 17  2  0
 17 22  1  0
 17 18  1  0
 19 18  2  0
 20 19  1  0
 21 16  1  0
 21 20  2  0
  1 23  1  0
  2 24  1  0
  8 25  1  0
 11 26  1  0
 13 27  1  0
 18 28  1  0
 19 29  1  0
 20 30  1  0
 22 31  1  0
 22 32  1  0
M  ISO  8  23  14  24  14  25  14  26  14  27  14  28  14  29  14  30  14
M  END
>  <minimizedAffinity>  (1) 
-7.30308628

>  <minimizedRMSD>  (1) 
0.338126063

$$$$
