
     RDKit          3D

 28 30  0  0  0  0  0  0  0  0999 V2000
   44.5440   35.8200   44.5760 C   0  0  0  0  0  0  0  0  0  0  0  0
   45.2100   35.8730   43.3460 C   0  0  0  0  0  0  0  0  0  0  0  0
   46.1840   34.9280   43.1090 C   0  0  0  0  0  0  0  0  0  0  0  0
   46.4490   33.9980   44.0760 N   0  0  0  0  0  0  0  0  0  0  0  0
   45.7770   33.9820   45.2620 C   0  0  0  0  0  0  0  0  0  0  0  0
   44.8210   34.9040   45.5010 N   0  0  0  0  0  0  0  0  0  0  0  0
   46.0500   33.0010   46.2920 C   0  0  0  0  0  0  0  0  0  0  0  0
   45.3870   32.9860   47.4990 C   0  0  0  0  0  0  0  0  0  0  0  0
   45.6260   32.0630   48.4990 C   0  0  0  0  0  0  0  0  0  0  0  0
   46.5890   31.1500   48.1920 C   0  0  0  0  0  0  0  0  0  0  0  0
   47.2910   31.1040   47.0110 C   0  0  0  0  0  0  0  0  0  0  0  0
   46.9810   32.0520   46.0990 N   0  0  0  0  0  0  0  0  0  0  0  0
   44.3970   34.0070   47.6830 N   0  0  0  0  0  0  0  0  0  0  0  0
   46.9690   34.8150   41.9280 N   0  0  0  0  0  0  0  0  0  0  0  0
   46.7110   34.1740   40.7820 N   0  0  0  0  0  0  0  0  0  0  0  0
   47.7370   34.3250   39.9180 C   0  0  0  0  0  0  0  0  0  0  0  0
   48.6740   35.1020   40.5690 C   0  0  0  0  0  0  0  0  0  0  0  0
   48.1780   35.4020   41.8340 C   0  0  0  0  0  0  0  0  0  0  0  0
   43.7616   36.5640   44.7862 H   0  0  0  0  0  0  0  0  0  0  0  0
   44.9649   36.6403   42.5969 H   0  0  0  0  0  0  0  0  0  0  0  0
   45.0866   32.0653   49.4577 H   0  0  0  0  0  0  0  0  0  0  0  0
   46.8239   30.3883   48.9500 H   0  0  0  0  0  0  0  0  0  0  0  0
   48.0596   30.3407   46.8196 H   0  0  0  0  0  0  0  0  0  0  0  0
   43.8633   34.0543   48.5627 H   0  0  0  0  0  0  0  0  0  0  0  0
   44.2197   34.6931   46.9355 H   0  0  0  0  0  0  0  0  0  0  0  0
   47.8114   33.9124   38.9010 H   0  0  0  0  0  0  0  0  0  0  0  0
   49.6421   35.4268   40.1599 H   0  0  0  0  0  0  0  0  0  0  0  0
   48.6771   36.0029   42.6084 H   0  0  0  0  0  0  0  0  0  0  0  0
  1  6  2  0
  2  1  1  0
  3  2  2  0
  3  4  1  0
  4  5  2  0
  5  6  1  0
  5  7  1  0
  7  8  2  0
  8 13  1  0
  8  9  1  0
 10  9  2  0
 11 10  1  0
 12  7  1  0
 12 11  2  0
 14  3  1  0
 15 14  1  0
 16 17  1  0
 16 15  2  0
 17 18  2  0
 18 14  1  0
  1 19  1  0
  2 20  1  0
  9 21  1  0
 10 22  1  0
 11 23  1  0
 13 24  1  0
 13 25  1  0
 16 26  1  0
 17 27  1  0
 18 28  1  0
M  ISO  8  19  14  20  14  21  14  22  14  23  14  26  14  27  14  28  14
M  END
>  <minimizedAffinity>  (1) 
-6.64949989

>  <minimizedRMSD>  (1) 
0.442974925

$$$$
