
     RDKit          3D

 27 29  0  0  0  0  0  0  0  0999 V2000
   44.5620   35.7960   44.5640 C   0  0  0  0  0  0  0  0  0  0  0  0
   45.2310   35.8520   43.3390 C   0  0  0  0  0  0  0  0  0  0  0  0
   46.2080   34.9060   43.1220 C   0  0  0  0  0  0  0  0  0  0  0  0
   46.4830   33.9680   44.0890 N   0  0  0  0  0  0  0  0  0  0  0  0
   45.7830   33.9690   45.2800 C   0  0  0  0  0  0  0  0  0  0  0  0
   44.8290   34.8870   45.5010 N   0  0  0  0  0  0  0  0  0  0  0  0
   46.0560   32.9910   46.3110 C   0  0  0  0  0  0  0  0  0  0  0  0
   45.3960   32.9770   47.5070 C   0  0  0  0  0  0  0  0  0  0  0  0
   45.6010   32.0790   48.5310 C   0  0  0  0  0  0  0  0  0  0  0  0
   46.5730   31.1580   48.2310 C   0  0  0  0  0  0  0  0  0  0  0  0
   47.2840   31.1050   47.0510 C   0  0  0  0  0  0  0  0  0  0  0  0
   46.9810   32.0450   46.1330 N   0  0  0  0  0  0  0  0  0  0  0  0
   44.4040   33.9990   47.6820 N   0  0  0  0  0  0  0  0  0  0  0  0
   46.9900   34.8240   41.9180 N   0  0  0  0  0  0  0  0  0  0  0  0
   46.8820   34.2200   40.7240 C   0  0  0  0  0  0  0  0  0  0  0  0
   47.9620   34.5260   39.9950 N   0  0  0  0  0  0  0  0  0  0  0  0
   48.7270   35.3200   40.7520 C   0  0  0  0  0  0  0  0  0  0  0  0
   48.1230   35.5040   41.9470 N   0  0  0  0  0  0  0  0  0  0  0  0
   43.7761   36.5389   44.7650 H   0  0  0  0  0  0  0  0  0  0  0  0
   44.9891   36.6148   42.5842 H   0  0  0  0  0  0  0  0  0  0  0  0
   45.0481   32.0980   49.4818 H   0  0  0  0  0  0  0  0  0  0  0  0
   46.8037   30.4002   48.9942 H   0  0  0  0  0  0  0  0  0  0  0  0
   48.0536   30.3404   46.8690 H   0  0  0  0  0  0  0  0  0  0  0  0
   43.8664   34.0501   48.5591 H   0  0  0  0  0  0  0  0  0  0  0  0
   44.2296   34.6815   46.9305 H   0  0  0  0  0  0  0  0  0  0  0  0
   46.0471   33.5815   40.3996 H   0  0  0  0  0  0  0  0  0  0  0  0
   49.6921   35.7534   40.4506 H   0  0  0  0  0  0  0  0  0  0  0  0
  1  6  2  0
  2  1  1  0
  3  2  2  0
  3  4  1  0
  4  5  2  0
  5  6  1  0
  5  7  1  0
  7  8  2  0
  8 13  1  0
  8  9  1  0
 10  9  2  0
 11 10  1  0
 12  7  1  0
 12 11  2  0
 14 18  1  0
 14  3  1  0
 15 14  1  0
 16 15  2  0
 16 17  1  0
 17 18  2  0
  1 19  1  0
  2 20  1  0
  9 21  1  0
 10 22  1  0
 11 23  1  0
 13 24  1  0
 13 25  1  0
 15 26  1  0
 17 27  1  0
M  ISO  7  19  14  20  14  21  14  22  14  23  14  26  14  27  14
M  END
>  <minimizedAffinity>  (1) 
-6.525805

>  <minimizedRMSD>  (1) 
0.264715672

$$$$
