
     RDKit          3D

 30 31  0  0  0  0  0  0  0  0999 V2000
   46.1680   32.8730   46.4820 C   0  0  0  0  0  0  0  0  0  0  0  0
   45.4240   32.9650   47.6270 C   0  0  0  0  0  0  0  0  0  0  0  0
   45.5840   32.1440   48.7120 C   0  0  0  0  0  0  0  0  0  0  0  0
   46.5610   31.2050   48.5680 C   0  0  0  0  0  0  0  0  0  0  0  0
   47.3460   31.0550   47.4500 C   0  0  0  0  0  0  0  0  0  0  0  0
   47.1050   31.9140   46.4420 N   0  0  0  0  0  0  0  0  0  0  0  0
   44.8050   35.5180   44.4090 C   0  0  0  0  0  0  0  0  0  0  0  0
   45.5540   35.4720   43.2290 C   0  0  0  0  0  0  0  0  0  0  0  0
   46.5390   34.5110   43.1610 C   0  0  0  0  0  0  0  0  0  0  0  0
   46.7300   33.6750   44.2150 N   0  0  0  0  0  0  0  0  0  0  0  0
   45.9680   33.7590   45.3560 C   0  0  0  0  0  0  0  0  0  0  0  0
   44.9910   34.7000   45.4440 N   0  0  0  0  0  0  0  0  0  0  0  0
   47.4120   34.3520   41.9560 C   0  0  0  0  0  0  0  0  0  0  0  0
   46.5910   34.1880   40.6980 C   0  0  0  0  0  0  0  0  0  0  0  0
   48.4020   35.4960   41.8260 C   0  0  0  0  0  0  0  0  0  0  0  0
   44.4270   33.9940   47.6530 N   0  0  0  0  0  0  0  0  0  0  0  0
   44.9747   32.2352   49.6233 H   0  0  0  0  0  0  0  0  0  0  0  0
   46.7340   30.5166   49.4083 H   0  0  0  0  0  0  0  0  0  0  0  0
   48.1239   30.2802   47.3829 H   0  0  0  0  0  0  0  0  0  0  0  0
   44.0127   36.2770   44.4876 H   0  0  0  0  0  0  0  0  0  0  0  0
   45.3664   36.1674   42.3976 H   0  0  0  0  0  0  0  0  0  0  0  0
   47.9950   33.4296   42.0946 H   0  0  0  0  0  0  0  0  0  0  0  0
   45.5451   33.9791   40.9673 H   0  0  0  0  0  0  0  0  0  0  0  0
   46.6392   35.1135   40.1055 H   0  0  0  0  0  0  0  0  0  0  0  0
   46.9910   33.3520   40.1055 H   0  0  0  0  0  0  0  0  0  0  0  0
   48.6992   35.8394   42.8279 H   0  0  0  0  0  0  0  0  0  0  0  0
   49.2912   35.1510   41.2780 H   0  0  0  0  0  0  0  0  0  0  0  0
   47.9329   36.3264   41.2780 H   0  0  0  0  0  0  0  0  0  0  0  0
   43.8337   34.1153   48.4862 H   0  0  0  0  0  0  0  0  0  0  0  0
   44.3037   34.6123   46.8385 H   0  0  0  0  0  0  0  0  0  0  0  0
  1  2  2  0
  2 16  1  0
  2  3  1  0
  4  3  2  0
  5  4  1  0
  6  1  1  0
  6  5  2  0
  7 12  2  0
  8  7  1  0
  9  8  2  0
  9 10  1  0
 10 11  2  0
 11 12  1  0
 11  1  1  0
 13  9  1  0
 14 13  1  0
 15 13  1  0
  3 17  1  0
  4 18  1  0
  5 19  1  0
  7 20  1  0
  8 21  1  0
 13 22  1  0
 14 23  1  0
 14 24  1  0
 14 25  1  0
 15 26  1  0
 15 27  1  0
 15 28  1  0
 16 29  1  0
 16 30  1  0
M  ISO  8  17  14  18  14  19  14  20  14  21  14  22   8  23   8  24   8
M  ISO  4  25   8  26   8  27   8  28   8
M  END
>  <minimizedAffinity>  (1) 
-6.07815123

>  <minimizedRMSD>  (1) 
0.498256177

$$$$
