
     RDKit          3D

 24 25  0  0  0  0  0  0  0  0999 V2000
   46.0620   32.9930   46.3080 C   0  0  0  0  0  0  0  0  0  0  0  0
   45.3820   32.9990   47.5040 C   0  0  0  0  0  0  0  0  0  0  0  0
   45.5960   32.0990   48.5260 C   0  0  0  0  0  0  0  0  0  0  0  0
   46.5690   31.1790   48.2350 C   0  0  0  0  0  0  0  0  0  0  0  0
   47.2870   31.1140   47.0650 C   0  0  0  0  0  0  0  0  0  0  0  0
   46.9850   32.0450   46.1530 N   0  0  0  0  0  0  0  0  0  0  0  0
   44.5730   35.8030   44.5520 C   0  0  0  0  0  0  0  0  0  0  0  0
   45.2510   35.8350   43.3180 C   0  0  0  0  0  0  0  0  0  0  0  0
   46.2250   34.8740   43.1090 C   0  0  0  0  0  0  0  0  0  0  0  0
   46.4790   33.9610   44.0810 N   0  0  0  0  0  0  0  0  0  0  0  0
   45.7950   33.9640   45.2720 C   0  0  0  0  0  0  0  0  0  0  0  0
   44.8420   34.8900   45.4970 N   0  0  0  0  0  0  0  0  0  0  0  0
   47.0250   34.7890   41.8470 C   0  0  0  0  0  0  0  0  0  0  0  0
   44.3930   34.0170   47.6690 N   0  0  0  0  0  0  0  0  0  0  0  0
   45.0430   32.1174   49.4767 H   0  0  0  0  0  0  0  0  0  0  0  0
   46.7951   30.4268   49.0052 H   0  0  0  0  0  0  0  0  0  0  0  0
   48.0575   30.3486   46.8903 H   0  0  0  0  0  0  0  0  0  0  0  0
   43.7941   36.5545   44.7480 H   0  0  0  0  0  0  0  0  0  0  0  0
   45.0168   36.5906   42.5537 H   0  0  0  0  0  0  0  0  0  0  0  0
   48.0906   34.6758   42.0953 H   0  0  0  0  0  0  0  0  0  0  0  0
   46.6913   33.9213   41.2591 H   0  0  0  0  0  0  0  0  0  0  0  0
   46.8811   35.7075   41.2591 H   0  0  0  0  0  0  0  0  0  0  0  0
   43.8514   34.0719   48.5434 H   0  0  0  0  0  0  0  0  0  0  0  0
   44.2217   34.6959   46.9136 H   0  0  0  0  0  0  0  0  0  0  0  0
  1  2  2  0
  2 14  1  0
  2  3  1  0
  4  3  2  0
  5  4  1  0
  6  1  1  0
  6  5  2  0
  7 12  2  0
  8  7  1  0
  9  8  2  0
  9 10  1  0
 10 11  2  0
 11 12  1  0
 11  1  1  0
 13  9  1  0
  3 15  1  0
  4 16  1  0
  5 17  1  0
  7 18  1  0
  8 19  1  0
 13 20  1  0
 13 21  1  0
 13 22  1  0
 14 23  1  0
 14 24  1  0
M  ISO  8  15  14  16  14  17  14  18  14  19  14  20   8  21   8  22   8
M  END
>  <minimizedAffinity>  (1) 
-5.68393993

>  <minimizedRMSD>  (1) 
0.0628330857

$$$$
