
     RDKit          3D

 33 34  0  0  0  0  0  0  0  0999 V2000
   46.1670   32.8640   46.4340 C   0  0  0  0  0  0  0  0  0  0  0  0
   45.4300   32.9680   47.5810 C   0  0  0  0  0  0  0  0  0  0  0  0
   45.5490   32.1520   48.6830 C   0  0  0  0  0  0  0  0  0  0  0  0
   46.5040   31.1920   48.5240 C   0  0  0  0  0  0  0  0  0  0  0  0
   47.2860   31.0170   47.4080 C   0  0  0  0  0  0  0  0  0  0  0  0
   47.0790   31.8780   46.3900 N   0  0  0  0  0  0  0  0  0  0  0  0
   44.8160   35.4870   44.3410 C   0  0  0  0  0  0  0  0  0  0  0  0
   45.6410   35.4540   43.1880 C   0  0  0  0  0  0  0  0  0  0  0  0
   46.6580   34.5270   43.1380 C   0  0  0  0  0  0  0  0  0  0  0  0
   46.8140   33.6950   44.2010 N   0  0  0  0  0  0  0  0  0  0  0  0
   46.0010   33.7530   45.2970 C   0  0  0  0  0  0  0  0  0  0  0  0
   44.9960   34.6570   45.3650 N   0  0  0  0  0  0  0  0  0  0  0  0
   47.5660   34.4090   41.9960 C   0  0  0  0  0  0  0  0  0  0  0  0
   46.8320   34.1800   40.6770 C   0  0  0  0  0  0  0  0  0  0  0  0
   48.4960   35.6060   41.8860 C   0  0  0  0  0  0  0  0  0  0  0  0
   48.5000   33.2360   42.2570 C   0  0  0  0  0  0  0  0  0  0  0  0
   44.4630   34.0300   47.6010 N   0  0  0  0  0  0  0  0  0  0  0  0
   44.9402   32.2623   49.5925 H   0  0  0  0  0  0  0  0  0  0  0  0
   46.6621   30.4972   49.3620 H   0  0  0  0  0  0  0  0  0  0  0  0
   48.0399   30.2183   47.3477 H   0  0  0  0  0  0  0  0  0  0  0  0
   44.0002   36.2233   44.3903 H   0  0  0  0  0  0  0  0  0  0  0  0
   45.4727   36.1516   42.3543 H   0  0  0  0  0  0  0  0  0  0  0  0
   45.8004   33.8582   40.8825 H   0  0  0  0  0  0  0  0  0  0  0  0
   46.8159   35.1158   40.0991 H   0  0  0  0  0  0  0  0  0  0  0  0
   47.3509   33.4010   40.0991 H   0  0  0  0  0  0  0  0  0  0  0  0
   48.7664   35.9541   42.8938 H   0  0  0  0  0  0  0  0  0  0  0  0
   49.4066   35.3141   41.3423 H   0  0  0  0  0  0  0  0  0  0  0  0
   47.9881   36.4162   41.3423 H   0  0  0  0  0  0  0  0  0  0  0  0
   48.6142   33.0925   43.3416 H   0  0  0  0  0  0  0  0  0  0  0  0
   48.0778   32.3244   41.8090 H   0  0  0  0  0  0  0  0  0  0  0  0
   49.4830   33.4433   41.8090 H   0  0  0  0  0  0  0  0  0  0  0  0
   43.8702   34.1711   48.4314 H   0  0  0  0  0  0  0  0  0  0  0  0
   44.3624   34.6504   46.7850 H   0  0  0  0  0  0  0  0  0  0  0  0
  1  2  2  0
  2 17  1  0
  2  3  1  0
  4  3  2  0
  5  4  1  0
  6  1  1  0
  6  5  2  0
  7 12  2  0
  8  7  1  0
  9  8  2  0
  9 10  1  0
 10 11  2  0
 11 12  1  0
 11  1  1  0
 13 16  1  0
 13  9  1  0
 14 13  1  0
 15 13  1  0
  3 18  1  0
  4 19  1  0
  5 20  1  0
  7 21  1  0
  8 22  1  0
 14 23  1  0
 14 24  1  0
 14 25  1  0
 15 26  1  0
 15 27  1  0
 15 28  1  0
 16 29  1  0
 16 30  1  0
 16 31  1  0
 17 32  1  0
 17 33  1  0
M  ISO  8  18  14  19  14  20  14  21  14  22  14  23   8  24   8  25   8
M  ISO  6  26   8  27   8  28   8  29   8  30   8  31   8
M  END
>  <minimizedAffinity>  (1) 
-6.28074169

>  <minimizedRMSD>  (1) 
0.580925703

$$$$
