
     RDKit          3D

 23 25  0  0  0  0  0  0  0  0999 V2000
   46.0690   33.4960   45.5510 N   0  0  0  0  0  0  0  0  0  0  0  0
   45.1590   34.4690   45.3040 C   0  0  0  0  0  0  0  0  0  0  0  0
   45.4070   34.9780   44.0850 N   0  0  0  0  0  0  0  0  0  0  0  0
   46.4680   34.3280   43.5660 C   0  0  0  0  0  0  0  0  0  0  0  0
   46.8590   33.4240   44.4800 N   0  0  0  0  0  0  0  0  0  0  0  0
   45.3550   32.8100   47.7530 C   0  0  0  0  0  0  0  0  0  0  0  0
   46.2490   32.6470   46.6900 C   0  0  0  0  0  0  0  0  0  0  0  0
   47.2420   31.6880   46.8020 C   0  0  0  0  0  0  0  0  0  0  0  0
   47.2910   30.9580   47.9400 N   0  0  0  0  0  0  0  0  0  0  0  0
   46.4270   31.1220   48.9530 C   0  0  0  0  0  0  0  0  0  0  0  0
   45.4710   32.0480   48.8410 N   0  0  0  0  0  0  0  0  0  0  0  0
   47.1320   34.5040   42.2760 C   0  0  0  0  0  0  0  0  0  0  0  0
   48.2390   35.3180   42.0510 C   0  0  0  0  0  0  0  0  0  0  0  0
   48.5800   35.2280   40.7150 C   0  0  0  0  0  0  0  0  0  0  0  0
   47.6550   34.3520   40.1750 C   0  0  0  0  0  0  0  0  0  0  0  0
   46.8390   33.9610   41.1160 O   0  0  0  0  0  0  0  0  0  0  0  0
   44.3554   34.7876   45.9842 H   0  0  0  0  0  0  0  0  0  0  0  0
   44.5577   33.5653   47.6917 H   0  0  0  0  0  0  0  0  0  0  0  0
   47.9677   31.5251   45.9915 H   0  0  0  0  0  0  0  0  0  0  0  0
   46.5045   30.5046   49.8601 H   0  0  0  0  0  0  0  0  0  0  0  0
   48.7540   35.9284   42.8075 H   0  0  0  0  0  0  0  0  0  0  0  0
   49.4040   35.7393   40.1959 H   0  0  0  0  0  0  0  0  0  0  0  0
   47.6138   34.0359   39.1222 H   0  0  0  0  0  0  0  0  0  0  0  0
  1  7  1  0
  2  1  1  0
  3  2  2  0
  4  3  1  0
  4  5  2  0
  5  1  1  0
  6 11  2  0
  7  8  2  0
  7  6  1  0
  8  9  1  0
  9 10  2  0
 11 10  1  0
 12  4  1  0
 13 12  2  0
 14 13  1  0
 15 14  2  0
 15 16  1  0
 16 12  1  0
  2 17  1  0
  6 18  1  0
  8 19  1  0
 10 20  1  0
 13 21  1  0
 14 22  1  0
 15 23  1  0
M  ISO  7  17  14  18  14  19  14  20  14  21  14  22  14  23  14
M  END
>  <minimizedAffinity>  (1) 
-5.03036261

>  <minimizedRMSD>  (1) 
5.01638365

$$$$
