
     RDKit          3D

 38 40  0  0  0  0  0  0  0  0999 V2000
   44.6140   35.8050   44.3490 C   0  0  0  0  0  0  0  0  0  0  0  0
   45.0790   35.6100   43.0390 C   0  0  0  0  0  0  0  0  0  0  0  0
   45.8950   34.5220   42.8030 C   0  0  0  0  0  0  0  0  0  0  0  0
   46.2260   33.6810   43.8260 N   0  0  0  0  0  0  0  0  0  0  0  0
   45.7420   33.9200   45.0900 C   0  0  0  0  0  0  0  0  0  0  0  0
   44.9370   34.9860   45.3390 N   0  0  0  0  0  0  0  0  0  0  0  0
   46.0830   33.0250   46.1820 C   0  0  0  0  0  0  0  0  0  0  0  0
   45.4230   33.1120   47.4020 C   0  0  0  0  0  0  0  0  0  0  0  0
   45.6790   32.3050   48.4780 C   0  0  0  0  0  0  0  0  0  0  0  0
   46.6550   31.3970   48.2420 C   0  0  0  0  0  0  0  0  0  0  0  0
   47.3560   31.2460   47.0670 C   0  0  0  0  0  0  0  0  0  0  0  0
   47.0160   32.0990   46.0710 N   0  0  0  0  0  0  0  0  0  0  0  0
   44.4100   34.1170   47.5210 N   0  0  0  0  0  0  0  0  0  0  0  0
   46.3860   34.3040   41.4290 C   0  0  0  0  0  0  0  0  0  0  0  0
   47.7190   34.9210   41.1810 C   0  0  0  0  0  0  0  0  0  0  0  0
   48.8340   34.0610   41.4210 N   0  0  0  0  0  0  0  0  0  0  0  0
   48.7770   32.8780   40.7450 C   0  0  0  0  0  0  0  0  0  0  0  0
   49.7980   31.9560   40.8920 C   0  0  0  0  0  0  0  0  0  0  0  0
   50.8540   32.2910   41.7410 C   0  0  0  0  0  0  0  0  0  0  0  0
   51.8710   31.2910   41.8440 N   0  0  0  0  0  0  0  0  0  0  0  0
   50.8790   33.4820   42.4030 N   0  0  0  0  0  0  0  0  0  0  0  0
   49.8660   34.3560   42.2340 C   0  0  0  0  0  0  0  0  0  0  0  0
   49.8690   35.4600   42.8330 O   0  0  0  0  0  0  0  0  0  0  0  0
   43.9610   36.6647   44.5602 H   0  0  0  0  0  0  0  0  0  0  0  0
   44.8027   36.3004   42.2285 H   0  0  0  0  0  0  0  0  0  0  0  0
   45.1459   32.3862   49.4367 H   0  0  0  0  0  0  0  0  0  0  0  0
   46.9120   30.7159   49.0667 H   0  0  0  0  0  0  0  0  0  0  0  0
   48.1397   30.4838   46.9450 H   0  0  0  0  0  0  0  0  0  0  0  0
   43.8911   34.2231   48.4044 H   0  0  0  0  0  0  0  0  0  0  0  0
   44.2003   34.7338   46.7232 H   0  0  0  0  0  0  0  0  0  0  0  0
   46.4630   33.2210   41.2522 H   0  0  0  0  0  0  0  0  0  0  0  0
   45.6701   34.7827   40.7446 H   0  0  0  0  0  0  0  0  0  0  0  0
   47.8168   35.7984   41.8372 H   0  0  0  0  0  0  0  0  0  0  0  0
   47.7482   35.1724   40.1105 H   0  0  0  0  0  0  0  0  0  0  0  0
   47.9239   32.6580   40.0864 H   0  0  0  0  0  0  0  0  0  0  0  0
   49.7783   30.9939   40.3591 H   0  0  0  0  0  0  0  0  0  0  0  0
   52.6901   31.4498   42.4479 H   0  0  0  0  0  0  0  0  0  0  0  0
   51.7844   30.4119   41.3142 H   0  0  0  0  0  0  0  0  0  0  0  0
  1  6  2  0
  2  1  1  0
  3  2  2  0
  3  4  1  0
  4  5  2  0
  5  6  1  0
  5  7  1  0
  7  8  2  0
  8 13  1  0
  8  9  1  0
 10  9  2  0
 11 10  1  0
 12  7  1  0
 12 11  2  0
 14  3  1  0
 15 16  1  0
 15 14  1  0
 16 22  1  0
 17 18  2  0
 17 16  1  0
 18 19  1  0
 19 20  1  0
 19 21  2  0
 22 21  1  0
 22 23  2  0
  1 24  1  0
  2 25  1  0
  9 26  1  0
 10 27  1  0
 11 28  1  0
 13 29  1  0
 13 30  1  0
 14 31  1  0
 14 32  1  0
 15 33  1  0
 15 34  1  0
 17 35  1  0
 18 36  1  0
 20 37  1  0
 20 38  1  0
M  ISO  8  24  14  25  14  26  14  27  14  28  14  31   8  32   8  33   8
M  ISO  3  34   8  35  14  36  14
M  END
>  <minimizedAffinity>  (1) 
-6.88522911

>  <minimizedRMSD>  (1) 
1.42957592

$$$$
