
     RDKit          3D

 37 39  0  0  0  0  0  0  0  0999 V2000
   44.5170   35.8600   44.5480 C   0  0  0  0  0  0  0  0  0  0  0  0
   44.6440   35.5530   43.1950 C   0  0  0  0  0  0  0  0  0  0  0  0
   45.2260   34.3370   42.8600 C   0  0  0  0  0  0  0  0  0  0  0  0
   45.6490   33.4970   43.8550 N   0  0  0  0  0  0  0  0  0  0  0  0
   45.4980   33.8540   45.1730 C   0  0  0  0  0  0  0  0  0  0  0  0
   44.9290   35.0420   45.5050 N   0  0  0  0  0  0  0  0  0  0  0  0
   45.9350   32.9630   46.2290 C   0  0  0  0  0  0  0  0  0  0  0  0
   45.3680   33.0210   47.4980 C   0  0  0  0  0  0  0  0  0  0  0  0
   45.7170   32.2130   48.5440 C   0  0  0  0  0  0  0  0  0  0  0  0
   46.7050   31.3160   48.2190 C   0  0  0  0  0  0  0  0  0  0  0  0
   47.3140   31.2030   46.9810 C   0  0  0  0  0  0  0  0  0  0  0  0
   46.8780   32.0580   46.0360 N   0  0  0  0  0  0  0  0  0  0  0  0
   44.3560   34.0020   47.6950 N   0  0  0  0  0  0  0  0  0  0  0  0
   45.3580   34.0010   41.4360 C   0  0  0  0  0  0  0  0  0  0  0  0
   46.4810   33.0450   41.1770 C   0  0  0  0  0  0  0  0  0  0  0  0
   47.7310   33.7740   41.6000 C   0  0  0  0  0  0  0  0  0  0  0  0
   48.7250   33.2110   42.3770 C   0  0  0  0  0  0  0  0  0  0  0  0
   49.8280   33.9760   42.7040 C   0  0  0  0  0  0  0  0  0  0  0  0
   49.9850   35.2890   42.2850 C   0  0  0  0  0  0  0  0  0  0  0  0
   49.0080   35.8780   41.5070 C   0  0  0  0  0  0  0  0  0  0  0  0
   47.9150   35.0990   41.1910 C   0  0  0  0  0  0  0  0  0  0  0  0
   44.0572   36.8180   44.8323 H   0  0  0  0  0  0  0  0  0  0  0  0
   44.2953   36.2498   42.4185 H   0  0  0  0  0  0  0  0  0  0  0  0
   45.2554   32.2747   49.5405 H   0  0  0  0  0  0  0  0  0  0  0  0
   47.0409   30.6290   49.0097 H   0  0  0  0  0  0  0  0  0  0  0  0
   48.1030   30.4628   46.7819 H   0  0  0  0  0  0  0  0  0  0  0  0
   43.8989   34.0931   48.6135 H   0  0  0  0  0  0  0  0  0  0  0  0
   44.0807   34.6209   46.9191 H   0  0  0  0  0  0  0  0  0  0  0  0
   44.4184   33.5438   41.0923 H   0  0  0  0  0  0  0  0  0  0  0  0
   45.5766   34.9310   40.8907 H   0  0  0  0  0  0  0  0  0  0  0  0
   46.3506   32.1279   41.7703 H   0  0  0  0  0  0  0  0  0  0  0  0
   46.5229   32.7385   40.1214 H   0  0  0  0  0  0  0  0  0  0  0  0
   48.6398   32.1723   42.7290 H   0  0  0  0  0  0  0  0  0  0  0  0
   50.6163   33.5240   43.3239 H   0  0  0  0  0  0  0  0  0  0  0  0
   50.8823   35.8575   42.5708 H   0  0  0  0  0  0  0  0  0  0  0  0
   49.0972   36.9169   41.1568 H   0  0  0  0  0  0  0  0  0  0  0  0
   47.1286   35.5537   40.5706 H   0  0  0  0  0  0  0  0  0  0  0  0
  1  6  2  0
  2  1  1  0
  3  2  2  0
  3  4  1  0
  4  5  2  0
  5  6  1  0
  5  7  1  0
  7  8  2  0
  8 13  1  0
  8  9  1  0
 10  9  2  0
 11 10  1  0
 12  7  1  0
 12 11  2  0
 14  3  1  0
 15 14  1  0
 15 16  1  0
 16 17  2  0
 17 18  1  0
 19 18  2  0
 20 19  1  0
 21 20  2  0
 21 16  1  0
  1 22  1  0
  2 23  1  0
  9 24  1  0
 10 25  1  0
 11 26  1  0
 13 27  1  0
 13 28  1  0
 14 29  1  0
 14 30  1  0
 15 31  1  0
 15 32  1  0
 17 33  1  0
 18 34  1  0
 19 35  1  0
 20 36  1  0
 21 37  1  0
M  ISO  8  22  14  23  14  24  14  25  14  26  14  29   8  30   8  31   8
M  ISO  6  32   8  33  14  34  14  35  14  36  14  37  14
M  END
>  <minimizedAffinity>  (1) 
-6.7922821

>  <minimizedRMSD>  (1) 
2.36506271

$$$$
