
     RDKit          3D

 38 41  0  0  0  0  0  0  0  0999 V2000
   44.5650   35.8460   44.5760 C   0  0  0  0  0  0  0  0  0  0  0  0
   45.0900   35.7770   43.2920 C   0  0  0  0  0  0  0  0  0  0  0  0
   45.9730   34.7450   43.0120 C   0  0  0  0  0  0  0  0  0  0  0  0
   46.2830   33.8520   44.0000 N   0  0  0  0  0  0  0  0  0  0  0  0
   45.7410   33.9620   45.2430 C   0  0  0  0  0  0  0  0  0  0  0  0
   44.8790   34.9690   45.5180 N   0  0  0  0  0  0  0  0  0  0  0  0
   46.0740   33.0120   46.2780 C   0  0  0  0  0  0  0  0  0  0  0  0
   45.4060   33.0190   47.4950 C   0  0  0  0  0  0  0  0  0  0  0  0
   45.6530   32.1550   48.5250 C   0  0  0  0  0  0  0  0  0  0  0  0
   46.6360   31.2650   48.2490 C   0  0  0  0  0  0  0  0  0  0  0  0
   47.3510   31.1890   47.0640 C   0  0  0  0  0  0  0  0  0  0  0  0
   47.0130   32.0970   46.1230 N   0  0  0  0  0  0  0  0  0  0  0  0
   44.3790   34.0170   47.6680 N   0  0  0  0  0  0  0  0  0  0  0  0
   46.5520   34.6410   41.6560 C   0  0  0  0  0  0  0  0  0  0  0  0
   47.9150   35.2260   41.5460 C   0  0  0  0  0  0  0  0  0  0  0  0
   48.9940   34.3000   41.6640 N   0  0  0  0  0  0  0  0  0  0  0  0
   49.9520   34.3900   42.6340 C   0  0  0  0  0  0  0  0  0  0  0  0
   50.8520   33.3850   42.5100 N   0  0  0  0  0  0  0  0  0  0  0  0
   50.5000   32.6200   41.4600 C   0  0  0  0  0  0  0  0  0  0  0  0
   51.0070   31.4880   40.8530 C   0  0  0  0  0  0  0  0  0  0  0  0
   50.3830   30.9620   39.7780 N   0  0  0  0  0  0  0  0  0  0  0  0
   49.2570   31.5490   39.2940 C   0  0  0  0  0  0  0  0  0  0  0  0
   48.7660   32.6650   39.9000 N   0  0  0  0  0  0  0  0  0  0  0  0
   49.3720   33.2060   40.9750 C   0  0  0  0  0  0  0  0  0  0  0  0
   43.8636   36.6576   44.8194 H   0  0  0  0  0  0  0  0  0  0  0  0
   44.8150   36.5151   42.5241 H   0  0  0  0  0  0  0  0  0  0  0  0
   45.1089   32.1800   49.4807 H   0  0  0  0  0  0  0  0  0  0  0  0
   46.8893   30.5382   49.0348 H   0  0  0  0  0  0  0  0  0  0  0  0
   48.1400   30.4401   46.9010 H   0  0  0  0  0  0  0  0  0  0  0  0
   43.8525   34.0663   48.5519 H   0  0  0  0  0  0  0  0  0  0  0  0
   44.1722   34.6803   46.9076 H   0  0  0  0  0  0  0  0  0  0  0  0
   46.6066   33.5772   41.3814 H   0  0  0  0  0  0  0  0  0  0  0  0
   45.8990   35.2134   40.9808 H   0  0  0  0  0  0  0  0  0  0  0  0
   47.9950   35.7158   40.5643 H   0  0  0  0  0  0  0  0  0  0  0  0
   48.0161   35.9162   42.3965 H   0  0  0  0  0  0  0  0  0  0  0  0
   49.9876   35.1704   43.4084 H   0  0  0  0  0  0  0  0  0  0  0  0
   51.9193   31.0150   41.2455 H   0  0  0  0  0  0  0  0  0  0  0  0
   48.7451   31.1249   38.4176 H   0  0  0  0  0  0  0  0  0  0  0  0
  1  6  2  0
  2  1  1  0
  3  2  2  0
  3  4  1  0
  4  5  2  0
  5  6  1  0
  5  7  1  0
  7  8  2  0
  8 13  1  0
  8  9  1  0
 10  9  2  0
 11 10  1  0
 12  7  1  0
 12 11  2  0
 14  3  1  0
 15 14  1  0
 15 16  1  0
 16 17  1  0
 18 17  2  0
 19 18  1  0
 20 19  2  0
 21 20  1  0
 22 21  2  0
 22 23  1  0
 23 24  2  0
 24 19  1  0
 24 16  1  0
  1 25  1  0
  2 26  1  0
  9 27  1  0
 10 28  1  0
 11 29  1  0
 13 30  1  0
 13 31  1  0
 14 32  1  0
 14 33  1  0
 15 34  1  0
 15 35  1  0
 17 36  1  0
 20 37  1  0
 22 38  1  0
M  ISO  8  25  14  26  14  27  14  28  14  29  14  32   8  33   8  34   8
M  ISO  4  35   8  36  14  37  14  38  14
M  END
>  <minimizedAffinity>  (1) 
-6.83307695

>  <minimizedRMSD>  (1) 
1.62844038

$$$$
