
     RDKit          3D

 34 36  0  0  0  0  0  0  0  0999 V2000
   44.6010   35.7920   44.5220 C   0  0  0  0  0  0  0  0  0  0  0  0
   45.2220   35.7580   43.2780 C   0  0  0  0  0  0  0  0  0  0  0  0
   46.1650   34.7630   43.0490 C   0  0  0  0  0  0  0  0  0  0  0  0
   46.4350   33.8730   44.0460 N   0  0  0  0  0  0  0  0  0  0  0  0
   45.7950   33.9500   45.2580 C   0  0  0  0  0  0  0  0  0  0  0  0
   44.8790   34.9180   45.4790 N   0  0  0  0  0  0  0  0  0  0  0  0
   46.0800   33.0070   46.3180 C   0  0  0  0  0  0  0  0  0  0  0  0
   45.3930   33.0330   47.5090 C   0  0  0  0  0  0  0  0  0  0  0  0
   45.6180   32.1640   48.5550 C   0  0  0  0  0  0  0  0  0  0  0  0
   46.5960   31.2630   48.3010 C   0  0  0  0  0  0  0  0  0  0  0  0
   47.3310   31.1690   47.1380 C   0  0  0  0  0  0  0  0  0  0  0  0
   47.0290   32.0720   46.1750 N   0  0  0  0  0  0  0  0  0  0  0  0
   44.3820   34.0370   47.6450 N   0  0  0  0  0  0  0  0  0  0  0  0
   46.8230   34.7240   41.7330 C   0  0  0  0  0  0  0  0  0  0  0  0
   48.1720   35.4090   41.7540 C   0  0  0  0  0  0  0  0  0  0  0  0
   49.2800   34.4720   41.9550 C   0  0  0  0  0  0  0  0  0  0  0  0
   49.2750   33.1800   41.4210 C   0  0  0  0  0  0  0  0  0  0  0  0
   50.4710   32.6200   41.8230 C   0  0  0  0  0  0  0  0  0  0  0  0
   51.1520   33.5340   42.5590 N   0  0  0  0  0  0  0  0  0  0  0  0
   50.4320   34.6390   42.6320 N   0  0  0  0  0  0  0  0  0  0  0  0
   43.8517   36.5728   44.7189 H   0  0  0  0  0  0  0  0  0  0  0  0
   44.9747   36.4952   42.5000 H   0  0  0  0  0  0  0  0  0  0  0  0
   45.0588   32.1991   49.5016 H   0  0  0  0  0  0  0  0  0  0  0  0
   46.8257   30.5386   49.0962 H   0  0  0  0  0  0  0  0  0  0  0  0
   48.1136   30.4082   47.0011 H   0  0  0  0  0  0  0  0  0  0  0  0
   43.8358   34.1032   48.5157 H   0  0  0  0  0  0  0  0  0  0  0  0
   44.2007   34.6933   46.8721 H   0  0  0  0  0  0  0  0  0  0  0  0
   46.1790   35.2300   40.9987 H   0  0  0  0  0  0  0  0  0  0  0  0
   46.9813   33.6694   41.4631 H   0  0  0  0  0  0  0  0  0  0  0  0
   48.3187   35.9264   40.7944 H   0  0  0  0  0  0  0  0  0  0  0  0
   48.1741   36.1117   42.6003 H   0  0  0  0  0  0  0  0  0  0  0  0
   48.4881   32.7110   40.8121 H   0  0  0  0  0  0  0  0  0  0  0  0
   50.8147   31.6023   41.5861 H   0  0  0  0  0  0  0  0  0  0  0  0
   52.0767   33.3901   42.9893 H   0  0  0  0  0  0  0  0  0  0  0  0
  1  6  2  0
  2  1  1  0
  3  2  2  0
  3  4  1  0
  4  5  2  0
  5  6  1  0
  5  7  1  0
  7  8  2  0
  8 13  1  0
  8  9  1  0
 10  9  2  0
 11 10  1  0
 12  7  1  0
 12 11  2  0
 14 15  1  0
 14  3  1  0
 15 16  1  0
 16 20  2  0
 17 18  2  0
 17 16  1  0
 18 19  1  0
 19 20  1  0
  1 21  1  0
  2 22  1  0
  9 23  1  0
 10 24  1  0
 11 25  1  0
 13 26  1  0
 13 27  1  0
 14 28  1  0
 14 29  1  0
 15 30  1  0
 15 31  1  0
 17 32  1  0
 18 33  1  0
 19 34  1  0
M  ISO  8  21  14  22  14  23  14  24  14  25  14  28   8  29   8  30   8
M  ISO  4  31   8  32  14  33  14  34   9
M  END
>  <minimizedAffinity>  (1) 
-6.94339991

>  <minimizedRMSD>  (1) 
0.789746344

$$$$
