
     RDKit          3D

 41 43  0  0  0  0  0  0  0  0999 V2000
   44.6550   35.9390   44.2550 C   0  0  0  0  0  0  0  0  0  0  0  0
   45.3200   35.8300   43.0290 C   0  0  0  0  0  0  0  0  0  0  0  0
   46.2380   34.7990   42.8670 C   0  0  0  0  0  0  0  0  0  0  0  0
   46.4420   33.9500   43.9080 N   0  0  0  0  0  0  0  0  0  0  0  0
   45.7820   34.0770   45.0920 C   0  0  0  0  0  0  0  0  0  0  0  0
   44.8850   35.0840   45.2500 N   0  0  0  0  0  0  0  0  0  0  0  0
   46.0100   33.1740   46.1890 C   0  0  0  0  0  0  0  0  0  0  0  0
   45.2740   33.2540   47.3530 C   0  0  0  0  0  0  0  0  0  0  0  0
   45.4680   32.4060   48.4240 C   0  0  0  0  0  0  0  0  0  0  0  0
   46.4410   31.4830   48.2450 C   0  0  0  0  0  0  0  0  0  0  0  0
   47.2080   31.3450   47.1250 C   0  0  0  0  0  0  0  0  0  0  0  0
   46.9370   32.2230   46.1390 N   0  0  0  0  0  0  0  0  0  0  0  0
   44.2780   34.2710   47.4120 N   0  0  0  0  0  0  0  0  0  0  0  0
   46.9300   34.7010   41.5730 C   0  0  0  0  0  0  0  0  0  0  0  0
   46.9670   33.2880   41.0530 C   0  0  0  0  0  0  0  0  0  0  0  0
   47.6020   33.1950   39.7810 N   0  0  0  0  0  0  0  0  0  0  0  0
   46.9150   32.3770   38.8450 C   0  0  0  0  0  0  0  0  0  0  0  0
   46.2390   33.1420   37.7250 C   0  0  0  0  0  0  0  0  0  0  0  0
   47.0740   34.1510   37.1460 N   0  0  0  0  0  0  0  0  0  0  0  0
   48.3410   34.3290   37.8270 C   0  0  0  0  0  0  0  0  0  0  0  0
   48.0690   34.4560   39.3140 C   0  0  0  0  0  0  0  0  0  0  0  0
   43.9255   36.7493   44.4005 H   0  0  0  0  0  0  0  0  0  0  0  0
   45.1215   36.5419   42.2142 H   0  0  0  0  0  0  0  0  0  0  0  0
   44.8783   32.4749   49.3500 H   0  0  0  0  0  0  0  0  0  0  0  0
   46.6298   30.7841   49.0732 H   0  0  0  0  0  0  0  0  0  0  0  0
   47.9885   30.5753   47.0337 H   0  0  0  0  0  0  0  0  0  0  0  0
   43.6989   34.3763   48.2573 H   0  0  0  0  0  0  0  0  0  0  0  0
   44.1370   34.9010   46.6094 H   0  0  0  0  0  0  0  0  0  0  0  0
   46.4055   35.3338   40.8420 H   0  0  0  0  0  0  0  0  0  0  0  0
   47.9681   35.0342   41.7192 H   0  0  0  0  0  0  0  0  0  0  0  0
   47.5183   32.6618   41.7699 H   0  0  0  0  0  0  0  0  0  0  0  0
   45.9281   32.9460   40.9356 H   0  0  0  0  0  0  0  0  0  0  0  0
   47.6405   31.6814   38.3979 H   0  0  0  0  0  0  0  0  0  0  0  0
   46.1171   31.8638   39.4018 H   0  0  0  0  0  0  0  0  0  0  0  0
   45.9546   32.4292   36.9370 H   0  0  0  0  0  0  0  0  0  0  0  0
   45.3649   33.6504   38.1580 H   0  0  0  0  0  0  0  0  0  0  0  0
   47.2656   33.8910   36.1679 H   0  0  0  0  0  0  0  0  0  0  0  0
   48.9889   33.4599   37.6403 H   0  0  0  0  0  0  0  0  0  0  0  0
   48.8470   35.2324   37.4558 H   0  0  0  0  0  0  0  0  0  0  0  0
   48.9944   34.7308   39.8414 H   0  0  0  0  0  0  0  0  0  0  0  0
   47.3175   35.2371   39.5014 H   0  0  0  0  0  0  0  0  0  0  0  0
  1  6  2  0
  2  1  1  0
  3  2  2  0
  3  4  1  0
  4  5  2  0
  5  6  1  0
  5  7  1  0
  7  8  2  0
  8 13  1  0
  8  9  1  0
 10  9  2  0
 11 10  1  0
 12  7  1  0
 12 11  2  0
 14  3  1  0
 15 14  1  0
 16 15  1  0
 17 16  1  0
 18 17  1  0
 19 18  1  0
 19 20  1  0
 20 21  1  0
 21 16  1  0
  1 22  1  0
  2 23  1  0
  9 24  1  0
 10 25  1  0
 11 26  1  0
 13 27  1  0
 13 28  1  0
 14 29  1  0
 14 30  1  0
 15 31  1  0
 15 32  1  0
 17 33  1  0
 17 34  1  0
 18 35  1  0
 18 36  1  0
 19 37  1  0
 20 38  1  0
 20 39  1  0
 21 40  1  0
 21 41  1  0
M  ISO  8  22  14  23  14  24  14  25  14  26  14  29   8  30   8  31   8
M  ISO  8  32   8  33  13  34  13  35  13  36  13  37   5  38  13  39  13
M  ISO  2  40  13  41  13
M  END
>  <minimizedAffinity>  (1) 
-6.47347879

>  <minimizedRMSD>  (1) 
1.4263525

$$$$
