
     RDKit          3D

 34 36  0  0  0  0  0  0  0  0999 V2000
   44.5690   35.8180   44.5480 C   0  0  0  0  0  0  0  0  0  0  0  0
   45.2230   35.8050   43.3020 C   0  0  0  0  0  0  0  0  0  0  0  0
   46.1760   34.8330   43.0740 C   0  0  0  0  0  0  0  0  0  0  0  0
   46.4400   33.9320   44.0670 N   0  0  0  0  0  0  0  0  0  0  0  0
   45.7940   33.9700   45.2560 C   0  0  0  0  0  0  0  0  0  0  0  0
   44.8570   34.9200   45.4890 N   0  0  0  0  0  0  0  0  0  0  0  0
   46.0880   33.0070   46.2920 C   0  0  0  0  0  0  0  0  0  0  0  0
   45.3890   33.0250   47.4980 C   0  0  0  0  0  0  0  0  0  0  0  0
   45.6150   32.1370   48.5240 C   0  0  0  0  0  0  0  0  0  0  0  0
   46.5940   31.2280   48.2570 C   0  0  0  0  0  0  0  0  0  0  0  0
   47.3140   31.1570   47.0970 C   0  0  0  0  0  0  0  0  0  0  0  0
   47.0140   32.0770   46.1500 N   0  0  0  0  0  0  0  0  0  0  0  0
   44.3850   34.0250   47.6640 N   0  0  0  0  0  0  0  0  0  0  0  0
   46.8590   34.8210   41.7650 C   0  0  0  0  0  0  0  0  0  0  0  0
   48.2200   35.4400   41.8260 C   0  0  0  0  0  0  0  0  0  0  0  0
   49.2100   34.3290   41.8280 C   0  0  0  0  0  0  0  0  0  0  0  0
   49.2360   33.1230   41.1600 C   0  0  0  0  0  0  0  0  0  0  0  0
   50.3610   32.4500   41.4960 N   0  0  0  0  0  0  0  0  0  0  0  0
   51.0280   33.2440   42.3730 C   0  0  0  0  0  0  0  0  0  0  0  0
   50.3290   34.3920   42.5790 N   0  0  0  0  0  0  0  0  0  0  0  0
   43.8056   36.5841   44.7488 H   0  0  0  0  0  0  0  0  0  0  0  0
   44.9810   36.5501   42.5299 H   0  0  0  0  0  0  0  0  0  0  0  0
   45.0572   32.1588   49.4718 H   0  0  0  0  0  0  0  0  0  0  0  0
   46.8242   30.4901   49.0396 H   0  0  0  0  0  0  0  0  0  0  0  0
   48.0927   30.3958   46.9419 H   0  0  0  0  0  0  0  0  0  0  0  0
   43.8456   34.0728   48.5402 H   0  0  0  0  0  0  0  0  0  0  0  0
   44.1996   34.6992   46.9077 H   0  0  0  0  0  0  0  0  0  0  0  0
   46.2479   35.3819   41.0425 H   0  0  0  0  0  0  0  0  0  0  0  0
   46.9814   33.7712   41.4602 H   0  0  0  0  0  0  0  0  0  0  0  0
   48.3799   36.0855   40.9498 H   0  0  0  0  0  0  0  0  0  0  0  0
   48.3268   36.0593   42.7288 H   0  0  0  0  0  0  0  0  0  0  0  0
   48.4638   32.7644   40.4635 H   0  0  0  0  0  0  0  0  0  0  0  0
   51.9896   32.9956   42.8458 H   0  0  0  0  0  0  0  0  0  0  0  0
   50.6040   35.1690   43.1966 H   0  0  0  0  0  0  0  0  0  0  0  0
  1  6  2  0
  2  1  1  0
  3  2  2  0
  3  4  1  0
  4  5  2  0
  5  6  1  0
  5  7  1  0
  7  8  2  0
  8 13  1  0
  8  9  1  0
 10  9  2  0
 11 10  1  0
 12  7  1  0
 12 11  2  0
 14 15  1  0
 14  3  1  0
 15 16  1  0
 16 20  1  0
 17 18  1  0
 17 16  2  0
 18 19  2  0
 19 20  1  0
  1 21  1  0
  2 22  1  0
  9 23  1  0
 10 24  1  0
 11 25  1  0
 13 26  1  0
 13 27  1  0
 14 28  1  0
 14 29  1  0
 15 30  1  0
 15 31  1  0
 17 32  1  0
 19 33  1  0
 20 34  1  0
M  ISO  8  21  14  22  14  23  14  24  14  25  14  28   8  29   8  30   8
M  ISO  4  31   8  32  14  33  14  34   9
M  END
>  <minimizedAffinity>  (1) 
-6.74759054

>  <minimizedRMSD>  (1) 
0.965210021

$$$$
