
     RDKit          3D

 34 36  0  0  0  0  0  0  0  0999 V2000
   44.5690   35.8760   44.5700 C   0  0  0  0  0  0  0  0  0  0  0  0
   45.1500   35.8510   43.3080 C   0  0  0  0  0  0  0  0  0  0  0  0
   46.0590   34.8470   43.0350 C   0  0  0  0  0  0  0  0  0  0  0  0
   46.3410   33.9370   44.0100 N   0  0  0  0  0  0  0  0  0  0  0  0
   45.7500   33.9910   45.2450 C   0  0  0  0  0  0  0  0  0  0  0  0
   44.8580   34.9790   45.5090 N   0  0  0  0  0  0  0  0  0  0  0  0
   46.0530   33.0230   46.2750 C   0  0  0  0  0  0  0  0  0  0  0  0
   45.3760   33.0340   47.4800 C   0  0  0  0  0  0  0  0  0  0  0  0
   45.6360   32.1280   48.4890 C   0  0  0  0  0  0  0  0  0  0  0  0
   46.6050   31.2260   48.2030 C   0  0  0  0  0  0  0  0  0  0  0  0
   47.3090   31.1660   47.0250 C   0  0  0  0  0  0  0  0  0  0  0  0
   46.9830   32.0970   46.1000 N   0  0  0  0  0  0  0  0  0  0  0  0
   44.3790   34.0350   47.6540 N   0  0  0  0  0  0  0  0  0  0  0  0
   46.6840   34.8060   41.7010 C   0  0  0  0  0  0  0  0  0  0  0  0
   48.1060   35.3220   41.7360 C   0  0  0  0  0  0  0  0  0  0  0  0
   49.0750   34.2670   41.7320 N   0  0  0  0  0  0  0  0  0  0  0  0
   49.1120   33.1290   41.0550 N   0  0  0  0  0  0  0  0  0  0  0  0
   50.2210   32.4460   41.3750 C   0  0  0  0  0  0  0  0  0  0  0  0
   50.9390   33.1740   42.3030 C   0  0  0  0  0  0  0  0  0  0  0  0
   50.1870   34.3320   42.5150 C   0  0  0  0  0  0  0  0  0  0  0  0
   43.8419   36.6682   44.8016 H   0  0  0  0  0  0  0  0  0  0  0  0
   44.8944   36.6065   42.5505 H   0  0  0  0  0  0  0  0  0  0  0  0
   45.0988   32.1380   49.4489 H   0  0  0  0  0  0  0  0  0  0  0  0
   46.8477   30.4819   48.9759 H   0  0  0  0  0  0  0  0  0  0  0  0
   48.0874   30.4097   46.8457 H   0  0  0  0  0  0  0  0  0  0  0  0
   43.8470   34.0844   48.5346 H   0  0  0  0  0  0  0  0  0  0  0  0
   44.1896   34.7099   46.8993 H   0  0  0  0  0  0  0  0  0  0  0  0
   46.0951   35.4288   41.0116 H   0  0  0  0  0  0  0  0  0  0  0  0
   46.7060   33.7593   41.3634 H   0  0  0  0  0  0  0  0  0  0  0  0
   48.2724   35.9565   40.8530 H   0  0  0  0  0  0  0  0  0  0  0  0
   48.2325   35.8871   42.6713 H   0  0  0  0  0  0  0  0  0  0  0  0
   50.5109   31.4670   40.9656 H   0  0  0  0  0  0  0  0  0  0  0  0
   51.8953   32.9013   42.7732 H   0  0  0  0  0  0  0  0  0  0  0  0
   50.4482   35.1546   43.1970 H   0  0  0  0  0  0  0  0  0  0  0  0
  1  6  2  0
  2  1  1  0
  3  2  2  0
  3  4  1  0
  4  5  2  0
  5  6  1  0
  5  7  1  0
  7  8  2  0
  8 13  1  0
  8  9  1  0
 10  9  2  0
 11 10  1  0
 12  7  1  0
 12 11  2  0
 14 15  1  0
 14  3  1  0
 16 15  1  0
 16 20  1  0
 17 18  2  0
 17 16  1  0
 18 19  1  0
 19 20  2  0
  1 21  1  0
  2 22  1  0
  9 23  1  0
 10 24  1  0
 11 25  1  0
 13 26  1  0
 13 27  1  0
 14 28  1  0
 14 29  1  0
 15 30  1  0
 15 31  1  0
 18 32  1  0
 19 33  1  0
 20 34  1  0
M  ISO  8  21  14  22  14  23  14  24  14  25  14  28   8  29   8  30   8
M  ISO  4  31   8  32  14  33  14  34  14
M  END
>  <minimizedAffinity>  (1) 
-6.50680923

>  <minimizedRMSD>  (1) 
1.02692354

$$$$
