
     RDKit          3D

 40 43  0  0  0  0  0  0  0  0999 V2000
   44.5780   35.8050   44.5800 C   0  0  0  0  0  0  0  0  0  0  0  0
   45.2020   35.7800   43.3330 C   0  0  0  0  0  0  0  0  0  0  0  0
   46.1480   34.7910   43.0980 C   0  0  0  0  0  0  0  0  0  0  0  0
   46.4250   33.8910   44.0930 N   0  0  0  0  0  0  0  0  0  0  0  0
   45.7840   33.9570   45.3030 C   0  0  0  0  0  0  0  0  0  0  0  0
   44.8650   34.9180   45.5320 N   0  0  0  0  0  0  0  0  0  0  0  0
   46.0940   32.9930   46.3350 C   0  0  0  0  0  0  0  0  0  0  0  0
   45.3900   33.0100   47.5370 C   0  0  0  0  0  0  0  0  0  0  0  0
   45.6100   32.1370   48.5720 C   0  0  0  0  0  0  0  0  0  0  0  0
   46.5910   31.2410   48.3140 C   0  0  0  0  0  0  0  0  0  0  0  0
   47.3370   31.1580   47.1490 C   0  0  0  0  0  0  0  0  0  0  0  0
   47.0290   32.0720   46.2000 N   0  0  0  0  0  0  0  0  0  0  0  0
   44.3730   34.0110   47.6860 N   0  0  0  0  0  0  0  0  0  0  0  0
   46.8210   34.7510   41.7770 C   0  0  0  0  0  0  0  0  0  0  0  0
   47.1060   33.3300   41.3430 C   0  0  0  0  0  0  0  0  0  0  0  0
   47.4630   33.2020   39.9620 N   0  0  0  0  0  0  0  0  0  0  0  0
   48.7260   33.1260   39.4650 C   0  0  0  0  0  0  0  0  0  0  0  0
   48.6850   33.0110   38.1220 N   0  0  0  0  0  0  0  0  0  0  0  0
   47.3820   33.0120   37.7260 C   0  0  0  0  0  0  0  0  0  0  0  0
   46.7490   32.9250   36.5070 C   0  0  0  0  0  0  0  0  0  0  0  0
   45.4080   32.9580   36.4750 N   0  0  0  0  0  0  0  0  0  0  0  0
   44.6560   33.0730   37.5870 C   0  0  0  0  0  0  0  0  0  0  0  0
   45.3080   33.1560   38.7470 N   0  0  0  0  0  0  0  0  0  0  0  0
   46.6470   33.1310   38.8820 C   0  0  0  0  0  0  0  0  0  0  0  0
   47.5760   32.8040   35.3530 N   0  0  0  0  0  0  0  0  0  0  0  0
   43.8256   36.5810   44.7840 H   0  0  0  0  0  0  0  0  0  0  0  0
   44.9524   36.5210   42.5593 H   0  0  0  0  0  0  0  0  0  0  0  0
   45.0461   32.1626   49.5161 H   0  0  0  0  0  0  0  0  0  0  0  0
   46.8176   30.5095   49.1036 H   0  0  0  0  0  0  0  0  0  0  0  0
   48.1237   30.4026   47.0059 H   0  0  0  0  0  0  0  0  0  0  0  0
   43.8256   34.0634   48.5569 H   0  0  0  0  0  0  0  0  0  0  0  0
   44.1903   34.6772   46.9220 H   0  0  0  0  0  0  0  0  0  0  0  0
   46.1707   35.2294   41.0298 H   0  0  0  0  0  0  0  0  0  0  0  0
   47.7790   35.2849   41.8613 H   0  0  0  0  0  0  0  0  0  0  0  0
   47.9361   32.9425   41.9520 H   0  0  0  0  0  0  0  0  0  0  0  0
   46.1748   32.7618   41.4844 H   0  0  0  0  0  0  0  0  0  0  0  0
   49.6451   33.1541   40.0687 H   0  0  0  0  0  0  0  0  0  0  0  0
   43.5573   33.0972   37.5401 H   0  0  0  0  0  0  0  0  0  0  0  0
   47.1489   32.7357   34.4182 H   0  0  0  0  0  0  0  0  0  0  0  0
   48.6009   32.7848   35.4536 H   0  0  0  0  0  0  0  0  0  0  0  0
  1  6  2  0
  2  1  1  0
  3  2  2  0
  3  4  1  0
  4  5  2  0
  5  6  1  0
  5  7  1  0
  7  8  2  0
  8 13  1  0
  8  9  1  0
 10  9  2  0
 11 10  1  0
 12  7  1  0
 12 11  2  0
 14  3  1  0
 15 14  1  0
 16 15  1  0
 17 16  1  0
 18 17  2  0
 19 18  1  0
 19 24  2  0
 20 19  1  0
 21 20  2  0
 21 22  1  0
 22 23  2  0
 23 24  1  0
 24 16  1  0
 25 20  1  0
  1 26  1  0
  2 27  1  0
  9 28  1  0
 10 29  1  0
 11 30  1  0
 13 31  1  0
 13 32  1  0
 14 33  1  0
 14 34  1  0
 15 35  1  0
 15 36  1  0
 17 37  1  0
 22 38  1  0
 25 39  1  0
 25 40  1  0
M  ISO  8  26  14  27  14  28  14  29  14  30  14  33   8  34   8  35   8
M  ISO  3  36   8  37  14  38  14
M  END
>  <minimizedAffinity>  (1) 
-6.75592661

>  <minimizedRMSD>  (1) 
2.7192297

$$$$
