
     RDKit          3D

 37 39  0  0  0  0  0  0  0  0999 V2000
   44.4910   35.9650   44.7100 C   0  0  0  0  0  0  0  0  0  0  0  0
   44.9320   35.9250   43.3810 C   0  0  0  0  0  0  0  0  0  0  0  0
   45.7610   34.8770   42.9990 C   0  0  0  0  0  0  0  0  0  0  0  0
   46.1100   33.9360   43.9290 N   0  0  0  0  0  0  0  0  0  0  0  0
   45.6580   34.0120   45.2160 C   0  0  0  0  0  0  0  0  0  0  0  0
   44.8490   35.0320   45.5910 N   0  0  0  0  0  0  0  0  0  0  0  0
   46.0270   33.0150   46.1980 C   0  0  0  0  0  0  0  0  0  0  0  0
   45.4220   32.9730   47.4340 C   0  0  0  0  0  0  0  0  0  0  0  0
   45.7270   32.0500   48.4080 C   0  0  0  0  0  0  0  0  0  0  0  0
   46.6950   31.1660   48.0420 C   0  0  0  0  0  0  0  0  0  0  0  0
   47.3470   31.1460   46.8200 C   0  0  0  0  0  0  0  0  0  0  0  0
   46.9660   32.1000   45.9390 N   0  0  0  0  0  0  0  0  0  0  0  0
   44.4240   33.9530   47.6970 N   0  0  0  0  0  0  0  0  0  0  0  0
   46.2250   34.8340   41.6000 C   0  0  0  0  0  0  0  0  0  0  0  0
   47.7270   34.8390   41.5030 C   0  0  0  0  0  0  0  0  0  0  0  0
   48.2410   33.9850   40.4130 C   0  0  0  0  0  0  0  0  0  0  0  0
   48.0380   34.2120   39.0640 C   0  0  0  0  0  0  0  0  0  0  0  0
   48.5520   33.3660   38.1090 C   0  0  0  0  0  0  0  0  0  0  0  0
   49.2910   32.2580   38.4750 C   0  0  0  0  0  0  0  0  0  0  0  0
   49.5420   31.9550   39.8160 C   0  0  0  0  0  0  0  0  0  0  0  0
   48.9860   32.8600   40.6960 C   0  0  0  0  0  0  0  0  0  0  0  0
   43.8340   36.7857   45.0336 H   0  0  0  0  0  0  0  0  0  0  0  0
   44.6310   36.7002   42.6610 H   0  0  0  0  0  0  0  0  0  0  0  0
   45.2342   32.0286   49.3912 H   0  0  0  0  0  0  0  0  0  0  0  0
   46.9842   30.4026   48.7792 H   0  0  0  0  0  0  0  0  0  0  0  0
   48.1231   30.4038   46.5815 H   0  0  0  0  0  0  0  0  0  0  0  0
   43.9410   33.9650   48.6067 H   0  0  0  0  0  0  0  0  0  0  0  0
   44.1847   34.6503   46.9777 H   0  0  0  0  0  0  0  0  0  0  0  0
   45.8417   33.9179   41.1269 H   0  0  0  0  0  0  0  0  0  0  0  0
   45.8489   35.7330   41.0898 H   0  0  0  0  0  0  0  0  0  0  0  0
   48.0628   35.8715   41.3265 H   0  0  0  0  0  0  0  0  0  0  0  0
   48.1176   34.4342   42.4483 H   0  0  0  0  0  0  0  0  0  0  0  0
   47.4528   35.0881   38.7479 H   0  0  0  0  0  0  0  0  0  0  0  0
   48.3728   33.5738   37.0438 H   0  0  0  0  0  0  0  0  0  0  0  0
   49.6918   31.5978   37.6917 H   0  0  0  0  0  0  0  0  0  0  0  0
   50.1259   31.0802   40.1382 H   0  0  0  0  0  0  0  0  0  0  0  0
   49.1597   32.6577   41.7632 H   0  0  0  0  0  0  0  0  0  0  0  0
  1  6  2  0
  2  1  1  0
  3  2  2  0
  3  4  1  0
  4  5  2  0
  5  6  1  0
  5  7  1  0
  7  8  2  0
  8 13  1  0
  8  9  1  0
 10  9  2  0
 11 10  1  0
 12  7  1  0
 12 11  2  0
 14  3  1  0
 15 14  1  0
 16 21  1  0
 16 15  1  0
 17 16  2  0
 18 19  2  0
 18 17  1  0
 19 20  1  0
 20 21  2  0
  1 22  1  0
  2 23  1  0
  9 24  1  0
 10 25  1  0
 11 26  1  0
 13 27  1  0
 13 28  1  0
 14 29  1  0
 14 30  1  0
 15 31  1  0
 15 32  1  0
 17 33  1  0
 18 34  1  0
 19 35  1  0
 20 36  1  0
 21 37  1  0
M  ISO  8  22  14  23  14  24  14  25  14  26  14  29   8  30   8  31   8
M  ISO  6  32   8  33  14  34  14  35  14  36  14  37  14
M  END
>  <minimizedAffinity>  (1) 
-6.41233826

>  <minimizedRMSD>  (1) 
1.37568808

$$$$
