
     RDKit          3D

 40 42  0  0  0  0  0  0  0  0999 V2000
   44.5530   35.8810   44.5860 C   0  0  0  0  0  0  0  0  0  0  0  0
   45.0790   35.7970   43.2950 C   0  0  0  0  0  0  0  0  0  0  0  0
   45.9450   34.7610   43.0140 C   0  0  0  0  0  0  0  0  0  0  0  0
   46.2530   33.8660   44.0010 N   0  0  0  0  0  0  0  0  0  0  0  0
   45.7190   33.9780   45.2560 C   0  0  0  0  0  0  0  0  0  0  0  0
   44.8650   34.9990   45.5300 N   0  0  0  0  0  0  0  0  0  0  0  0
   46.0430   33.0330   46.2960 C   0  0  0  0  0  0  0  0  0  0  0  0
   45.3760   33.0440   47.5030 C   0  0  0  0  0  0  0  0  0  0  0  0
   45.6330   32.1690   48.5390 C   0  0  0  0  0  0  0  0  0  0  0  0
   46.6230   31.2800   48.2610 C   0  0  0  0  0  0  0  0  0  0  0  0
   47.3310   31.2120   47.0800 C   0  0  0  0  0  0  0  0  0  0  0  0
   46.9910   32.1150   46.1420 N   0  0  0  0  0  0  0  0  0  0  0  0
   44.3580   34.0310   47.6650 N   0  0  0  0  0  0  0  0  0  0  0  0
   46.5090   34.6670   41.6520 C   0  0  0  0  0  0  0  0  0  0  0  0
   47.9800   34.4500   41.6490 C   0  0  0  0  0  0  0  0  0  0  0  0
   48.3900   33.0700   41.4930 N   0  0  0  0  0  0  0  0  0  0  0  0
   49.1520   32.8670   40.2760 C   0  0  0  0  0  0  0  0  0  0  0  0
   50.1350   31.7430   40.5340 C   0  0  0  0  0  0  0  0  0  0  0  0
   51.2370   32.1750   41.2720 O   0  0  0  0  0  0  0  0  0  0  0  0
   50.7470   33.1670   42.1370 C   0  0  0  0  0  0  0  0  0  0  0  0
   49.3290   32.8100   42.5910 C   0  0  0  0  0  0  0  0  0  0  0  0
   43.8606   36.7006   44.8285 H   0  0  0  0  0  0  0  0  0  0  0  0
   44.8105   36.5353   42.5250 H   0  0  0  0  0  0  0  0  0  0  0  0
   45.0901   32.1891   49.4955 H   0  0  0  0  0  0  0  0  0  0  0  0
   46.8812   30.5530   49.0451 H   0  0  0  0  0  0  0  0  0  0  0  0
   48.1234   30.4671   46.9150 H   0  0  0  0  0  0  0  0  0  0  0  0
   43.8281   34.0844   48.5466 H   0  0  0  0  0  0  0  0  0  0  0  0
   44.1532   34.6899   46.9003 H   0  0  0  0  0  0  0  0  0  0  0  0
   46.0290   33.8258   41.1305 H   0  0  0  0  0  0  0  0  0  0  0  0
   46.3155   35.6252   41.1475 H   0  0  0  0  0  0  0  0  0  0  0  0
   48.4098   35.0305   40.8194 H   0  0  0  0  0  0  0  0  0  0  0  0
   48.3423   34.7709   42.6368 H   0  0  0  0  0  0  0  0  0  0  0  0
   49.6947   33.7876   40.0151 H   0  0  0  0  0  0  0  0  0  0  0  0
   48.4843   32.6124   39.4397 H   0  0  0  0  0  0  0  0  0  0  0  0
   49.6239   30.9447   41.0922 H   0  0  0  0  0  0  0  0  0  0  0  0
   50.4977   31.3775   39.5620 H   0  0  0  0  0  0  0  0  0  0  0  0
   51.4036   33.2406   43.0164 H   0  0  0  0  0  0  0  0  0  0  0  0
   50.7252   34.1306   41.6069 H   0  0  0  0  0  0  0  0  0  0  0  0
   49.0560   33.4244   43.4616 H   0  0  0  0  0  0  0  0  0  0  0  0
   49.2870   31.7465   42.8687 H   0  0  0  0  0  0  0  0  0  0  0  0
  1  6  2  0
  2  1  1  0
  3  2  2  0
  3  4  1  0
  4  5  2  0
  5  6  1  0
  5  7  1  0
  7  8  2  0
  8 13  1  0
  8  9  1  0
 10  9  2  0
 11 10  1  0
 12  7  1  0
 12 11  2  0
 14  3  1  0
 15 14  1  0
 16 15  1  0
 16 21  1  0
 17 18  1  0
 17 16  1  0
 18 19  1  0
 19 20  1  0
 20 21  1  0
  1 22  1  0
  2 23  1  0
  9 24  1  0
 10 25  1  0
 11 26  1  0
 13 27  1  0
 13 28  1  0
 14 29  1  0
 14 30  1  0
 15 31  1  0
 15 32  1  0
 17 33  1  0
 17 34  1  0
 18 35  1  0
 18 36  1  0
 20 37  1  0
 20 38  1  0
 21 39  1  0
 21 40  1  0
M  ISO  8  22  14  23  14  24  14  25  14  26  14  29   8  30   8  31   8
M  ISO  8  32   8  33  13  34  13  35  13  36  13  37  13  38  13  39  13
M  ISO  1  40  13
M  END
>  <minimizedAffinity>  (1) 
-6.17752218

>  <minimizedRMSD>  (1) 
1.12179112

$$$$
