
     RDKit          3D

 39 41  0  0  0  0  0  0  0  0999 V2000
   44.5740   35.7950   44.5650 C   0  0  0  0  0  0  0  0  0  0  0  0
   45.2180   35.7970   43.3280 C   0  0  0  0  0  0  0  0  0  0  0  0
   46.1780   34.8260   43.1010 C   0  0  0  0  0  0  0  0  0  0  0  0
   46.4460   33.9220   44.0880 N   0  0  0  0  0  0  0  0  0  0  0  0
   45.7950   33.9570   45.2750 C   0  0  0  0  0  0  0  0  0  0  0  0
   44.8560   34.9020   45.5060 N   0  0  0  0  0  0  0  0  0  0  0  0
   46.0750   33.0000   46.3200 C   0  0  0  0  0  0  0  0  0  0  0  0
   45.3860   33.0030   47.5190 C   0  0  0  0  0  0  0  0  0  0  0  0
   45.5970   32.1200   48.5480 C   0  0  0  0  0  0  0  0  0  0  0  0
   46.5830   31.2040   48.2730 C   0  0  0  0  0  0  0  0  0  0  0  0
   47.3100   31.1380   47.1070 C   0  0  0  0  0  0  0  0  0  0  0  0
   47.0160   32.0580   46.1660 N   0  0  0  0  0  0  0  0  0  0  0  0
   44.3900   34.0090   47.6740 N   0  0  0  0  0  0  0  0  0  0  0  0
   46.8710   34.8170   41.7880 C   0  0  0  0  0  0  0  0  0  0  0  0
   47.1220   33.4310   41.2880 C   0  0  0  0  0  0  0  0  0  0  0  0
   47.7600   33.3300   40.0260 N   0  0  0  0  0  0  0  0  0  0  0  0
   48.2070   34.5460   39.4350 C   0  0  0  0  0  0  0  0  0  0  0  0
   48.2410   34.2480   37.9490 C   0  0  0  0  0  0  0  0  0  0  0  0
   46.9750   33.4210   37.8050 C   0  0  0  0  0  0  0  0  0  0  0  0
   47.1170   32.5230   39.0420 C   0  0  0  0  0  0  0  0  0  0  0  0
   43.8078   36.5578   44.7675 H   0  0  0  0  0  0  0  0  0  0  0  0
   44.9716   36.5443   42.5594 H   0  0  0  0  0  0  0  0  0  0  0  0
   45.0356   32.1433   49.4937 H   0  0  0  0  0  0  0  0  0  0  0  0
   46.8105   30.4603   49.0509 H   0  0  0  0  0  0  0  0  0  0  0  0
   48.0884   30.3766   46.9509 H   0  0  0  0  0  0  0  0  0  0  0  0
   43.8432   34.0624   48.5452 H   0  0  0  0  0  0  0  0  0  0  0  0
   44.2165   34.6832   46.9149 H   0  0  0  0  0  0  0  0  0  0  0  0
   46.2472   35.3498   41.0552 H   0  0  0  0  0  0  0  0  0  0  0  0
   47.8461   35.3090   41.9190 H   0  0  0  0  0  0  0  0  0  0  0  0
   47.7543   32.9165   42.0266 H   0  0  0  0  0  0  0  0  0  0  0  0
   46.1276   32.9804   41.1537 H   0  0  0  0  0  0  0  0  0  0  0  0
   47.5065   35.3658   39.6524 H   0  0  0  0  0  0  0  0  0  0  0  0
   49.1850   34.8676   39.8223 H   0  0  0  0  0  0  0  0  0  0  0  0
   48.1954   35.1687   37.3488 H   0  0  0  0  0  0  0  0  0  0  0  0
   49.1575   33.7484   37.6020 H   0  0  0  0  0  0  0  0  0  0  0  0
   46.0700   34.0445   37.8522 H   0  0  0  0  0  0  0  0  0  0  0  0
   46.8704   32.8876   36.8487 H   0  0  0  0  0  0  0  0  0  0  0  0
   46.1278   32.1986   39.3973 H   0  0  0  0  0  0  0  0  0  0  0  0
   47.6926   31.6120   38.8213 H   0  0  0  0  0  0  0  0  0  0  0  0
  1  6  2  0
  2  1  1  0
  3  2  2  0
  3  4  1  0
  4  5  2  0
  5  6  1  0
  5  7  1  0
  7  8  2  0
  8 13  1  0
  8  9  1  0
 10  9  2  0
 11 10  1  0
 12  7  1  0
 12 11  2  0
 14  3  1  0
 15 14  1  0
 16 15  1  0
 17 16  1  0
 18 17  1  0
 19 18  1  0
 19 20  1  0
 20 16  1  0
  1 21  1  0
  2 22  1  0
  9 23  1  0
 10 24  1  0
 11 25  1  0
 13 26  1  0
 13 27  1  0
 14 28  1  0
 14 29  1  0
 15 30  1  0
 15 31  1  0
 17 32  1  0
 17 33  1  0
 18 34  1  0
 18 35  1  0
 19 36  1  0
 19 37  1  0
 20 38  1  0
 20 39  1  0
M  ISO  8  21  14  22  14  23  14  24  14  25  14  28   8  29   8  30   8
M  ISO  8  31   8  32  13  33  13  34  13  35  13  36  13  37  13  38  13
M  ISO  1  39  13
M  END
>  <minimizedAffinity>  (1) 
-6.0865469

>  <minimizedRMSD>  (1) 
1.24645543

$$$$
