
     RDKit          3D

 28 29  0  0  0  0  0  0  0  0999 V2000
   44.6170   35.7460   44.5120 C   0  0  0  0  0  0  0  0  0  0  0  0
   45.3310   35.7410   43.3010 C   0  0  0  0  0  0  0  0  0  0  0  0
   46.3050   34.7890   43.1240 C   0  0  0  0  0  0  0  0  0  0  0  0
   46.5440   33.8850   44.1220 N   0  0  0  0  0  0  0  0  0  0  0  0
   45.8310   33.9240   45.2810 C   0  0  0  0  0  0  0  0  0  0  0  0
   44.8710   34.8570   45.4650 N   0  0  0  0  0  0  0  0  0  0  0  0
   46.0850   32.9550   46.3290 C   0  0  0  0  0  0  0  0  0  0  0  0
   45.3600   32.9940   47.5200 C   0  0  0  0  0  0  0  0  0  0  0  0
   45.5290   32.1080   48.5520 C   0  0  0  0  0  0  0  0  0  0  0  0
   46.4820   31.1780   48.2980 C   0  0  0  0  0  0  0  0  0  0  0  0
   47.2420   31.0700   47.1500 C   0  0  0  0  0  0  0  0  0  0  0  0
   46.9840   31.9970   46.2090 N   0  0  0  0  0  0  0  0  0  0  0  0
   44.3840   34.0360   47.6540 N   0  0  0  0  0  0  0  0  0  0  0  0
   47.0550   34.7830   41.8490 C   0  0  0  0  0  0  0  0  0  0  0  0
   48.4820   35.1770   42.0180 C   0  0  0  0  0  0  0  0  0  0  0  0
   49.0930   34.6140   43.1110 O   0  0  0  0  0  0  0  0  0  0  0  0
   43.8331   36.5007   44.6731 H   0  0  0  0  0  0  0  0  0  0  0  0
   45.1152   36.4803   42.5156 H   0  0  0  0  0  0  0  0  0  0  0  0
   44.9521   32.1474   49.4878 H   0  0  0  0  0  0  0  0  0  0  0  0
   46.6689   30.4339   49.0863 H   0  0  0  0  0  0  0  0  0  0  0  0
   48.0011   30.2854   47.0149 H   0  0  0  0  0  0  0  0  0  0  0  0
   43.8224   34.1081   48.5144 H   0  0  0  0  0  0  0  0  0  0  0  0
   44.2446   34.7124   46.8898 H   0  0  0  0  0  0  0  0  0  0  0  0
   46.5750   35.4890   41.1553 H   0  0  0  0  0  0  0  0  0  0  0  0
   47.0388   33.7544   41.4595 H   0  0  0  0  0  0  0  0  0  0  0  0
   49.0341   34.8703   41.1174 H   0  0  0  0  0  0  0  0  0  0  0  0
   48.4943   36.2659   42.1734 H   0  0  0  0  0  0  0  0  0  0  0  0
   48.6934   34.9822   43.9386 H   0  0  0  0  0  0  0  0  0  0  0  0
  1  6  2  0
  2  1  1  0
  3  2  2  0
  3  4  1  0
  4  5  2  0
  5  6  1  0
  5  7  1  0
  7  8  2  0
  8 13  1  0
  8  9  1  0
 10  9  2  0
 11 10  1  0
 12  7  1  0
 12 11  2  0
 14 15  1  0
 14  3  1  0
 15 16  1  0
  1 17  1  0
  2 18  1  0
  9 19  1  0
 10 20  1  0
 11 21  1  0
 13 22  1  0
 13 23  1  0
 14 24  1  0
 14 25  1  0
 15 26  1  0
 15 27  1  0
 16 28  1  0
M  ISO  8  17  14  18  14  19  14  20  14  21  14  24   8  25   8  26   8
M  ISO  2  27   8  28   3
M  END
>  <minimizedAffinity>  (1) 
-5.86704016

>  <minimizedRMSD>  (1) 
0.168697208

$$$$
