
     RDKit          3D

 34 36  0  0  0  0  0  0  0  0999 V2000
   44.4890   35.9350   44.6620 C   0  0  0  0  0  0  0  0  0  0  0  0
   44.8750   35.8120   43.3170 C   0  0  0  0  0  0  0  0  0  0  0  0
   45.6520   34.7340   42.9570 C   0  0  0  0  0  0  0  0  0  0  0  0
   46.0200   33.8250   43.9140 N   0  0  0  0  0  0  0  0  0  0  0  0
   45.6250   33.9770   45.2140 C   0  0  0  0  0  0  0  0  0  0  0  0
   44.8610   35.0360   45.5710 N   0  0  0  0  0  0  0  0  0  0  0  0
   46.0140   33.0150   46.2230 C   0  0  0  0  0  0  0  0  0  0  0  0
   45.4060   33.0050   47.4650 C   0  0  0  0  0  0  0  0  0  0  0  0
   45.7140   32.1280   48.4720 C   0  0  0  0  0  0  0  0  0  0  0  0
   46.6920   31.2520   48.1360 C   0  0  0  0  0  0  0  0  0  0  0  0
   47.3450   31.1960   46.9270 C   0  0  0  0  0  0  0  0  0  0  0  0
   46.9620   32.1100   46.0010 N   0  0  0  0  0  0  0  0  0  0  0  0
   44.3850   33.9840   47.6970 N   0  0  0  0  0  0  0  0  0  0  0  0
   46.0570   34.6080   41.5400 C   0  0  0  0  0  0  0  0  0  0  0  0
   47.5340   34.8410   41.3490 C   0  0  0  0  0  0  0  0  0  0  0  0
   48.1410   33.9300   40.3130 C   0  0  0  0  0  0  0  0  0  0  0  0
   47.3600   33.5180   39.1360 C   0  0  0  0  0  0  0  0  0  0  0  0
   48.3740   34.5750   38.9580 C   0  0  0  0  0  0  0  0  0  0  0  0
   43.8683   36.7894   44.9698 H   0  0  0  0  0  0  0  0  0  0  0  0
   44.5644   36.5579   42.5705 H   0  0  0  0  0  0  0  0  0  0  0  0
   45.2177   32.1344   49.4536 H   0  0  0  0  0  0  0  0  0  0  0  0
   46.9907   30.5190   48.8999 H   0  0  0  0  0  0  0  0  0  0  0  0
   48.1311   30.4541   46.7231 H   0  0  0  0  0  0  0  0  0  0  0  0
   43.9015   34.0184   48.6058 H   0  0  0  0  0  0  0  0  0  0  0  0
   44.1349   34.6530   46.9549 H   0  0  0  0  0  0  0  0  0  0  0  0
   45.8095   33.5952   41.1892 H   0  0  0  0  0  0  0  0  0  0  0  0
   45.5163   35.3734   40.9640 H   0  0  0  0  0  0  0  0  0  0  0  0
   47.6872   35.8835   41.0330 H   0  0  0  0  0  0  0  0  0  0  0  0
   48.0291   34.6276   42.3078 H   0  0  0  0  0  0  0  0  0  0  0  0
   48.7223   33.3718   41.0617 H   0  0  0  0  0  0  0  0  0  0  0  0
   47.5257   32.5247   38.6933 H   0  0  0  0  0  0  0  0  0  0  0  0
   46.2842   33.4446   38.9184 H   0  0  0  0  0  0  0  0  0  0  0  0
   49.2975   34.3669   38.3978 H   0  0  0  0  0  0  0  0  0  0  0  0
   48.3749   35.6038   38.5686 H   0  0  0  0  0  0  0  0  0  0  0  0
  1  6  2  0
  2  1  1  0
  3  2  2  0
  3  4  1  0
  4  5  2  0
  5  6  1  0
  5  7  1  0
  7  8  2  0
  8 13  1  0
  8  9  1  0
 10  9  2  0
 11 10  1  0
 12  7  1  0
 12 11  2  0
 14  3  1  0
 15 14  1  0
 16 15  1  0
 17 16  1  0
 18 17  1  0
 18 16  1  0
  1 19  1  0
  2 20  1  0
  9 21  1  0
 10 22  1  0
 11 23  1  0
 13 24  1  0
 13 25  1  0
 14 26  1  0
 14 27  1  0
 15 28  1  0
 15 29  1  0
 16 30  1  0
 17 31  1  0
 17 32  1  0
 18 33  1  0
 18 34  1  0
M  ISO  8  19  14  20  14  21  14  22  14  23  14  26   8  27   8  28   8
M  ISO  6  29   8  30  13  31  13  32  13  33  13  34  13
M  END
>  <minimizedAffinity>  (1) 
-5.83620214

>  <minimizedRMSD>  (1) 
0.715025425

$$$$
