
     RDKit          3D

 43 47  0  0  0  0  0  0  0  0999 V2000
   46.7380   34.7860   41.7250 C   0  0  0  0  0  0  0  0  0  0  0  0
   44.5620   35.8580   44.5850 C   0  0  0  0  0  0  0  0  0  0  0  0
   45.1670   35.8290   43.3230 C   0  0  0  0  0  0  0  0  0  0  0  0
   46.0910   34.8270   43.0570 C   0  0  0  0  0  0  0  0  0  0  0  0
   46.3660   33.9180   44.0380 N   0  0  0  0  0  0  0  0  0  0  0  0
   45.7630   33.9730   45.2520 C   0  0  0  0  0  0  0  0  0  0  0  0
   44.8570   34.9490   45.5210 N   0  0  0  0  0  0  0  0  0  0  0  0
   46.0710   32.9940   46.2790 C   0  0  0  0  0  0  0  0  0  0  0  0
   45.3880   33.0080   47.4920 C   0  0  0  0  0  0  0  0  0  0  0  0
   45.6240   32.1080   48.5180 C   0  0  0  0  0  0  0  0  0  0  0  0
   46.5970   31.2030   48.2190 C   0  0  0  0  0  0  0  0  0  0  0  0
   47.3100   31.1390   47.0330 C   0  0  0  0  0  0  0  0  0  0  0  0
   46.9950   32.0670   46.1050 N   0  0  0  0  0  0  0  0  0  0  0  0
   44.4000   34.0060   47.6690 N   0  0  0  0  0  0  0  0  0  0  0  0
   48.1190   35.3990   41.7510 C   0  0  0  0  0  0  0  0  0  0  0  0
   49.1870   34.3950   41.8840 C   0  0  0  0  0  0  0  0  0  0  0  0
   50.3450   34.6670   42.4910 N   0  0  0  0  0  0  0  0  0  0  0  0
   51.0620   33.5920   42.4460 O   0  0  0  0  0  0  0  0  0  0  0  0
   50.4300   32.6140   41.8320 C   0  0  0  0  0  0  0  0  0  0  0  0
   49.2390   33.1260   41.4760 N   0  0  0  0  0  0  0  0  0  0  0  0
   50.9150   31.2940   41.5990 N   0  0  0  0  0  0  0  0  0  0  0  0
   50.4100   30.2010   42.2020 C   0  0  0  0  0  0  0  0  0  0  0  0
   51.0610   29.0870   41.7900 N   0  0  0  0  0  0  0  0  0  0  0  0
   52.0030   29.4720   40.9060 C   0  0  0  0  0  0  0  0  0  0  0  0
   52.9810   28.8310   40.1380 C   0  0  0  0  0  0  0  0  0  0  0  0
   53.7920   29.5300   39.3230 N   0  0  0  0  0  0  0  0  0  0  0  0
   53.6610   30.8770   39.2420 C   0  0  0  0  0  0  0  0  0  0  0  0
   52.7210   31.5320   39.9730 N   0  0  0  0  0  0  0  0  0  0  0  0
   51.8970   30.8310   40.8010 C   0  0  0  0  0  0  0  0  0  0  0  0
   46.1150   35.3429   41.0096 H   0  0  0  0  0  0  0  0  0  0  0  0
   46.8381   33.7320   41.4266 H   0  0  0  0  0  0  0  0  0  0  0  0
   43.8281   36.6453   44.8119 H   0  0  0  0  0  0  0  0  0  0  0  0
   44.9167   36.5815   42.5607 H   0  0  0  0  0  0  0  0  0  0  0  0
   45.0819   32.1226   49.4750 H   0  0  0  0  0  0  0  0  0  0  0  0
   46.8385   30.4553   48.9889 H   0  0  0  0  0  0  0  0  0  0  0  0
   48.0853   30.3785   46.8583 H   0  0  0  0  0  0  0  0  0  0  0  0
   43.8693   34.0547   48.5504 H   0  0  0  0  0  0  0  0  0  0  0  0
   44.2117   34.6835   46.9164 H   0  0  0  0  0  0  0  0  0  0  0  0
   48.2742   35.9551   40.8147 H   0  0  0  0  0  0  0  0  0  0  0  0
   48.1723   36.0573   42.6307 H   0  0  0  0  0  0  0  0  0  0  0  0
   49.5838   30.2114   42.9281 H   0  0  0  0  0  0  0  0  0  0  0  0
   53.0887   27.7381   40.2014 H   0  0  0  0  0  0  0  0  0  0  0  0
   54.3246   31.4475   38.5755 H   0  0  0  0  0  0  0  0  0  0  0  0
  1 15  1  0
  1  4  1  0
  2  7  2  0
  3  2  1  0
  4  3  2  0
  4  5  1  0
  5  6  2  0
  6  7  1  0
  6  8  1  0
  8  9  2  0
  9 14  1  0
  9 10  1  0
 11 10  2  0
 12 11  1  0
 13  8  1  0
 13 12  2  0
 15 16  1  0
 16 17  2  0
 18 17  1  0
 19 18  1  0
 20 19  2  0
 20 16  1  0
 21 19  1  0
 21 22  1  0
 23 22  2  0
 24 23  1  0
 25 24  2  0
 26 25  1  0
 27 26  2  0
 27 28  1  0
 28 29  2  0
 29 24  1  0
 29 21  1  0
  1 30  1  0
  1 31  1  0
  2 32  1  0
  3 33  1  0
 10 34  1  0
 11 35  1  0
 12 36  1  0
 14 37  1  0
 14 38  1  0
 15 39  1  0
 15 40  1  0
 22 41  1  0
 25 42  1  0
 27 43  1  0
M  ISO  8  30   8  31   8  32  14  33  14  34  14  35  14  36  14  39   8
M  ISO  4  40   8  41  14  42  14  43  14
M  END
>  <minimizedAffinity>  (1) 
-7.5865593

>  <minimizedRMSD>  (1) 
0.249226421

$$$$
