
     RDKit          3D

 46 50  0  0  0  0  0  0  0  0999 V2000
   46.7460   34.7520   41.7100 C   0  0  0  0  0  0  0  0  0  0  0  0
   44.5760   35.8460   44.5460 C   0  0  0  0  0  0  0  0  0  0  0  0
   45.1800   35.8030   43.2890 C   0  0  0  0  0  0  0  0  0  0  0  0
   46.0990   34.8060   43.0400 C   0  0  0  0  0  0  0  0  0  0  0  0
   46.3720   33.9110   44.0340 N   0  0  0  0  0  0  0  0  0  0  0  0
   45.7750   33.9720   45.2440 C   0  0  0  0  0  0  0  0  0  0  0  0
   44.8680   34.9530   45.4950 N   0  0  0  0  0  0  0  0  0  0  0  0
   46.0800   33.0130   46.2850 C   0  0  0  0  0  0  0  0  0  0  0  0
   45.3870   33.0450   47.4850 C   0  0  0  0  0  0  0  0  0  0  0  0
   45.6260   32.1630   48.5220 C   0  0  0  0  0  0  0  0  0  0  0  0
   46.6080   31.2590   48.2490 C   0  0  0  0  0  0  0  0  0  0  0  0
   47.3340   31.1680   47.0870 C   0  0  0  0  0  0  0  0  0  0  0  0
   47.0100   32.0890   46.1390 N   0  0  0  0  0  0  0  0  0  0  0  0
   44.3790   34.0300   47.6580 N   0  0  0  0  0  0  0  0  0  0  0  0
   48.1160   35.3670   41.7100 C   0  0  0  0  0  0  0  0  0  0  0  0
   49.1910   34.3670   41.8920 C   0  0  0  0  0  0  0  0  0  0  0  0
   50.3380   34.6660   42.5120 N   0  0  0  0  0  0  0  0  0  0  0  0
   51.0810   33.6120   42.5230 O   0  0  0  0  0  0  0  0  0  0  0  0
   50.4550   32.6110   41.9220 C   0  0  0  0  0  0  0  0  0  0  0  0
   49.2490   33.0810   41.5160 N   0  0  0  0  0  0  0  0  0  0  0  0
   51.0020   31.2680   41.7540 C   0  0  0  0  0  0  0  0  0  0  0  0
   50.5860   30.1950   42.5140 C   0  0  0  0  0  0  0  0  0  0  0  0
   51.2960   29.1390   42.0890 N   0  0  0  0  0  0  0  0  0  0  0  0
   52.1310   29.5520   41.0920 C   0  0  0  0  0  0  0  0  0  0  0  0
   53.0440   28.7970   40.3650 C   0  0  0  0  0  0  0  0  0  0  0  0
   53.8050   29.4190   39.3810 C   0  0  0  0  0  0  0  0  0  0  0  0
   53.6220   30.7680   39.1650 C   0  0  0  0  0  0  0  0  0  0  0  0
   52.7110   31.5520   39.8820 C   0  0  0  0  0  0  0  0  0  0  0  0
   51.9750   30.9090   40.8460 C   0  0  0  0  0  0  0  0  0  0  0  0
   46.1162   35.2942   40.9894 H   0  0  0  0  0  0  0  0  0  0  0  0
   46.8559   33.6926   41.4352 H   0  0  0  0  0  0  0  0  0  0  0  0
   43.8407   36.6354   44.7607 H   0  0  0  0  0  0  0  0  0  0  0  0
   44.9294   36.5453   42.5168 H   0  0  0  0  0  0  0  0  0  0  0  0
   45.0769   32.1885   49.4748 H   0  0  0  0  0  0  0  0  0  0  0  0
   46.8427   30.5293   49.0380 H   0  0  0  0  0  0  0  0  0  0  0  0
   48.1163   30.4099   46.9344 H   0  0  0  0  0  0  0  0  0  0  0  0
   43.8493   34.0754   48.5402 H   0  0  0  0  0  0  0  0  0  0  0  0
   44.1775   34.6991   46.9013 H   0  0  0  0  0  0  0  0  0  0  0  0
   48.2715   35.8799   40.7494 H   0  0  0  0  0  0  0  0  0  0  0  0
   48.1661   36.0665   42.5575 H   0  0  0  0  0  0  0  0  0  0  0  0
   49.8253   30.2033   43.3085 H   0  0  0  0  0  0  0  0  0  0  0  0
   51.2231   28.1785   42.4538 H   0  0  0  0  0  0  0  0  0  0  0  0
   53.1630   27.7220   40.5653 H   0  0  0  0  0  0  0  0  0  0  0  0
   54.5356   28.8480   38.7892 H   0  0  0  0  0  0  0  0  0  0  0  0
   54.2258   31.2556   38.3855 H   0  0  0  0  0  0  0  0  0  0  0  0
   52.5910   32.6273   39.6835 H   0  0  0  0  0  0  0  0  0  0  0  0
  1 15  1  0
  1  4  1  0
  2  7  2  0
  3  2  1  0
  4  3  2  0
  4  5  1  0
  5  6  2  0
  6  7  1  0
  6  8  1  0
  8  9  2  0
  9 14  1  0
  9 10  1  0
 11 10  2  0
 12 11  1  0
 13  8  1  0
 13 12  2  0
 15 16  1  0
 16 17  2  0
 17 18  1  0
 19 18  1  0
 20 16  1  0
 20 19  2  0
 21 19  1  0
 21 22  2  0
 23 22  1  0
 24 23  1  0
 25 24  2  0
 26 25  1  0
 27 26  2  0
 27 28  1  0
 28 29  2  0
 29 24  1  0
 29 21  1  0
  1 30  1  0
  1 31  1  0
  2 32  1  0
  3 33  1  0
 10 34  1  0
 11 35  1  0
 12 36  1  0
 14 37  1  0
 14 38  1  0
 15 39  1  0
 15 40  1  0
 22 41  1  0
 23 42  1  0
 25 43  1  0
 26 44  1  0
 27 45  1  0
 28 46  1  0
M  ISO  8  30   8  31   8  32  14  33  14  34  14  35  14  36  14  39   8
M  ISO  7  40   8  41  14  42   9  43  14  44  14  45  14  46  14
M  END
>  <minimizedAffinity>  (1) 
-7.25567055

>  <minimizedRMSD>  (1) 
0.344175607

$$$$
