
     RDKit          3D

 25 27  0  0  0  0  0  0  0  0999 V2000
   44.9230   34.3590   43.4770 N   0  0  0  0  0  0  0  0  0  0  0  0
   45.2610   35.6490   43.2580 C   0  0  0  0  0  0  0  0  0  0  0  0
   44.4590   36.1510   42.3070 N   0  0  0  0  0  0  0  0  0  0  0  0
   43.6150   35.1720   41.9260 C   0  0  0  0  0  0  0  0  0  0  0  0
   43.9130   34.0800   42.6530 N   0  0  0  0  0  0  0  0  0  0  0  0
   45.7360   33.8090   45.6840 C   0  0  0  0  0  0  0  0  0  0  0  0
   45.4650   33.3990   44.3770 C   0  0  0  0  0  0  0  0  0  0  0  0
   45.7440   32.0820   44.0410 C   0  0  0  0  0  0  0  0  0  0  0  0
   46.2610   31.2630   44.9920 N   0  0  0  0  0  0  0  0  0  0  0  0
   46.5100   31.6900   46.2410 C   0  0  0  0  0  0  0  0  0  0  0  0
   46.2450   32.9560   46.5730 N   0  0  0  0  0  0  0  0  0  0  0  0
   42.5520   35.2470   40.9060 C   0  0  0  0  0  0  0  0  0  0  0  0
   41.3050   35.7020   41.3460 C   0  0  0  0  0  0  0  0  0  0  0  0
   40.2210   35.8250   40.5110 C   0  0  0  0  0  0  0  0  0  0  0  0
   40.4270   35.4730   39.2000 C   0  0  0  0  0  0  0  0  0  0  0  0
   41.6740   35.0260   38.7970 C   0  0  0  0  0  0  0  0  0  0  0  0
   42.7360   34.9060   39.6150 N   0  0  0  0  0  0  0  0  0  0  0  0
   46.0623   36.1974   43.7748 H   0  0  0  0  0  0  0  0  0  0  0  0
   45.5273   34.8468   45.9832 H   0  0  0  0  0  0  0  0  0  0  0  0
   45.5501   31.7091   43.0244 H   0  0  0  0  0  0  0  0  0  0  0  0
   46.9304   30.9997   46.9872 H   0  0  0  0  0  0  0  0  0  0  0  0
   41.1871   35.9729   42.4056 H   0  0  0  0  0  0  0  0  0  0  0  0
   39.2458   36.1842   40.8714 H   0  0  0  0  0  0  0  0  0  0  0  0
   39.6048   35.5458   38.4729 H   0  0  0  0  0  0  0  0  0  0  0  0
   41.8051   34.7512   37.7400 H   0  0  0  0  0  0  0  0  0  0  0  0
  1  7  1  0
  2  1  1  0
  3  2  2  0
  4  3  1  0
  4  5  2  0
  5  1  1  0
  6 11  2  0
  7  6  1  0
  8  7  2  0
  8  9  1  0
  9 10  2  0
 10 11  1  0
 12 13  2  0
 12  4  1  0
 14 13  1  0
 15 14  2  0
 16 15  1  0
 16 17  2  0
 17 12  1  0
  2 18  1  0
  6 19  1  0
  8 20  1  0
 10 21  1  0
 13 22  1  0
 14 23  1  0
 15 24  1  0
 16 25  1  0
M  ISO  8  18  14  19  14  20  14  21  14  22  14  23  14  24  14  25  14
M  END
>  <minimizedAffinity>  (1) 
-4.83352518

>  <minimizedRMSD>  (1) 
3.25333834

$$$$
