
     RDKit          3D

 40 43  0  0  0  0  0  0  0  0999 V2000
   44.5890   35.7980   44.5500 C   0  0  0  0  0  0  0  0  0  0  0  0
   45.1510   35.7040   43.2680 C   0  0  0  0  0  0  0  0  0  0  0  0
   46.0330   34.6770   43.0230 C   0  0  0  0  0  0  0  0  0  0  0  0
   46.3200   33.8050   44.0250 N   0  0  0  0  0  0  0  0  0  0  0  0
   45.7640   33.9150   45.2570 C   0  0  0  0  0  0  0  0  0  0  0  0
   44.8890   34.9250   45.5160 N   0  0  0  0  0  0  0  0  0  0  0  0
   46.0740   32.9810   46.3210 C   0  0  0  0  0  0  0  0  0  0  0  0
   45.3880   33.0250   47.5240 C   0  0  0  0  0  0  0  0  0  0  0  0
   45.6400   32.1630   48.5730 C   0  0  0  0  0  0  0  0  0  0  0  0
   46.6290   31.2590   48.3160 C   0  0  0  0  0  0  0  0  0  0  0  0
   47.3440   31.1710   47.1390 C   0  0  0  0  0  0  0  0  0  0  0  0
   47.0180   32.0630   46.1760 N   0  0  0  0  0  0  0  0  0  0  0  0
   44.3760   34.0120   47.6740 N   0  0  0  0  0  0  0  0  0  0  0  0
   46.6390   34.5590   41.6710 C   0  0  0  0  0  0  0  0  0  0  0  0
   47.9500   35.3270   41.5710 C   0  0  0  0  0  0  0  0  0  0  0  0
   49.1120   34.4440   41.7740 C   0  0  0  0  0  0  0  0  0  0  0  0
   50.1180   34.7790   42.5920 N   0  0  0  0  0  0  0  0  0  0  0  0
   50.9930   33.8200   42.5720 O   0  0  0  0  0  0  0  0  0  0  0  0
   50.5940   32.8600   41.7650 C   0  0  0  0  0  0  0  0  0  0  0  0
   49.4090   33.2480   41.2610 N   0  0  0  0  0  0  0  0  0  0  0  0
   51.3310   31.6280   41.5030 C   0  0  0  0  0  0  0  0  0  0  0  0
   51.0470   30.5180   42.2720 C   0  0  0  0  0  0  0  0  0  0  0  0
   51.7620   29.3670   42.0000 C   0  0  0  0  0  0  0  0  0  0  0  0
   52.6980   29.3730   41.0080 N   0  0  0  0  0  0  0  0  0  0  0  0
   52.9680   30.4600   40.2660 C   0  0  0  0  0  0  0  0  0  0  0  0
   52.2640   31.5830   40.5370 N   0  0  0  0  0  0  0  0  0  0  0  0
   43.8821   36.6127   44.7658 H   0  0  0  0  0  0  0  0  0  0  0  0
   44.8941   36.4297   42.4823 H   0  0  0  0  0  0  0  0  0  0  0  0
   45.0941   32.2016   49.5272 H   0  0  0  0  0  0  0  0  0  0  0  0
   46.8767   30.5416   49.1122 H   0  0  0  0  0  0  0  0  0  0  0  0
   48.1333   30.4190   46.9925 H   0  0  0  0  0  0  0  0  0  0  0  0
   43.8448   34.0753   48.5542 H   0  0  0  0  0  0  0  0  0  0  0  0
   44.1740   34.6639   46.9025 H   0  0  0  0  0  0  0  0  0  0  0  0
   46.8311   33.4970   41.4582 H   0  0  0  0  0  0  0  0  0  0  0  0
   45.9352   34.9868   40.9419 H   0  0  0  0  0  0  0  0  0  0  0  0
   48.0200   35.7857   40.5736 H   0  0  0  0  0  0  0  0  0  0  0  0
   47.9598   36.0954   42.3580 H   0  0  0  0  0  0  0  0  0  0  0  0
   50.2859   30.5479   43.0656 H   0  0  0  0  0  0  0  0  0  0  0  0
   51.5772   28.4510   42.5804 H   0  0  0  0  0  0  0  0  0  0  0  0
   53.7290   30.4378   39.4720 H   0  0  0  0  0  0  0  0  0  0  0  0
  1  6  2  0
  2  1  1  0
  3  2  2  0
  3  4  1  0
  4  5  2  0
  5  6  1  0
  5  7  1  0
  7  8  2  0
  8 13  1  0
  8  9  1  0
 10  9  2  0
 11 10  1  0
 12  7  1  0
 12 11  2  0
 14  3  1  0
 15 14  1  0
 15 16  1  0
 16 17  2  0
 18 17  1  0
 19 18  1  0
 20 19  2  0
 20 16  1  0
 21 19  1  0
 21 22  2  0
 23 22  1  0
 24 23  2  0
 25 26  2  0
 25 24  1  0
 26 21  1  0
  1 27  1  0
  2 28  1  0
  9 29  1  0
 10 30  1  0
 11 31  1  0
 13 32  1  0
 13 33  1  0
 14 34  1  0
 14 35  1  0
 15 36  1  0
 15 37  1  0
 22 38  1  0
 23 39  1  0
 25 40  1  0
M  ISO  8  27  14  28  14  29  14  30  14  31  14  34   8  35   8  36   8
M  ISO  4  37   8  38  14  39  14  40  14
M  END
>  <minimizedAffinity>  (1) 
-6.96250296

>  <minimizedRMSD>  (1) 
0.508656025

$$$$
