
     RDKit          3D

 42 45  0  0  0  0  0  0  0  0999 V2000
   44.5910   35.7970   44.5560 C   0  0  0  0  0  0  0  0  0  0  0  0
   45.1050   35.6700   43.2570 C   0  0  0  0  0  0  0  0  0  0  0  0
   45.9540   34.6140   42.9930 C   0  0  0  0  0  0  0  0  0  0  0  0
   46.2540   33.7470   44.0040 N   0  0  0  0  0  0  0  0  0  0  0  0
   45.7400   33.8970   45.2550 C   0  0  0  0  0  0  0  0  0  0  0  0
   44.9040   34.9320   45.5210 N   0  0  0  0  0  0  0  0  0  0  0  0
   46.0750   32.9600   46.3130 C   0  0  0  0  0  0  0  0  0  0  0  0
   45.3930   33.0120   47.5280 C   0  0  0  0  0  0  0  0  0  0  0  0
   45.6590   32.1500   48.5850 C   0  0  0  0  0  0  0  0  0  0  0  0
   46.6440   31.2550   48.3170 C   0  0  0  0  0  0  0  0  0  0  0  0
   47.3560   31.1550   47.1330 C   0  0  0  0  0  0  0  0  0  0  0  0
   47.0170   32.0420   46.1710 N   0  0  0  0  0  0  0  0  0  0  0  0
   44.3830   33.9960   47.6840 N   0  0  0  0  0  0  0  0  0  0  0  0
   46.5080   34.4600   41.6260 C   0  0  0  0  0  0  0  0  0  0  0  0
   47.7740   35.2660   41.4340 C   0  0  0  0  0  0  0  0  0  0  0  0
   48.9850   34.4820   41.7390 C   0  0  0  0  0  0  0  0  0  0  0  0
   49.9540   34.9380   42.5320 N   0  0  0  0  0  0  0  0  0  0  0  0
   50.8750   34.0320   42.6080 O   0  0  0  0  0  0  0  0  0  0  0  0
   50.5480   32.9810   41.8870 C   0  0  0  0  0  0  0  0  0  0  0  0
   49.3530   33.2610   41.3360 N   0  0  0  0  0  0  0  0  0  0  0  0
   51.3280   31.7590   41.7220 C   0  0  0  0  0  0  0  0  0  0  0  0
   51.3100   30.8100   42.7230 C   0  0  0  0  0  0  0  0  0  0  0  0
   52.0530   29.6350   42.5780 C   0  0  0  0  0  0  0  0  0  0  0  0
   52.7870   29.4860   41.4000 C   0  0  0  0  0  0  0  0  0  0  0  0
   52.8080   30.4330   40.3950 C   0  0  0  0  0  0  0  0  0  0  0  0
   52.0630   31.5820   40.5700 C   0  0  0  0  0  0  0  0  0  0  0  0
   43.9121   36.6319   44.7843 H   0  0  0  0  0  0  0  0  0  0  0  0
   44.8390   36.3917   42.4707 H   0  0  0  0  0  0  0  0  0  0  0  0
   45.1237   32.1890   49.5452 H   0  0  0  0  0  0  0  0  0  0  0  0
   46.9007   30.5425   49.1148 H   0  0  0  0  0  0  0  0  0  0  0  0
   48.1453   30.4032   46.9854 H   0  0  0  0  0  0  0  0  0  0  0  0
   43.8601   34.0615   48.5690 H   0  0  0  0  0  0  0  0  0  0  0  0
   44.1726   34.6449   46.9123 H   0  0  0  0  0  0  0  0  0  0  0  0
   46.7334   33.3976   41.4516 H   0  0  0  0  0  0  0  0  0  0  0  0
   45.7579   34.8298   40.9115 H   0  0  0  0  0  0  0  0  0  0  0  0
   47.8242   35.6030   40.3881 H   0  0  0  0  0  0  0  0  0  0  0  0
   47.7400   36.1187   42.1281 H   0  0  0  0  0  0  0  0  0  0  0  0
   50.7132   30.9773   43.6318 H   0  0  0  0  0  0  0  0  0  0  0  0
   52.0591   28.8605   43.3591 H   0  0  0  0  0  0  0  0  0  0  0  0
   53.3783   28.5683   41.2655 H   0  0  0  0  0  0  0  0  0  0  0  0
   53.4010   30.2764   39.4818 H   0  0  0  0  0  0  0  0  0  0  0  0
   52.0561   32.3568   39.7892 H   0  0  0  0  0  0  0  0  0  0  0  0
  1  6  2  0
  2  1  1  0
  3  2  2  0
  3  4  1  0
  4  5  2  0
  5  6  1  0
  5  7  1  0
  7  8  2  0
  8 13  1  0
  8  9  1  0
 10  9  2  0
 11 10  1  0
 12  7  1  0
 12 11  2  0
 14  3  1  0
 15 14  1  0
 15 16  1  0
 16 17  2  0
 17 18  1  0
 19 18  1  0
 20 16  1  0
 20 19  2  0
 21 19  1  0
 21 22  2  0
 23 22  1  0
 24 23  2  0
 25 26  2  0
 25 24  1  0
 26 21  1  0
  1 27  1  0
  2 28  1  0
  9 29  1  0
 10 30  1  0
 11 31  1  0
 13 32  1  0
 13 33  1  0
 14 34  1  0
 14 35  1  0
 15 36  1  0
 15 37  1  0
 22 38  1  0
 23 39  1  0
 24 40  1  0
 25 41  1  0
 26 42  1  0
M  ISO  8  27  14  28  14  29  14  30  14  31  14  34   8  35   8  36   8
M  ISO  6  37   8  38  14  39  14  40  14  41  14  42  14
M  END
>  <minimizedAffinity>  (1) 
-7.01547623

>  <minimizedRMSD>  (1) 
0.803109467

$$$$
