
     RDKit          3D

 35 37  0  0  0  0  0  0  0  0999 V2000
   44.5790   35.8090   44.5470 C   0  0  0  0  0  0  0  0  0  0  0  0
   45.1580   35.7240   43.2660 C   0  0  0  0  0  0  0  0  0  0  0  0
   46.0560   34.7070   43.0200 C   0  0  0  0  0  0  0  0  0  0  0  0
   46.3450   33.8240   44.0280 N   0  0  0  0  0  0  0  0  0  0  0  0
   45.7620   33.9370   45.2590 C   0  0  0  0  0  0  0  0  0  0  0  0
   44.8830   34.9300   45.5070 N   0  0  0  0  0  0  0  0  0  0  0  0
   46.0840   32.9910   46.3080 C   0  0  0  0  0  0  0  0  0  0  0  0
   45.3930   33.0270   47.5160 C   0  0  0  0  0  0  0  0  0  0  0  0
   45.6350   32.1670   48.5600 C   0  0  0  0  0  0  0  0  0  0  0  0
   46.6210   31.2680   48.3040 C   0  0  0  0  0  0  0  0  0  0  0  0
   47.3480   31.1710   47.1330 C   0  0  0  0  0  0  0  0  0  0  0  0
   47.0200   32.0750   46.1710 N   0  0  0  0  0  0  0  0  0  0  0  0
   44.3800   34.0150   47.6690 N   0  0  0  0  0  0  0  0  0  0  0  0
   46.6730   34.6030   41.6850 C   0  0  0  0  0  0  0  0  0  0  0  0
   47.9890   35.3420   41.6090 C   0  0  0  0  0  0  0  0  0  0  0  0
   49.1430   34.4410   41.8010 C   0  0  0  0  0  0  0  0  0  0  0  0
   50.1690   34.7510   42.6050 N   0  0  0  0  0  0  0  0  0  0  0  0
   51.0210   33.7880   42.5760 O   0  0  0  0  0  0  0  0  0  0  0  0
   50.6020   32.8260   41.7720 C   0  0  0  0  0  0  0  0  0  0  0  0
   49.4190   33.2410   41.2860 N   0  0  0  0  0  0  0  0  0  0  0  0
   51.2250   31.5380   41.4200 C   0  0  0  0  0  0  0  0  0  0  0  0
   50.3840   30.6910   40.7380 F   0  0  0  0  0  0  0  0  0  0  0  0
   52.3760   31.8100   40.6950 F   0  0  0  0  0  0  0  0  0  0  0  0
   51.6450   30.9440   42.6030 F   0  0  0  0  0  0  0  0  0  0  0  0
   43.8620   36.6151   44.7619 H   0  0  0  0  0  0  0  0  0  0  0  0
   44.9003   36.4507   42.4814 H   0  0  0  0  0  0  0  0  0  0  0  0
   45.0837   32.2029   49.5112 H   0  0  0  0  0  0  0  0  0  0  0  0
   46.8628   30.5513   49.1026 H   0  0  0  0  0  0  0  0  0  0  0  0
   48.1356   30.4167   46.9890 H   0  0  0  0  0  0  0  0  0  0  0  0
   43.8465   34.0738   48.5481 H   0  0  0  0  0  0  0  0  0  0  0  0
   44.1804   34.6712   46.9006 H   0  0  0  0  0  0  0  0  0  0  0  0
   46.8485   33.5413   41.4569 H   0  0  0  0  0  0  0  0  0  0  0  0
   45.9855   35.0587   40.9572 H   0  0  0  0  0  0  0  0  0  0  0  0
   48.0716   35.8189   40.6212 H   0  0  0  0  0  0  0  0  0  0  0  0
   48.0049   36.0900   42.4154 H   0  0  0  0  0  0  0  0  0  0  0  0
  1  6  2  0
  2  1  1  0
  3  2  2  0
  3  4  1  0
  4  5  2  0
  5  6  1  0
  5  7  1  0
  7  8  2  0
  8 13  1  0
  8  9  1  0
 10  9  2  0
 11 10  1  0
 12  7  1  0
 12 11  2  0
 14  3  1  0
 15 14  1  0
 15 16  1  0
 16 17  2  0
 18 17  1  0
 19 18  1  0
 20 19  2  0
 20 16  1  0
 21 19  1  0
 21 24  1  0
 22 21  1  0
 23 21  1  0
  1 25  1  0
  2 26  1  0
  9 27  1  0
 10 28  1  0
 11 29  1  0
 13 30  1  0
 13 31  1  0
 14 32  1  0
 14 33  1  0
 15 34  1  0
 15 35  1  0
M  ISO  8  25  14  26  14  27  14  28  14  29  14  32   8  33   8  34   8
M  ISO  1  35   8
M  END
>  <minimizedAffinity>  (1) 
-6.81665945

>  <minimizedRMSD>  (1) 
0.428090453

$$$$
