
     RDKit          3D

 39 42  0  0  0  0  0  0  0  0999 V2000
   44.5720   35.8370   44.5500 C   0  0  0  0  0  0  0  0  0  0  0  0
   45.1780   35.7890   43.2930 C   0  0  0  0  0  0  0  0  0  0  0  0
   46.0960   34.7960   43.0480 C   0  0  0  0  0  0  0  0  0  0  0  0
   46.3770   33.9010   44.0410 N   0  0  0  0  0  0  0  0  0  0  0  0
   45.7740   33.9680   45.2580 C   0  0  0  0  0  0  0  0  0  0  0  0
   44.8650   34.9470   45.5070 N   0  0  0  0  0  0  0  0  0  0  0  0
   46.0870   33.0070   46.2980 C   0  0  0  0  0  0  0  0  0  0  0  0
   45.3920   33.0330   47.4990 C   0  0  0  0  0  0  0  0  0  0  0  0
   45.6330   32.1540   48.5330 C   0  0  0  0  0  0  0  0  0  0  0  0
   46.6200   31.2510   48.2660 C   0  0  0  0  0  0  0  0  0  0  0  0
   47.3440   31.1790   47.0890 C   0  0  0  0  0  0  0  0  0  0  0  0
   47.0250   32.0850   46.1520 N   0  0  0  0  0  0  0  0  0  0  0  0
   44.3780   34.0250   47.6650 N   0  0  0  0  0  0  0  0  0  0  0  0
   46.7520   34.7300   41.7140 C   0  0  0  0  0  0  0  0  0  0  0  0
   48.1020   35.4030   41.7270 C   0  0  0  0  0  0  0  0  0  0  0  0
   49.2050   34.4290   41.8420 C   0  0  0  0  0  0  0  0  0  0  0  0
   50.2630   34.6340   42.6220 N   0  0  0  0  0  0  0  0  0  0  0  0
   51.0510   33.6230   42.5210 O   0  0  0  0  0  0  0  0  0  0  0  0
   50.5570   32.7290   41.6880 C   0  0  0  0  0  0  0  0  0  0  0  0
   49.3890   33.2400   41.2600 N   0  0  0  0  0  0  0  0  0  0  0  0
   51.1290   31.4010   41.2660 C   0  0  0  0  0  0  0  0  0  0  0  0
   52.3750   31.4320   40.3640 C   0  0  0  0  0  0  0  0  0  0  0  0
   51.0370   31.0350   39.8150 C   0  0  0  0  0  0  0  0  0  0  0  0
   43.8349   36.6261   44.7597 H   0  0  0  0  0  0  0  0  0  0  0  0
   44.9268   36.5279   42.5178 H   0  0  0  0  0  0  0  0  0  0  0  0
   45.0812   32.1784   49.4843 H   0  0  0  0  0  0  0  0  0  0  0  0
   46.8603   30.5194   49.0515 H   0  0  0  0  0  0  0  0  0  0  0  0
   48.1310   30.4268   46.9315 H   0  0  0  0  0  0  0  0  0  0  0  0
   43.8430   34.0725   48.5439 H   0  0  0  0  0  0  0  0  0  0  0  0
   44.1818   34.6929   46.9059 H   0  0  0  0  0  0  0  0  0  0  0  0
   46.1099   35.2314   40.9749 H   0  0  0  0  0  0  0  0  0  0  0  0
   46.8970   33.6713   41.4531 H   0  0  0  0  0  0  0  0  0  0  0  0
   48.2250   35.9700   40.7924 H   0  0  0  0  0  0  0  0  0  0  0  0
   48.1422   36.0664   42.6035 H   0  0  0  0  0  0  0  0  0  0  0  0
   50.8550   30.9123   42.2126 H   0  0  0  0  0  0  0  0  0  0  0  0
   52.8262   32.3936   40.0781 H   0  0  0  0  0  0  0  0  0  0  0  0
   53.3754   30.9756   40.3948 H   0  0  0  0  0  0  0  0  0  0  0  0
   50.5141   31.7044   39.1160 H   0  0  0  0  0  0  0  0  0  0  0  0
   50.6618   30.1582   39.2669 H   0  0  0  0  0  0  0  0  0  0  0  0
  1  6  2  0
  2  1  1  0
  3  2  2  0
  3  4  1  0
  4  5  2  0
  5  6  1  0
  5  7  1  0
  7  8  2  0
  8 13  1  0
  8  9  1  0
 10  9  2  0
 11 10  1  0
 12  7  1  0
 12 11  2  0
 14 15  1  0
 14  3  1  0
 15 16  1  0
 16 17  2  0
 18 17  1  0
 19 18  1  0
 20 19  2  0
 20 16  1  0
 21 19  1  0
 22 21  1  0
 23 22  1  0
 23 21  1  0
  1 24  1  0
  2 25  1  0
  9 26  1  0
 10 27  1  0
 11 28  1  0
 13 29  1  0
 13 30  1  0
 14 31  1  0
 14 32  1  0
 15 33  1  0
 15 34  1  0
 21 35  1  0
 22 36  1  0
 22 37  1  0
 23 38  1  0
 23 39  1  0
M  ISO  8  24  14  25  14  26  14  27  14  28  14  31   8  32   8  33   8
M  ISO  6  34   8  35  13  36  13  37  13  38  13  39  13
M  END
>  <minimizedAffinity>  (1) 
-6.80249691

>  <minimizedRMSD>  (1) 
0.136353016

$$$$
