
     RDKit          3D

 38 41  0  0  0  0  0  0  0  0999 V2000
   44.5740   35.8260   44.5580 C   0  0  0  0  0  0  0  0  0  0  0  0
   45.1880   35.7870   43.2950 C   0  0  0  0  0  0  0  0  0  0  0  0
   46.1120   34.7990   43.0510 C   0  0  0  0  0  0  0  0  0  0  0  0
   46.3820   33.9090   44.0440 N   0  0  0  0  0  0  0  0  0  0  0  0
   45.7780   33.9640   45.2550 C   0  0  0  0  0  0  0  0  0  0  0  0
   44.8640   34.9390   45.5040 N   0  0  0  0  0  0  0  0  0  0  0  0
   46.0830   33.0080   46.2970 C   0  0  0  0  0  0  0  0  0  0  0  0
   45.3870   33.0330   47.5070 C   0  0  0  0  0  0  0  0  0  0  0  0
   45.6380   32.1460   48.5420 C   0  0  0  0  0  0  0  0  0  0  0  0
   46.6210   31.2530   48.2640 C   0  0  0  0  0  0  0  0  0  0  0  0
   47.3460   31.1690   47.0980 C   0  0  0  0  0  0  0  0  0  0  0  0
   47.0260   32.0820   46.1500 N   0  0  0  0  0  0  0  0  0  0  0  0
   44.3770   34.0220   47.6700 N   0  0  0  0  0  0  0  0  0  0  0  0
   46.7650   34.7490   41.7240 C   0  0  0  0  0  0  0  0  0  0  0  0
   48.1360   35.4090   41.7340 C   0  0  0  0  0  0  0  0  0  0  0  0
   49.2240   34.4100   41.8230 C   0  0  0  0  0  0  0  0  0  0  0  0
   50.3020   34.6140   42.5720 N   0  0  0  0  0  0  0  0  0  0  0  0
   51.0740   33.5780   42.4570 O   0  0  0  0  0  0  0  0  0  0  0  0
   50.5300   32.6920   41.6500 C   0  0  0  0  0  0  0  0  0  0  0  0
   49.3600   33.2020   41.2380 N   0  0  0  0  0  0  0  0  0  0  0  0
   51.1720   31.4230   41.3300 C   0  0  0  0  0  0  0  0  0  0  0  0
   52.3000   31.4490   40.3990 C   0  0  0  0  0  0  0  0  0  0  0  0
   52.8070   29.6400   40.2780 S   0  0  0  0  0  0  0  0  0  0  0  0
   51.4380   29.2020   41.4730 C   0  0  0  0  0  0  0  0  0  0  0  0
   50.9300   30.1930   41.7280 N   0  0  0  0  0  0  0  0  0  0  0  0
   43.8336   36.6116   44.7694 H   0  0  0  0  0  0  0  0  0  0  0  0
   44.9360   36.5276   42.5217 H   0  0  0  0  0  0  0  0  0  0  0  0
   45.0926   32.1642   49.4971 H   0  0  0  0  0  0  0  0  0  0  0  0
   46.8625   30.5226   49.0503 H   0  0  0  0  0  0  0  0  0  0  0  0
   48.1307   30.4133   46.9461 H   0  0  0  0  0  0  0  0  0  0  0  0
   43.8421   34.0718   48.5488 H   0  0  0  0  0  0  0  0  0  0  0  0
   44.1808   34.6880   46.9092 H   0  0  0  0  0  0  0  0  0  0  0  0
   46.1265   35.2693   40.9949 H   0  0  0  0  0  0  0  0  0  0  0  0
   46.9008   33.6914   41.4536 H   0  0  0  0  0  0  0  0  0  0  0  0
   48.2593   35.9887   40.8073 H   0  0  0  0  0  0  0  0  0  0  0  0
   48.1961   36.0610   42.6179 H   0  0  0  0  0  0  0  0  0  0  0  0
   52.7452   32.3174   39.8913 H   0  0  0  0  0  0  0  0  0  0  0  0
   51.1769   28.2023   41.8505 H   0  0  0  0  0  0  0  0  0  0  0  0
  1  6  2  0
  2  1  1  0
  3  2  2  0
  3  4  1  0
  4  5  2  0
  5  6  1  0
  5  7  1  0
  7  8  2  0
  8 13  1  0
  8  9  1  0
 10  9  2  0
 11 10  1  0
 12  7  1  0
 12 11  2  0
 14 15  1  0
 14  3  1  0
 15 16  1  0
 16 17  2  0
 18 17  1  0
 19 18  1  0
 20 19  2  0
 20 16  1  0
 21 19  1  0
 21 25  1  0
 22 21  2  0
 23 22  1  0
 23 24  1  0
 24 25  2  0
  1 26  1  0
  2 27  1  0
  9 28  1  0
 10 29  1  0
 11 30  1  0
 13 31  1  0
 13 32  1  0
 14 33  1  0
 14 34  1  0
 15 35  1  0
 15 36  1  0
 22 37  1  0
 24 38  1  0
M  ISO  8  26  14  27  14  28  14  29  14  30  14  33   8  34   8  35   8
M  ISO  3  36   8  37  14  38  14
M  END
>  <minimizedAffinity>  (1) 
-6.88117075

>  <minimizedRMSD>  (1) 
0.146076828

$$$$
