
     RDKit          3D

 33 35  0  0  0  0  0  0  0  0999 V2000
   44.5700   35.8400   44.5460 C   0  0  0  0  0  0  0  0  0  0  0  0
   45.1860   35.8020   43.2860 C   0  0  0  0  0  0  0  0  0  0  0  0
   46.1130   34.8120   43.0400 C   0  0  0  0  0  0  0  0  0  0  0  0
   46.3840   33.9200   44.0280 N   0  0  0  0  0  0  0  0  0  0  0  0
   45.7760   33.9760   45.2370 C   0  0  0  0  0  0  0  0  0  0  0  0
   44.8650   34.9470   45.4860 N   0  0  0  0  0  0  0  0  0  0  0  0
   46.0840   33.0110   46.2790 C   0  0  0  0  0  0  0  0  0  0  0  0
   45.3890   33.0400   47.4850 C   0  0  0  0  0  0  0  0  0  0  0  0
   45.6280   32.1500   48.5230 C   0  0  0  0  0  0  0  0  0  0  0  0
   46.6130   31.2470   48.2380 C   0  0  0  0  0  0  0  0  0  0  0  0
   47.3300   31.1750   47.0670 C   0  0  0  0  0  0  0  0  0  0  0  0
   47.0180   32.0870   46.1200 N   0  0  0  0  0  0  0  0  0  0  0  0
   44.3810   34.0350   47.6530 N   0  0  0  0  0  0  0  0  0  0  0  0
   46.7720   34.7610   41.7120 C   0  0  0  0  0  0  0  0  0  0  0  0
   48.1530   35.3960   41.7460 C   0  0  0  0  0  0  0  0  0  0  0  0
   49.2180   34.3790   41.8290 C   0  0  0  0  0  0  0  0  0  0  0  0
   50.3220   34.5660   42.5470 N   0  0  0  0  0  0  0  0  0  0  0  0
   51.0730   33.5200   42.4380 O   0  0  0  0  0  0  0  0  0  0  0  0
   50.4930   32.6240   41.6580 C   0  0  0  0  0  0  0  0  0  0  0  0
   49.3250   33.1700   41.2770 N   0  0  0  0  0  0  0  0  0  0  0  0
   51.1100   30.9980   41.1810 S   0  0  0  0  0  0  0  0  0  0  0  0
   43.8286   36.6238   44.7604 H   0  0  0  0  0  0  0  0  0  0  0  0
   44.9354   36.5439   42.5135 H   0  0  0  0  0  0  0  0  0  0  0  0
   45.0807   32.1697   49.4770 H   0  0  0  0  0  0  0  0  0  0  0  0
   46.8547   30.5094   49.0174 H   0  0  0  0  0  0  0  0  0  0  0  0
   48.1128   30.4183   46.9101 H   0  0  0  0  0  0  0  0  0  0  0  0
   43.8478   34.0845   48.5329 H   0  0  0  0  0  0  0  0  0  0  0  0
   44.1862   34.7040   46.8944 H   0  0  0  0  0  0  0  0  0  0  0  0
   46.1490   35.3009   40.9837 H   0  0  0  0  0  0  0  0  0  0  0  0
   46.8865   33.7051   41.4258 H   0  0  0  0  0  0  0  0  0  0  0  0
   48.2959   35.9882   40.8301 H   0  0  0  0  0  0  0  0  0  0  0  0
   48.2161   36.0330   42.6405 H   0  0  0  0  0  0  0  0  0  0  0  0
   51.3875   30.2668   42.3059 H   0  0  0  0  0  0  0  0  0  0  0  0
  1  6  2  0
  2  1  1  0
  3  2  2  0
  3  4  1  0
  4  5  2  0
  5  6  1  0
  5  7  1  0
  7  8  2  0
  8 13  1  0
  8  9  1  0
 10  9  2  0
 11 10  1  0
 12  7  1  0
 12 11  2  0
 14 15  1  0
 14  3  1  0
 15 16  1  0
 16 17  2  0
 18 17  1  0
 19 18  1  0
 20 19  2  0
 20 16  1  0
 21 19  1  0
  1 22  1  0
  2 23  1  0
  9 24  1  0
 10 25  1  0
 11 26  1  0
 13 27  1  0
 13 28  1  0
 14 29  1  0
 14 30  1  0
 15 31  1  0
 15 32  1  0
 21 33  1  0
M  ISO  8  22  14  23  14  24  14  25  14  26  14  29   8  30   8  31   8
M  ISO  2  32   8  33  11
M  END
>  <minimizedAffinity>  (1) 
-6.74181271

>  <minimizedRMSD>  (1) 
0.0396573097

$$$$
