
     RDKit          3D

 42 45  0  0  0  0  0  0  0  0999 V2000
   46.7140   34.7410   41.6920 C   0  0  0  0  0  0  0  0  0  0  0  0
   44.5780   35.8640   44.5610 C   0  0  0  0  0  0  0  0  0  0  0  0
   45.1750   35.8110   43.2900 C   0  0  0  0  0  0  0  0  0  0  0  0
   46.0740   34.8110   43.0310 C   0  0  0  0  0  0  0  0  0  0  0  0
   46.3490   33.9100   44.0200 N   0  0  0  0  0  0  0  0  0  0  0  0
   45.7620   33.9730   45.2440 C   0  0  0  0  0  0  0  0  0  0  0  0
   44.8680   34.9690   45.5040 N   0  0  0  0  0  0  0  0  0  0  0  0
   46.0680   33.0100   46.2740 C   0  0  0  0  0  0  0  0  0  0  0  0
   45.3730   33.0440   47.4770 C   0  0  0  0  0  0  0  0  0  0  0  0
   45.6120   32.1490   48.5150 C   0  0  0  0  0  0  0  0  0  0  0  0
   46.5910   31.2440   48.2270 C   0  0  0  0  0  0  0  0  0  0  0  0
   47.3120   31.1610   47.0560 C   0  0  0  0  0  0  0  0  0  0  0  0
   46.9940   32.0800   46.1220 N   0  0  0  0  0  0  0  0  0  0  0  0
   44.3780   34.0340   47.6560 N   0  0  0  0  0  0  0  0  0  0  0  0
   48.1050   35.3340   41.7050 C   0  0  0  0  0  0  0  0  0  0  0  0
   49.1470   34.3280   41.9860 C   0  0  0  0  0  0  0  0  0  0  0  0
   50.3690   34.6490   42.4300 N   0  0  0  0  0  0  0  0  0  0  0  0
   51.0540   33.5590   42.5800 O   0  0  0  0  0  0  0  0  0  0  0  0
   50.3120   32.5270   42.2440 C   0  0  0  0  0  0  0  0  0  0  0  0
   49.1040   32.9900   41.8650 N   0  0  0  0  0  0  0  0  0  0  0  0
   50.8490   31.2070   42.3240 N   0  0  0  0  0  0  0  0  0  0  0  0
   50.7740   30.2380   43.2500 N   0  0  0  0  0  0  0  0  0  0  0  0
   51.4630   29.1630   42.8510 C   0  0  0  0  0  0  0  0  0  0  0  0
   52.0000   29.4710   41.6090 C   0  0  0  0  0  0  0  0  0  0  0  0
   51.5910   30.7840   41.2970 C   0  0  0  0  0  0  0  0  0  0  0  0
   51.9750   31.4570   40.0460 C   0  0  0  0  0  0  0  0  0  0  0  0
   53.1880   31.4580   39.7130 O   0  0  0  0  0  0  0  0  0  0  0  0
   51.0400   32.0750   39.2480 O   0  0  0  0  0  0  0  0  0  0  0  0
   46.0960   35.2975   40.9720 H   0  0  0  0  0  0  0  0  0  0  0  0
   46.7955   33.6820   41.4059 H   0  0  0  0  0  0  0  0  0  0  0  0
   43.8548   36.6627   44.7822 H   0  0  0  0  0  0  0  0  0  0  0  0
   44.9257   36.5562   42.5202 H   0  0  0  0  0  0  0  0  0  0  0  0
   45.0671   32.1692   49.4703 H   0  0  0  0  0  0  0  0  0  0  0  0
   46.8286   30.5066   49.0079 H   0  0  0  0  0  0  0  0  0  0  0  0
   48.0903   30.4005   46.8948 H   0  0  0  0  0  0  0  0  0  0  0  0
   43.8495   34.0793   48.5389 H   0  0  0  0  0  0  0  0  0  0  0  0
   44.1822   34.7094   46.9034 H   0  0  0  0  0  0  0  0  0  0  0  0
   48.3056   35.7840   40.7215 H   0  0  0  0  0  0  0  0  0  0  0  0
   48.1403   36.0843   42.5086 H   0  0  0  0  0  0  0  0  0  0  0  0
   51.5811   28.2177   43.4010 H   0  0  0  0  0  0  0  0  0  0  0  0
   52.6260   28.8153   40.9860 H   0  0  0  0  0  0  0  0  0  0  0  0
   51.3216   32.5216   38.4105 H   0  0  0  0  0  0  0  0  0  0  0  0
  1 15  1  0
  1  4  1  0
  2  7  2  0
  3  2  1  0
  4  3  2  0
  4  5  1  0
  5  6  2  0
  6  7  1  0
  6  8  1  0
  8  9  2  0
  9 14  1  0
  9 10  1  0
 11 10  2  0
 12 11  1  0
 13  8  1  0
 13 12  2  0
 15 16  1  0
 16 17  2  0
 17 18  1  0
 19 21  1  0
 19 18  1  0
 20 16  1  0
 20 19  2  0
 21 22  1  0
 23 22  2  0
 24 23  1  0
 25 24  2  0
 25 21  1  0
 26 25  1  0
 27 26  2  0
 28 26  1  0
  1 29  1  0
  1 30  1  0
  2 31  1  0
  3 32  1  0
 10 33  1  0
 11 34  1  0
 12 35  1  0
 14 36  1  0
 14 37  1  0
 15 38  1  0
 15 39  1  0
 23 40  1  0
 24 41  1  0
 28 42  1  0
M  ISO  8  29   8  30   8  31  14  32  14  33  14  34  14  35  14  38   8
M  ISO  4  39   8  40  14  41  14  42   3
M  END
>  <minimizedAffinity>  (1) 
-7.42558002

>  <minimizedRMSD>  (1) 
0.799342871

$$$$
