
     RDKit          3D

 45 49  0  0  0  0  0  0  0  0999 V2000
   46.7370   34.7470   41.7070 C   0  0  0  0  0  0  0  0  0  0  0  0
   44.5830   35.8680   44.5540 C   0  0  0  0  0  0  0  0  0  0  0  0
   45.1860   35.8180   43.2890 C   0  0  0  0  0  0  0  0  0  0  0  0
   46.0900   34.8160   43.0360 C   0  0  0  0  0  0  0  0  0  0  0  0
   46.3610   33.9170   44.0260 N   0  0  0  0  0  0  0  0  0  0  0  0
   45.7680   33.9830   45.2430 C   0  0  0  0  0  0  0  0  0  0  0  0
   44.8680   34.9790   45.4950 N   0  0  0  0  0  0  0  0  0  0  0  0
   46.0690   33.0170   46.2830 C   0  0  0  0  0  0  0  0  0  0  0  0
   45.3670   33.0570   47.4810 C   0  0  0  0  0  0  0  0  0  0  0  0
   45.6030   32.1630   48.5210 C   0  0  0  0  0  0  0  0  0  0  0  0
   46.5820   31.2620   48.2370 C   0  0  0  0  0  0  0  0  0  0  0  0
   47.3110   31.1750   47.0700 C   0  0  0  0  0  0  0  0  0  0  0  0
   46.9960   32.0910   46.1340 N   0  0  0  0  0  0  0  0  0  0  0  0
   44.3690   34.0450   47.6490 N   0  0  0  0  0  0  0  0  0  0  0  0
   48.1480   35.2880   41.7320 C   0  0  0  0  0  0  0  0  0  0  0  0
   49.1480   34.2320   42.0050 C   0  0  0  0  0  0  0  0  0  0  0  0
   50.4100   34.5230   42.3930 N   0  0  0  0  0  0  0  0  0  0  0  0
   51.0460   33.4040   42.5540 O   0  0  0  0  0  0  0  0  0  0  0  0
   50.2320   32.3900   42.2810 C   0  0  0  0  0  0  0  0  0  0  0  0
   49.0030   32.8810   41.9260 N   0  0  0  0  0  0  0  0  0  0  0  0
   50.7080   31.0520   42.3850 N   0  0  0  0  0  0  0  0  0  0  0  0
   50.6490   30.1290   43.3530 N   0  0  0  0  0  0  0  0  0  0  0  0
   51.2610   29.0030   42.9750 C   0  0  0  0  0  0  0  0  0  0  0  0
   51.7340   29.2300   41.6940 C   0  0  0  0  0  0  0  0  0  0  0  0
   51.3670   30.5500   41.3360 C   0  0  0  0  0  0  0  0  0  0  0  0
   51.7790   31.0010   39.9890 C   0  0  0  0  0  0  0  0  0  0  0  0
   53.1220   31.0940   39.7930 C   0  0  0  0  0  0  0  0  0  0  0  0
   53.2470   31.6890   38.0540 S   0  0  0  0  0  0  0  0  0  0  0  0
   51.3580   31.7030   37.9000 C   0  0  0  0  0  0  0  0  0  0  0  0
   51.0270   31.3340   38.9650 N   0  0  0  0  0  0  0  0  0  0  0  0
   46.1437   35.3368   40.9928 H   0  0  0  0  0  0  0  0  0  0  0  0
   46.7853   33.6893   41.4086 H   0  0  0  0  0  0  0  0  0  0  0  0
   43.8558   36.6643   44.7707 H   0  0  0  0  0  0  0  0  0  0  0  0
   44.9408   36.5634   42.5181 H   0  0  0  0  0  0  0  0  0  0  0  0
   45.0546   32.1828   49.4743 H   0  0  0  0  0  0  0  0  0  0  0  0
   46.8164   30.5261   49.0202 H   0  0  0  0  0  0  0  0  0  0  0  0
   48.0909   30.4150   46.9150 H   0  0  0  0  0  0  0  0  0  0  0  0
   43.8356   34.0939   48.5288 H   0  0  0  0  0  0  0  0  0  0  0  0
   44.1756   34.7157   46.8916 H   0  0  0  0  0  0  0  0  0  0  0  0
   48.3704   35.7421   40.7551 H   0  0  0  0  0  0  0  0  0  0  0  0
   48.2106   36.0292   42.5423 H   0  0  0  0  0  0  0  0  0  0  0  0
   51.3676   28.0801   43.5640 H   0  0  0  0  0  0  0  0  0  0  0  0
   52.2919   28.5167   41.0695 H   0  0  0  0  0  0  0  0  0  0  0  0
   53.9343   30.8690   40.4998 H   0  0  0  0  0  0  0  0  0  0  0  0
   50.7344   31.9834   37.0383 H   0  0  0  0  0  0  0  0  0  0  0  0
  1 15  1  0
  1  4  1  0
  2  7  2  0
  3  2  1  0
  4  3  2  0
  4  5  1  0
  5  6  2  0
  6  7  1  0
  6  8  1  0
  8  9  2  0
  9 14  1  0
  9 10  1  0
 11 10  2  0
 12 11  1  0
 13  8  1  0
 13 12  2  0
 15 16  1  0
 16 17  2  0
 17 18  1  0
 19 21  1  0
 19 18  1  0
 20 16  1  0
 20 19  2  0
 21 22  1  0
 23 22  2  0
 24 23  1  0
 25 24  2  0
 25 21  1  0
 26 25  1  0
 27 26  2  0
 28 27  1  0
 29 28  1  0
 29 30  2  0
 30 26  1  0
  1 31  1  0
  1 32  1  0
  2 33  1  0
  3 34  1  0
 10 35  1  0
 11 36  1  0
 12 37  1  0
 14 38  1  0
 14 39  1  0
 15 40  1  0
 15 41  1  0
 23 42  1  0
 24 43  1  0
 27 44  1  0
 29 45  1  0
M  ISO  8  31   8  32   8  33  14  34  14  35  14  36  14  37  14  40   8
M  ISO  5  41   8  42  14  43  14  44  14  45  14
M  END
>  <minimizedAffinity>  (1) 
-7.4521246

>  <minimizedRMSD>  (1) 
1.16238618

$$$$
