
     RDKit          3D

 29 31  0  0  0  0  0  0  0  0999 V2000
   45.4490   33.7260   45.4120 N   0  0  0  0  0  0  0  0  0  0  0  0
   44.9470   34.9950   45.3120 C   0  0  0  0  0  0  0  0  0  0  0  0
   44.6080   35.2540   44.0320 N   0  0  0  0  0  0  0  0  0  0  0  0
   44.8990   34.1400   43.3240 C   0  0  0  0  0  0  0  0  0  0  0  0
   45.4120   33.2160   44.1830 N   0  0  0  0  0  0  0  0  0  0  0  0
   45.1510   33.0230   47.7030 C   0  0  0  0  0  0  0  0  0  0  0  0
   45.9290   33.0220   46.5450 C   0  0  0  0  0  0  0  0  0  0  0  0
   47.1460   32.3250   46.5630 C   0  0  0  0  0  0  0  0  0  0  0  0
   47.5090   31.6840   47.7070 N   0  0  0  0  0  0  0  0  0  0  0  0
   46.7320   31.7050   48.8080 C   0  0  0  0  0  0  0  0  0  0  0  0
   45.5710   32.3730   48.7840 N   0  0  0  0  0  0  0  0  0  0  0  0
   44.8980   32.9590   39.2960 C   0  0  0  0  0  0  0  0  0  0  0  0
   46.0830   33.3240   39.9320 C   0  0  0  0  0  0  0  0  0  0  0  0
   46.0280   33.7050   41.2600 C   0  0  0  0  0  0  0  0  0  0  0  0
   44.7990   33.7110   41.9120 C   0  0  0  0  0  0  0  0  0  0  0  0
   43.6300   33.3560   41.3060 C   0  0  0  0  0  0  0  0  0  0  0  0
   43.6980   32.9780   39.9800 C   0  0  0  0  0  0  0  0  0  0  0  0
   45.0270   32.4850   37.6150 S   0  0  0  0  0  0  0  0  0  0  0  0
   45.2600   33.6960   36.7550 O   0  0  0  0  0  0  0  0  0  0  0  0
   43.7250   31.8570   37.2060 O   0  0  0  0  0  0  0  0  0  0  0  0
   44.8363   35.6989   46.1500 H   0  0  0  0  0  0  0  0  0  0  0  0
   44.1916   33.5607   47.7216 H   0  0  0  0  0  0  0  0  0  0  0  0
   47.7919   32.2972   45.6730 H   0  0  0  0  0  0  0  0  0  0  0  0
   47.0488   31.1774   49.7198 H   0  0  0  0  0  0  0  0  0  0  0  0
   47.0401   33.3093   39.3900 H   0  0  0  0  0  0  0  0  0  0  0  0
   46.9436   33.9994   41.7938 H   0  0  0  0  0  0  0  0  0  0  0  0
   42.6742   33.3702   41.8503 H   0  0  0  0  0  0  0  0  0  0  0  0
   42.7760   32.6854   39.4564 H   0  0  0  0  0  0  0  0  0  0  0  0
   46.0705   31.6106   37.4614 H   0  0  0  0  0  0  0  0  0  0  0  0
  1  7  1  0
  2  1  1  0
  3  2  2  0
  4  3  1  0
  4  5  2  0
  5  1  1  0
  6 11  2  0
  7  8  2  0
  7  6  1  0
  8  9  1  0
  9 10  2  0
 11 10  1  0
 12 13  2  0
 12 17  1  0
 13 14  1  0
 14 15  2  0
 15  4  1  0
 16 15  1  0
 17 16  2  0
 18 12  1  0
 19 18  2  0
 20 18  2  0
  2 21  1  0
  6 22  1  0
  8 23  1  0
 10 24  1  0
 13 25  1  0
 14 26  1  0
 16 27  1  0
 17 28  1  0
 18 29  1  0
M  ISO  8  21  14  22  14  23  14  24  14  25  14  26  14  27  14  28  14
M  ISO  1  29  11
M  END
>  <minimizedAffinity>  (1) 
-4.57083464

>  <minimizedRMSD>  (1) 
3.86061907

$$$$
