
     RDKit          3D

 44 48  0  0  0  0  0  0  0  0999 V2000
   46.7690   34.7440   41.7300 C   0  0  0  0  0  0  0  0  0  0  0  0
   44.5820   35.8440   44.5590 C   0  0  0  0  0  0  0  0  0  0  0  0
   45.1950   35.7990   43.3010 C   0  0  0  0  0  0  0  0  0  0  0  0
   46.1110   34.8050   43.0580 C   0  0  0  0  0  0  0  0  0  0  0  0
   46.3770   33.9120   44.0500 N   0  0  0  0  0  0  0  0  0  0  0  0
   45.7750   33.9670   45.2650 C   0  0  0  0  0  0  0  0  0  0  0  0
   44.8650   34.9560   45.5050 N   0  0  0  0  0  0  0  0  0  0  0  0
   46.0720   33.0130   46.3000 C   0  0  0  0  0  0  0  0  0  0  0  0
   45.3690   33.0430   47.5050 C   0  0  0  0  0  0  0  0  0  0  0  0
   45.6140   32.1490   48.5370 C   0  0  0  0  0  0  0  0  0  0  0  0
   46.5900   31.2530   48.2640 C   0  0  0  0  0  0  0  0  0  0  0  0
   47.3200   31.1660   47.1030 C   0  0  0  0  0  0  0  0  0  0  0  0
   47.0080   32.0840   46.1540 N   0  0  0  0  0  0  0  0  0  0  0  0
   44.3660   34.0330   47.6680 N   0  0  0  0  0  0  0  0  0  0  0  0
   48.1840   35.2790   41.7600 C   0  0  0  0  0  0  0  0  0  0  0  0
   49.1800   34.2180   42.0090 C   0  0  0  0  0  0  0  0  0  0  0  0
   50.4550   34.4710   42.3400 N   0  0  0  0  0  0  0  0  0  0  0  0
   51.0710   33.3420   42.4890 O   0  0  0  0  0  0  0  0  0  0  0  0
   50.2340   32.3410   42.2630 C   0  0  0  0  0  0  0  0  0  0  0  0
   49.0350   32.8800   41.9580 N   0  0  0  0  0  0  0  0  0  0  0  0
   50.6970   30.9940   42.3690 N   0  0  0  0  0  0  0  0  0  0  0  0
   50.6490   30.0830   43.3290 N   0  0  0  0  0  0  0  0  0  0  0  0
   51.2490   28.9530   42.9070 C   0  0  0  0  0  0  0  0  0  0  0  0
   51.6930   29.1840   41.6080 C   0  0  0  0  0  0  0  0  0  0  0  0
   51.3260   30.4920   41.2930 C   0  0  0  0  0  0  0  0  0  0  0  0
   51.6500   31.0540   39.9800 C   0  0  0  0  0  0  0  0  0  0  0  0
   50.9830   31.5180   38.9320 N   0  0  0  0  0  0  0  0  0  0  0  0
   51.8330   31.9040   38.0080 O   0  0  0  0  0  0  0  0  0  0  0  0
   53.0750   31.7020   38.4350 C   0  0  0  0  0  0  0  0  0  0  0  0
   52.9560   31.1720   39.6650 N   0  0  0  0  0  0  0  0  0  0  0  0
   46.1811   35.3409   41.0172 H   0  0  0  0  0  0  0  0  0  0  0  0
   46.8173   33.6871   41.4289 H   0  0  0  0  0  0  0  0  0  0  0  0
   43.8472   36.6351   44.7691 H   0  0  0  0  0  0  0  0  0  0  0  0
   44.9492   36.5409   42.5270 H   0  0  0  0  0  0  0  0  0  0  0  0
   45.0649   32.1670   49.4900 H   0  0  0  0  0  0  0  0  0  0  0  0
   46.8228   30.5202   49.0506 H   0  0  0  0  0  0  0  0  0  0  0  0
   48.1015   30.4064   46.9538 H   0  0  0  0  0  0  0  0  0  0  0  0
   43.8288   34.0823   48.5454 H   0  0  0  0  0  0  0  0  0  0  0  0
   44.1750   34.7025   46.9089 H   0  0  0  0  0  0  0  0  0  0  0  0
   48.4044   35.7504   40.7909 H   0  0  0  0  0  0  0  0  0  0  0  0
   48.2518   36.0039   42.5846 H   0  0  0  0  0  0  0  0  0  0  0  0
   51.3661   28.0222   43.4813 H   0  0  0  0  0  0  0  0  0  0  0  0
   52.2275   28.4751   40.9586 H   0  0  0  0  0  0  0  0  0  0  0  0
   54.0072   31.9226   37.8943 H   0  0  0  0  0  0  0  0  0  0  0  0
  1 15  1  0
  1  4  1  0
  2  7  2  0
  3  2  1  0
  4  3  2  0
  4  5  1  0
  5  6  2  0
  6  7  1  0
  6  8  1  0
  8  9  2  0
  9 14  1  0
  9 10  1  0
 11 10  2  0
 12 11  1  0
 13  8  1  0
 13 12  2  0
 15 16  1  0
 16 17  2  0
 17 18  1  0
 19 21  1  0
 19 18  1  0
 20 16  1  0
 20 19  2  0
 21 22  1  0
 23 22  2  0
 24 23  1  0
 25 24  2  0
 25 21  1  0
 26 25  1  0
 27 26  2  0
 28 29  1  0
 28 27  1  0
 29 30  2  0
 30 26  1  0
  1 31  1  0
  1 32  1  0
  2 33  1  0
  3 34  1  0
 10 35  1  0
 11 36  1  0
 12 37  1  0
 14 38  1  0
 14 39  1  0
 15 40  1  0
 15 41  1  0
 23 42  1  0
 24 43  1  0
 29 44  1  0
M  ISO  8  31   8  32   8  33  14  34  14  35  14  36  14  37  14  40   8
M  ISO  4  41   8  42  14  43  14  44  14
M  END
>  <minimizedAffinity>  (1) 
-7.39730835

>  <minimizedRMSD>  (1) 
1.15823674

$$$$
