
     RDKit          3D

 36 38  0  0  0  0  0  0  0  0999 V2000
   50.7370   32.9440   41.9620 C   0  0  0  0  0  0  0  0  0  0  0  0
   50.7140   31.5340   41.8320 C   0  0  0  0  0  0  0  0  0  0  0  0
   49.6020   30.8520   42.3240 C   0  0  0  0  0  0  0  0  0  0  0  0
   48.5970   31.5750   42.9060 N   0  0  0  0  0  0  0  0  0  0  0  0
   48.6550   32.9260   43.0130 C   0  0  0  0  0  0  0  0  0  0  0  0
   49.7130   33.5860   42.5450 N   0  0  0  0  0  0  0  0  0  0  0  0
   47.5290   33.5210   43.6430 N   0  0  0  0  0  0  0  0  0  0  0  0
   47.1890   33.0100   44.8410 C   0  0  0  0  0  0  0  0  0  0  0  0
   46.1010   33.5200   45.5450 C   0  0  0  0  0  0  0  0  0  0  0  0
   45.3800   34.5480   45.0010 C   0  0  0  0  0  0  0  0  0  0  0  0
   44.3920   35.0340   45.6070 O   0  0  0  0  0  0  0  0  0  0  0  0
   45.7400   35.0470   43.7930 N   0  0  0  0  0  0  0  0  0  0  0  0
   46.8060   34.5350   43.1230 C   0  0  0  0  0  0  0  0  0  0  0  0
   47.1580   34.9880   41.9940 O   0  0  0  0  0  0  0  0  0  0  0  0
   45.7590   32.9190   46.8780 C   0  0  0  0  0  0  0  0  0  0  0  0
   44.9730   36.1440   43.2130 C   0  0  0  0  0  0  0  0  0  0  0  0
   43.7270   35.5290   42.5910 C   0  0  0  0  0  0  0  0  0  0  0  0
   43.8240   35.4880   41.0870 C   0  0  0  0  0  0  0  0  0  0  0  0
   43.9470   34.1990   40.3480 C   0  0  0  0  0  0  0  0  0  0  0  0
   42.6230   34.9330   40.3910 C   0  0  0  0  0  0  0  0  0  0  0  0
   51.5976   33.5151   41.5836 H   0  0  0  0  0  0  0  0  0  0  0  0
   51.5469   30.9941   41.3580 H   0  0  0  0  0  0  0  0  0  0  0  0
   49.5342   29.7569   42.2459 H   0  0  0  0  0  0  0  0  0  0  0  0
   47.7754   32.1828   45.2674 H   0  0  0  0  0  0  0  0  0  0  0  0
   46.1308   33.5724   47.6810 H   0  0  0  0  0  0  0  0  0  0  0  0
   44.6672   32.8164   46.9647 H   0  0  0  0  0  0  0  0  0  0  0  0
   46.2284   31.9280   46.9647 H   0  0  0  0  0  0  0  0  0  0  0  0
   44.6899   36.8634   43.9955 H   0  0  0  0  0  0  0  0  0  0  0  0
   45.5648   36.6841   42.4593 H   0  0  0  0  0  0  0  0  0  0  0  0
   43.6073   34.5032   42.9697 H   0  0  0  0  0  0  0  0  0  0  0  0
   42.8616   36.1504   42.8646 H   0  0  0  0  0  0  0  0  0  0  0  0
   44.4231   36.4101   41.0593 H   0  0  0  0  0  0  0  0  0  0  0  0
   44.0727   33.2566   40.9012 H   0  0  0  0  0  0  0  0  0  0  0  0
   44.6011   33.8166   39.5506 H   0  0  0  0  0  0  0  0  0  0  0  0
   42.2342   35.4230   39.4862 H   0  0  0  0  0  0  0  0  0  0  0  0
   41.5962   34.6755   40.6899 H   0  0  0  0  0  0  0  0  0  0  0  0
  1  6  2  0
  2  1  1  0
  2  3  2  0
  3  4  1  0
  4  5  2  0
  5  7  1  0
  6  5  1  0
  7  8  1  0
  8  9  2  0
  9 15  1  0
 10  9  1  0
 10 11  2  0
 12 10  1  0
 13  7  1  0
 13 12  1  0
 14 13  2  0
 16 12  1  0
 17 16  1  0
 18 17  1  0
 19 20  1  0
 19 18  1  0
 20 18  1  0
  1 21  1  0
  2 22  1  0
  3 23  1  0
  8 24  1  0
 15 25  1  0
 15 26  1  0
 15 27  1  0
 16 28  1  0
 16 29  1  0
 17 30  1  0
 17 31  1  0
 18 32  1  0
 19 33  1  0
 19 34  1  0
 20 35  1  0
 20 36  1  0
M  ISO  8  21  14  22  14  23  14  24  14  25   8  26   8  27   8  28   8
M  ISO  8  29   8  30   8  31   8  32  13  33  13  34  13  35  13  36  13
M  END
>  <minimizedAffinity>  (1) 
-5.16060495

>  <minimizedRMSD>  (1) 
0.823557615

$$$$
