
     RDKit          3D

 30 31  0  0  0  0  0  0  0  0999 V2000
   50.8110   32.9150   41.9940 C   0  0  0  0  0  0  0  0  0  0  0  0
   50.7610   31.4990   41.8520 C   0  0  0  0  0  0  0  0  0  0  0  0
   49.6260   30.8420   42.3040 C   0  0  0  0  0  0  0  0  0  0  0  0
   48.6120   31.5740   42.8630 N   0  0  0  0  0  0  0  0  0  0  0  0
   48.7010   32.9290   42.9800 C   0  0  0  0  0  0  0  0  0  0  0  0
   49.7840   33.5540   42.5480 N   0  0  0  0  0  0  0  0  0  0  0  0
   47.5710   33.5390   43.5790 N   0  0  0  0  0  0  0  0  0  0  0  0
   47.1930   33.0290   44.7640 C   0  0  0  0  0  0  0  0  0  0  0  0
   46.0880   33.5540   45.4490 C   0  0  0  0  0  0  0  0  0  0  0  0
   45.4010   34.5990   44.8830 C   0  0  0  0  0  0  0  0  0  0  0  0
   44.4030   35.0950   45.4720 O   0  0  0  0  0  0  0  0  0  0  0  0
   45.8060   35.0990   43.6770 N   0  0  0  0  0  0  0  0  0  0  0  0
   46.8690   34.5760   43.0440 C   0  0  0  0  0  0  0  0  0  0  0  0
   47.2700   35.0160   41.9260 O   0  0  0  0  0  0  0  0  0  0  0  0
   45.6980   32.9580   46.7670 C   0  0  0  0  0  0  0  0  0  0  0  0
   45.0630   36.1970   43.1100 C   0  0  0  0  0  0  0  0  0  0  0  0
   43.9820   35.6180   42.2310 C   0  0  0  0  0  0  0  0  0  0  0  0
   42.7560   35.5570   42.8540 O   0  0  0  0  0  0  0  0  0  0  0  0
   51.6918   33.4760   41.6484 H   0  0  0  0  0  0  0  0  0  0  0  0
   51.5955   30.9441   41.3985 H   0  0  0  0  0  0  0  0  0  0  0  0
   49.5414   29.7489   42.2148 H   0  0  0  0  0  0  0  0  0  0  0  0
   47.7564   32.1912   45.2007 H   0  0  0  0  0  0  0  0  0  0  0  0
   46.1021   33.5756   47.5826 H   0  0  0  0  0  0  0  0  0  0  0  0
   44.6012   32.9222   46.8430 H   0  0  0  0  0  0  0  0  0  0  0  0
   46.1043   31.9386   46.8430 H   0  0  0  0  0  0  0  0  0  0  0  0
   44.6106   36.7970   43.9133 H   0  0  0  0  0  0  0  0  0  0  0  0
   45.7276   36.8479   42.5230 H   0  0  0  0  0  0  0  0  0  0  0  0
   44.2770   34.5997   41.9377 H   0  0  0  0  0  0  0  0  0  0  0  0
   43.8755   36.2821   41.3605 H   0  0  0  0  0  0  0  0  0  0  0  0
   42.8840   35.5634   43.8357 H   0  0  0  0  0  0  0  0  0  0  0  0
  1  6  2  0
  2  1  1  0
  2  3  2  0
  3  4  1  0
  4  5  2  0
  5  7  1  0
  6  5  1  0
  7  8  1  0
  8  9  2  0
  9 15  1  0
 10  9  1  0
 10 11  2  0
 12 10  1  0
 13  7  1  0
 13 12  1  0
 14 13  2  0
 16 12  1  0
 17 18  1  0
 17 16  1  0
  1 19  1  0
  2 20  1  0
  3 21  1  0
  8 22  1  0
 15 23  1  0
 15 24  1  0
 15 25  1  0
 16 26  1  0
 16 27  1  0
 17 28  1  0
 17 29  1  0
 18 30  1  0
M  ISO  8  19  14  20  14  21  14  22  14  23   8  24   8  25   8  26   8
M  ISO  4  27   8  28   8  29   8  30   3
M  END
>  <minimizedAffinity>  (1) 
-5.18068314

>  <minimizedRMSD>  (1) 
0.427305937

$$$$
