
     RDKit          3D

 44 46  0  0  0  0  0  0  0  0999 V2000
   49.6190   34.6270   42.9140 C   0  0  0  0  0  0  0  0  0  0  0  0
   50.5100   33.7570   42.2290 C   0  0  0  0  0  0  0  0  0  0  0  0
   49.9730   32.6280   41.5990 C   0  0  0  0  0  0  0  0  0  0  0  0
   48.6240   32.4300   41.6800 N   0  0  0  0  0  0  0  0  0  0  0  0
   47.8040   33.2790   42.3420 C   0  0  0  0  0  0  0  0  0  0  0  0
   48.3190   34.3390   42.9310 N   0  0  0  0  0  0  0  0  0  0  0  0
   46.4250   32.9220   42.3270 N   0  0  0  0  0  0  0  0  0  0  0  0
   46.1600   31.6560   42.7230 C   0  0  0  0  0  0  0  0  0  0  0  0
   44.8420   31.1860   42.7540 C   0  0  0  0  0  0  0  0  0  0  0  0
   43.8340   32.0330   42.3740 C   0  0  0  0  0  0  0  0  0  0  0  0
   42.6400   31.6590   42.3830 O   0  0  0  0  0  0  0  0  0  0  0  0
   44.1280   33.2920   41.9820 N   0  0  0  0  0  0  0  0  0  0  0  0
   45.4130   33.7360   41.9580 C   0  0  0  0  0  0  0  0  0  0  0  0
   45.7300   34.9060   41.5990 O   0  0  0  0  0  0  0  0  0  0  0  0
   44.5790   29.7800   43.1960 C   0  0  0  0  0  0  0  0  0  0  0  0
   43.0610   34.1970   41.5770 C   0  0  0  0  0  0  0  0  0  0  0  0
   42.9370   34.0880   40.0690 C   0  0  0  0  0  0  0  0  0  0  0  0
   42.1170   35.1580   39.5310 N   0  0  0  0  0  0  0  0  0  0  0  0
   40.7840   35.1690   40.0430 C   0  0  0  0  0  0  0  0  0  0  0  0
   39.9440   34.2290   39.1970 C   0  0  0  0  0  0  0  0  0  0  0  0
   39.8980   34.7500   37.7860 C   0  0  0  0  0  0  0  0  0  0  0  0
   40.9000   35.8770   37.6280 C   0  0  0  0  0  0  0  0  0  0  0  0
   42.2340   35.2980   38.1160 C   0  0  0  0  0  0  0  0  0  0  0  0
   49.9979   35.5256   43.4229 H   0  0  0  0  0  0  0  0  0  0  0  0
   51.5897   33.9646   42.1949 H   0  0  0  0  0  0  0  0  0  0  0  0
   50.6178   31.9219   41.0553 H   0  0  0  0  0  0  0  0  0  0  0  0
   46.9847   30.9924   43.0222 H   0  0  0  0  0  0  0  0  0  0  0  0
   44.5709   29.7366   44.2951 H   0  0  0  0  0  0  0  0  0  0  0  0
   43.6036   29.4503   42.8088 H   0  0  0  0  0  0  0  0  0  0  0  0
   45.3693   29.1200   42.8088 H   0  0  0  0  0  0  0  0  0  0  0  0
   42.1150   33.9044   42.0561 H   0  0  0  0  0  0  0  0  0  0  0  0
   43.2863   35.2304   41.8791 H   0  0  0  0  0  0  0  0  0  0  0  0
   43.9402   34.1451   39.6214 H   0  0  0  0  0  0  0  0  0  0  0  0
   42.4586   33.1274   39.8274 H   0  0  0  0  0  0  0  0  0  0  0  0
   40.7840   34.8291   41.0892 H   0  0  0  0  0  0  0  0  0  0  0  0
   40.3703   36.1875   40.0046 H   0  0  0  0  0  0  0  0  0  0  0  0
   40.3929   33.2248   39.2050 H   0  0  0  0  0  0  0  0  0  0  0  0
   38.9244   34.1715   39.6057 H   0  0  0  0  0  0  0  0  0  0  0  0
   40.1472   33.9377   37.0873 H   0  0  0  0  0  0  0  0  0  0  0  0
   38.8875   35.1258   37.5677 H   0  0  0  0  0  0  0  0  0  0  0  0
   40.9743   36.1825   36.5739 H   0  0  0  0  0  0  0  0  0  0  0  0
   40.6067   36.7717   38.1968 H   0  0  0  0  0  0  0  0  0  0  0  0
   42.4169   34.3184   37.6503 H   0  0  0  0  0  0  0  0  0  0  0  0
   43.0758   35.9532   37.8477 H   0  0  0  0  0  0  0  0  0  0  0  0
  1  6  2  0
  2  1  1  0
  3  4  1  0
  3  2  2  0
  4  5  2  0
  5  6  1  0
  7  5  1  0
  7  8  1  0
  8  9  2  0
  9 15  1  0
 10 11  2  0
 10  9  1  0
 12 10  1  0
 13 12  1  0
 13  7  1  0
 14 13  2  0
 16 12  1  0
 17 16  1  0
 18 19  1  0
 18 17  1  0
 20 19  1  0
 21 20  1  0
 22 21  1  0
 22 23  1  0
 23 18  1  0
  1 24  1  0
  2 25  1  0
  3 26  1  0
  8 27  1  0
 15 28  1  0
 15 29  1  0
 15 30  1  0
 16 31  1  0
 16 32  1  0
 17 33  1  0
 17 34  1  0
 19 35  1  0
 19 36  1  0
 20 37  1  0
 20 38  1  0
 21 39  1  0
 21 40  1  0
 22 41  1  0
 22 42  1  0
 23 43  1  0
 23 44  1  0
M  ISO  8  24  14  25  14  26  14  27  14  28   8  29   8  30   8  31   8
M  ISO  8  32   8  33   8  34   8  35  13  36  13  37  13  38  13  39  13
M  ISO  5  40  13  41  13  42  13  43  13  44  13
M  END
>  <minimizedAffinity>  (1) 
-5.18749142

>  <minimizedRMSD>  (1) 
2.88397884

$$$$
