
     RDKit          3D

 42 44  0  0  0  0  0  0  0  0999 V2000
   50.5790   33.5240   42.4610 C   0  0  0  0  0  0  0  0  0  0  0  0
   51.1900   32.5230   41.6730 C   0  0  0  0  0  0  0  0  0  0  0  0
   50.3630   31.5980   41.0580 C   0  0  0  0  0  0  0  0  0  0  0  0
   49.0060   31.6860   41.2350 N   0  0  0  0  0  0  0  0  0  0  0  0
   48.4540   32.6570   41.9960 C   0  0  0  0  0  0  0  0  0  0  0  0
   49.2490   33.5480   42.5870 N   0  0  0  0  0  0  0  0  0  0  0  0
   47.0490   32.6180   42.0810 N   0  0  0  0  0  0  0  0  0  0  0  0
   46.5300   31.4150   42.4580 C   0  0  0  0  0  0  0  0  0  0  0  0
   45.1420   31.2620   42.5760 C   0  0  0  0  0  0  0  0  0  0  0  0
   44.3250   32.3180   42.3140 C   0  0  0  0  0  0  0  0  0  0  0  0
   43.0840   32.2130   42.4100 O   0  0  0  0  0  0  0  0  0  0  0  0
   44.8790   33.5110   41.9390 N   0  0  0  0  0  0  0  0  0  0  0  0
   46.2150   33.6450   41.8280 C   0  0  0  0  0  0  0  0  0  0  0  0
   46.7570   34.7390   41.4820 O   0  0  0  0  0  0  0  0  0  0  0  0
   44.6050   29.9200   43.0030 C   0  0  0  0  0  0  0  0  0  0  0  0
   44.0020   34.6360   41.6610 C   0  0  0  0  0  0  0  0  0  0  0  0
   43.6700   34.5940   40.1880 C   0  0  0  0  0  0  0  0  0  0  0  0
   42.2940   35.2020   40.0360 C   0  0  0  0  0  0  0  0  0  0  0  0
   41.5290   35.3120   41.3150 C   0  0  0  0  0  0  0  0  0  0  0  0
   40.0490   35.1620   40.9420 C   0  0  0  0  0  0  0  0  0  0  0  0
   40.0480   35.0780   39.4240 C   0  0  0  0  0  0  0  0  0  0  0  0
   41.3730   34.3480   39.1910 C   0  0  0  0  0  0  0  0  0  0  0  0
   51.1956   34.2804   42.9686 H   0  0  0  0  0  0  0  0  0  0  0  0
   52.2825   32.4800   41.5524 H   0  0  0  0  0  0  0  0  0  0  0  0
   50.7907   30.8000   40.4333 H   0  0  0  0  0  0  0  0  0  0  0  0
   47.1985   30.5673   42.6689 H   0  0  0  0  0  0  0  0  0  0  0  0
   44.5835   29.8663   44.1015 H   0  0  0  0  0  0  0  0  0  0  0  0
   43.5859   29.7908   42.6096 H   0  0  0  0  0  0  0  0  0  0  0  0
   45.2536   29.1235   42.6096 H   0  0  0  0  0  0  0  0  0  0  0  0
   43.0812   34.5516   42.2569 H   0  0  0  0  0  0  0  0  0  0  0  0
   44.4920   35.5855   41.9227 H   0  0  0  0  0  0  0  0  0  0  0  0
   44.4073   35.1767   39.6163 H   0  0  0  0  0  0  0  0  0  0  0  0
   43.6915   33.5625   39.8065 H   0  0  0  0  0  0  0  0  0  0  0  0
   42.5253   36.1841   39.5979 H   0  0  0  0  0  0  0  0  0  0  0  0
   41.8301   34.5138   42.0094 H   0  0  0  0  0  0  0  0  0  0  0  0
   41.7210   36.2724   41.8158 H   0  0  0  0  0  0  0  0  0  0  0  0
   39.6274   34.2466   41.3827 H   0  0  0  0  0  0  0  0  0  0  0  0
   39.4359   35.9951   41.3161 H   0  0  0  0  0  0  0  0  0  0  0  0
   39.1920   34.4979   39.0488 H   0  0  0  0  0  0  0  0  0  0  0  0
   39.9581   36.0458   38.9089 H   0  0  0  0  0  0  0  0  0  0  0  0
   41.3356   33.3090   39.5501 H   0  0  0  0  0  0  0  0  0  0  0  0
   41.6693   34.2499   38.1362 H   0  0  0  0  0  0  0  0  0  0  0  0
  1  6  2  0
  2  1  1  0
  3  4  1  0
  3  2  2  0
  4  5  2  0
  5  7  1  0
  5  6  1  0
  7  8  1  0
  8  9  2  0
  9 15  1  0
 10 11  2  0
 10  9  1  0
 12 10  1  0
 13 12  1  0
 13  7  1  0
 14 13  2  0
 16 12  1  0
 17 16  1  0
 18 17  1  0
 18 19  1  0
 20 19  1  0
 21 20  1  0
 22 21  1  0
 22 18  1  0
  1 23  1  0
  2 24  1  0
  3 25  1  0
  8 26  1  0
 15 27  1  0
 15 28  1  0
 15 29  1  0
 16 30  1  0
 16 31  1  0
 17 32  1  0
 17 33  1  0
 18 34  1  0
 19 35  1  0
 19 36  1  0
 20 37  1  0
 20 38  1  0
 21 39  1  0
 21 40  1  0
 22 41  1  0
 22 42  1  0
M  ISO  8  23  14  24  14  25  14  26  14  27   8  28   8  29   8  30   8
M  ISO  8  31   8  32   8  33   8  34  13  35  13  36  13  37  13  38  13
M  ISO  4  39  13  40  13  41  13  42  13
M  END
>  <minimizedAffinity>  (1) 
-4.66749716

>  <minimizedRMSD>  (1) 
2.9754107

$$$$
