
     RDKit          3D

 23 24  0  0  0  0  0  0  0  0999 V2000
   43.6300   34.6600   41.4820 N   0  0  0  0  0  0  0  0  0  0  0  0
   42.4980   35.3270   41.1240 C   0  0  0  0  0  0  0  0  0  0  0  0
   42.3230   35.1990   39.7840 N   0  0  0  0  0  0  0  0  0  0  0  0
   43.3470   34.4520   39.3230 C   0  0  0  0  0  0  0  0  0  0  0  0
   44.1270   34.1350   40.3700 N   0  0  0  0  0  0  0  0  0  0  0  0
   43.5570   34.0700   37.9640 N   0  0  0  0  0  0  0  0  0  0  0  0
   44.6820   33.2790   37.6200 C   0  0  0  0  0  0  0  0  0  0  0  0
   45.2000   32.5000   38.5220 N   0  0  0  0  0  0  0  0  0  0  0  0
   45.1720   33.3990   36.2790 N   0  0  0  0  0  0  0  0  0  0  0  0
   46.0430   31.9240   38.2240 H   0  0  0  0  0  0  0  0  0  0  0  0
   44.2260   35.5700   43.6290 C   0  0  0  0  0  0  0  0  0  0  0  0
   44.2580   34.4830   42.7520 C   0  0  0  0  0  0  0  0  0  0  0  0
   44.8890   33.3120   43.1650 C   0  0  0  0  0  0  0  0  0  0  0  0
   45.4450   33.2800   44.3980 N   0  0  0  0  0  0  0  0  0  0  0  0
   45.4010   34.3470   45.2270 C   0  0  0  0  0  0  0  0  0  0  0  0
   44.7930   35.4800   44.8360 N   0  0  0  0  0  0  0  0  0  0  0  0
   41.8353   35.8781   41.8074 H   0  0  0  0  0  0  0  0  0  0  0  0
   42.8930   34.3682   37.2352 H   0  0  0  0  0  0  0  0  0  0  0  0
   45.9871   32.8464   35.9772 H   0  0  0  0  0  0  0  0  0  0  0  0
   44.7091   34.0379   35.6168 H   0  0  0  0  0  0  0  0  0  0  0  0
   43.7318   36.5044   43.3247 H   0  0  0  0  0  0  0  0  0  0  0  0
   44.9342   32.4338   42.5042 H   0  0  0  0  0  0  0  0  0  0  0  0
   45.8636   34.2877   46.2232 H   0  0  0  0  0  0  0  0  0  0  0  0
  1 12  1  0
  2  1  1  0
  3  2  2  0
  4  3  1  0
  4  5  2  0
  5  1  1  0
  6  4  1  0
  7  6  1  0
  7  8  2  0
  9  7  1  0
 10  8  1  0
 11 16  2  0
 12 13  2  0
 12 11  1  0
 13 14  1  0
 14 15  2  0
 16 15  1  0
  2 17  1  0
  6 18  1  0
  9 19  1  0
  9 20  1  0
 11 21  1  0
 13 22  1  0
 15 23  1  0
M  ISO  4  17  14  21  14  22  14  23  14
M  END
>  <minimizedAffinity>  (1) 
-4.46520519

>  <minimizedRMSD>  (1) 
1.02079737

$$$$
