
     RDKit          3D

 44 46  0  0  0  0  0  0  0  0999 V2000
   50.8040   33.0430   42.0620 C   0  0  0  0  0  0  0  0  0  0  0  0
   50.8090   31.6210   42.0050 C   0  0  0  0  0  0  0  0  0  0  0  0
   49.6880   30.9420   42.4810 C   0  0  0  0  0  0  0  0  0  0  0  0
   48.6430   31.6720   42.9770 N   0  0  0  0  0  0  0  0  0  0  0  0
   48.6750   33.0290   43.0150 C   0  0  0  0  0  0  0  0  0  0  0  0
   49.7390   33.6720   42.5630 N   0  0  0  0  0  0  0  0  0  0  0  0
   47.5210   33.6330   43.5580 N   0  0  0  0  0  0  0  0  0  0  0  0
   47.1230   33.1720   44.7710 C   0  0  0  0  0  0  0  0  0  0  0  0
   46.0050   33.6910   45.4060 C   0  0  0  0  0  0  0  0  0  0  0  0
   45.2960   34.6890   44.7850 C   0  0  0  0  0  0  0  0  0  0  0  0
   44.2810   35.1950   45.3140 O   0  0  0  0  0  0  0  0  0  0  0  0
   45.7120   35.1420   43.5580 N   0  0  0  0  0  0  0  0  0  0  0  0
   46.8000   34.6180   42.9690 C   0  0  0  0  0  0  0  0  0  0  0  0
   47.2060   35.0170   41.8380 O   0  0  0  0  0  0  0  0  0  0  0  0
   45.5880   33.1590   46.7290 C   0  0  0  0  0  0  0  0  0  0  0  0
   44.9400   36.1870   42.9210 C   0  0  0  0  0  0  0  0  0  0  0  0
   43.9310   35.5480   42.0240 C   0  0  0  0  0  0  0  0  0  0  0  0
   42.6040   35.4500   42.5310 N   0  0  0  0  0  0  0  0  0  0  0  0
   41.5860   35.2850   41.1090 S   0  0  0  0  0  0  0  0  0  0  0  0
   42.5510   35.2970   39.9430 O   0  0  0  0  0  0  0  0  0  0  0  0
   40.7180   36.5110   41.0820 O   0  0  0  0  0  0  0  0  0  0  0  0
   40.6820   33.8180   41.1330 C   0  0  0  0  0  0  0  0  0  0  0  0
   41.2480   32.6120   41.5180 C   0  0  0  0  0  0  0  0  0  0  0  0
   40.5030   31.4410   41.5300 C   0  0  0  0  0  0  0  0  0  0  0  0
   39.1640   31.4620   41.1520 C   0  0  0  0  0  0  0  0  0  0  0  0
   38.5400   32.6410   40.7560 C   0  0  0  0  0  0  0  0  0  0  0  0
   39.3550   33.7570   40.7740 C   0  0  0  0  0  0  0  0  0  0  0  0
   51.6684   33.6172   41.6972 H   0  0  0  0  0  0  0  0  0  0  0  0
   51.6718   31.0737   41.5975 H   0  0  0  0  0  0  0  0  0  0  0  0
   49.6450   29.8431   42.4581 H   0  0  0  0  0  0  0  0  0  0  0  0
   47.6982   32.3716   45.2594 H   0  0  0  0  0  0  0  0  0  0  0  0
   46.0548   33.7546   47.5274 H   0  0  0  0  0  0  0  0  0  0  0  0
   44.4933   33.2183   46.8196 H   0  0  0  0  0  0  0  0  0  0  0  0
   45.9071   32.1102   46.8196 H   0  0  0  0  0  0  0  0  0  0  0  0
   44.4283   36.7896   43.6859 H   0  0  0  0  0  0  0  0  0  0  0  0
   45.6021   36.8437   42.3376 H   0  0  0  0  0  0  0  0  0  0  0  0
   44.2798   34.5290   41.8005 H   0  0  0  0  0  0  0  0  0  0  0  0
   43.8603   36.2084   41.1471 H   0  0  0  0  0  0  0  0  0  0  0  0
   42.5096   34.6259   43.1416 H   0  0  0  0  0  0  0  0  0  0  0  0
   42.3056   32.5829   41.8191 H   0  0  0  0  0  0  0  0  0  0  0  0
   40.9717   30.4950   41.8388 H   0  0  0  0  0  0  0  0  0  0  0  0
   38.5861   30.5261   41.1665 H   0  0  0  0  0  0  0  0  0  0  0  0
   37.4833   32.6815   40.4531 H   0  0  0  0  0  0  0  0  0  0  0  0
   38.8896   34.7050   40.4661 H   0  0  0  0  0  0  0  0  0  0  0  0
  1  6  2  0
  2  1  1  0
  2  3  2  0
  3  4  1  0
  4  5  2  0
  5  7  1  0
  6  5  1  0
  7  8  1  0
  8  9  2  0
  9 15  1  0
 10 11  2  0
 10  9  1  0
 12 10  1  0
 13 12  1  0
 13  7  1  0
 14 13  2  0
 16 12  1  0
 17 18  1  0
 17 16  1  0
 19 22  1  0
 19 18  1  0
 20 19  2  0
 21 19  2  0
 22 23  2  0
 23 24  1  0
 25 24  2  0
 26 27  2  0
 26 25  1  0
 27 22  1  0
  1 28  1  0
  2 29  1  0
  3 30  1  0
  8 31  1  0
 15 32  1  0
 15 33  1  0
 15 34  1  0
 16 35  1  0
 16 36  1  0
 17 37  1  0
 17 38  1  0
 18 39  1  0
 23 40  1  0
 24 41  1  0
 25 42  1  0
 26 43  1  0
 27 44  1  0
M  ISO  8  28  14  29  14  30  14  31  14  32   8  33   8  34   8  35   8
M  ISO  8  36   8  37   8  38   8  39   5  40  14  41  14  42  14  43  14
M  ISO  1  44  14
M  END
>  <minimizedAffinity>  (1) 
-6.75865459

>  <minimizedRMSD>  (1) 
0.809068799

$$$$
