
     RDKit          3D

 38 40  0  0  0  0  0  0  0  0999 V2000
   50.7840   32.9940   42.0070 C   0  0  0  0  0  0  0  0  0  0  0  0
   50.7690   31.5850   41.8940 C   0  0  0  0  0  0  0  0  0  0  0  0
   49.6540   30.8930   42.3710 C   0  0  0  0  0  0  0  0  0  0  0  0
   48.6290   31.6090   42.9250 N   0  0  0  0  0  0  0  0  0  0  0  0
   48.6840   32.9820   43.0140 C   0  0  0  0  0  0  0  0  0  0  0  0
   49.7400   33.6290   42.5630 N   0  0  0  0  0  0  0  0  0  0  0  0
   47.5450   33.5630   43.6120 N   0  0  0  0  0  0  0  0  0  0  0  0
   47.1660   33.0680   44.8100 C   0  0  0  0  0  0  0  0  0  0  0  0
   46.0610   33.5740   45.4740 C   0  0  0  0  0  0  0  0  0  0  0  0
   45.3430   34.5930   44.9000 C   0  0  0  0  0  0  0  0  0  0  0  0
   44.3450   35.0700   45.4700 O   0  0  0  0  0  0  0  0  0  0  0  0
   45.7330   35.0820   43.6950 N   0  0  0  0  0  0  0  0  0  0  0  0
   46.8190   34.5740   43.0620 C   0  0  0  0  0  0  0  0  0  0  0  0
   47.2060   35.0120   41.9330 O   0  0  0  0  0  0  0  0  0  0  0  0
   45.6800   32.9910   46.8030 C   0  0  0  0  0  0  0  0  0  0  0  0
   44.9740   36.1600   43.0880 C   0  0  0  0  0  0  0  0  0  0  0  0
   44.1080   35.5470   42.0010 C   0  0  0  0  0  0  0  0  0  0  0  0
   42.7110   35.6110   42.3040 N   0  0  0  0  0  0  0  0  0  0  0  0
   41.8290   35.1810   41.2680 C   0  0  0  0  0  0  0  0  0  0  0  0
   40.6530   36.1500   41.0260 C   0  0  0  0  0  0  0  0  0  0  0  0
   40.4370   34.7620   41.5390 C   0  0  0  0  0  0  0  0  0  0  0  0
   51.6479   33.5680   41.6407 H   0  0  0  0  0  0  0  0  0  0  0  0
   51.6150   31.0470   41.4414 H   0  0  0  0  0  0  0  0  0  0  0  0
   49.6012   29.7964   42.3027 H   0  0  0  0  0  0  0  0  0  0  0  0
   47.7439   32.2503   45.2654 H   0  0  0  0  0  0  0  0  0  0  0  0
   46.0894   33.6175   47.6092 H   0  0  0  0  0  0  0  0  0  0  0  0
   44.5838   32.9554   46.8871 H   0  0  0  0  0  0  0  0  0  0  0  0
   46.0875   31.9727   46.8871 H   0  0  0  0  0  0  0  0  0  0  0  0
   44.3405   36.6465   43.8443 H   0  0  0  0  0  0  0  0  0  0  0  0
   45.6474   36.9208   42.6664 H   0  0  0  0  0  0  0  0  0  0  0  0
   44.3930   34.4918   41.8777 H   0  0  0  0  0  0  0  0  0  0  0  0
   44.2742   36.1245   41.0797 H   0  0  0  0  0  0  0  0  0  0  0  0
   42.5397   35.0200   43.1300 H   0  0  0  0  0  0  0  0  0  0  0  0
   42.6411   34.6977   40.7050 H   0  0  0  0  0  0  0  0  0  0  0  0
   40.5023   37.0158   41.6876 H   0  0  0  0  0  0  0  0  0  0  0  0
   40.2823   36.7430   40.1769 H   0  0  0  0  0  0  0  0  0  0  0  0
   39.9599   34.0118   40.8912 H   0  0  0  0  0  0  0  0  0  0  0  0
   39.9233   34.3448   42.4176 H   0  0  0  0  0  0  0  0  0  0  0  0
  1  6  2  0
  2  1  1  0
  2  3  2  0
  3  4  1  0
  4  5  2  0
  5  7  1  0
  6  5  1  0
  7  8  1  0
  8  9  2  0
  9 15  1  0
 10 11  2  0
 10  9  1  0
 12 10  1  0
 13  7  1  0
 13 12  1  0
 14 13  2  0
 16 12  1  0
 17 18  1  0
 17 16  1  0
 19 21  1  0
 19 18  1  0
 20 19  1  0
 20 21  1  0
  1 22  1  0
  2 23  1  0
  3 24  1  0
  8 25  1  0
 15 26  1  0
 15 27  1  0
 15 28  1  0
 16 29  1  0
 16 30  1  0
 17 31  1  0
 17 32  1  0
 18 33  1  0
 19 34  1  0
 20 35  1  0
 20 36  1  0
 21 37  1  0
 21 38  1  0
M  ISO  8  22  14  23  14  24  14  25  14  26   8  27   8  28   8  29   8
M  ISO  8  30   8  31   8  32   8  33   5  34  13  35  13  36  13  37  13
M  ISO  1  38  13
M  END
>  <minimizedAffinity>  (1) 
-5.71768999

>  <minimizedRMSD>  (1) 
0.436460823

$$$$
