
     RDKit          3D

 46 48  0  0  0  0  0  0  0  0999 V2000
   50.8260   32.9790   42.0190 C   0  0  0  0  0  0  0  0  0  0  0  0
   50.7910   31.5750   41.9150 C   0  0  0  0  0  0  0  0  0  0  0  0
   49.6570   30.9040   42.3750 C   0  0  0  0  0  0  0  0  0  0  0  0
   48.6450   31.6620   42.9020 N   0  0  0  0  0  0  0  0  0  0  0  0
   48.7070   33.0210   42.9900 C   0  0  0  0  0  0  0  0  0  0  0  0
   49.7820   33.6200   42.5520 N   0  0  0  0  0  0  0  0  0  0  0  0
   47.5630   33.6140   43.5630 N   0  0  0  0  0  0  0  0  0  0  0  0
   47.1500   33.1230   44.7420 C   0  0  0  0  0  0  0  0  0  0  0  0
   46.0320   33.6360   45.3890 C   0  0  0  0  0  0  0  0  0  0  0  0
   45.3510   34.6700   44.7900 C   0  0  0  0  0  0  0  0  0  0  0  0
   44.3410   35.1640   45.3340 O   0  0  0  0  0  0  0  0  0  0  0  0
   45.7860   35.1610   43.5850 N   0  0  0  0  0  0  0  0  0  0  0  0
   46.8710   34.6390   42.9880 C   0  0  0  0  0  0  0  0  0  0  0  0
   47.2940   35.0670   41.8840 O   0  0  0  0  0  0  0  0  0  0  0  0
   45.6080   33.0640   46.6960 C   0  0  0  0  0  0  0  0  0  0  0  0
   45.0510   36.2450   42.9800 C   0  0  0  0  0  0  0  0  0  0  0  0
   44.1090   35.6450   41.9450 C   0  0  0  0  0  0  0  0  0  0  0  0
   42.7850   35.5130   42.4140 N   0  0  0  0  0  0  0  0  0  0  0  0
   40.3830   35.0400   38.9760 N   0  0  0  0  0  0  0  0  0  0  0  0
   41.4990   34.1630   39.1530 C   0  0  0  0  0  0  0  0  0  0  0  0
   42.5490   34.8460   40.0380 C   0  0  0  0  0  0  0  0  0  0  0  0
   41.9040   35.1140   41.3580 C   0  0  0  0  0  0  0  0  0  0  0  0
   40.7700   36.0950   41.1480 C   0  0  0  0  0  0  0  0  0  0  0  0
   39.7660   35.4210   40.2330 C   0  0  0  0  0  0  0  0  0  0  0  0
   51.7028   33.5414   41.6655 H   0  0  0  0  0  0  0  0  0  0  0  0
   51.6367   31.0208   41.4818 H   0  0  0  0  0  0  0  0  0  0  0  0
   49.5789   29.8083   42.3166 H   0  0  0  0  0  0  0  0  0  0  0  0
   47.7085   32.2968   45.2062 H   0  0  0  0  0  0  0  0  0  0  0  0
   46.0459   33.6547   47.5141 H   0  0  0  0  0  0  0  0  0  0  0  0
   44.5108   33.0921   46.7699 H   0  0  0  0  0  0  0  0  0  0  0  0
   45.9539   32.0224   46.7699 H   0  0  0  0  0  0  0  0  0  0  0  0
   44.4725   36.7797   43.7477 H   0  0  0  0  0  0  0  0  0  0  0  0
   45.7396   36.9598   42.5056 H   0  0  0  0  0  0  0  0  0  0  0  0
   44.4831   34.6487   41.6668 H   0  0  0  0  0  0  0  0  0  0  0  0
   44.0861   36.3306   41.0851 H   0  0  0  0  0  0  0  0  0  0  0  0
   42.7609   34.8025   43.1593 H   0  0  0  0  0  0  0  0  0  0  0  0
   40.7062   35.8920   38.4959 H   0  0  0  0  0  0  0  0  0  0  0  0
   41.1621   33.2331   39.6345 H   0  0  0  0  0  0  0  0  0  0  0  0
   41.9409   33.9287   38.1733 H   0  0  0  0  0  0  0  0  0  0  0  0
   43.4184   34.1852   40.1702 H   0  0  0  0  0  0  0  0  0  0  0  0
   42.9008   35.7809   39.5773 H   0  0  0  0  0  0  0  0  0  0  0  0
   41.5197   34.1511   41.7255 H   0  0  0  0  0  0  0  0  0  0  0  0
   40.2987   36.3397   42.1113 H   0  0  0  0  0  0  0  0  0  0  0  0
   41.1380   37.0322   40.7051 H   0  0  0  0  0  0  0  0  0  0  0  0
   38.9388   36.1174   40.0313 H   0  0  0  0  0  0  0  0  0  0  0  0
   39.3927   34.5134   40.7298 H   0  0  0  0  0  0  0  0  0  0  0  0
  1  6  2  0
  2  1  1  0
  2  3  2  0
  3  4  1  0
  4  5  2  0
  5  7  1  0
  6  5  1  0
  7  8  1  0
  8  9  2  0
  9 15  1  0
 10 11  2  0
 10  9  1  0
 12 10  1  0
 13  7  1  0
 13 12  1  0
 14 13  2  0
 16 12  1  0
 17 18  1  0
 17 16  1  0
 19 20  1  0
 19 24  1  0
 20 21  1  0
 21 22  1  0
 22 18  1  0
 23 22  1  0
 24 23  1  0
  1 25  1  0
  2 26  1  0
  3 27  1  0
  8 28  1  0
 15 29  1  0
 15 30  1  0
 15 31  1  0
 16 32  1  0
 16 33  1  0
 17 34  1  0
 17 35  1  0
 18 36  1  0
 19 37  1  0
 20 38  1  0
 20 39  1  0
 21 40  1  0
 21 41  1  0
 22 42  1  0
 23 43  1  0
 23 44  1  0
 24 45  1  0
 24 46  1  0
M  ISO  8  25  14  26  14  27  14  28  14  29   8  30   8  31   8  32   8
M  ISO  8  33   8  34   8  35   8  36   5  37   5  38  13  39  13  40  13
M  ISO  6  41  13  42  13  43  13  44  13  45  13  46  13
M  END
>  <minimizedAffinity>  (1) 
-6.42514277

>  <minimizedRMSD>  (1) 
0.724308908

$$$$
