
     RDKit          3D

 43 45  0  0  1  0  0  0  0  0999 V2000
   50.7860   33.0210   42.0270 C   0  0  0  0  0  0  0  0  0  0  0  0
   50.7980   31.6170   41.9540 C   0  0  0  0  0  0  0  0  0  0  0  0
   49.6820   30.9610   42.4260 C   0  0  0  0  0  0  0  0  0  0  0  0
   48.6360   31.6810   42.9330 N   0  0  0  0  0  0  0  0  0  0  0  0
   48.6660   33.0400   42.9850 C   0  0  0  0  0  0  0  0  0  0  0  0
   49.7370   33.6730   42.5320 N   0  0  0  0  0  0  0  0  0  0  0  0
   47.5180   33.6430   43.5310 N   0  0  0  0  0  0  0  0  0  0  0  0
   47.1290   33.1790   44.7410 C   0  0  0  0  0  0  0  0  0  0  0  0
   46.0090   33.6980   45.3840 C   0  0  0  0  0  0  0  0  0  0  0  0
   45.3000   34.6920   44.7670 C   0  0  0  0  0  0  0  0  0  0  0  0
   44.2900   35.1860   45.3070 O   0  0  0  0  0  0  0  0  0  0  0  0
   45.7130   35.1460   43.5420 N   0  0  0  0  0  0  0  0  0  0  0  0
   46.7990   34.6320   42.9370 C   0  0  0  0  0  0  0  0  0  0  0  0
   47.2010   35.0280   41.8150 O   0  0  0  0  0  0  0  0  0  0  0  0
   45.6120   33.1590   46.7190 C   0  0  0  0  0  0  0  0  0  0  0  0
   44.9470   36.2010   42.9070 C   0  0  0  0  0  0  0  0  0  0  0  0
   43.8930   35.5560   42.0530 C   0  0  0  0  0  0  0  0  0  0  0  0
   42.5810   35.6380   42.6270 N   0  0  0  0  0  0  0  0  0  0  0  0
   40.6940   34.2030   42.1110 N   0  0  0  0  0  0  0  0  0  0  0  0
   39.8640   34.0050   40.9270 C   0  0  0  0  0  0  0  0  0  0  0  0
   39.7990   35.3730   40.2370 C   0  0  0  0  0  0  0  0  0  0  0  0
   40.8220   36.2130   41.0010 C   0  0  0  0  0  0  0  0  0  0  0  0
   41.6610   35.1270   41.6170 C   0  0  1  0  0  0  0  0  0  0  0  0
   51.6539   33.5902   41.6626 H   0  0  0  0  0  0  0  0  0  0  0  0
   51.6570   31.0686   41.5400 H   0  0  0  0  0  0  0  0  0  0  0  0
   49.6328   29.8625   42.3951 H   0  0  0  0  0  0  0  0  0  0  0  0
   47.7076   32.3782   45.2246 H   0  0  0  0  0  0  0  0  0  0  0  0
   46.0643   33.7731   47.5116 H   0  0  0  0  0  0  0  0  0  0  0  0
   44.5165   33.1861   46.8143 H   0  0  0  0  0  0  0  0  0  0  0  0
   45.9628   32.1208   46.8143 H   0  0  0  0  0  0  0  0  0  0  0  0
   44.4728   36.8317   43.6733 H   0  0  0  0  0  0  0  0  0  0  0  0
   45.6034   36.8346   42.2924 H   0  0  0  0  0  0  0  0  0  0  0  0
   44.1513   34.4953   41.9183 H   0  0  0  0  0  0  0  0  0  0  0  0
   43.8683   36.0966   41.0953 H   0  0  0  0  0  0  0  0  0  0  0  0
   42.5284   35.0640   43.4806 H   0  0  0  0  0  0  0  0  0  0  0  0
   40.1519   34.6036   42.8898 H   0  0  0  0  0  0  0  0  0  0  0  0
   40.3193   33.2590   40.2590 H   0  0  0  0  0  0  0  0  0  0  0  0
   38.8626   33.6327   41.1889 H   0  0  0  0  0  0  0  0  0  0  0  0
   40.0740   35.2902   39.1751 H   0  0  0  0  0  0  0  0  0  0  0  0
   38.7902   35.8112   40.2533 H   0  0  0  0  0  0  0  0  0  0  0  0
   41.4125   36.8484   40.3246 H   0  0  0  0  0  0  0  0  0  0  0  0
   40.3877   36.9218   41.7214 H   0  0  0  0  0  0  0  0  0  0  0  0
   42.3468   34.6463   40.9038 H   0  0  0  0  0  0  0  0  0  0  0  0
  1  6  2  0
  2  1  1  0
  2  3  2  0
  3  4  1  0
  4  5  2  0
  5  7  1  0
  6  5  1  0
  7  8  1  0
  8  9  2  0
  9 15  1  0
 10 11  2  0
 10  9  1  0
 12 10  1  0
 13  7  1  0
 13 12  1  0
 14 13  2  0
 16 12  1  0
 17 18  1  0
 17 16  1  0
 20 19  1  0
 21 20  1  0
 21 22  1  0
 22 23  1  0
 23 19  1  0
 23 18  1  0
  1 24  1  0
  2 25  1  0
  3 26  1  0
  8 27  1  0
 15 28  1  0
 15 29  1  0
 15 30  1  0
 16 31  1  0
 16 32  1  0
 17 33  1  0
 17 34  1  0
 18 35  1  0
 19 36  1  0
 20 37  1  0
 20 38  1  0
 21 39  1  0
 21 40  1  0
 22 41  1  0
 22 42  1  0
 23 43  1  6
M  ISO  8  24  14  25  14  26  14  27  14  28   8  29   8  30   8  31   8
M  ISO  8  32   8  33   8  34   8  35   5  36   5  37  13  38  13  39  13
M  ISO  4  40  13  41  13  42  13  43  13
M  END
>  <minimizedAffinity>  (1) 
-6.50243521

>  <minimizedRMSD>  (1) 
0.24273932

$$$$
