
     RDKit          3D

 47 49  0  0  0  0  0  0  0  0999 V2000
   50.7040   33.1030   42.0400 C   0  0  0  0  0  0  0  0  0  0  0  0
   50.7580   31.7100   42.0980 C   0  0  0  0  0  0  0  0  0  0  0  0
   49.6570   31.0470   42.6180 C   0  0  0  0  0  0  0  0  0  0  0  0
   48.5880   31.7870   43.0420 N   0  0  0  0  0  0  0  0  0  0  0  0
   48.5670   33.1300   42.9720 C   0  0  0  0  0  0  0  0  0  0  0  0
   49.6080   33.7510   42.4810 N   0  0  0  0  0  0  0  0  0  0  0  0
   47.3870   33.7400   43.4510 N   0  0  0  0  0  0  0  0  0  0  0  0
   46.9920   33.3830   44.6900 C   0  0  0  0  0  0  0  0  0  0  0  0
   45.8530   33.9190   45.2700 C   0  0  0  0  0  0  0  0  0  0  0  0
   45.1140   34.8420   44.5410 C   0  0  0  0  0  0  0  0  0  0  0  0
   44.0790   35.3510   45.0300 O   0  0  0  0  0  0  0  0  0  0  0  0
   45.5250   35.1890   43.2950 N   0  0  0  0  0  0  0  0  0  0  0  0
   46.6370   34.6510   42.7600 C   0  0  0  0  0  0  0  0  0  0  0  0
   47.0460   34.9460   41.6150 O   0  0  0  0  0  0  0  0  0  0  0  0
   45.4400   33.4960   46.6410 C   0  0  0  0  0  0  0  0  0  0  0  0
   44.7290   36.1420   42.5700 C   0  0  0  0  0  0  0  0  0  0  0  0
   43.7000   35.4310   41.7820 C   0  0  0  0  0  0  0  0  0  0  0  0
   42.3840   35.3270   42.3570 N   0  0  0  0  0  0  0  0  0  0  0  0
   41.2440   35.4720   41.5530 C   0  0  0  0  0  0  0  0  0  0  0  0
   40.7660   36.5700   41.0630 O   0  0  0  0  0  0  0  0  0  0  0  0
   40.2730   34.5500   41.0330 N   0  0  0  0  0  0  0  0  0  0  0  0
   40.4710   33.3430   41.7770 C   0  0  0  0  0  0  0  0  0  0  0  0
   39.4970   32.2680   41.3300 C   0  0  0  0  0  0  0  0  0  0  0  0
   38.2170   32.9030   40.9780 N   0  0  0  0  0  0  0  0  0  0  0  0
   38.4320   33.6000   39.7360 C   0  0  0  0  0  0  0  0  0  0  0  0
   39.3010   34.7840   39.9780 C   0  0  0  0  0  0  0  0  0  0  0  0
   51.5545   33.6711   41.6351 H   0  0  0  0  0  0  0  0  0  0  0  0
   51.6414   31.1582   41.7443 H   0  0  0  0  0  0  0  0  0  0  0  0
   49.6436   29.9493   42.6880 H   0  0  0  0  0  0  0  0  0  0  0  0
   47.5875   32.6495   45.2533 H   0  0  0  0  0  0  0  0  0  0  0  0
   46.0039   34.0735   47.3883 H   0  0  0  0  0  0  0  0  0  0  0  0
   44.3633   33.6789   46.7724 H   0  0  0  0  0  0  0  0  0  0  0  0
   45.6486   32.4240   46.7724 H   0  0  0  0  0  0  0  0  0  0  0  0
   44.2395   36.8253   43.2796 H   0  0  0  0  0  0  0  0  0  0  0  0
   45.3759   36.7174   41.8915 H   0  0  0  0  0  0  0  0  0  0  0  0
   44.0659   34.4086   41.6066 H   0  0  0  0  0  0  0  0  0  0  0  0
   43.5656   36.0410   40.8766 H   0  0  0  0  0  0  0  0  0  0  0  0
   42.2792   35.1449   43.3653 H   0  0  0  0  0  0  0  0  0  0  0  0
   41.4994   32.9863   41.6185 H   0  0  0  0  0  0  0  0  0  0  0  0
   40.2987   33.5536   42.8428 H   0  0  0  0  0  0  0  0  0  0  0  0
   39.9029   31.7434   40.4525 H   0  0  0  0  0  0  0  0  0  0  0  0
   39.3429   31.5427   42.1425 H   0  0  0  0  0  0  0  0  0  0  0  0
   37.4852   32.1875   40.8621 H   0  0  0  0  0  0  0  0  0  0  0  0
   37.4653   33.9313   39.3289 H   0  0  0  0  0  0  0  0  0  0  0  0
   38.9203   32.9265   39.0163 H   0  0  0  0  0  0  0  0  0  0  0  0
   39.8387   35.0237   39.0488 H   0  0  0  0  0  0  0  0  0  0  0  0
   38.6548   35.6158   40.2950 H   0  0  0  0  0  0  0  0  0  0  0  0
  1  2  2  0
  1  6  1  0
  2  3  1  0
  3  4  2  0
  5  4  1  0
  5  7  1  0
  6  5  2  0
  7  8  1  0
  8  9  2  0
  9 15  1  0
 10 11  2  0
 10  9  1  0
 12 10  1  0
 13 12  1  0
 13  7  1  0
 14 13  2  0
 16 12  1  0
 17 18  1  0
 17 16  1  0
 19 18  1  0
 20 19  2  0
 21 19  1  0
 21 22  1  0
 23 22  1  0
 24 23  1  0
 25 26  1  0
 25 24  1  0
 26 21  1  0
  1 27  1  0
  2 28  1  0
  3 29  1  0
  8 30  1  0
 15 31  1  0
 15 32  1  0
 15 33  1  0
 16 34  1  0
 16 35  1  0
 17 36  1  0
 17 37  1  0
 18 38  1  0
 22 39  1  0
 22 40  1  0
 23 41  1  0
 23 42  1  0
 24 43  1  0
 25 44  1  0
 25 45  1  0
 26 46  1  0
 26 47  1  0
M  ISO  8  27  14  28  14  29  14  30  14  31   8  32   8  33   8  34   8
M  ISO  8  35   8  36   8  37   8  39  13  40  13  41  13  42  13  43   5
M  ISO  4  44  13  45  13  46  13  47  13
M  END
>  <minimizedAffinity>  (1) 
-7.35254908

>  <minimizedRMSD>  (1) 
0.542460144

$$$$
