
     RDKit          3D

 33 34  0  0  0  0  0  0  0  0999 V2000
   50.8150   32.9630   42.0050 C   0  0  0  0  0  0  0  0  0  0  0  0
   50.7940   31.5620   41.8990 C   0  0  0  0  0  0  0  0  0  0  0  0
   49.6570   30.8940   42.3630 C   0  0  0  0  0  0  0  0  0  0  0  0
   48.6390   31.6410   42.8900 N   0  0  0  0  0  0  0  0  0  0  0  0
   48.6980   32.9930   42.9760 C   0  0  0  0  0  0  0  0  0  0  0  0
   49.7680   33.6250   42.5390 N   0  0  0  0  0  0  0  0  0  0  0  0
   47.5540   33.5980   43.5490 N   0  0  0  0  0  0  0  0  0  0  0  0
   47.1580   33.1130   44.7400 C   0  0  0  0  0  0  0  0  0  0  0  0
   46.0540   33.6250   45.3950 C   0  0  0  0  0  0  0  0  0  0  0  0
   45.3530   34.6550   44.8020 C   0  0  0  0  0  0  0  0  0  0  0  0
   44.3450   35.1550   45.3530 O   0  0  0  0  0  0  0  0  0  0  0  0
   45.7680   35.1350   43.5910 N   0  0  0  0  0  0  0  0  0  0  0  0
   46.8490   34.6110   42.9830 C   0  0  0  0  0  0  0  0  0  0  0  0
   47.2600   35.0290   41.8650 O   0  0  0  0  0  0  0  0  0  0  0  0
   45.6410   33.0640   46.7200 C   0  0  0  0  0  0  0  0  0  0  0  0
   45.0290   36.2130   42.9750 C   0  0  0  0  0  0  0  0  0  0  0  0
   43.9840   35.5970   42.0700 C   0  0  0  0  0  0  0  0  0  0  0  0
   42.6780   35.6060   42.6320 N   0  0  0  0  0  0  0  0  0  0  0  0
   41.6490   35.3520   41.6520 C   0  0  0  0  0  0  0  0  0  0  0  0
   40.8800   36.2270   41.1760 O   0  0  0  0  0  0  0  0  0  0  0  0
   51.6919   33.5242   41.6498 H   0  0  0  0  0  0  0  0  0  0  0  0
   51.6419   31.0106   41.4664 H   0  0  0  0  0  0  0  0  0  0  0  0
   49.5828   29.7980   42.3060 H   0  0  0  0  0  0  0  0  0  0  0  0
   47.7251   32.2915   45.2022 H   0  0  0  0  0  0  0  0  0  0  0  0
   46.0841   33.6658   47.5272 H   0  0  0  0  0  0  0  0  0  0  0  0
   44.5444   33.0894   46.8032 H   0  0  0  0  0  0  0  0  0  0  0  0
   45.9910   32.0245   46.8032 H   0  0  0  0  0  0  0  0  0  0  0  0
   44.5411   36.8231   43.7494 H   0  0  0  0  0  0  0  0  0  0  0  0
   45.7040   36.8619   42.3977 H   0  0  0  0  0  0  0  0  0  0  0  0
   44.2693   34.5544   41.8662 H   0  0  0  0  0  0  0  0  0  0  0  0
   43.9485   36.2036   41.1530 H   0  0  0  0  0  0  0  0  0  0  0  0
   42.4869   35.7753   43.6299 H   0  0  0  0  0  0  0  0  0  0  0  0
   41.5283   34.3184   41.2954 H   0  0  0  0  0  0  0  0  0  0  0  0
  1  6  2  0
  2  1  1  0
  2  3  2  0
  3  4  1  0
  4  5  2  0
  5  7  1  0
  6  5  1  0
  7  8  1  0
  8  9  2  0
  9 15  1  0
 10 11  2  0
 10  9  1  0
 12 10  1  0
 13  7  1  0
 13 12  1  0
 14 13  2  0
 16 12  1  0
 17 18  1  0
 17 16  1  0
 19 18  1  0
 20 19  2  0
  1 21  1  0
  2 22  1  0
  3 23  1  0
  8 24  1  0
 15 25  1  0
 15 26  1  0
 15 27  1  0
 16 28  1  0
 16 29  1  0
 17 30  1  0
 17 31  1  0
 18 32  1  0
 19 33  1  0
M  ISO  8  21  14  22  14  23  14  24  14  25   8  26   8  27   8  28   8
M  ISO  4  29   8  30   8  31   8  33   6
M  END
>  <minimizedAffinity>  (1) 
-5.54348421

>  <minimizedRMSD>  (1) 
0.212985054

$$$$
