
     RDKit          3D

 46 48  0  0  0  0  0  0  0  0999 V2000
   50.7530   33.1020   42.0570 C   0  0  0  0  0  0  0  0  0  0  0  0
   50.7690   31.7090   41.9770 C   0  0  0  0  0  0  0  0  0  0  0  0
   49.6500   31.0370   42.4430 C   0  0  0  0  0  0  0  0  0  0  0  0
   48.6110   31.7650   42.9470 N   0  0  0  0  0  0  0  0  0  0  0  0
   48.6280   33.1080   43.0100 C   0  0  0  0  0  0  0  0  0  0  0  0
   49.6810   33.7410   42.5700 N   0  0  0  0  0  0  0  0  0  0  0  0
   47.4680   33.7010   43.5610 N   0  0  0  0  0  0  0  0  0  0  0  0
   47.0700   33.2340   44.7590 C   0  0  0  0  0  0  0  0  0  0  0  0
   45.9490   33.7380   45.3950 C   0  0  0  0  0  0  0  0  0  0  0  0
   45.2320   34.7470   44.7680 C   0  0  0  0  0  0  0  0  0  0  0  0
   44.2090   35.2340   45.3130 O   0  0  0  0  0  0  0  0  0  0  0  0
   45.6470   35.2060   43.5600 N   0  0  0  0  0  0  0  0  0  0  0  0
   46.7410   34.6960   42.9680 C   0  0  0  0  0  0  0  0  0  0  0  0
   47.1560   35.0930   41.8550 O   0  0  0  0  0  0  0  0  0  0  0  0
   45.5370   33.1960   46.7280 C   0  0  0  0  0  0  0  0  0  0  0  0
   44.8740   36.2490   42.9460 C   0  0  0  0  0  0  0  0  0  0  0  0
   43.9840   35.6840   41.9270 C   0  0  0  0  0  0  0  0  0  0  0  0
   42.6800   35.2200   42.3410 N   0  0  0  0  0  0  0  0  0  0  0  0
   41.5570   35.3870   41.5230 C   0  0  0  0  0  0  0  0  0  0  0  0
   40.9390   36.5050   41.2790 O   0  0  0  0  0  0  0  0  0  0  0  0
   40.7290   34.4340   40.7210 C   0  0  0  0  0  0  0  0  0  0  0  0
   40.0240   33.5210   41.7110 C   0  0  0  0  0  0  0  0  0  0  0  0
   38.8000   33.0260   40.9720 C   0  0  0  0  0  0  0  0  0  0  0  0
   38.5440   33.9510   39.8140 C   0  0  0  0  0  0  0  0  0  0  0  0
   39.6130   34.9980   39.9400 C   0  0  0  0  0  0  0  0  0  0  0  0
   51.6175   33.6813   41.7005 H   0  0  0  0  0  0  0  0  0  0  0  0
   51.6321   31.1678   41.5622 H   0  0  0  0  0  0  0  0  0  0  0  0
   49.6001   29.9387   42.4074 H   0  0  0  0  0  0  0  0  0  0  0  0
   47.6488   32.4338   45.2434 H   0  0  0  0  0  0  0  0  0  0  0  0
   45.9950   33.7985   47.5263 H   0  0  0  0  0  0  0  0  0  0  0  0
   44.4416   33.2391   46.8187 H   0  0  0  0  0  0  0  0  0  0  0  0
   45.8716   32.1521   46.8187 H   0  0  0  0  0  0  0  0  0  0  0  0
   44.2717   36.7558   43.7144 H   0  0  0  0  0  0  0  0  0  0  0  0
   45.5556   36.9689   42.4693 H   0  0  0  0  0  0  0  0  0  0  0  0
   44.5068   34.8278   41.4759 H   0  0  0  0  0  0  0  0  0  0  0  0
   43.7720   36.5268   41.2527 H   0  0  0  0  0  0  0  0  0  0  0  0
   42.5749   34.7576   43.2554 H   0  0  0  0  0  0  0  0  0  0  0  0
   41.4440   33.9848   40.0161 H   0  0  0  0  0  0  0  0  0  0  0  0
   40.6736   32.6793   41.9931 H   0  0  0  0  0  0  0  0  0  0  0  0
   39.7645   34.0409   42.6450 H   0  0  0  0  0  0  0  0  0  0  0  0
   38.9762   32.0054   40.6014 H   0  0  0  0  0  0  0  0  0  0  0  0
   37.9302   33.0104   41.6452 H   0  0  0  0  0  0  0  0  0  0  0  0
   37.5439   34.4028   39.8886 H   0  0  0  0  0  0  0  0  0  0  0  0
   38.5725   33.4323   38.8444 H   0  0  0  0  0  0  0  0  0  0  0  0
   39.9686   35.2876   38.9402 H   0  0  0  0  0  0  0  0  0  0  0  0
   39.2111   35.8887   40.4452 H   0  0  0  0  0  0  0  0  0  0  0  0
  1  6  2  0
  2  1  1  0
  2  3  2  0
  3  4  1  0
  4  5  2  0
  5  7  1  0
  6  5  1  0
  7  8  1  0
  8  9  2  0
  9 15  1  0
 10 11  2  0
 10  9  1  0
 12 10  1  0
 13 12  1  0
 13  7  1  0
 14 13  2  0
 16 12  1  0
 17 18  1  0
 17 16  1  0
 19 18  1  0
 20 19  2  0
 21 19  1  0
 21 22  1  0
 23 22  1  0
 24 25  1  0
 24 23  1  0
 25 21  1  0
  1 26  1  0
  2 27  1  0
  3 28  1  0
  8 29  1  0
 15 30  1  0
 15 31  1  0
 15 32  1  0
 16 33  1  0
 16 34  1  0
 17 35  1  0
 17 36  1  0
 18 37  1  0
 21 38  1  0
 22 39  1  0
 22 40  1  0
 23 41  1  0
 23 42  1  0
 24 43  1  0
 24 44  1  0
 25 45  1  0
 25 46  1  0
M  ISO  8  26  14  27  14  28  14  29  14  30   8  31   8  32   8  33   8
M  ISO  8  34   8  35   8  36   8  38  13  39  13  40  13  41  13  42  13
M  ISO  4  43  13  44  13  45  13  46  13
M  END
>  <minimizedAffinity>  (1) 
-6.94530821

>  <minimizedRMSD>  (1) 
0.514074028

$$$$
