
     RDKit          3D

 46 48  0  0  0  0  0  0  0  0999 V2000
   50.7620   33.0970   42.0610 C   0  0  0  0  0  0  0  0  0  0  0  0
   50.7800   31.7030   41.9970 C   0  0  0  0  0  0  0  0  0  0  0  0
   49.6610   31.0300   42.4660 C   0  0  0  0  0  0  0  0  0  0  0  0
   48.6180   31.7680   42.9590 N   0  0  0  0  0  0  0  0  0  0  0  0
   48.6370   33.1110   43.0040 C   0  0  0  0  0  0  0  0  0  0  0  0
   49.6930   33.7410   42.5620 N   0  0  0  0  0  0  0  0  0  0  0  0
   47.4760   33.7060   43.5480 N   0  0  0  0  0  0  0  0  0  0  0  0
   47.0780   33.2490   44.7490 C   0  0  0  0  0  0  0  0  0  0  0  0
   45.9560   33.7570   45.3800 C   0  0  0  0  0  0  0  0  0  0  0  0
   45.2370   34.7640   44.7470 C   0  0  0  0  0  0  0  0  0  0  0  0
   44.2140   35.2570   45.2810 O   0  0  0  0  0  0  0  0  0  0  0  0
   45.6540   35.2140   43.5330 N   0  0  0  0  0  0  0  0  0  0  0  0
   46.7470   34.6970   42.9480 C   0  0  0  0  0  0  0  0  0  0  0  0
   47.1640   35.0830   41.8320 O   0  0  0  0  0  0  0  0  0  0  0  0
   45.5350   33.2250   46.7100 C   0  0  0  0  0  0  0  0  0  0  0  0
   44.8840   36.2520   42.9110 C   0  0  0  0  0  0  0  0  0  0  0  0
   43.9470   35.6640   41.9360 C   0  0  0  0  0  0  0  0  0  0  0  0
   42.6390   35.2850   42.4050 N   0  0  0  0  0  0  0  0  0  0  0  0
   41.5180   35.3780   41.5740 C   0  0  0  0  0  0  0  0  0  0  0  0
   40.9050   36.4620   41.2160 O   0  0  0  0  0  0  0  0  0  0  0  0
   40.7530   34.3260   40.9110 N   0  0  0  0  0  0  0  0  0  0  0  0
   41.3880   33.0240   40.8430 C   0  0  0  0  0  0  0  0  0  0  0  0
   40.5670   32.1560   41.7910 C   0  0  0  0  0  0  0  0  0  0  0  0
   39.2250   32.4180   41.7100 O   0  0  0  0  0  0  0  0  0  0  0  0
   38.7790   32.9730   40.5400 C   0  0  0  0  0  0  0  0  0  0  0  0
   39.4300   34.3010   40.2790 C   0  0  0  0  0  0  0  0  0  0  0  0
   51.6271   33.6723   41.6996 H   0  0  0  0  0  0  0  0  0  0  0  0
   51.6462   31.1599   41.5912 H   0  0  0  0  0  0  0  0  0  0  0  0
   49.6128   29.9313   42.4424 H   0  0  0  0  0  0  0  0  0  0  0  0
   47.6574   32.4536   45.2406 H   0  0  0  0  0  0  0  0  0  0  0  0
   46.0049   33.8188   47.5079 H   0  0  0  0  0  0  0  0  0  0  0  0
   44.4407   33.2895   46.8010 H   0  0  0  0  0  0  0  0  0  0  0  0
   45.8493   32.1748   46.8010 H   0  0  0  0  0  0  0  0  0  0  0  0
   44.3165   36.7963   43.6802 H   0  0  0  0  0  0  0  0  0  0  0  0
   45.5620   36.9444   42.3906 H   0  0  0  0  0  0  0  0  0  0  0  0
   44.4232   34.7607   41.5271 H   0  0  0  0  0  0  0  0  0  0  0  0
   43.7585   36.4706   41.2123 H   0  0  0  0  0  0  0  0  0  0  0  0
   42.5273   34.9396   43.3689 H   0  0  0  0  0  0  0  0  0  0  0  0
   41.3510   32.6252   39.8185 H   0  0  0  0  0  0  0  0  0  0  0  0
   42.4520   33.0597   41.1200 H   0  0  0  0  0  0  0  0  0  0  0  0
   40.7363   31.0990   41.5379 H   0  0  0  0  0  0  0  0  0  0  0  0
   40.8911   32.3820   42.8176 H   0  0  0  0  0  0  0  0  0  0  0  0
   39.0119   32.2910   39.7090 H   0  0  0  0  0  0  0  0  0  0  0  0
   37.6936   33.1306   40.6239 H   0  0  0  0  0  0  0  0  0  0  0  0
   39.5382   34.4501   39.1945 H   0  0  0  0  0  0  0  0  0  0  0  0
   38.8069   35.1049   40.6978 H   0  0  0  0  0  0  0  0  0  0  0  0
  1  6  2  0
  2  1  1  0
  2  3  2  0
  3  4  1  0
  4  5  2  0
  5  7  1  0
  6  5  1  0
  7  8  1  0
  8  9  2  0
  9 15  1  0
 10 11  2  0
 10  9  1  0
 12 10  1  0
 13 12  1  0
 13  7  1  0
 14 13  2  0
 16 12  1  0
 17 18  1  0
 17 16  1  0
 19 18  1  0
 20 19  2  0
 21 19  1  0
 22 21  1  0
 22 23  1  0
 24 23  1  0
 25 24  1  0
 26 25  1  0
 26 21  1  0
  1 27  1  0
  2 28  1  0
  3 29  1  0
  8 30  1  0
 15 31  1  0
 15 32  1  0
 15 33  1  0
 16 34  1  0
 16 35  1  0
 17 36  1  0
 17 37  1  0
 18 38  1  0
 22 39  1  0
 22 40  1  0
 23 41  1  0
 23 42  1  0
 25 43  1  0
 25 44  1  0
 26 45  1  0
 26 46  1  0
M  ISO  8  27  14  28  14  29  14  30  14  31   8  32   8  33   8  34   8
M  ISO  8  35   8  36   8  37   8  39  13  40  13  41  13  42  13  43  13
M  ISO  3  44  13  45  13  46  13
M  END
>  <minimizedAffinity>  (1) 
-6.98470879

>  <minimizedRMSD>  (1) 
0.345878839

$$$$
