
     RDKit          3D

 39 41  0  0  0  0  0  0  0  0999 V2000
   50.7350   33.0910   42.0650 C   0  0  0  0  0  0  0  0  0  0  0  0
   50.7860   31.6960   42.0700 C   0  0  0  0  0  0  0  0  0  0  0  0
   49.6800   31.0280   42.5740 C   0  0  0  0  0  0  0  0  0  0  0  0
   48.6190   31.7620   43.0300 N   0  0  0  0  0  0  0  0  0  0  0  0
   48.6100   33.1050   43.0070 C   0  0  0  0  0  0  0  0  0  0  0  0
   49.6530   33.7310   42.5330 N   0  0  0  0  0  0  0  0  0  0  0  0
   47.4360   33.7030   43.5160 N   0  0  0  0  0  0  0  0  0  0  0  0
   47.0420   33.2990   44.7410 C   0  0  0  0  0  0  0  0  0  0  0  0
   45.9100   33.8160   45.3470 C   0  0  0  0  0  0  0  0  0  0  0  0
   45.1750   34.7740   44.6610 C   0  0  0  0  0  0  0  0  0  0  0  0
   44.1450   35.2660   45.1770 O   0  0  0  0  0  0  0  0  0  0  0  0
   45.5840   35.1700   43.4310 N   0  0  0  0  0  0  0  0  0  0  0  0
   46.6900   34.6400   42.8830 C   0  0  0  0  0  0  0  0  0  0  0  0
   47.1010   34.9860   41.7360 O   0  0  0  0  0  0  0  0  0  0  0  0
   45.5240   33.3410   46.7120 C   0  0  0  0  0  0  0  0  0  0  0  0
   44.7960   36.1630   42.7670 C   0  0  0  0  0  0  0  0  0  0  0  0
   43.7650   35.5160   41.9410 C   0  0  0  0  0  0  0  0  0  0  0  0
   42.4260   35.4240   42.4830 N   0  0  0  0  0  0  0  0  0  0  0  0
   41.2910   35.4550   41.6600 C   0  0  0  0  0  0  0  0  0  0  0  0
   40.8270   36.5310   41.0640 O   0  0  0  0  0  0  0  0  0  0  0  0
   40.4010   34.2640   41.3310 C   0  0  0  0  0  0  0  0  0  0  0  0
   39.4710   34.4570   40.2850 C   0  0  0  0  0  0  0  0  0  0  0  0
   38.6210   32.8560   40.2280 S   0  0  0  0  0  0  0  0  0  0  0  0
   39.6340   32.1620   41.6110 C   0  0  0  0  0  0  0  0  0  0  0  0
   40.3510   33.0740   41.8810 N   0  0  0  0  0  0  0  0  0  0  0  0
   51.5864   33.6683   41.6753 H   0  0  0  0  0  0  0  0  0  0  0  0
   51.6635   31.1513   41.6914 H   0  0  0  0  0  0  0  0  0  0  0  0
   49.6562   29.9287   42.6066 H   0  0  0  0  0  0  0  0  0  0  0  0
   47.6351   32.5397   45.2718 H   0  0  0  0  0  0  0  0  0  0  0  0
   46.0262   33.9590   47.4709 H   0  0  0  0  0  0  0  0  0  0  0  0
   44.4340   33.4238   46.8344 H   0  0  0  0  0  0  0  0  0  0  0  0
   45.8280   32.2910   46.8344 H   0  0  0  0  0  0  0  0  0  0  0  0
   44.3118   36.8056   43.5171 H   0  0  0  0  0  0  0  0  0  0  0  0
   45.4480   36.7699   42.1216 H   0  0  0  0  0  0  0  0  0  0  0  0
   44.1062   34.4910   41.7336 H   0  0  0  0  0  0  0  0  0  0  0  0
   43.6639   36.1694   41.0619 H   0  0  0  0  0  0  0  0  0  0  0  0
   42.3034   35.3332   43.5016 H   0  0  0  0  0  0  0  0  0  0  0  0
   39.3050   35.3498   39.6642 H   0  0  0  0  0  0  0  0  0  0  0  0
   39.5865   31.1624   42.0676 H   0  0  0  0  0  0  0  0  0  0  0  0
  1  2  2  0
  1  6  1  0
  2  3  1  0
  3  4  2  0
  5  4  1  0
  5  7  1  0
  6  5  2  0
  7  8  1  0
  8  9  2  0
  9 15  1  0
 10 11  2  0
 10  9  1  0
 12 10  1  0
 13 12  1  0
 13  7  1  0
 14 13  2  0
 16 12  1  0
 17 18  1  0
 17 16  1  0
 19 18  1  0
 20 19  2  0
 21 19  1  0
 21 25  1  0
 22 21  2  0
 23 22  1  0
 23 24  1  0
 24 25  2  0
  1 26  1  0
  2 27  1  0
  3 28  1  0
  8 29  1  0
 15 30  1  0
 15 31  1  0
 15 32  1  0
 16 33  1  0
 16 34  1  0
 17 35  1  0
 17 36  1  0
 18 37  1  0
 22 38  1  0
 24 39  1  0
M  ISO  8  26  14  27  14  28  14  29  14  30   8  31   8  32   8  33   8
M  ISO  5  34   8  35   8  36   8  38  14  39  14
M  END
>  <minimizedAffinity>  (1) 
-6.40957355

>  <minimizedRMSD>  (1) 
0.377612948

$$$$
