
     RDKit          3D

 41 43  0  0  0  0  0  0  0  0999 V2000
   50.7070   33.1030   42.0560 C   0  0  0  0  0  0  0  0  0  0  0  0
   50.7680   31.7100   42.0780 C   0  0  0  0  0  0  0  0  0  0  0  0
   49.6700   31.0350   42.5920 C   0  0  0  0  0  0  0  0  0  0  0  0
   48.6040   31.7650   43.0410 N   0  0  0  0  0  0  0  0  0  0  0  0
   48.5820   33.1080   43.0030 C   0  0  0  0  0  0  0  0  0  0  0  0
   49.6160   33.7440   42.5210 N   0  0  0  0  0  0  0  0  0  0  0  0
   47.4050   33.7030   43.5090 N   0  0  0  0  0  0  0  0  0  0  0  0
   47.0240   33.3170   44.7470 C   0  0  0  0  0  0  0  0  0  0  0  0
   45.8910   33.8360   45.3500 C   0  0  0  0  0  0  0  0  0  0  0  0
   45.1430   34.7730   44.6560 C   0  0  0  0  0  0  0  0  0  0  0  0
   44.1120   35.2690   45.1640 O   0  0  0  0  0  0  0  0  0  0  0  0
   45.5370   35.1510   43.4150 N   0  0  0  0  0  0  0  0  0  0  0  0
   46.6430   34.6240   42.8620 C   0  0  0  0  0  0  0  0  0  0  0  0
   47.0410   34.9480   41.7110 O   0  0  0  0  0  0  0  0  0  0  0  0
   45.4980   33.3840   46.7200 C   0  0  0  0  0  0  0  0  0  0  0  0
   44.7370   36.1280   42.7270 C   0  0  0  0  0  0  0  0  0  0  0  0
   43.7040   35.4510   41.9290 C   0  0  0  0  0  0  0  0  0  0  0  0
   42.3600   35.4050   42.4630 N   0  0  0  0  0  0  0  0  0  0  0  0
   41.2340   35.5070   41.6420 C   0  0  0  0  0  0  0  0  0  0  0  0
   40.8240   36.6070   41.0450 O   0  0  0  0  0  0  0  0  0  0  0  0
   40.2840   34.3740   41.3070 C   0  0  0  0  0  0  0  0  0  0  0  0
   39.3220   34.4970   40.3660 C   0  0  0  0  0  0  0  0  0  0  0  0
   38.4230   33.5240   40.0040 C   0  0  0  0  0  0  0  0  0  0  0  0
   38.5240   32.3360   40.6630 N   0  0  0  0  0  0  0  0  0  0  0  0
   39.4670   32.1720   41.6060 C   0  0  0  0  0  0  0  0  0  0  0  0
   40.2990   33.1660   41.8950 N   0  0  0  0  0  0  0  0  0  0  0  0
   51.5533   33.6816   41.6573 H   0  0  0  0  0  0  0  0  0  0  0  0
   51.6496   31.1690   41.7036 H   0  0  0  0  0  0  0  0  0  0  0  0
   49.6571   29.9360   42.6374 H   0  0  0  0  0  0  0  0  0  0  0  0
   47.6279   32.5735   45.2878 H   0  0  0  0  0  0  0  0  0  0  0  0
   46.0251   33.9903   47.4714 H   0  0  0  0  0  0  0  0  0  0  0  0
   44.4121   33.5039   46.8482 H   0  0  0  0  0  0  0  0  0  0  0  0
   45.7677   32.3253   46.8482 H   0  0  0  0  0  0  0  0  0  0  0  0
   44.2557   36.7896   43.4623 H   0  0  0  0  0  0  0  0  0  0  0  0
   45.3805   36.7215   42.0610 H   0  0  0  0  0  0  0  0  0  0  0  0
   44.0333   34.4121   41.7799 H   0  0  0  0  0  0  0  0  0  0  0  0
   43.6181   36.0580   41.0157 H   0  0  0  0  0  0  0  0  0  0  0  0
   42.2294   35.2937   43.4786 H   0  0  0  0  0  0  0  0  0  0  0  0
   39.2528   35.4625   39.8434 H   0  0  0  0  0  0  0  0  0  0  0  0
   37.6643   33.6943   39.2259 H   0  0  0  0  0  0  0  0  0  0  0  0
   39.5500   31.2134   42.1392 H   0  0  0  0  0  0  0  0  0  0  0  0
  1  2  2  0
  1  6  1  0
  2  3  1  0
  3  4  2  0
  5  4  1  0
  5  7  1  0
  6  5  2  0
  7  8  1  0
  8  9  2  0
  9 15  1  0
 10 11  2  0
 10  9  1  0
 12 10  1  0
 13 12  1  0
 13  7  1  0
 14 13  2  0
 16 12  1  0
 17 18  1  0
 17 16  1  0
 19 18  1  0
 20 19  2  0
 21 19  1  0
 21 26  1  0
 22 21  2  0
 23 22  1  0
 23 24  2  0
 24 25  1  0
 25 26  2  0
  1 27  1  0
  2 28  1  0
  3 29  1  0
  8 30  1  0
 15 31  1  0
 15 32  1  0
 15 33  1  0
 16 34  1  0
 16 35  1  0
 17 36  1  0
 17 37  1  0
 18 38  1  0
 22 39  1  0
 23 40  1  0
 25 41  1  0
M  ISO  8  27  14  28  14  29  14  30  14  31   8  32   8  33   8  34   8
M  ISO  6  35   8  36   8  37   8  39  14  40  14  41  14
M  END
>  <minimizedAffinity>  (1) 
-6.75506306

>  <minimizedRMSD>  (1) 
0.541712761

$$$$
