
     RDKit          3D

 17 18  0  0  0  0  0  0  0  0999 V2000
   46.0610   33.7980   44.7640 C   0  0  0  0  0  0  0  0  0  0  0  0
   45.0050   34.7260   44.6120 C   0  0  0  0  0  0  0  0  0  0  0  0
   45.0900   35.6280   43.5480 C   0  0  0  0  0  0  0  0  0  0  0  0
   46.1710   35.5700   42.7210 N   0  0  0  0  0  0  0  0  0  0  0  0
   47.1700   34.6600   42.8970 C   0  0  0  0  0  0  0  0  0  0  0  0
   47.1100   33.7830   43.9140 N   0  0  0  0  0  0  0  0  0  0  0  0
   48.3290   34.6360   41.9680 C   0  0  0  0  0  0  0  0  0  0  0  0
   48.9880   35.8530   41.4830 C   0  0  0  0  0  0  0  0  0  0  0  0
   49.7020   34.9540   42.4870 C   0  0  0  0  0  0  0  0  0  0  0  0
   46.0272   33.0738   45.5913 H   0  0  0  0  0  0  0  0  0  0  0  0
   44.1501   34.7375   45.3041 H   0  0  0  0  0  0  0  0  0  0  0  0
   44.2974   36.3723   43.3811 H   0  0  0  0  0  0  0  0  0  0  0  0
   47.8596   33.7849   41.4529 H   0  0  0  0  0  0  0  0  0  0  0  0
   49.3447   35.9077   40.4439 H   0  0  0  0  0  0  0  0  0  0  0  0
   48.7209   36.9195   41.4485 H   0  0  0  0  0  0  0  0  0  0  0  0
   49.8402   35.2832   43.5274 H   0  0  0  0  0  0  0  0  0  0  0  0
   50.6696   34.4327   42.5317 H   0  0  0  0  0  0  0  0  0  0  0  0
  2  1  2  0
  3  2  1  0
  4  5  1  0
  4  3  2  0
  5  6  2  0
  6  1  1  0
  7  9  1  0
  7  5  1  0
  8  7  1  0
  8  9  1  0
  1 10  1  0
  2 11  1  0
  3 12  1  0
  7 13  1  0
  8 14  1  0
  8 15  1  0
  9 16  1  0
  9 17  1  0
M  ISO  8  10  14  11  14  12  14  13  13  14  13  15  13  16  13  17  13
M  END
>  <minimizedAffinity>  (1) 
-3.78666854

>  <minimizedRMSD>  (1) 
4.58016253

$$$$
