
     RDKit          3D

 31 34  0  0  1  0  0  0  0  0999 V2000
   47.4550   34.4960   42.2230 C   0  0  1  0  0  0  0  0  0  0  0  0
   48.4170   35.4790   41.7700 C   0  0  0  0  0  0  0  0  0  0  0  0
   48.8960   34.3280   42.6640 C   0  0  2  0  0  0  0  0  0  0  0  0
   49.7930   33.3980   41.9630 C   0  0  0  0  0  0  0  0  0  0  0  0
   51.1620   33.2260   42.1900 C   0  0  0  0  0  0  0  0  0  0  0  0
   51.7160   32.2970   41.3880 N   0  0  0  0  0  0  0  0  0  0  0  0
   50.7170   31.8290   40.6040 C   0  0  0  0  0  0  0  0  0  0  0  0
   50.7380   30.8700   39.6140 C   0  0  0  0  0  0  0  0  0  0  0  0
   49.5770   30.5820   38.9700 C   0  0  0  0  0  0  0  0  0  0  0  0
   48.3910   31.2220   39.2860 C   0  0  0  0  0  0  0  0  0  0  0  0
   48.3730   32.1900   40.2860 C   0  0  0  0  0  0  0  0  0  0  0  0
   49.5420   32.4880   40.9430 C   0  0  0  0  0  0  0  0  0  0  0  0
   45.3980   34.2290   45.2530 C   0  0  0  0  0  0  0  0  0  0  0  0
   44.5380   35.3610   45.1740 C   0  0  0  0  0  0  0  0  0  0  0  0
   44.6690   36.2030   44.0770 C   0  0  0  0  0  0  0  0  0  0  0  0
   45.5990   35.9130   43.1420 N   0  0  0  0  0  0  0  0  0  0  0  0
   46.4150   34.8110   43.2470 C   0  0  0  0  0  0  0  0  0  0  0  0
   46.3130   33.9790   44.2930 N   0  0  0  0  0  0  0  0  0  0  0  0
   46.7205   33.8728   41.6919 H   0  0  0  0  0  0  0  0  0  0  0  0
   48.7119   35.5081   40.7107 H   0  0  0  0  0  0  0  0  0  0  0  0
   48.4827   36.5758   41.8227 H   0  0  0  0  0  0  0  0  0  0  0  0
   49.3690   34.1624   43.6432 H   0  0  0  0  0  0  0  0  0  0  0  0
   51.7277   33.7910   42.9454 H   0  0  0  0  0  0  0  0  0  0  0  0
   52.7026   32.0016   41.3740 H   0  0  0  0  0  0  0  0  0  0  0  0
   51.6717   30.3508   39.3519 H   0  0  0  0  0  0  0  0  0  0  0  0
   49.5795   29.8202   38.1765 H   0  0  0  0  0  0  0  0  0  0  0  0
   47.4658   30.9664   38.7486 H   0  0  0  0  0  0  0  0  0  0  0  0
   47.4380   32.7079   40.5459 H   0  0  0  0  0  0  0  0  0  0  0  0
   45.3152   33.5463   46.1115 H   0  0  0  0  0  0  0  0  0  0  0  0
   43.7928   35.5626   45.9576 H   0  0  0  0  0  0  0  0  0  0  0  0
   44.0268   37.0899   43.9719 H   0  0  0  0  0  0  0  0  0  0  0  0
  1  3  1  0
  1 17  1  0
  2  1  1  0
  2  3  1  0
  4  5  2  0
  4  3  1  0
  6  5  1  0
  7 12  2  0
  7  6  1  0
  8  7  1  0
  9 10  1  0
  9  8  2  0
 10 11  2  0
 11 12  1  0
 12  4  1  0
 14 13  2  0
 15 14  1  0
 16 17  1  0
 16 15  2  0
 17 18  2  0
 18 13  1  0
  1 19  1  6
  2 20  1  0
  2 21  1  0
  3 22  1  1
  5 23  1  0
  6 24  1  0
  8 25  1  0
  9 26  1  0
 10 27  1  0
 11 28  1  0
 13 29  1  0
 14 30  1  0
 15 31  1  0
M  ISO  8  19  13  20  13  21  13  22  13  23  14  24   9  25  14  26  14
M  ISO  5  27  14  28  14  29  14  30  14  31  14
M  END
>  <minimizedAffinity>  (1) 
-5.35974979

>  <minimizedRMSD>  (1) 
1.74585247

$$$$
