
     RDKit          3D

 31 34  0  0  1  0  0  0  0  0999 V2000
   47.6030   34.5890   42.1310 C   0  0  1  0  0  0  0  0  0  0  0  0
   48.6940   35.4980   41.8490 C   0  0  0  0  0  0  0  0  0  0  0  0
   48.9820   34.2140   42.6350 C   0  0  2  0  0  0  0  0  0  0  0  0
   49.7650   33.2750   41.8590 N   0  0  0  0  0  0  0  0  0  0  0  0
   51.0380   32.8500   41.9430 C   0  0  0  0  0  0  0  0  0  0  0  0
   51.3250   31.9600   40.9910 N   0  0  0  0  0  0  0  0  0  0  0  0
   50.2120   31.7980   40.2640 C   0  0  0  0  0  0  0  0  0  0  0  0
   50.0330   30.9720   39.1690 C   0  0  0  0  0  0  0  0  0  0  0  0
   50.9620   30.2570   38.7350 O   0  0  0  0  0  0  0  0  0  0  0  0
   48.8020   30.9840   38.6000 N   0  0  0  0  0  0  0  0  0  0  0  0
   47.8450   31.7760   39.1150 C   0  0  0  0  0  0  0  0  0  0  0  0
   46.5670   31.7700   38.5010 N   0  0  0  0  0  0  0  0  0  0  0  0
   48.0450   32.5710   40.1820 N   0  0  0  0  0  0  0  0  0  0  0  0
   49.2390   32.6140   40.8000 C   0  0  0  0  0  0  0  0  0  0  0  0
   45.4180   34.2700   45.0590 C   0  0  0  0  0  0  0  0  0  0  0  0
   44.5400   35.3890   44.9730 C   0  0  0  0  0  0  0  0  0  0  0  0
   44.7250   36.2520   43.8750 C   0  0  0  0  0  0  0  0  0  0  0  0
   45.7210   35.9650   42.9760 N   0  0  0  0  0  0  0  0  0  0  0  0
   46.5270   34.8800   43.1140 C   0  0  0  0  0  0  0  0  0  0  0  0
   46.3760   34.0420   44.1440 N   0  0  0  0  0  0  0  0  0  0  0  0
   46.8439   34.1235   41.4853 H   0  0  0  0  0  0  0  0  0  0  0  0
   49.0655   35.6040   40.8191 H   0  0  0  0  0  0  0  0  0  0  0  0
   48.8722   36.5686   42.0278 H   0  0  0  0  0  0  0  0  0  0  0  0
   49.3769   33.9045   43.6139 H   0  0  0  0  0  0  0  0  0  0  0  0
   51.7549   33.1938   42.7032 H   0  0  0  0  0  0  0  0  0  0  0  0
   48.6020   30.3921   37.7811 H   0  0  0  0  0  0  0  0  0  0  0  0
   45.8140   32.3662   38.8732 H   0  0  0  0  0  0  0  0  0  0  0  0
   46.3916   31.1695   37.6828 H   0  0  0  0  0  0  0  0  0  0  0  0
   45.3084   33.5705   45.9009 H   0  0  0  0  0  0  0  0  0  0  0  0
   43.7580   35.5697   45.7252 H   0  0  0  0  0  0  0  0  0  0  0  0
   44.0850   37.1366   43.7413 H   0  0  0  0  0  0  0  0  0  0  0  0
  1  3  1  0
  1 19  1  0
  2  1  1  0
  2  3  1  0
  4  5  1  0
  4  3  1  0
  6  5  2  0
  7 14  2  0
  7  6  1  0
  8  7  1  0
  9  8  2  0
 10 11  1  0
 10  8  1  0
 11 13  2  0
 12 11  1  0
 13 14  1  0
 14  4  1  0
 16 15  2  0
 17 16  1  0
 18 19  1  0
 18 17  2  0
 19 20  2  0
 20 15  1  0
  1 21  1  6
  2 22  1  0
  2 23  1  0
  3 24  1  1
  5 25  1  0
 10 26  1  0
 12 27  1  0
 12 28  1  0
 15 29  1  0
 16 30  1  0
 17 31  1  0
M  ISO  8  21  13  22  13  23  13  24  13  25  14  26   9  29  14  30  14
M  ISO  1  31  14
M  END
>  <minimizedAffinity>  (1) 
-5.07178783

>  <minimizedRMSD>  (1) 
1.7631731

$$$$
