
     RDKit          3D

 27 29  0  0  1  0  0  0  0  0999 V2000
   43.9910   35.4040   42.0230 C   0  0  1  0  0  0  0  0  0  0  0  0
   44.2630   35.7730   43.3960 C   0  0  0  0  0  0  0  0  0  0  0  0
   44.8430   34.4600   42.8530 C   0  0  2  0  0  0  0  0  0  0  0  0
   41.2970   33.1640   40.9410 C   0  0  0  0  0  0  0  0  0  0  0  0
   40.1990   34.0410   40.7000 C   0  0  0  0  0  0  0  0  0  0  0  0
   40.4000   35.4190   40.9120 C   0  0  0  0  0  0  0  0  0  0  0  0
   41.6310   35.8170   41.3330 N   0  0  0  0  0  0  0  0  0  0  0  0
   42.6570   34.9490   41.5530 C   0  0  0  0  0  0  0  0  0  0  0  0
   42.4830   33.6370   41.3560 N   0  0  0  0  0  0  0  0  0  0  0  0
   46.2860   34.4970   42.7380 N   0  0  0  0  0  0  0  0  0  0  0  0
   46.8900   35.0320   41.6690 C   0  0  0  0  0  0  0  0  0  0  0  0
   48.2680   35.0770   41.5400 C   0  0  0  0  0  0  0  0  0  0  0  0
   49.0620   34.5580   42.5370 C   0  0  0  0  0  0  0  0  0  0  0  0
   50.3070   34.6180   42.3860 O   0  0  0  0  0  0  0  0  0  0  0  0
   48.4250   34.0210   43.6110 N   0  0  0  0  0  0  0  0  0  0  0  0
   47.0860   33.9970   43.6980 C   0  0  0  0  0  0  0  0  0  0  0  0
   46.5680   33.4770   44.7350 O   0  0  0  0  0  0  0  0  0  0  0  0
   44.1109   35.9461   41.0734 H   0  0  0  0  0  0  0  0  0  0  0  0
   44.9327   36.6184   43.6126 H   0  0  0  0  0  0  0  0  0  0  0  0
   43.6381   36.0405   44.2608 H   0  0  0  0  0  0  0  0  0  0  0  0
   44.8016   33.3784   43.0489 H   0  0  0  0  0  0  0  0  0  0  0  0
   41.1704   32.0826   40.7844 H   0  0  0  0  0  0  0  0  0  0  0  0
   39.2270   33.6543   40.3598 H   0  0  0  0  0  0  0  0  0  0  0  0
   39.5919   36.1461   40.7435 H   0  0  0  0  0  0  0  0  0  0  0  0
   46.2686   35.4511   40.8639 H   0  0  0  0  0  0  0  0  0  0  0  0
   48.7254   35.5251   40.6456 H   0  0  0  0  0  0  0  0  0  0  0  0
   48.9846   33.6220   44.3782 H   0  0  0  0  0  0  0  0  0  0  0  0
  1  3  1  0
  1  2  1  0
  3  2  1  0
  4  9  2  0
  5  6  2  0
  5  4  1  0
  6  7  1  0
  7  8  2  0
  8  1  1  0
  9  8  1  0
 10  3  1  0
 10 16  1  0
 11 10  1  0
 12 11  2  0
 12 13  1  0
 13 15  1  0
 14 13  2  0
 15 16  1  0
 16 17  2  0
  1 18  1  6
  2 19  1  0
  2 20  1  0
  3 21  1  1
  4 22  1  0
  5 23  1  0
  6 24  1  0
 11 25  1  0
 12 26  1  0
 15 27  1  0
M  ISO  8  18  13  19  13  20  13  21  13  22  14  23  14  24  14  25  14
M  ISO  2  26  14  27   9
M  END
>  <minimizedAffinity>  (1) 
-5.21463251

>  <minimizedRMSD>  (1) 
5.14326859

$$$$
