
     RDKit          3D

 20 21  0  0  1  0  0  0  0  0999 V2000
   47.6980   34.4820   42.1860 C   0  0  1  0  0  0  0  0  0  0  0  0
   48.5320   35.4900   41.5700 C   0  0  0  0  0  0  0  0  0  0  0  0
   49.1450   34.5610   42.6290 C   0  0  2  0  0  0  0  0  0  0  0  0
   45.5160   34.1750   45.1250 C   0  0  0  0  0  0  0  0  0  0  0  0
   44.6140   35.2690   44.9840 C   0  0  0  0  0  0  0  0  0  0  0  0
   44.7760   36.1010   43.8640 C   0  0  0  0  0  0  0  0  0  0  0  0
   45.7870   35.8140   42.9800 N   0  0  0  0  0  0  0  0  0  0  0  0
   46.6180   34.7610   43.1600 C   0  0  0  0  0  0  0  0  0  0  0  0
   46.4850   33.9480   44.2220 N   0  0  0  0  0  0  0  0  0  0  0  0
   50.0490   33.5050   42.1140 C   0  0  0  0  0  0  0  0  0  0  0  0
   49.6690   32.5900   41.3630 O   0  0  0  0  0  0  0  0  0  0  0  0
   51.3840   33.5620   42.5060 O   0  0  0  0  0  0  0  0  0  0  0  0
   47.0397   33.7127   41.7560 H   0  0  0  0  0  0  0  0  0  0  0  0
   48.8264   35.3868   40.5152 H   0  0  0  0  0  0  0  0  0  0  0  0
   48.4617   36.5809   41.4478 H   0  0  0  0  0  0  0  0  0  0  0  0
   49.6794   34.6758   43.5836 H   0  0  0  0  0  0  0  0  0  0  0  0
   45.4172   33.5029   45.9902 H   0  0  0  0  0  0  0  0  0  0  0  0
   43.8214   35.4548   45.7237 H   0  0  0  0  0  0  0  0  0  0  0  0
   44.1099   36.9607   43.6991 H   0  0  0  0  0  0  0  0  0  0  0  0
   52.0235   32.8773   42.1861 H   0  0  0  0  0  0  0  0  0  0  0  0
  1  3  1  0
  1  8  1  0
  2  1  1  0
  2  3  1  0
  5  4  2  0
  6  5  1  0
  7  8  1  0
  7  6  2  0
  8  9  2  0
  9  4  1  0
 10 12  1  0
 10  3  1  0
 11 10  2  0
  1 13  1  6
  2 14  1  0
  2 15  1  0
  3 16  1  1
  4 17  1  0
  5 18  1  0
  6 19  1  0
 12 20  1  0
M  ISO  8  13  13  14  13  15  13  16  13  17  14  18  14  19  14  20   3
M  END
>  <minimizedAffinity>  (1) 
-4.63732719

>  <minimizedRMSD>  (1) 
0.807664216

$$$$
