
     RDKit          3D

 24 26  0  0  1  0  0  0  0  0999 V2000
   47.4150   34.6060   42.0590 C   0  0  1  0  0  0  0  0  0  0  0  0
   48.3920   35.5750   41.6010 C   0  0  0  0  0  0  0  0  0  0  0  0
   48.8760   34.3960   42.4180 C   0  0  2  0  0  0  0  0  0  0  0  0
   45.4580   34.1740   45.1340 C   0  0  0  0  0  0  0  0  0  0  0  0
   44.6020   35.3150   45.1600 C   0  0  0  0  0  0  0  0  0  0  0  0
   44.7220   36.2250   44.0920 C   0  0  0  0  0  0  0  0  0  0  0  0
   45.6450   35.9580   43.1080 N   0  0  0  0  0  0  0  0  0  0  0  0
   46.4300   34.8560   43.1390 C   0  0  0  0  0  0  0  0  0  0  0  0
   46.3440   33.9710   44.1340 N   0  0  0  0  0  0  0  0  0  0  0  0
   49.6550   33.3070   41.7490 C   0  0  0  0  0  0  0  0  0  0  0  0
   49.8060   32.0150   42.4410 C   0  0  0  0  0  0  0  0  0  0  0  0
   51.0080   32.8980   42.1270 C   0  0  0  0  0  0  0  0  0  0  0  0
   46.6300   34.0414   41.5346 H   0  0  0  0  0  0  0  0  0  0  0  0
   48.6399   35.6357   40.5310 H   0  0  0  0  0  0  0  0  0  0  0  0
   48.4929   36.6665   41.6929 H   0  0  0  0  0  0  0  0  0  0  0  0
   49.4522   34.2525   43.3440 H   0  0  0  0  0  0  0  0  0  0  0  0
   45.3951   33.4394   45.9503 H   0  0  0  0  0  0  0  0  0  0  0  0
   43.8821   35.4764   45.9759 H   0  0  0  0  0  0  0  0  0  0  0  0
   44.0934   37.1265   44.0460 H   0  0  0  0  0  0  0  0  0  0  0  0
   49.2419   33.6566   40.7913 H   0  0  0  0  0  0  0  0  0  0  0  0
   49.4600   31.8981   43.4786 H   0  0  0  0  0  0  0  0  0  0  0  0
   49.5193   30.9733   42.2345 H   0  0  0  0  0  0  0  0  0  0  0  0
   51.7297   32.5946   41.3543 H   0  0  0  0  0  0  0  0  0  0  0  0
   51.8265   33.3436   42.7113 H   0  0  0  0  0  0  0  0  0  0  0  0
  1  3  1  0
  1  8  1  0
  2  1  1  0
  2  3  1  0
  4  5  2  0
  6  5  1  0
  7  8  1  0
  7  6  2  0
  8  9  2  0
  9  4  1  0
 10 12  1  0
 10  3  1  0
 10 11  1  0
 12 11  1  0
  1 13  1  6
  2 14  1  0
  2 15  1  0
  3 16  1  1
  4 17  1  0
  5 18  1  0
  6 19  1  0
 10 20  1  0
 11 21  1  0
 11 22  1  0
 12 23  1  0
 12 24  1  0
M  ISO  8  13  13  14  13  15  13  16  13  17  14  18  14  19  14  20  13
M  ISO  4  21  13  22  13  23  13  24  13
M  END
>  <minimizedAffinity>  (1) 
-4.26873875

>  <minimizedRMSD>  (1) 
1.01910639

$$$$
