
     RDKit          3D

 19 20  0  0  1  0  0  0  0  0999 V2000
   47.6400   34.4350   42.1890 C   0  0  1  0  0  0  0  0  0  0  0  0
   48.4600   35.4380   41.5400 C   0  0  0  0  0  0  0  0  0  0  0  0
   49.0950   34.5310   42.5970 C   0  0  2  0  0  0  0  0  0  0  0  0
   45.4940   34.2060   45.1670 C   0  0  0  0  0  0  0  0  0  0  0  0
   44.6040   35.3110   45.0260 C   0  0  0  0  0  0  0  0  0  0  0  0
   44.7730   36.1150   43.8890 C   0  0  0  0  0  0  0  0  0  0  0  0
   45.7630   35.8040   42.9960 N   0  0  0  0  0  0  0  0  0  0  0  0
   46.5800   34.7400   43.1800 C   0  0  0  0  0  0  0  0  0  0  0  0
   46.4620   33.9440   44.2450 N   0  0  0  0  0  0  0  0  0  0  0  0
   50.0000   33.5150   41.9990 C   0  0  0  0  0  0  0  0  0  0  0  0
   51.1530   33.4370   42.4010 O   0  0  0  0  0  0  0  0  0  0  0  0
   46.9786   33.6519   41.7899 H   0  0  0  0  0  0  0  0  0  0  0  0
   48.7340   35.3195   40.4813 H   0  0  0  0  0  0  0  0  0  0  0  0
   48.3834   36.5267   41.4024 H   0  0  0  0  0  0  0  0  0  0  0  0
   49.6320   34.6392   43.5509 H   0  0  0  0  0  0  0  0  0  0  0  0
   45.3964   33.5480   46.0431 H   0  0  0  0  0  0  0  0  0  0  0  0
   43.8236   35.5225   45.7718 H   0  0  0  0  0  0  0  0  0  0  0  0
   44.1194   36.9830   43.7174 H   0  0  0  0  0  0  0  0  0  0  0  0
   49.6386   32.8430   41.2066 H   0  0  0  0  0  0  0  0  0  0  0  0
  1  3  1  0
  1  8  1  0
  2  1  1  0
  2  3  1  0
  5  4  2  0
  6  5  1  0
  7  8  1  0
  7  6  2  0
  8  9  2  0
  9  4  1  0
 10 11  2  0
 10  3  1  0
  1 12  1  6
  2 13  1  0
  2 14  1  0
  3 15  1  1
  4 16  1  0
  5 17  1  0
  6 18  1  0
 10 19  1  0
M  ISO  8  12  13  13  13  14  13  15  13  16  14  17  14  18  14  19   6
M  END
>  <minimizedAffinity>  (1) 
-4.06985474

>  <minimizedRMSD>  (1) 
0.924298346

$$$$
