
     RDKit          3D

 26 27  0  0  1  0  0  0  0  0999 V2000
   45.8090   32.7370   46.0210 C   0  0  1  0  0  0  0  0  0  0  0  0
   46.9930   31.9000   45.9460 C   0  0  0  0  0  0  0  0  0  0  0  0
   46.8280   32.8430   47.1330 C   0  0  2  0  0  0  0  0  0  0  0  0
   44.5840   35.9640   44.7460 C   0  0  0  0  0  0  0  0  0  0  0  0
   45.1870   36.0680   43.4570 C   0  0  0  0  0  0  0  0  0  0  0  0
   46.0140   34.9990   43.0560 C   0  0  0  0  0  0  0  0  0  0  0  0
   46.1870   33.9400   43.9120 N   0  0  0  0  0  0  0  0  0  0  0  0
   45.5870   33.9000   45.1240 C   0  0  0  0  0  0  0  0  0  0  0  0
   44.7910   34.9020   45.5430 N   0  0  0  0  0  0  0  0  0  0  0  0
   46.4420   32.2280   48.4560 C   0  0  0  0  0  0  0  0  0  0  0  0
   47.3560   31.0990   48.8470 C   0  0  0  0  0  0  0  0  0  0  0  0
   45.0370   31.6430   48.3600 C   0  0  0  0  0  0  0  0  0  0  0  0
   44.7335   32.5150   45.9569 H   0  0  0  0  0  0  0  0  0  0  0  0
   46.9054   30.8135   46.0939 H   0  0  0  0  0  0  0  0  0  0  0  0
   47.7774   31.7381   45.1920 H   0  0  0  0  0  0  0  0  0  0  0  0
   47.4262   33.6411   47.5970 H   0  0  0  0  0  0  0  0  0  0  0  0
   43.9310   36.7764   45.0974 H   0  0  0  0  0  0  0  0  0  0  0  0
   45.0150   36.9394   42.8081 H   0  0  0  0  0  0  0  0  0  0  0  0
   46.5115   35.0133   42.0751 H   0  0  0  0  0  0  0  0  0  0  0  0
   46.5060   33.0300   49.2062 H   0  0  0  0  0  0  0  0  0  0  0  0
   47.4092   31.0333   49.9437 H   0  0  0  0  0  0  0  0  0  0  0  0
   46.9655   30.1539   48.4416 H   0  0  0  0  0  0  0  0  0  0  0  0
   48.3617   31.2842   48.4416 H   0  0  0  0  0  0  0  0  0  0  0  0
   44.6389   31.4772   49.3720 H   0  0  0  0  0  0  0  0  0  0  0  0
   44.3841   32.3440   47.8194 H   0  0  0  0  0  0  0  0  0  0  0  0
   45.0745   30.6857   47.8194 H   0  0  0  0  0  0  0  0  0  0  0  0
  1  3  1  0
  2  1  1  0
  2  3  1  0
  3 10  1  0
  4  9  2  0
  5  4  1  0
  6  5  2  0
  6  7  1  0
  7  8  2  0
  8  9  1  0
  8  1  1  0
 10 11  1  0
 12 10  1  0
  1 13  1  1
  2 14  1  0
  2 15  1  0
  3 16  1  1
  4 17  1  0
  5 18  1  0
  6 19  1  0
 10 20  1  0
 11 21  1  0
 11 22  1  0
 11 23  1  0
 12 24  1  0
 12 25  1  0
 12 26  1  0
M  ISO  8  13  13  14  13  15  13  16  13  17  14  18  14  19  14  20   8
M  ISO  6  21   8  22   8  23   8  24   8  25   8  26   8
M  END
>  <minimizedAffinity>  (1) 
-4.2925539

>  <minimizedRMSD>  (1) 
5.60279036

$$$$
