
     RDKit          3D

 33 36  0  0  1  0  0  0  0  0999 V2000
   47.7170   31.9270   42.5170 C   0  0  1  0  0  0  0  0  0  0  0  0
   46.9640   30.7570   42.9370 C   0  0  0  0  0  0  0  0  0  0  0  0
   47.7030   31.5810   43.9970 C   0  0  2  0  0  0  0  0  0  0  0  0
   46.8280   32.4030   44.8270 C   0  0  0  0  0  0  0  0  0  0  0  0
   46.1770   33.5510   44.4200 C   0  0  0  0  0  0  0  0  0  0  0  0
   45.3520   34.3250   45.2040 C   0  0  0  0  0  0  0  0  0  0  0  0
   45.1360   33.9580   46.4920 C   0  0  0  0  0  0  0  0  0  0  0  0
   45.7480   32.8270   46.9710 C   0  0  0  0  0  0  0  0  0  0  0  0
   45.5070   32.4850   48.2810 C   0  0  0  0  0  0  0  0  0  0  0  0
   46.0860   31.3610   48.8350 C   0  0  0  0  0  0  0  0  0  0  0  0
   46.9150   30.5800   48.0540 C   0  0  0  0  0  0  0  0  0  0  0  0
   47.1240   30.9690   46.7430 C   0  0  0  0  0  0  0  0  0  0  0  0
   46.5810   32.0670   46.1420 C   0  0  0  0  0  0  0  0  0  0  0  0
   51.2660   32.3110   41.6260 C   0  0  0  0  0  0  0  0  0  0  0  0
   51.3490   31.7170   40.3320 C   0  0  0  0  0  0  0  0  0  0  0  0
   50.1700   31.1970   39.8030 C   0  0  0  0  0  0  0  0  0  0  0  0
   49.0140   31.2790   40.5370 N   0  0  0  0  0  0  0  0  0  0  0  0
   48.9860   31.8540   41.7620 C   0  0  0  0  0  0  0  0  0  0  0  0
   50.1010   32.3590   42.2900 N   0  0  0  0  0  0  0  0  0  0  0  0
   47.4490   32.8031   41.9082 H   0  0  0  0  0  0  0  0  0  0  0  0
   45.8647   30.7723   42.9009 H   0  0  0  0  0  0  0  0  0  0  0  0
   46.9633   29.6957   42.6476 H   0  0  0  0  0  0  0  0  0  0  0  0
   48.4618   31.4019   44.7729 H   0  0  0  0  0  0  0  0  0  0  0  0
   46.3311   33.8745   43.3800 H   0  0  0  0  0  0  0  0  0  0  0  0
   44.8753   35.2270   44.7927 H   0  0  0  0  0  0  0  0  0  0  0  0
   44.4811   34.5571   47.1417 H   0  0  0  0  0  0  0  0  0  0  0  0
   44.8453   33.1143   48.8944 H   0  0  0  0  0  0  0  0  0  0  0  0
   45.8899   31.0913   49.8833 H   0  0  0  0  0  0  0  0  0  0  0  0
   47.3939   29.6774   48.4614 H   0  0  0  0  0  0  0  0  0  0  0  0
   47.7858   30.3379   46.1316 H   0  0  0  0  0  0  0  0  0  0  0  0
   52.1702   32.7359   42.0863 H   0  0  0  0  0  0  0  0  0  0  0  0
   52.2984   31.6717   39.7784 H   0  0  0  0  0  0  0  0  0  0  0  0
   50.1660   30.7263   38.8088 H   0  0  0  0  0  0  0  0  0  0  0  0
  1  2  1  0
  1  3  1  0
  2  3  1  0
  3  4  1  0
  4 13  1  0
  5  4  2  0
  5  6  1  0
  6  7  2  0
  7  8  1  0
  8  9  2  0
  9 10  1  0
 11 10  2  0
 12 11  1  0
 13 12  2  0
 13  8  1  0
 14 19  2  0
 15 14  1  0
 16 15  2  0
 16 17  1  0
 17 18  2  0
 18 19  1  0
 18  1  1  0
  1 20  1  1
  2 21  1  0
  2 22  1  0
  3 23  1  1
  5 24  1  0
  6 25  1  0
  7 26  1  0
  9 27  1  0
 10 28  1  0
 11 29  1  0
 12 30  1  0
 14 31  1  0
 15 32  1  0
 16 33  1  0
M  ISO  8  20  13  21  13  22  13  23  13  24  14  25  14  26  14  27  14
M  ISO  6  28  14  29  14  30  14  31  14  32  14  33  14
M  END
>  <minimizedAffinity>  (1) 
-4.43807697

>  <minimizedRMSD>  (1) 
6.6273284

$$$$
