
     RDKit          3D

 29 30  0  0  1  0  0  0  0  0999 V2000
   47.2880   34.2400   42.3460 C   0  0  1  0  0  0  0  0  0  0  0  0
   48.2560   35.1480   41.7710 C   0  0  0  0  0  0  0  0  0  0  0  0
   48.7470   34.0610   42.7360 C   0  0  2  0  0  0  0  0  0  0  0  0
   45.3790   34.2220   45.4820 C   0  0  0  0  0  0  0  0  0  0  0  0
   44.5550   35.3800   45.3770 C   0  0  0  0  0  0  0  0  0  0  0  0
   44.6570   36.1550   44.2290 C   0  0  0  0  0  0  0  0  0  0  0  0
   45.5330   35.7660   43.2770 N   0  0  0  0  0  0  0  0  0  0  0  0
   46.3180   34.6460   43.3990 C   0  0  0  0  0  0  0  0  0  0  0  0
   46.2320   33.8850   44.5020 N   0  0  0  0  0  0  0  0  0  0  0  0
   49.4810   32.9460   42.0610 C   0  0  0  0  0  0  0  0  0  0  0  0
   49.1220   32.8500   40.5890 C   0  0  0  0  0  0  0  0  0  0  0  0
   49.0590   31.6260   42.7150 C   0  0  0  0  0  0  0  0  0  0  0  0
   50.9790   33.0780   42.1480 C   0  0  0  0  0  0  0  0  0  0  0  0
   46.5060   33.6132   41.8925 H   0  0  0  0  0  0  0  0  0  0  0  0
   48.5008   35.0797   40.7008 H   0  0  0  0  0  0  0  0  0  0  0  0
   48.3552   36.2427   41.7291 H   0  0  0  0  0  0  0  0  0  0  0  0
   49.3052   34.0038   43.6821 H   0  0  0  0  0  0  0  0  0  0  0  0
   45.3148   33.5932   46.3822 H   0  0  0  0  0  0  0  0  0  0  0  0
   43.8576   35.6524   46.1828 H   0  0  0  0  0  0  0  0  0  0  0  0
   44.0430   37.0584   44.0989 H   0  0  0  0  0  0  0  0  0  0  0  0
   48.0639   32.5671   40.4873 H   0  0  0  0  0  0  0  0  0  0  0  0
   49.2890   33.8244   40.1066 H   0  0  0  0  0  0  0  0  0  0  0  0
   49.7530   32.0890   40.1066 H   0  0  0  0  0  0  0  0  0  0  0  0
   49.0928   31.7318   43.8094 H   0  0  0  0  0  0  0  0  0  0  0  0
   48.0351   31.3729   42.4025 H   0  0  0  0  0  0  0  0  0  0  0  0
   49.7461   30.8259   42.4025 H   0  0  0  0  0  0  0  0  0  0  0  0
   51.2840   33.1049   43.2045 H   0  0  0  0  0  0  0  0  0  0  0  0
   51.4523   32.2181   41.6515 H   0  0  0  0  0  0  0  0  0  0  0  0
   51.2946   34.0074   41.6515 H   0  0  0  0  0  0  0  0  0  0  0  0
  1  3  1  0
  1  8  1  0
  2  1  1  0
  2  3  1  0
  5  4  2  0
  6  5  1  0
  7  8  1  0
  7  6  2  0
  8  9  2  0
  9  4  1  0
 10 13  1  0
 10 12  1  0
 10  3  1  0
 11 10  1  0
  1 14  1  6
  2 15  1  0
  2 16  1  0
  3 17  1  1
  4 18  1  0
  5 19  1  0
  6 20  1  0
 11 21  1  0
 11 22  1  0
 11 23  1  0
 12 24  1  0
 12 25  1  0
 12 26  1  0
 13 27  1  0
 13 28  1  0
 13 29  1  0
M  ISO  8  14  13  15  13  16  13  17  13  18  14  19  14  20  14  21   8
M  ISO  8  22   8  23   8  24   8  25   8  26   8  27   8  28   8  29   8
M  END
>  <minimizedAffinity>  (1) 
-4.37305641

>  <minimizedRMSD>  (1) 
1.49975038

$$$$
