
     RDKit          3D

 23 24  0  0  1  0  0  0  0  0999 V2000
   47.4910   34.8020   41.4080 C   0  0  1  0  0  0  0  0  0  0  0  0
   48.6140   35.6960   41.1620 C   0  0  0  0  0  0  0  0  0  0  0  0
   48.8640   34.2030   41.4250 C   0  0  1  0  0  0  0  0  0  0  0  0
   45.9520   33.8050   44.5810 C   0  0  0  0  0  0  0  0  0  0  0  0
   45.0290   34.8580   44.8420 C   0  0  0  0  0  0  0  0  0  0  0  0
   44.9790   35.8940   43.9090 C   0  0  0  0  0  0  0  0  0  0  0  0
   45.8000   35.8470   42.8120 N   0  0  0  0  0  0  0  0  0  0  0  0
   46.6580   34.8190   42.6160 C   0  0  0  0  0  0  0  0  0  0  0  0
   46.7500   33.8040   43.4730 N   0  0  0  0  0  0  0  0  0  0  0  0
   49.6120   33.8880   42.6650 C   0  0  0  0  0  0  0  0  0  0  0  0
   50.9000   33.1270   42.4310 C   0  0  0  0  0  0  0  0  0  0  0  0
   46.5593   34.6143   40.8543 H   0  0  0  0  0  0  0  0  0  0  0  0
   48.7758   36.1120   40.1566 H   0  0  0  0  0  0  0  0  0  0  0  0
   48.9728   36.6352   41.6084 H   0  0  0  0  0  0  0  0  0  0  0  0
   49.3000   33.3235   40.9286 H   0  0  0  0  0  0  0  0  0  0  0  0
   46.0240   32.9689   45.2922 H   0  0  0  0  0  0  0  0  0  0  0  0
   44.3872   34.8545   45.7353 H   0  0  0  0  0  0  0  0  0  0  0  0
   44.2890   36.7387   44.0518 H   0  0  0  0  0  0  0  0  0  0  0  0
   49.8561   34.8335   43.1713 H   0  0  0  0  0  0  0  0  0  0  0  0
   48.9639   33.2379   43.2711 H   0  0  0  0  0  0  0  0  0  0  0  0
   51.3499   32.8612   43.3990 H   0  0  0  0  0  0  0  0  0  0  0  0
   50.6860   32.2102   41.8620 H   0  0  0  0  0  0  0  0  0  0  0  0
   51.5998   33.7567   41.8620 H   0  0  0  0  0  0  0  0  0  0  0  0
  1  3  1  0
  1  8  1  0
  2  1  1  0
  2  3  1  0
  3 10  1  0
  4  5  2  0
  6  5  1  0
  7  6  2  0
  8  7  1  0
  8  9  2  0
  9  4  1  0
 11 10  1  0
  1 12  1  6
  2 13  1  0
  2 14  1  0
  3 15  1  6
  4 16  1  0
  5 17  1  0
  6 18  1  0
 10 19  1  0
 10 20  1  0
 11 21  1  0
 11 22  1  0
 11 23  1  0
M  ISO  8  12  13  13  13  14  13  15  13  16  14  17  14  18  14  19   8
M  ISO  4  20   8  21   8  22   8  23   8
M  END
>  <minimizedAffinity>  (1) 
-4.03160667

>  <minimizedRMSD>  (1) 
1.24373746

$$$$
