
     RDKit          3D

 29 31  0  0  1  0  0  0  0  0999 V2000
   47.6240   34.5690   42.1280 C   0  0  1  0  0  0  0  0  0  0  0  0
   48.5660   35.5590   41.6760 C   0  0  0  0  0  0  0  0  0  0  0  0
   49.0530   34.3650   42.5280 C   0  0  2  0  0  0  0  0  0  0  0  0
   49.8140   33.3600   41.7450 C   0  0  0  0  0  0  0  0  0  0  0  0
   51.0570   32.9420   42.0390 N   0  0  0  0  0  0  0  0  0  0  0  0
   51.4770   32.0710   41.2050 O   0  0  0  0  0  0  0  0  0  0  0  0
   50.5440   31.8790   40.3390 C   0  0  0  0  0  0  0  0  0  0  0  0
   49.4660   32.6680   40.6330 N   0  0  0  0  0  0  0  0  0  0  0  0
   50.5020   31.0140   39.2090 N   0  0  0  0  0  0  0  0  0  0  0  0
   50.9610   31.5200   37.9710 C   0  0  0  0  0  0  0  0  0  0  0  0
   51.9550   32.3280   37.8750 N   0  0  0  0  0  0  0  0  0  0  0  0
   50.3310   31.1490   36.7250 N   0  0  0  0  0  0  0  0  0  0  0  0
   52.4430   32.6230   38.7440 H   0  0  0  0  0  0  0  0  0  0  0  0
   45.5580   34.1340   45.1190 C   0  0  0  0  0  0  0  0  0  0  0  0
   44.6350   35.2050   45.0590 C   0  0  0  0  0  0  0  0  0  0  0  0
   44.7470   36.0700   43.9670 C   0  0  0  0  0  0  0  0  0  0  0  0
   45.7300   35.8400   43.0250 N   0  0  0  0  0  0  0  0  0  0  0  0
   46.5730   34.7960   43.1520 C   0  0  0  0  0  0  0  0  0  0  0  0
   46.5120   33.9460   44.1650 N   0  0  0  0  0  0  0  0  0  0  0  0
   46.8687   33.9782   41.5890 H   0  0  0  0  0  0  0  0  0  0  0  0
   48.8320   35.6186   40.6103 H   0  0  0  0  0  0  0  0  0  0  0  0
   48.6419   36.6534   41.7566 H   0  0  0  0  0  0  0  0  0  0  0  0
   49.5859   34.2019   43.4764 H   0  0  0  0  0  0  0  0  0  0  0  0
   50.1484   30.0500   39.2907 H   0  0  0  0  0  0  0  0  0  0  0  0
   50.6837   31.5310   35.8358 H   0  0  0  0  0  0  0  0  0  0  0  0
   49.5292   30.5025   36.7258 H   0  0  0  0  0  0  0  0  0  0  0  0
   45.5033   33.4308   45.9631 H   0  0  0  0  0  0  0  0  0  0  0  0
   43.8674   35.3495   45.8335 H   0  0  0  0  0  0  0  0  0  0  0  0
   44.0609   36.9230   43.8593 H   0  0  0  0  0  0  0  0  0  0  0  0
  1  3  1  0
  1 18  1  0
  2  1  1  0
  2  3  1  0
  4  5  2  0
  4  3  1  0
  6  5  1  0
  7  8  2  0
  7  6  1  0
  8  4  1  0
  9  7  1  0
 10  9  1  0
 11 10  2  0
 11 13  1  0
 12 10  1  0
 15 14  2  0
 16 15  1  0
 17 18  1  0
 17 16  2  0
 18 19  2  0
 19 14  1  0
  1 20  1  6
  2 21  1  0
  2 22  1  0
  3 23  1  1
  9 24  1  0
 12 25  1  0
 12 26  1  0
 14 27  1  0
 15 28  1  0
 16 29  1  0
M  ISO  7  20  13  21  13  22  13  23  13  27  14  28  14  29  14
M  END
>  <minimizedAffinity>  (1) 
-5.73837757

>  <minimizedRMSD>  (1) 
0.252743214

$$$$
