
     RDKit          3D

 19 20  0  0  0  0  0  0  0  0999 V2000
   44.5950   34.2950   42.9470 N   0  0  0  0  0  0  0  0  0  0  0  0
   44.5160   35.6330   42.7800 C   0  0  0  0  0  0  0  0  0  0  0  0
   43.8680   35.8930   41.6360 N   0  0  0  0  0  0  0  0  0  0  0  0
   43.5350   34.7140   41.0740 C   0  0  0  0  0  0  0  0  0  0  0  0
   43.9960   33.7620   41.9050 N   0  0  0  0  0  0  0  0  0  0  0  0
   45.4010   34.1410   45.2140 C   0  0  0  0  0  0  0  0  0  0  0  0
   45.1750   33.5040   43.9820 C   0  0  0  0  0  0  0  0  0  0  0  0
   45.5270   32.1700   43.8610 C   0  0  0  0  0  0  0  0  0  0  0  0
   46.0710   31.5440   44.9330 N   0  0  0  0  0  0  0  0  0  0  0  0
   46.2780   32.1700   46.1030 C   0  0  0  0  0  0  0  0  0  0  0  0
   45.9390   33.4690   46.2290 N   0  0  0  0  0  0  0  0  0  0  0  0
   42.8120   34.4110   39.8100 C   0  0  0  0  0  0  0  0  0  0  0  0
   42.2650   35.5620   39.2950 F   0  0  0  0  0  0  0  0  0  0  0  0
   43.7210   33.8850   38.8970 F   0  0  0  0  0  0  0  0  0  0  0  0
   41.8340   33.4960   40.0600 F   0  0  0  0  0  0  0  0  0  0  0  0
   44.9187   36.3877   43.4716 H   0  0  0  0  0  0  0  0  0  0  0  0
   45.1320   35.2001   45.3401 H   0  0  0  0  0  0  0  0  0  0  0  0
   45.3686   31.6304   42.9156 H   0  0  0  0  0  0  0  0  0  0  0  0
   46.7204   31.6275   46.9515 H   0  0  0  0  0  0  0  0  0  0  0  0
  1  7  1  0
  2  1  1  0
  3  2  2  0
  4  3  1  0
  4  5  2  0
  5  1  1  0
  6 11  2  0
  7  6  1  0
  8  7  2  0
  8  9  1  0
  9 10  2  0
 10 11  1  0
 12 15  1  0
 12  4  1  0
 13 12  1  0
 14 12  1  0
  2 16  1  0
  6 17  1  0
  8 18  1  0
 10 19  1  0
M  ISO  4  16  14  17  14  18  14  19  14
M  END
>  <minimizedAffinity>  (1) 
-3.71964836

>  <minimizedRMSD>  (1) 
1.77502024

$$$$
