
     RDKit          3D

 32 35  0  0  1  0  0  0  0  0999 V2000
   47.6030   34.5590   42.1700 C   0  0  1  0  0  0  0  0  0  0  0  0
   48.5220   35.5510   41.6800 C   0  0  0  0  0  0  0  0  0  0  0  0
   49.0350   34.3980   42.5730 C   0  0  2  0  0  0  0  0  0  0  0  0
   49.8120   33.3790   41.8180 C   0  0  0  0  0  0  0  0  0  0  0  0
   51.0820   33.0310   42.0860 N   0  0  0  0  0  0  0  0  0  0  0  0
   51.5300   32.1300   41.3060 O   0  0  0  0  0  0  0  0  0  0  0  0
   50.5570   31.8460   40.4830 C   0  0  0  0  0  0  0  0  0  0  0  0
   49.4540   32.6050   40.7640 N   0  0  0  0  0  0  0  0  0  0  0  0
   50.3700   30.9440   39.3710 N   0  0  0  0  0  0  0  0  0  0  0  0
   49.2860   30.1500   39.4520 C   0  0  0  0  0  0  0  0  0  0  0  0
   49.1290   29.2880   38.3640 C   0  0  0  0  0  0  0  0  0  0  0  0
   50.0250   29.2740   37.3110 C   0  0  0  0  0  0  0  0  0  0  0  0
   49.8110   28.4580   36.3570 O   0  0  0  0  0  0  0  0  0  0  0  0
   51.1020   30.1110   37.3030 N   0  0  0  0  0  0  0  0  0  0  0  0
   51.2560   30.9450   38.3490 C   0  0  0  0  0  0  0  0  0  0  0  0
   52.2270   31.7410   38.4030 O   0  0  0  0  0  0  0  0  0  0  0  0
   45.5160   34.1650   45.1520 C   0  0  0  0  0  0  0  0  0  0  0  0
   44.6040   35.2460   45.0820 C   0  0  0  0  0  0  0  0  0  0  0  0
   44.7320   36.1020   43.9860 C   0  0  0  0  0  0  0  0  0  0  0  0
   45.7150   35.8500   43.0610 N   0  0  0  0  0  0  0  0  0  0  0  0
   46.5490   34.8040   43.1850 C   0  0  0  0  0  0  0  0  0  0  0  0
   46.4730   33.9610   44.2030 N   0  0  0  0  0  0  0  0  0  0  0  0
   46.8598   33.9319   41.6557 H   0  0  0  0  0  0  0  0  0  0  0  0
   48.7842   35.5778   40.6120 H   0  0  0  0  0  0  0  0  0  0  0  0
   48.5755   36.6489   41.7209 H   0  0  0  0  0  0  0  0  0  0  0  0
   49.5736   34.2798   43.5248 H   0  0  0  0  0  0  0  0  0  0  0  0
   48.5858   30.1775   40.2999 H   0  0  0  0  0  0  0  0  0  0  0  0
   48.2694   28.6019   38.3445 H   0  0  0  0  0  0  0  0  0  0  0  0
   51.7748   30.1053   36.5231 H   0  0  0  0  0  0  0  0  0  0  0  0
   45.4500   33.4672   45.9998 H   0  0  0  0  0  0  0  0  0  0  0  0
   43.8340   35.4035   45.8516 H   0  0  0  0  0  0  0  0  0  0  0  0
   44.0575   36.9626   43.8659 H   0  0  0  0  0  0  0  0  0  0  0  0
  1  3  1  0
  1 21  1  0
  2  1  1  0
  2  3  1  0
  4  5  2  0
  4  3  1  0
  6  5  1  0
  7  8  2  0
  7  6  1  0
  8  4  1  0
  9 10  1  0
  9  7  1  0
 11 10  2  0
 12 11  1  0
 13 12  2  0
 14 12  1  0
 14 15  1  0
 15 16  2  0
 15  9  1  0
 18 17  2  0
 19 18  1  0
 20 21  1  0
 20 19  2  0
 21 22  2  0
 22 17  1  0
  1 23  1  6
  2 24  1  0
  2 25  1  0
  3 26  1  1
 10 27  1  0
 11 28  1  0
 14 29  1  0
 17 30  1  0
 18 31  1  0
 19 32  1  0
M  ISO  8  23  13  24  13  25  13  26  13  27  14  28  14  29   9  30  14
M  ISO  2  31  14  32  14
M  END
>  <minimizedAffinity>  (1) 
-5.34913969

>  <minimizedRMSD>  (1) 
0.188047692

$$$$
