
     RDKit          3D

 32 35  0  0  1  0  0  0  0  0999 V2000
   47.6150   34.5750   42.1590 C   0  0  1  0  0  0  0  0  0  0  0  0
   48.5490   35.5670   41.6950 C   0  0  0  0  0  0  0  0  0  0  0  0
   49.0460   34.3880   42.5610 C   0  0  2  0  0  0  0  0  0  0  0  0
   45.5340   34.1460   45.1420 C   0  0  0  0  0  0  0  0  0  0  0  0
   44.6110   35.2280   45.0700 C   0  0  0  0  0  0  0  0  0  0  0  0
   44.7320   36.0910   43.9780 C   0  0  0  0  0  0  0  0  0  0  0  0
   45.7190   35.8470   43.0550 N   0  0  0  0  0  0  0  0  0  0  0  0
   46.5640   34.8020   43.1800 C   0  0  0  0  0  0  0  0  0  0  0  0
   46.4930   33.9530   44.1960 N   0  0  0  0  0  0  0  0  0  0  0  0
   49.8110   33.3720   41.7780 C   0  0  0  0  0  0  0  0  0  0  0  0
   51.0570   32.9730   42.0830 N   0  0  0  0  0  0  0  0  0  0  0  0
   51.4940   32.0870   41.2710 O   0  0  0  0  0  0  0  0  0  0  0  0
   50.5380   31.8760   40.4010 C   0  0  0  0  0  0  0  0  0  0  0  0
   49.4590   32.6600   40.6780 N   0  0  0  0  0  0  0  0  0  0  0  0
   50.5610   30.9360   39.2600 C   0  0  0  0  0  0  0  0  0  0  0  0
   50.4150   29.5790   39.4250 C   0  0  0  0  0  0  0  0  0  0  0  0
   50.4390   28.7060   38.3520 C   0  0  0  0  0  0  0  0  0  0  0  0
   50.6150   29.2440   37.0890 C   0  0  0  0  0  0  0  0  0  0  0  0
   50.7630   30.6010   36.9000 C   0  0  0  0  0  0  0  0  0  0  0  0
   50.7390   31.4700   37.9840 C   0  0  0  0  0  0  0  0  0  0  0  0
   46.8639   33.9730   41.6266 H   0  0  0  0  0  0  0  0  0  0  0  0
   48.8144   35.6158   40.6286 H   0  0  0  0  0  0  0  0  0  0  0  0
   48.6159   36.6629   41.7624 H   0  0  0  0  0  0  0  0  0  0  0  0
   49.5824   34.2423   43.5102 H   0  0  0  0  0  0  0  0  0  0  0  0
   45.4699   33.4453   45.9875 H   0  0  0  0  0  0  0  0  0  0  0  0
   43.8384   35.3774   45.8387 H   0  0  0  0  0  0  0  0  0  0  0  0
   44.0515   36.9472   43.8602 H   0  0  0  0  0  0  0  0  0  0  0  0
   50.2751   29.1759   40.4389 H   0  0  0  0  0  0  0  0  0  0  0  0
   50.3223   27.6219   38.4976 H   0  0  0  0  0  0  0  0  0  0  0  0
   50.6372   28.5738   36.2170 H   0  0  0  0  0  0  0  0  0  0  0  0
   50.9011   30.9990   35.8839 H   0  0  0  0  0  0  0  0  0  0  0  0
   50.8576   32.5539   37.8391 H   0  0  0  0  0  0  0  0  0  0  0  0
  1  3  1  0
  1  8  1  0
  2  1  1  0
  2  3  1  0
  5  4  2  0
  6  5  1  0
  7  8  1  0
  7  6  2  0
  8  9  2  0
  9  4  1  0
 10 11  2  0
 10  3  1  0
 12 11  1  0
 13 14  2  0
 13 12  1  0
 14 10  1  0
 15 16  2  0
 15 13  1  0
 17 16  1  0
 18 17  2  0
 19 18  1  0
 19 20  2  0
 20 15  1  0
  1 21  1  6
  2 22  1  0
  2 23  1  0
  3 24  1  1
  4 25  1  0
  5 26  1  0
  6 27  1  0
 16 28  1  0
 17 29  1  0
 18 30  1  0
 19 31  1  0
 20 32  1  0
M  ISO  8  21  13  22  13  23  13  24  13  25  14  26  14  27  14  28  14
M  ISO  4  29  14  30  14  31  14  32  14
M  END
>  <minimizedAffinity>  (1) 
-4.89658737

>  <minimizedRMSD>  (1) 
0.361499846

$$$$
