
     RDKit          3D

 29 32  0  0  1  0  0  0  0  0999 V2000
   47.5980   34.5510   42.1690 C   0  0  1  0  0  0  0  0  0  0  0  0
   48.5110   35.5440   41.6660 C   0  0  0  0  0  0  0  0  0  0  0  0
   49.0350   34.4070   42.5700 C   0  0  2  0  0  0  0  0  0  0  0  0
   49.8120   33.3750   41.8210 C   0  0  0  0  0  0  0  0  0  0  0  0
   51.0760   33.0240   42.1080 N   0  0  0  0  0  0  0  0  0  0  0  0
   51.5230   32.1160   41.3350 O   0  0  0  0  0  0  0  0  0  0  0  0
   50.5550   31.8340   40.5010 C   0  0  0  0  0  0  0  0  0  0  0  0
   49.4560   32.6010   40.7660 N   0  0  0  0  0  0  0  0  0  0  0  0
   50.3870   30.9230   39.3970 N   0  0  0  0  0  0  0  0  0  0  0  0
   49.7670   29.7450   39.2840 C   0  0  0  0  0  0  0  0  0  0  0  0
   49.9520   29.3470   37.9580 C   0  0  0  0  0  0  0  0  0  0  0  0
   50.6820   30.3160   37.3320 N   0  0  0  0  0  0  0  0  0  0  0  0
   50.9510   31.2970   38.2350 C   0  0  0  0  0  0  0  0  0  0  0  0
   45.5110   34.1730   45.1560 C   0  0  0  0  0  0  0  0  0  0  0  0
   44.6010   35.2610   45.0730 C   0  0  0  0  0  0  0  0  0  0  0  0
   44.7300   36.1120   43.9720 C   0  0  0  0  0  0  0  0  0  0  0  0
   45.7120   35.8450   43.0600 N   0  0  0  0  0  0  0  0  0  0  0  0
   46.5500   34.7960   43.1890 C   0  0  0  0  0  0  0  0  0  0  0  0
   46.4710   33.9600   44.2110 N   0  0  0  0  0  0  0  0  0  0  0  0
   46.8566   33.9160   41.6619 H   0  0  0  0  0  0  0  0  0  0  0  0
   48.7709   35.5603   40.5973 H   0  0  0  0  0  0  0  0  0  0  0  0
   48.5566   36.6427   41.6946 H   0  0  0  0  0  0  0  0  0  0  0  0
   49.5805   34.3079   43.5201 H   0  0  0  0  0  0  0  0  0  0  0  0
   49.2239   29.2017   40.0713 H   0  0  0  0  0  0  0  0  0  0  0  0
   49.5770   28.4196   37.5004 H   0  0  0  0  0  0  0  0  0  0  0  0
   51.5208   32.2196   38.0501 H   0  0  0  0  0  0  0  0  0  0  0  0
   45.4390   33.4814   46.0084 H   0  0  0  0  0  0  0  0  0  0  0  0
   43.8302   35.4260   45.8402 H   0  0  0  0  0  0  0  0  0  0  0  0
   44.0588   36.9739   43.8429 H   0  0  0  0  0  0  0  0  0  0  0  0
  1  3  1  0
  1 18  1  0
  2  1  1  0
  2  3  1  0
  4  5  2  0
  4  3  1  0
  6  5  1  0
  7  8  2  0
  7  6  1  0
  8  4  1  0
  9  7  1  0
 10  9  1  0
 11 10  2  0
 12 11  1  0
 12 13  2  0
 13  9  1  0
 15 14  2  0
 16 15  1  0
 17 18  1  0
 17 16  2  0
 18 19  2  0
 19 14  1  0
  1 20  1  6
  2 21  1  0
  2 22  1  0
  3 23  1  1
 10 24  1  0
 11 25  1  0
 13 26  1  0
 14 27  1  0
 15 28  1  0
 16 29  1  0
M  ISO  8  20  13  21  13  22  13  23  13  24  14  25  14  26  14  27  14
M  ISO  2  28  14  29  14
M  END
>  <minimizedAffinity>  (1) 
-5.09622812

>  <minimizedRMSD>  (1) 
0.147982329

$$$$
