
     RDKit          3D

 28 31  0  0  1  0  0  0  0  0999 V2000
   47.5960   34.5440   42.1730 C   0  0  1  0  0  0  0  0  0  0  0  0
   48.5010   35.5390   41.6580 C   0  0  0  0  0  0  0  0  0  0  0  0
   49.0350   34.4120   42.5690 C   0  0  2  0  0  0  0  0  0  0  0  0
   45.5130   34.1740   45.1650 C   0  0  0  0  0  0  0  0  0  0  0  0
   44.6000   35.2580   45.0820 C   0  0  0  0  0  0  0  0  0  0  0  0
   44.7290   36.1060   43.9800 C   0  0  0  0  0  0  0  0  0  0  0  0
   45.7150   35.8450   43.0530 N   0  0  0  0  0  0  0  0  0  0  0  0
   46.5500   34.7930   43.1930 C   0  0  0  0  0  0  0  0  0  0  0  0
   46.4690   33.9590   44.2220 N   0  0  0  0  0  0  0  0  0  0  0  0
   49.8150   33.3800   41.8320 C   0  0  0  0  0  0  0  0  0  0  0  0
   51.0870   33.0490   42.1070 N   0  0  0  0  0  0  0  0  0  0  0  0
   51.5190   32.1190   41.3270 O   0  0  0  0  0  0  0  0  0  0  0  0
   50.5490   31.8150   40.5220 C   0  0  0  0  0  0  0  0  0  0  0  0
   49.4690   32.5830   40.8080 N   0  0  0  0  0  0  0  0  0  0  0  0
   50.6130   30.7880   39.4530 C   0  0  0  0  0  0  0  0  0  0  0  0
   51.0240   31.1650   38.1590 C   0  0  0  0  0  0  0  0  0  0  0  0
   50.9470   29.6100   37.2110 S   0  0  0  0  0  0  0  0  0  0  0  0
   50.3560   28.6770   38.7580 C   0  0  0  0  0  0  0  0  0  0  0  0
   50.3270   29.4960   39.5250 N   0  0  0  0  0  0  0  0  0  0  0  0
   46.8570   33.8990   41.6751 H   0  0  0  0  0  0  0  0  0  0  0  0
   48.7565   35.5484   40.5881 H   0  0  0  0  0  0  0  0  0  0  0  0
   48.5402   36.6381   41.6776 H   0  0  0  0  0  0  0  0  0  0  0  0
   49.5850   34.3244   43.5176 H   0  0  0  0  0  0  0  0  0  0  0  0
   45.4449   33.4854   46.0201 H   0  0  0  0  0  0  0  0  0  0  0  0
   43.8284   35.4220   45.8486 H   0  0  0  0  0  0  0  0  0  0  0  0
   44.0558   36.9668   43.8541 H   0  0  0  0  0  0  0  0  0  0  0  0
   51.3214   32.1629   37.8044 H   0  0  0  0  0  0  0  0  0  0  0  0
   50.1071   27.6116   38.8720 H   0  0  0  0  0  0  0  0  0  0  0  0
  1  3  1  0
  1  8  1  0
  2  1  1  0
  2  3  1  0
  5  4  2  0
  6  5  1  0
  7  8  1  0
  7  6  2  0
  8  9  2  0
  9  4  1  0
 10 11  2  0
 10  3  1  0
 12 11  1  0
 13 14  2  0
 13 12  1  0
 14 10  1  0
 15 19  1  0
 15 13  1  0
 16 15  2  0
 17 16  1  0
 17 18  1  0
 18 19  2  0
  1 20  1  6
  2 21  1  0
  2 22  1  0
  3 23  1  1
  4 24  1  0
  5 25  1  0
  6 26  1  0
 16 27  1  0
 18 28  1  0
M  ISO  8  20  13  21  13  22  13  23  13  24  14  25  14  26  14  27  14
M  ISO  1  28  14
M  END
>  <minimizedAffinity>  (1) 
-4.8191328

>  <minimizedRMSD>  (1) 
0.10005077

$$$$
