
     RDKit          3D

 30 33  0  0  1  0  0  0  0  0999 V2000
   47.5900   34.5360   42.1720 C   0  0  1  0  0  0  0  0  0  0  0  0
   48.4960   35.5330   41.6660 C   0  0  0  0  0  0  0  0  0  0  0  0
   49.0260   34.4000   42.5750 C   0  0  2  0  0  0  0  0  0  0  0  0
   45.5170   34.1720   45.1660 C   0  0  0  0  0  0  0  0  0  0  0  0
   44.6020   35.2560   45.0910 C   0  0  0  0  0  0  0  0  0  0  0  0
   44.7260   36.1040   43.9880 C   0  0  0  0  0  0  0  0  0  0  0  0
   45.7050   35.8370   43.0650 N   0  0  0  0  0  0  0  0  0  0  0  0
   46.5420   34.7940   43.1910 C   0  0  0  0  0  0  0  0  0  0  0  0
   46.4670   33.9560   44.2240 N   0  0  0  0  0  0  0  0  0  0  0  0
   49.8090   33.3760   41.8300 C   0  0  0  0  0  0  0  0  0  0  0  0
   51.0800   33.0410   42.1060 N   0  0  0  0  0  0  0  0  0  0  0  0
   51.5290   32.1320   41.3340 O   0  0  0  0  0  0  0  0  0  0  0  0
   50.5590   31.8300   40.5100 C   0  0  0  0  0  0  0  0  0  0  0  0
   49.4550   32.5870   40.7840 N   0  0  0  0  0  0  0  0  0  0  0  0
   50.6010   30.8320   39.4330 C   0  0  0  0  0  0  0  0  0  0  0  0
   50.5640   29.4720   39.6660 C   0  0  0  0  0  0  0  0  0  0  0  0
   50.6070   28.5570   38.6230 C   0  0  0  0  0  0  0  0  0  0  0  0
   50.6860   29.0200   37.3630 N   0  0  0  0  0  0  0  0  0  0  0  0
   50.7210   30.3500   37.1580 C   0  0  0  0  0  0  0  0  0  0  0  0
   50.6810   31.2510   38.1580 N   0  0  0  0  0  0  0  0  0  0  0  0
   46.8553   33.8900   41.6691 H   0  0  0  0  0  0  0  0  0  0  0  0
   48.7563   35.5476   40.5973 H   0  0  0  0  0  0  0  0  0  0  0  0
   48.5351   36.6320   41.6909 H   0  0  0  0  0  0  0  0  0  0  0  0
   49.5697   34.3048   43.5265 H   0  0  0  0  0  0  0  0  0  0  0  0
   45.4520   33.4823   46.0204 H   0  0  0  0  0  0  0  0  0  0  0  0
   43.8349   35.4193   45.8623 H   0  0  0  0  0  0  0  0  0  0  0  0
   44.0542   36.9659   43.8625 H   0  0  0  0  0  0  0  0  0  0  0  0
   50.4990   29.1052   40.7010 H   0  0  0  0  0  0  0  0  0  0  0  0
   50.5771   27.4758   38.8230 H   0  0  0  0  0  0  0  0  0  0  0  0
   50.7854   30.7186   36.1236 H   0  0  0  0  0  0  0  0  0  0  0  0
  1  3  1  0
  1  8  1  0
  2  1  1  0
  2  3  1  0
  5  4  2  0
  6  5  1  0
  7  8  1  0
  7  6  2  0
  8  9  2  0
  9  4  1  0
 10 11  2  0
 10  3  1  0
 12 11  1  0
 13 14  2  0
 13 12  1  0
 14 10  1  0
 15 16  2  0
 15 13  1  0
 17 16  1  0
 18 17  2  0
 19 18  1  0
 19 20  2  0
 20 15  1  0
  1 21  1  6
  2 22  1  0
  2 23  1  0
  3 24  1  1
  4 25  1  0
  5 26  1  0
  6 27  1  0
 16 28  1  0
 17 29  1  0
 19 30  1  0
M  ISO  8  21  13  22  13  23  13  24  13  25  14  26  14  27  14  28  14
M  ISO  2  29  14  30  14
M  END
>  <minimizedAffinity>  (1) 
-4.87338161

>  <minimizedRMSD>  (1) 
0.140508309

$$$$
