
     RDKit          3D

 18 19  0  0  0  0  0  0  0  0999 V2000
   44.1970   35.6230   43.5970 C   0  0  0  0  0  0  0  0  0  0  0  0
   44.3700   34.4660   42.8300 C   0  0  0  0  0  0  0  0  0  0  0  0
   45.0080   33.3890   43.4390 C   0  0  0  0  0  0  0  0  0  0  0  0
   45.4240   33.5040   44.7200 N   0  0  0  0  0  0  0  0  0  0  0  0
   45.2390   34.6390   45.4310 C   0  0  0  0  0  0  0  0  0  0  0  0
   44.6270   35.6770   44.8530 N   0  0  0  0  0  0  0  0  0  0  0  0
   43.8840   34.4820   41.4960 N   0  0  0  0  0  0  0  0  0  0  0  0
   43.0260   35.3230   40.8760 C   0  0  0  0  0  0  0  0  0  0  0  0
   42.8610   34.9420   39.5970 N   0  0  0  0  0  0  0  0  0  0  0  0
   43.6380   33.8360   39.4220 C   0  0  0  0  0  0  0  0  0  0  0  0
   44.2490   33.5780   40.5910 N   0  0  0  0  0  0  0  0  0  0  0  0
   43.8060   33.0390   38.1950 C   0  0  0  0  0  0  0  0  0  0  0  0
   44.7670   33.2760   37.3930 O   0  0  0  0  0  0  0  0  0  0  0  0
   43.6990   36.4986   43.1550 H   0  0  0  0  0  0  0  0  0  0  0  0
   45.1720   32.4539   42.8834 H   0  0  0  0  0  0  0  0  0  0  0  0
   45.5878   34.7072   46.4720 H   0  0  0  0  0  0  0  0  0  0  0  0
   42.5367   36.1884   41.3468 H   0  0  0  0  0  0  0  0  0  0  0  0
   43.0946   32.2311   37.9688 H   0  0  0  0  0  0  0  0  0  0  0  0
  1  6  2  0
  2  3  2  0
  2  1  1  0
  3  4  1  0
  4  5  2  0
  6  5  1  0
  7  2  1  0
  8  7  1  0
  9  8  2  0
 10  9  1  0
 10 11  2  0
 11  7  1  0
 12 10  1  0
 13 12  2  0
  1 14  1  0
  3 15  1  0
  5 16  1  0
  8 17  1  0
 12 18  1  0
M  ISO  5  14  14  15  14  16  14  17  14  18   6
M  END
>  <minimizedAffinity>  (1) 
-3.29443812

>  <minimizedRMSD>  (1) 
0.722661734

$$$$
