
     RDKit          3D

 23 25  0  0  1  0  0  0  0  0999 V2000
   47.5800   34.5050   42.1620 C   0  0  1  0  0  0  0  0  0  0  0  0
   48.4940   35.4880   41.6380 C   0  0  0  0  0  0  0  0  0  0  0  0
   49.0170   34.3570   42.5560 C   0  0  2  0  0  0  0  0  0  0  0  0
   45.5090   34.1880   45.1620 C   0  0  0  0  0  0  0  0  0  0  0  0
   44.6070   35.2750   45.0760 C   0  0  0  0  0  0  0  0  0  0  0  0
   44.7350   36.1140   43.9660 C   0  0  0  0  0  0  0  0  0  0  0  0
   45.7120   35.8350   43.0460 N   0  0  0  0  0  0  0  0  0  0  0  0
   46.5430   34.7790   43.1840 C   0  0  0  0  0  0  0  0  0  0  0  0
   46.4600   33.9580   44.2170 N   0  0  0  0  0  0  0  0  0  0  0  0
   49.7950   33.3310   41.8340 C   0  0  0  0  0  0  0  0  0  0  0  0
   51.0910   33.0520   42.0630 N   0  0  0  0  0  0  0  0  0  0  0  0
   51.5230   32.1160   41.2910 O   0  0  0  0  0  0  0  0  0  0  0  0
   50.5270   31.7540   40.5380 C   0  0  0  0  0  0  0  0  0  0  0  0
   49.4120   32.4880   40.8400 N   0  0  0  0  0  0  0  0  0  0  0  0
   50.7460   30.4560   39.3210 S   0  0  0  0  0  0  0  0  0  0  0  0
   46.8338   33.8637   41.6701 H   0  0  0  0  0  0  0  0  0  0  0  0
   48.7467   35.4885   40.5674 H   0  0  0  0  0  0  0  0  0  0  0  0
   48.5458   36.5867   41.6508 H   0  0  0  0  0  0  0  0  0  0  0  0
   49.5617   34.2619   43.5069 H   0  0  0  0  0  0  0  0  0  0  0  0
   45.4387   33.5060   46.0222 H   0  0  0  0  0  0  0  0  0  0  0  0
   43.8416   35.4510   45.8462 H   0  0  0  0  0  0  0  0  0  0  0  0
   44.0674   36.9781   43.8336 H   0  0  0  0  0  0  0  0  0  0  0  0
   50.9477   29.2607   39.9594 H   0  0  0  0  0  0  0  0  0  0  0  0
  1  3  1  0
  1  8  1  0
  2  1  1  0
  2  3  1  0
  5  4  2  0
  6  5  1  0
  7  8  1  0
  7  6  2  0
  8  9  2  0
  9  4  1  0
 10 11  2  0
 10  3  1  0
 12 11  1  0
 13 14  2  0
 13 12  1  0
 14 10  1  0
 15 13  1  0
  1 16  1  6
  2 17  1  0
  2 18  1  0
  3 19  1  1
  4 20  1  0
  5 21  1  0
  6 22  1  0
 15 23  1  0
M  ISO  8  16  13  17  13  18  13  19  13  20  14  21  14  22  14  23  11
M  END
>  <minimizedAffinity>  (1) 
-4.74407053

>  <minimizedRMSD>  (1) 
0.0117760403

$$$$
