
     RDKit          3D

 25 27  0  0  1  0  0  0  0  0999 V2000
   47.5910   34.5200   42.1690 C   0  0  1  0  0  0  0  0  0  0  0  0
   48.4980   35.5100   41.6480 C   0  0  0  0  0  0  0  0  0  0  0  0
   49.0290   34.3890   42.5710 C   0  0  2  0  0  0  0  0  0  0  0  0
   45.5080   34.1800   45.1600 C   0  0  0  0  0  0  0  0  0  0  0  0
   44.6040   35.2740   45.0670 C   0  0  0  0  0  0  0  0  0  0  0  0
   44.7340   36.1150   43.9590 C   0  0  0  0  0  0  0  0  0  0  0  0
   45.7150   35.8350   43.0430 N   0  0  0  0  0  0  0  0  0  0  0  0
   46.5450   34.7800   43.1870 C   0  0  0  0  0  0  0  0  0  0  0  0
   46.4620   33.9550   44.2170 N   0  0  0  0  0  0  0  0  0  0  0  0
   49.8110   33.3550   41.8310 C   0  0  0  0  0  0  0  0  0  0  0  0
   51.0940   33.0520   42.0860 N   0  0  0  0  0  0  0  0  0  0  0  0
   51.5310   32.1160   41.3130 O   0  0  0  0  0  0  0  0  0  0  0  0
   50.5530   31.7870   40.5400 C   0  0  0  0  0  0  0  0  0  0  0  0
   49.4460   32.5300   40.8180 N   0  0  0  0  0  0  0  0  0  0  0  0
   50.6170   30.7580   39.5070 C   0  0  0  0  0  0  0  0  0  0  0  0
   50.6050   29.5450   39.8440 O   0  0  0  0  0  0  0  0  0  0  0  0
   50.6900   31.0440   38.1510 O   0  0  0  0  0  0  0  0  0  0  0  0
   46.8528   33.8722   41.6735 H   0  0  0  0  0  0  0  0  0  0  0  0
   48.7564   35.5102   40.5788 H   0  0  0  0  0  0  0  0  0  0  0  0
   48.5380   36.6092   41.6583 H   0  0  0  0  0  0  0  0  0  0  0  0
   49.5739   34.3052   43.5229 H   0  0  0  0  0  0  0  0  0  0  0  0
   45.4336   33.4966   46.0187 H   0  0  0  0  0  0  0  0  0  0  0  0
   43.8357   35.4503   45.8342 H   0  0  0  0  0  0  0  0  0  0  0  0
   44.0668   36.9792   43.8250 H   0  0  0  0  0  0  0  0  0  0  0  0
   50.7018   31.9850   37.8435 H   0  0  0  0  0  0  0  0  0  0  0  0
  1  3  1  0
  1  8  1  0
  2  1  1  0
  2  3  1  0
  5  4  2  0
  6  5  1  0
  7  8  1  0
  7  6  2  0
  8  9  2  0
  9  4  1  0
 10 11  2  0
 10  3  1  0
 12 11  1  0
 13 14  2  0
 13 12  1  0
 14 10  1  0
 15 16  2  0
 15 13  1  0
 17 15  1  0
  1 18  1  6
  2 19  1  0
  2 20  1  0
  3 21  1  1
  4 22  1  0
  5 23  1  0
  6 24  1  0
 17 25  1  0
M  ISO  8  18  13  19  13  20  13  21  13  22  14  23  14  24  14  25   3
M  END
>  <minimizedAffinity>  (1) 
-4.70000792

>  <minimizedRMSD>  (1) 
0.0407136567

$$$$
