
     RDKit          3D

 25 27  0  0  1  0  0  0  0  0999 V2000
   47.5900   34.5380   42.1740 C   0  0  1  0  0  0  0  0  0  0  0  0
   48.4930   35.5300   41.6470 C   0  0  0  0  0  0  0  0  0  0  0  0
   49.0290   34.4110   42.5630 C   0  0  2  0  0  0  0  0  0  0  0  0
   45.5170   34.1680   45.1700 C   0  0  0  0  0  0  0  0  0  0  0  0
   44.6030   35.2620   45.0840 C   0  0  0  0  0  0  0  0  0  0  0  0
   44.7310   36.1140   43.9740 C   0  0  0  0  0  0  0  0  0  0  0  0
   45.7100   35.8540   43.0480 N   0  0  0  0  0  0  0  0  0  0  0  0
   46.5470   34.7920   43.1920 C   0  0  0  0  0  0  0  0  0  0  0  0
   46.4690   33.9610   44.2190 N   0  0  0  0  0  0  0  0  0  0  0  0
   49.8110   33.3790   41.8320 C   0  0  0  0  0  0  0  0  0  0  0  0
   51.0880   33.0580   42.1050 N   0  0  0  0  0  0  0  0  0  0  0  0
   51.5250   32.1180   41.3430 O   0  0  0  0  0  0  0  0  0  0  0  0
   50.5420   31.7960   40.5460 C   0  0  0  0  0  0  0  0  0  0  0  0
   49.4680   32.5600   40.8230 N   0  0  0  0  0  0  0  0  0  0  0  0
   50.5170   30.7550   39.4600 C   0  0  0  0  0  0  0  0  0  0  0  0
   51.1110   29.5820   39.8440 F   0  0  0  0  0  0  0  0  0  0  0  0
   49.2240   30.4720   39.0610 F   0  0  0  0  0  0  0  0  0  0  0  0
   51.1640   31.2230   38.3270 F   0  0  0  0  0  0  0  0  0  0  0  0
   46.8491   33.8880   41.6855 H   0  0  0  0  0  0  0  0  0  0  0  0
   48.7440   35.5313   40.5760 H   0  0  0  0  0  0  0  0  0  0  0  0
   48.5325   36.6292   41.6579 H   0  0  0  0  0  0  0  0  0  0  0  0
   49.5810   34.3290   43.5110 H   0  0  0  0  0  0  0  0  0  0  0  0
   45.4503   33.4773   46.0235 H   0  0  0  0  0  0  0  0  0  0  0  0
   43.8336   35.4300   45.8520 H   0  0  0  0  0  0  0  0  0  0  0  0
   44.0578   36.9750   43.8493 H   0  0  0  0  0  0  0  0  0  0  0  0
  1  3  1  0
  1  8  1  0
  2  1  1  0
  2  3  1  0
  5  4  2  0
  6  5  1  0
  7  8  1  0
  7  6  2  0
  8  9  2  0
  9  4  1  0
 10 11  2  0
 10  3  1  0
 12 11  1  0
 13 14  2  0
 13 12  1  0
 14 10  1  0
 15 16  1  0
 15 13  1  0
 17 15  1  0
 18 15  1  0
  1 19  1  6
  2 20  1  0
  2 21  1  0
  3 22  1  1
  4 23  1  0
  5 24  1  0
  6 25  1  0
M  ISO  7  19  13  20  13  21  13  22  13  23  14  24  14  25  14
M  END
>  <minimizedAffinity>  (1) 
-4.76951981

>  <minimizedRMSD>  (1) 
0.0918167606

$$$$
