
     RDKit          3D

 29 32  0  0  1  0  0  0  0  0999 V2000
   47.5920   34.5550   42.1620 C   0  0  1  0  0  0  0  0  0  0  0  0
   48.5230   35.5450   41.6870 C   0  0  0  0  0  0  0  0  0  0  0  0
   49.0220   34.3750   42.5620 C   0  0  2  0  0  0  0  0  0  0  0  0
   45.5260   34.1660   45.1590 C   0  0  0  0  0  0  0  0  0  0  0  0
   44.6080   35.2470   45.0900 C   0  0  0  0  0  0  0  0  0  0  0  0
   44.7240   36.1110   43.9800 C   0  0  0  0  0  0  0  0  0  0  0  0
   45.7060   35.8430   43.0600 N   0  0  0  0  0  0  0  0  0  0  0  0
   46.5450   34.8000   43.1840 C   0  0  0  0  0  0  0  0  0  0  0  0
   46.4720   33.9670   44.2080 N   0  0  0  0  0  0  0  0  0  0  0  0
   49.7960   33.3620   41.8020 C   0  0  0  0  0  0  0  0  0  0  0  0
   51.0660   33.0150   42.0700 N   0  0  0  0  0  0  0  0  0  0  0  0
   51.4970   32.1030   41.2720 O   0  0  0  0  0  0  0  0  0  0  0  0
   50.5170   31.8260   40.4570 C   0  0  0  0  0  0  0  0  0  0  0  0
   49.4310   32.5880   40.7480 N   0  0  0  0  0  0  0  0  0  0  0  0
   50.5430   30.8230   39.3480 C   0  0  0  0  0  0  0  0  0  0  0  0
   51.0970   31.2630   38.0090 C   0  0  0  0  0  0  0  0  0  0  0  0
   49.6500   30.9650   38.1690 C   0  0  0  0  0  0  0  0  0  0  0  0
   46.8426   33.9430   41.6387 H   0  0  0  0  0  0  0  0  0  0  0  0
   48.7864   35.5847   40.6198 H   0  0  0  0  0  0  0  0  0  0  0  0
   48.5883   36.6416   41.7442 H   0  0  0  0  0  0  0  0  0  0  0  0
   49.5573   34.2368   43.5130 H   0  0  0  0  0  0  0  0  0  0  0  0
   45.4681   33.4697   46.0086 H   0  0  0  0  0  0  0  0  0  0  0  0
   43.8429   35.4036   45.8647 H   0  0  0  0  0  0  0  0  0  0  0  0
   44.0493   36.9710   43.8565 H   0  0  0  0  0  0  0  0  0  0  0  0
   50.7367   30.0125   40.0660 H   0  0  0  0  0  0  0  0  0  0  0  0
   51.7390   30.5848   37.4277 H   0  0  0  0  0  0  0  0  0  0  0  0
   51.6831   32.1217   37.6497 H   0  0  0  0  0  0  0  0  0  0  0  0
   48.9164   31.7839   38.1346 H   0  0  0  0  0  0  0  0  0  0  0  0
   48.9393   30.3000   37.6565 H   0  0  0  0  0  0  0  0  0  0  0  0
  1  3  1  0
  1  8  1  0
  2  1  1  0
  2  3  1  0
  5  4  2  0
  6  5  1  0
  7  8  1  0
  7  6  2  0
  8  9  2  0
  9  4  1  0
 10 11  2  0
 10  3  1  0
 12 11  1  0
 13 14  2  0
 13 12  1  0
 14 10  1  0
 15 13  1  0
 16 17  1  0
 16 15  1  0
 17 15  1  0
  1 18  1  6
  2 19  1  0
  2 20  1  0
  3 21  1  1
  4 22  1  0
  5 23  1  0
  6 24  1  0
 15 25  1  0
 16 26  1  0
 16 27  1  0
 17 28  1  0
 17 29  1  0
M  ISO  8  18  13  19  13  20  13  21  13  22  14  23  14  24  14  25  13
M  ISO  4  26  13  27  13  28  13  29  13
M  END
>  <minimizedAffinity>  (1) 
-4.75772619

>  <minimizedRMSD>  (1) 
0.348307431

$$$$
