
     RDKit          3D

 19 20  0  0  0  0  0  0  0  0999 V2000
   44.4290   35.2880   44.0960 C   0  0  0  0  0  0  0  0  0  0  0  0
   44.5680   34.2420   43.1700 C   0  0  0  0  0  0  0  0  0  0  0  0
   45.2160   33.0760   43.5650 C   0  0  0  0  0  0  0  0  0  0  0  0
   45.6850   33.0070   44.8370 N   0  0  0  0  0  0  0  0  0  0  0  0
   45.5360   34.0240   45.7010 C   0  0  0  0  0  0  0  0  0  0  0  0
   44.9150   35.1480   45.3300 N   0  0  0  0  0  0  0  0  0  0  0  0
   44.0250   34.4570   41.8680 N   0  0  0  0  0  0  0  0  0  0  0  0
   43.3090   35.5110   41.3670 C   0  0  0  0  0  0  0  0  0  0  0  0
   43.0110   35.2660   40.0770 N   0  0  0  0  0  0  0  0  0  0  0  0
   43.5410   34.0610   39.7820 C   0  0  0  0  0  0  0  0  0  0  0  0
   44.1580   33.5760   40.8760 N   0  0  0  0  0  0  0  0  0  0  0  0
   43.4540   33.3850   38.4460 C   0  0  0  0  0  0  0  0  0  0  0  0
   43.9212   36.2194   43.8049 H   0  0  0  0  0  0  0  0  0  0  0  0
   45.3445   32.2352   42.8675 H   0  0  0  0  0  0  0  0  0  0  0  0
   45.9289   33.9312   46.7242 H   0  0  0  0  0  0  0  0  0  0  0  0
   43.0232   36.4129   41.9281 H   0  0  0  0  0  0  0  0  0  0  0  0
   43.3148   32.3035   38.5907 H   0  0  0  0  0  0  0  0  0  0  0  0
   42.6009   33.7925   37.8837 H   0  0  0  0  0  0  0  0  0  0  0  0
   44.3825   33.5632   37.8837 H   0  0  0  0  0  0  0  0  0  0  0  0
  1  6  2  0
  2  3  2  0
  2  1  1  0
  3  4  1  0
  4  5  2  0
  6  5  1  0
  7  2  1  0
  8  7  1  0
  9  8  2  0
 10  9  1  0
 10 11  2  0
 11  7  1  0
 12 10  1  0
  1 13  1  0
  3 14  1  0
  5 15  1  0
  8 16  1  0
 12 17  1  0
 12 18  1  0
 12 19  1  0
M  ISO  7  13  14  14  14  15  14  16  14  17   8  18   8  19   8
M  END
>  <minimizedAffinity>  (1) 
-3.24784231

>  <minimizedRMSD>  (1) 
0.0485096388

$$$$
