
     RDKit          3D

 29 32  0  0  1  0  0  0  0  0999 V2000
   47.5860   34.5340   42.1750 C   0  0  1  0  0  0  0  0  0  0  0  0
   48.4920   35.5260   41.6560 C   0  0  0  0  0  0  0  0  0  0  0  0
   49.0210   34.3940   42.5670 C   0  0  2  0  0  0  0  0  0  0  0  0
   45.5110   34.1780   45.1680 C   0  0  0  0  0  0  0  0  0  0  0  0
   44.6020   35.2620   45.0890 C   0  0  0  0  0  0  0  0  0  0  0  0
   44.7280   36.1070   43.9840 C   0  0  0  0  0  0  0  0  0  0  0  0
   45.7080   35.8410   43.0590 N   0  0  0  0  0  0  0  0  0  0  0  0
   46.5410   34.7900   43.1960 C   0  0  0  0  0  0  0  0  0  0  0  0
   46.4660   33.9580   44.2220 N   0  0  0  0  0  0  0  0  0  0  0  0
   49.8040   33.3670   41.8290 C   0  0  0  0  0  0  0  0  0  0  0  0
   51.0850   33.0520   42.1010 N   0  0  0  0  0  0  0  0  0  0  0  0
   51.5170   32.1230   41.3160 O   0  0  0  0  0  0  0  0  0  0  0  0
   50.5490   31.8090   40.5240 C   0  0  0  0  0  0  0  0  0  0  0  0
   49.4390   32.5620   40.8000 N   0  0  0  0  0  0  0  0  0  0  0  0
   50.5850   30.8010   39.4680 C   0  0  0  0  0  0  0  0  0  0  0  0
   50.8880   31.0370   38.1420 C   0  0  0  0  0  0  0  0  0  0  0  0
   50.8150   29.8330   37.4630 C   0  0  0  0  0  0  0  0  0  0  0  0
   50.4760   28.9090   38.3690 N   0  0  0  0  0  0  0  0  0  0  0  0
   50.3370   29.4830   39.5690 N   0  0  0  0  0  0  0  0  0  0  0  0
   46.8440   33.8903   41.6800 H   0  0  0  0  0  0  0  0  0  0  0  0
   48.7446   35.5341   40.5854 H   0  0  0  0  0  0  0  0  0  0  0  0
   48.5366   36.6249   41.6745 H   0  0  0  0  0  0  0  0  0  0  0  0
   49.5679   34.2987   43.5166 H   0  0  0  0  0  0  0  0  0  0  0  0
   45.4431   33.4898   46.0235 H   0  0  0  0  0  0  0  0  0  0  0  0
   43.8352   35.4298   45.8596 H   0  0  0  0  0  0  0  0  0  0  0  0
   44.0558   36.9684   43.8570 H   0  0  0  0  0  0  0  0  0  0  0  0
   51.1431   32.0122   37.7016 H   0  0  0  0  0  0  0  0  0  0  0  0
   50.9992   29.6686   36.3911 H   0  0  0  0  0  0  0  0  0  0  0  0
   50.3422   27.9069   38.1722 H   0  0  0  0  0  0  0  0  0  0  0  0
  1  3  1  0
  1  8  1  0
  2  1  1  0
  2  3  1  0
  5  4  2  0
  6  5  1  0
  7  8  1  0
  7  6  2  0
  8  9  2  0
  9  4  1  0
 10 11  2  0
 10  3  1  0
 12 11  1  0
 13 14  2  0
 13 12  1  0
 14 10  1  0
 15 19  2  0
 15 13  1  0
 16 15  1  0
 17 16  2  0
 17 18  1  0
 18 19  1  0
  1 20  1  6
  2 21  1  0
  2 22  1  0
  3 23  1  1
  4 24  1  0
  5 25  1  0
  6 26  1  0
 16 27  1  0
 17 28  1  0
 18 29  1  0
M  ISO  8  20  13  21  13  22  13  23  13  24  14  25  14  26  14  27  14
M  ISO  2  28  14  29   9
M  END
>  <minimizedAffinity>  (1) 
-4.81088448

>  <minimizedRMSD>  (1) 
0.144080773

$$$$
