
     RDKit          3D

 40 45  0  0  1  0  0  0  0  0999 V2000
   49.5860   33.1910   41.4450 C   0  0  0  0  0  0  0  0  0  0  0  0
   50.7630   32.5920   41.6480 N   0  0  0  0  0  0  0  0  0  0  0  0
   51.0650   31.7850   40.6850 O   0  0  0  0  0  0  0  0  0  0  0  0
   50.1100   31.8300   39.8370 C   0  0  0  0  0  0  0  0  0  0  0  0
   49.1460   32.7020   40.2610 N   0  0  0  0  0  0  0  0  0  0  0  0
   47.5690   34.5980   42.0390 C   0  0  1  0  0  0  0  0  0  0  0  0
   48.6040   35.5200   41.6860 C   0  0  0  0  0  0  0  0  0  0  0  0
   48.9480   34.1670   42.3720 C   0  0  2  0  0  0  0  0  0  0  0  0
   45.5790   34.1370   45.0670 C   0  0  0  0  0  0  0  0  0  0  0  0
   44.6640   35.2030   45.0440 C   0  0  0  0  0  0  0  0  0  0  0  0
   44.7420   36.0980   43.9590 C   0  0  0  0  0  0  0  0  0  0  0  0
   45.7030   35.8500   43.0200 N   0  0  0  0  0  0  0  0  0  0  0  0
   46.5460   34.8130   43.0990 C   0  0  0  0  0  0  0  0  0  0  0  0
   46.5130   33.9500   44.0940 N   0  0  0  0  0  0  0  0  0  0  0  0
   50.0090   31.0830   38.5820 C   0  0  0  0  0  0  0  0  0  0  0  0
   49.8360   29.7300   38.4550 C   0  0  0  0  0  0  0  0  0  0  0  0
   49.7940   29.4090   37.1090 C   0  0  0  0  0  0  0  0  0  0  0  0
   49.9440   30.5710   36.4570 N   0  0  0  0  0  0  0  0  0  0  0  0
   50.0710   31.5670   37.3170 N   0  0  0  0  0  0  0  0  0  0  0  0
   47.6660   32.2000   32.7630 N   0  0  0  0  0  0  0  0  0  0  0  0
   46.8580   32.0910   33.8540 C   0  0  0  0  0  0  0  0  0  0  0  0
   47.6150   31.6110   34.8700 N   0  0  0  0  0  0  0  0  0  0  0  0
   48.8600   31.4290   34.4130 C   0  0  0  0  0  0  0  0  0  0  0  0
   49.9940   30.9540   35.0760 C   0  0  0  0  0  0  0  0  0  0  0  0
   51.1320   30.8710   34.3630 N   0  0  0  0  0  0  0  0  0  0  0  0
   51.1840   31.2320   33.0550 C   0  0  0  0  0  0  0  0  0  0  0  0
   50.0790   31.6960   32.4030 N   0  0  0  0  0  0  0  0  0  0  0  0
   48.9220   31.7960   33.0720 C   0  0  0  0  0  0  0  0  0  0  0  0
   46.7434   34.1723   41.4498 H   0  0  0  0  0  0  0  0  0  0  0  0
   48.8603   35.6835   40.6288 H   0  0  0  0  0  0  0  0  0  0  0  0
   48.8129   36.5790   41.8979 H   0  0  0  0  0  0  0  0  0  0  0  0
   49.4574   33.8109   43.2796 H   0  0  0  0  0  0  0  0  0  0  0  0
   45.5392   33.4250   45.9046 H   0  0  0  0  0  0  0  0  0  0  0  0
   43.9171   35.3334   45.8409 H   0  0  0  0  0  0  0  0  0  0  0  0
   44.0605   36.9571   43.8717 H   0  0  0  0  0  0  0  0  0  0  0  0
   49.7453   29.0156   39.2865 H   0  0  0  0  0  0  0  0  0  0  0  0
   49.6647   28.4100   36.6670 H   0  0  0  0  0  0  0  0  0  0  0  0
   47.3661   32.5399   31.8381 H   0  0  0  0  0  0  0  0  0  0  0  0
   45.7889   32.3455   33.9015 H   0  0  0  0  0  0  0  0  0  0  0  0
   52.1360   31.1487   32.5102 H   0  0  0  0  0  0  0  0  0  0  0  0
  1  2  2  0
  1  8  1  0
  3  2  1  0
  4  5  2  0
  4  3  1  0
  5  1  1  0
  6  8  1  0
  6 13  1  0
  7  6  1  0
  7  8  1  0
 10  9  2  0
 11 10  1  0
 12 13  1  0
 12 11  2  0
 13 14  2  0
 14  9  1  0
 15  4  1  0
 16 15  1  0
 17 16  2  0
 18 17  1  0
 18 19  1  0
 19 15  2  0
 20 28  1  0
 20 21  1  0
 21 22  2  0
 23 22  1  0
 23 24  2  0
 24 18  1  0
 25 24  1  0
 26 25  2  0
 27 26  1  0
 27 28  2  0
 28 23  1  0
  6 29  1  6
  7 30  1  0
  7 31  1  0
  8 32  1  1
  9 33  1  0
 10 34  1  0
 11 35  1  0
 16 36  1  0
 17 37  1  0
 20 38  1  0
 21 39  1  0
 26 40  1  0
M  ISO  8  29  13  30  13  31  13  32  13  33  14  34  14  35  14  36  14
M  ISO  4  37  14  38   9  39  14  40  14
M  END
>  <minimizedAffinity>  (1) 
-6.26909065

>  <minimizedRMSD>  (1) 
4.8288517

$$$$
