
     RDKit          3D

 45 50  0  0  1  0  0  0  0  0999 V2000
   49.7440   33.3000   41.6780 C   0  0  0  0  0  0  0  0  0  0  0  0
   50.9610   32.8140   41.9250 N   0  0  0  0  0  0  0  0  0  0  0  0
   51.3290   31.9620   41.0270 O   0  0  0  0  0  0  0  0  0  0  0  0
   50.3680   31.8670   40.1710 C   0  0  0  0  0  0  0  0  0  0  0  0
   49.3470   32.6860   40.5330 N   0  0  0  0  0  0  0  0  0  0  0  0
   47.6190   34.5960   42.1460 C   0  0  1  0  0  0  0  0  0  0  0  0
   48.5950   35.5620   41.7430 C   0  0  0  0  0  0  0  0  0  0  0  0
   49.0200   34.2890   42.5260 C   0  0  2  0  0  0  0  0  0  0  0  0
   45.5530   34.1400   45.1230 C   0  0  0  0  0  0  0  0  0  0  0  0
   44.6310   35.1990   45.0710 C   0  0  0  0  0  0  0  0  0  0  0  0
   44.7360   36.0720   43.9950 C   0  0  0  0  0  0  0  0  0  0  0  0
   45.7170   35.8530   43.0620 N   0  0  0  0  0  0  0  0  0  0  0  0
   46.5700   34.8110   43.1780 C   0  0  0  0  0  0  0  0  0  0  0  0
   46.5170   33.9510   44.1780 N   0  0  0  0  0  0  0  0  0  0  0  0
   50.3480   31.0180   38.9850 C   0  0  0  0  0  0  0  0  0  0  0  0
   49.9010   29.7250   38.9250 C   0  0  0  0  0  0  0  0  0  0  0  0
   50.0510   29.2740   37.6170 C   0  0  0  0  0  0  0  0  0  0  0  0
   50.5790   30.2930   36.9260 N   0  0  0  0  0  0  0  0  0  0  0  0
   50.7610   31.3430   37.7370 N   0  0  0  0  0  0  0  0  0  0  0  0
   50.9630   30.4660   35.5670 C   0  0  0  0  0  0  0  0  0  0  0  0
   52.1360   29.8350   35.1400 C   0  0  0  0  0  0  0  0  0  0  0  0
   52.6360   29.9080   33.8600 C   0  0  0  0  0  0  0  0  0  0  0  0
   51.9580   30.6430   32.9200 C   0  0  0  0  0  0  0  0  0  0  0  0
   50.8030   31.2700   33.3210 C   0  0  0  0  0  0  0  0  0  0  0  0
   50.0770   32.0300   32.4000 C   0  0  0  0  0  0  0  0  0  0  0  0
   48.9170   32.6670   32.7820 C   0  0  0  0  0  0  0  0  0  0  0  0
   48.4350   32.5730   34.0910 C   0  0  0  0  0  0  0  0  0  0  0  0
   49.1410   31.8260   35.0150 C   0  0  0  0  0  0  0  0  0  0  0  0
   50.3010   31.1980   34.6040 C   0  0  0  0  0  0  0  0  0  0  0  0
   46.8352   34.0745   41.5770 H   0  0  0  0  0  0  0  0  0  0  0  0
   48.8585   35.6696   40.6805 H   0  0  0  0  0  0  0  0  0  0  0  0
   48.7260   36.6452   41.8829 H   0  0  0  0  0  0  0  0  0  0  0  0
   49.5362   34.0333   43.4631 H   0  0  0  0  0  0  0  0  0  0  0  0
   45.4943   33.4324   45.9632 H   0  0  0  0  0  0  0  0  0  0  0  0
   43.8617   35.3309   45.8461 H   0  0  0  0  0  0  0  0  0  0  0  0
   44.0456   36.9223   43.8935 H   0  0  0  0  0  0  0  0  0  0  0  0
   49.4938   29.1435   39.7653 H   0  0  0  0  0  0  0  0  0  0  0  0
   49.7884   28.2791   37.2281 H   0  0  0  0  0  0  0  0  0  0  0  0
   52.6963   29.2406   35.8767 H   0  0  0  0  0  0  0  0  0  0  0  0
   53.5662   29.3845   33.5940 H   0  0  0  0  0  0  0  0  0  0  0  0
   52.3248   30.7268   31.8863 H   0  0  0  0  0  0  0  0  0  0  0  0
   50.4341   32.1201   31.3635 H   0  0  0  0  0  0  0  0  0  0  0  0
   48.3592   33.2610   32.0431 H   0  0  0  0  0  0  0  0  0  0  0  0
   47.5066   33.0865   34.3815 H   0  0  0  0  0  0  0  0  0  0  0  0
   48.7878   31.7337   36.0527 H   0  0  0  0  0  0  0  0  0  0  0  0
  1  2  2  0
  1  8  1  0
  3  2  1  0
  4  5  2  0
  4  3  1  0
  5  1  1  0
  6  8  1  0
  6 13  1  0
  7  6  1  0
  7  8  1  0
 10  9  2  0
 11 10  1  0
 12 13  1  0
 12 11  2  0
 13 14  2  0
 14  9  1  0
 15  4  1  0
 16 15  1  0
 17 16  2  0
 18 17  1  0
 18 19  1  0
 19 15  2  0
 20 18  1  0
 21 20  2  0
 22 21  1  0
 23 24  1  0
 23 22  2  0
 24 29  2  0
 25 26  2  0
 25 24  1  0
 26 27  1  0
 27 28  2  0
 29 28  1  0
 29 20  1  0
  6 30  1  6
  7 31  1  0
  7 32  1  0
  8 33  1  1
  9 34  1  0
 10 35  1  0
 11 36  1  0
 16 37  1  0
 17 38  1  0
 21 39  1  0
 22 40  1  0
 23 41  1  0
 25 42  1  0
 26 43  1  0
 27 44  1  0
 28 45  1  0
M  ISO  8  30  13  31  13  32  13  33  13  34  14  35  14  36  14  37  14
M  ISO  8  38  14  39  14  40  14  41  14  42  14  43  14  44  14  45  14
M  END
>  <minimizedAffinity>  (1) 
-6.49000406

>  <minimizedRMSD>  (1) 
4.42141819

$$$$
