
     RDKit          3D

 37 41  0  0  1  0  0  0  0  0999 V2000
   49.5660   33.2480   41.5350 C   0  0  0  0  0  0  0  0  0  0  0  0
   50.6960   32.5860   41.7870 N   0  0  0  0  0  0  0  0  0  0  0  0
   51.0130   31.8080   40.7980 O   0  0  0  0  0  0  0  0  0  0  0  0
   50.1160   31.9390   39.8910 C   0  0  0  0  0  0  0  0  0  0  0  0
   49.1810   32.8360   40.3060 N   0  0  0  0  0  0  0  0  0  0  0  0
   47.5310   34.6370   42.1250 C   0  0  1  0  0  0  0  0  0  0  0  0
   48.5660   35.5680   41.7870 C   0  0  0  0  0  0  0  0  0  0  0  0
   48.9080   34.2090   42.4600 C   0  0  2  0  0  0  0  0  0  0  0  0
   45.5340   34.1480   45.1420 C   0  0  0  0  0  0  0  0  0  0  0  0
   44.6090   35.2170   45.1220 C   0  0  0  0  0  0  0  0  0  0  0  0
   44.6950   36.0960   44.0540 C   0  0  0  0  0  0  0  0  0  0  0  0
   45.6530   35.8870   43.0910 N   0  0  0  0  0  0  0  0  0  0  0  0
   46.5030   34.8380   43.1810 C   0  0  0  0  0  0  0  0  0  0  0  0
   46.4710   33.9730   44.1680 N   0  0  0  0  0  0  0  0  0  0  0  0
   50.0710   31.2520   38.6040 C   0  0  0  0  0  0  0  0  0  0  0  0
   49.8780   29.9100   38.4060 C   0  0  0  0  0  0  0  0  0  0  0  0
   49.9040   29.6740   37.0350 C   0  0  0  0  0  0  0  0  0  0  0  0
   50.1090   30.8500   36.4450 N   0  0  0  0  0  0  0  0  0  0  0  0
   50.2100   31.7980   37.3720 N   0  0  0  0  0  0  0  0  0  0  0  0
   50.2110   31.0940   35.0260 C   0  0  0  0  0  0  0  0  0  0  0  0
   49.2090   31.7790   34.3910 C   0  0  0  0  0  0  0  0  0  0  0  0
   49.3780   31.9730   33.0250 C   0  0  0  0  0  0  0  0  0  0  0  0
   50.4500   31.5190   32.3840 N   0  0  0  0  0  0  0  0  0  0  0  0
   51.4300   30.8460   33.0140 C   0  0  0  0  0  0  0  0  0  0  0  0
   51.2790   30.6500   34.3410 N   0  0  0  0  0  0  0  0  0  0  0  0
   46.7103   34.2137   41.5272 H   0  0  0  0  0  0  0  0  0  0  0  0
   48.8280   35.7436   40.7332 H   0  0  0  0  0  0  0  0  0  0  0  0
   48.7708   36.6253   42.0111 H   0  0  0  0  0  0  0  0  0  0  0  0
   49.4095   33.8425   43.3678 H   0  0  0  0  0  0  0  0  0  0  0  0
   45.4960   33.4306   45.9750 H   0  0  0  0  0  0  0  0  0  0  0  0
   43.8578   35.3448   45.9153 H   0  0  0  0  0  0  0  0  0  0  0  0
   44.0055   36.9497   43.9781 H   0  0  0  0  0  0  0  0  0  0  0  0
   49.7291   29.1540   39.1910 H   0  0  0  0  0  0  0  0  0  0  0  0
   49.7792   28.7024   36.5346 H   0  0  0  0  0  0  0  0  0  0  0  0
   48.3252   32.1525   34.9289 H   0  0  0  0  0  0  0  0  0  0  0  0
   48.6054   32.5157   32.4606 H   0  0  0  0  0  0  0  0  0  0  0  0
   52.3124   30.4732   32.4733 H   0  0  0  0  0  0  0  0  0  0  0  0
  1  2  2  0
  1  8  1  0
  3  2  1  0
  4  5  2  0
  4  3  1  0
  5  1  1  0
  6  8  1  0
  6 13  1  0
  7  6  1  0
  7  8  1  0
 10  9  2  0
 11 10  1  0
 12 13  1  0
 12 11  2  0
 13 14  2  0
 14  9  1  0
 15  4  1  0
 16 15  1  0
 17 16  2  0
 18 17  1  0
 18 19  1  0
 19 15  2  0
 20 18  1  0
 21 20  2  0
 22 21  1  0
 23 24  1  0
 23 22  2  0
 24 25  2  0
 25 20  1  0
  6 26  1  6
  7 27  1  0
  7 28  1  0
  8 29  1  1
  9 30  1  0
 10 31  1  0
 11 32  1  0
 16 33  1  0
 17 34  1  0
 21 35  1  0
 22 36  1  0
 24 37  1  0
M  ISO  8  26  13  27  13  28  13  29  13  30  14  31  14  32  14  33  14
M  ISO  4  34  14  35  14  36  14  37  14
M  END
>  <minimizedAffinity>  (1) 
-5.55211592

>  <minimizedRMSD>  (1) 
3.59290481

$$$$
