
     RDKit          3D

 36 40  0  0  1  0  0  0  0  0999 V2000
   49.8250   33.3740   41.8350 C   0  0  0  0  0  0  0  0  0  0  0  0
   51.0890   33.0410   42.1070 N   0  0  0  0  0  0  0  0  0  0  0  0
   51.5170   32.1170   41.3140 O   0  0  0  0  0  0  0  0  0  0  0  0
   50.5460   31.8210   40.5020 C   0  0  0  0  0  0  0  0  0  0  0  0
   49.4620   32.5860   40.7910 N   0  0  0  0  0  0  0  0  0  0  0  0
   50.5860   30.8300   39.4410 C   0  0  0  0  0  0  0  0  0  0  0  0
   50.6460   31.0740   38.0950 C   0  0  0  0  0  0  0  0  0  0  0  0
   50.6690   29.8540   37.4380 C   0  0  0  0  0  0  0  0  0  0  0  0
   50.6250   28.9080   38.3680 N   0  0  0  0  0  0  0  0  0  0  0  0
   50.5740   29.4810   39.5840 N   0  0  0  0  0  0  0  0  0  0  0  0
   50.6300   27.5080   38.1090 C   0  0  0  0  0  0  0  0  0  0  0  0
   50.6430   26.9480   36.8320 C   0  0  0  0  0  0  0  0  0  0  0  0
   50.6450   25.5610   37.0050 C   0  0  0  0  0  0  0  0  0  0  0  0
   50.6320   25.3160   38.3380 N   0  0  0  0  0  0  0  0  0  0  0  0
   50.6240   26.4860   38.9920 N   0  0  0  0  0  0  0  0  0  0  0  0
   47.6060   34.5390   42.1910 C   0  0  1  0  0  0  0  0  0  0  0  0
   48.4940   35.5270   41.6580 C   0  0  0  0  0  0  0  0  0  0  0  0
   49.0300   34.3950   42.5750 C   0  0  2  0  0  0  0  0  0  0  0  0
   45.5110   34.1720   45.1590 C   0  0  0  0  0  0  0  0  0  0  0  0
   44.6010   35.2480   45.0780 C   0  0  0  0  0  0  0  0  0  0  0  0
   44.7320   36.0920   43.9860 C   0  0  0  0  0  0  0  0  0  0  0  0
   45.7190   35.8440   43.0600 N   0  0  0  0  0  0  0  0  0  0  0  0
   46.5530   34.7890   43.2080 C   0  0  0  0  0  0  0  0  0  0  0  0
   46.4780   33.9560   44.2210 N   0  0  0  0  0  0  0  0  0  0  0  0
   50.6715   32.0651   37.6185 H   0  0  0  0  0  0  0  0  0  0  0  0
   50.7151   29.6988   36.3500 H   0  0  0  0  0  0  0  0  0  0  0  0
   50.6503   27.4914   35.8756 H   0  0  0  0  0  0  0  0  0  0  0  0
   50.6553   24.8059   36.2051 H   0  0  0  0  0  0  0  0  0  0  0  0
   50.6288   24.3840   38.7764 H   0  0  0  0  0  0  0  0  0  0  0  0
   46.8629   33.8904   41.7041 H   0  0  0  0  0  0  0  0  0  0  0  0
   48.7367   35.5293   40.5851 H   0  0  0  0  0  0  0  0  0  0  0  0
   48.5362   36.6261   41.6675 H   0  0  0  0  0  0  0  0  0  0  0  0
   49.5754   34.2952   43.5250 H   0  0  0  0  0  0  0  0  0  0  0  0
   45.4377   33.4807   46.0115 H   0  0  0  0  0  0  0  0  0  0  0  0
   43.8269   35.4087   45.8428 H   0  0  0  0  0  0  0  0  0  0  0  0
   44.0548   36.9498   43.8613 H   0  0  0  0  0  0  0  0  0  0  0  0
  1  2  2  0
  1 18  1  0
  3  2  1  0
  4  5  2  0
  4  3  1  0
  5  1  1  0
  6 10  2  0
  6  4  1  0
  7  6  1  0
  8  7  2  0
  8  9  1  0
  9 10  1  0
 11  9  1  0
 11 15  2  0
 12 13  2  0
 12 11  1  0
 13 14  1  0
 14 15  1  0
 16 18  1  0
 16 23  1  0
 17 16  1  0
 17 18  1  0
 20 19  2  0
 21 20  1  0
 22 23  1  0
 22 21  2  0
 23 24  2  0
 24 19  1  0
  7 25  1  0
  8 26  1  0
 12 27  1  0
 13 28  1  0
 14 29  1  0
 16 30  1  6
 17 31  1  0
 17 32  1  0
 18 33  1  1
 19 34  1  0
 20 35  1  0
 21 36  1  0
M  ISO  8  25  14  26  14  27  14  28  14  29   9  30  13  31  13  32  13
M  ISO  4  33  13  34  14  35  14  36  14
M  END
>  <minimizedAffinity>  (1) 
-4.83392477

>  <minimizedRMSD>  (1) 
0.233804509

$$$$
