
     RDKit          3D

 36 40  0  0  1  0  0  0  0  0999 V2000
   49.8310   33.3710   41.8560 C   0  0  0  0  0  0  0  0  0  0  0  0
   51.1050   33.0690   42.1170 N   0  0  0  0  0  0  0  0  0  0  0  0
   51.5420   32.1320   41.3410 O   0  0  0  0  0  0  0  0  0  0  0  0
   50.5770   31.7990   40.5610 C   0  0  0  0  0  0  0  0  0  0  0  0
   49.4690   32.5470   40.8380 N   0  0  0  0  0  0  0  0  0  0  0  0
   47.6010   34.5220   42.1880 C   0  0  1  0  0  0  0  0  0  0  0  0
   48.4780   35.5100   41.6380 C   0  0  0  0  0  0  0  0  0  0  0  0
   49.0270   34.3970   42.5780 C   0  0  2  0  0  0  0  0  0  0  0  0
   45.5030   34.1840   45.1600 C   0  0  0  0  0  0  0  0  0  0  0  0
   44.6000   35.2610   45.0730 C   0  0  0  0  0  0  0  0  0  0  0  0
   44.7320   36.0980   43.9750 C   0  0  0  0  0  0  0  0  0  0  0  0
   45.7130   35.8370   43.0540 N   0  0  0  0  0  0  0  0  0  0  0  0
   46.5460   34.7820   43.2050 C   0  0  0  0  0  0  0  0  0  0  0  0
   46.4690   33.9540   44.2240 N   0  0  0  0  0  0  0  0  0  0  0  0
   50.6080   30.7740   39.5140 C   0  0  0  0  0  0  0  0  0  0  0  0
   49.5540   29.9950   39.1150 C   0  0  0  0  0  0  0  0  0  0  0  0
   50.0070   29.1560   38.0980 C   0  0  0  0  0  0  0  0  0  0  0  0
   51.2980   29.4430   37.9100 N   0  0  0  0  0  0  0  0  0  0  0  0
   51.6660   30.4080   38.7510 N   0  0  0  0  0  0  0  0  0  0  0  0
   52.1920   28.8600   36.9880 C   0  0  0  0  0  0  0  0  0  0  0  0
   52.2510   27.6540   36.4250 C   0  0  0  0  0  0  0  0  0  0  0  0
   53.2410   27.3180   35.5380 C   0  0  0  0  0  0  0  0  0  0  0  0
   54.1870   28.3660   35.2790 C   0  0  0  0  0  0  0  0  0  0  0  0
   53.5830   29.7600   36.3300 S   0  0  0  0  0  0  0  0  0  0  0  0
   46.8655   33.8581   41.7103 H   0  0  0  0  0  0  0  0  0  0  0  0
   48.7214   35.4959   40.5654 H   0  0  0  0  0  0  0  0  0  0  0  0
   48.5082   36.6095   41.6279 H   0  0  0  0  0  0  0  0  0  0  0  0
   49.5725   34.3191   43.5300 H   0  0  0  0  0  0  0  0  0  0  0  0
   45.4265   33.4998   46.0179 H   0  0  0  0  0  0  0  0  0  0  0  0
   43.8280   35.4301   45.8381 H   0  0  0  0  0  0  0  0  0  0  0  0
   44.0593   36.9586   43.8452 H   0  0  0  0  0  0  0  0  0  0  0  0
   48.5333   30.0260   39.5238 H   0  0  0  0  0  0  0  0  0  0  0  0
   49.4159   28.4035   37.5555 H   0  0  0  0  0  0  0  0  0  0  0  0
   51.4843   26.9072   36.6788 H   0  0  0  0  0  0  0  0  0  0  0  0
   53.3050   26.3274   35.0641 H   0  0  0  0  0  0  0  0  0  0  0  0
   55.0626   28.3443   34.6135 H   0  0  0  0  0  0  0  0  0  0  0  0
  1  2  2  0
  1  8  1  0
  3  2  1  0
  4  5  2  0
  4  3  1  0
  5  1  1  0
  6  8  1  0
  6 13  1  0
  7  6  1  0
  7  8  1  0
 10  9  2  0
 11 10  1  0
 12 13  1  0
 12 11  2  0
 13 14  2  0
 14  9  1  0
 15  4  1  0
 16 15  1  0
 17 16  2  0
 18 17  1  0
 18 19  1  0
 19 15  2  0
 20 18  1  0
 21 20  2  0
 22 21  1  0
 23 22  2  0
 23 24  1  0
 24 20  1  0
  6 25  1  6
  7 26  1  0
  7 27  1  0
  8 28  1  1
  9 29  1  0
 10 30  1  0
 11 31  1  0
 16 32  1  0
 17 33  1  0
 21 34  1  0
 22 35  1  0
 23 36  1  0
M  ISO  8  25  13  26  13  27  13  28  13  29  14  30  14  31  14  32  14
M  ISO  4  33  14  34  14  35  14  36  14
M  END
>  <minimizedAffinity>  (1) 
-4.84013081

>  <minimizedRMSD>  (1) 
2.1927731

$$$$
