
     RDKit          3D

 34 38  0  0  1  0  0  0  0  0999 V2000
   49.8230   33.3720   41.8400 C   0  0  0  0  0  0  0  0  0  0  0  0
   51.0880   33.0440   42.1040 N   0  0  0  0  0  0  0  0  0  0  0  0
   51.5160   32.1180   41.3150 O   0  0  0  0  0  0  0  0  0  0  0  0
   50.5380   31.8160   40.5140 C   0  0  0  0  0  0  0  0  0  0  0  0
   49.4490   32.5730   40.7980 N   0  0  0  0  0  0  0  0  0  0  0  0
   50.5770   30.8130   39.4530 C   0  0  0  0  0  0  0  0  0  0  0  0
   50.8770   31.0520   38.1390 C   0  0  0  0  0  0  0  0  0  0  0  0
   50.8040   29.8280   37.4750 C   0  0  0  0  0  0  0  0  0  0  0  0
   50.4720   28.9030   38.3680 N   0  0  0  0  0  0  0  0  0  0  0  0
   50.3310   29.4890   39.5740 N   0  0  0  0  0  0  0  0  0  0  0  0
   50.2600   27.4980   38.2560 C   0  0  0  0  0  0  0  0  0  0  0  0
   51.2260   26.6510   37.8070 N   0  0  0  0  0  0  0  0  0  0  0  0
   50.7970   25.4270   37.7930 O   0  0  0  0  0  0  0  0  0  0  0  0
   49.5390   25.4140   38.2290 C   0  0  0  0  0  0  0  0  0  0  0  0
   49.2010   26.7050   38.5180 N   0  0  0  0  0  0  0  0  0  0  0  0
   47.6010   34.5380   42.1940 C   0  0  1  0  0  0  0  0  0  0  0  0
   48.4870   35.5240   41.6560 C   0  0  0  0  0  0  0  0  0  0  0  0
   49.0250   34.3930   42.5750 C   0  0  2  0  0  0  0  0  0  0  0  0
   45.5110   34.1760   45.1660 C   0  0  0  0  0  0  0  0  0  0  0  0
   44.6020   35.2470   45.0890 C   0  0  0  0  0  0  0  0  0  0  0  0
   44.7300   36.0900   43.9950 C   0  0  0  0  0  0  0  0  0  0  0  0
   45.7130   35.8400   43.0670 N   0  0  0  0  0  0  0  0  0  0  0  0
   46.5480   34.7900   43.2120 C   0  0  0  0  0  0  0  0  0  0  0  0
   46.4760   33.9590   44.2260 N   0  0  0  0  0  0  0  0  0  0  0  0
   51.1281   32.0251   37.6917 H   0  0  0  0  0  0  0  0  0  0  0  0
   50.9883   29.6590   36.4038 H   0  0  0  0  0  0  0  0  0  0  0  0
   48.8935   24.5298   38.3362 H   0  0  0  0  0  0  0  0  0  0  0  0
   46.8564   33.8884   41.7107 H   0  0  0  0  0  0  0  0  0  0  0  0
   48.7266   35.5235   40.5824 H   0  0  0  0  0  0  0  0  0  0  0  0
   48.5298   36.6231   41.6625 H   0  0  0  0  0  0  0  0  0  0  0  0
   49.5712   34.2935   43.5246 H   0  0  0  0  0  0  0  0  0  0  0  0
   45.4409   33.4851   46.0191 H   0  0  0  0  0  0  0  0  0  0  0  0
   43.8302   35.4074   45.8562 H   0  0  0  0  0  0  0  0  0  0  0  0
   44.0531   36.9482   43.8714 H   0  0  0  0  0  0  0  0  0  0  0  0
  1  2  2  0
  1 18  1  0
  3  2  1  0
  4  5  2  0
  4  3  1  0
  5  1  1  0
  6 10  2  0
  6  4  1  0
  7  6  1  0
  8  7  2  0
  8  9  1  0
  9 10  1  0
 11  9  1  0
 11 15  1  0
 12 11  2  0
 13 12  1  0
 13 14  1  0
 14 15  2  0
 16 18  1  0
 16 23  1  0
 17 16  1  0
 17 18  1  0
 20 19  2  0
 21 20  1  0
 22 23  1  0
 22 21  2  0
 23 24  2  0
 24 19  1  0
  7 25  1  0
  8 26  1  0
 14 27  1  0
 16 28  1  6
 17 29  1  0
 17 30  1  0
 18 31  1  1
 19 32  1  0
 20 33  1  0
 21 34  1  0
M  ISO  8  25  14  26  14  27  14  28  13  29  13  30  13  31  13  32  14
M  ISO  2  33  14  34  14
M  END
>  <minimizedAffinity>  (1) 
-4.82185698

>  <minimizedRMSD>  (1) 
0.0136674577

$$$$
