
     RDKit          3D

 32 35  0  0  1  0  0  0  0  0999 V2000
   47.6000   34.5360   42.1910 C   0  0  1  0  0  0  0  0  0  0  0  0
   48.4890   35.5230   41.6570 C   0  0  0  0  0  0  0  0  0  0  0  0
   49.0240   34.3910   42.5750 C   0  0  2  0  0  0  0  0  0  0  0  0
   45.5090   34.1790   45.1630 C   0  0  0  0  0  0  0  0  0  0  0  0
   44.5970   35.2620   45.0810 C   0  0  0  0  0  0  0  0  0  0  0  0
   44.7310   36.0990   43.9850 C   0  0  0  0  0  0  0  0  0  0  0  0
   45.7160   35.8340   43.0680 N   0  0  0  0  0  0  0  0  0  0  0  0
   46.5460   34.7890   43.2080 C   0  0  0  0  0  0  0  0  0  0  0  0
   46.4730   33.9570   44.2220 N   0  0  0  0  0  0  0  0  0  0  0  0
   49.8190   33.3690   41.8380 C   0  0  0  0  0  0  0  0  0  0  0  0
   51.0870   33.0460   42.1020 N   0  0  0  0  0  0  0  0  0  0  0  0
   51.5210   32.1180   41.3130 O   0  0  0  0  0  0  0  0  0  0  0  0
   50.5440   31.8140   40.5160 C   0  0  0  0  0  0  0  0  0  0  0  0
   49.4520   32.5700   40.8020 N   0  0  0  0  0  0  0  0  0  0  0  0
   50.5790   30.8100   39.4550 C   0  0  0  0  0  0  0  0  0  0  0  0
   50.8740   31.0320   38.1360 C   0  0  0  0  0  0  0  0  0  0  0  0
   50.8000   29.8230   37.4780 C   0  0  0  0  0  0  0  0  0  0  0  0
   50.4700   28.8990   38.3730 N   0  0  0  0  0  0  0  0  0  0  0  0
   50.3340   29.4840   39.5760 N   0  0  0  0  0  0  0  0  0  0  0  0
   50.2660   27.4590   38.1870 C   0  0  0  0  0  0  0  0  0  0  0  0
   46.8565   33.8870   41.7051 H   0  0  0  0  0  0  0  0  0  0  0  0
   48.7316   35.5242   40.5841 H   0  0  0  0  0  0  0  0  0  0  0  0
   48.5323   36.6221   41.6656 H   0  0  0  0  0  0  0  0  0  0  0  0
   49.5692   34.2914   43.5252 H   0  0  0  0  0  0  0  0  0  0  0  0
   45.4369   33.4909   46.0182 H   0  0  0  0  0  0  0  0  0  0  0  0
   43.8247   35.4285   45.8464 H   0  0  0  0  0  0  0  0  0  0  0  0
   44.0597   36.9603   43.8527 H   0  0  0  0  0  0  0  0  0  0  0  0
   51.1252   32.0022   37.6826 H   0  0  0  0  0  0  0  0  0  0  0  0
   50.9813   29.6542   36.4063 H   0  0  0  0  0  0  0  0  0  0  0  0
   50.1965   26.9686   39.1692 H   0  0  0  0  0  0  0  0  0  0  0  0
   49.3349   27.2900   37.6261 H   0  0  0  0  0  0  0  0  0  0  0  0
   51.1135   27.0380   37.6261 H   0  0  0  0  0  0  0  0  0  0  0  0
  1  3  1  0
  1  8  1  0
  2  1  1  0
  2  3  1  0
  5  4  2  0
  6  5  1  0
  7  8  1  0
  7  6  2  0
  8  9  2  0
  9  4  1  0
 10 11  2  0
 10  3  1  0
 12 11  1  0
 13 14  2  0
 13 12  1  0
 14 10  1  0
 15 19  2  0
 15 13  1  0
 16 15  1  0
 17 16  2  0
 17 18  1  0
 18 19  1  0
 20 18  1  0
  1 21  1  6
  2 22  1  0
  2 23  1  0
  3 24  1  1
  4 25  1  0
  5 26  1  0
  6 27  1  0
 16 28  1  0
 17 29  1  0
 20 30  1  0
 20 31  1  0
 20 32  1  0
M  ISO  8  21  13  22  13  23  13  24  13  25  14  26  14  27  14  28  14
M  ISO  4  29  14  30   8  31   8  32   8
M  END
>  <minimizedAffinity>  (1) 
-4.81460619

>  <minimizedRMSD>  (1) 
0.011575046

$$$$
