
     RDKit          3D

 36 40  0  0  1  0  0  0  0  0999 V2000
   47.6020   34.5450   42.1870 C   0  0  1  0  0  0  0  0  0  0  0  0
   48.4940   35.5360   41.6640 C   0  0  0  0  0  0  0  0  0  0  0  0
   49.0240   34.3960   42.5770 C   0  0  2  0  0  0  0  0  0  0  0  0
   45.5170   34.1650   45.1620 C   0  0  0  0  0  0  0  0  0  0  0  0
   44.6000   35.2560   45.0780 C   0  0  0  0  0  0  0  0  0  0  0  0
   44.7310   36.0970   43.9830 C   0  0  0  0  0  0  0  0  0  0  0  0
   45.7110   35.8410   43.0640 N   0  0  0  0  0  0  0  0  0  0  0  0
   46.5450   34.7890   43.2070 C   0  0  0  0  0  0  0  0  0  0  0  0
   46.4760   33.9550   44.2180 N   0  0  0  0  0  0  0  0  0  0  0  0
   49.8230   33.3780   41.8390 C   0  0  0  0  0  0  0  0  0  0  0  0
   51.0860   33.0420   42.1140 N   0  0  0  0  0  0  0  0  0  0  0  0
   51.5120   32.1160   41.3070 O   0  0  0  0  0  0  0  0  0  0  0  0
   50.5530   31.8300   40.5000 C   0  0  0  0  0  0  0  0  0  0  0  0
   49.4690   32.5960   40.7920 N   0  0  0  0  0  0  0  0  0  0  0  0
   50.5900   30.8430   39.4290 C   0  0  0  0  0  0  0  0  0  0  0  0
   50.8820   31.0900   38.1120 C   0  0  0  0  0  0  0  0  0  0  0  0
   50.8130   29.8920   37.4200 C   0  0  0  0  0  0  0  0  0  0  0  0
   50.4860   28.9560   38.3120 N   0  0  0  0  0  0  0  0  0  0  0  0
   50.3520   29.5160   39.5160 N   0  0  0  0  0  0  0  0  0  0  0  0
   50.3040   27.5470   38.0340 C   0  0  0  0  0  0  0  0  0  0  0  0
   51.3260   26.8910   37.2110 C   0  0  0  0  0  0  0  0  0  0  0  0
   49.9540   27.1790   36.6230 C   0  0  0  0  0  0  0  0  0  0  0  0
   46.8597   33.9024   41.6910 H   0  0  0  0  0  0  0  0  0  0  0  0
   48.7417   35.5449   40.5923 H   0  0  0  0  0  0  0  0  0  0  0  0
   48.5378   36.6350   41.6807 H   0  0  0  0  0  0  0  0  0  0  0  0
   49.5645   34.2893   43.5291 H   0  0  0  0  0  0  0  0  0  0  0  0
   45.4469   33.4734   46.0145 H   0  0  0  0  0  0  0  0  0  0  0  0
   43.8279   35.4214   45.8438 H   0  0  0  0  0  0  0  0  0  0  0  0
   44.0569   36.9569   43.8556 H   0  0  0  0  0  0  0  0  0  0  0  0
   51.1286   32.0709   37.6795 H   0  0  0  0  0  0  0  0  0  0  0  0
   50.9927   29.7420   36.3452 H   0  0  0  0  0  0  0  0  0  0  0  0
   49.8613   27.3360   39.0186 H   0  0  0  0  0  0  0  0  0  0  0  0
   52.2020   27.4599   36.8660 H   0  0  0  0  0  0  0  0  0  0  0  0
   51.9512   25.9925   37.3195 H   0  0  0  0  0  0  0  0  0  0  0  0
   49.8303   27.9613   35.8597 H   0  0  0  0  0  0  0  0  0  0  0  0
   49.1653   26.5878   36.1346 H   0  0  0  0  0  0  0  0  0  0  0  0
  1  3  1  0
  1  8  1  0
  2  1  1  0
  2  3  1  0
  5  4  2  0
  6  5  1  0
  7  8  1  0
  7  6  2  0
  8  9  2  0
  9  4  1  0
 10 11  2  0
 10  3  1  0
 12 11  1  0
 13 14  2  0
 13 12  1  0
 14 10  1  0
 15 19  2  0
 15 13  1  0
 16 15  1  0
 17 16  2  0
 17 18  1  0
 18 19  1  0
 20 18  1  0
 21 20  1  0
 22 21  1  0
 22 20  1  0
  1 23  1  6
  2 24  1  0
  2 25  1  0
  3 26  1  1
  4 27  1  0
  5 28  1  0
  6 29  1  0
 16 30  1  0
 17 31  1  0
 20 32  1  0
 21 33  1  0
 21 34  1  0
 22 35  1  0
 22 36  1  0
M  ISO  8  23  13  24  13  25  13  26  13  27  14  28  14  29  14  30  14
M  ISO  6  31  14  32  13  33  13  34  13  35  13  36  13
M  END
>  <minimizedAffinity>  (1) 
-4.62836695

>  <minimizedRMSD>  (1) 
0.0602407493

$$$$
