
     RDKit          3D

 37 41  0  0  1  0  0  0  0  0999 V2000
   49.8220   33.3680   41.8390 C   0  0  0  0  0  0  0  0  0  0  0  0
   51.0890   33.0410   42.1030 N   0  0  0  0  0  0  0  0  0  0  0  0
   51.5220   32.1100   41.3160 O   0  0  0  0  0  0  0  0  0  0  0  0
   50.5620   31.8080   40.5260 C   0  0  0  0  0  0  0  0  0  0  0  0
   49.4580   32.5680   40.8060 N   0  0  0  0  0  0  0  0  0  0  0  0
   47.6050   34.5370   42.1890 C   0  0  1  0  0  0  0  0  0  0  0  0
   48.4920   35.5230   41.6490 C   0  0  0  0  0  0  0  0  0  0  0  0
   49.0300   34.3950   42.5750 C   0  0  2  0  0  0  0  0  0  0  0  0
   45.5180   34.1730   45.1630 C   0  0  0  0  0  0  0  0  0  0  0  0
   44.5990   35.2540   45.0830 C   0  0  0  0  0  0  0  0  0  0  0  0
   44.7310   36.0910   43.9850 C   0  0  0  0  0  0  0  0  0  0  0  0
   45.7140   35.8460   43.0560 N   0  0  0  0  0  0  0  0  0  0  0  0
   46.5520   34.7900   43.2080 C   0  0  0  0  0  0  0  0  0  0  0  0
   46.4750   33.9620   44.2240 N   0  0  0  0  0  0  0  0  0  0  0  0
   50.5820   30.8030   39.4590 C   0  0  0  0  0  0  0  0  0  0  0  0
   50.8540   31.0380   38.1380 C   0  0  0  0  0  0  0  0  0  0  0  0
   50.7700   29.8260   37.4570 C   0  0  0  0  0  0  0  0  0  0  0  0
   50.4520   28.9040   38.3740 N   0  0  0  0  0  0  0  0  0  0  0  0
   50.3380   29.4730   39.5670 N   0  0  0  0  0  0  0  0  0  0  0  0
   50.2410   27.4860   38.2170 C   0  0  0  0  0  0  0  0  0  0  0  0
   49.4330   26.7380   39.0480 C   0  0  0  0  0  0  0  0  0  0  0  0
   49.3230   25.3880   38.7770 C   0  0  0  0  0  0  0  0  0  0  0  0
   49.9670   24.7720   37.7440 N   0  0  0  0  0  0  0  0  0  0  0  0
   50.7460   25.5360   36.9570 C   0  0  0  0  0  0  0  0  0  0  0  0
   50.8760   26.8530   37.1890 N   0  0  0  0  0  0  0  0  0  0  0  0
   46.8617   33.8867   41.7045 H   0  0  0  0  0  0  0  0  0  0  0  0
   48.7344   35.5186   40.5761 H   0  0  0  0  0  0  0  0  0  0  0  0
   48.5332   36.6222   41.6513 H   0  0  0  0  0  0  0  0  0  0  0  0
   49.5762   34.3019   43.5252 H   0  0  0  0  0  0  0  0  0  0  0  0
   45.4513   33.4824   46.0166 H   0  0  0  0  0  0  0  0  0  0  0  0
   43.8265   35.4177   45.8488 H   0  0  0  0  0  0  0  0  0  0  0  0
   44.0520   36.9471   43.8582 H   0  0  0  0  0  0  0  0  0  0  0  0
   51.0966   32.0139   37.6922 H   0  0  0  0  0  0  0  0  0  0  0  0
   50.9323   29.6598   36.3818 H   0  0  0  0  0  0  0  0  0  0  0  0
   48.8981   27.1979   39.8920 H   0  0  0  0  0  0  0  0  0  0  0  0
   48.6817   24.7768   39.4291 H   0  0  0  0  0  0  0  0  0  0  0  0
   51.2828   25.0771   36.1137 H   0  0  0  0  0  0  0  0  0  0  0  0
  1  2  2  0
  1  8  1  0
  3  2  1  0
  4  5  2  0
  4  3  1  0
  5  1  1  0
  6  8  1  0
  6 13  1  0
  7  6  1  0
  7  8  1  0
 10  9  2  0
 11 10  1  0
 12 13  1  0
 12 11  2  0
 13 14  2  0
 14  9  1  0
 15 19  2  0
 15  4  1  0
 16 15  1  0
 17 16  2  0
 17 18  1  0
 18 19  1  0
 20 18  1  0
 20 21  2  0
 22 21  1  0
 23 22  2  0
 24 25  2  0
 24 23  1  0
 25 20  1  0
  6 26  1  6
  7 27  1  0
  7 28  1  0
  8 29  1  1
  9 30  1  0
 10 31  1  0
 11 32  1  0
 16 33  1  0
 17 34  1  0
 21 35  1  0
 22 36  1  0
 24 37  1  0
M  ISO  8  26  13  27  13  28  13  29  13  30  14  31  14  32  14  33  14
M  ISO  4  34  14  35  14  36  14  37  14
M  END
>  <minimizedAffinity>  (1) 
-4.59266138

>  <minimizedRMSD>  (1) 
0.0288647581

$$$$
