
     RDKit          3D

 23 25  0  0  0  0  0  0  0  0999 V2000
   45.7530   33.9250   45.4870 C   0  0  0  0  0  0  0  0  0  0  0  0
   44.7530   34.9100   45.6400 C   0  0  0  0  0  0  0  0  0  0  0  0
   44.8610   35.7520   43.9350 S   0  0  0  0  0  0  0  0  0  0  0  0
   46.2380   34.5670   43.4170 C   0  0  0  0  0  0  0  0  0  0  0  0
   46.3750   33.9180   44.3130 N   0  0  0  0  0  0  0  0  0  0  0  0
   47.4000   31.4360   47.6010 C   0  0  0  0  0  0  0  0  0  0  0  0
   46.5290   31.3150   48.6870 C   0  0  0  0  0  0  0  0  0  0  0  0
   45.3730   32.0870   48.6980 C   0  0  0  0  0  0  0  0  0  0  0  0
   45.1510   32.9270   47.6400 N   0  0  0  0  0  0  0  0  0  0  0  0
   46.0100   33.0170   46.6130 C   0  0  0  0  0  0  0  0  0  0  0  0
   47.1360   32.2810   46.5790 N   0  0  0  0  0  0  0  0  0  0  0  0
   46.9100   34.6140   42.0500 C   0  0  0  0  0  0  0  0  0  0  0  0
   48.1340   35.0830   41.7040 C   0  0  0  0  0  0  0  0  0  0  0  0
   48.2480   34.8940   40.3580 C   0  0  0  0  0  0  0  0  0  0  0  0
   47.1080   34.3270   39.9460 N   0  0  0  0  0  0  0  0  0  0  0  0
   46.2770   34.1480   40.9650 N   0  0  0  0  0  0  0  0  0  0  0  0
   44.0994   35.1283   46.4974 H   0  0  0  0  0  0  0  0  0  0  0  0
   48.3188   30.8317   47.5771 H   0  0  0  0  0  0  0  0  0  0  0  0
   46.7529   30.6250   49.5139 H   0  0  0  0  0  0  0  0  0  0  0  0
   44.6581   32.0248   49.5317 H   0  0  0  0  0  0  0  0  0  0  0  0
   48.8847   35.5270   42.3743 H   0  0  0  0  0  0  0  0  0  0  0  0
   49.1123   35.1575   39.7307 H   0  0  0  0  0  0  0  0  0  0  0  0
   46.9035   34.0653   38.9710 H   0  0  0  0  0  0  0  0  0  0  0  0
  1  2  2  0
  1 10  1  0
  3  2  1  0
  4  3  1  0
  4  5  2  0
  5  1  1  0
  6  7  2  0
  7  8  1  0
  9  8  2  0
 10  9  1  0
 11 10  2  0
 11  6  1  0
 12  4  1  0
 13 12  1  0
 14 13  2  0
 15 14  1  0
 15 16  1  0
 16 12  2  0
  2 17  1  0
  6 18  1  0
  7 19  1  0
  8 20  1  0
 13 21  1  0
 14 22  1  0
 15 23  1  0
M  ISO  7  17  14  18  14  19  14  20  14  21  14  22  14  23   9
M  END
>  <minimizedAffinity>  (1) 
-5.2074337

>  <minimizedRMSD>  (1) 
7.21814823

$$$$
