
     RDKit          3D

 21 23  0  0  0  0  0  0  0  0999 V2000
   45.8020   33.9470   45.4210 C   0  0  0  0  0  0  0  0  0  0  0  0
   44.7590   34.8880   45.5710 C   0  0  0  0  0  0  0  0  0  0  0  0
   44.9000   35.7780   43.8970 S   0  0  0  0  0  0  0  0  0  0  0  0
   46.3420   34.6690   43.3760 C   0  0  0  0  0  0  0  0  0  0  0  0
   46.4580   34.0060   44.2660 N   0  0  0  0  0  0  0  0  0  0  0  0
   45.3870   32.1280   48.5760 C   0  0  0  0  0  0  0  0  0  0  0  0
   46.5080   31.2860   48.5930 C   0  0  0  0  0  0  0  0  0  0  0  0
   47.4080   31.3340   47.5320 C   0  0  0  0  0  0  0  0  0  0  0  0
   47.1370   32.2180   46.5190 N   0  0  0  0  0  0  0  0  0  0  0  0
   46.0610   33.0090   46.5280 C   0  0  0  0  0  0  0  0  0  0  0  0
   45.1840   32.9710   47.5480 N   0  0  0  0  0  0  0  0  0  0  0  0
   47.0870   34.7220   42.0880 C   0  0  0  0  0  0  0  0  0  0  0  0
   48.1750   35.4700   41.8140 N   0  0  0  0  0  0  0  0  0  0  0  0
   48.5440   35.2540   40.5950 O   0  0  0  0  0  0  0  0  0  0  0  0
   47.7570   34.3910   40.0220 C   0  0  0  0  0  0  0  0  0  0  0  0
   46.8260   34.0410   40.9500 N   0  0  0  0  0  0  0  0  0  0  0  0
   44.0680   35.0563   46.4102 H   0  0  0  0  0  0  0  0  0  0  0  0
   44.6690   32.0989   49.4088 H   0  0  0  0  0  0  0  0  0  0  0  0
   46.6742   30.5964   49.4338 H   0  0  0  0  0  0  0  0  0  0  0  0
   48.2993   30.6898   47.5071 H   0  0  0  0  0  0  0  0  0  0  0  0
   47.8301   34.0177   38.9899 H   0  0  0  0  0  0  0  0  0  0  0  0
  1  2  2  0
  1 10  1  0
  3  2  1  0
  4  3  1  0
  4  5  2  0
  5  1  1  0
  6  7  2  0
  8  7  1  0
  9 10  1  0
  9  8  2  0
 10 11  2  0
 11  6  1  0
 12  4  1  0
 13 12  2  0
 14 13  1  0
 15 14  1  0
 15 16  2  0
 16 12  1  0
  2 17  1  0
  6 18  1  0
  7 19  1  0
  8 20  1  0
 15 21  1  0
M  ISO  5  17  14  18  14  19  14  20  14  21  14
M  END
>  <minimizedAffinity>  (1) 
-5.00724363

>  <minimizedRMSD>  (1) 
7.19650841

$$$$
