
     RDKit          3D

 19 20  0  0  0  0  0  0  0  0999 V2000
   46.3160   32.7620   45.6520 C   0  0  0  0  0  0  0  0  0  0  0  0
   47.1010   31.7930   44.9810 C   0  0  0  0  0  0  0  0  0  0  0  0
   47.3800   30.5570   46.4010 S   0  0  0  0  0  0  0  0  0  0  0  0
   46.3640   31.6390   47.5850 C   0  0  0  0  0  0  0  0  0  0  0  0
   46.0680   32.4930   46.9290 N   0  0  0  0  0  0  0  0  0  0  0  0
   44.5240   35.8280   44.8180 C   0  0  0  0  0  0  0  0  0  0  0  0
   45.0030   36.1190   43.5170 C   0  0  0  0  0  0  0  0  0  0  0  0
   45.9430   35.2620   42.9260 C   0  0  0  0  0  0  0  0  0  0  0  0
   46.3390   34.1820   43.6610 N   0  0  0  0  0  0  0  0  0  0  0  0
   45.8680   33.9280   44.8950 C   0  0  0  0  0  0  0  0  0  0  0  0
   44.9650   34.7450   45.4760 N   0  0  0  0  0  0  0  0  0  0  0  0
   46.1280   31.2690   49.0110 C   0  0  0  0  0  0  0  0  0  0  0  0
   47.2860   30.8080   49.5590 F   0  0  0  0  0  0  0  0  0  0  0  0
   45.5890   32.3390   49.6970 F   0  0  0  0  0  0  0  0  0  0  0  0
   45.2120   30.2180   49.0910 F   0  0  0  0  0  0  0  0  0  0  0  0
   47.4495   31.7632   43.9381 H   0  0  0  0  0  0  0  0  0  0  0  0
   43.7868   36.4933   45.2912 H   0  0  0  0  0  0  0  0  0  0  0  0
   44.6420   37.0065   42.9767 H   0  0  0  0  0  0  0  0  0  0  0  0
   46.3420   35.4511   41.9185 H   0  0  0  0  0  0  0  0  0  0  0  0
  1  5  1  0
  2  1  2  0
  2  3  1  0
  3  4  1  0
  4 12  1  0
  5  4  2  0
  6 11  2  0
  7  6  1  0
  8  7  2  0
  8  9  1  0
  9 10  2  0
 10 11  1  0
 10  1  1  0
 12 15  1  0
 12 13  1  0
 12 14  1  0
  2 16  1  0
  6 17  1  0
  7 18  1  0
  8 19  1  0
M  ISO  4  16  14  17  14  18  14  19  14
M  END
>  <minimizedAffinity>  (1) 
-4.99178076

>  <minimizedRMSD>  (1) 
1.416484

$$$$
