
     RDKit          3D

 18 19  0  0  0  0  0  0  0  0999 V2000
   44.4520   35.9610   44.8630 C   0  0  0  0  0  0  0  0  0  0  0  0
   45.0900   35.9330   43.6130 C   0  0  0  0  0  0  0  0  0  0  0  0
   45.9760   34.8950   43.3360 C   0  0  0  0  0  0  0  0  0  0  0  0
   46.1770   33.9560   44.2950 N   0  0  0  0  0  0  0  0  0  0  0  0
   45.5580   33.9940   45.4900 C   0  0  0  0  0  0  0  0  0  0  0  0
   44.6970   34.9930   45.7790 N   0  0  0  0  0  0  0  0  0  0  0  0
   46.7060   34.7380   42.0850 C   0  0  0  0  0  0  0  0  0  0  0  0
   47.9300   35.3290   41.8540 C   0  0  0  0  0  0  0  0  0  0  0  0
   48.6420   35.1970   40.6800 C   0  0  0  0  0  0  0  0  0  0  0  0
   48.0940   34.4340   39.6980 N   0  0  0  0  0  0  0  0  0  0  0  0
   46.9140   33.8600   39.9120 C   0  0  0  0  0  0  0  0  0  0  0  0
   46.2270   33.9930   41.0580 N   0  0  0  0  0  0  0  0  0  0  0  0
   43.7492   36.7733   45.1003 H   0  0  0  0  0  0  0  0  0  0  0  0
   44.8938   36.7164   42.8662 H   0  0  0  0  0  0  0  0  0  0  0  0
   45.7546   33.2079   46.2339 H   0  0  0  0  0  0  0  0  0  0  0  0
   48.3657   35.9438   42.6554 H   0  0  0  0  0  0  0  0  0  0  0  0
   49.6157   35.6903   40.5439 H   0  0  0  0  0  0  0  0  0  0  0  0
   46.4788   33.2454   39.1102 H   0  0  0  0  0  0  0  0  0  0  0  0
  1  6  2  0
  2  1  1  0
  3  2  2  0
  3  4  1  0
  4  5  2  0
  5  6  1  0
  7  3  1  0
  8  7  2  0
  9  8  1  0
 10 11  1  0
 10  9  2  0
 11 12  2  0
 12  7  1  0
  1 13  1  0
  2 14  1  0
  5 15  1  0
  8 16  1  0
  9 17  1  0
 11 18  1  0
M  ISO  6  13  14  14  14  15  14  16  14  17  14  18  14
M  END
>  <minimizedAffinity>  (1) 
-4.35652113

>  <minimizedRMSD>  (1) 
0.784442961

$$$$
