
     RDKit          3D

 18 19  0  0  0  0  0  0  0  0999 V2000
   44.4770   35.9580   44.7910 C   0  0  0  0  0  0  0  0  0  0  0  0
   45.0280   36.0730   43.4930 C   0  0  0  0  0  0  0  0  0  0  0  0
   45.9480   35.1010   43.0520 C   0  0  0  0  0  0  0  0  0  0  0  0
   46.2510   34.0930   43.9260 N   0  0  0  0  0  0  0  0  0  0  0  0
   45.7070   34.0220   45.1440 C   0  0  0  0  0  0  0  0  0  0  0  0
   44.8190   34.9410   45.5970 N   0  0  0  0  0  0  0  0  0  0  0  0
   46.0330   32.9370   46.0830 C   0  0  0  0  0  0  0  0  0  0  0  0
   47.0220   32.0070   45.6710 C   0  0  0  0  0  0  0  0  0  0  0  0
   47.0730   30.8650   47.1640 S   0  0  0  0  0  0  0  0  0  0  0  0
   45.7390   31.8980   48.0280 C   0  0  0  0  0  0  0  0  0  0  0  0
   45.5210   32.7040   47.2890 N   0  0  0  0  0  0  0  0  0  0  0  0
   45.0100   31.8230   49.3860 N   0  0  0  0  0  0  0  0  0  0  0  0
   43.7586   36.7124   45.1443 H   0  0  0  0  0  0  0  0  0  0  0  0
   44.7424   36.9090   42.8376 H   0  0  0  0  0  0  0  0  0  0  0  0
   46.4017   35.1504   42.0511 H   0  0  0  0  0  0  0  0  0  0  0  0
   47.5998   31.9654   44.7359 H   0  0  0  0  0  0  0  0  0  0  0  0
   44.3003   32.5288   49.6292 H   0  0  0  0  0  0  0  0  0  0  0  0
   45.2331   31.0672   50.0492 H   0  0  0  0  0  0  0  0  0  0  0  0
  1  6  2  0
  2  1  1  0
  3  2  2  0
  3  4  1  0
  4  5  2  0
  5  6  1  0
  5  7  1  0
  7 11  1  0
  8  7  2  0
  8  9  1  0
  9 10  1  0
 10 12  1  0
 11 10  2  0
  1 13  1  0
  2 14  1  0
  3 15  1  0
  8 16  1  0
 12 17  1  0
 12 18  1  0
M  ISO  4  13  14  14  14  15  14  16  14
M  END
>  <minimizedAffinity>  (1) 
-4.46128082

>  <minimizedRMSD>  (1) 
0.457813978

$$$$
