
     RDKit          3D

 17 18  0  0  0  0  0  0  0  0999 V2000
   44.4810   35.8660   44.9010 C   0  0  0  0  0  0  0  0  0  0  0  0
   45.0780   35.9040   43.6150 C   0  0  0  0  0  0  0  0  0  0  0  0
   46.0000   34.9060   43.2440 C   0  0  0  0  0  0  0  0  0  0  0  0
   46.2670   33.9430   44.1700 N   0  0  0  0  0  0  0  0  0  0  0  0
   45.6830   33.9370   45.3800 C   0  0  0  0  0  0  0  0  0  0  0  0
   44.7930   34.8840   45.7610 N   0  0  0  0  0  0  0  0  0  0  0  0
   45.9860   32.8880   46.3590 C   0  0  0  0  0  0  0  0  0  0  0  0
   47.0670   32.0110   46.0770 C   0  0  0  0  0  0  0  0  0  0  0  0
   47.0350   30.8990   47.5860 S   0  0  0  0  0  0  0  0  0  0  0  0
   45.5440   31.8740   48.2870 C   0  0  0  0  0  0  0  0  0  0  0  0
   45.3610   32.6490   47.5070 N   0  0  0  0  0  0  0  0  0  0  0  0
   44.7540   31.7270   49.5340 O   0  0  0  0  0  0  0  0  0  0  0  0
   43.7603   36.6435   45.1943 H   0  0  0  0  0  0  0  0  0  0  0  0
   44.8221   36.7092   42.9106 H   0  0  0  0  0  0  0  0  0  0  0  0
   46.4811   34.9042   42.2548 H   0  0  0  0  0  0  0  0  0  0  0  0
   47.7410   31.9899   45.2079 H   0  0  0  0  0  0  0  0  0  0  0  0
   44.0030   32.3447   49.7199 H   0  0  0  0  0  0  0  0  0  0  0  0
  1  6  2  0
  2  1  1  0
  3  2  2  0
  3  4  1  0
  4  5  2  0
  5  6  1  0
  5  7  1  0
  7 11  1  0
  8  7  2  0
  8  9  1  0
  9 10  1  0
 10 12  1  0
 11 10  2  0
  1 13  1  0
  2 14  1  0
  3 15  1  0
  8 16  1  0
 12 17  1  0
M  ISO  5  13  14  14  14  15  14  16  14  17   3
M  END
>  <minimizedAffinity>  (1) 
-4.48579264

>  <minimizedRMSD>  (1) 
0.239011049

$$$$
