
     RDKit          3D

 26 28  0  0  0  0  0  0  0  0999 V2000
   46.5230   32.6980   44.4030 C   0  0  0  0  0  0  0  0  0  0  0  0
   47.7360   32.3390   43.7710 C   0  0  0  0  0  0  0  0  0  0  0  0
   47.9350   30.5630   44.4150 S   0  0  0  0  0  0  0  0  0  0  0  0
   46.3200   30.7040   45.4060 C   0  0  0  0  0  0  0  0  0  0  0  0
   45.9950   31.7430   45.1640 N   0  0  0  0  0  0  0  0  0  0  0  0
   45.7610   29.6660   46.2230 N   0  0  0  0  0  0  0  0  0  0  0  0
   44.8840   28.7810   45.6990 C   0  0  0  0  0  0  0  0  0  0  0  0
   44.4150   27.8220   46.5980 C   0  0  0  0  0  0  0  0  0  0  0  0
   44.8470   27.8220   47.9220 C   0  0  0  0  0  0  0  0  0  0  0  0
   44.4080   26.9390   48.7310 O   0  0  0  0  0  0  0  0  0  0  0  0
   45.7250   28.7450   48.3610 N   0  0  0  0  0  0  0  0  0  0  0  0
   46.1810   29.6730   47.4930 C   0  0  0  0  0  0  0  0  0  0  0  0
   46.9970   30.5150   47.9410 O   0  0  0  0  0  0  0  0  0  0  0  0
   44.5800   35.7490   44.8720 C   0  0  0  0  0  0  0  0  0  0  0  0
   44.9690   36.5310   43.7650 C   0  0  0  0  0  0  0  0  0  0  0  0
   45.8920   36.0140   42.8640 C   0  0  0  0  0  0  0  0  0  0  0  0
   46.3740   34.7620   43.1090 N   0  0  0  0  0  0  0  0  0  0  0  0
   45.9910   34.0360   44.1660 C   0  0  0  0  0  0  0  0  0  0  0  0
   45.0940   34.5170   45.0560 N   0  0  0  0  0  0  0  0  0  0  0  0
   48.3811   32.9225   43.0977 H   0  0  0  0  0  0  0  0  0  0  0  0
   44.5650   28.8140   44.6468 H   0  0  0  0  0  0  0  0  0  0  0  0
   43.6983   27.0599   46.2580 H   0  0  0  0  0  0  0  0  0  0  0  0
   46.0424   28.7426   49.3409 H   0  0  0  0  0  0  0  0  0  0  0  0
   43.8504   36.1482   45.5919 H   0  0  0  0  0  0  0  0  0  0  0  0
   44.5477   37.5362   43.6167 H   0  0  0  0  0  0  0  0  0  0  0  0
   46.2209   36.5918   41.9877 H   0  0  0  0  0  0  0  0  0  0  0  0
  1  5  1  0
  2  1  2  0
  2  3  1  0
  3  4  1  0
  4  6  1  0
  5  4  2  0
  6 12  1  0
  7  6  1  0
  7  8  2  0
  8  9  1  0
  9 11  1  0
  9 10  2  0
 12 13  2  0
 12 11  1  0
 14 19  2  0
 15 14  1  0
 16 17  1  0
 16 15  2  0
 17 18  2  0
 18  1  1  0
 18 19  1  0
  2 20  1  0
  7 21  1  0
  8 22  1  0
 11 23  1  0
 14 24  1  0
 15 25  1  0
 16 26  1  0
M  ISO  7  20  14  21  14  22  14  23   9  24  14  25  14  26  14
M  END
>  <minimizedAffinity>  (1) 
-4.77805758

>  <minimizedRMSD>  (1) 
3.79718065

$$$$
