
     RDKit          3D

 23 24  0  0  0  0  0  0  0  0999 V2000
   46.1610   33.4080   45.3340 C   0  0  0  0  0  0  0  0  0  0  0  0
   47.1940   33.3520   44.3780 C   0  0  0  0  0  0  0  0  0  0  0  0
   46.4000   34.3890   43.0030 S   0  0  0  0  0  0  0  0  0  0  0  0
   44.8480   34.6640   44.0380 C   0  0  0  0  0  0  0  0  0  0  0  0
   45.0880   34.1040   44.9730 N   0  0  0  0  0  0  0  0  0  0  0  0
   43.8390   35.4440   43.4320 N   0  0  0  0  0  0  0  0  0  0  0  0
   43.3830   35.3180   42.1110 C   0  0  0  0  0  0  0  0  0  0  0  0
   44.0100   34.5380   41.3160 N   0  0  0  0  0  0  0  0  0  0  0  0
   42.2330   36.0610   41.6800 N   0  0  0  0  0  0  0  0  0  0  0  0
   43.7730   34.3610   40.3260 H   0  0  0  0  0  0  0  0  0  0  0  0
   45.5490   32.2070   48.7310 C   0  0  0  0  0  0  0  0  0  0  0  0
   46.7040   31.4240   48.9820 C   0  0  0  0  0  0  0  0  0  0  0  0
   47.6850   31.3050   48.0030 C   0  0  0  0  0  0  0  0  0  0  0  0
   47.4570   31.9720   46.8360 N   0  0  0  0  0  0  0  0  0  0  0  0
   46.3570   32.7090   46.6140 C   0  0  0  0  0  0  0  0  0  0  0  0
   45.3920   32.8370   47.5550 N   0  0  0  0  0  0  0  0  0  0  0  0
   48.1736   32.8532   44.4174 H   0  0  0  0  0  0  0  0  0  0  0  0
   43.3976   36.1715   44.0123 H   0  0  0  0  0  0  0  0  0  0  0  0
   41.8953   35.9711   40.7111 H   0  0  0  0  0  0  0  0  0  0  0  0
   41.7455   36.6840   42.3396 H   0  0  0  0  0  0  0  0  0  0  0  0
   44.7743   32.2995   49.5064 H   0  0  0  0  0  0  0  0  0  0  0  0
   46.8240   30.9121   49.9482 H   0  0  0  0  0  0  0  0  0  0  0  0
   48.5940   30.7062   48.1615 H   0  0  0  0  0  0  0  0  0  0  0  0
  1 15  1  0
  2  1  2  0
  3  4  1  0
  3  2  1  0
  4  5  2  0
  5  1  1  0
  6  4  1  0
  7  6  1  0
  8  7  2  0
  9  7  1  0
 10  8  1  0
 11 12  2  0
 13 12  1  0
 14 13  2  0
 15 14  1  0
 15 16  2  0
 16 11  1  0
  2 17  1  0
  6 18  1  0
  9 19  1  0
  9 20  1  0
 11 21  1  0
 12 22  1  0
 13 23  1  0
M  ISO  4  17  14  21  14  22  14  23  14
M  END
>  <minimizedAffinity>  (1) 
-4.89311743

>  <minimizedRMSD>  (1) 
6.41160583

$$$$
