
     RDKit          3D

 23 25  0  0  0  0  0  0  0  0999 V2000
   47.2790   33.8980   41.9070 C   0  0  0  0  0  0  0  0  0  0  0  0
   47.2740   34.4630   43.1970 C   0  0  0  0  0  0  0  0  0  0  0  0
   45.5420   35.2140   43.2600 S   0  0  0  0  0  0  0  0  0  0  0  0
   45.1840   34.6000   41.5120 C   0  0  0  0  0  0  0  0  0  0  0  0
   46.1420   34.0940   41.2700 N   0  0  0  0  0  0  0  0  0  0  0  0
   49.5050   31.9640   39.7780 C   0  0  0  0  0  0  0  0  0  0  0  0
   50.6740   31.8820   40.5390 C   0  0  0  0  0  0  0  0  0  0  0  0
   50.7080   32.4890   41.7890 C   0  0  0  0  0  0  0  0  0  0  0  0
   49.5730   33.1400   42.2020 N   0  0  0  0  0  0  0  0  0  0  0  0
   48.4660   33.1990   41.4430 C   0  0  0  0  0  0  0  0  0  0  0  0
   48.4090   32.6150   40.2210 N   0  0  0  0  0  0  0  0  0  0  0  0
   43.8850   34.9010   40.9580 C   0  0  0  0  0  0  0  0  0  0  0  0
   42.7280   35.3170   41.5530 C   0  0  0  0  0  0  0  0  0  0  0  0
   41.7920   35.4530   40.5690 N   0  0  0  0  0  0  0  0  0  0  0  0
   42.4070   35.1160   39.4000 C   0  0  0  0  0  0  0  0  0  0  0  0
   43.6910   34.7780   39.6560 N   0  0  0  0  0  0  0  0  0  0  0  0
   48.0650   34.4661   43.9614 H   0  0  0  0  0  0  0  0  0  0  0  0
   49.4772   31.4838   38.7887 H   0  0  0  0  0  0  0  0  0  0  0  0
   51.5539   31.3453   40.1548 H   0  0  0  0  0  0  0  0  0  0  0  0
   51.6075   32.4491   42.4209 H   0  0  0  0  0  0  0  0  0  0  0  0
   42.5784   35.5071   42.6261 H   0  0  0  0  0  0  0  0  0  0  0  0
   41.9341   35.1186   38.4068 H   0  0  0  0  0  0  0  0  0  0  0  0
   44.3911   34.4789   38.9623 H   0  0  0  0  0  0  0  0  0  0  0  0
  1  2  2  0
  2  3  1  0
  4  3  1  0
  5  4  2  0
  5  1  1  0
  6 11  2  0
  6  7  1  0
  7  8  2  0
  8  9  1  0
 10  1  1  0
 10  9  2  0
 11 10  1  0
 12  4  1  0
 12 13  2  0
 14 13  1  0
 15 16  1  0
 15 14  2  0
 16 12  1  0
  2 17  1  0
  6 18  1  0
  7 19  1  0
  8 20  1  0
 13 21  1  0
 15 22  1  0
 16 23  1  0
M  ISO  7  17  14  18  14  19  14  20  14  21  14  22  14  23   9
M  END
>  <minimizedAffinity>  (1) 
-4.06855679

>  <minimizedRMSD>  (1) 
8.03342438

$$$$
