
     RDKit          3D

 24 26  0  0  0  0  0  0  0  0999 V2000
   46.3030   32.7510   45.3950 C   0  0  0  0  0  0  0  0  0  0  0  0
   46.0760   33.4170   46.6130 C   0  0  0  0  0  0  0  0  0  0  0  0
   45.5710   31.9950   47.7460 S   0  0  0  0  0  0  0  0  0  0  0  0
   45.7740   30.7770   46.3140 C   0  0  0  0  0  0  0  0  0  0  0  0
   46.0890   31.4570   45.4940 N   0  0  0  0  0  0  0  0  0  0  0  0
   46.2520   35.2250   42.7220 C   0  0  0  0  0  0  0  0  0  0  0  0
   47.4730   34.9760   42.0490 C   0  0  0  0  0  0  0  0  0  0  0  0
   48.3010   33.9620   42.5200 C   0  0  0  0  0  0  0  0  0  0  0  0
   47.8840   33.2550   43.6190 N   0  0  0  0  0  0  0  0  0  0  0  0
   46.7210   33.5160   44.2340 C   0  0  0  0  0  0  0  0  0  0  0  0
   45.8910   34.4940   43.8020 N   0  0  0  0  0  0  0  0  0  0  0  0
   45.4900   29.3810   46.6250 C   0  0  0  0  0  0  0  0  0  0  0  0
   46.2850   28.5710   47.3710 C   0  0  0  0  0  0  0  0  0  0  0  0
   45.8380   27.2600   47.5560 C   0  0  0  0  0  0  0  0  0  0  0  0
   44.6700   26.8500   47.0090 N   0  0  0  0  0  0  0  0  0  0  0  0
   43.9170   27.6810   46.2810 C   0  0  0  0  0  0  0  0  0  0  0  0
   44.3340   28.9650   46.0870 N   0  0  0  0  0  0  0  0  0  0  0  0
   46.1688   34.4883   46.8448 H   0  0  0  0  0  0  0  0  0  0  0  0
   45.5875   36.0241   42.3616 H   0  0  0  0  0  0  0  0  0  0  0  0
   47.7611   35.5727   41.1710 H   0  0  0  0  0  0  0  0  0  0  0  0
   49.2580   33.7349   42.0276 H   0  0  0  0  0  0  0  0  0  0  0  0
   47.2301   28.9278   47.8062 H   0  0  0  0  0  0  0  0  0  0  0  0
   46.4396   26.5565   48.1503 H   0  0  0  0  0  0  0  0  0  0  0  0
   42.9702   27.3325   45.8427 H   0  0  0  0  0  0  0  0  0  0  0  0
  1  5  1  0
  1  2  2  0
  2  3  1  0
  4 12  1  0
  4  3  1  0
  5  4  2  0
  6 11  2  0
  7  8  2  0
  7  6  1  0
  8  9  1  0
  9 10  2  0
 10  1  1  0
 11 10  1  0
 12 13  2  0
 13 14  1  0
 15 14  2  0
 16 15  1  0
 17 16  2  0
 17 12  1  0
  2 18  1  0
  6 19  1  0
  7 20  1  0
  8 21  1  0
 13 22  1  0
 14 23  1  0
 16 24  1  0
M  ISO  7  18  14  19  14  20  14  21  14  22  14  23  14  24  14
M  END
>  <minimizedAffinity>  (1) 
-3.92720222

>  <minimizedRMSD>  (1) 
3.70644426

$$$$
