
     RDKit          3D

 24 26  0  0  0  0  0  0  0  0999 V2000
   45.6590   34.2340   42.2020 C   0  0  0  0  0  0  0  0  0  0  0  0
   46.8680   34.7480   41.6900 C   0  0  0  0  0  0  0  0  0  0  0  0
   48.0600   34.0860   43.0050 S   0  0  0  0  0  0  0  0  0  0  0  0
   46.6480   33.2650   43.9470 C   0  0  0  0  0  0  0  0  0  0  0  0
   45.7620   33.5290   43.3240 N   0  0  0  0  0  0  0  0  0  0  0  0
   42.3210   35.5140   41.4060 C   0  0  0  0  0  0  0  0  0  0  0  0
   42.1010   35.0350   40.1150 C   0  0  0  0  0  0  0  0  0  0  0  0
   43.0930   34.2720   39.5100 C   0  0  0  0  0  0  0  0  0  0  0  0
   44.2340   34.0310   40.2170 N   0  0  0  0  0  0  0  0  0  0  0  0
   44.4130   34.5130   41.4680 C   0  0  0  0  0  0  0  0  0  0  0  0
   43.4590   35.2580   42.0720 N   0  0  0  0  0  0  0  0  0  0  0  0
   46.8860   32.5070   45.1860 C   0  0  0  0  0  0  0  0  0  0  0  0
   47.2720   31.2080   45.1700 C   0  0  0  0  0  0  0  0  0  0  0  0
   47.4790   30.5570   46.3680 C   0  0  0  0  0  0  0  0  0  0  0  0
   47.2960   31.2210   47.5270 N   0  0  0  0  0  0  0  0  0  0  0  0
   46.9180   32.4910   47.5320 C   0  0  0  0  0  0  0  0  0  0  0  0
   46.7170   33.1200   46.3640 N   0  0  0  0  0  0  0  0  0  0  0  0
   47.0617   35.3540   40.7926 H   0  0  0  0  0  0  0  0  0  0  0  0
   41.5410   36.1182   41.8924 H   0  0  0  0  0  0  0  0  0  0  0  0
   41.1621   35.2563   39.5864 H   0  0  0  0  0  0  0  0  0  0  0  0
   42.9618   33.8749   38.4926 H   0  0  0  0  0  0  0  0  0  0  0  0
   47.4180   30.6808   44.2157 H   0  0  0  0  0  0  0  0  0  0  0  0
   47.7915   29.5024   46.3779 H   0  0  0  0  0  0  0  0  0  0  0  0
   46.7706   33.0237   48.4831 H   0  0  0  0  0  0  0  0  0  0  0  0
  1  5  1  0
  2  1  2  0
  2  3  1  0
  3  4  1  0
  4 12  1  0
  5  4  2  0
  6 11  2  0
  7  6  1  0
  8  7  2  0
  8  9  1  0
  9 10  2  0
 10 11  1  0
 10  1  1  0
 12 17  1  0
 13 12  2  0
 13 14  1  0
 14 15  2  0
 15 16  1  0
 17 16  2  0
  2 18  1  0
  6 19  1  0
  7 20  1  0
  8 21  1  0
 13 22  1  0
 14 23  1  0
 16 24  1  0
M  ISO  7  18  14  19  14  20  14  21  14  22  14  23  14  24  14
M  END
>  <minimizedAffinity>  (1) 
-4.12767935

>  <minimizedRMSD>  (1) 
5.02346897

$$$$
