
     RDKit          3D

 30 32  0  0  0  0  0  0  0  0999 V2000
   46.3160   32.4730   44.4920 C   0  0  0  0  0  0  0  0  0  0  0  0
   47.6520   32.1700   44.0700 C   0  0  0  0  0  0  0  0  0  0  0  0
   47.7540   30.3720   44.6940 S   0  0  0  0  0  0  0  0  0  0  0  0
   45.9810   30.4550   45.3700 C   0  0  0  0  0  0  0  0  0  0  0  0
   45.6670   31.5010   45.1070 N   0  0  0  0  0  0  0  0  0  0  0  0
   45.8170   29.1650   45.9230 N   0  0  0  0  0  0  0  0  0  0  0  0
   46.6760   28.0130   45.7620 C   0  0  0  0  0  0  0  0  0  0  0  0
   46.1600   26.7670   46.3590 C   0  0  0  0  0  0  0  0  0  0  0  0
   45.2440   26.8600   47.4350 N   0  0  0  0  0  0  0  0  0  0  0  0
   45.1060   28.2020   47.9540 C   0  0  0  0  0  0  0  0  0  0  0  0
   44.6340   29.0280   46.7460 C   0  0  0  0  0  0  0  0  0  0  0  0
   44.6260   35.6860   44.9260 C   0  0  0  0  0  0  0  0  0  0  0  0
   44.9120   36.3640   43.7380 C   0  0  0  0  0  0  0  0  0  0  0  0
   45.6830   35.7240   42.7800 C   0  0  0  0  0  0  0  0  0  0  0  0
   46.1050   34.4630   43.0850 N   0  0  0  0  0  0  0  0  0  0  0  0
   45.8260   33.8240   44.2220 C   0  0  0  0  0  0  0  0  0  0  0  0
   45.0840   34.4380   45.1460 N   0  0  0  0  0  0  0  0  0  0  0  0
   48.3944   32.7886   43.5445 H   0  0  0  0  0  0  0  0  0  0  0  0
   46.8204   27.8420   44.6850 H   0  0  0  0  0  0  0  0  0  0  0  0
   47.6099   28.2470   46.2940 H   0  0  0  0  0  0  0  0  0  0  0  0
   45.6609   26.2050   45.5559 H   0  0  0  0  0  0  0  0  0  0  0  0
   47.0484   26.2941   46.8030 H   0  0  0  0  0  0  0  0  0  0  0  0
   44.3215   26.5396   47.1076 H   0  0  0  0  0  0  0  0  0  0  0  0
   44.3608   28.2327   48.7625 H   0  0  0  0  0  0  0  0  0  0  0  0
   46.0426   28.5848   48.3856 H   0  0  0  0  0  0  0  0  0  0  0  0
   44.2665   30.0137   47.0674 H   0  0  0  0  0  0  0  0  0  0  0  0
   43.8013   28.5500   46.2092 H   0  0  0  0  0  0  0  0  0  0  0  0
   44.0155   36.1804   45.6960 H   0  0  0  0  0  0  0  0  0  0  0  0
   44.5338   37.3827   43.5669 H   0  0  0  0  0  0  0  0  0  0  0  0
   45.9405   36.2067   41.8257 H   0  0  0  0  0  0  0  0  0  0  0  0
  1  5  1  0
  2  1  2  0
  2  3  1  0
  3  4  1  0
  4  6  1  0
  5  4  2  0
  6 11  1  0
  7  6  1  0
  7  8  1  0
  8  9  1  0
  9 10  1  0
 11 10  1  0
 12 17  2  0
 13 12  1  0
 14 15  1  0
 14 13  2  0
 15 16  2  0
 16  1  1  0
 16 17  1  0
  2 18  1  0
  7 19  1  0
  7 20  1  0
  8 21  1  0
  8 22  1  0
  9 23  1  0
 10 24  1  0
 10 25  1  0
 11 26  1  0
 11 27  1  0
 12 28  1  0
 13 29  1  0
 14 30  1  0
M  ISO  8  18  14  19  13  20  13  21  13  22  13  23   5  24  13  25  13
M  ISO  5  26  13  27  13  28  14  29  14  30  14
M  END
>  <minimizedAffinity>  (1) 
-3.89151406

>  <minimizedRMSD>  (1) 
3.73636317

$$$$
