
     RDKit          3D

 38 40  0  0  0  0  0  0  0  0999 V2000
   47.4760   33.7290   42.5960 C   0  0  0  0  0  0  0  0  0  0  0  0
   45.9890   33.3440   45.9480 C   0  0  0  0  0  0  0  0  0  0  0  0
   45.0200   34.3620   45.8870 C   0  0  0  0  0  0  0  0  0  0  0  0
   45.3200   35.0360   44.1550 S   0  0  0  0  0  0  0  0  0  0  0  0
   46.7160   33.7810   43.8710 C   0  0  0  0  0  0  0  0  0  0  0  0
   46.7100   33.2370   44.8450 N   0  0  0  0  0  0  0  0  0  0  0  0
   47.4290   31.4900   48.7390 C   0  0  0  0  0  0  0  0  0  0  0  0
   46.2920   31.0740   49.4570 C   0  0  0  0  0  0  0  0  0  0  0  0
   45.0450   31.4300   48.9820 C   0  0  0  0  0  0  0  0  0  0  0  0
   45.0050   32.1680   47.8410 N   0  0  0  0  0  0  0  0  0  0  0  0
   46.0830   32.5580   47.1660 C   0  0  0  0  0  0  0  0  0  0  0  0
   47.3120   32.2250   47.6050 N   0  0  0  0  0  0  0  0  0  0  0  0
   47.4720   32.3460   42.0840 C   0  0  0  0  0  0  0  0  0  0  0  0
   48.9120   34.2160   42.8740 C   0  0  0  0  0  0  0  0  0  0  0  0
   46.9130   34.6870   41.5820 C   0  0  0  0  0  0  0  0  0  0  0  0
   47.3580   34.3970   40.2630 N   0  0  0  0  0  0  0  0  0  0  0  0
   46.7470   33.4480   39.4960 C   0  0  0  0  0  0  0  0  0  0  0  0
   47.1180   33.1170   38.2110 C   0  0  0  0  0  0  0  0  0  0  0  0
   48.1820   33.7800   37.6390 C   0  0  0  0  0  0  0  0  0  0  0  0
   48.5910   33.5470   36.4740 O   0  0  0  0  0  0  0  0  0  0  0  0
   48.8000   34.7190   38.3740 N   0  0  0  0  0  0  0  0  0  0  0  0
   48.3820   34.9890   39.6230 C   0  0  0  0  0  0  0  0  0  0  0  0
   49.0310   35.8790   40.2160 O   0  0  0  0  0  0  0  0  0  0  0  0
   44.2873   34.6778   46.6443 H   0  0  0  0  0  0  0  0  0  0  0  0
   48.4295   31.2143   49.1038 H   0  0  0  0  0  0  0  0  0  0  0  0
   46.3944   30.4785   50.3762 H   0  0  0  0  0  0  0  0  0  0  0  0
   44.1245   31.1296   49.5040 H   0  0  0  0  0  0  0  0  0  0  0  0
   47.4700   31.6421   42.9293 H   0  0  0  0  0  0  0  0  0  0  0  0
   46.5734   32.1848   41.4704 H   0  0  0  0  0  0  0  0  0  0  0  0
   48.3697   32.1796   41.4704 H   0  0  0  0  0  0  0  0  0  0  0  0
   49.0764   34.2718   43.9602 H   0  0  0  0  0  0  0  0  0  0  0  0
   49.6306   33.5113   42.4301 H   0  0  0  0  0  0  0  0  0  0  0  0
   49.0536   35.2124   42.4301 H   0  0  0  0  0  0  0  0  0  0  0  0
   45.8151   34.6243   41.6071 H   0  0  0  0  0  0  0  0  0  0  0  0
   47.2628   35.6971   41.8416 H   0  0  0  0  0  0  0  0  0  0  0  0
   45.8958   32.9076   39.9359 H   0  0  0  0  0  0  0  0  0  0  0  0
   46.5759   32.3393   37.6531 H   0  0  0  0  0  0  0  0  0  0  0  0
   49.5988   35.2352   37.9785 H   0  0  0  0  0  0  0  0  0  0  0  0
  1 14  1  0
  1  5  1  0
  2 11  1  0
  3  2  2  0
  4  3  1  0
  5  4  1  0
  5  6  2  0
  6  2  1  0
  7  8  2  0
  9  8  1  0
 10  9  2  0
 11 12  2  0
 11 10  1  0
 12  7  1  0
 13  1  1  0
 15  1  1  0
 16 15  1  0
 17 16  1  0
 18 17  2  0
 19 18  1  0
 19 21  1  0
 20 19  2  0
 21 22  1  0
 22 23  2  0
 22 16  1  0
  3 24  1  0
  7 25  1  0
  8 26  1  0
  9 27  1  0
 13 28  1  0
 13 29  1  0
 13 30  1  0
 14 31  1  0
 14 32  1  0
 14 33  1  0
 15 34  1  0
 15 35  1  0
 17 36  1  0
 18 37  1  0
 21 38  1  0
M  ISO  8  24  14  25  14  26  14  27  14  28   8  29   8  30   8  31   8
M  ISO  7  32   8  33   8  34   8  35   8  36  14  37  14  38   9
M  END
>  <minimizedAffinity>  (1) 
-5.82501698

>  <minimizedRMSD>  (1) 
2.06926131

$$$$
