
     RDKit          3D

 39 41  0  0  0  0  0  0  0  0999 V2000
   47.9180   33.9950   42.3760 C   0  0  0  0  0  0  0  0  0  0  0  0
   46.2640   33.3500   45.5990 C   0  0  0  0  0  0  0  0  0  0  0  0
   45.1730   34.2530   45.4770 C   0  0  0  0  0  0  0  0  0  0  0  0
   45.5210   34.9900   43.7830 S   0  0  0  0  0  0  0  0  0  0  0  0
   47.0690   33.9260   43.5890 C   0  0  0  0  0  0  0  0  0  0  0  0
   47.0680   33.3570   44.5530 N   0  0  0  0  0  0  0  0  0  0  0  0
   47.4960   30.9220   48.0200 C   0  0  0  0  0  0  0  0  0  0  0  0
   46.5830   31.0590   49.0840 C   0  0  0  0  0  0  0  0  0  0  0  0
   45.5400   31.9880   48.9730 C   0  0  0  0  0  0  0  0  0  0  0  0
   45.4950   32.6970   47.8160 N   0  0  0  0  0  0  0  0  0  0  0  0
   46.3680   32.5550   46.8130 C   0  0  0  0  0  0  0  0  0  0  0  0
   47.3580   31.6790   46.9100 N   0  0  0  0  0  0  0  0  0  0  0  0
   48.0940   32.6070   41.8400 C   0  0  0  0  0  0  0  0  0  0  0  0
   49.2580   34.6190   42.7270 C   0  0  0  0  0  0  0  0  0  0  0  0
   47.2730   34.8360   41.3030 C   0  0  0  0  0  0  0  0  0  0  0  0
   47.1430   34.1860   40.0430 N   0  0  0  0  0  0  0  0  0  0  0  0
   48.1960   34.3250   39.1820 C   0  0  0  0  0  0  0  0  0  0  0  0
   48.2580   33.7820   37.9200 C   0  0  0  0  0  0  0  0  0  0  0  0
   47.1730   33.0490   37.5120 C   0  0  0  0  0  0  0  0  0  0  0  0
   47.1910   32.4690   36.2190 N   0  0  0  0  0  0  0  0  0  0  0  0
   46.1330   32.8970   38.3350 N   0  0  0  0  0  0  0  0  0  0  0  0
   46.1310   33.4510   39.5520 C   0  0  0  0  0  0  0  0  0  0  0  0
   45.1510   33.3090   40.3270 O   0  0  0  0  0  0  0  0  0  0  0  0
   44.3526   34.4625   46.1792 H   0  0  0  0  0  0  0  0  0  0  0  0
   48.3213   30.1985   48.0932 H   0  0  0  0  0  0  0  0  0  0  0  0
   46.6876   30.4445   49.9904 H   0  0  0  0  0  0  0  0  0  0  0  0
   44.8018   32.1342   49.7753 H   0  0  0  0  0  0  0  0  0  0  0  0
   48.1837   31.8993   42.6773 H   0  0  0  0  0  0  0  0  0  0  0  0
   47.2227   32.3384   41.2246 H   0  0  0  0  0  0  0  0  0  0  0  0
   49.0047   32.5643   41.2246 H   0  0  0  0  0  0  0  0  0  0  0  0
   49.3642   34.6685   43.8207 H   0  0  0  0  0  0  0  0  0  0  0  0
   50.0692   34.0060   42.3072 H   0  0  0  0  0  0  0  0  0  0  0  0
   49.3109   35.6344   42.3072 H   0  0  0  0  0  0  0  0  0  0  0  0
   46.2682   35.1216   41.6477 H   0  0  0  0  0  0  0  0  0  0  0  0
   47.9342   35.7004   41.1428 H   0  0  0  0  0  0  0  0  0  0  0  0
   49.0585   34.9156   39.5245 H   0  0  0  0  0  0  0  0  0  0  0  0
   49.1337   33.9282   37.2705 H   0  0  0  0  0  0  0  0  0  0  0  0
   46.3869   31.9146   35.8920 H   0  0  0  0  0  0  0  0  0  0  0  0
   48.0082   32.6019   35.6063 H   0  0  0  0  0  0  0  0  0  0  0  0
  1 14  1  0
  1  5  1  0
  2 11  1  0
  3  2  2  0
  4  3  1  0
  5  4  1  0
  5  6  2  0
  6  2  1  0
  7  8  2  0
  9  8  1  0
 10  9  2  0
 11 12  2  0
 11 10  1  0
 12  7  1  0
 13  1  1  0
 15  1  1  0
 16 15  1  0
 17 16  1  0
 18 17  2  0
 19 18  1  0
 19 21  2  0
 20 19  1  0
 21 22  1  0
 22 16  1  0
 22 23  2  0
  3 24  1  0
  7 25  1  0
  8 26  1  0
  9 27  1  0
 13 28  1  0
 13 29  1  0
 13 30  1  0
 14 31  1  0
 14 32  1  0
 14 33  1  0
 15 34  1  0
 15 35  1  0
 17 36  1  0
 18 37  1  0
 20 38  1  0
 20 39  1  0
M  ISO  8  24  14  25  14  26  14  27  14  28   8  29   8  30   8  31   8
M  ISO  6  32   8  33   8  34   8  35   8  36  14  37  14
M  END
>  <minimizedAffinity>  (1) 
-5.50916004

>  <minimizedRMSD>  (1) 
2.57521963

$$$$
