
     RDKit          3D

 41 43  0  0  0  0  0  0  0  0999 V2000
   47.5930   33.8190   42.5620 C   0  0  0  0  0  0  0  0  0  0  0  0
   46.0290   33.4150   45.8710 C   0  0  0  0  0  0  0  0  0  0  0  0
   45.0360   34.4040   45.7870 C   0  0  0  0  0  0  0  0  0  0  0  0
   45.3760   35.0690   44.0530 S   0  0  0  0  0  0  0  0  0  0  0  0
   46.8050   33.8520   43.8110 C   0  0  0  0  0  0  0  0  0  0  0  0
   46.7980   33.3020   44.7900 N   0  0  0  0  0  0  0  0  0  0  0  0
   47.4710   31.6050   48.7020 C   0  0  0  0  0  0  0  0  0  0  0  0
   46.3280   31.1560   49.3940 C   0  0  0  0  0  0  0  0  0  0  0  0
   45.0830   31.4750   48.8850 C   0  0  0  0  0  0  0  0  0  0  0  0
   45.0230   32.2050   47.7450 N   0  0  0  0  0  0  0  0  0  0  0  0
   46.1310   32.6240   47.0990 C   0  0  0  0  0  0  0  0  0  0  0  0
   47.3460   32.3270   47.5730 N   0  0  0  0  0  0  0  0  0  0  0  0
   47.4930   32.4460   41.9690 C   0  0  0  0  0  0  0  0  0  0  0  0
   49.0420   34.1680   42.8650 C   0  0  0  0  0  0  0  0  0  0  0  0
   47.0750   34.8090   41.5500 C   0  0  0  0  0  0  0  0  0  0  0  0
   46.5340   34.1900   40.3830 N   0  0  0  0  0  0  0  0  0  0  0  0
   45.2160   33.8500   40.4900 C   0  0  0  0  0  0  0  0  0  0  0  0
   44.5300   33.2390   39.4620 C   0  0  0  0  0  0  0  0  0  0  0  0
   43.0910   32.8830   39.6150 C   0  0  0  0  0  0  0  0  0  0  0  0
   45.1790   32.9550   38.2790 C   0  0  0  0  0  0  0  0  0  0  0  0
   44.6240   32.4020   37.2990 O   0  0  0  0  0  0  0  0  0  0  0  0
   46.4680   33.2990   38.2040 N   0  0  0  0  0  0  0  0  0  0  0  0
   47.1230   33.8940   39.2130 C   0  0  0  0  0  0  0  0  0  0  0  0
   48.3340   34.2200   39.1450 O   0  0  0  0  0  0  0  0  0  0  0  0
   44.2758   34.7057   46.5226 H   0  0  0  0  0  0  0  0  0  0  0  0
   48.4725   31.3635   49.0875 H   0  0  0  0  0  0  0  0  0  0  0  0
   46.4245   30.5657   50.3172 H   0  0  0  0  0  0  0  0  0  0  0  0
   44.1646   31.1447   49.3924 H   0  0  0  0  0  0  0  0  0  0  0  0
   47.4387   31.7009   42.7764 H   0  0  0  0  0  0  0  0  0  0  0  0
   46.5877   32.3800   41.3477 H   0  0  0  0  0  0  0  0  0  0  0  0
   48.3792   32.2495   41.3477 H   0  0  0  0  0  0  0  0  0  0  0  0
   49.1905   34.2038   43.9543 H   0  0  0  0  0  0  0  0  0  0  0  0
   49.7021   33.4032   42.4299 H   0  0  0  0  0  0  0  0  0  0  0  0
   49.2815   35.1495   42.4299 H   0  0  0  0  0  0  0  0  0  0  0  0
   46.2862   35.4122   42.0232 H   0  0  0  0  0  0  0  0  0  0  0  0
   47.9285   35.4237   41.2279 H   0  0  0  0  0  0  0  0  0  0  0  0
   44.6840   34.0708   41.4272 H   0  0  0  0  0  0  0  0  0  0  0  0
   42.8403   32.8210   40.6843 H   0  0  0  0  0  0  0  0  0  0  0  0
   42.4696   33.6545   39.1368 H   0  0  0  0  0  0  0  0  0  0  0  0
   42.9010   31.9108   39.1368 H   0  0  0  0  0  0  0  0  0  0  0  0
   46.9813   33.0988   37.3338 H   0  0  0  0  0  0  0  0  0  0  0  0
  1 14  1  0
  1  5  1  0
  2 11  1  0
  3  2  2  0
  4  3  1  0
  5  4  1  0
  5  6  2  0
  6  2  1  0
  7  8  2  0
  9  8  1  0
 10  9  2  0
 11 12  2  0
 11 10  1  0
 12  7  1  0
 13  1  1  0
 15  1  1  0
 16 17  1  0
 16 15  1  0
 18 19  1  0
 18 17  2  0
 20 18  1  0
 21 20  2  0
 22 20  1  0
 22 23  1  0
 23 16  1  0
 24 23  2  0
  3 25  1  0
  7 26  1  0
  8 27  1  0
  9 28  1  0
 13 29  1  0
 13 30  1  0
 13 31  1  0
 14 32  1  0
 14 33  1  0
 14 34  1  0
 15 35  1  0
 15 36  1  0
 17 37  1  0
 19 38  1  0
 19 39  1  0
 19 40  1  0
 22 41  1  0
M  ISO  8  25  14  26  14  27  14  28  14  29   8  30   8  31   8  32   8
M  ISO  8  33   8  34   8  35   8  36   8  37  14  38   8  39   8  40   8
M  ISO  1  41   9
M  END
>  <minimizedAffinity>  (1) 
-5.51343346

>  <minimizedRMSD>  (1) 
3.63328767

$$$$
