
     RDKit          3D

 38 40  0  0  0  0  0  0  0  0999 V2000
   48.3670   34.0000   42.2630 C   0  0  0  0  0  0  0  0  0  0  0  0
   46.3960   33.3630   45.2960 C   0  0  0  0  0  0  0  0  0  0  0  0
   45.3060   34.2210   45.0520 C   0  0  0  0  0  0  0  0  0  0  0  0
   45.8020   34.9530   43.3830 S   0  0  0  0  0  0  0  0  0  0  0  0
   47.4020   33.9240   43.3740 C   0  0  0  0  0  0  0  0  0  0  0  0
   47.3120   33.3760   44.3350 N   0  0  0  0  0  0  0  0  0  0  0  0
   47.3750   30.9240   47.8200 C   0  0  0  0  0  0  0  0  0  0  0  0
   46.4200   31.1130   48.8350 C   0  0  0  0  0  0  0  0  0  0  0  0
   45.4480   32.0750   48.6460 C   0  0  0  0  0  0  0  0  0  0  0  0
   45.4760   32.7880   47.4790 N   0  0  0  0  0  0  0  0  0  0  0  0
   46.4080   32.5790   46.5260 C   0  0  0  0  0  0  0  0  0  0  0  0
   47.3550   31.6620   46.6780 N   0  0  0  0  0  0  0  0  0  0  0  0
   48.4680   32.6570   41.6210 C   0  0  0  0  0  0  0  0  0  0  0  0
   49.7100   34.4860   42.7830 C   0  0  0  0  0  0  0  0  0  0  0  0
   47.9250   35.0090   41.2090 C   0  0  0  0  0  0  0  0  0  0  0  0
   47.4550   34.2970   39.9930 C   0  0  0  0  0  0  0  0  0  0  0  0
   48.2720   34.4180   38.8640 C   0  0  0  0  0  0  0  0  0  0  0  0
   47.9720   33.8140   37.6560 C   0  0  0  0  0  0  0  0  0  0  0  0
   46.8240   33.0590   37.5460 C   0  0  0  0  0  0  0  0  0  0  0  0
   46.0100   32.9330   38.6540 C   0  0  0  0  0  0  0  0  0  0  0  0
   46.3100   33.5390   39.8670 C   0  0  0  0  0  0  0  0  0  0  0  0
   44.4125   34.4120   45.6644 H   0  0  0  0  0  0  0  0  0  0  0  0
   48.1564   30.1613   47.9530 H   0  0  0  0  0  0  0  0  0  0  0  0
   46.4468   30.5104   49.7549 H   0  0  0  0  0  0  0  0  0  0  0  0
   44.6771   32.2618   49.4081 H   0  0  0  0  0  0  0  0  0  0  0  0
   48.5263   31.8819   42.3994 H   0  0  0  0  0  0  0  0  0  0  0  0
   47.5805   32.4821   40.9951 H   0  0  0  0  0  0  0  0  0  0  0  0
   49.3717   32.6168   40.9951 H   0  0  0  0  0  0  0  0  0  0  0  0
   49.7003   34.4825   43.8830 H   0  0  0  0  0  0  0  0  0  0  0  0
   50.5064   33.8191   42.4212 H   0  0  0  0  0  0  0  0  0  0  0  0
   49.8952   35.5082   42.4212 H   0  0  0  0  0  0  0  0  0  0  0  0
   47.1056   35.6223   41.6121 H   0  0  0  0  0  0  0  0  0  0  0  0
   48.7766   35.6533   40.9449 H   0  0  0  0  0  0  0  0  0  0  0  0
   49.1908   35.0181   38.9398 H   0  0  0  0  0  0  0  0  0  0  0  0
   48.6425   33.9350   36.7924 H   0  0  0  0  0  0  0  0  0  0  0  0
   46.5624   32.5681   36.5970 H   0  0  0  0  0  0  0  0  0  0  0  0
   45.0923   32.3319   38.5732 H   0  0  0  0  0  0  0  0  0  0  0  0
   45.6349   33.4145   40.7265 H   0  0  0  0  0  0  0  0  0  0  0  0
  1 14  1  0
  1  5  1  0
  2 11  1  0
  3  2  2  0
  4  3  1  0
  5  4  1  0
  5  6  2  0
  6  2  1  0
  7  8  2  0
  9  8  1  0
 10  9  2  0
 11 12  2  0
 11 10  1  0
 12  7  1  0
 13  1  1  0
 15  1  1  0
 16 15  1  0
 17 16  2  0
 18 17  1  0
 19 18  2  0
 19 20  1  0
 20 21  2  0
 21 16  1  0
  3 22  1  0
  7 23  1  0
  8 24  1  0
  9 25  1  0
 13 26  1  0
 13 27  1  0
 13 28  1  0
 14 29  1  0
 14 30  1  0
 14 31  1  0
 15 32  1  0
 15 33  1  0
 17 34  1  0
 18 35  1  0
 19 36  1  0
 20 37  1  0
 21 38  1  0
M  ISO  8  22  14  23  14  24  14  25  14  26   8  27   8  28   8  29   8
M  ISO  8  30   8  31   8  32   8  33   8  34  14  35  14  36  14  37  14
M  ISO  1  38  14
M  END
>  <minimizedAffinity>  (1) 
-5.63835859

>  <minimizedRMSD>  (1) 
2.1949904

$$$$
