
     RDKit          3D

 34 36  0  0  0  0  0  0  0  0999 V2000
   48.1960   33.9510   42.3460 C   0  0  0  0  0  0  0  0  0  0  0  0
   46.3690   33.3200   45.4820 C   0  0  0  0  0  0  0  0  0  0  0  0
   45.2750   34.1970   45.2890 C   0  0  0  0  0  0  0  0  0  0  0  0
   45.7000   34.9300   43.5980 S   0  0  0  0  0  0  0  0  0  0  0  0
   47.2710   33.8910   43.5100 C   0  0  0  0  0  0  0  0  0  0  0  0
   47.2320   33.3310   44.4760 N   0  0  0  0  0  0  0  0  0  0  0  0
   47.4840   30.9070   47.9630 C   0  0  0  0  0  0  0  0  0  0  0  0
   46.5270   31.0740   49.0030 C   0  0  0  0  0  0  0  0  0  0  0  0
   45.5030   32.0150   48.8470 C   0  0  0  0  0  0  0  0  0  0  0  0
   45.5210   32.7030   47.6780 N   0  0  0  0  0  0  0  0  0  0  0  0
   46.4230   32.5400   46.7060 C   0  0  0  0  0  0  0  0  0  0  0  0
   47.3970   31.6500   46.8480 N   0  0  0  0  0  0  0  0  0  0  0  0
   48.3360   32.6030   41.7600 C   0  0  0  0  0  0  0  0  0  0  0  0
   49.5490   34.5020   42.8040 C   0  0  0  0  0  0  0  0  0  0  0  0
   47.6870   34.9020   41.2960 C   0  0  0  0  0  0  0  0  0  0  0  0
   47.2650   34.1500   40.0590 C   0  0  0  0  0  0  0  0  0  0  0  0
   45.9030   33.5310   40.0720 C   0  0  0  0  0  0  0  0  0  0  0  0
   45.8890   32.7930   38.4500 S   0  0  0  0  0  0  0  0  0  0  0  0
   47.6350   33.3880   37.9870 C   0  0  0  0  0  0  0  0  0  0  0  0
   48.1430   34.1030   39.0570 N   0  0  0  0  0  0  0  0  0  0  0  0
   44.4137   34.3974   45.9432 H   0  0  0  0  0  0  0  0  0  0  0  0
   48.2936   30.1704   48.0724 H   0  0  0  0  0  0  0  0  0  0  0  0
   46.5915   30.4697   49.9199 H   0  0  0  0  0  0  0  0  0  0  0  0
   44.7372   32.1849   49.6182 H   0  0  0  0  0  0  0  0  0  0  0  0
   48.4133   31.8589   42.5664 H   0  0  0  0  0  0  0  0  0  0  0  0
   47.4562   32.3802   41.1385 H   0  0  0  0  0  0  0  0  0  0  0  0
   49.2428   32.5657   41.1385 H   0  0  0  0  0  0  0  0  0  0  0  0
   49.5857   34.5169   43.9033 H   0  0  0  0  0  0  0  0  0  0  0  0
   50.3555   33.8607   42.4189 H   0  0  0  0  0  0  0  0  0  0  0  0
   49.6780   35.5243   42.4189 H   0  0  0  0  0  0  0  0  0  0  0  0
   46.8235   35.4537   41.6959 H   0  0  0  0  0  0  0  0  0  0  0  0
   48.4939   35.6002   41.0287 H   0  0  0  0  0  0  0  0  0  0  0  0
   45.1322   33.5313   40.8568 H   0  0  0  0  0  0  0  0  0  0  0  0
   48.1510   33.1970   37.0345 H   0  0  0  0  0  0  0  0  0  0  0  0
  1 14  1  0
  1  5  1  0
  2 11  1  0
  3  2  2  0
  4  3  1  0
  5  4  1  0
  5  6  2  0
  6  2  1  0
  7  8  2  0
  9  8  1  0
 10  9  2  0
 11 12  2  0
 11 10  1  0
 12  7  1  0
 13  1  1  0
 15  1  1  0
 16 17  2  0
 16 15  1  0
 18 17  1  0
 19 18  1  0
 19 20  2  0
 20 16  1  0
  3 21  1  0
  7 22  1  0
  8 23  1  0
  9 24  1  0
 13 25  1  0
 13 26  1  0
 13 27  1  0
 14 28  1  0
 14 29  1  0
 14 30  1  0
 15 31  1  0
 15 32  1  0
 17 33  1  0
 19 34  1  0
M  ISO  8  21  14  22  14  23  14  24  14  25   8  26   8  27   8  28   8
M  ISO  6  29   8  30   8  31   8  32   8  33  14  34  14
M  END
>  <minimizedAffinity>  (1) 
-5.13891029

>  <minimizedRMSD>  (1) 
0.981596112

$$$$
