
     RDKit          3D

 40 42  0  0  0  0  0  0  0  0999 V2000
   48.7940   34.4320   41.8350 C   0  0  0  0  0  0  0  0  0  0  0  0
   46.5040   33.6520   44.6110 C   0  0  0  0  0  0  0  0  0  0  0  0
   45.4220   34.4690   44.2390 C   0  0  0  0  0  0  0  0  0  0  0  0
   46.0940   35.2370   42.6500 S   0  0  0  0  0  0  0  0  0  0  0  0
   47.7260   34.2690   42.8350 C   0  0  0  0  0  0  0  0  0  0  0  0
   47.5410   33.7040   43.7760 N   0  0  0  0  0  0  0  0  0  0  0  0
   47.1250   31.0260   47.0690 C   0  0  0  0  0  0  0  0  0  0  0  0
   46.2180   31.3730   48.1070 C   0  0  0  0  0  0  0  0  0  0  0  0
   45.4060   32.4910   47.9610 C   0  0  0  0  0  0  0  0  0  0  0  0
   45.5380   33.1990   46.7990 N   0  0  0  0  0  0  0  0  0  0  0  0
   46.3990   32.8520   45.8360 C   0  0  0  0  0  0  0  0  0  0  0  0
   47.1810   31.7860   45.9610 N   0  0  0  0  0  0  0  0  0  0  0  0
   50.0660   33.8810   42.4430 C   0  0  0  0  0  0  0  0  0  0  0  0
   48.9740   35.9040   41.5180 C   0  0  0  0  0  0  0  0  0  0  0  0
   48.5480   33.6760   40.5710 C   0  0  0  0  0  0  0  0  0  0  0  0
   47.7940   34.2780   39.5470 N   0  0  0  0  0  0  0  0  0  0  0  0
   46.6630   33.3440   39.3070 C   0  0  0  0  0  0  0  0  0  0  0  0
   47.2600   32.2590   38.4410 C   0  0  0  0  0  0  0  0  0  0  0  0
   48.4090   32.9070   37.6960 C   0  0  0  0  0  0  0  0  0  0  0  0
   48.3260   34.3240   38.2290 C   0  0  0  0  0  0  0  0  0  0  0  0
   44.4523   34.6193   44.7360 H   0  0  0  0  0  0  0  0  0  0  0  0
   47.7748   30.1443   47.1711 H   0  0  0  0  0  0  0  0  0  0  0  0
   46.1594   30.7610   49.0191 H   0  0  0  0  0  0  0  0  0  0  0  0
   44.6921   32.7916   48.7420 H   0  0  0  0  0  0  0  0  0  0  0  0
   49.9919   33.9131   43.5400 H   0  0  0  0  0  0  0  0  0  0  0  0
   50.2082   32.8406   42.1154 H   0  0  0  0  0  0  0  0  0  0  0  0
   50.9222   34.4889   42.1154 H   0  0  0  0  0  0  0  0  0  0  0  0
   49.0438   36.4751   42.4555 H   0  0  0  0  0  0  0  0  0  0  0  0
   49.8959   36.0433   40.9343 H   0  0  0  0  0  0  0  0  0  0  0  0
   48.1129   36.2613   40.9343 H   0  0  0  0  0  0  0  0  0  0  0  0
   49.5326   33.4332   40.1449 H   0  0  0  0  0  0  0  0  0  0  0  0
   47.9250   32.8276   40.8905 H   0  0  0  0  0  0  0  0  0  0  0  0
   46.2924   32.9274   40.2552 H   0  0  0  0  0  0  0  0  0  0  0  0
   45.8012   33.8367   38.8331 H   0  0  0  0  0  0  0  0  0  0  0  0
   47.6271   31.4305   39.0646 H   0  0  0  0  0  0  0  0  0  0  0  0
   46.5153   31.8396   37.7486 H   0  0  0  0  0  0  0  0  0  0  0  0
   48.2561   32.8739   36.6072 H   0  0  0  0  0  0  0  0  0  0  0  0
   49.3834   32.4191   37.8460 H   0  0  0  0  0  0  0  0  0  0  0  0
   49.3302   34.7726   38.2493 H   0  0  0  0  0  0  0  0  0  0  0  0
   47.6787   34.9338   37.5815 H   0  0  0  0  0  0  0  0  0  0  0  0
  1 13  1  0
  1  5  1  0
  2 11  1  0
  3  2  2  0
  4  5  1  0
  4  3  1  0
  5  6  2  0
  6  2  1  0
  7  8  2  0
  9  8  1  0
 10  9  2  0
 11 12  2  0
 11 10  1  0
 12  7  1  0
 14  1  1  0
 15  1  1  0
 16 15  1  0
 17 16  1  0
 18 17  1  0
 19 20  1  0
 19 18  1  0
 20 16  1  0
  3 21  1  0
  7 22  1  0
  8 23  1  0
  9 24  1  0
 13 25  1  0
 13 26  1  0
 13 27  1  0
 14 28  1  0
 14 29  1  0
 14 30  1  0
 15 31  1  0
 15 32  1  0
 17 33  1  0
 17 34  1  0
 18 35  1  0
 18 36  1  0
 19 37  1  0
 19 38  1  0
 20 39  1  0
 20 40  1  0
M  ISO  8  21  14  22  14  23  14  24  14  25   8  26   8  27   8  28   8
M  ISO  8  29   8  30   8  31   8  32   8  33  13  34  13  35  13  36  13
M  ISO  4  37  13  38  13  39  13  40  13
M  END
>  <minimizedAffinity>  (1) 
-5.29131556

>  <minimizedRMSD>  (1) 
2.55815411

$$$$
