
     RDKit          3D

 29 30  0  0  0  0  0  0  0  0999 V2000
   46.4600   33.5270   44.8050 C   0  0  0  0  0  0  0  0  0  0  0  0
   45.3670   34.3230   44.4240 C   0  0  0  0  0  0  0  0  0  0  0  0
   45.9950   35.0410   42.7950 S   0  0  0  0  0  0  0  0  0  0  0  0
   47.6340   34.1000   42.9730 C   0  0  0  0  0  0  0  0  0  0  0  0
   47.4620   33.5740   43.9370 N   0  0  0  0  0  0  0  0  0  0  0  0
   47.1720   31.0290   47.3600 C   0  0  0  0  0  0  0  0  0  0  0  0
   46.2430   31.3600   48.3810 C   0  0  0  0  0  0  0  0  0  0  0  0
   45.3890   32.4260   48.1840 C   0  0  0  0  0  0  0  0  0  0  0  0
   45.5010   33.0980   47.0030 N   0  0  0  0  0  0  0  0  0  0  0  0
   46.3830   32.7800   46.0420 C   0  0  0  0  0  0  0  0  0  0  0  0
   47.2200   31.7500   46.2120 N   0  0  0  0  0  0  0  0  0  0  0  0
   48.7080   34.2010   41.9600 C   0  0  0  0  0  0  0  0  0  0  0  0
   49.2040   32.8390   41.6430 C   0  0  0  0  0  0  0  0  0  0  0  0
   49.8170   35.1000   42.4850 C   0  0  0  0  0  0  0  0  0  0  0  0
   48.1990   34.8370   40.6700 C   0  0  0  0  0  0  0  0  0  0  0  0
   49.0460   35.8020   40.1740 O   0  0  0  0  0  0  0  0  0  0  0  0
   44.4066   34.4841   44.9356 H   0  0  0  0  0  0  0  0  0  0  0  0
   47.8584   30.1811   47.5009 H   0  0  0  0  0  0  0  0  0  0  0  0
   46.2045   30.7770   49.3130 H   0  0  0  0  0  0  0  0  0  0  0  0
   44.6514   32.7202   48.9452 H   0  0  0  0  0  0  0  0  0  0  0  0
   49.4024   32.2942   42.5778 H   0  0  0  0  0  0  0  0  0  0  0  0
   48.4447   32.2992   41.0581 H   0  0  0  0  0  0  0  0  0  0  0  0
   50.1326   32.9139   41.0581 H   0  0  0  0  0  0  0  0  0  0  0  0
   49.8063   35.0913   43.5849 H   0  0  0  0  0  0  0  0  0  0  0  0
   50.7889   34.7317   42.1249 H   0  0  0  0  0  0  0  0  0  0  0  0
   49.6578   36.1271   42.1249 H   0  0  0  0  0  0  0  0  0  0  0  0
   48.0846   34.0482   39.9120 H   0  0  0  0  0  0  0  0  0  0  0  0
   47.2418   35.3274   40.9010 H   0  0  0  0  0  0  0  0  0  0  0  0
   49.4709   36.2861   40.9258 H   0  0  0  0  0  0  0  0  0  0  0  0
  1 10  1  0
  2  1  2  0
  3  4  1  0
  3  2  1  0
  4  5  2  0
  5  1  1  0
  6  7  2  0
  8  7  1  0
  9  8  2  0
 10 11  2  0
 10  9  1  0
 11  6  1  0
 12 14  1  0
 12  4  1  0
 13 12  1  0
 15 12  1  0
 16 15  1  0
  2 17  1  0
  6 18  1  0
  7 19  1  0
  8 20  1  0
 13 21  1  0
 13 22  1  0
 13 23  1  0
 14 24  1  0
 14 25  1  0
 14 26  1  0
 15 27  1  0
 15 28  1  0
 16 29  1  0
M  ISO  8  17  14  18  14  19  14  20  14  21   8  22   8  23   8  24   8
M  ISO  5  25   8  26   8  27   8  28   8  29   3
M  END
>  <minimizedAffinity>  (1) 
-5.01348639

>  <minimizedRMSD>  (1) 
0.381459832

$$$$
