
     RDKit          3D

 31 32  0  0  0  0  0  0  0  0999 V2000
   48.2160   34.4030   41.7350 C   0  0  0  0  0  0  0  0  0  0  0  0
   46.2800   33.7620   44.8060 C   0  0  0  0  0  0  0  0  0  0  0  0
   45.1990   34.6430   44.5790 C   0  0  0  0  0  0  0  0  0  0  0  0
   45.6700   35.3820   42.9140 S   0  0  0  0  0  0  0  0  0  0  0  0
   47.2580   34.3320   42.8680 C   0  0  0  0  0  0  0  0  0  0  0  0
   47.1640   33.7840   43.8310 N   0  0  0  0  0  0  0  0  0  0  0  0
   47.2330   31.2650   47.2710 C   0  0  0  0  0  0  0  0  0  0  0  0
   46.3150   31.4800   48.3200 C   0  0  0  0  0  0  0  0  0  0  0  0
   45.3880   32.4770   48.1620 C   0  0  0  0  0  0  0  0  0  0  0  0
   45.3970   33.2020   47.0160 N   0  0  0  0  0  0  0  0  0  0  0  0
   46.2790   32.9880   46.0210 C   0  0  0  0  0  0  0  0  0  0  0  0
   47.2090   32.0200   46.1300 N   0  0  0  0  0  0  0  0  0  0  0  0
   49.2260   33.3370   41.8880 C   0  0  0  0  0  0  0  0  0  0  0  0
   48.8420   35.7910   41.7170 C   0  0  0  0  0  0  0  0  0  0  0  0
   47.5010   34.2360   40.4000 C   0  0  0  0  0  0  0  0  0  0  0  0
   48.2490   34.6640   39.3270 O   0  0  0  0  0  0  0  0  0  0  0  0
   48.1910   33.9590   38.1180 C   0  0  0  0  0  0  0  0  0  0  0  0
   48.2300   34.7140   37.0930 O   0  0  0  0  0  0  0  0  0  0  0  0
   44.3184   34.8431   45.2071 H   0  0  0  0  0  0  0  0  0  0  0  0
   47.9870   30.4706   47.3726 H   0  0  0  0  0  0  0  0  0  0  0  0
   46.3422   30.8683   49.2338 H   0  0  0  0  0  0  0  0  0  0  0  0
   44.6499   32.6854   48.9506 H   0  0  0  0  0  0  0  0  0  0  0  0
   49.4029   33.1503   42.9575 H   0  0  0  0  0  0  0  0  0  0  0  0
   48.8618   32.4155   41.4102 H   0  0  0  0  0  0  0  0  0  0  0  0
   50.1658   33.6510   41.4102 H   0  0  0  0  0  0  0  0  0  0  0  0
   48.9978   36.1364   42.7497 H   0  0  0  0  0  0  0  0  0  0  0  0
   49.8089   35.7504   41.1942 H   0  0  0  0  0  0  0  0  0  0  0  0
   48.1715   36.4889   41.1942 H   0  0  0  0  0  0  0  0  0  0  0  0
   47.2665   33.1705   40.2599 H   0  0  0  0  0  0  0  0  0  0  0  0
   46.5941   34.8576   40.4349 H   0  0  0  0  0  0  0  0  0  0  0  0
   48.1190   32.8629   38.0597 H   0  0  0  0  0  0  0  0  0  0  0  0
  1 13  1  0
  1  5  1  0
  2 11  1  0
  3  2  2  0
  4  3  1  0
  5  4  1  0
  5  6  2  0
  6  2  1  0
  7  8  2  0
  9  8  1  0
 10  9  2  0
 11 12  2  0
 11 10  1  0
 12  7  1  0
 14  1  1  0
 15  1  1  0
 16 15  1  0
 17 16  1  0
 18 17  2  0
  3 19  1  0
  7 20  1  0
  8 21  1  0
  9 22  1  0
 13 23  1  0
 13 24  1  0
 13 25  1  0
 14 26  1  0
 14 27  1  0
 14 28  1  0
 15 29  1  0
 15 30  1  0
 17 31  1  0
M  ISO  8  19  14  20  14  21  14  22  14  23   8  24   8  25   8  26   8
M  ISO  5  27   8  28   8  29   8  30   8  31   6
M  END
>  <minimizedAffinity>  (1) 
-4.91063738

>  <minimizedRMSD>  (1) 
1.17244518

$$$$
