
     RDKit          3D

 32 33  0  0  0  0  0  0  0  0999 V2000
   48.6290   34.6900   41.6750 C   0  0  0  0  0  0  0  0  0  0  0  0
   46.3650   33.8260   44.4590 C   0  0  0  0  0  0  0  0  0  0  0  0
   45.2480   34.5850   44.0840 C   0  0  0  0  0  0  0  0  0  0  0  0
   45.8680   35.3780   42.4990 S   0  0  0  0  0  0  0  0  0  0  0  0
   47.5570   34.5030   42.6660 C   0  0  0  0  0  0  0  0  0  0  0  0
   47.3820   33.9440   43.6080 N   0  0  0  0  0  0  0  0  0  0  0  0
   47.0770   31.2190   46.9040 C   0  0  0  0  0  0  0  0  0  0  0  0
   46.1930   31.5340   47.9610 C   0  0  0  0  0  0  0  0  0  0  0  0
   45.3700   32.6230   47.8310 C   0  0  0  0  0  0  0  0  0  0  0  0
   45.4540   33.3500   46.6700 N   0  0  0  0  0  0  0  0  0  0  0  0
   46.3070   33.0320   45.6700 C   0  0  0  0  0  0  0  0  0  0  0  0
   47.1150   31.9740   45.7830 N   0  0  0  0  0  0  0  0  0  0  0  0
   49.6880   33.6870   41.9200 C   0  0  0  0  0  0  0  0  0  0  0  0
   49.1700   36.1080   41.7890 C   0  0  0  0  0  0  0  0  0  0  0  0
   48.1160   34.5190   40.2530 C   0  0  0  0  0  0  0  0  0  0  0  0
   47.7350   33.2130   39.9840 O   0  0  0  0  0  0  0  0  0  0  0  0
   46.6010   32.9820   39.2020 C   0  0  0  0  0  0  0  0  0  0  0  0
   46.4950   32.0210   38.3860 O   0  0  0  0  0  0  0  0  0  0  0  0
   45.4790   33.7880   39.2460 O   0  0  0  0  0  0  0  0  0  0  0  0
   44.2730   34.6881   44.5828 H   0  0  0  0  0  0  0  0  0  0  0  0
   47.7428   30.3481   46.9946 H   0  0  0  0  0  0  0  0  0  0  0  0
   46.1658   30.9168   48.8712 H   0  0  0  0  0  0  0  0  0  0  0  0
   44.6672   32.9040   48.6292 H   0  0  0  0  0  0  0  0  0  0  0  0
   49.8258   33.5565   43.0035 H   0  0  0  0  0  0  0  0  0  0  0  0
   49.3953   32.7272   41.4694 H   0  0  0  0  0  0  0  0  0  0  0  0
   50.6305   34.0314   41.4694 H   0  0  0  0  0  0  0  0  0  0  0  0
   49.2726   36.3770   42.8506 H   0  0  0  0  0  0  0  0  0  0  0  0
   50.1533   36.1658   41.2994 H   0  0  0  0  0  0  0  0  0  0  0  0
   48.4750   36.8061   41.2994 H   0  0  0  0  0  0  0  0  0  0  0  0
   47.2469   35.1777   40.1089 H   0  0  0  0  0  0  0  0  0  0  0  0
   48.9353   34.7785   39.5664 H   0  0  0  0  0  0  0  0  0  0  0  0
   44.6992   33.5827   38.6716 H   0  0  0  0  0  0  0  0  0  0  0  0
  1 14  1  0
  1 13  1  0
  1  5  1  0
  2 11  1  0
  3  2  2  0
  4  5  1  0
  4  3  1  0
  5  6  2  0
  6  2  1  0
  7  8  2  0
  9  8  1  0
 10  9  2  0
 11 12  2  0
 11 10  1  0
 12  7  1  0
 15  1  1  0
 16 15  1  0
 17 19  1  0
 17 16  1  0
 18 17  2  0
  3 20  1  0
  7 21  1  0
  8 22  1  0
  9 23  1  0
 13 24  1  0
 13 25  1  0
 13 26  1  0
 14 27  1  0
 14 28  1  0
 14 29  1  0
 15 30  1  0
 15 31  1  0
 19 32  1  0
M  ISO  8  20  14  21  14  22  14  23  14  24   8  25   8  26   8  27   8
M  ISO  5  28   8  29   8  30   8  31   8  32   3
M  END
>  <minimizedAffinity>  (1) 
-4.79239464

>  <minimizedRMSD>  (1) 
2.02967024

$$$$
