
     RDKit          3D

 32 33  0  0  0  0  0  0  0  0999 V2000
   48.2940   34.4650   41.6720 C   0  0  0  0  0  0  0  0  0  0  0  0
   46.2930   33.8090   44.7050 C   0  0  0  0  0  0  0  0  0  0  0  0
   45.2280   34.6700   44.4520 C   0  0  0  0  0  0  0  0  0  0  0  0
   45.7360   35.4120   42.7930 S   0  0  0  0  0  0  0  0  0  0  0  0
   47.3250   34.3820   42.7780 C   0  0  0  0  0  0  0  0  0  0  0  0
   47.1880   33.8490   43.7400 N   0  0  0  0  0  0  0  0  0  0  0  0
   47.2410   31.3130   47.1730 C   0  0  0  0  0  0  0  0  0  0  0  0
   46.2950   31.5370   48.2220 C   0  0  0  0  0  0  0  0  0  0  0  0
   45.3620   32.5280   48.0580 C   0  0  0  0  0  0  0  0  0  0  0  0
   45.4120   33.2340   46.8910 N   0  0  0  0  0  0  0  0  0  0  0  0
   46.2920   33.0310   45.9110 C   0  0  0  0  0  0  0  0  0  0  0  0
   47.2010   32.0710   46.0590 N   0  0  0  0  0  0  0  0  0  0  0  0
   49.3090   33.3930   41.8400 C   0  0  0  0  0  0  0  0  0  0  0  0
   48.9490   35.8400   41.6740 C   0  0  0  0  0  0  0  0  0  0  0  0
   47.6300   34.2730   40.3190 C   0  0  0  0  0  0  0  0  0  0  0  0
   48.3340   34.8620   39.2830 O   0  0  0  0  0  0  0  0  0  0  0  0
   48.1720   34.1570   38.0950 C   0  0  0  0  0  0  0  0  0  0  0  0
   49.0840   33.1180   38.0300 F   0  0  0  0  0  0  0  0  0  0  0  0
   46.8960   33.6040   38.1120 F   0  0  0  0  0  0  0  0  0  0  0  0
   48.2370   34.9870   36.9950 F   0  0  0  0  0  0  0  0  0  0  0  0
   44.3306   34.8653   45.0574 H   0  0  0  0  0  0  0  0  0  0  0  0
   48.0000   30.5234   47.2751 H   0  0  0  0  0  0  0  0  0  0  0  0
   46.3155   30.9288   49.1383 H   0  0  0  0  0  0  0  0  0  0  0  0
   44.6089   32.7439   48.8302 H   0  0  0  0  0  0  0  0  0  0  0  0
   49.4789   33.2136   42.9119 H   0  0  0  0  0  0  0  0  0  0  0  0
   48.9476   32.4684   41.3662 H   0  0  0  0  0  0  0  0  0  0  0  0
   50.2520   33.7034   41.3662 H   0  0  0  0  0  0  0  0  0  0  0  0
   49.1061   36.1698   42.7116 H   0  0  0  0  0  0  0  0  0  0  0  0
   49.9178   35.7854   41.1559 H   0  0  0  0  0  0  0  0  0  0  0  0
   48.2961   36.5579   41.1559 H   0  0  0  0  0  0  0  0  0  0  0  0
   47.5480   33.1945   40.1186 H   0  0  0  0  0  0  0  0  0  0  0  0
   46.6438   34.7581   40.3645 H   0  0  0  0  0  0  0  0  0  0  0  0
  1 14  1  0
  1 13  1  0
  1  5  1  0
  2 11  1  0
  3  2  2  0
  4  3  1  0
  5  4  1  0
  5  6  2  0
  6  2  1  0
  7  8  2  0
  9  8  1  0
 10  9  2  0
 11 12  2  0
 11 10  1  0
 12  7  1  0
 15  1  1  0
 16 15  1  0
 17 19  1  0
 17 16  1  0
 18 17  1  0
 20 17  1  0
  3 21  1  0
  7 22  1  0
  8 23  1  0
  9 24  1  0
 13 25  1  0
 13 26  1  0
 13 27  1  0
 14 28  1  0
 14 29  1  0
 14 30  1  0
 15 31  1  0
 15 32  1  0
M  ISO  8  21  14  22  14  23  14  24  14  25   8  26   8  27   8  28   8
M  ISO  4  29   8  30   8  31   8  32   8
M  END
>  <minimizedAffinity>  (1) 
-5.36016655

>  <minimizedRMSD>  (1) 
1.41339076

$$$$
