
     RDKit          3D

 43 46  0  0  1  0  0  0  0  0999 V2000
   48.8530   34.5400   41.9220 C   0  0  0  0  0  0  0  0  0  0  0  0
   46.5000   33.6560   44.5950 C   0  0  0  0  0  0  0  0  0  0  0  0
   45.3750   34.3960   44.1480 C   0  0  0  0  0  0  0  0  0  0  0  0
   46.0800   35.1800   42.5800 S   0  0  0  0  0  0  0  0  0  0  0  0
   47.7540   34.3350   42.8620 C   0  0  0  0  0  0  0  0  0  0  0  0
   47.5520   33.7770   43.8070 N   0  0  0  0  0  0  0  0  0  0  0  0
   47.0300   31.0490   47.0720 C   0  0  0  0  0  0  0  0  0  0  0  0
   46.1320   31.3960   48.1040 C   0  0  0  0  0  0  0  0  0  0  0  0
   45.3560   32.5240   47.9350 C   0  0  0  0  0  0  0  0  0  0  0  0
   45.5130   33.2250   46.7790 N   0  0  0  0  0  0  0  0  0  0  0  0
   46.3650   32.8910   45.8040 C   0  0  0  0  0  0  0  0  0  0  0  0
   47.1400   31.7950   45.9360 N   0  0  0  0  0  0  0  0  0  0  0  0
   50.1490   34.2320   42.6410 C   0  0  0  0  0  0  0  0  0  0  0  0
   48.8770   35.9620   41.4370 C   0  0  0  0  0  0  0  0  0  0  0  0
   48.8150   33.6180   40.7380 C   0  0  0  0  0  0  0  0  0  0  0  0
   48.9130   32.2830   41.0740 O   0  0  0  0  0  0  0  0  0  0  0  0
   49.8520   31.6250   40.3290 C   0  0  2  0  0  0  0  0  0  0  0  0
   50.4290   30.3500   40.8970 C   0  0  0  0  0  0  0  0  0  0  0  0
   51.2700   31.5340   40.6070 C   0  0  1  0  0  0  0  0  0  0  0  0
   52.1580   31.4140   39.4550 N   0  0  0  0  0  0  0  0  0  0  0  0
   51.9740   31.6290   38.1650 N   0  0  0  0  0  0  0  0  0  0  0  0
   53.1020   31.3800   37.4800 C   0  0  0  0  0  0  0  0  0  0  0  0
   54.0960   30.9760   38.3670 C   0  0  0  0  0  0  0  0  0  0  0  0
   53.4550   31.0140   39.5870 C   0  0  0  0  0  0  0  0  0  0  0  0
   44.3722   34.4877   44.5907 H   0  0  0  0  0  0  0  0  0  0  0  0
   47.6577   30.1531   47.1872 H   0  0  0  0  0  0  0  0  0  0  0  0
   46.0532   30.7854   49.0156 H   0  0  0  0  0  0  0  0  0  0  0  0
   44.6383   32.8444   48.7046 H   0  0  0  0  0  0  0  0  0  0  0  0
   49.9837   34.2713   43.7278 H   0  0  0  0  0  0  0  0  0  0  0  0
   50.4949   33.2266   42.3588 H   0  0  0  0  0  0  0  0  0  0  0  0
   50.9102   34.9743   42.3588 H   0  0  0  0  0  0  0  0  0  0  0  0
   48.8885   36.6437   42.3002 H   0  0  0  0  0  0  0  0  0  0  0  0
   49.7780   36.1265   40.8279 H   0  0  0  0  0  0  0  0  0  0  0  0
   47.9820   36.1568   40.8279 H   0  0  0  0  0  0  0  0  0  0  0  0
   49.6535   33.8716   40.0727 H   0  0  0  0  0  0  0  0  0  0  0  0
   47.8382   33.7574   40.2518 H   0  0  0  0  0  0  0  0  0  0  0  0
   49.3100   31.9671   39.4350 H   0  0  0  0  0  0  0  0  0  0  0  0
   50.2180   30.0594   41.9367 H   0  0  0  0  0  0  0  0  0  0  0  0
   50.4336   29.2882   40.6096 H   0  0  0  0  0  0  0  0  0  0  0  0
   51.9712   32.1456   41.1937 H   0  0  0  0  0  0  0  0  0  0  0  0
   53.2215   31.4795   36.3910 H   0  0  0  0  0  0  0  0  0  0  0  0
   55.1369   30.6954   38.1483 H   0  0  0  0  0  0  0  0  0  0  0  0
   53.9294   30.7547   40.5450 H   0  0  0  0  0  0  0  0  0  0  0  0
  1 13  1  0
  1  5  1  0
  2 11  1  0
  3  2  2  0
  4  5  1  0
  4  3  1  0
  5  6  2  0
  6  2  1  0
  7  8  2  0
  9  8  1  0
 10  9  2  0
 11 12  2  0
 11 10  1  0
 12  7  1  0
 14  1  1  0
 15 16  1  0
 15  1  1  0
 17 19  1  0
 17 18  1  0
 17 16  1  0
 19 18  1  0
 20 24  1  0
 20 19  1  0
 21 20  1  0
 22 21  2  0
 22 23  1  0
 23 24  2  0
  3 25  1  0
  7 26  1  0
  8 27  1  0
  9 28  1  0
 13 29  1  0
 13 30  1  0
 13 31  1  0
 14 32  1  0
 14 33  1  0
 14 34  1  0
 15 35  1  0
 15 36  1  0
 17 37  1  6
 18 38  1  0
 18 39  1  0
 19 40  1  1
 22 41  1  0
 23 42  1  0
 24 43  1  0
M  ISO  8  25  14  26  14  27  14  28  14  29   8  30   8  31   8  32   8
M  ISO  8  33   8  34   8  35   8  36   8  37  13  38  13  39  13  40  13
M  ISO  3  41  14  42  14  43  14
M  END
>  <minimizedAffinity>  (1) 
-5.35035038

>  <minimizedRMSD>  (1) 
4.11692476

$$$$
