
     RDKit          3D

 39 41  0  0  1  0  0  0  0  0999 V2000
   48.1530   34.4270   41.8020 C   0  0  0  0  0  0  0  0  0  0  0  0
   46.2380   33.7560   44.8830 C   0  0  0  0  0  0  0  0  0  0  0  0
   45.1510   34.6230   44.6750 C   0  0  0  0  0  0  0  0  0  0  0  0
   45.6070   35.3750   43.0070 S   0  0  0  0  0  0  0  0  0  0  0  0
   47.2090   34.3380   42.9360 C   0  0  0  0  0  0  0  0  0  0  0  0
   47.1340   33.7750   43.9020 N   0  0  0  0  0  0  0  0  0  0  0  0
   47.2700   31.2660   47.3320 C   0  0  0  0  0  0  0  0  0  0  0  0
   46.3480   31.4590   48.3900 C   0  0  0  0  0  0  0  0  0  0  0  0
   45.3910   32.4420   48.2370 C   0  0  0  0  0  0  0  0  0  0  0  0
   45.4030   33.1530   47.0850 N   0  0  0  0  0  0  0  0  0  0  0  0
   46.2770   32.9650   46.0880 C   0  0  0  0  0  0  0  0  0  0  0  0
   47.2240   32.0190   46.1970 N   0  0  0  0  0  0  0  0  0  0  0  0
   49.1300   33.2960   41.9020 C   0  0  0  0  0  0  0  0  0  0  0  0
   48.7880   35.7640   41.7770 C   0  0  0  0  0  0  0  0  0  0  0  0
   47.3950   34.1990   40.4580 C   0  0  0  0  0  0  0  0  0  0  0  0
   48.2170   34.5960   39.3990 O   0  0  0  0  0  0  0  0  0  0  0  0
   48.1200   33.7170   38.3580 C   0  0  2  0  0  0  0  0  0  0  0  0
   48.8410   34.0640   37.0730 C   0  0  0  0  0  0  0  0  0  0  0  0
   47.3720   33.9060   37.1270 C   0  0  1  0  0  0  0  0  0  0  0  0
   46.8080   32.6590   36.4420 C   0  0  0  0  0  0  0  0  0  0  0  0
   45.5230   32.9330   35.9830 F   0  0  0  0  0  0  0  0  0  0  0  0
   47.5540   32.3480   35.3280 F   0  0  0  0  0  0  0  0  0  0  0  0
   46.7050   31.6060   37.3120 F   0  0  0  0  0  0  0  0  0  0  0  0
   44.2739   34.8113   45.3116 H   0  0  0  0  0  0  0  0  0  0  0  0
   48.0424   30.4889   47.4290 H   0  0  0  0  0  0  0  0  0  0  0  0
   46.3931   30.8464   49.3025 H   0  0  0  0  0  0  0  0  0  0  0  0
   44.6463   32.6402   49.0220 H   0  0  0  0  0  0  0  0  0  0  0  0
   49.3239   33.0715   42.9613 H   0  0  0  0  0  0  0  0  0  0  0  0
   48.7121   32.4058   41.4091 H   0  0  0  0  0  0  0  0  0  0  0  0
   50.0715   33.5801   41.4091 H   0  0  0  0  0  0  0  0  0  0  0  0
   48.9528   36.1110   42.8078 H   0  0  0  0  0  0  0  0  0  0  0  0
   49.7528   35.7019   41.2523 H   0  0  0  0  0  0  0  0  0  0  0  0
   48.1302   36.4726   41.2523 H   0  0  0  0  0  0  0  0  0  0  0  0
   47.1454   33.1330   40.3516 H   0  0  0  0  0  0  0  0  0  0  0  0
   46.4670   34.7895   40.4498 H   0  0  0  0  0  0  0  0  0  0  0  0
   48.0940   32.9123   39.1075 H   0  0  0  0  0  0  0  0  0  0  0  0
   49.4620   33.3120   36.5643 H   0  0  0  0  0  0  0  0  0  0  0  0
   49.5385   34.8497   36.7472 H   0  0  0  0  0  0  0  0  0  0  0  0
   46.5136   34.5371   36.8535 H   0  0  0  0  0  0  0  0  0  0  0  0
  1 13  1  0
  1  5  1  0
  2 11  1  0
  3  2  2  0
  4  3  1  0
  5  4  1  0
  5  6  2  0
  6  2  1  0
  7  8  2  0
  9  8  1  0
 10  9  2  0
 11 12  2  0
 11 10  1  0
 12  7  1  0
 14  1  1  0
 15  1  1  0
 16 15  1  0
 17 16  1  0
 18 19  1  0
 18 17  1  0
 19 17  1  0
 20 19  1  0
 20 23  1  0
 21 20  1  0
 22 20  1  0
  3 24  1  0
  7 25  1  0
  8 26  1  0
  9 27  1  0
 13 28  1  0
 13 29  1  0
 13 30  1  0
 14 31  1  0
 14 32  1  0
 14 33  1  0
 15 34  1  0
 15 35  1  0
 17 36  1  1
 18 37  1  0
 18 38  1  0
 19 39  1  1
M  ISO  8  24  14  25  14  26  14  27  14  28   8  29   8  30   8  31   8
M  ISO  8  32   8  33   8  34   8  35   8  36  13  37  13  38  13  39  13
M  END
>  <minimizedAffinity>  (1) 
-5.37767792

>  <minimizedRMSD>  (1) 
1.07106423

$$$$
