
     RDKit          3D

 43 46  0  0  1  0  0  0  0  0999 V2000
   47.0310   34.1340   42.0130 C   0  0  0  0  0  0  0  0  0  0  0  0
   45.9280   33.6700   45.4810 C   0  0  0  0  0  0  0  0  0  0  0  0
   44.9720   34.7030   45.5530 C   0  0  0  0  0  0  0  0  0  0  0  0
   45.1080   35.4030   43.8130 S   0  0  0  0  0  0  0  0  0  0  0  0
   46.4420   34.1380   43.3490 C   0  0  0  0  0  0  0  0  0  0  0  0
   46.5280   33.5730   44.3070 N   0  0  0  0  0  0  0  0  0  0  0  0
   47.5140   31.3700   47.8120 C   0  0  0  0  0  0  0  0  0  0  0  0
   46.6040   31.3260   48.8940 C   0  0  0  0  0  0  0  0  0  0  0  0
   45.4600   32.0820   48.8020 C   0  0  0  0  0  0  0  0  0  0  0  0
   45.2940   32.8170   47.6690 N   0  0  0  0  0  0  0  0  0  0  0  0
   46.1600   32.8540   46.6500 C   0  0  0  0  0  0  0  0  0  0  0  0
   47.2830   32.1310   46.7060 N   0  0  0  0  0  0  0  0  0  0  0  0
   47.8460   32.8720   41.8620 C   0  0  0  0  0  0  0  0  0  0  0  0
   47.9150   35.3370   41.8290 C   0  0  0  0  0  0  0  0  0  0  0  0
   46.0190   34.1230   40.9010 C   0  0  0  0  0  0  0  0  0  0  0  0
   46.0060   32.9380   40.1950 O   0  0  0  0  0  0  0  0  0  0  0  0
   45.4350   33.0690   38.9540 C   0  0  2  0  0  0  0  0  0  0  0  0
   45.4860   31.8680   38.0280 C   0  0  0  0  0  0  0  0  0  0  0  0
   46.1790   33.1280   37.7120 C   0  0  2  0  0  0  0  0  0  0  0  0
   47.6750   33.1970   37.8870 C   0  0  0  0  0  0  0  0  0  0  0  0
   48.4940   33.6340   36.6980 C   0  0  0  0  0  0  0  0  0  0  0  0
   48.4170   34.4710   37.9790 C   0  0  0  0  0  0  0  0  0  0  0  0
   44.3286   35.0122   46.3899 H   0  0  0  0  0  0  0  0  0  0  0  0
   48.4357   30.7719   47.8652 H   0  0  0  0  0  0  0  0  0  0  0  0
   46.8055   30.7067   49.7805 H   0  0  0  0  0  0  0  0  0  0  0  0
   44.7119   32.0925   49.6084 H   0  0  0  0  0  0  0  0  0  0  0  0
   48.1002   32.4784   42.8572 H   0  0  0  0  0  0  0  0  0  0  0  0
   47.2613   32.1218   41.3094 H   0  0  0  0  0  0  0  0  0  0  0  0
   48.7703   33.0963   41.3094 H   0  0  0  0  0  0  0  0  0  0  0  0
   48.2056   35.7325   42.8135 H   0  0  0  0  0  0  0  0  0  0  0  0
   48.8167   35.0473   41.2695 H   0  0  0  0  0  0  0  0  0  0  0  0
   47.3692   36.1110   41.2695 H   0  0  0  0  0  0  0  0  0  0  0  0
   45.0207   34.2838   41.3341 H   0  0  0  0  0  0  0  0  0  0  0  0
   46.2952   34.9220   40.1972 H   0  0  0  0  0  0  0  0  0  0  0  0
   44.6784   33.7338   39.3963 H   0  0  0  0  0  0  0  0  0  0  0  0
   46.0607   30.9733   38.3096 H   0  0  0  0  0  0  0  0  0  0  0  0
   44.7472   31.2259   37.5262 H   0  0  0  0  0  0  0  0  0  0  0  0
   46.1729   33.7685   36.8177 H   0  0  0  0  0  0  0  0  0  0  0  0
   47.6331   32.3223   38.5527 H   0  0  0  0  0  0  0  0  0  0  0  0
   49.4211   33.1026   36.4370 H   0  0  0  0  0  0  0  0  0  0  0  0
   48.3016   33.8086   35.6291 H   0  0  0  0  0  0  0  0  0  0  0  0
   47.8713   35.4261   37.9795 H   0  0  0  0  0  0  0  0  0  0  0  0
   49.1550   34.8917   38.6779 H   0  0  0  0  0  0  0  0  0  0  0  0
  1  5  1  0
  2  3  2  0
  2 11  1  0
  4  3  1  0
  5  4  1  0
  5  6  2  0
  6  2  1  0
  7  8  2  0
  9  8  1  0
 10  9  2  0
 11 12  2  0
 11 10  1  0
 12  7  1  0
 13  1  1  0
 14  1  1  0
 15  1  1  0
 16 15  1  0
 17 16  1  0
 18 17  1  0
 19 20  1  0
 19 18  1  0
 19 17  1  0
 20 22  1  0
 21 20  1  0
 21 22  1  0
  3 23  1  0
  7 24  1  0
  8 25  1  0
  9 26  1  0
 13 27  1  0
 13 28  1  0
 13 29  1  0
 14 30  1  0
 14 31  1  0
 14 32  1  0
 15 33  1  0
 15 34  1  0
 17 35  1  1
 18 36  1  0
 18 37  1  0
 19 38  1  6
 20 39  1  0
 21 40  1  0
 21 41  1  0
 22 42  1  0
 22 43  1  0
M  ISO  8  23  14  24  14  25  14  26  14  27   8  28   8  29   8  30   8
M  ISO  8  31   8  32   8  33   8  34   8  35  13  36  13  37  13  38  13
M  ISO  5  39  13  40  13  41  13  42  13  43  13
M  END
>  <minimizedAffinity>  (1) 
-4.98778915

>  <minimizedRMSD>  (1) 
1.79176617

$$$$
