
     RDKit          3D

 37 41  0  0  1  0  0  0  0  0999 V2000
   46.3940   33.4980   42.6130 C   0  0  2  0  0  0  0  0  0  0  0  0
   46.0240   34.6170   43.5930 C   0  0  0  0  0  0  0  0  0  0  0  0
   47.1140   33.6150   43.9300 C   0  0  1  0  0  0  0  0  0  0  0  0
   46.9130   32.4990   44.8480 C   0  0  0  0  0  0  0  0  0  0  0  0
   47.4800   31.2930   44.4400 C   0  0  0  0  0  0  0  0  0  0  0  0
   47.2350   30.3510   45.3910 N   0  0  0  0  0  0  0  0  0  0  0  0
   46.5220   30.9100   46.4090 C   0  0  0  0  0  0  0  0  0  0  0  0
   45.9810   30.5030   47.6130 C   0  0  0  0  0  0  0  0  0  0  0  0
   45.2850   31.4230   48.4000 C   0  0  0  0  0  0  0  0  0  0  0  0
   45.1110   32.7480   48.0200 C   0  0  0  0  0  0  0  0  0  0  0  0
   45.6560   33.1570   46.8050 C   0  0  0  0  0  0  0  0  0  0  0  0
   46.3330   32.2140   46.0670 C   0  0  0  0  0  0  0  0  0  0  0  0
   47.6980   33.8510   39.2640 N   0  0  0  0  0  0  0  0  0  0  0  0
   48.3590   34.8640   39.8860 C   0  0  0  0  0  0  0  0  0  0  0  0
   48.0100   34.9080   41.1720 N   0  0  0  0  0  0  0  0  0  0  0  0
   47.1160   33.9080   41.3690 C   0  0  0  0  0  0  0  0  0  0  0  0
   46.9560   33.2940   40.1910 N   0  0  0  0  0  0  0  0  0  0  0  0
   46.5970   32.6780   37.4670 C   0  0  0  0  0  0  0  0  0  0  0  0
   47.7240   33.3990   37.9170 C   0  0  0  0  0  0  0  0  0  0  0  0
   48.7550   33.6130   37.0310 C   0  0  0  0  0  0  0  0  0  0  0  0
   48.6170   33.1090   35.7680 N   0  0  0  0  0  0  0  0  0  0  0  0
   47.5420   32.4310   35.3700 C   0  0  0  0  0  0  0  0  0  0  0  0
   46.5420   32.2200   36.2200 N   0  0  0  0  0  0  0  0  0  0  0  0
   45.8547   32.6871   42.1015 H   0  0  0  0  0  0  0  0  0  0  0  0
   46.2848   35.6607   43.3637 H   0  0  0  0  0  0  0  0  0  0  0  0
   45.0975   34.9586   44.0777 H   0  0  0  0  0  0  0  0  0  0  0  0
   48.1435   33.7561   44.2908 H   0  0  0  0  0  0  0  0  0  0  0  0
   48.0340   31.1296   43.5039 H   0  0  0  0  0  0  0  0  0  0  0  0
   47.5409   29.3684   45.3481 H   0  0  0  0  0  0  0  0  0  0  0  0
   46.0975   29.4622   47.9493 H   0  0  0  0  0  0  0  0  0  0  0  0
   44.8586   31.0861   49.3564 H   0  0  0  0  0  0  0  0  0  0  0  0
   44.5594   33.4529   48.6594 H   0  0  0  0  0  0  0  0  0  0  0  0
   45.5493   34.1926   46.4499 H   0  0  0  0  0  0  0  0  0  0  0  0
   49.0741   35.5447   39.4009 H   0  0  0  0  0  0  0  0  0  0  0  0
   45.7575   32.4936   38.1535 H   0  0  0  0  0  0  0  0  0  0  0  0
   49.6565   34.1689   37.3281 H   0  0  0  0  0  0  0  0  0  0  0  0
   47.4818   32.0468   34.3410 H   0  0  0  0  0  0  0  0  0  0  0  0
  1  2  1  0
  1  3  1  0
  2  3  1  0
  3  4  1  0
  4 12  1  0
  5  4  2  0
  5  6  1  0
  6  7  1  0
  7  8  2  0
  8  9  1  0
 10  9  2  0
 11 10  1  0
 12  7  1  0
 12 11  2  0
 13 14  1  0
 13 17  1  0
 14 15  2  0
 15 16  1  0
 16  1  1  0
 17 16  2  0
 18 19  2  0
 19 13  1  0
 20 19  1  0
 21 20  2  0
 22 21  1  0
 22 23  2  0
 23 18  1  0
  1 24  1  6
  2 25  1  0
  2 26  1  0
  3 27  1  6
  5 28  1  0
  6 29  1  0
  8 30  1  0
  9 31  1  0
 10 32  1  0
 11 33  1  0
 14 34  1  0
 18 35  1  0
 20 36  1  0
 22 37  1  0
M  ISO  8  24  13  25  13  26  13  27  13  28  14  29   9  30  14  31  14
M  ISO  6  32  14  33  14  34  14  35  14  36  14  37  14
M  END
>  <minimizedAffinity>  (1) 
-5.31004238

>  <minimizedRMSD>  (1) 
8.43150043

$$$$
