
     RDKit          3D

 36 39  0  0  1  0  0  0  0  0999 V2000
   48.2560   33.6180   38.8360 C   0  0  2  0  0  0  0  0  0  0  0  0
   48.3750   34.6360   37.6840 C   0  0  0  0  0  0  0  0  0  0  0  0
   48.1840   33.1340   37.4150 C   0  0  1  0  0  0  0  0  0  0  0  0
   49.2840   32.3420   36.9750 N   0  0  0  0  0  0  0  0  0  0  0  0
   50.2790   31.9100   37.7500 C   0  0  0  0  0  0  0  0  0  0  0  0
   51.2930   31.1500   37.2180 C   0  0  0  0  0  0  0  0  0  0  0  0
   52.4270   30.6360   38.0220 C   0  0  0  0  0  0  0  0  0  0  0  0
   51.1920   30.8880   35.8680 C   0  0  0  0  0  0  0  0  0  0  0  0
   52.1020   30.1900   35.3220 O   0  0  0  0  0  0  0  0  0  0  0  0
   50.2140   31.2990   35.0390 N   0  0  0  0  0  0  0  0  0  0  0  0
   49.2460   32.0460   35.6430 C   0  0  0  0  0  0  0  0  0  0  0  0
   48.3120   32.4410   34.8650 O   0  0  0  0  0  0  0  0  0  0  0  0
   45.7570   34.0710   41.4010 N   0  0  0  0  0  0  0  0  0  0  0  0
   44.9730   33.5950   40.3860 C   0  0  0  0  0  0  0  0  0  0  0  0
   45.7370   33.3550   39.3100 N   0  0  0  0  0  0  0  0  0  0  0  0
   47.0110   33.6830   39.6480 C   0  0  0  0  0  0  0  0  0  0  0  0
   46.9750   34.1080   40.9120 N   0  0  0  0  0  0  0  0  0  0  0  0
   44.9820   35.7970   42.8980 C   0  0  0  0  0  0  0  0  0  0  0  0
   45.4340   34.4670   42.7220 C   0  0  0  0  0  0  0  0  0  0  0  0
   45.5250   33.6650   43.8400 C   0  0  0  0  0  0  0  0  0  0  0  0
   45.1790   34.1890   45.0430 N   0  0  0  0  0  0  0  0  0  0  0  0
   44.7560   35.4460   45.1750 C   0  0  0  0  0  0  0  0  0  0  0  0
   44.6570   36.2520   44.1030 N   0  0  0  0  0  0  0  0  0  0  0  0
   48.8671   33.3291   39.7038 H   0  0  0  0  0  0  0  0  0  0  0  0
   47.5572   35.3436   37.4828 H   0  0  0  0  0  0  0  0  0  0  0  0
   49.1042   35.4028   37.3836 H   0  0  0  0  0  0  0  0  0  0  0  0
   47.4678   32.5703   36.7992 H   0  0  0  0  0  0  0  0  0  0  0  0
   50.2884   32.1631   38.8205 H   0  0  0  0  0  0  0  0  0  0  0  0
   52.1951   30.7411   39.0921 H   0  0  0  0  0  0  0  0  0  0  0  0
   52.5930   29.5747   37.7853 H   0  0  0  0  0  0  0  0  0  0  0  0
   53.3345   31.2107   37.7853 H   0  0  0  0  0  0  0  0  0  0  0  0
   50.1982   31.0691   34.0351 H   0  0  0  0  0  0  0  0  0  0  0  0
   43.8863   33.4343   40.4433 H   0  0  0  0  0  0  0  0  0  0  0  0
   44.8989   36.4621   42.0258 H   0  0  0  0  0  0  0  0  0  0  0  0
   45.8703   32.6238   43.7585 H   0  0  0  0  0  0  0  0  0  0  0  0
   44.4852   35.8279   46.1704 H   0  0  0  0  0  0  0  0  0  0  0  0
  1 16  1  0
  2  1  1  0
  3  2  1  0
  3  1  1  0
  4  3  1  0
  4  5  1  0
  6  5  2  0
  6  7  1  0
  8  6  1  0
  9  8  2  0
 10 11  1  0
 10  8  1  0
 11  4  1  0
 12 11  2  0
 13 19  1  0
 14 13  1  0
 15 16  1  0
 15 14  2  0
 16 17  2  0
 17 13  1  0
 18 23  2  0
 19 18  1  0
 19 20  2  0
 20 21  1  0
 21 22  2  0
 23 22  1  0
  1 24  1  1
  2 25  1  0
  2 26  1  0
  3 27  1  1
  5 28  1  0
  7 29  1  0
  7 30  1  0
  7 31  1  0
 10 32  1  0
 14 33  1  0
 18 34  1  0
 20 35  1  0
 22 36  1  0
M  ISO  8  24  13  25  13  26  13  27  13  28  14  29   8  30   8  31   8
M  ISO  5  32   9  33  14  34  14  35  14  36  14
M  END
>  <minimizedAffinity>  (1) 
-5.21945524

>  <minimizedRMSD>  (1) 
1.49012852

$$$$
