
     RDKit          3D

 39 41  0  0  1  0  0  0  0  0999 V2000
   47.9050   34.0770   42.1610 C   0  0  0  0  0  0  0  0  0  0  0  0
   46.2310   33.5300   45.3810 C   0  0  0  0  0  0  0  0  0  0  0  0
   45.1500   34.4390   45.2210 C   0  0  0  0  0  0  0  0  0  0  0  0
   45.5270   35.1240   43.5010 S   0  0  0  0  0  0  0  0  0  0  0  0
   47.0720   34.0330   43.3590 C   0  0  0  0  0  0  0  0  0  0  0  0
   47.0340   33.5060   44.3430 N   0  0  0  0  0  0  0  0  0  0  0  0
   47.4710   31.2670   47.9310 C   0  0  0  0  0  0  0  0  0  0  0  0
   46.4650   31.3090   48.9280 C   0  0  0  0  0  0  0  0  0  0  0  0
   45.3760   32.1210   48.7040 C   0  0  0  0  0  0  0  0  0  0  0  0
   45.3430   32.8300   47.5320 N   0  0  0  0  0  0  0  0  0  0  0  0
   46.3060   32.7740   46.6030 C   0  0  0  0  0  0  0  0  0  0  0  0
   47.3820   31.9950   46.7870 N   0  0  0  0  0  0  0  0  0  0  0  0
   48.6000   32.7380   42.0160 C   0  0  0  0  0  0  0  0  0  0  0  0
   48.9370   35.1600   42.2840 C   0  0  0  0  0  0  0  0  0  0  0  0
   47.1300   34.2750   40.8930 C   0  0  0  0  0  0  0  0  0  0  0  0
   47.9270   34.4410   39.7790 O   0  0  0  0  0  0  0  0  0  0  0  0
   47.6140   33.5630   38.7780 C   0  0  2  0  0  0  0  0  0  0  0  0
   48.7010   33.1930   37.7920 C   0  0  0  0  0  0  0  0  0  0  0  0
   47.4470   33.8550   37.3700 C   0  0  1  0  0  0  0  0  0  0  0  0
   46.5400   33.0110   36.5410 C   0  0  0  0  0  0  0  0  0  0  0  0
   46.8770   31.8330   36.1790 O   0  0  0  0  0  0  0  0  0  0  0  0
   45.2920   33.4570   36.1230 O   0  0  0  0  0  0  0  0  0  0  0  0
   44.3241   34.6773   45.9073 H   0  0  0  0  0  0  0  0  0  0  0  0
   48.3508   30.6256   48.0878 H   0  0  0  0  0  0  0  0  0  0  0  0
   46.5511   30.7136   49.8489 H   0  0  0  0  0  0  0  0  0  0  0  0
   44.5617   32.1978   49.4395 H   0  0  0  0  0  0  0  0  0  0  0  0
   48.8139   32.3260   43.0133 H   0  0  0  0  0  0  0  0  0  0  0  0
   47.9481   32.0443   41.4648 H   0  0  0  0  0  0  0  0  0  0  0  0
   49.5424   32.8718   41.4648 H   0  0  0  0  0  0  0  0  0  0  0  0
   49.1305   35.3630   43.3476 H   0  0  0  0  0  0  0  0  0  0  0  0
   49.8686   34.8357   41.7972 H   0  0  0  0  0  0  0  0  0  0  0  0
   48.5682   36.0749   41.7972 H   0  0  0  0  0  0  0  0  0  0  0  0
   46.4906   33.3940   40.7350 H   0  0  0  0  0  0  0  0  0  0  0  0
   46.5461   35.1995   41.0127 H   0  0  0  0  0  0  0  0  0  0  0  0
   46.9408   33.0780   39.5002 H   0  0  0  0  0  0  0  0  0  0  0  0
   49.6523   33.7452   37.7802 H   0  0  0  0  0  0  0  0  0  0  0  0
   49.2404   32.2742   37.5184 H   0  0  0  0  0  0  0  0  0  0  0  0
   47.1776   34.7786   36.8367 H   0  0  0  0  0  0  0  0  0  0  0  0
   44.7151   32.8697   35.5731 H   0  0  0  0  0  0  0  0  0  0  0  0
  1 14  1  0
  1  5  1  0
  2 11  1  0
  3  2  2  0
  4  3  1  0
  5  4  1  0
  5  6  2  0
  6  2  1  0
  7  8  2  0
  9  8  1  0
 10  9  2  0
 11 12  2  0
 11 10  1  0
 12  7  1  0
 13  1  1  0
 15  1  1  0
 16 15  1  0
 17 16  1  0
 18 17  1  0
 19 18  1  0
 19 17  1  0
 20 19  1  0
 21 20  2  0
 22 20  1  0
  3 23  1  0
  7 24  1  0
  8 25  1  0
  9 26  1  0
 13 27  1  0
 13 28  1  0
 13 29  1  0
 14 30  1  0
 14 31  1  0
 14 32  1  0
 15 33  1  0
 15 34  1  0
 17 35  1  1
 18 36  1  0
 18 37  1  0
 19 38  1  1
 22 39  1  0
M  ISO  8  23  14  24  14  25  14  26  14  27   8  28   8  29   8  30   8
M  ISO  8  31   8  32   8  33   8  34   8  35  13  36  13  37  13  38  13
M  ISO  1  39   3
M  END
>  <minimizedAffinity>  (1) 
-5.29880714

>  <minimizedRMSD>  (1) 
0.703861296

$$$$
