
     RDKit          3D

 47 50  0  0  1  0  0  0  0  0999 V2000
   48.7860   34.4560   41.8420 C   0  0  0  0  0  0  0  0  0  0  0  0
   46.5110   33.6610   44.6070 C   0  0  0  0  0  0  0  0  0  0  0  0
   45.4020   34.4590   44.2140 C   0  0  0  0  0  0  0  0  0  0  0  0
   46.0810   35.2150   42.6170 S   0  0  0  0  0  0  0  0  0  0  0  0
   47.7240   34.2900   42.8240 C   0  0  0  0  0  0  0  0  0  0  0  0
   47.5200   33.7410   43.7760 N   0  0  0  0  0  0  0  0  0  0  0  0
   47.0610   31.0520   47.0790 C   0  0  0  0  0  0  0  0  0  0  0  0
   46.1590   31.3940   48.1080 C   0  0  0  0  0  0  0  0  0  0  0  0
   45.3720   32.5120   47.9560 C   0  0  0  0  0  0  0  0  0  0  0  0
   45.5320   33.2220   46.7840 N   0  0  0  0  0  0  0  0  0  0  0  0
   46.3900   32.8860   45.8180 C   0  0  0  0  0  0  0  0  0  0  0  0
   47.1640   31.8010   45.9500 N   0  0  0  0  0  0  0  0  0  0  0  0
   50.0920   33.9350   42.4690 C   0  0  0  0  0  0  0  0  0  0  0  0
   48.9590   35.8730   41.4860 C   0  0  0  0  0  0  0  0  0  0  0  0
   48.6170   33.5730   40.6250 C   0  0  0  0  0  0  0  0  0  0  0  0
   47.9980   34.2740   39.5840 O   0  0  0  0  0  0  0  0  0  0  0  0
   48.3060   33.6600   38.3790 C   0  0  2  0  0  0  0  0  0  0  0  0
   48.3840   34.5490   37.1860 C   0  0  0  0  0  0  0  0  0  0  0  0
   47.3550   33.5360   37.2480 C   0  0  1  0  0  0  0  0  0  0  0  0
   47.5820   32.3630   36.3140 C   0  0  0  0  0  0  0  0  0  0  0  0
   48.3630   31.3750   36.6230 O   0  0  0  0  0  0  0  0  0  0  0  0
   46.9480   32.2910   35.0760 O   0  0  0  0  0  0  0  0  0  0  0  0
   47.7590   32.1300   33.9370 C   0  0  0  0  0  0  0  0  0  0  0  0
   48.8120   33.0000   33.6360 C   0  0  0  0  0  0  0  0  0  0  0  0
   49.5670   32.7720   32.4920 C   0  0  0  0  0  0  0  0  0  0  0  0
   49.2820   31.7230   31.6850 N   0  0  0  0  0  0  0  0  0  0  0  0
   48.2480   30.9210   32.0350 C   0  0  0  0  0  0  0  0  0  0  0  0
   47.4700   31.0880   33.1430 N   0  0  0  0  0  0  0  0  0  0  0  0
   44.4253   34.5979   44.7005 H   0  0  0  0  0  0  0  0  0  0  0  0
   47.6945   30.1600   47.1929 H   0  0  0  0  0  0  0  0  0  0  0  0
   46.0861   30.7776   49.0161 H   0  0  0  0  0  0  0  0  0  0  0  0
   44.6531   32.8234   48.7281 H   0  0  0  0  0  0  0  0  0  0  0  0
   50.0107   33.9674   43.5655 H   0  0  0  0  0  0  0  0  0  0  0  0
   50.2664   32.8984   42.1447 H   0  0  0  0  0  0  0  0  0  0  0  0
   50.9320   34.5669   42.1447 H   0  0  0  0  0  0  0  0  0  0  0  0
   49.0325   36.4752   42.4036 H   0  0  0  0  0  0  0  0  0  0  0  0
   49.8784   35.9928   40.8941 H   0  0  0  0  0  0  0  0  0  0  0  0
   48.0954   36.2104   40.8941 H   0  0  0  0  0  0  0  0  0  0  0  0
   49.6063   33.2284   40.2894 H   0  0  0  0  0  0  0  0  0  0  0  0
   47.9845   32.7152   40.8971 H   0  0  0  0  0  0  0  0  0  0  0  0
   48.9285   32.9264   38.9122 H   0  0  0  0  0  0  0  0  0  0  0  0
   49.2170   34.4414   36.4757 H   0  0  0  0  0  0  0  0  0  0  0  0
   48.3895   35.6381   37.0315 H   0  0  0  0  0  0  0  0  0  0  0  0
   46.2576   33.5279   37.1721 H   0  0  0  0  0  0  0  0  0  0  0  0
   49.0389   33.8513   34.2946 H   0  0  0  0  0  0  0  0  0  0  0  0
   50.3992   33.4462   32.2412 H   0  0  0  0  0  0  0  0  0  0  0  0
   48.0183   30.0708   31.3759 H   0  0  0  0  0  0  0  0  0  0  0  0
  1 13  1  0
  1  5  1  0
  2 11  1  0
  3  2  2  0
  4  5  1  0
  4  3  1  0
  5  6  2  0
  6  2  1  0
  7  8  2  0
  9  8  1  0
 10  9  2  0
 11 12  2  0
 11 10  1  0
 12  7  1  0
 14  1  1  0
 15  1  1  0
 16 15  1  0
 17 16  1  0
 18 19  1  0
 18 17  1  0
 19 17  1  0
 20 21  2  0
 20 19  1  0
 22 20  1  0
 23 22  1  0
 24 23  2  0
 25 24  1  0
 26 27  1  0
 26 25  2  0
 27 28  2  0
 28 23  1  0
  3 29  1  0
  7 30  1  0
  8 31  1  0
  9 32  1  0
 13 33  1  0
 13 34  1  0
 13 35  1  0
 14 36  1  0
 14 37  1  0
 14 38  1  0
 15 39  1  0
 15 40  1  0
 17 41  1  1
 18 42  1  0
 18 43  1  0
 19 44  1  1
 24 45  1  0
 25 46  1  0
 27 47  1  0
M  ISO  8  29  14  30  14  31  14  32  14  33   8  34   8  35   8  36   8
M  ISO  8  37   8  38   8  39   8  40   8  41  13  42  13  43  13  44  13
M  ISO  3  45  14  46  14  47  14
M  END
>  <minimizedAffinity>  (1) 
-6.23744535

>  <minimizedRMSD>  (1) 
2.75620604

$$$$
