
     RDKit          3D

 48 51  0  0  1  0  0  0  0  0999 V2000
   48.2100   34.2540   41.8480 C   0  0  0  0  0  0  0  0  0  0  0  0
   46.3450   33.6270   44.9330 C   0  0  0  0  0  0  0  0  0  0  0  0
   45.2590   34.5140   44.7020 C   0  0  0  0  0  0  0  0  0  0  0  0
   45.7590   35.2110   43.0130 S   0  0  0  0  0  0  0  0  0  0  0  0
   47.3240   34.1550   42.9870 C   0  0  0  0  0  0  0  0  0  0  0  0
   47.2390   33.6120   43.9610 N   0  0  0  0  0  0  0  0  0  0  0  0
   47.2630   31.1380   47.4230 C   0  0  0  0  0  0  0  0  0  0  0  0
   46.3450   31.3810   48.4630 C   0  0  0  0  0  0  0  0  0  0  0  0
   45.4240   32.3880   48.3130 C   0  0  0  0  0  0  0  0  0  0  0  0
   45.4650   33.0980   47.1420 N   0  0  0  0  0  0  0  0  0  0  0  0
   46.3490   32.8580   46.1520 C   0  0  0  0  0  0  0  0  0  0  0  0
   47.2590   31.8770   46.2770 N   0  0  0  0  0  0  0  0  0  0  0  0
   49.4620   33.3800   42.1590 C   0  0  0  0  0  0  0  0  0  0  0  0
   48.7110   35.6550   41.6740 C   0  0  0  0  0  0  0  0  0  0  0  0
   47.7190   33.6900   40.5860 C   0  0  0  0  0  0  0  0  0  0  0  0
   47.9010   34.4800   39.4800 O   0  0  0  0  0  0  0  0  0  0  0  0
   48.2020   33.7290   38.3620 C   0  0  2  0  0  0  0  0  0  0  0  0
   48.4770   34.4710   37.0990 C   0  0  0  0  0  0  0  0  0  0  0  0
   47.3020   33.6220   37.1950 C   0  0  1  0  0  0  0  0  0  0  0  0
   47.4150   32.3370   36.3950 C   0  0  0  0  0  0  0  0  0  0  0  0
   48.0660   31.3030   36.8320 O   0  0  0  0  0  0  0  0  0  0  0  0
   46.8090   32.2130   35.1420 O   0  0  0  0  0  0  0  0  0  0  0  0
   47.7030   32.0740   34.0630 C   0  0  0  0  0  0  0  0  0  0  0  0
   48.8110   32.8300   33.7350 C   0  0  0  0  0  0  0  0  0  0  0  0
   49.5130   32.4590   32.6040 C   0  0  0  0  0  0  0  0  0  0  0  0
   49.1000   31.3830   31.8620 C   0  0  0  0  0  0  0  0  0  0  0  0
   47.9900   30.6370   32.2010 C   0  0  0  0  0  0  0  0  0  0  0  0
   47.3160   31.0100   33.3070 N   0  0  0  0  0  0  0  0  0  0  0  0
   44.3797   34.7331   45.3255 H   0  0  0  0  0  0  0  0  0  0  0  0
   48.0021   30.3315   47.5381 H   0  0  0  0  0  0  0  0  0  0  0  0
   46.3656   30.7741   49.3802 H   0  0  0  0  0  0  0  0  0  0  0  0
   44.6867   32.6145   49.0973 H   0  0  0  0  0  0  0  0  0  0  0  0
   49.5869   33.2928   43.2484 H   0  0  0  0  0  0  0  0  0  0  0  0
   49.3274   32.3786   41.7241 H   0  0  0  0  0  0  0  0  0  0  0  0
   50.3556   33.8516   41.7241 H   0  0  0  0  0  0  0  0  0  0  0  0
   48.8742   36.1113   42.6615 H   0  0  0  0  0  0  0  0  0  0  0  0
   49.6590   35.6388   41.1164 H   0  0  0  0  0  0  0  0  0  0  0  0
   47.9677   36.2436   41.1164 H   0  0  0  0  0  0  0  0  0  0  0  0
   48.2421   32.7379   40.4132 H   0  0  0  0  0  0  0  0  0  0  0  0
   46.6310   33.5803   40.7052 H   0  0  0  0  0  0  0  0  0  0  0  0
   48.6973   32.9817   38.9994 H   0  0  0  0  0  0  0  0  0  0  0  0
   49.3199   34.1720   36.4586 H   0  0  0  0  0  0  0  0  0  0  0  0
   48.6538   35.5256   36.8409 H   0  0  0  0  0  0  0  0  0  0  0  0
   46.2200   33.7596   37.0524 H   0  0  0  0  0  0  0  0  0  0  0  0
   49.1212   33.6897   34.3471 H   0  0  0  0  0  0  0  0  0  0  0  0
   50.4039   33.0276   32.2989 H   0  0  0  0  0  0  0  0  0  0  0  0
   49.6733   31.1047   30.9654 H   0  0  0  0  0  0  0  0  0  0  0  0
   47.6694   29.7763   31.5957 H   0  0  0  0  0  0  0  0  0  0  0  0
  1 13  1  0
  1  5  1  0
  2 11  1  0
  3  2  2  0
  4  3  1  0
  5  4  1  0
  5  6  2  0
  6  2  1  0
  7  8  2  0
  9  8  1  0
 10  9  2  0
 11 12  2  0
 11 10  1  0
 12  7  1  0
 14  1  1  0
 15  1  1  0
 16 15  1  0
 17 16  1  0
 18 19  1  0
 18 17  1  0
 19 17  1  0
 20 21  2  0
 20 19  1  0
 22 20  1  0
 23 22  1  0
 24 23  2  0
 25 24  1  0
 26 27  1  0
 26 25  2  0
 27 28  2  0
 28 23  1  0
  3 29  1  0
  7 30  1  0
  8 31  1  0
  9 32  1  0
 13 33  1  0
 13 34  1  0
 13 35  1  0
 14 36  1  0
 14 37  1  0
 14 38  1  0
 15 39  1  0
 15 40  1  0
 17 41  1  1
 18 42  1  0
 18 43  1  0
 19 44  1  1
 24 45  1  0
 25 46  1  0
 26 47  1  0
 27 48  1  0
M  ISO  8  29  14  30  14  31  14  32  14  33   8  34   8  35   8  36   8
M  ISO  8  37   8  38   8  39   8  40   8  41  13  42  13  43  13  44  13
M  ISO  4  45  14  46  14  47  14  48  14
M  END
>  <minimizedAffinity>  (1) 
-5.99830818

>  <minimizedRMSD>  (1) 
2.64678073

$$$$
