
     RDKit          3D

 34 37  0  0  1  0  0  0  0  0999 V2000
   48.1970   33.5440   38.9020 C   0  0  2  0  0  0  0  0  0  0  0  0
   48.3670   34.5530   37.7460 C   0  0  0  0  0  0  0  0  0  0  0  0
   48.1150   33.0610   37.4830 C   0  0  1  0  0  0  0  0  0  0  0  0
   49.1480   32.2780   36.8820 N   0  0  0  0  0  0  0  0  0  0  0  0
   50.2210   31.8790   37.5780 C   0  0  0  0  0  0  0  0  0  0  0  0
   51.1760   31.1150   36.8990 C   0  0  0  0  0  0  0  0  0  0  0  0
   51.0370   30.7780   35.5740 C   0  0  0  0  0  0  0  0  0  0  0  0
   51.9890   30.0030   34.8560 N   0  0  0  0  0  0  0  0  0  0  0  0
   49.9430   31.1960   34.9050 N   0  0  0  0  0  0  0  0  0  0  0  0
   49.0610   31.9190   35.5830 C   0  0  0  0  0  0  0  0  0  0  0  0
   48.0290   32.3100   34.9410 O   0  0  0  0  0  0  0  0  0  0  0  0
   45.7000   34.0960   41.4550 N   0  0  0  0  0  0  0  0  0  0  0  0
   44.9030   33.6910   40.4230 C   0  0  0  0  0  0  0  0  0  0  0  0
   45.6560   33.4250   39.3450 N   0  0  0  0  0  0  0  0  0  0  0  0
   46.9440   33.6660   39.7040 C   0  0  0  0  0  0  0  0  0  0  0  0
   46.9200   34.0650   40.9750 N   0  0  0  0  0  0  0  0  0  0  0  0
   44.9170   35.8130   42.9550 C   0  0  0  0  0  0  0  0  0  0  0  0
   45.3900   34.4840   42.7790 C   0  0  0  0  0  0  0  0  0  0  0  0
   45.5060   33.6920   43.8980 C   0  0  0  0  0  0  0  0  0  0  0  0
   45.1620   34.2330   45.0980 N   0  0  0  0  0  0  0  0  0  0  0  0
   44.7210   35.4810   45.2340 C   0  0  0  0  0  0  0  0  0  0  0  0
   44.6010   36.2710   44.1580 N   0  0  0  0  0  0  0  0  0  0  0  0
   48.7887   33.2318   39.7752 H   0  0  0  0  0  0  0  0  0  0  0  0
   47.5811   35.2935   37.5362 H   0  0  0  0  0  0  0  0  0  0  0  0
   49.1297   35.2873   37.4476 H   0  0  0  0  0  0  0  0  0  0  0  0
   47.3686   32.4704   36.9315 H   0  0  0  0  0  0  0  0  0  0  0  0
   50.3458   32.1412   38.6390 H   0  0  0  0  0  0  0  0  0  0  0  0
   52.0681   30.7725   37.4439 H   0  0  0  0  0  0  0  0  0  0  0  0
   51.8295   29.7823   33.8627 H   0  0  0  0  0  0  0  0  0  0  0  0
   52.8380   29.6624   35.3293 H   0  0  0  0  0  0  0  0  0  0  0  0
   43.8080   33.5969   40.4686 H   0  0  0  0  0  0  0  0  0  0  0  0
   44.8117   36.4710   42.0798 H   0  0  0  0  0  0  0  0  0  0  0  0
   45.8653   32.6549   43.8248 H   0  0  0  0  0  0  0  0  0  0  0  0
   44.4548   35.8645   46.2300 H   0  0  0  0  0  0  0  0  0  0  0  0
  1 15  1  0
  2  1  1  0
  3  2  1  0
  3  1  1  0
  4  3  1  0
  4  5  1  0
  6  5  2  0
  7  6  1  0
  8  7  1  0
  9  7  2  0
  9 10  1  0
 10  4  1  0
 11 10  2  0
 12 18  1  0
 13 12  1  0
 14 15  1  0
 14 13  2  0
 15 16  2  0
 16 12  1  0
 17 22  2  0
 18 17  1  0
 18 19  2  0
 19 20  1  0
 20 21  2  0
 22 21  1  0
  1 23  1  1
  2 24  1  0
  2 25  1  0
  3 26  1  1
  5 27  1  0
  6 28  1  0
  8 29  1  0
  8 30  1  0
 13 31  1  0
 17 32  1  0
 19 33  1  0
 21 34  1  0
M  ISO  8  23  13  24  13  25  13  26  13  27  14  28  14  31  14  32  14
M  ISO  2  33  14  34  14
M  END
>  <minimizedAffinity>  (1) 
-4.97700691

>  <minimizedRMSD>  (1) 
0.740523279

$$$$
