
     RDKit          3D

 46 49  0  0  1  0  0  0  0  0999 V2000
   48.7690   34.3280   41.7690 C   0  0  0  0  0  0  0  0  0  0  0  0
   46.5260   33.6180   44.5860 C   0  0  0  0  0  0  0  0  0  0  0  0
   45.4450   34.4540   44.1940 C   0  0  0  0  0  0  0  0  0  0  0  0
   46.1380   35.1670   42.5900 S   0  0  0  0  0  0  0  0  0  0  0  0
   47.7420   34.1910   42.7790 C   0  0  0  0  0  0  0  0  0  0  0  0
   47.5400   33.6510   43.7390 N   0  0  0  0  0  0  0  0  0  0  0  0
   47.0700   31.0410   47.0900 C   0  0  0  0  0  0  0  0  0  0  0  0
   46.1590   31.4070   48.1210 C   0  0  0  0  0  0  0  0  0  0  0  0
   45.3790   32.5310   47.9350 C   0  0  0  0  0  0  0  0  0  0  0  0
   45.5400   33.2140   46.7700 N   0  0  0  0  0  0  0  0  0  0  0  0
   46.4010   32.8640   45.7980 C   0  0  0  0  0  0  0  0  0  0  0  0
   47.1780   31.7710   45.9480 N   0  0  0  0  0  0  0  0  0  0  0  0
   50.1200   33.9390   42.4350 C   0  0  0  0  0  0  0  0  0  0  0  0
   48.9010   35.7440   41.3230 C   0  0  0  0  0  0  0  0  0  0  0  0
   48.6900   33.4010   40.6320 C   0  0  0  0  0  0  0  0  0  0  0  0
   47.8770   33.8010   39.6060 O   0  0  0  0  0  0  0  0  0  0  0  0
   48.4340   33.5150   38.3770 C   0  0  2  0  0  0  0  0  0  0  0  0
   48.4780   34.6290   37.3830 C   0  0  0  0  0  0  0  0  0  0  0  0
   47.6480   33.4650   37.1270 C   0  0  1  0  0  0  0  0  0  0  0  0
   48.1980   32.5590   36.0420 C   0  0  0  0  0  0  0  0  0  0  0  0
   49.3660   32.0010   36.1280 O   0  0  0  0  0  0  0  0  0  0  0  0
   47.4500   32.2830   34.8970 O   0  0  0  0  0  0  0  0  0  0  0  0
   48.0840   32.4130   33.6680 C   0  0  0  0  0  0  0  0  0  0  0  0
   48.0070   31.3290   32.8040 C   0  0  0  0  0  0  0  0  0  0  0  0
   48.7060   31.6700   31.6390 C   0  0  0  0  0  0  0  0  0  0  0  0
   49.1660   32.9670   31.8900 C   0  0  0  0  0  0  0  0  0  0  0  0
   48.7810   33.3710   33.0930 O   0  0  0  0  0  0  0  0  0  0  0  0
   44.4780   34.6343   44.6864 H   0  0  0  0  0  0  0  0  0  0  0  0
   47.6999   30.1486   47.2201 H   0  0  0  0  0  0  0  0  0  0  0  0
   46.0787   30.8101   49.0415 H   0  0  0  0  0  0  0  0  0  0  0  0
   44.6575   32.8603   48.6972 H   0  0  0  0  0  0  0  0  0  0  0  0
   50.0118   33.9702   43.5292 H   0  0  0  0  0  0  0  0  0  0  0  0
   50.4032   32.9228   42.1234 H   0  0  0  0  0  0  0  0  0  0  0  0
   50.9003   34.6490   42.1234 H   0  0  0  0  0  0  0  0  0  0  0  0
   48.9623   36.4014   42.2028 H   0  0  0  0  0  0  0  0  0  0  0  0
   49.8133   35.8545   40.7185 H   0  0  0  0  0  0  0  0  0  0  0  0
   48.0248   36.0212   40.7185 H   0  0  0  0  0  0  0  0  0  0  0  0
   49.7053   33.2697   40.2296 H   0  0  0  0  0  0  0  0  0  0  0  0
   48.2484   32.4737   41.0259 H   0  0  0  0  0  0  0  0  0  0  0  0
   49.1300   32.8090   38.8535 H   0  0  0  0  0  0  0  0  0  0  0  0
   48.0103   35.5959   37.6203 H   0  0  0  0  0  0  0  0  0  0  0  0
   49.2769   35.1492   36.8342 H   0  0  0  0  0  0  0  0  0  0  0  0
   46.5847   33.2924   36.9044 H   0  0  0  0  0  0  0  0  0  0  0  0
   47.4916   30.3769   32.9986 H   0  0  0  0  0  0  0  0  0  0  0  0
   48.8579   31.0597   30.7365 H   0  0  0  0  0  0  0  0  0  0  0  0
   49.7632   33.5675   31.1881 H   0  0  0  0  0  0  0  0  0  0  0  0
  1 13  1  0
  1  5  1  0
  2 11  1  0
  3  2  2  0
  4  5  1  0
  4  3  1  0
  5  6  2  0
  6  2  1  0
  7  8  2  0
  9  8  1  0
 10  9  2  0
 11 12  2  0
 11 10  1  0
 12  7  1  0
 14  1  1  0
 15  1  1  0
 16 15  1  0
 17 16  1  0
 18 17  1  0
 19 18  1  0
 19 17  1  0
 20 21  2  0
 20 19  1  0
 22 20  1  0
 23 22  1  0
 24 23  2  0
 25 26  2  0
 25 24  1  0
 26 27  1  0
 27 23  1  0
  3 28  1  0
  7 29  1  0
  8 30  1  0
  9 31  1  0
 13 32  1  0
 13 33  1  0
 13 34  1  0
 14 35  1  0
 14 36  1  0
 14 37  1  0
 15 38  1  0
 15 39  1  0
 17 40  1  1
 18 41  1  0
 18 42  1  0
 19 43  1  1
 24 44  1  0
 25 45  1  0
 26 46  1  0
M  ISO  8  28  14  29  14  30  14  31  14  32   8  33   8  34   8  35   8
M  ISO  8  36   8  37   8  38   8  39   8  40  13  41  13  42  13  43  13
M  ISO  3  44  14  45  14  46  14
M  END
>  <minimizedAffinity>  (1) 
-6.13391733

>  <minimizedRMSD>  (1) 
2.57615232

$$$$
