
     RDKit          3D

 51 53  0  0  1  0  0  0  0  0999 V2000
   48.7480   34.4170   41.8420 C   0  0  0  0  0  0  0  0  0  0  0  0
   46.5020   33.6540   44.6270 C   0  0  0  0  0  0  0  0  0  0  0  0
   45.4070   34.4700   44.2410 C   0  0  0  0  0  0  0  0  0  0  0  0
   46.0980   35.2070   42.6370 S   0  0  0  0  0  0  0  0  0  0  0  0
   47.7140   34.2540   42.8420 C   0  0  0  0  0  0  0  0  0  0  0  0
   47.5280   33.7010   43.7970 N   0  0  0  0  0  0  0  0  0  0  0  0
   47.0590   31.0610   47.1180 C   0  0  0  0  0  0  0  0  0  0  0  0
   46.1410   31.4010   48.1530 C   0  0  0  0  0  0  0  0  0  0  0  0
   45.3590   32.5170   47.9630 C   0  0  0  0  0  0  0  0  0  0  0  0
   45.5070   33.2200   46.8080 N   0  0  0  0  0  0  0  0  0  0  0  0
   46.3840   32.8770   45.8430 C   0  0  0  0  0  0  0  0  0  0  0  0
   47.1650   31.8010   45.9840 N   0  0  0  0  0  0  0  0  0  0  0  0
   50.0890   33.9540   42.4810 C   0  0  0  0  0  0  0  0  0  0  0  0
   48.9340   35.8660   41.4880 C   0  0  0  0  0  0  0  0  0  0  0  0
   48.6390   33.5780   40.6460 C   0  0  0  0  0  0  0  0  0  0  0  0
   48.0110   34.1630   39.5750 O   0  0  0  0  0  0  0  0  0  0  0  0
   48.4510   33.6340   38.3780 C   0  0  2  0  0  0  0  0  0  0  0  0
   48.2260   34.4550   37.1570 C   0  0  0  0  0  0  0  0  0  0  0  0
   47.5300   33.1930   37.3060 C   0  0  1  0  0  0  0  0  0  0  0  0
   48.0480   32.0930   36.4000 C   0  0  0  0  0  0  0  0  0  0  0  0
   49.3160   31.8370   36.2810 O   0  0  0  0  0  0  0  0  0  0  0  0
   47.1640   31.3060   35.6610 O   0  0  0  0  0  0  0  0  0  0  0  0
   46.7690   31.6140   34.3480 C   0  0  0  0  0  0  0  0  0  0  0  0
   45.4380   32.2910   34.3720 C   0  0  0  0  0  0  0  0  0  0  0  0
   47.7560   32.4940   33.6270 C   0  0  0  0  0  0  0  0  0  0  0  0
   46.6690   30.3160   33.5750 C   0  0  0  0  0  0  0  0  0  0  0  0
   44.4356   34.6292   44.7319 H   0  0  0  0  0  0  0  0  0  0  0  0
   47.6994   30.1751   47.2406 H   0  0  0  0  0  0  0  0  0  0  0  0
   46.0606   30.7954   49.0677 H   0  0  0  0  0  0  0  0  0  0  0  0
   44.6323   32.8328   48.7260 H   0  0  0  0  0  0  0  0  0  0  0  0
   50.0024   33.9839   43.5772 H   0  0  0  0  0  0  0  0  0  0  0  0
   50.3132   32.9264   42.1588 H   0  0  0  0  0  0  0  0  0  0  0  0
   50.8994   34.6244   42.1588 H   0  0  0  0  0  0  0  0  0  0  0  0
   49.0105   36.4617   42.4096 H   0  0  0  0  0  0  0  0  0  0  0  0
   49.8547   35.9840   40.8977 H   0  0  0  0  0  0  0  0  0  0  0  0
   48.0730   36.2127   40.8977 H   0  0  0  0  0  0  0  0  0  0  0  0
   49.6558   33.2987   40.3328 H   0  0  0  0  0  0  0  0  0  0  0  0
   48.0149   32.7188   40.9327 H   0  0  0  0  0  0  0  0  0  0  0  0
   49.2885   33.1455   38.8976 H   0  0  0  0  0  0  0  0  0  0  0  0
   49.0257   34.5554   36.4084 H   0  0  0  0  0  0  0  0  0  0  0  0
   47.9158   35.4933   36.9678 H   0  0  0  0  0  0  0  0  0  0  0  0
   46.4786   32.8701   37.2887 H   0  0  0  0  0  0  0  0  0  0  0  0
   45.1261   32.4497   35.4148 H   0  0  0  0  0  0  0  0  0  0  0  0
   45.5110   33.2615   33.8594 H   0  0  0  0  0  0  0  0  0  0  0  0
   44.6966   31.6605   33.8594 H   0  0  0  0  0  0  0  0  0  0  0  0
   48.3669   33.0386   34.3620 H   0  0  0  0  0  0  0  0  0  0  0  0
   48.4087   31.8727   32.9962 H   0  0  0  0  0  0  0  0  0  0  0  0
   47.2133   33.2134   32.9962 H   0  0  0  0  0  0  0  0  0  0  0  0
   46.6041   29.4737   34.2795 H   0  0  0  0  0  0  0  0  0  0  0  0
   45.7696   30.3346   32.9419 H   0  0  0  0  0  0  0  0  0  0  0  0
   47.5606   30.1966   32.9419 H   0  0  0  0  0  0  0  0  0  0  0  0
  1 13  1  0
  1  5  1  0
  2 11  1  0
  3  2  2  0
  4  5  1  0
  4  3  1  0
  5  6  2  0
  6  2  1  0
  7  8  2  0
  9  8  1  0
 10  9  2  0
 11 12  2  0
 11 10  1  0
 12  7  1  0
 14  1  1  0
 15  1  1  0
 16 15  1  0
 17 16  1  0
 18 19  1  0
 18 17  1  0
 19 17  1  0
 20 19  1  0
 21 20  2  0
 22 20  1  0
 23 24  1  0
 23 22  1  0
 25 23  1  0
 26 23  1  0
  3 27  1  0
  7 28  1  0
  8 29  1  0
  9 30  1  0
 13 31  1  0
 13 32  1  0
 13 33  1  0
 14 34  1  0
 14 35  1  0
 14 36  1  0
 15 37  1  0
 15 38  1  0
 17 39  1  1
 18 40  1  0
 18 41  1  0
 19 42  1  1
 24 43  1  0
 24 44  1  0
 24 45  1  0
 25 46  1  0
 25 47  1  0
 25 48  1  0
 26 49  1  0
 26 50  1  0
 26 51  1  0
M  ISO  8  27  14  28  14  29  14  30  14  31   8  32   8  33   8  34   8
M  ISO  8  35   8  36   8  37   8  38   8  39  13  40  13  41  13  42  13
M  ISO  8  43   8  44   8  45   8  46   8  47   8  48   8  49   8  50   8
M  ISO  1  51   8
M  END
>  <minimizedAffinity>  (1) 
-5.56332779

>  <minimizedRMSD>  (1) 
1.78564048

$$$$
