
     RDKit          3D

 41 43  0  0  1  0  0  0  0  0999 V2000
   48.7480   34.4030   41.8650 C   0  0  0  0  0  0  0  0  0  0  0  0
   46.5020   33.6380   44.6640 C   0  0  0  0  0  0  0  0  0  0  0  0
   45.4090   34.4660   44.2660 C   0  0  0  0  0  0  0  0  0  0  0  0
   46.1030   35.2020   42.6710 S   0  0  0  0  0  0  0  0  0  0  0  0
   47.7180   34.2430   42.8690 C   0  0  0  0  0  0  0  0  0  0  0  0
   47.5150   33.6960   43.8220 N   0  0  0  0  0  0  0  0  0  0  0  0
   47.0920   31.0820   47.1560 C   0  0  0  0  0  0  0  0  0  0  0  0
   46.1670   31.4070   48.1960 C   0  0  0  0  0  0  0  0  0  0  0  0
   45.3630   32.5050   47.9930 C   0  0  0  0  0  0  0  0  0  0  0  0
   45.5010   33.2130   46.8180 N   0  0  0  0  0  0  0  0  0  0  0  0
   46.3800   32.8730   45.8770 C   0  0  0  0  0  0  0  0  0  0  0  0
   47.1860   31.8100   46.0260 N   0  0  0  0  0  0  0  0  0  0  0  0
   50.0880   33.9340   42.5080 C   0  0  0  0  0  0  0  0  0  0  0  0
   48.9370   35.8440   41.5100 C   0  0  0  0  0  0  0  0  0  0  0  0
   48.6420   33.5550   40.6770 C   0  0  0  0  0  0  0  0  0  0  0  0
   47.8160   34.0330   39.6870 O   0  0  0  0  0  0  0  0  0  0  0  0
   48.2370   33.6090   38.4420 C   0  0  2  0  0  0  0  0  0  0  0  0
   48.4950   34.6670   37.4210 C   0  0  0  0  0  0  0  0  0  0  0  0
   47.4040   33.7260   37.2270 C   0  0  1  0  0  0  0  0  0  0  0  0
   47.6750   32.7030   36.1420 C   0  0  0  0  0  0  0  0  0  0  0  0
   48.7480   32.7290   35.4120 O   0  0  0  0  0  0  0  0  0  0  0  0
   46.7740   31.6730   35.8810 O   0  0  0  0  0  0  0  0  0  0  0  0
   45.5000   31.9930   35.4430 C   0  0  0  0  0  0  0  0  0  0  0  0
   45.2820   32.4660   34.2810 O   0  0  0  0  0  0  0  0  0  0  0  0
   44.4358   34.6294   44.7520 H   0  0  0  0  0  0  0  0  0  0  0  0
   47.7489   30.2087   47.2822 H   0  0  0  0  0  0  0  0  0  0  0  0
   46.1009   30.8073   49.1158 H   0  0  0  0  0  0  0  0  0  0  0  0
   44.6269   32.8110   48.7509 H   0  0  0  0  0  0  0  0  0  0  0  0
   49.9994   33.9650   43.6040 H   0  0  0  0  0  0  0  0  0  0  0  0
   50.3085   32.9053   42.1869 H   0  0  0  0  0  0  0  0  0  0  0  0
   50.9019   34.6007   42.1869 H   0  0  0  0  0  0  0  0  0  0  0  0
   49.0153   36.4412   42.4305 H   0  0  0  0  0  0  0  0  0  0  0  0
   49.8578   35.9584   40.9193 H   0  0  0  0  0  0  0  0  0  0  0  0
   48.0768   36.1920   40.9193 H   0  0  0  0  0  0  0  0  0  0  0  0
   49.6497   33.4377   40.2519 H   0  0  0  0  0  0  0  0  0  0  0  0
   48.1948   32.6091   41.0167 H   0  0  0  0  0  0  0  0  0  0  0  0
   48.7717   32.7675   38.9067 H   0  0  0  0  0  0  0  0  0  0  0  0
   48.2777   35.7199   37.6537 H   0  0  0  0  0  0  0  0  0  0  0  0
   49.3677   34.9775   36.8277 H   0  0  0  0  0  0  0  0  0  0  0  0
   46.3206   33.8035   37.0530 H   0  0  0  0  0  0  0  0  0  0  0  0
   44.6485   31.8334   36.1209 H   0  0  0  0  0  0  0  0  0  0  0  0
  1 13  1  0
  1  5  1  0
  2 11  1  0
  3  2  2  0
  4  5  1  0
  4  3  1  0
  5  6  2  0
  6  2  1  0
  7  8  2  0
  9  8  1  0
 10  9  2  0
 11 12  2  0
 11 10  1  0
 12  7  1  0
 14  1  1  0
 15  1  1  0
 16 15  1  0
 17 16  1  0
 18 17  1  0
 19 18  1  0
 19 17  1  0
 20 19  1  0
 21 20  2  0
 22 20  1  0
 23 22  1  0
 24 23  2  0
  3 25  1  0
  7 26  1  0
  8 27  1  0
  9 28  1  0
 13 29  1  0
 13 30  1  0
 13 31  1  0
 14 32  1  0
 14 33  1  0
 14 34  1  0
 15 35  1  0
 15 36  1  0
 17 37  1  1
 18 38  1  0
 18 39  1  0
 19 40  1  1
 23 41  1  0
M  ISO  8  25  14  26  14  27  14  28  14  29   8  30   8  31   8  32   8
M  ISO  8  33   8  34   8  35   8  36   8  37  13  38  13  39  13  40  13
M  ISO  1  41   6
M  END
>  <minimizedAffinity>  (1) 
-5.47951126

>  <minimizedRMSD>  (1) 
1.25816989

$$$$
