
     RDKit          3D

 46 49  0  0  1  0  0  0  0  0999 V2000
   48.7490   34.4000   41.8730 C   0  0  0  0  0  0  0  0  0  0  0  0
   46.5030   33.6470   44.6630 C   0  0  0  0  0  0  0  0  0  0  0  0
   45.4120   34.4690   44.2760 C   0  0  0  0  0  0  0  0  0  0  0  0
   46.1050   35.2050   42.6730 S   0  0  0  0  0  0  0  0  0  0  0  0
   47.7170   34.2430   42.8730 C   0  0  0  0  0  0  0  0  0  0  0  0
   47.5220   33.6950   43.8260 N   0  0  0  0  0  0  0  0  0  0  0  0
   47.0630   31.0510   47.1500 C   0  0  0  0  0  0  0  0  0  0  0  0
   46.1360   31.3840   48.1800 C   0  0  0  0  0  0  0  0  0  0  0  0
   45.3450   32.4990   47.9870 C   0  0  0  0  0  0  0  0  0  0  0  0
   45.5000   33.2030   46.8330 N   0  0  0  0  0  0  0  0  0  0  0  0
   46.3760   32.8760   45.8760 C   0  0  0  0  0  0  0  0  0  0  0  0
   47.1700   31.7950   46.0190 N   0  0  0  0  0  0  0  0  0  0  0  0
   50.0930   33.9530   42.5170 C   0  0  0  0  0  0  0  0  0  0  0  0
   48.9260   35.8430   41.4960 C   0  0  0  0  0  0  0  0  0  0  0  0
   48.6440   33.5460   40.6860 C   0  0  0  0  0  0  0  0  0  0  0  0
   47.8540   34.0350   39.6780 O   0  0  0  0  0  0  0  0  0  0  0  0
   48.2830   33.6100   38.4370 C   0  0  2  0  0  0  0  0  0  0  0  0
   48.4800   34.6710   37.4070 C   0  0  0  0  0  0  0  0  0  0  0  0
   47.4330   33.6840   37.2260 C   0  0  1  0  0  0  0  0  0  0  0  0
   47.7420   32.6600   36.1540 C   0  0  0  0  0  0  0  0  0  0  0  0
   48.6800   32.8330   35.2770 O   0  0  0  0  0  0  0  0  0  0  0  0
   47.0350   31.4650   36.0630 O   0  0  0  0  0  0  0  0  0  0  0  0
   46.1610   31.1990   35.0010 C   0  0  0  0  0  0  0  0  0  0  0  0
   44.7000   31.1280   35.1630 C   0  0  0  0  0  0  0  0  0  0  0  0
   45.3380   32.2790   34.3930 C   0  0  0  0  0  0  0  0  0  0  0  0
   44.4412   34.6322   44.7667 H   0  0  0  0  0  0  0  0  0  0  0  0
   47.7083   30.1689   47.2743 H   0  0  0  0  0  0  0  0  0  0  0  0
   46.0539   30.7763   49.0932 H   0  0  0  0  0  0  0  0  0  0  0  0
   44.6104   32.8094   48.7446 H   0  0  0  0  0  0  0  0  0  0  0  0
   50.0024   33.9831   43.6128 H   0  0  0  0  0  0  0  0  0  0  0  0
   50.3299   32.9277   42.1967 H   0  0  0  0  0  0  0  0  0  0  0  0
   50.8968   34.6322   42.1967 H   0  0  0  0  0  0  0  0  0  0  0  0
   49.0009   36.4537   42.4078 H   0  0  0  0  0  0  0  0  0  0  0  0
   49.8448   35.9567   40.9020 H   0  0  0  0  0  0  0  0  0  0  0  0
   48.0619   36.1754   40.9020 H   0  0  0  0  0  0  0  0  0  0  0  0
   49.6568   33.3994   40.2827 H   0  0  0  0  0  0  0  0  0  0  0  0
   48.1637   32.6157   41.0234 H   0  0  0  0  0  0  0  0  0  0  0  0
   48.8570   32.7946   38.9013 H   0  0  0  0  0  0  0  0  0  0  0  0
   48.2170   35.7142   37.6365 H   0  0  0  0  0  0  0  0  0  0  0  0
   49.3321   35.0167   36.8034 H   0  0  0  0  0  0  0  0  0  0  0  0
   46.3467   33.7170   37.0562 H   0  0  0  0  0  0  0  0  0  0  0  0
   46.9141   30.4904   34.6257 H   0  0  0  0  0  0  0  0  0  0  0  0
   44.1226   30.3597   34.6279 H   0  0  0  0  0  0  0  0  0  0  0  0
   44.0123   31.0468   36.0177 H   0  0  0  0  0  0  0  0  0  0  0  0
   45.3502   33.2924   34.8206 H   0  0  0  0  0  0  0  0  0  0  0  0
   45.2254   32.7109   33.3876 H   0  0  0  0  0  0  0  0  0  0  0  0
  1 13  1  0
  1  5  1  0
  2 11  1  0
  3  2  2  0
  4  5  1  0
  4  3  1  0
  5  6  2  0
  6  2  1  0
  7  8  2  0
  9  8  1  0
 10  9  2  0
 11 12  2  0
 11 10  1  0
 12  7  1  0
 14  1  1  0
 15  1  1  0
 16 15  1  0
 17 16  1  0
 18 17  1  0
 19 18  1  0
 19 17  1  0
 20 19  1  0
 21 20  2  0
 22 20  1  0
 23 24  1  0
 23 22  1  0
 25 23  1  0
 25 24  1  0
  3 26  1  0
  7 27  1  0
  8 28  1  0
  9 29  1  0
 13 30  1  0
 13 31  1  0
 13 32  1  0
 14 33  1  0
 14 34  1  0
 14 35  1  0
 15 36  1  0
 15 37  1  0
 17 38  1  1
 18 39  1  0
 18 40  1  0
 19 41  1  1
 23 42  1  0
 24 43  1  0
 24 44  1  0
 25 45  1  0
 25 46  1  0
M  ISO  8  26  14  27  14  28  14  29  14  30   8  31   8  32   8  33   8
M  ISO  8  34   8  35   8  36   8  37   8  38  13  39  13  40  13  41  13
M  ISO  5  42  13  43  13  44  13  45  13  46  13
M  END
>  <minimizedAffinity>  (1) 
-5.56478882

>  <minimizedRMSD>  (1) 
1.32706511

$$$$
