
     RDKit          3D

 42 44  0  0  1  0  0  0  0  0999 V2000
   48.0490   34.5240   41.6670 C   0  0  0  0  0  0  0  0  0  0  0  0
   46.2310   33.8290   44.7770 C   0  0  0  0  0  0  0  0  0  0  0  0
   45.1430   34.7190   44.5750 C   0  0  0  0  0  0  0  0  0  0  0  0
   45.6170   35.4520   42.8970 S   0  0  0  0  0  0  0  0  0  0  0  0
   47.1840   34.4020   42.8180 C   0  0  0  0  0  0  0  0  0  0  0  0
   47.1020   33.8450   43.7860 N   0  0  0  0  0  0  0  0  0  0  0  0
   47.2430   31.3260   47.2080 C   0  0  0  0  0  0  0  0  0  0  0  0
   46.3110   31.5180   48.2730 C   0  0  0  0  0  0  0  0  0  0  0  0
   45.3560   32.5130   48.1290 C   0  0  0  0  0  0  0  0  0  0  0  0
   45.3770   33.2410   46.9680 N   0  0  0  0  0  0  0  0  0  0  0  0
   46.2680   33.0370   45.9800 C   0  0  0  0  0  0  0  0  0  0  0  0
   47.1990   32.0860   46.0900 N   0  0  0  0  0  0  0  0  0  0  0  0
   49.0950   33.3720   41.7570 C   0  0  0  0  0  0  0  0  0  0  0  0
   48.8200   35.8010   41.7060 C   0  0  0  0  0  0  0  0  0  0  0  0
   47.4310   34.2890   40.3580 C   0  0  0  0  0  0  0  0  0  0  0  0
   48.2370   34.5360   39.2770 O   0  0  0  0  0  0  0  0  0  0  0  0
   48.0790   33.5730   38.3020 C   0  0  2  0  0  0  0  0  0  0  0  0
   48.8090   33.7860   37.0170 C   0  0  0  0  0  0  0  0  0  0  0  0
   47.3560   33.8160   37.0370 C   0  0  1  0  0  0  0  0  0  0  0  0
   46.7200   32.5950   36.4000 C   0  0  0  0  0  0  0  0  0  0  0  0
   47.2840   31.4270   36.4110 O   0  0  0  0  0  0  0  0  0  0  0  0
   45.4750   32.6830   35.7720 O   0  0  0  0  0  0  0  0  0  0  0  0
   45.4040   32.1970   34.4380 C   0  0  0  0  0  0  0  0  0  0  0  0
   44.2712   34.9241   45.2137 H   0  0  0  0  0  0  0  0  0  0  0  0
   48.0118   30.5446   47.2988 H   0  0  0  0  0  0  0  0  0  0  0  0
   46.3496   30.8959   49.1794 H   0  0  0  0  0  0  0  0  0  0  0  0
   44.6118   32.7100   48.9147 H   0  0  0  0  0  0  0  0  0  0  0  0
   49.3008   33.1453   42.8135 H   0  0  0  0  0  0  0  0  0  0  0  0
   48.6963   32.4751   41.2605 H   0  0  0  0  0  0  0  0  0  0  0  0
   50.0261   33.6826   41.2605 H   0  0  0  0  0  0  0  0  0  0  0  0
   48.9954   36.0916   42.7523 H   0  0  0  0  0  0  0  0  0  0  0  0
   49.7853   35.6622   41.1972 H   0  0  0  0  0  0  0  0  0  0  0  0
   48.2476   36.5906   41.1972 H   0  0  0  0  0  0  0  0  0  0  0  0
   47.1174   33.2356   40.3144 H   0  0  0  0  0  0  0  0  0  0  0  0
   46.5957   35.0009   40.2837 H   0  0  0  0  0  0  0  0  0  0  0  0
   47.9913   32.7996   39.0792 H   0  0  0  0  0  0  0  0  0  0  0  0
   49.3348   32.9469   36.5380 H   0  0  0  0  0  0  0  0  0  0  0  0
   49.5957   34.4748   36.6753 H   0  0  0  0  0  0  0  0  0  0  0  0
   46.5806   34.5336   36.7307 H   0  0  0  0  0  0  0  0  0  0  0  0
   45.2450   31.1086   34.4522 H   0  0  0  0  0  0  0  0  0  0  0  0
   44.5673   32.6830   33.9147 H   0  0  0  0  0  0  0  0  0  0  0  0
   46.3447   32.4233   33.9147 H   0  0  0  0  0  0  0  0  0  0  0  0
  1 14  1  0
  1 13  1  0
  1  5  1  0
  2 11  1  0
  3  2  2  0
  4  3  1  0
  5  4  1  0
  5  6  2  0
  6  2  1  0
  7  8  2  0
  9  8  1  0
 10  9  2  0
 11 12  2  0
 11 10  1  0
 12  7  1  0
 15  1  1  0
 16 15  1  0
 17 16  1  0
 18 19  1  0
 18 17  1  0
 19 17  1  0
 20 21  2  0
 20 19  1  0
 22 20  1  0
 23 22  1  0
  3 24  1  0
  7 25  1  0
  8 26  1  0
  9 27  1  0
 13 28  1  0
 13 29  1  0
 13 30  1  0
 14 31  1  0
 14 32  1  0
 14 33  1  0
 15 34  1  0
 15 35  1  0
 17 36  1  1
 18 37  1  0
 18 38  1  0
 19 39  1  1
 23 40  1  0
 23 41  1  0
 23 42  1  0
M  ISO  8  24  14  25  14  26  14  27  14  28   8  29   8  30   8  31   8
M  ISO  8  32   8  33   8  34   8  35   8  36  13  37  13  38  13  39  13
M  ISO  3  40   8  41   8  42   8
M  END
>  <minimizedAffinity>  (1) 
-5.27300358

>  <minimizedRMSD>  (1) 
0.74058187

$$$$
