
     RDKit          3D

 30 32  0  0  1  0  0  0  0  0999 V2000
   46.1570   33.7490   41.7650 N   0  0  0  0  0  0  0  0  0  0  0  0
   45.9670   32.5100   41.2450 C   0  0  0  0  0  0  0  0  0  0  0  0
   46.6680   32.3960   40.1120 N   0  0  0  0  0  0  0  0  0  0  0  0
   47.3060   33.5650   39.9110 C   0  0  0  0  0  0  0  0  0  0  0  0
   46.9830   34.3710   40.9230 N   0  0  0  0  0  0  0  0  0  0  0  0
   45.2690   35.7420   42.8040 C   0  0  0  0  0  0  0  0  0  0  0  0
   45.6490   34.3780   42.9390 C   0  0  0  0  0  0  0  0  0  0  0  0
   45.5140   33.7740   44.1660 C   0  0  0  0  0  0  0  0  0  0  0  0
   45.0220   34.5190   45.1880 N   0  0  0  0  0  0  0  0  0  0  0  0
   44.6730   35.7940   45.0380 C   0  0  0  0  0  0  0  0  0  0  0  0
   44.7960   36.3970   43.8600 N   0  0  0  0  0  0  0  0  0  0  0  0
   48.2120   33.9690   38.8020 C   0  0  2  0  0  0  0  0  0  0  0  0
   47.6040   34.0040   37.3850 C   0  0  0  0  0  0  0  0  0  0  0  0
   48.6340   32.9500   37.7820 C   0  0  1  0  0  0  0  0  0  0  0  0
   49.9970   33.0710   37.3170 N   0  0  0  0  0  0  0  0  0  0  0  0
   50.9050   32.0630   37.7620 C   0  0  0  0  0  0  0  0  0  0  0  0
   50.5090   30.8870   38.1640 N   0  0  0  0  0  0  0  0  0  0  0  0
   52.3340   32.2420   37.8100 N   0  0  0  0  0  0  0  0  0  0  0  0
   49.4700   30.6680   38.1610 H   0  0  0  0  0  0  0  0  0  0  0  0
   45.3362   31.7240   41.6857 H   0  0  0  0  0  0  0  0  0  0  0  0
   45.3657   36.2510   41.8336 H   0  0  0  0  0  0  0  0  0  0  0  0
   45.7955   32.7211   44.3148 H   0  0  0  0  0  0  0  0  0  0  0  0
   44.2785   36.3550   45.8980 H   0  0  0  0  0  0  0  0  0  0  0  0
   48.7592   34.6715   39.4478 H   0  0  0  0  0  0  0  0  0  0  0  0
   47.8759   34.8081   36.6854 H   0  0  0  0  0  0  0  0  0  0  0  0
   46.5872   33.9903   36.9656 H   0  0  0  0  0  0  0  0  0  0  0  0
   48.6436   31.8525   37.7086 H   0  0  0  0  0  0  0  0  0  0  0  0
   50.2961   33.8399   36.7003 H   0  0  0  0  0  0  0  0  0  0  0  0
   52.9381   31.4763   38.1412 H   0  0  0  0  0  0  0  0  0  0  0  0
   52.7513   33.1356   37.5131 H   0  0  0  0  0  0  0  0  0  0  0  0
  1  7  1  0
  2  1  1  0
  3  2  2  0
  4  3  1  0
  4  5  2  0
  5  1  1  0
  6  7  2  0
  6 11  1  0
  7  8  1  0
  8  9  2  0
 10  9  1  0
 11 10  2  0
 12  4  1  0
 13 14  1  0
 13 12  1  0
 14 12  1  0
 15 16  1  0
 15 14  1  0
 16 18  1  0
 16 17  2  0
 19 17  1  0
  2 20  1  0
  6 21  1  0
  8 22  1  0
 10 23  1  0
 12 24  1  1
 13 25  1  0
 13 26  1  0
 14 27  1  1
 15 28  1  0
 18 29  1  0
 18 30  1  0
M  ISO  8  20  14  21  14  22  14  23  14  24  13  25  13  26  13  27  13
M  END
>  <minimizedAffinity>  (1) 
-4.97446728

>  <minimizedRMSD>  (1) 
1.04076409

$$$$
