
     RDKit          3D

 30 33  0  0  1  0  0  0  0  0999 V2000
   45.7610   34.1490   41.4830 N   0  0  0  0  0  0  0  0  0  0  0  0
   44.9910   33.7150   40.4440 C   0  0  0  0  0  0  0  0  0  0  0  0
   45.7700   33.4610   39.3850 N   0  0  0  0  0  0  0  0  0  0  0  0
   47.0470   33.7350   39.7530 C   0  0  0  0  0  0  0  0  0  0  0  0
   46.9900   34.1470   41.0220 N   0  0  0  0  0  0  0  0  0  0  0  0
   44.9290   35.8410   42.9780 C   0  0  0  0  0  0  0  0  0  0  0  0
   45.4190   34.5410   42.8000 C   0  0  0  0  0  0  0  0  0  0  0  0
   45.5380   33.7210   43.9150 C   0  0  0  0  0  0  0  0  0  0  0  0
   45.1660   34.2420   45.1170 N   0  0  0  0  0  0  0  0  0  0  0  0
   44.7010   35.4920   45.2530 C   0  0  0  0  0  0  0  0  0  0  0  0
   44.5860   36.2840   44.1800 N   0  0  0  0  0  0  0  0  0  0  0  0
   48.3130   33.6400   38.9760 C   0  0  2  0  0  0  0  0  0  0  0  0
   48.3740   34.4840   37.6850 C   0  0  0  0  0  0  0  0  0  0  0  0
   48.3050   32.9480   37.6430 C   0  0  1  0  0  0  0  0  0  0  0  0
   49.5520   32.2230   37.2740 C   0  0  0  0  0  0  0  0  0  0  0  0
   49.7500   31.2570   36.3080 C   0  0  0  0  0  0  0  0  0  0  0  0
   51.0610   30.9210   36.3750 N   0  0  0  0  0  0  0  0  0  0  0  0
   51.6640   31.6410   37.3380 C   0  0  0  0  0  0  0  0  0  0  0  0
   50.7270   32.4470   37.8940 N   0  0  0  0  0  0  0  0  0  0  0  0
   43.8982   33.5925   40.4719 H   0  0  0  0  0  0  0  0  0  0  0  0
   44.8271   36.5050   42.1070 H   0  0  0  0  0  0  0  0  0  0  0  0
   45.9175   32.6920   43.8304 H   0  0  0  0  0  0  0  0  0  0  0  0
   44.4139   35.8669   46.2465 H   0  0  0  0  0  0  0  0  0  0  0  0
   48.9278   33.5271   39.8811 H   0  0  0  0  0  0  0  0  0  0  0  0
   47.5076   35.0867   37.3750 H   0  0  0  0  0  0  0  0  0  0  0  0
   49.0467   35.2535   37.2783 H   0  0  0  0  0  0  0  0  0  0  0  0
   47.6434   32.2233   37.1459 H   0  0  0  0  0  0  0  0  0  0  0  0
   48.9958   30.8435   35.6223 H   0  0  0  0  0  0  0  0  0  0  0  0
   52.7251   31.5856   37.6226 H   0  0  0  0  0  0  0  0  0  0  0  0
   50.8861   33.1168   38.6601 H   0  0  0  0  0  0  0  0  0  0  0  0
  1  7  1  0
  2  1  1  0
  3  4  1  0
  3  2  2  0
  4  5  2  0
  5  1  1  0
  6 11  2  0
  7  6  1  0
  7  8  2  0
  8  9  1  0
  9 10  2  0
 11 10  1  0
 12  4  1  0
 13 12  1  0
 14 13  1  0
 14 12  1  0
 15 14  1  0
 15 19  1  0
 16 17  1  0
 16 15  2  0
 17 18  2  0
 18 19  1  0
  2 20  1  0
  6 21  1  0
  8 22  1  0
 10 23  1  0
 12 24  1  1
 13 25  1  0
 13 26  1  0
 14 27  1  6
 16 28  1  0
 18 29  1  0
 19 30  1  0
M  ISO  8  20  14  21  14  22  14  23  14  24  13  25  13  26  13  27  13
M  ISO  3  28  14  29  14  30   9
M  END
>  <minimizedAffinity>  (1) 
-4.80083656

>  <minimizedRMSD>  (1) 
0.287864387

$$$$
