
     RDKit          3D

 22 23  0  0  0  0  0  0  0  0999 V2000
   46.5240   34.3070   43.4530 C   0  0  0  0  0  0  0  0  0  0  0  0
   45.4230   35.1210   43.7490 C   0  0  0  0  0  0  0  0  0  0  0  0
   44.8520   34.9540   45.0120 C   0  0  0  0  0  0  0  0  0  0  0  0
   45.3780   34.0340   45.8700 N   0  0  0  0  0  0  0  0  0  0  0  0
   46.4320   33.2770   45.5440 C   0  0  0  0  0  0  0  0  0  0  0  0
   46.9900   33.4240   44.3420 N   0  0  0  0  0  0  0  0  0  0  0  0
   47.1260   34.4580   42.1690 N   0  0  0  0  0  0  0  0  0  0  0  0
   48.2340   35.2550   42.1600 C   0  0  0  0  0  0  0  0  0  0  0  0
   48.7230   35.3310   40.9090 N   0  0  0  0  0  0  0  0  0  0  0  0
   47.8900   34.5660   40.1620 C   0  0  0  0  0  0  0  0  0  0  0  0
   46.9140   34.0330   40.9370 N   0  0  0  0  0  0  0  0  0  0  0  0
   44.9430   36.0670   42.7630 C   0  0  0  0  0  0  0  0  0  0  0  0
   43.7210   35.4580   42.0740 C   0  0  0  0  0  0  0  0  0  0  0  0
   43.9845   35.5599   45.3126 H   0  0  0  0  0  0  0  0  0  0  0  0
   46.8330   32.5429   46.2584 H   0  0  0  0  0  0  0  0  0  0  0  0
   48.6613   35.7578   43.0401 H   0  0  0  0  0  0  0  0  0  0  0  0
   47.9917   34.4009   39.0792 H   0  0  0  0  0  0  0  0  0  0  0  0
   44.6617   37.0090   43.2564 H   0  0  0  0  0  0  0  0  0  0  0  0
   45.7300   36.2792   42.0244 H   0  0  0  0  0  0  0  0  0  0  0  0
   43.0098   35.1036   42.8347 H   0  0  0  0  0  0  0  0  0  0  0  0
   43.2365   36.2200   41.4459 H   0  0  0  0  0  0  0  0  0  0  0  0
   44.0377   34.6123   41.4459 H   0  0  0  0  0  0  0  0  0  0  0  0
  1  2  2  0
  1  6  1  0
  2  3  1  0
  3  4  2  0
  5  4  1  0
  6  5  2  0
  7  1  1  0
  8  7  1  0
  9  8  2  0
 10  9  1  0
 10 11  2  0
 11  7  1  0
 12  2  1  0
 13 12  1  0
  3 14  1  0
  5 15  1  0
  8 16  1  0
 10 17  1  0
 12 18  1  0
 12 19  1  0
 13 20  1  0
 13 21  1  0
 13 22  1  0
M  ISO  8  14  14  15  14  16  14  17  14  18   8  19   8  20   8  21   8
M  ISO  1  22   8
M  END
>  <minimizedAffinity>  (1) 
-4.16888523

>  <minimizedRMSD>  (1) 
3.57408977

$$$$
