
     RDKit          3D

 35 37  0  0  0  0  0  0  0  0999 V2000
   46.3440   34.2770   43.3540 C   0  0  0  0  0  0  0  0  0  0  0  0
   45.1510   34.9990   43.5550 C   0  0  0  0  0  0  0  0  0  0  0  0
   44.6340   34.9760   44.8410 C   0  0  0  0  0  0  0  0  0  0  0  0
   45.2780   34.2810   45.8180 N   0  0  0  0  0  0  0  0  0  0  0  0
   46.4020   33.6110   45.5890 C   0  0  0  0  0  0  0  0  0  0  0  0
   46.9250   33.6130   44.3600 N   0  0  0  0  0  0  0  0  0  0  0  0
   46.9090   34.2750   42.0380 N   0  0  0  0  0  0  0  0  0  0  0  0
   47.9110   35.1840   41.8660 C   0  0  0  0  0  0  0  0  0  0  0  0
   48.3700   35.1000   40.6030 N   0  0  0  0  0  0  0  0  0  0  0  0
   47.6280   34.1290   40.0260 C   0  0  0  0  0  0  0  0  0  0  0  0
   46.7340   33.6280   40.9110 N   0  0  0  0  0  0  0  0  0  0  0  0
   44.5600   35.7030   42.4270 C   0  0  0  0  0  0  0  0  0  0  0  0
   43.4500   34.8060   41.8580 C   0  0  0  0  0  0  0  0  0  0  0  0
   42.6100   35.5170   40.9170 N   0  0  0  0  0  0  0  0  0  0  0  0
   42.6060   34.7620   39.6780 C   0  0  0  0  0  0  0  0  0  0  0  0
   41.7150   35.5520   38.7170 C   0  0  0  0  0  0  0  0  0  0  0  0
   40.4090   35.3670   39.2160 O   0  0  0  0  0  0  0  0  0  0  0  0
   40.2370   35.9930   40.4380 C   0  0  0  0  0  0  0  0  0  0  0  0
   41.2990   35.6630   41.4420 C   0  0  0  0  0  0  0  0  0  0  0  0
   43.7051   35.5184   45.0714 H   0  0  0  0  0  0  0  0  0  0  0  0
   46.8967   33.0605   46.4028 H   0  0  0  0  0  0  0  0  0  0  0  0
   48.2845   35.8752   42.6359 H   0  0  0  0  0  0  0  0  0  0  0  0
   47.7352   33.7930   38.9841 H   0  0  0  0  0  0  0  0  0  0  0  0
   44.1351   36.6607   42.7620 H   0  0  0  0  0  0  0  0  0  0  0  0
   45.3194   35.9159   41.6602 H   0  0  0  0  0  0  0  0  0  0  0  0
   43.9126   33.9498   41.3452 H   0  0  0  0  0  0  0  0  0  0  0  0
   42.8183   34.4732   42.6948 H   0  0  0  0  0  0  0  0  0  0  0  0
   43.6264   34.6795   39.2754 H   0  0  0  0  0  0  0  0  0  0  0  0
   42.2351   33.7372   39.8273 H   0  0  0  0  0  0  0  0  0  0  0  0
   41.8002   35.1571   37.6939 H   0  0  0  0  0  0  0  0  0  0  0  0
   41.9961   36.6141   38.6624 H   0  0  0  0  0  0  0  0  0  0  0  0
   40.2410   37.0807   40.2739 H   0  0  0  0  0  0  0  0  0  0  0  0
   39.2832   35.6326   40.8508 H   0  0  0  0  0  0  0  0  0  0  0  0
   41.0219   34.7171   41.9304 H   0  0  0  0  0  0  0  0  0  0  0  0
   41.3421   36.5202   42.1300 H   0  0  0  0  0  0  0  0  0  0  0  0
  1  2  1  0
  1  6  2  0
  2  3  2  0
  3  4  1  0
  5  4  2  0
  6  5  1  0
  7  1  1  0
  8  7  1  0
  9  8  2  0
 10  9  1  0
 10 11  2  0
 11  7  1  0
 12  2  1  0
 13 12  1  0
 14 19  1  0
 14 13  1  0
 15 14  1  0
 16 17  1  0
 16 15  1  0
 17 18  1  0
 18 19  1  0
  3 20  1  0
  5 21  1  0
  8 22  1  0
 10 23  1  0
 12 24  1  0
 12 25  1  0
 13 26  1  0
 13 27  1  0
 15 28  1  0
 15 29  1  0
 16 30  1  0
 16 31  1  0
 18 32  1  0
 18 33  1  0
 19 34  1  0
 19 35  1  0
M  ISO  8  20  14  21  14  22  14  23  14  24   8  25   8  26   8  27   8
M  ISO  8  28  13  29  13  30  13  31  13  32  13  33  13  34  13  35  13
M  END
>  <minimizedAffinity>  (1) 
-5.33797169

>  <minimizedRMSD>  (1) 
0.918249607

$$$$
