
     RDKit          3D

 23 24  0  0  0  0  0  0  0  0999 V2000
   46.5280   34.2270   43.4740 C   0  0  0  0  0  0  0  0  0  0  0  0
   45.4250   35.0150   43.7920 C   0  0  0  0  0  0  0  0  0  0  0  0
   44.9010   34.8480   45.0800 C   0  0  0  0  0  0  0  0  0  0  0  0
   45.4750   33.9550   45.9250 N   0  0  0  0  0  0  0  0  0  0  0  0
   46.5360   33.2180   45.5730 C   0  0  0  0  0  0  0  0  0  0  0  0
   47.0500   33.3630   44.3500 N   0  0  0  0  0  0  0  0  0  0  0  0
   47.0840   34.3790   42.1630 N   0  0  0  0  0  0  0  0  0  0  0  0
   48.1720   35.1900   42.1170 C   0  0  0  0  0  0  0  0  0  0  0  0
   48.6160   35.2670   40.8450 N   0  0  0  0  0  0  0  0  0  0  0  0
   47.7630   34.4780   40.1300 C   0  0  0  0  0  0  0  0  0  0  0  0
   46.8320   33.9380   40.9350 N   0  0  0  0  0  0  0  0  0  0  0  0
   44.8900   35.9400   42.8130 C   0  0  0  0  0  0  0  0  0  0  0  0
   43.6900   35.2860   42.1520 C   0  0  0  0  0  0  0  0  0  0  0  0
   42.5290   35.6940   42.8030 O   0  0  0  0  0  0  0  0  0  0  0  0
   44.0302   35.4367   45.4043 H   0  0  0  0  0  0  0  0  0  0  0  0
   46.9780   32.5027   46.2823 H   0  0  0  0  0  0  0  0  0  0  0  0
   48.6207   35.7032   42.9803 H   0  0  0  0  0  0  0  0  0  0  0  0
   47.8282   34.3075   39.0453 H   0  0  0  0  0  0  0  0  0  0  0  0
   44.5803   36.8711   43.3102 H   0  0  0  0  0  0  0  0  0  0  0  0
   45.6546   36.1822   42.0602 H   0  0  0  0  0  0  0  0  0  0  0  0
   43.7841   34.1921   42.2189 H   0  0  0  0  0  0  0  0  0  0  0  0
   43.6438   35.5831   41.0939 H   0  0  0  0  0  0  0  0  0  0  0  0
   42.6656   35.6460   43.7824 H   0  0  0  0  0  0  0  0  0  0  0  0
  1  2  2  0
  1  6  1  0
  2  3  1  0
  3  4  2  0
  5  4  1  0
  6  5  2  0
  7  1  1  0
  8  7  1  0
  9  8  2  0
 10  9  1  0
 10 11  2  0
 11  7  1  0
 12  2  1  0
 13 14  1  0
 13 12  1  0
  3 15  1  0
  5 16  1  0
  8 17  1  0
 10 18  1  0
 12 19  1  0
 12 20  1  0
 13 21  1  0
 13 22  1  0
 14 23  1  0
M  ISO  8  15  14  16  14  17  14  18  14  19   8  20   8  21   8  22   8
M  ISO  1  23   3
M  END
>  <minimizedAffinity>  (1) 
-4.50766802

>  <minimizedRMSD>  (1) 
0.196503788

$$$$
