
     RDKit          3D

 30 33  0  0  1  0  0  0  0  0999 V2000
   45.9650   34.0520   41.8290 N   0  0  0  0  0  0  0  0  0  0  0  0
   45.2870   34.0520   40.6460 C   0  0  0  0  0  0  0  0  0  0  0  0
   46.1020   33.6320   39.6670 N   0  0  0  0  0  0  0  0  0  0  0  0
   47.3040   33.3680   40.2420 C   0  0  0  0  0  0  0  0  0  0  0  0
   47.1760   33.6340   41.5430 N   0  0  0  0  0  0  0  0  0  0  0  0
   44.8730   35.6440   43.2740 C   0  0  0  0  0  0  0  0  0  0  0  0
   45.5600   34.4070   43.1450 C   0  0  0  0  0  0  0  0  0  0  0  0
   45.7800   33.6550   44.2770 C   0  0  0  0  0  0  0  0  0  0  0  0
   45.3170   34.1560   45.4600 N   0  0  0  0  0  0  0  0  0  0  0  0
   44.6750   35.3180   45.5570 C   0  0  0  0  0  0  0  0  0  0  0  0
   44.4580   36.0510   44.4700 N   0  0  0  0  0  0  0  0  0  0  0  0
   48.5670   32.8860   39.6190 C   0  0  2  0  0  0  0  0  0  0  0  0
   48.4820   31.5440   38.8550 C   0  0  0  0  0  0  0  0  0  0  0  0
   49.2530   31.6740   40.1720 C   0  0  1  0  0  0  0  0  0  0  0  0
   50.7540   31.6320   40.0740 C   0  0  0  0  0  0  0  0  0  0  0  0
   51.4560   31.2820   38.9180 C   0  0  0  0  0  0  0  0  0  0  0  0
   52.8000   31.3600   39.2200 C   0  0  0  0  0  0  0  0  0  0  0  0
   52.8930   31.7470   40.5240 N   0  0  0  0  0  0  0  0  0  0  0  0
   51.6690   31.9050   41.0190 N   0  0  0  0  0  0  0  0  0  0  0  0
   44.2362   34.3498   40.5150 H   0  0  0  0  0  0  0  0  0  0  0  0
   44.6846   36.2644   42.3854 H   0  0  0  0  0  0  0  0  0  0  0  0
   46.3069   32.6905   44.2305 H   0  0  0  0  0  0  0  0  0  0  0  0
   44.3238   35.6718   46.5376 H   0  0  0  0  0  0  0  0  0  0  0  0
   48.9041   33.9092   39.3969 H   0  0  0  0  0  0  0  0  0  0  0  0
   47.5353   30.9850   38.8192 H   0  0  0  0  0  0  0  0  0  0  0  0
   48.7151   31.2013   37.8361 H   0  0  0  0  0  0  0  0  0  0  0  0
   49.2258   31.1531   41.1405 H   0  0  0  0  0  0  0  0  0  0  0  0
   51.0194   30.9977   37.9492 H   0  0  0  0  0  0  0  0  0  0  0  0
   53.6373   31.1499   38.5383 H   0  0  0  0  0  0  0  0  0  0  0  0
   53.7708   31.8935   41.0426 H   0  0  0  0  0  0  0  0  0  0  0  0
  1  7  1  0
  2  1  1  0
  3  4  1  0
  3  2  2  0
  4  5  2  0
  5  1  1  0
  6 11  2  0
  7  6  1  0
  7  8  2  0
  8  9  1  0
  9 10  2  0
 11 10  1  0
 12 14  1  0
 12  4  1  0
 13 12  1  0
 13 14  1  0
 15 14  1  0
 15 19  2  0
 16 17  2  0
 16 15  1  0
 17 18  1  0
 18 19  1  0
  2 20  1  0
  6 21  1  0
  8 22  1  0
 10 23  1  0
 12 24  1  6
 13 25  1  0
 13 26  1  0
 14 27  1  1
 16 28  1  0
 17 29  1  0
 18 30  1  0
M  ISO  8  20  14  21  14  22  14  23  14  24  13  25  13  26  13  27  13
M  ISO  3  28  14  29  14  30   9
M  END
>  <minimizedAffinity>  (1) 
-4.68822622

>  <minimizedRMSD>  (1) 
2.14963841

$$$$
