
     RDKit          3D

 51 55  0  0  1  0  0  0  0  0999 V2000
   41.7330   34.3890   40.5170 C   0  0  2  0  0  0  0  0  0  0  0  0
   41.7060   35.8760   40.3040 C   0  0  0  0  0  0  0  0  0  0  0  0
   40.3310   36.3160   40.7450 C   0  0  0  0  0  0  0  0  0  0  0  0
   39.5160   35.0640   40.4260 C   0  0  0  0  0  0  0  0  0  0  0  0
   40.4340   34.0600   41.1780 C   0  0  1  0  0  0  0  0  0  0  0  0
   39.9210   32.7280   41.0100 C   0  0  0  0  0  0  0  0  0  0  0  0
   39.8770   31.7470   41.9620 C   0  0  0  0  0  0  0  0  0  0  0  0
   39.3750   30.4720   41.7900 C   0  0  0  0  0  0  0  0  0  0  0  0
   38.8610   30.1160   40.5510 C   0  0  0  0  0  0  0  0  0  0  0  0
   38.8840   31.0710   39.5610 C   0  0  0  0  0  0  0  0  0  0  0  0
   38.3620   30.6620   38.3510 C   0  0  0  0  0  0  0  0  0  0  0  0
   38.3380   31.5390   37.2860 C   0  0  0  0  0  0  0  0  0  0  0  0
   38.8370   32.8050   37.4620 C   0  0  0  0  0  0  0  0  0  0  0  0
   39.3440   33.1670   38.6780 C   0  0  0  0  0  0  0  0  0  0  0  0
   39.4020   32.3480   39.7830 C   0  0  0  0  0  0  0  0  0  0  0  0
   42.9130   33.9400   41.3150 C   0  0  0  0  0  0  0  0  0  0  0  0
   44.1420   34.7930   41.1460 C   0  0  0  0  0  0  0  0  0  0  0  0
   46.2100   33.6620   41.8560 C   0  0  0  0  0  0  0  0  0  0  0  0
   45.1000   34.4250   42.1900 C   0  0  0  0  0  0  0  0  0  0  0  0
   44.9830   34.7890   43.5240 C   0  0  0  0  0  0  0  0  0  0  0  0
   45.9310   34.3920   44.4120 N   0  0  0  0  0  0  0  0  0  0  0  0
   46.9860   33.6570   44.0520 C   0  0  0  0  0  0  0  0  0  0  0  0
   47.1230   33.2940   42.7770 N   0  0  0  0  0  0  0  0  0  0  0  0
   46.3660   33.2670   40.4910 N   0  0  0  0  0  0  0  0  0  0  0  0
   47.2030   34.0190   39.7530 C   0  0  0  0  0  0  0  0  0  0  0  0
   47.2530   33.5310   38.4940 N   0  0  0  0  0  0  0  0  0  0  0  0
   46.4250   32.4630   38.4860 C   0  0  0  0  0  0  0  0  0  0  0  0
   45.8950   32.3150   39.7050 N   0  0  0  0  0  0  0  0  0  0  0  0
   41.8442   33.8531   39.5628 H   0  0  0  0  0  0  0  0  0  0  0  0
   42.4809   36.3665   40.9114 H   0  0  0  0  0  0  0  0  0  0  0  0
   41.9063   36.1442   39.2562 H   0  0  0  0  0  0  0  0  0  0  0  0
   40.3064   36.5527   41.8189 H   0  0  0  0  0  0  0  0  0  0  0  0
   39.9676   37.2331   40.2584 H   0  0  0  0  0  0  0  0  0  0  0  0
   38.4996   35.1030   40.8448 H   0  0  0  0  0  0  0  0  0  0  0  0
   39.3180   34.8570   39.3639 H   0  0  0  0  0  0  0  0  0  0  0  0
   40.5160   34.1237   42.2731 H   0  0  0  0  0  0  0  0  0  0  0  0
   40.2781   31.9964   42.9554 H   0  0  0  0  0  0  0  0  0  0  0  0
   39.3824   29.7510   42.6207 H   0  0  0  0  0  0  0  0  0  0  0  0
   38.4520   29.1114   40.3680 H   0  0  0  0  0  0  0  0  0  0  0  0
   37.9669   29.6419   38.2360 H   0  0  0  0  0  0  0  0  0  0  0  0
   37.9265   31.2290   36.3141 H   0  0  0  0  0  0  0  0  0  0  0  0
   38.8289   33.5239   36.6294 H   0  0  0  0  0  0  0  0  0  0  0  0
   39.7353   34.1898   38.7819 H   0  0  0  0  0  0  0  0  0  0  0  0
   42.6321   33.9490   42.3785 H   0  0  0  0  0  0  0  0  0  0  0  0
   43.1755   32.9368   40.9480 H   0  0  0  0  0  0  0  0  0  0  0  0
   44.5849   34.6160   40.1548 H   0  0  0  0  0  0  0  0  0  0  0  0
   43.8801   35.8582   41.2284 H   0  0  0  0  0  0  0  0  0  0  0  0
   44.1285   35.3948   43.8599 H   0  0  0  0  0  0  0  0  0  0  0  0
   47.7339   33.3544   44.7997 H   0  0  0  0  0  0  0  0  0  0  0  0
   47.7598   34.8947   40.1179 H   0  0  0  0  0  0  0  0  0  0  0  0
   46.2201   31.8196   37.6176 H   0  0  0  0  0  0  0  0  0  0  0  0
  1  5  1  0
  1 16  1  0
  2  1  1  0
  2  3  1  0
  4  3  1  0
  4  5  1  0
  6  5  1  0
  6  7  2  0
  8  7  1  0
  9  8  2  0
 10 15  2  0
 10  9  1  0
 11 10  1  0
 12 13  1  0
 12 11  2  0
 13 14  2  0
 14 15  1  0
 15  6  1  0
 17 16  1  0
 17 19  1  0
 18 19  1  0
 18 23  2  0
 19 20  2  0
 20 21  1  0
 22 21  2  0
 23 22  1  0
 24 18  1  0
 25 24  1  0
 26 25  2  0
 27 26  1  0
 27 28  2  0
 28 24  1  0
  1 29  1  6
  2 30  1  0
  2 31  1  0
  3 32  1  0
  3 33  1  0
  4 34  1  0
  4 35  1  0
  5 36  1  1
  7 37  1  0
  8 38  1  0
  9 39  1  0
 11 40  1  0
 12 41  1  0
 13 42  1  0
 14 43  1  0
 16 44  1  0
 16 45  1  0
 17 46  1  0
 17 47  1  0
 20 48  1  0
 22 49  1  0
 25 50  1  0
 27 51  1  0
M  ISO  8  29  13  30  13  31  13  32  13  33  13  34  13  35  13  36  13
M  ISO  8  37  14  38  14  39  14  40  14  41  14  42  14  43  14  44   8
M  ISO  7  45   8  46   8  47   8  48  14  49  14  50  14  51  14
M  END
>  <minimizedAffinity>  (1) 
-6.2019043

>  <minimizedRMSD>  (1) 
4.61682892

$$$$
