
     RDKit          3D

 48 51  0  0  1  0  0  0  0  0999 V2000
   43.2640   34.9880   41.6800 C   0  0  0  0  0  0  0  0  0  0  0  0
   42.3030   35.7290   40.8020 C   0  0  2  0  0  0  0  0  0  0  0  0
   40.9580   35.9100   41.3970 C   0  0  0  0  0  0  0  0  0  0  0  0
   39.9820   35.4400   40.3860 C   0  0  0  0  0  0  0  0  0  0  0  0
   40.7160   35.5250   39.0880 C   0  0  0  0  0  0  0  0  0  0  0  0
   42.1290   35.1110   39.4610 C   0  0  2  0  0  0  0  0  0  0  0  0
   42.3840   33.7350   39.3400 N   0  0  0  0  0  0  0  0  0  0  0  0
   42.7310   32.9910   40.4850 C   0  0  0  0  0  0  0  0  0  0  0  0
   43.2840   31.6290   40.0680 C   0  0  0  0  0  0  0  0  0  0  0  0
   42.2580   31.0100   39.3590 O   0  0  0  0  0  0  0  0  0  0  0  0
   42.1830   31.6410   38.1250 C   0  0  0  0  0  0  0  0  0  0  0  0
   41.7310   33.0710   38.2720 C   0  0  0  0  0  0  0  0  0  0  0  0
   44.4330   35.8450   42.1620 C   0  0  0  0  0  0  0  0  0  0  0  0
   46.1100   34.4030   43.2360 C   0  0  0  0  0  0  0  0  0  0  0  0
   44.9730   35.1930   43.3570 C   0  0  0  0  0  0  0  0  0  0  0  0
   44.4310   35.3030   44.6230 C   0  0  0  0  0  0  0  0  0  0  0  0
   45.0200   34.6490   45.6620 N   0  0  0  0  0  0  0  0  0  0  0  0
   46.1150   33.8970   45.5100 C   0  0  0  0  0  0  0  0  0  0  0  0
   46.6550   33.7770   44.2990 N   0  0  0  0  0  0  0  0  0  0  0  0
   46.6980   34.2690   41.9330 N   0  0  0  0  0  0  0  0  0  0  0  0
   47.7500   35.0860   41.6960 C   0  0  0  0  0  0  0  0  0  0  0  0
   48.2110   34.8700   40.4540 N   0  0  0  0  0  0  0  0  0  0  0  0
   47.4040   33.8890   39.9370 C   0  0  0  0  0  0  0  0  0  0  0  0
   46.4930   33.5400   40.8520 N   0  0  0  0  0  0  0  0  0  0  0  0
   43.6673   34.1357   41.1135 H   0  0  0  0  0  0  0  0  0  0  0  0
   42.7067   34.6687   42.5730 H   0  0  0  0  0  0  0  0  0  0  0  0
   42.7816   36.7136   40.6949 H   0  0  0  0  0  0  0  0  0  0  0  0
   40.8670   35.3152   42.3178 H   0  0  0  0  0  0  0  0  0  0  0  0
   40.7794   36.9626   41.6620 H   0  0  0  0  0  0  0  0  0  0  0  0
   39.6769   34.4036   40.5928 H   0  0  0  0  0  0  0  0  0  0  0  0
   39.0601   36.0401   40.3847 H   0  0  0  0  0  0  0  0  0  0  0  0
   40.6973   36.5505   38.6906 H   0  0  0  0  0  0  0  0  0  0  0  0
   40.2754   34.8953   38.3010 H   0  0  0  0  0  0  0  0  0  0  0  0
   42.9015   35.4673   38.7637 H   0  0  0  0  0  0  0  0  0  0  0  0
   43.4960   33.5364   41.0571 H   0  0  0  0  0  0  0  0  0  0  0  0
   41.8367   32.8449   41.1085 H   0  0  0  0  0  0  0  0  0  0  0  0
   44.1711   31.7538   39.4296 H   0  0  0  0  0  0  0  0  0  0  0  0
   43.5955   31.0322   40.9380 H   0  0  0  0  0  0  0  0  0  0  0  0
   41.4659   31.1014   37.4889 H   0  0  0  0  0  0  0  0  0  0  0  0
   43.1843   31.6367   37.6696 H   0  0  0  0  0  0  0  0  0  0  0  0
   41.9472   33.6081   37.3367 H   0  0  0  0  0  0  0  0  0  0  0  0
   40.6530   33.0621   38.4906 H   0  0  0  0  0  0  0  0  0  0  0  0
   45.2058   35.9044   41.3814 H   0  0  0  0  0  0  0  0  0  0  0  0
   44.1036   36.8701   42.3872 H   0  0  0  0  0  0  0  0  0  0  0  0
   43.5314   35.9136   44.7902 H   0  0  0  0  0  0  0  0  0  0  0  0
   46.5636   33.3844   46.3737 H   0  0  0  0  0  0  0  0  0  0  0  0
   48.1632   35.8138   42.4098 H   0  0  0  0  0  0  0  0  0  0  0  0
   47.4920   33.4574   38.9291 H   0  0  0  0  0  0  0  0  0  0  0  0
  1 13  1  0
  2  3  1  0
  2  1  1  0
  4  3  1  0
  5  6  1  0
  5  4  1  0
  6  2  1  0
  7  6  1  0
  7  8  1  0
  9  8  1  0
 10  9  1  0
 11 12  1  0
 11 10  1  0
 12  7  1  0
 13 15  1  0
 14 15  1  0
 14 19  2  0
 15 16  2  0
 16 17  1  0
 18 17  2  0
 19 18  1  0
 20 14  1  0
 21 20  1  0
 22 21  2  0
 23 22  1  0
 23 24  2  0
 24 20  1  0
  1 25  1  0
  1 26  1  0
  2 27  1  6
  3 28  1  0
  3 29  1  0
  4 30  1  0
  4 31  1  0
  5 32  1  0
  5 33  1  0
  6 34  1  6
  8 35  1  0
  8 36  1  0
  9 37  1  0
  9 38  1  0
 11 39  1  0
 11 40  1  0
 12 41  1  0
 12 42  1  0
 13 43  1  0
 13 44  1  0
 16 45  1  0
 18 46  1  0
 21 47  1  0
 23 48  1  0
M  ISO  8  25   8  26   8  27  13  28  13  29  13  30  13  31  13  32  13
M  ISO  8  33  13  34  13  35  13  36  13  37  13  38  13  39  13  40  13
M  ISO  8  41  13  42  13  43   8  44   8  45  14  46  14  47  14  48  14
M  END
>  <minimizedAffinity>  (1) 
-5.85711622

>  <minimizedRMSD>  (1) 
0.472592205

$$$$
