
     RDKit          3D

 49 52  0  0  1  0  0  0  0  0999 V2000
   42.9890   34.7550   41.7030 C   0  0  0  0  0  0  0  0  0  0  0  0
   42.1880   35.2520   40.5310 C   0  0  2  0  0  0  0  0  0  0  0  0
   41.1380   36.2410   40.9090 C   0  0  0  0  0  0  0  0  0  0  0  0
   39.8320   35.6870   40.3690 C   0  0  0  0  0  0  0  0  0  0  0  0
   40.3290   34.9370   39.1480 C   0  0  0  0  0  0  0  0  0  0  0  0
   41.4790   34.1730   39.8150 C   0  0  1  0  0  0  0  0  0  0  0  0
   42.1840   33.3200   38.9670 N   0  0  0  0  0  0  0  0  0  0  0  0
   43.4110   33.7440   38.4120 C   0  0  0  0  0  0  0  0  0  0  0  0
   44.1220   32.5210   37.8450 C   0  0  0  0  0  0  0  0  0  0  0  0
   43.2920   31.8950   36.8340 N   0  0  0  0  0  0  0  0  0  0  0  0
   42.0780   31.4300   37.5150 C   0  0  0  0  0  0  0  0  0  0  0  0
   41.3200   32.6050   38.0840 C   0  0  0  0  0  0  0  0  0  0  0  0
   44.2200   35.6010   41.9840 C   0  0  0  0  0  0  0  0  0  0  0  0
   46.0090   34.3190   43.0910 C   0  0  0  0  0  0  0  0  0  0  0  0
   44.8450   35.0830   43.1970 C   0  0  0  0  0  0  0  0  0  0  0  0
   44.3530   35.3020   44.4720 C   0  0  0  0  0  0  0  0  0  0  0  0
   45.0090   34.7760   45.5370 N   0  0  0  0  0  0  0  0  0  0  0  0
   46.1230   34.0470   45.4070 C   0  0  0  0  0  0  0  0  0  0  0  0
   46.6170   33.8220   44.1870 N   0  0  0  0  0  0  0  0  0  0  0  0
   46.5350   34.0800   41.7890 N   0  0  0  0  0  0  0  0  0  0  0  0
   47.5450   34.9050   41.4210 C   0  0  0  0  0  0  0  0  0  0  0  0
   47.9550   34.5740   40.1700 N   0  0  0  0  0  0  0  0  0  0  0  0
   47.1660   33.5310   39.7970 C   0  0  0  0  0  0  0  0  0  0  0  0
   46.3140   33.2490   40.7940 N   0  0  0  0  0  0  0  0  0  0  0  0
   43.3123   33.7244   41.4946 H   0  0  0  0  0  0  0  0  0  0  0  0
   42.3419   34.8114   42.5908 H   0  0  0  0  0  0  0  0  0  0  0  0
   42.9509   35.7179   39.8899 H   0  0  0  0  0  0  0  0  0  0  0  0
   41.0864   36.3452   42.0028 H   0  0  0  0  0  0  0  0  0  0  0  0
   41.3549   37.2379   40.4977 H   0  0  0  0  0  0  0  0  0  0  0  0
   39.3488   35.0119   41.0906 H   0  0  0  0  0  0  0  0  0  0  0  0
   39.0659   36.4475   40.1575 H   0  0  0  0  0  0  0  0  0  0  0  0
   40.6834   35.6160   38.3585 H   0  0  0  0  0  0  0  0  0  0  0  0
   39.5825   34.3218   38.6243 H   0  0  0  0  0  0  0  0  0  0  0  0
   41.1790   33.3881   40.5249 H   0  0  0  0  0  0  0  0  0  0  0  0
   43.2251   34.4727   37.6092 H   0  0  0  0  0  0  0  0  0  0  0  0
   44.0327   34.2229   39.1828 H   0  0  0  0  0  0  0  0  0  0  0  0
   45.0765   32.8300   37.3939 H   0  0  0  0  0  0  0  0  0  0  0  0
   44.3108   31.8022   38.6560 H   0  0  0  0  0  0  0  0  0  0  0  0
   43.7887   31.0984   36.4101 H   0  0  0  0  0  0  0  0  0  0  0  0
   41.4382   30.8983   36.7954 H   0  0  0  0  0  0  0  0  0  0  0  0
   42.3617   30.7535   38.3347 H   0  0  0  0  0  0  0  0  0  0  0  0
   40.9947   33.2666   37.2676 H   0  0  0  0  0  0  0  0  0  0  0  0
   40.4335   32.2511   38.6306 H   0  0  0  0  0  0  0  0  0  0  0  0
   44.9231   35.5315   41.1409 H   0  0  0  0  0  0  0  0  0  0  0  0
   43.9410   36.6570   42.1143 H   0  0  0  0  0  0  0  0  0  0  0  0
   43.4394   35.8964   44.6205 H   0  0  0  0  0  0  0  0  0  0  0  0
   46.6265   33.6375   46.2951 H   0  0  0  0  0  0  0  0  0  0  0  0
   47.9653   35.7134   42.0373 H   0  0  0  0  0  0  0  0  0  0  0  0
   47.2181   33.0036   38.8331 H   0  0  0  0  0  0  0  0  0  0  0  0
  1 13  1  0
  2  3  1  0
  2  1  1  0
  4  3  1  0
  5  6  1  0
  5  4  1  0
  6  2  1  0
  7  6  1  0
  8  7  1  0
  9  8  1  0
 10 11  1  0
 10  9  1  0
 11 12  1  0
 12  7  1  0
 13 15  1  0
 14 15  1  0
 14 19  2  0
 15 16  2  0
 16 17  1  0
 18 17  2  0
 19 18  1  0
 20 14  1  0
 21 20  1  0
 22 21  2  0
 23 22  1  0
 23 24  2  0
 24 20  1  0
  1 25  1  0
  1 26  1  0
  2 27  1  6
  3 28  1  0
  3 29  1  0
  4 30  1  0
  4 31  1  0
  5 32  1  0
  5 33  1  0
  6 34  1  1
  8 35  1  0
  8 36  1  0
  9 37  1  0
  9 38  1  0
 10 39  1  0
 11 40  1  0
 11 41  1  0
 12 42  1  0
 12 43  1  0
 13 44  1  0
 13 45  1  0
 16 46  1  0
 18 47  1  0
 21 48  1  0
 23 49  1  0
M  ISO  8  25   8  26   8  27  13  28  13  29  13  30  13  31  13  32  13
M  ISO  8  33  13  34  13  35  13  36  13  37  13  38  13  39   5  40  13
M  ISO  8  41  13  42  13  43  13  44   8  45   8  46  14  47  14  48  14
M  ISO  1  49  14
M  END
>  <minimizedAffinity>  (1) 
-5.86547756

>  <minimizedRMSD>  (1) 
1.90761149

$$$$
