
     RDKit          3D

 38 40  0  0  1  0  0  0  0  0999 V2000
   43.4210   34.8880   41.7890 C   0  0  0  0  0  0  0  0  0  0  0  0
   42.3990   35.6250   40.9950 C   0  0  2  0  0  0  0  0  0  0  0  0
   41.0290   35.5640   41.6120 C   0  0  0  0  0  0  0  0  0  0  0  0
   40.1180   35.1450   40.5050 C   0  0  0  0  0  0  0  0  0  0  0  0
   40.8090   35.6630   39.2820 C   0  0  0  0  0  0  0  0  0  0  0  0
   42.2750   35.3090   39.5770 C   0  0  2  0  0  0  0  0  0  0  0  0
   42.4810   33.9190   39.0950 C   0  0  0  0  0  0  0  0  0  0  0  0
   42.0120   32.9840   40.0470 F   0  0  0  0  0  0  0  0  0  0  0  0
   43.7720   33.5710   38.8140 F   0  0  0  0  0  0  0  0  0  0  0  0
   41.6100   33.6990   38.0140 F   0  0  0  0  0  0  0  0  0  0  0  0
   44.5370   35.7810   42.3400 C   0  0  0  0  0  0  0  0  0  0  0  0
   46.2790   34.3360   43.3200 C   0  0  0  0  0  0  0  0  0  0  0  0
   45.1150   35.0750   43.4830 C   0  0  0  0  0  0  0  0  0  0  0  0
   44.5610   35.0900   44.7670 C   0  0  0  0  0  0  0  0  0  0  0  0
   45.1870   34.3940   45.7570 N   0  0  0  0  0  0  0  0  0  0  0  0
   46.3060   33.6970   45.5600 C   0  0  0  0  0  0  0  0  0  0  0  0
   46.8470   33.6690   44.3440 N   0  0  0  0  0  0  0  0  0  0  0  0
   46.8670   34.2990   42.0190 N   0  0  0  0  0  0  0  0  0  0  0  0
   47.8870   35.1740   41.8350 C   0  0  0  0  0  0  0  0  0  0  0  0
   48.3560   35.0440   40.5790 N   0  0  0  0  0  0  0  0  0  0  0  0
   47.5850   34.0630   40.0080 C   0  0  0  0  0  0  0  0  0  0  0  0
   46.6830   33.6190   40.8990 N   0  0  0  0  0  0  0  0  0  0  0  0
   43.8761   34.1225   41.1433 H   0  0  0  0  0  0  0  0  0  0  0  0
   42.9013   34.4529   42.6554 H   0  0  0  0  0  0  0  0  0  0  0  0
   42.8177   36.6414   41.0343 H   0  0  0  0  0  0  0  0  0  0  0  0
   41.0066   34.8280   42.4292 H   0  0  0  0  0  0  0  0  0  0  0  0
   40.7307   36.5297   42.0460 H   0  0  0  0  0  0  0  0  0  0  0  0
   40.0186   34.0501   40.4685 H   0  0  0  0  0  0  0  0  0  0  0  0
   39.0939   35.5300   40.6187 H   0  0  0  0  0  0  0  0  0  0  0  0
   40.6729   36.7492   39.1746 H   0  0  0  0  0  0  0  0  0  0  0  0
   40.4284   35.2385   38.3413 H   0  0  0  0  0  0  0  0  0  0  0  0
   43.0864   35.8519   39.0702 H   0  0  0  0  0  0  0  0  0  0  0  0
   45.3044   35.9474   41.5697 H   0  0  0  0  0  0  0  0  0  0  0  0
   44.1452   36.7643   42.6394 H   0  0  0  0  0  0  0  0  0  0  0  0
   43.6385   35.6524   44.9735 H   0  0  0  0  0  0  0  0  0  0  0  0
   46.7764   33.1519   46.3916 H   0  0  0  0  0  0  0  0  0  0  0  0
   48.2696   35.8766   42.5899 H   0  0  0  0  0  0  0  0  0  0  0  0
   47.6897   33.6956   38.9765 H   0  0  0  0  0  0  0  0  0  0  0  0
  1 11  1  0
  2  3  1  0
  2  1  1  0
  4  3  1  0
  5  6  1  0
  5  4  1  0
  6  2  1  0
  7  6  1  0
  7  8  1  0
  9  7  1  0
 10  7  1  0
 11 13  1  0
 12 13  1  0
 12 17  2  0
 13 14  2  0
 14 15  1  0
 16 15  2  0
 17 16  1  0
 18 12  1  0
 19 18  1  0
 20 19  2  0
 21 20  1  0
 21 22  2  0
 22 18  1  0
  1 23  1  0
  1 24  1  0
  2 25  1  6
  3 26  1  0
  3 27  1  0
  4 28  1  0
  4 29  1  0
  5 30  1  0
  5 31  1  0
  6 32  1  6
 11 33  1  0
 11 34  1  0
 14 35  1  0
 16 36  1  0
 19 37  1  0
 21 38  1  0
M  ISO  8  23   8  24   8  25  13  26  13  27  13  28  13  29  13  30  13
M  ISO  8  31  13  32  13  33   8  34   8  35  14  36  14  37  14  38  14
M  END
>  <minimizedAffinity>  (1) 
-5.84403896

>  <minimizedRMSD>  (1) 
0.265199155

$$$$
