
     RDKit          3D

 42 45  0  0  1  0  0  0  0  0999 V2000
   43.3580   34.9370   41.7440 C   0  0  0  0  0  0  0  0  0  0  0  0
   42.4300   35.6930   40.8450 C   0  0  2  0  0  0  0  0  0  0  0  0
   41.0620   35.8540   41.4350 C   0  0  0  0  0  0  0  0  0  0  0  0
   40.1140   35.4080   40.3750 C   0  0  0  0  0  0  0  0  0  0  0  0
   40.8780   35.6710   39.0940 C   0  0  0  0  0  0  0  0  0  0  0  0
   42.2550   35.1160   39.4970 C   0  0  2  0  0  0  0  0  0  0  0  0
   42.2850   33.6880   39.4090 N   0  0  0  0  0  0  0  0  0  0  0  0
   42.8470   32.8210   40.2380 C   0  0  0  0  0  0  0  0  0  0  0  0
   42.6230   31.5640   39.7540 C   0  0  0  0  0  0  0  0  0  0  0  0
   41.9190   31.6610   38.6200 N   0  0  0  0  0  0  0  0  0  0  0  0
   41.7040   32.9890   38.3990 C   0  0  0  0  0  0  0  0  0  0  0  0
   44.5010   35.7950   42.2820 C   0  0  0  0  0  0  0  0  0  0  0  0
   46.2130   34.3470   43.2900 C   0  0  0  0  0  0  0  0  0  0  0  0
   45.0630   35.1080   43.4440 C   0  0  0  0  0  0  0  0  0  0  0  0
   44.5140   35.1660   44.7120 C   0  0  0  0  0  0  0  0  0  0  0  0
   45.1160   34.4870   45.7300 N   0  0  0  0  0  0  0  0  0  0  0  0
   46.2160   33.7710   45.5450 C   0  0  0  0  0  0  0  0  0  0  0  0
   46.7700   33.6950   44.3300 N   0  0  0  0  0  0  0  0  0  0  0  0
   46.8040   34.2680   41.9850 N   0  0  0  0  0  0  0  0  0  0  0  0
   47.8490   35.1170   41.7850 C   0  0  0  0  0  0  0  0  0  0  0  0
   48.3090   34.9420   40.5240 N   0  0  0  0  0  0  0  0  0  0  0  0
   47.5260   33.9800   39.9790 C   0  0  0  0  0  0  0  0  0  0  0  0
   46.6120   33.5770   40.8770 N   0  0  0  0  0  0  0  0  0  0  0  0
   43.7870   34.0971   41.1779 H   0  0  0  0  0  0  0  0  0  0  0  0
   42.7705   34.5934   42.6082 H   0  0  0  0  0  0  0  0  0  0  0  0
   42.9369   36.6641   40.7447 H   0  0  0  0  0  0  0  0  0  0  0  0
   40.9552   35.2286   42.3336 H   0  0  0  0  0  0  0  0  0  0  0  0
   40.8705   36.8928   41.7418 H   0  0  0  0  0  0  0  0  0  0  0  0
   39.8783   34.3388   40.4812 H   0  0  0  0  0  0  0  0  0  0  0  0
   39.1463   35.9295   40.4148 H   0  0  0  0  0  0  0  0  0  0  0  0
   40.9223   36.7441   38.8562 H   0  0  0  0  0  0  0  0  0  0  0  0
   40.4408   35.2234   38.1893 H   0  0  0  0  0  0  0  0  0  0  0  0
   43.0950   35.3899   38.8418 H   0  0  0  0  0  0  0  0  0  0  0  0
   43.3983   33.0703   41.1566 H   0  0  0  0  0  0  0  0  0  0  0  0
   42.9644   30.6274   40.2189 H   0  0  0  0  0  0  0  0  0  0  0  0
   41.1547   33.4204   37.5492 H   0  0  0  0  0  0  0  0  0  0  0  0
   45.2739   35.9172   41.5089 H   0  0  0  0  0  0  0  0  0  0  0  0
   44.1341   36.7928   42.5643 H   0  0  0  0  0  0  0  0  0  0  0  0
   43.6023   35.7530   44.8973 H   0  0  0  0  0  0  0  0  0  0  0  0
   46.6738   33.2386   46.3918 H   0  0  0  0  0  0  0  0  0  0  0  0
   48.2518   35.8258   42.5235 H   0  0  0  0  0  0  0  0  0  0  0  0
   47.6240   33.5882   38.9558 H   0  0  0  0  0  0  0  0  0  0  0  0
  1 12  1  0
  2  3  1  0
  2  1  1  0
  4  3  1  0
  5  6  1  0
  5  4  1  0
  6  2  1  0
  7  6  1  0
  7  8  1  0
  9  8  2  0
 10  9  1  0
 11 10  2  0
 11  7  1  0
 12 14  1  0
 13 14  1  0
 13 18  2  0
 14 15  2  0
 15 16  1  0
 17 16  2  0
 18 17  1  0
 19 13  1  0
 20 19  1  0
 21 20  2  0
 22 21  1  0
 22 23  2  0
 23 19  1  0
  1 24  1  0
  1 25  1  0
  2 26  1  6
  3 27  1  0
  3 28  1  0
  4 29  1  0
  4 30  1  0
  5 31  1  0
  5 32  1  0
  6 33  1  6
  8 34  1  0
  9 35  1  0
 11 36  1  0
 12 37  1  0
 12 38  1  0
 15 39  1  0
 17 40  1  0
 20 41  1  0
 22 42  1  0
M  ISO  8  24   8  25   8  26  13  27  13  28  13  29  13  30  13  31  13
M  ISO  8  32  13  33  13  34  14  35  14  36  14  37   8  38   8  39  14
M  ISO  3  40  14  41  14  42  14
M  END
>  <minimizedAffinity>  (1) 
-5.82086277

>  <minimizedRMSD>  (1) 
0.305771112

$$$$
