
     RDKit          3D

 41 44  0  0  1  0  0  0  0  0999 V2000
   43.3800   34.9280   41.5370 C   0  0  0  0  0  0  0  0  0  0  0  0
   42.3430   35.7100   40.7620 C   0  0  2  0  0  0  0  0  0  0  0  0
   41.0410   35.7990   41.4670 C   0  0  0  0  0  0  0  0  0  0  0  0
   40.0050   35.2180   40.5380 C   0  0  0  0  0  0  0  0  0  0  0  0
   40.5970   35.4410   39.1860 C   0  0  0  0  0  0  0  0  0  0  0  0
   42.0760   35.1970   39.4120 C   0  0  2  0  0  0  0  0  0  0  0  0
   42.4840   33.7940   39.1500 C   0  0  0  0  0  0  0  0  0  0  0  0
   43.8670   33.3550   38.6010 C   0  0  0  0  0  0  0  0  0  0  0  0
   43.6340   31.6130   38.5460 S   0  0  0  0  0  0  0  0  0  0  0  0
   41.8380   31.6500   39.2170 C   0  0  0  0  0  0  0  0  0  0  0  0
   41.4130   33.0740   39.4900 N   0  0  0  0  0  0  0  0  0  0  0  0
   44.4720   35.8300   42.1090 C   0  0  0  0  0  0  0  0  0  0  0  0
   46.1640   34.4290   43.2220 C   0  0  0  0  0  0  0  0  0  0  0  0
   45.0050   35.1900   43.3040 C   0  0  0  0  0  0  0  0  0  0  0  0
   44.4160   35.2940   44.5580 C   0  0  0  0  0  0  0  0  0  0  0  0
   44.9890   34.6580   45.6220 N   0  0  0  0  0  0  0  0  0  0  0  0
   46.1040   33.9350   45.5000 C   0  0  0  0  0  0  0  0  0  0  0  0
   46.6890   33.8210   44.3090 N   0  0  0  0  0  0  0  0  0  0  0  0
   46.7940   34.3040   41.9440 N   0  0  0  0  0  0  0  0  0  0  0  0
   47.8360   35.1590   41.7450 C   0  0  0  0  0  0  0  0  0  0  0  0
   48.3420   34.9440   40.5120 N   0  0  0  0  0  0  0  0  0  0  0  0
   47.5810   33.9440   39.9800 C   0  0  0  0  0  0  0  0  0  0  0  0
   46.6420   33.5660   40.8660 N   0  0  0  0  0  0  0  0  0  0  0  0
   43.8445   34.1918   40.8645 H   0  0  0  0  0  0  0  0  0  0  0  0
   42.8724   34.4353   42.3794 H   0  0  0  0  0  0  0  0  0  0  0  0
   42.8044   36.7050   40.6775 H   0  0  0  0  0  0  0  0  0  0  0  0
   41.0766   35.2226   42.4032 H   0  0  0  0  0  0  0  0  0  0  0  0
   40.8012   36.8410   41.7253 H   0  0  0  0  0  0  0  0  0  0  0  0
   39.8580   34.1453   40.7323 H   0  0  0  0  0  0  0  0  0  0  0  0
   39.0128   35.6780   40.6560 H   0  0  0  0  0  0  0  0  0  0  0  0
   40.4150   36.4693   38.8402 H   0  0  0  0  0  0  0  0  0  0  0  0
   40.1651   34.7888   38.4126 H   0  0  0  0  0  0  0  0  0  0  0  0
   42.7100   35.7283   38.6868 H   0  0  0  0  0  0  0  0  0  0  0  0
   44.7430   33.9604   38.3250 H   0  0  0  0  0  0  0  0  0  0  0  0
   41.2083   30.7629   39.3796 H   0  0  0  0  0  0  0  0  0  0  0  0
   45.2735   35.9620   41.3673 H   0  0  0  0  0  0  0  0  0  0  0  0
   44.0593   36.8190   42.3572 H   0  0  0  0  0  0  0  0  0  0  0  0
   43.4968   35.8831   44.6925 H   0  0  0  0  0  0  0  0  0  0  0  0
   46.5378   33.4356   46.3789 H   0  0  0  0  0  0  0  0  0  0  0  0
   48.2039   35.9012   42.4688 H   0  0  0  0  0  0  0  0  0  0  0  0
   47.7152   33.5119   38.9774 H   0  0  0  0  0  0  0  0  0  0  0  0
  1 12  1  0
  2  3  1  0
  2  1  1  0
  4  3  1  0
  5  6  1  0
  5  4  1  0
  6  2  1  0
  7  6  1  0
  7 11  1  0
  8  7  2  0
  9  8  1  0
  9 10  1  0
 10 11  2  0
 12 14  1  0
 13 14  1  0
 13 18  2  0
 14 15  2  0
 15 16  1  0
 17 16  2  0
 18 17  1  0
 19 13  1  0
 20 19  1  0
 21 20  2  0
 22 21  1  0
 22 23  2  0
 23 19  1  0
  1 24  1  0
  1 25  1  0
  2 26  1  6
  3 27  1  0
  3 28  1  0
  4 29  1  0
  4 30  1  0
  5 31  1  0
  5 32  1  0
  6 33  1  6
  8 34  1  0
 10 35  1  0
 12 36  1  0
 12 37  1  0
 15 38  1  0
 17 39  1  0
 20 40  1  0
 22 41  1  0
M  ISO  8  24   8  25   8  26  13  27  13  28  13  29  13  30  13  31  13
M  ISO  8  32  13  33  13  34  14  35  14  36   8  37   8  38  14  39  14
M  ISO  2  40  14  41  14
M  END
>  <minimizedAffinity>  (1) 
-5.77594757

>  <minimizedRMSD>  (1) 
0.701355636

$$$$
