
     RDKit          3D

 37 39  0  0  1  0  0  0  0  0999 V2000
   43.1560   34.8920   41.4410 C   0  0  0  0  0  0  0  0  0  0  0  0
   42.2200   35.5820   40.4900 C   0  0  2  0  0  0  0  0  0  0  0  0
   40.9100   35.9610   41.0860 C   0  0  0  0  0  0  0  0  0  0  0  0
   39.8590   35.2680   40.2420 C   0  0  0  0  0  0  0  0  0  0  0  0
   40.5250   35.2810   38.8730 C   0  0  0  0  0  0  0  0  0  0  0  0
   41.9260   34.7850   39.2730 C   0  0  1  0  0  0  0  0  0  0  0  0
   42.8440   34.9890   38.1730 N   0  0  0  0  0  0  0  0  0  0  0  0
   44.3020   35.7700   41.8880 C   0  0  0  0  0  0  0  0  0  0  0  0
   45.9940   34.4490   43.0840 C   0  0  0  0  0  0  0  0  0  0  0  0
   44.8480   35.2290   43.1140 C   0  0  0  0  0  0  0  0  0  0  0  0
   44.2760   35.4490   44.3710 C   0  0  0  0  0  0  0  0  0  0  0  0
   44.8650   34.8960   45.4700 N   0  0  0  0  0  0  0  0  0  0  0  0
   45.9600   34.1570   45.4000 C   0  0  0  0  0  0  0  0  0  0  0  0
   46.5280   33.9300   44.2090 N   0  0  0  0  0  0  0  0  0  0  0  0
   46.5990   34.2080   41.8100 N   0  0  0  0  0  0  0  0  0  0  0  0
   47.6530   35.0330   41.5320 C   0  0  0  0  0  0  0  0  0  0  0  0
   48.1440   34.7150   40.3070 N   0  0  0  0  0  0  0  0  0  0  0  0
   47.3570   33.6870   39.8750 C   0  0  0  0  0  0  0  0  0  0  0  0
   46.4290   33.3960   40.7990 N   0  0  0  0  0  0  0  0  0  0  0  0
   43.5700   34.0036   40.9417 H   0  0  0  0  0  0  0  0  0  0  0  0
   42.5762   34.6283   42.3378 H   0  0  0  0  0  0  0  0  0  0  0  0
   42.7788   36.4925   40.2279 H   0  0  0  0  0  0  0  0  0  0  0  0
   40.8503   35.6190   42.1298 H   0  0  0  0  0  0  0  0  0  0  0  0
   40.7687   37.0518   41.0950 H   0  0  0  0  0  0  0  0  0  0  0  0
   39.6742   34.2413   40.5909 H   0  0  0  0  0  0  0  0  0  0  0  0
   38.8698   35.7484   40.2679 H   0  0  0  0  0  0  0  0  0  0  0  0
   40.5548   36.2917   38.4399 H   0  0  0  0  0  0  0  0  0  0  0  0
   40.0191   34.6859   38.0985 H   0  0  0  0  0  0  0  0  0  0  0  0
   42.0097   33.7095   39.4881 H   0  0  0  0  0  0  0  0  0  0  0  0
   43.7823   35.1975   38.5431 H   0  0  0  0  0  0  0  0  0  0  0  0
   42.8840   34.1364   37.5965 H   0  0  0  0  0  0  0  0  0  0  0  0
   45.0807   35.7866   41.1113 H   0  0  0  0  0  0  0  0  0  0  0  0
   43.9448   36.7966   42.0569 H   0  0  0  0  0  0  0  0  0  0  0  0
   43.3657   36.0582   44.4718 H   0  0  0  0  0  0  0  0  0  0  0  0
   46.4007   33.7320   46.3139 H   0  0  0  0  0  0  0  0  0  0  0  0
   48.0394   35.8238   42.1918 H   0  0  0  0  0  0  0  0  0  0  0  0
   47.4676   33.1719   38.9094 H   0  0  0  0  0  0  0  0  0  0  0  0
  1  8  1  0
  2  3  1  0
  2  1  1  0
  4  3  1  0
  5  6  1  0
  5  4  1  0
  6  2  1  0
  7  6  1  0
  8 10  1  0
  9 10  1  0
  9 14  2  0
 10 11  2  0
 11 12  1  0
 13 12  2  0
 14 13  1  0
 15  9  1  0
 16 15  1  0
 17 16  2  0
 18 17  1  0
 18 19  2  0
 19 15  1  0
  1 20  1  0
  1 21  1  0
  2 22  1  6
  3 23  1  0
  3 24  1  0
  4 25  1  0
  4 26  1  0
  5 27  1  0
  5 28  1  0
  6 29  1  1
  7 30  1  0
  7 31  1  0
  8 32  1  0
  8 33  1  0
 11 34  1  0
 13 35  1  0
 16 36  1  0
 18 37  1  0
M  ISO  8  20   8  21   8  22  13  23  13  24  13  25  13  26  13  27  13
M  ISO  8  28  13  29  13  30   5  31   5  32   8  33   8  34  14  35  14
M  ISO  2  36  14  37  14
M  END
>  <minimizedAffinity>  (1) 
-5.76831293

>  <minimizedRMSD>  (1) 
0.640518129

$$$$
