
     RDKit          3D

 44 46  0  0  1  0  0  0  0  0999 V2000
   43.6430   34.8190   41.5080 C   0  0  0  0  0  0  0  0  0  0  0  0
   42.3600   35.4920   41.0800 C   0  0  2  0  0  0  0  0  0  0  0  0
   41.2990   35.4400   42.1330 C   0  0  0  0  0  0  0  0  0  0  0  0
   40.1030   34.7860   41.4840 C   0  0  0  0  0  0  0  0  0  0  0  0
   40.2830   35.1960   40.0420 C   0  0  0  0  0  0  0  0  0  0  0  0
   41.7650   34.8600   39.8700 C   0  0  1  0  0  0  0  0  0  0  0  0
   42.3150   35.3110   38.5610 C   0  0  0  0  0  0  0  0  0  0  0  0
   43.0270   34.1400   37.9220 C   0  0  0  0  0  0  0  0  0  0  0  0
   41.3300   35.9650   37.6560 C   0  0  0  0  0  0  0  0  0  0  0  0
   44.5920   35.7590   42.2100 C   0  0  0  0  0  0  0  0  0  0  0  0
   46.3560   34.3920   43.2500 C   0  0  0  0  0  0  0  0  0  0  0  0
   45.1470   35.0750   43.3670 C   0  0  0  0  0  0  0  0  0  0  0  0
   44.5510   35.0470   44.6120 C   0  0  0  0  0  0  0  0  0  0  0  0
   45.1460   34.3800   45.6360 N   0  0  0  0  0  0  0  0  0  0  0  0
   46.3110   33.7330   45.4860 C   0  0  0  0  0  0  0  0  0  0  0  0
   46.9070   33.7460   44.2890 N   0  0  0  0  0  0  0  0  0  0  0  0
   47.0070   34.3990   41.9660 N   0  0  0  0  0  0  0  0  0  0  0  0
   47.9930   35.3170   41.8400 C   0  0  0  0  0  0  0  0  0  0  0  0
   48.5260   35.2350   40.6080 N   0  0  0  0  0  0  0  0  0  0  0  0
   47.8270   34.2340   39.9950 C   0  0  0  0  0  0  0  0  0  0  0  0
   46.9110   33.7430   40.8390 N   0  0  0  0  0  0  0  0  0  0  0  0
   44.1436   34.4169   40.6148 H   0  0  0  0  0  0  0  0  0  0  0  0
   43.3776   34.0241   42.2205 H   0  0  0  0  0  0  0  0  0  0  0  0
   42.6583   36.5315   40.8792 H   0  0  0  0  0  0  0  0  0  0  0  0
   41.6415   34.8444   42.9920 H   0  0  0  0  0  0  0  0  0  0  0  0
   41.0549   36.4441   42.5100 H   0  0  0  0  0  0  0  0  0  0  0  0
   40.1319   33.6923   41.5976 H   0  0  0  0  0  0  0  0  0  0  0  0
   39.1374   35.0842   41.9184 H   0  0  0  0  0  0  0  0  0  0  0  0
   39.6470   34.6069   39.3650 H   0  0  0  0  0  0  0  0  0  0  0  0
   40.0079   36.2359   39.8120 H   0  0  0  0  0  0  0  0  0  0  0  0
   41.9924   33.7851   39.8174 H   0  0  0  0  0  0  0  0  0  0  0  0
   43.0293   36.1248   38.7546 H   0  0  0  0  0  0  0  0  0  0  0  0
   43.4273   33.4816   38.7070 H   0  0  0  0  0  0  0  0  0  0  0  0
   42.3184   33.5767   37.2971 H   0  0  0  0  0  0  0  0  0  0  0  0
   43.8532   34.5099   37.2971 H   0  0  0  0  0  0  0  0  0  0  0  0
   40.5623   36.4747   38.2567 H   0  0  0  0  0  0  0  0  0  0  0  0
   41.8468   36.7000   37.0214 H   0  0  0  0  0  0  0  0  0  0  0  0
   40.8532   35.2035   37.0214 H   0  0  0  0  0  0  0  0  0  0  0  0
   45.4030   36.0474   41.5251 H   0  0  0  0  0  0  0  0  0  0  0  0
   44.0573   36.6659   42.5288 H   0  0  0  0  0  0  0  0  0  0  0  0
   43.5943   35.5647   44.7753 H   0  0  0  0  0  0  0  0  0  0  0  0
   46.7685   33.2008   46.3330 H   0  0  0  0  0  0  0  0  0  0  0  0
   48.3095   36.0211   42.6236 H   0  0  0  0  0  0  0  0  0  0  0  0
   47.9917   33.8847   38.9650 H   0  0  0  0  0  0  0  0  0  0  0  0
  1 10  1  0
  2  1  1  0
  2  3  1  0
  4  3  1  0
  5  4  1  0
  6  5  1  0
  6  2  1  0
  7  6  1  0
  8  7  1  0
  9  7  1  0
 10 12  1  0
 11 12  1  0
 11 16  2  0
 12 13  2  0
 13 14  1  0
 15 14  2  0
 16 15  1  0
 17 11  1  0
 18 17  1  0
 19 18  2  0
 20 19  1  0
 20 21  2  0
 21 17  1  0
  1 22  1  0
  1 23  1  0
  2 24  1  6
  3 25  1  0
  3 26  1  0
  4 27  1  0
  4 28  1  0
  5 29  1  0
  5 30  1  0
  6 31  1  1
  7 32  1  0
  8 33  1  0
  8 34  1  0
  8 35  1  0
  9 36  1  0
  9 37  1  0
  9 38  1  0
 10 39  1  0
 10 40  1  0
 13 41  1  0
 15 42  1  0
 18 43  1  0
 20 44  1  0
M  ISO  8  22   8  23   8  24  13  25  13  26  13  27  13  28  13  29  13
M  ISO  8  30  13  31  13  32   8  33   8  34   8  35   8  36   8  37   8
M  ISO  7  38   8  39   8  40   8  41  14  42  14  43  14  44  14
M  END
>  <minimizedAffinity>  (1) 
-5.48455286

>  <minimizedRMSD>  (1) 
0.863439858

$$$$
