
     RDKit          3D

 46 50  0  0  1  0  0  0  0  0999 V2000
   41.7100   34.2170   40.2890 C   0  0  2  0  0  0  0  0  0  0  0  0
   41.7190   35.6840   39.9820 C   0  0  0  0  0  0  0  0  0  0  0  0
   40.3750   36.1990   40.4860 C   0  0  0  0  0  0  0  0  0  0  0  0
   39.5010   34.9750   40.2610 C   0  0  0  0  0  0  0  0  0  0  0  0
   40.4100   33.9290   40.9330 C   0  0  1  0  0  0  0  0  0  0  0  0
   39.9030   32.6060   40.8060 N   0  0  0  0  0  0  0  0  0  0  0  0
   39.7210   31.7200   41.8250 C   0  0  0  0  0  0  0  0  0  0  0  0
   39.2230   30.5540   41.3540 N   0  0  0  0  0  0  0  0  0  0  0  0
   39.0790   30.6710   40.0330 C   0  0  0  0  0  0  0  0  0  0  0  0
   38.6080   29.7520   39.1090 C   0  0  0  0  0  0  0  0  0  0  0  0
   38.5800   30.1690   37.8300 N   0  0  0  0  0  0  0  0  0  0  0  0
   38.9980   31.4220   37.5050 C   0  0  0  0  0  0  0  0  0  0  0  0
   39.4540   32.3020   38.4230 N   0  0  0  0  0  0  0  0  0  0  0  0
   39.5010   31.9430   39.7030 C   0  0  0  0  0  0  0  0  0  0  0  0
   42.8950   33.7860   41.1110 C   0  0  0  0  0  0  0  0  0  0  0  0
   44.0630   34.7380   41.0550 C   0  0  0  0  0  0  0  0  0  0  0  0
   46.1260   33.7290   41.9340 C   0  0  0  0  0  0  0  0  0  0  0  0
   44.9490   34.4430   42.1700 C   0  0  0  0  0  0  0  0  0  0  0  0
   44.7060   34.8260   43.4810 C   0  0  0  0  0  0  0  0  0  0  0  0
   45.6030   34.4960   44.4510 N   0  0  0  0  0  0  0  0  0  0  0  0
   46.7180   33.8150   44.1920 C   0  0  0  0  0  0  0  0  0  0  0  0
   46.9740   33.4360   42.9440 N   0  0  0  0  0  0  0  0  0  0  0  0
   46.4070   33.3200   40.6000 N   0  0  0  0  0  0  0  0  0  0  0  0
   47.2590   34.1110   39.9160 C   0  0  0  0  0  0  0  0  0  0  0  0
   47.4370   33.6120   38.6740 N   0  0  0  0  0  0  0  0  0  0  0  0
   46.6720   32.4960   38.6200 C   0  0  0  0  0  0  0  0  0  0  0  0
   46.0530   32.3400   39.8100 N   0  0  0  0  0  0  0  0  0  0  0  0
   41.8117   33.6260   39.3668 H   0  0  0  0  0  0  0  0  0  0  0  0
   42.5464   36.1841   40.5067 H   0  0  0  0  0  0  0  0  0  0  0  0
   41.8622   35.8816   38.9094 H   0  0  0  0  0  0  0  0  0  0  0  0
   40.4199   36.4748   41.5499 H   0  0  0  0  0  0  0  0  0  0  0  0
   40.0194   37.1118   39.9857 H   0  0  0  0  0  0  0  0  0  0  0  0
   38.5261   35.0623   40.7629 H   0  0  0  0  0  0  0  0  0  0  0  0
   39.2215   34.7692   39.2172 H   0  0  0  0  0  0  0  0  0  0  0  0
   40.4872   33.9930   42.0284 H   0  0  0  0  0  0  0  0  0  0  0  0
   39.9472   31.9242   42.8819 H   0  0  0  0  0  0  0  0  0  0  0  0
   38.2777   28.7447   39.4027 H   0  0  0  0  0  0  0  0  0  0  0  0
   38.9633   31.7318   36.4501 H   0  0  0  0  0  0  0  0  0  0  0  0
   42.5736   33.6951   42.1591 H   0  0  0  0  0  0  0  0  0  0  0  0
   43.2434   32.8319   40.6888 H   0  0  0  0  0  0  0  0  0  0  0  0
   44.6037   34.6073   40.1060 H   0  0  0  0  0  0  0  0  0  0  0  0
   43.7074   35.7770   41.1192 H   0  0  0  0  0  0  0  0  0  0  0  0
   43.7970   35.3911   43.7347 H   0  0  0  0  0  0  0  0  0  0  0  0
   47.4197   33.5688   45.0025 H   0  0  0  0  0  0  0  0  0  0  0  0
   47.7350   35.0214   40.3091 H   0  0  0  0  0  0  0  0  0  0  0  0
   46.5716   31.8281   37.7518 H   0  0  0  0  0  0  0  0  0  0  0  0
  1  5  1  0
  1 15  1  0
  2  1  1  0
  2  3  1  0
  4  3  1  0
  4  5  1  0
  6  5  1  0
  6  7  1  0
  8  7  2  0
  9  8  1  0
 10  9  2  0
 11 10  1  0
 12 11  2  0
 12 13  1  0
 13 14  2  0
 14  9  1  0
 14  6  1  0
 16 15  1  0
 16 18  1  0
 17 18  1  0
 17 22  2  0
 18 19  2  0
 19 20  1  0
 21 20  2  0
 22 21  1  0
 23 17  1  0
 24 23  1  0
 25 24  2  0
 26 25  1  0
 26 27  2  0
 27 23  1  0
  1 28  1  6
  2 29  1  0
  2 30  1  0
  3 31  1  0
  3 32  1  0
  4 33  1  0
  4 34  1  0
  5 35  1  1
  7 36  1  0
 10 37  1  0
 12 38  1  0
 15 39  1  0
 15 40  1  0
 16 41  1  0
 16 42  1  0
 19 43  1  0
 21 44  1  0
 24 45  1  0
 26 46  1  0
M  ISO  8  28  13  29  13  30  13  31  13  32  13  33  13  34  13  35  13
M  ISO  8  36  14  37  14  38  14  39   8  40   8  41   8  42   8  43  14
M  ISO  3  44  14  45  14  46  14
M  END
>  <minimizedAffinity>  (1) 
-5.5804348

>  <minimizedRMSD>  (1) 
4.74677992

$$$$
