
     RDKit          3D

 36 38  0  0  1  0  0  0  0  0999 V2000
   44.0270   35.6420   41.7880 C   0  0  0  0  0  0  0  0  0  0  0  0
   45.7740   34.3720   42.9610 C   0  0  0  0  0  0  0  0  0  0  0  0
   44.6530   35.1850   43.0230 C   0  0  0  0  0  0  0  0  0  0  0  0
   44.1920   35.5150   44.2900 C   0  0  0  0  0  0  0  0  0  0  0  0
   44.8420   35.0410   45.3850 N   0  0  0  0  0  0  0  0  0  0  0  0
   45.9200   34.2590   45.2780 C   0  0  0  0  0  0  0  0  0  0  0  0
   46.3860   33.9250   44.0770 N   0  0  0  0  0  0  0  0  0  0  0  0
   46.2700   34.0160   41.6660 N   0  0  0  0  0  0  0  0  0  0  0  0
   47.3200   34.7680   41.2330 C   0  0  0  0  0  0  0  0  0  0  0  0
   47.6900   34.3310   40.0060 N   0  0  0  0  0  0  0  0  0  0  0  0
   46.8360   33.3000   39.7200 C   0  0  0  0  0  0  0  0  0  0  0  0
   45.9810   33.1280   40.7440 N   0  0  0  0  0  0  0  0  0  0  0  0
   42.5750   35.2040   41.8030 C   0  0  0  0  0  0  0  0  0  0  0  0
   41.9000   35.3830   40.4690 C   0  0  2  0  0  0  0  0  0  0  0  0
   40.6020   36.1050   40.5530 C   0  0  0  0  0  0  0  0  0  0  0  0
   39.5800   35.1880   39.9120 C   0  0  0  0  0  0  0  0  0  0  0  0
   40.4290   34.4820   38.8840 C   0  0  0  0  0  0  0  0  0  0  0  0
   41.6460   34.1150   39.7400 C   0  0  1  0  0  0  0  0  0  0  0  0
   43.0340   33.8220   38.6060 S   0  0  0  0  0  0  0  0  0  0  0  0
   44.5412   35.1975   40.9231 H   0  0  0  0  0  0  0  0  0  0  0  0
   44.0929   36.7373   41.7111 H   0  0  0  0  0  0  0  0  0  0  0  0
   43.3059   36.1563   44.4069 H   0  0  0  0  0  0  0  0  0  0  0  0
   46.4232   33.8906   46.1841 H   0  0  0  0  0  0  0  0  0  0  0  0
   47.7895   35.5935   41.7881 H   0  0  0  0  0  0  0  0  0  0  0  0
   46.8473   32.7042   38.7954 H   0  0  0  0  0  0  0  0  0  0  0  0
   42.5312   34.1402   42.0796 H   0  0  0  0  0  0  0  0  0  0  0  0
   42.0450   35.8359   42.5309 H   0  0  0  0  0  0  0  0  0  0  0  0
   42.6340   35.9843   39.9125 H   0  0  0  0  0  0  0  0  0  0  0  0
   40.3382   36.2986   41.6032 H   0  0  0  0  0  0  0  0  0  0  0  0
   40.6466   37.0803   40.0462 H   0  0  0  0  0  0  0  0  0  0  0  0
   39.1582   34.4811   40.6416 H   0  0  0  0  0  0  0  0  0  0  0  0
   38.7036   35.7069   39.4964 H   0  0  0  0  0  0  0  0  0  0  0  0
   40.7019   35.1497   38.0535 H   0  0  0  0  0  0  0  0  0  0  0  0
   39.9399   33.6299   38.3894 H   0  0  0  0  0  0  0  0  0  0  0  0
   41.5132   33.2381   40.3908 H   0  0  0  0  0  0  0  0  0  0  0  0
   44.1721   33.5817   39.3298 H   0  0  0  0  0  0  0  0  0  0  0  0
  1 13  1  0
  1  3  1  0
  2  3  1  0
  2  7  2  0
  3  4  2  0
  4  5  1  0
  6  5  2  0
  7  6  1  0
  8  2  1  0
  9  8  1  0
 10  9  2  0
 11 10  1  0
 11 12  2  0
 12  8  1  0
 14 15  1  0
 14 13  1  0
 16 15  1  0
 17 18  1  0
 17 16  1  0
 18 14  1  0
 19 18  1  0
  1 20  1  0
  1 21  1  0
  4 22  1  0
  6 23  1  0
  9 24  1  0
 11 25  1  0
 13 26  1  0
 13 27  1  0
 14 28  1  6
 15 29  1  0
 15 30  1  0
 16 31  1  0
 16 32  1  0
 17 33  1  0
 17 34  1  0
 18 35  1  1
 19 36  1  0
M  ISO  8  20   8  21   8  22  14  23  14  24  14  25  14  26   8  27   8
M  ISO  8  28  13  29  13  30  13  31  13  32  13  33  13  34  13  35  13
M  ISO  1  36  11
M  END
>  <minimizedAffinity>  (1) 
-5.27285194

>  <minimizedRMSD>  (1) 
1.14678431

$$$$
