
     RDKit          3D

 40 44  0  0  0  0  0  0  0  0999 V2000
   44.6230   35.8620   44.9210 C   0  0  0  0  0  0  0  0  0  0  0  0
   44.1400   35.8230   43.5930 C   0  0  0  0  0  0  0  0  0  0  0  0
   44.3380   34.6800   42.8490 C   0  0  0  0  0  0  0  0  0  0  0  0
   44.9920   33.6870   43.4770 N   0  0  0  0  0  0  0  0  0  0  0  0
   45.4620   33.6940   44.7310 C   0  0  0  0  0  0  0  0  0  0  0  0
   45.2650   34.8100   45.4510 N   0  0  0  0  0  0  0  0  0  0  0  0
   46.1630   32.5650   45.3290 C   0  0  0  0  0  0  0  0  0  0  0  0
   47.0570   31.7090   44.6870 C   0  0  0  0  0  0  0  0  0  0  0  0
   47.4540   30.8230   45.6140 N   0  0  0  0  0  0  0  0  0  0  0  0
   46.8600   31.0770   46.7890 C   0  0  0  0  0  0  0  0  0  0  0  0
   46.9610   30.4350   48.0200 C   0  0  0  0  0  0  0  0  0  0  0  0
   46.2490   30.8740   49.1100 C   0  0  0  0  0  0  0  0  0  0  0  0
   45.4300   31.9620   48.9690 C   0  0  0  0  0  0  0  0  0  0  0  0
   45.2950   32.6400   47.7600 C   0  0  0  0  0  0  0  0  0  0  0  0
   46.0180   32.1900   46.6630 C   0  0  0  0  0  0  0  0  0  0  0  0
   44.0180   34.4120   41.4870 C   0  0  0  0  0  0  0  0  0  0  0  0
   44.9310   33.6670   40.7310 C   0  0  0  0  0  0  0  0  0  0  0  0
   44.7820   33.3070   39.4140 C   0  0  0  0  0  0  0  0  0  0  0  0
   43.6510   33.6900   38.7440 C   0  0  0  0  0  0  0  0  0  0  0  0
   42.6960   34.4230   39.4100 C   0  0  0  0  0  0  0  0  0  0  0  0
   41.5340   34.7880   38.7660 C   0  0  0  0  0  0  0  0  0  0  0  0
   40.5270   35.4900   39.3970 C   0  0  0  0  0  0  0  0  0  0  0  0
   40.7510   35.8130   40.7390 C   0  0  0  0  0  0  0  0  0  0  0  0
   41.9230   35.4310   41.3450 C   0  0  0  0  0  0  0  0  0  0  0  0
   42.9280   34.7380   40.7240 C   0  0  0  0  0  0  0  0  0  0  0  0
   44.4704   36.7668   45.5277 H   0  0  0  0  0  0  0  0  0  0  0  0
   43.6160   36.6887   43.1616 H   0  0  0  0  0  0  0  0  0  0  0  0
   47.3730   31.7512   43.6342 H   0  0  0  0  0  0  0  0  0  0  0  0
   48.1209   30.0562   45.4463 H   0  0  0  0  0  0  0  0  0  0  0  0
   47.6219   29.5616   48.1218 H   0  0  0  0  0  0  0  0  0  0  0  0
   46.3355   30.3604   50.0789 H   0  0  0  0  0  0  0  0  0  0  0  0
   44.8587   32.3129   49.8410 H   0  0  0  0  0  0  0  0  0  0  0  0
   44.6305   33.5125   47.6759 H   0  0  0  0  0  0  0  0  0  0  0  0
   45.8511   33.3404   41.2378 H   0  0  0  0  0  0  0  0  0  0  0  0
   45.5601   32.7194   38.9048 H   0  0  0  0  0  0  0  0  0  0  0  0
   43.5080   33.4156   37.6884 H   0  0  0  0  0  0  0  0  0  0  0  0
   41.4040   34.5096   37.7098 H   0  0  0  0  0  0  0  0  0  0  0  0
   39.6027   35.7784   38.8750 H   0  0  0  0  0  0  0  0  0  0  0  0
   39.9918   36.3707   41.3070 H   0  0  0  0  0  0  0  0  0  0  0  0
   42.0642   35.7003   42.4021 H   0  0  0  0  0  0  0  0  0  0  0  0
  1  6  2  0
  2  1  1  0
  3  4  1  0
  3  2  2  0
  4  5  2  0
  5  7  1  0
  5  6  1  0
  7 15  1  0
  8  7  2  0
  8  9  1  0
  9 10  1  0
 10 11  2  0
 11 12  1  0
 13 12  2  0
 14 13  1  0
 15 10  1  0
 15 14  2  0
 16  3  1  0
 17 16  2  0
 18 17  1  0
 19 20  1  0
 19 18  2  0
 20 25  2  0
 21 22  2  0
 21 20  1  0
 22 23  1  0
 23 24  2  0
 25 24  1  0
 25 16  1  0
  1 26  1  0
  2 27  1  0
  8 28  1  0
  9 29  1  0
 11 30  1  0
 12 31  1  0
 13 32  1  0
 14 33  1  0
 17 34  1  0
 18 35  1  0
 19 36  1  0
 21 37  1  0
 22 38  1  0
 23 39  1  0
 24 40  1  0
M  ISO  8  26  14  27  14  28  14  29   9  30  14  31  14  32  14  33  14
M  ISO  7  34  14  35  14  36  14  37  14  38  14  39  14  40  14
M  END
>  <minimizedAffinity>  (1) 
-7.31989336

>  <minimizedRMSD>  (1) 
0.655954719

$$$$
