
     RDKit          3D

 38 41  0  0  0  0  0  0  0  0999 V2000
   46.2440   32.4910   45.3720 C   0  0  0  0  0  0  0  0  0  0  0  0
   47.2020   31.6470   44.8060 C   0  0  0  0  0  0  0  0  0  0  0  0
   47.5960   30.8160   45.7720 N   0  0  0  0  0  0  0  0  0  0  0  0
   46.9350   31.0920   46.9190 C   0  0  0  0  0  0  0  0  0  0  0  0
   47.0040   30.5040   48.1840 C   0  0  0  0  0  0  0  0  0  0  0  0
   46.2260   30.9570   49.2230 C   0  0  0  0  0  0  0  0  0  0  0  0
   45.3750   31.9970   49.0040 C   0  0  0  0  0  0  0  0  0  0  0  0
   45.2760   32.6110   47.7550 C   0  0  0  0  0  0  0  0  0  0  0  0
   46.0540   32.1610   46.7160 C   0  0  0  0  0  0  0  0  0  0  0  0
   44.6630   35.7490   44.7810 C   0  0  0  0  0  0  0  0  0  0  0  0
   44.1880   35.6290   43.4560 C   0  0  0  0  0  0  0  0  0  0  0  0
   44.4140   34.4390   42.7850 C   0  0  0  0  0  0  0  0  0  0  0  0
   45.0760   33.4550   43.4300 N   0  0  0  0  0  0  0  0  0  0  0  0
   45.5310   33.5640   44.6920 C   0  0  0  0  0  0  0  0  0  0  0  0
   45.3170   34.7270   45.3650 N   0  0  0  0  0  0  0  0  0  0  0  0
   43.9420   34.2950   41.4430 N   0  0  0  0  0  0  0  0  0  0  0  0
   44.8610   33.7160   40.4850 C   0  0  0  0  0  0  0  0  0  0  0  0
   44.0440   33.4540   39.2200 C   0  0  0  0  0  0  0  0  0  0  0  0
   43.4190   34.6850   38.8530 N   0  0  0  0  0  0  0  0  0  0  0  0
   42.3370   35.0660   39.7290 C   0  0  0  0  0  0  0  0  0  0  0  0
   42.5880   34.7400   41.1640 C   0  0  0  0  0  0  0  0  0  0  0  0
   47.5614   31.6642   43.7665 H   0  0  0  0  0  0  0  0  0  0  0  0
   48.3005   30.0729   45.6607 H   0  0  0  0  0  0  0  0  0  0  0  0
   47.6932   29.6633   48.3520 H   0  0  0  0  0  0  0  0  0  0  0  0
   46.2900   30.4868   50.2154 H   0  0  0  0  0  0  0  0  0  0  0  0
   44.7500   32.3622   49.8323 H   0  0  0  0  0  0  0  0  0  0  0  0
   44.5801   33.4493   47.6034 H   0  0  0  0  0  0  0  0  0  0  0  0
   44.4977   36.6826   45.3388 H   0  0  0  0  0  0  0  0  0  0  0  0
   43.6531   36.4585   42.9704 H   0  0  0  0  0  0  0  0  0  0  0  0
   45.6816   34.4167   40.2713 H   0  0  0  0  0  0  0  0  0  0  0  0
   45.3135   32.7904   40.8704 H   0  0  0  0  0  0  0  0  0  0  0  0
   44.7046   33.1115   38.4099 H   0  0  0  0  0  0  0  0  0  0  0  0
   43.2898   32.6736   39.3992 H   0  0  0  0  0  0  0  0  0  0  0  0
   44.1304   35.4297   38.8709 H   0  0  0  0  0  0  0  0  0  0  0  0
   42.1835   36.1516   39.6405 H   0  0  0  0  0  0  0  0  0  0  0  0
   41.4518   34.4921   39.4174 H   0  0  0  0  0  0  0  0  0  0  0  0
   42.3904   35.6414   41.7627 H   0  0  0  0  0  0  0  0  0  0  0  0
   41.9203   33.9045   41.4209 H   0  0  0  0  0  0  0  0  0  0  0  0
  1  9  1  0
  2  1  2  0
  2  3  1  0
  3  4  1  0
  4  5  2  0
  5  6  1  0
  7  6  2  0
  8  7  1  0
  9  4  1  0
  9  8  2  0
 10 15  2  0
 11 10  1  0
 12 13  1  0
 12 11  2  0
 13 14  2  0
 14 15  1  0
 14  1  1  0
 16 12  1  0
 17 16  1  0
 18 17  1  0
 19 18  1  0
 19 20  1  0
 20 21  1  0
 21 16  1  0
  2 22  1  0
  3 23  1  0
  5 24  1  0
  6 25  1  0
  7 26  1  0
  8 27  1  0
 10 28  1  0
 11 29  1  0
 17 30  1  0
 17 31  1  0
 18 32  1  0
 18 33  1  0
 19 34  1  0
 20 35  1  0
 20 36  1  0
 21 37  1  0
 21 38  1  0
M  ISO  8  22  14  23   9  24  14  25  14  26  14  27  14  28  14  29  14
M  ISO  8  30  13  31  13  32  13  33  13  34   5  35  13  36  13  37  13
M  ISO  1  38  13
M  END
>  <minimizedAffinity>  (1) 
-5.9198761

>  <minimizedRMSD>  (1) 
0.455443799

$$$$
