
     RDKit          3D

 37 40  0  0  0  0  0  0  0  0999 V2000
   46.2340   32.5410   45.4030 C   0  0  0  0  0  0  0  0  0  0  0  0
   47.1600   31.7010   44.7850 C   0  0  0  0  0  0  0  0  0  0  0  0
   47.5470   30.8210   45.7280 N   0  0  0  0  0  0  0  0  0  0  0  0
   46.9050   31.0840   46.8840 C   0  0  0  0  0  0  0  0  0  0  0  0
   46.9990   30.4300   48.1150 C   0  0  0  0  0  0  0  0  0  0  0  0
   46.2390   30.8660   49.1970 C   0  0  0  0  0  0  0  0  0  0  0  0
   45.3990   31.9450   49.0360 C   0  0  0  0  0  0  0  0  0  0  0  0
   45.3020   32.6040   47.8050 C   0  0  0  0  0  0  0  0  0  0  0  0
   46.0570   32.1690   46.7350 C   0  0  0  0  0  0  0  0  0  0  0  0
   44.5740   35.7860   44.9770 C   0  0  0  0  0  0  0  0  0  0  0  0
   44.2010   35.7830   43.6170 C   0  0  0  0  0  0  0  0  0  0  0  0
   44.5260   34.6650   42.8690 C   0  0  0  0  0  0  0  0  0  0  0  0
   45.1810   33.6330   43.4630 N   0  0  0  0  0  0  0  0  0  0  0  0
   45.5290   33.6630   44.7780 C   0  0  0  0  0  0  0  0  0  0  0  0
   45.2190   34.7490   45.5270 N   0  0  0  0  0  0  0  0  0  0  0  0
   44.1760   34.6160   41.5180 N   0  0  0  0  0  0  0  0  0  0  0  0
   42.9850   35.2330   41.0250 C   0  0  0  0  0  0  0  0  0  0  0  0
   42.6810   34.9950   39.6020 C   0  0  0  0  0  0  0  0  0  0  0  0
   43.3260   33.9830   38.9590 O   0  0  0  0  0  0  0  0  0  0  0  0
   43.9990   33.0760   39.7570 C   0  0  0  0  0  0  0  0  0  0  0  0
   45.0080   33.9330   40.5370 C   0  0  0  0  0  0  0  0  0  0  0  0
   47.5038   31.7477   43.7412 H   0  0  0  0  0  0  0  0  0  0  0  0
   48.2295   30.0625   45.5875 H   0  0  0  0  0  0  0  0  0  0  0  0
   47.6744   29.5694   48.2295 H   0  0  0  0  0  0  0  0  0  0  0  0
   46.3088   30.3548   50.1685 H   0  0  0  0  0  0  0  0  0  0  0  0
   44.7956   32.2941   49.8869 H   0  0  0  0  0  0  0  0  0  0  0  0
   44.6269   33.4649   47.6910 H   0  0  0  0  0  0  0  0  0  0  0  0
   44.3298   36.6592   45.5998 H   0  0  0  0  0  0  0  0  0  0  0  0
   43.6720   36.6366   43.1680 H   0  0  0  0  0  0  0  0  0  0  0  0
   42.1390   34.8560   41.6185 H   0  0  0  0  0  0  0  0  0  0  0  0
   43.1492   36.3167   41.1183 H   0  0  0  0  0  0  0  0  0  0  0  0
   41.6027   34.7896   39.5306 H   0  0  0  0  0  0  0  0  0  0  0  0
   43.0364   35.9046   39.0957 H   0  0  0  0  0  0  0  0  0  0  0  0
   43.3042   32.5703   40.4436 H   0  0  0  0  0  0  0  0  0  0  0  0
   44.4856   32.2814   39.1723 H   0  0  0  0  0  0  0  0  0  0  0  0
   45.7627   33.3028   41.0302 H   0  0  0  0  0  0  0  0  0  0  0  0
   45.5740   34.6242   39.8953 H   0  0  0  0  0  0  0  0  0  0  0  0
  1  9  1  0
  2  1  2  0
  2  3  1  0
  3  4  1  0
  4  5  2  0
  5  6  1  0
  7  6  2  0
  8  7  1  0
  9  4  1  0
  9  8  2  0
 10 15  2  0
 11 10  1  0
 12 13  1  0
 12 11  2  0
 13 14  2  0
 14  1  1  0
 14 15  1  0
 16 12  1  0
 17 16  1  0
 18 17  1  0
 19 18  1  0
 19 20  1  0
 20 21  1  0
 21 16  1  0
  2 22  1  0
  3 23  1  0
  5 24  1  0
  6 25  1  0
  7 26  1  0
  8 27  1  0
 10 28  1  0
 11 29  1  0
 17 30  1  0
 17 31  1  0
 18 32  1  0
 18 33  1  0
 20 34  1  0
 20 35  1  0
 21 36  1  0
 21 37  1  0
M  ISO  8  22  14  23   9  24  14  25  14  26  14  27  14  28  14  29  14
M  ISO  8  30  13  31  13  32  13  33  13  34  13  35  13  36  13  37  13
M  END
>  <minimizedAffinity>  (1) 
-5.84997129

>  <minimizedRMSD>  (1) 
0.71936518

$$$$
