
     RDKit          3D

 36 38  0  0  0  0  0  0  0  0999 V2000
   46.2650   32.4850   45.4040 C   0  0  0  0  0  0  0  0  0  0  0  0
   47.2030   31.6440   44.8360 C   0  0  0  0  0  0  0  0  0  0  0  0
   47.5820   30.7940   45.8000 N   0  0  0  0  0  0  0  0  0  0  0  0
   46.9280   31.0620   46.9370 C   0  0  0  0  0  0  0  0  0  0  0  0
   47.0020   30.4430   48.1830 C   0  0  0  0  0  0  0  0  0  0  0  0
   46.2190   30.8940   49.2430 C   0  0  0  0  0  0  0  0  0  0  0  0
   45.3790   31.9490   49.0440 C   0  0  0  0  0  0  0  0  0  0  0  0
   45.2830   32.5930   47.8030 C   0  0  0  0  0  0  0  0  0  0  0  0
   46.0650   32.1410   46.7470 C   0  0  0  0  0  0  0  0  0  0  0  0
   44.6250   35.7300   44.9000 C   0  0  0  0  0  0  0  0  0  0  0  0
   44.1910   35.6690   43.5550 C   0  0  0  0  0  0  0  0  0  0  0  0
   44.4760   34.5070   42.8540 C   0  0  0  0  0  0  0  0  0  0  0  0
   45.1440   33.4900   43.4590 N   0  0  0  0  0  0  0  0  0  0  0  0
   45.5510   33.5800   44.7590 C   0  0  0  0  0  0  0  0  0  0  0  0
   45.2810   34.7110   45.4630 N   0  0  0  0  0  0  0  0  0  0  0  0
   44.1020   34.2660   41.4520 C   0  0  0  0  0  0  0  0  0  0  0  0
   43.1860   33.0540   41.3210 C   0  0  0  0  0  0  0  0  0  0  0  0
   43.3530   35.4430   40.8490 C   0  0  0  0  0  0  0  0  0  0  0  0
   45.3040   33.9950   40.5580 C   0  0  0  0  0  0  0  0  0  0  0  0
   47.5665   31.6677   43.7981 H   0  0  0  0  0  0  0  0  0  0  0  0
   48.2766   30.0425   45.6831 H   0  0  0  0  0  0  0  0  0  0  0  0
   47.6835   29.5922   48.3306 H   0  0  0  0  0  0  0  0  0  0  0  0
   46.2776   30.4057   50.2269 H   0  0  0  0  0  0  0  0  0  0  0  0
   44.7595   32.3046   49.8805 H   0  0  0  0  0  0  0  0  0  0  0  0
   44.5989   33.4435   47.6669 H   0  0  0  0  0  0  0  0  0  0  0  0
   44.4187   36.6329   45.4934 H   0  0  0  0  0  0  0  0  0  0  0  0
   43.6518   36.5055   43.0864 H   0  0  0  0  0  0  0  0  0  0  0  0
   42.9120   32.6915   42.3228 H   0  0  0  0  0  0  0  0  0  0  0  0
   42.2761   33.3396   40.7729 H   0  0  0  0  0  0  0  0  0  0  0  0
   43.7091   32.2566   40.7729 H   0  0  0  0  0  0  0  0  0  0  0  0
   42.9514   36.0741   41.6555 H   0  0  0  0  0  0  0  0  0  0  0  0
   44.0405   36.0356   40.2275 H   0  0  0  0  0  0  0  0  0  0  0  0
   42.5250   35.0712   40.2275 H   0  0  0  0  0  0  0  0  0  0  0  0
   46.1876   33.7958   41.1821 H   0  0  0  0  0  0  0  0  0  0  0  0
   45.0989   33.1205   39.9230 H   0  0  0  0  0  0  0  0  0  0  0  0
   45.4940   34.8729   39.9230 H   0  0  0  0  0  0  0  0  0  0  0  0
  1  9  1  0
  2  1  2  0
  2  3  1  0
  3  4  1  0
  4  5  2  0
  5  6  1  0
  7  6  2  0
  8  7  1  0
  9  4  1  0
  9  8  2  0
 10 15  2  0
 11 10  1  0
 12 13  1  0
 12 11  2  0
 13 14  2  0
 14  1  1  0
 14 15  1  0
 16 12  1  0
 17 16  1  0
 18 16  1  0
 19 16  1  0
  2 20  1  0
  3 21  1  0
  5 22  1  0
  6 23  1  0
  7 24  1  0
  8 25  1  0
 10 26  1  0
 11 27  1  0
 17 28  1  0
 17 29  1  0
 17 30  1  0
 18 31  1  0
 18 32  1  0
 18 33  1  0
 19 34  1  0
 19 35  1  0
 19 36  1  0
M  ISO  8  20  14  21   9  22  14  23  14  24  14  25  14  26  14  27  14
M  ISO  8  28   8  29   8  30   8  31   8  32   8  33   8  34   8  35   8
M  ISO  1  36   8
M  END
>  <minimizedAffinity>  (1) 
-5.54648066

>  <minimizedRMSD>  (1) 
0.598868489

$$$$
