
     RDKit          3D

 36 39  0  0  0  0  0  0  0  0999 V2000
   46.2790   32.5050   45.4700 C   0  0  0  0  0  0  0  0  0  0  0  0
   47.1920   31.6620   44.8630 C   0  0  0  0  0  0  0  0  0  0  0  0
   47.5610   30.7740   45.7960 N   0  0  0  0  0  0  0  0  0  0  0  0
   46.9190   31.0260   46.9600 C   0  0  0  0  0  0  0  0  0  0  0  0
   46.9950   30.3640   48.1800 C   0  0  0  0  0  0  0  0  0  0  0  0
   46.2380   30.8000   49.2460 C   0  0  0  0  0  0  0  0  0  0  0  0
   45.4190   31.8800   49.0910 C   0  0  0  0  0  0  0  0  0  0  0  0
   45.3230   32.5640   47.8780 C   0  0  0  0  0  0  0  0  0  0  0  0
   46.0760   32.1340   46.8090 C   0  0  0  0  0  0  0  0  0  0  0  0
   44.5250   35.7160   45.1010 C   0  0  0  0  0  0  0  0  0  0  0  0
   44.2560   35.7740   43.7040 C   0  0  0  0  0  0  0  0  0  0  0  0
   44.6850   34.7080   42.9280 C   0  0  0  0  0  0  0  0  0  0  0  0
   45.3310   33.6760   43.5270 N   0  0  0  0  0  0  0  0  0  0  0  0
   45.5770   33.6450   44.8670 C   0  0  0  0  0  0  0  0  0  0  0  0
   45.1700   34.6690   45.6380 N   0  0  0  0  0  0  0  0  0  0  0  0
   44.4550   34.6950   41.5350 N   0  0  0  0  0  0  0  0  0  0  0  0
   43.4020   35.4050   40.7980 C   0  0  0  0  0  0  0  0  0  0  0  0
   42.8890   34.2680   39.9300 C   0  0  0  0  0  0  0  0  0  0  0  0
   44.1230   33.4280   39.6250 C   0  0  0  0  0  0  0  0  0  0  0  0
   45.1860   33.9920   40.5270 C   0  0  0  0  0  0  0  0  0  0  0  0
   47.5447   31.7108   43.8222 H   0  0  0  0  0  0  0  0  0  0  0  0
   48.2358   30.0100   45.6484 H   0  0  0  0  0  0  0  0  0  0  0  0
   47.6581   29.4938   48.2944 H   0  0  0  0  0  0  0  0  0  0  0  0
   46.2938   30.2812   50.2143 H   0  0  0  0  0  0  0  0  0  0  0  0
   44.8172   32.2215   49.9462 H   0  0  0  0  0  0  0  0  0  0  0  0
   44.6561   33.4330   47.7780 H   0  0  0  0  0  0  0  0  0  0  0  0
   44.1991   36.5422   45.7500 H   0  0  0  0  0  0  0  0  0  0  0  0
   43.7289   36.6303   43.2581 H   0  0  0  0  0  0  0  0  0  0  0  0
   42.6216   35.7923   41.4695 H   0  0  0  0  0  0  0  0  0  0  0  0
   43.7367   36.2974   40.2489 H   0  0  0  0  0  0  0  0  0  0  0  0
   42.1393   33.6734   40.4726 H   0  0  0  0  0  0  0  0  0  0  0  0
   42.3963   34.6314   39.0161 H   0  0  0  0  0  0  0  0  0  0  0  0
   43.9395   32.3678   39.8539 H   0  0  0  0  0  0  0  0  0  0  0  0
   44.4073   33.4674   38.5631 H   0  0  0  0  0  0  0  0  0  0  0  0
   45.7876   33.1859   40.9723 H   0  0  0  0  0  0  0  0  0  0  0  0
   45.8931   34.6412   39.9898 H   0  0  0  0  0  0  0  0  0  0  0  0
  1  9  1  0
  2  1  2  0
  2  3  1  0
  3  4  1  0
  4  5  2  0
  5  6  1  0
  7  6  2  0
  8  7  1  0
  9  4  1  0
  9  8  2  0
 10 15  2  0
 11 10  1  0
 12 13  1  0
 12 11  2  0
 13 14  2  0
 14  1  1  0
 14 15  1  0
 16 12  1  0
 17 16  1  0
 18 17  1  0
 19 18  1  0
 19 20  1  0
 20 16  1  0
  2 21  1  0
  3 22  1  0
  5 23  1  0
  6 24  1  0
  7 25  1  0
  8 26  1  0
 10 27  1  0
 11 28  1  0
 17 29  1  0
 17 30  1  0
 18 31  1  0
 18 32  1  0
 19 33  1  0
 19 34  1  0
 20 35  1  0
 20 36  1  0
M  ISO  8  21  14  22   9  23  14  24  14  25  14  26  14  27  14  28  14
M  ISO  8  29  13  30  13  31  13  32  13  33  13  34  13  35  13  36  13
M  END
>  <minimizedAffinity>  (1) 
-5.76356983

>  <minimizedRMSD>  (1) 
0.285626709

$$$$
