
     RDKit          3D

 27 29  0  0  0  0  0  0  0  0999 V2000
   46.2740   32.5310   45.4050 C   0  0  0  0  0  0  0  0  0  0  0  0
   47.1980   31.6760   44.8150 C   0  0  0  0  0  0  0  0  0  0  0  0
   47.5640   30.8090   45.7570 N   0  0  0  0  0  0  0  0  0  0  0  0
   46.9210   31.0690   46.9130 C   0  0  0  0  0  0  0  0  0  0  0  0
   46.9870   30.4340   48.1480 C   0  0  0  0  0  0  0  0  0  0  0  0
   46.2190   30.8840   49.2200 C   0  0  0  0  0  0  0  0  0  0  0  0
   45.3930   31.9680   49.0390 C   0  0  0  0  0  0  0  0  0  0  0  0
   45.3140   32.6180   47.8030 C   0  0  0  0  0  0  0  0  0  0  0  0
   46.0760   32.1720   46.7400 C   0  0  0  0  0  0  0  0  0  0  0  0
   44.5390   35.7380   44.9850 C   0  0  0  0  0  0  0  0  0  0  0  0
   44.2750   35.7710   43.5910 C   0  0  0  0  0  0  0  0  0  0  0  0
   44.6980   34.6850   42.8140 C   0  0  0  0  0  0  0  0  0  0  0  0
   45.3380   33.6650   43.4390 N   0  0  0  0  0  0  0  0  0  0  0  0
   45.5810   33.6540   44.7750 C   0  0  0  0  0  0  0  0  0  0  0  0
   45.1760   34.6940   45.5270 N   0  0  0  0  0  0  0  0  0  0  0  0
   44.4330   34.6970   41.3580 C   0  0  0  0  0  0  0  0  0  0  0  0
   43.7630   35.8620   41.0110 F   0  0  0  0  0  0  0  0  0  0  0  0
   43.6250   33.6240   41.0530 F   0  0  0  0  0  0  0  0  0  0  0  0
   45.6640   34.6240   40.7190 F   0  0  0  0  0  0  0  0  0  0  0  0
   47.5560   31.7092   43.7754 H   0  0  0  0  0  0  0  0  0  0  0  0
   48.2432   30.0466   45.6215 H   0  0  0  0  0  0  0  0  0  0  0  0
   47.6520   29.5678   48.2802 H   0  0  0  0  0  0  0  0  0  0  0  0
   46.2728   30.3797   50.1961 H   0  0  0  0  0  0  0  0  0  0  0  0
   44.7840   32.3302   49.8804 H   0  0  0  0  0  0  0  0  0  0  0  0
   44.6462   33.4830   47.6773 H   0  0  0  0  0  0  0  0  0  0  0  0
   44.2183   36.5749   45.6228 H   0  0  0  0  0  0  0  0  0  0  0  0
   43.7533   36.6247   43.1339 H   0  0  0  0  0  0  0  0  0  0  0  0
  1  9  1  0
  2  1  2  0
  2  3  1  0
  3  4  1  0
  4  5  2  0
  5  6  1  0
  7  6  2  0
  8  7  1  0
  9  4  1  0
  9  8  2  0
 10 15  2  0
 11 10  1  0
 12 13  1  0
 12 11  2  0
 13 14  2  0
 14  1  1  0
 14 15  1  0
 16 12  1  0
 17 16  1  0
 18 16  1  0
 19 16  1  0
  2 20  1  0
  3 21  1  0
  5 22  1  0
  6 23  1  0
  7 24  1  0
  8 25  1  0
 10 26  1  0
 11 27  1  0
M  ISO  8  20  14  21   9  22  14  23  14  24  14  25  14  26  14  27  14
M  END
>  <minimizedAffinity>  (1) 
-5.71796989

>  <minimizedRMSD>  (1) 
0.238963768

$$$$
