
     RDKit          3D

 31 34  0  0  0  0  0  0  0  0999 V2000
   46.2270   32.5380   45.3730 C   0  0  0  0  0  0  0  0  0  0  0  0
   47.1420   31.6960   44.7700 C   0  0  0  0  0  0  0  0  0  0  0  0
   47.5260   30.8240   45.7050 N   0  0  0  0  0  0  0  0  0  0  0  0
   46.8970   31.0750   46.8770 C   0  0  0  0  0  0  0  0  0  0  0  0
   46.9900   30.4300   48.1040 C   0  0  0  0  0  0  0  0  0  0  0  0
   46.2420   30.8700   49.1710 C   0  0  0  0  0  0  0  0  0  0  0  0
   45.4050   31.9470   49.0210 C   0  0  0  0  0  0  0  0  0  0  0  0
   45.2950   32.6120   47.7930 C   0  0  0  0  0  0  0  0  0  0  0  0
   46.0480   32.1710   46.7160 C   0  0  0  0  0  0  0  0  0  0  0  0
   44.6150   35.8140   44.9470 C   0  0  0  0  0  0  0  0  0  0  0  0
   44.1570   35.7680   43.6100 C   0  0  0  0  0  0  0  0  0  0  0  0
   44.4120   34.6150   42.8850 C   0  0  0  0  0  0  0  0  0  0  0  0
   45.0780   33.5980   43.4790 N   0  0  0  0  0  0  0  0  0  0  0  0
   45.5090   33.6670   44.7690 C   0  0  0  0  0  0  0  0  0  0  0  0
   45.2690   34.7790   45.4840 N   0  0  0  0  0  0  0  0  0  0  0  0
   44.0470   34.3560   41.5430 N   0  0  0  0  0  0  0  0  0  0  0  0
   44.4170   33.4600   40.6420 N   0  0  0  0  0  0  0  0  0  0  0  0
   43.7370   33.6650   39.4810 C   0  0  0  0  0  0  0  0  0  0  0  0
   42.9000   34.7600   39.7000 C   0  0  0  0  0  0  0  0  0  0  0  0
   43.1160   35.1780   41.0100 C   0  0  0  0  0  0  0  0  0  0  0  0
   47.4859   31.7363   43.7259 H   0  0  0  0  0  0  0  0  0  0  0  0
   48.2065   30.0654   45.5554 H   0  0  0  0  0  0  0  0  0  0  0  0
   47.6620   29.5672   48.2221 H   0  0  0  0  0  0  0  0  0  0  0  0
   46.3146   30.3596   50.1427 H   0  0  0  0  0  0  0  0  0  0  0  0
   44.8106   32.2939   49.8792 H   0  0  0  0  0  0  0  0  0  0  0  0
   44.6195   33.4734   47.6847 H   0  0  0  0  0  0  0  0  0  0  0  0
   44.4308   36.7132   45.5532 H   0  0  0  0  0  0  0  0  0  0  0  0
   43.6183   36.6160   43.1621 H   0  0  0  0  0  0  0  0  0  0  0  0
   43.8290   33.0822   38.5526 H   0  0  0  0  0  0  0  0  0  0  0  0
   42.2030   35.2072   38.9760 H   0  0  0  0  0  0  0  0  0  0  0  0
   42.6215   36.0199   41.5166 H   0  0  0  0  0  0  0  0  0  0  0  0
  1  9  1  0
  2  1  2  0
  2  3  1  0
  3  4  1  0
  4  5  2  0
  5  6  1  0
  7  6  2  0
  8  7  1  0
  9  4  1  0
  9  8  2  0
 10 15  2  0
 11 10  1  0
 12 13  1  0
 12 11  2  0
 13 14  2  0
 14  1  1  0
 14 15  1  0
 16 12  1  0
 17 16  1  0
 18 19  1  0
 18 17  2  0
 19 20  2  0
 20 16  1  0
  2 21  1  0
  3 22  1  0
  5 23  1  0
  6 24  1  0
  7 25  1  0
  8 26  1  0
 10 27  1  0
 11 28  1  0
 18 29  1  0
 19 30  1  0
 20 31  1  0
M  ISO  8  21  14  22   9  23  14  24  14  25  14  26  14  27  14  28  14
M  ISO  3  29  14  30  14  31  14
M  END
>  <minimizedAffinity>  (1) 
-5.56276464

>  <minimizedRMSD>  (1) 
0.5932585

$$$$
