
     RDKit          3D

 32 35  0  0  0  0  0  0  0  0999 V2000
   46.2420   32.5230   45.3710 C   0  0  0  0  0  0  0  0  0  0  0  0
   47.1700   31.6770   44.7810 C   0  0  0  0  0  0  0  0  0  0  0  0
   47.5540   30.8200   45.7330 N   0  0  0  0  0  0  0  0  0  0  0  0
   46.9190   31.0810   46.8840 C   0  0  0  0  0  0  0  0  0  0  0  0
   47.0010   30.4560   48.1230 C   0  0  0  0  0  0  0  0  0  0  0  0
   46.2350   30.9030   49.2000 C   0  0  0  0  0  0  0  0  0  0  0  0
   45.3910   31.9770   49.0170 C   0  0  0  0  0  0  0  0  0  0  0  0
   45.2960   32.6170   47.7790 C   0  0  0  0  0  0  0  0  0  0  0  0
   46.0510   32.1760   46.7200 C   0  0  0  0  0  0  0  0  0  0  0  0
   44.6260   35.7850   44.8980 C   0  0  0  0  0  0  0  0  0  0  0  0
   44.1840   35.7140   43.5390 C   0  0  0  0  0  0  0  0  0  0  0  0
   44.4520   34.5490   42.8170 C   0  0  0  0  0  0  0  0  0  0  0  0
   45.1160   33.5490   43.4470 N   0  0  0  0  0  0  0  0  0  0  0  0
   45.5260   33.6380   44.7390 C   0  0  0  0  0  0  0  0  0  0  0  0
   45.2760   34.7530   45.4480 N   0  0  0  0  0  0  0  0  0  0  0  0
   44.0590   34.3560   41.4440 C   0  0  0  0  0  0  0  0  0  0  0  0
   43.0310   35.0090   40.8380 C   0  0  0  0  0  0  0  0  0  0  0  0
   42.6450   34.8280   39.5160 C   0  0  0  0  0  0  0  0  0  0  0  0
   43.3440   33.9390   38.7790 N   0  0  0  0  0  0  0  0  0  0  0  0
   44.3640   33.2810   39.3560 C   0  0  0  0  0  0  0  0  0  0  0  0
   44.7110   33.4770   40.6310 N   0  0  0  0  0  0  0  0  0  0  0  0
   47.5199   31.7055   43.7385 H   0  0  0  0  0  0  0  0  0  0  0  0
   48.2417   30.0648   45.6002 H   0  0  0  0  0  0  0  0  0  0  0  0
   47.6777   29.5990   48.2558 H   0  0  0  0  0  0  0  0  0  0  0  0
   46.3036   30.4064   50.1791 H   0  0  0  0  0  0  0  0  0  0  0  0
   44.7821   32.3362   49.8597 H   0  0  0  0  0  0  0  0  0  0  0  0
   44.6172   33.4733   47.6525 H   0  0  0  0  0  0  0  0  0  0  0  0
   44.4309   36.6901   45.4919 H   0  0  0  0  0  0  0  0  0  0  0  0
   43.6473   36.5548   43.0752 H   0  0  0  0  0  0  0  0  0  0  0  0
   42.4633   35.7342   41.4395 H   0  0  0  0  0  0  0  0  0  0  0  0
   41.8015   35.3880   39.0859 H   0  0  0  0  0  0  0  0  0  0  0  0
   44.9334   32.5551   38.7570 H   0  0  0  0  0  0  0  0  0  0  0  0
  1  9  1  0
  2  1  2  0
  2  3  1  0
  3  4  1  0
  4  5  2  0
  5  6  1  0
  7  6  2  0
  8  7  1  0
  9  4  1  0
  9  8  2  0
 10 15  2  0
 11 10  1  0
 12 13  1  0
 12 11  2  0
 13 14  2  0
 14  1  1  0
 14 15  1  0
 16 12  1  0
 17 16  2  0
 18 17  1  0
 19 20  1  0
 19 18  2  0
 20 21  2  0
 21 16  1  0
  2 22  1  0
  3 23  1  0
  5 24  1  0
  6 25  1  0
  7 26  1  0
  8 27  1  0
 10 28  1  0
 11 29  1  0
 17 30  1  0
 18 31  1  0
 20 32  1  0
M  ISO  8  22  14  23   9  24  14  25  14  26  14  27  14  28  14  29  14
M  ISO  3  30  14  31  14  32  14
M  END
>  <minimizedAffinity>  (1) 
-5.76913071

>  <minimizedRMSD>  (1) 
0.618153393

$$$$
