
     RDKit          3D

 33 35  0  0  0  0  0  0  0  0999 V2000
   46.3150   32.5500   45.4850 C   0  0  0  0  0  0  0  0  0  0  0  0
   47.2240   31.6840   44.8590 C   0  0  0  0  0  0  0  0  0  0  0  0
   47.5620   30.7810   45.7870 N   0  0  0  0  0  0  0  0  0  0  0  0
   46.9180   31.0330   46.9510 C   0  0  0  0  0  0  0  0  0  0  0  0
   46.9570   30.3670   48.1740 C   0  0  0  0  0  0  0  0  0  0  0  0
   46.2090   30.8000   49.2410 C   0  0  0  0  0  0  0  0  0  0  0  0
   45.4260   31.8960   49.0790 C   0  0  0  0  0  0  0  0  0  0  0  0
   45.3620   32.5910   47.8650 C   0  0  0  0  0  0  0  0  0  0  0  0
   46.1100   32.1560   46.8020 C   0  0  0  0  0  0  0  0  0  0  0  0
   44.4890   35.7020   45.1580 C   0  0  0  0  0  0  0  0  0  0  0  0
   44.4410   35.9010   43.7400 C   0  0  0  0  0  0  0  0  0  0  0  0
   45.0350   34.9450   42.9340 C   0  0  0  0  0  0  0  0  0  0  0  0
   45.6170   33.8960   43.5480 N   0  0  0  0  0  0  0  0  0  0  0  0
   45.6680   33.7010   44.8740 C   0  0  0  0  0  0  0  0  0  0  0  0
   45.0920   34.6250   45.6990 N   0  0  0  0  0  0  0  0  0  0  0  0
   45.0730   34.9980   41.4660 C   0  0  0  0  0  0  0  0  0  0  0  0
   43.8500   34.4000   40.8190 C   0  0  0  0  0  0  0  0  0  0  0  0
   46.2910   34.2160   41.0270 C   0  0  0  0  0  0  0  0  0  0  0  0
   47.5841   31.7364   43.8209 H   0  0  0  0  0  0  0  0  0  0  0  0
   48.2201   30.0030   45.6368 H   0  0  0  0  0  0  0  0  0  0  0  0
   47.5974   29.4798   48.2867 H   0  0  0  0  0  0  0  0  0  0  0  0
   46.2438   30.2706   50.2046 H   0  0  0  0  0  0  0  0  0  0  0  0
   44.8225   32.2498   49.9279 H   0  0  0  0  0  0  0  0  0  0  0  0
   44.7179   33.4771   47.7655 H   0  0  0  0  0  0  0  0  0  0  0  0
   44.0227   36.4458   45.8208 H   0  0  0  0  0  0  0  0  0  0  0  0
   43.9486   36.7839   43.3063 H   0  0  0  0  0  0  0  0  0  0  0  0
   45.1085   36.0527   41.1556 H   0  0  0  0  0  0  0  0  0  0  0  0
   43.1526   34.0590   41.5983 H   0  0  0  0  0  0  0  0  0  0  0  0
   43.3579   35.1592   40.1933 H   0  0  0  0  0  0  0  0  0  0  0  0
   44.1470   33.5454   40.1933 H   0  0  0  0  0  0  0  0  0  0  0  0
   46.8396   33.8638   41.9130 H   0  0  0  0  0  0  0  0  0  0  0  0
   45.9744   33.3520   40.4244 H   0  0  0  0  0  0  0  0  0  0  0  0
   46.9449   34.8635   40.4244 H   0  0  0  0  0  0  0  0  0  0  0  0
  1  9  1  0
  2  1  2  0
  2  3  1  0
  3  4  1  0
  4  5  2  0
  5  6  1  0
  7  6  2  0
  8  7  1  0
  9  4  1  0
  9  8  2  0
 10 15  2  0
 11 10  1  0
 12 13  1  0
 12 11  2  0
 13 14  2  0
 14  1  1  0
 14 15  1  0
 16 12  1  0
 17 16  1  0
 18 16  1  0
  2 19  1  0
  3 20  1  0
  5 21  1  0
  6 22  1  0
  7 23  1  0
  8 24  1  0
 10 25  1  0
 11 26  1  0
 16 27  1  0
 17 28  1  0
 17 29  1  0
 17 30  1  0
 18 31  1  0
 18 32  1  0
 18 33  1  0
M  ISO  8  19  14  20   9  21  14  22  14  23  14  24  14  25  14  26  14
M  ISO  7  27   8  28   8  29   8  30   8  31   8  32   8  33   8
M  END
>  <minimizedAffinity>  (1) 
-5.48960924

>  <minimizedRMSD>  (1) 
0.567685843

$$$$
