
     RDKit          3D

 31 34  0  0  0  0  0  0  0  0999 V2000
   46.2560   32.4870   45.3550 C   0  0  0  0  0  0  0  0  0  0  0  0
   47.2040   31.6430   44.8070 C   0  0  0  0  0  0  0  0  0  0  0  0
   47.5940   30.8100   45.7700 N   0  0  0  0  0  0  0  0  0  0  0  0
   46.9380   31.0890   46.8980 C   0  0  0  0  0  0  0  0  0  0  0  0
   47.0030   30.4970   48.1740 C   0  0  0  0  0  0  0  0  0  0  0  0
   46.2160   30.9570   49.2220 C   0  0  0  0  0  0  0  0  0  0  0  0
   45.3690   32.0020   48.9980 C   0  0  0  0  0  0  0  0  0  0  0  0
   45.2760   32.6180   47.7440 C   0  0  0  0  0  0  0  0  0  0  0  0
   46.0620   32.1600   46.6960 C   0  0  0  0  0  0  0  0  0  0  0  0
   44.6550   35.7220   44.7510 C   0  0  0  0  0  0  0  0  0  0  0  0
   44.1840   35.6300   43.4230 C   0  0  0  0  0  0  0  0  0  0  0  0
   44.4400   34.4410   42.7790 C   0  0  0  0  0  0  0  0  0  0  0  0
   45.0990   33.4500   43.4010 N   0  0  0  0  0  0  0  0  0  0  0  0
   45.5450   33.5600   44.6830 C   0  0  0  0  0  0  0  0  0  0  0  0
   45.3110   34.7230   45.3540 N   0  0  0  0  0  0  0  0  0  0  0  0
   43.9690   34.3360   41.4450 C   0  0  0  0  0  0  0  0  0  0  0  0
   43.0370   35.1700   40.8740 C   0  0  0  0  0  0  0  0  0  0  0  0
   42.5410   35.1370   39.6260 C   0  0  0  0  0  0  0  0  0  0  0  0
   43.2270   33.9530   38.9120 C   0  0  0  0  0  0  0  0  0  0  0  0
   44.4170   33.1780   40.2190 S   0  0  0  0  0  0  0  0  0  0  0  0
   47.5682   31.6569   43.7691 H   0  0  0  0  0  0  0  0  0  0  0  0
   48.2954   30.0637   45.6607 H   0  0  0  0  0  0  0  0  0  0  0  0
   47.6897   29.6547   48.3440 H   0  0  0  0  0  0  0  0  0  0  0  0
   46.2749   30.4868   50.2147 H   0  0  0  0  0  0  0  0  0  0  0  0
   44.7427   32.3705   49.8238 H   0  0  0  0  0  0  0  0  0  0  0  0
   44.5844   33.4595   47.5906 H   0  0  0  0  0  0  0  0  0  0  0  0
   44.4758   36.6510   45.3120 H   0  0  0  0  0  0  0  0  0  0  0  0
   43.6467   36.4561   42.9343 H   0  0  0  0  0  0  0  0  0  0  0  0
   42.6469   35.9677   41.5232 H   0  0  0  0  0  0  0  0  0  0  0  0
   41.7928   35.8198   39.1971 H   0  0  0  0  0  0  0  0  0  0  0  0
   43.0704   33.6205   37.8752 H   0  0  0  0  0  0  0  0  0  0  0  0
  1  9  1  0
  2  1  2  0
  2  3  1  0
  3  4  1  0
  4  5  2  0
  5  6  1  0
  7  6  2  0
  8  7  1  0
  9  4  1  0
  9  8  2  0
 10 15  2  0
 11 10  1  0
 12 13  1  0
 12 11  2  0
 13 14  2  0
 14 15  1  0
 14  1  1  0
 16 12  1  0
 17 16  2  0
 18 17  1  0
 19 18  2  0
 19 20  1  0
 20 16  1  0
  2 21  1  0
  3 22  1  0
  5 23  1  0
  6 24  1  0
  7 25  1  0
  8 26  1  0
 10 27  1  0
 11 28  1  0
 17 29  1  0
 18 30  1  0
 19 31  1  0
M  ISO  8  21  14  22   9  23  14  24  14  25  14  26  14  27  14  28  14
M  ISO  3  29  14  30  14  31  14
M  END
>  <minimizedAffinity>  (1) 
-5.69309902

>  <minimizedRMSD>  (1) 
0.312860459

$$$$
