
     RDKit          3D

 25 27  0  0  0  0  0  0  0  0999 V2000
   46.3060   32.5190   45.3870 C   0  0  0  0  0  0  0  0  0  0  0  0
   47.2240   31.6560   44.8150 C   0  0  0  0  0  0  0  0  0  0  0  0
   47.5740   30.7920   45.7770 N   0  0  0  0  0  0  0  0  0  0  0  0
   46.9250   31.0710   46.9100 C   0  0  0  0  0  0  0  0  0  0  0  0
   46.9760   30.4440   48.1500 C   0  0  0  0  0  0  0  0  0  0  0  0
   46.2000   30.9120   49.2120 C   0  0  0  0  0  0  0  0  0  0  0  0
   45.3830   32.0000   49.0200 C   0  0  0  0  0  0  0  0  0  0  0  0
   45.3160   32.6430   47.7780 C   0  0  0  0  0  0  0  0  0  0  0  0
   46.0840   32.1800   46.7300 C   0  0  0  0  0  0  0  0  0  0  0  0
   44.5480   35.7080   44.9220 C   0  0  0  0  0  0  0  0  0  0  0  0
   44.3460   35.7610   43.5260 C   0  0  0  0  0  0  0  0  0  0  0  0
   44.8180   34.6930   42.7520 C   0  0  0  0  0  0  0  0  0  0  0  0
   45.4390   33.6790   43.3980 N   0  0  0  0  0  0  0  0  0  0  0  0
   45.6290   33.6400   44.7420 C   0  0  0  0  0  0  0  0  0  0  0  0
   45.1740   34.6650   45.4850 N   0  0  0  0  0  0  0  0  0  0  0  0
   44.6840   34.6190   41.3710 O   0  0  0  0  0  0  0  0  0  0  0  0
   47.5923   31.6755   43.7787 H   0  0  0  0  0  0  0  0  0  0  0  0
   48.2479   30.0220   45.6594 H   0  0  0  0  0  0  0  0  0  0  0  0
   47.6323   29.5732   48.2952 H   0  0  0  0  0  0  0  0  0  0  0  0
   46.2422   30.4149   50.1924 H   0  0  0  0  0  0  0  0  0  0  0  0
   44.7717   32.3718   49.8555 H   0  0  0  0  0  0  0  0  0  0  0  0
   44.6554   33.5115   47.6390 H   0  0  0  0  0  0  0  0  0  0  0  0
   44.1875   36.5321   45.5552 H   0  0  0  0  0  0  0  0  0  0  0  0
   43.8333   36.6153   43.0598 H   0  0  0  0  0  0  0  0  0  0  0  0
   44.2332   35.3493   40.8776 H   0  0  0  0  0  0  0  0  0  0  0  0
  1  9  1  0
  2  1  2  0
  2  3  1  0
  3  4  1  0
  4  5  2  0
  5  6  1  0
  7  6  2  0
  8  7  1  0
  9  4  1  0
  9  8  2  0
 10 15  2  0
 11 10  1  0
 12 13  1  0
 12 11  2  0
 13 14  2  0
 14  1  1  0
 14 15  1  0
 16 12  1  0
  2 17  1  0
  3 18  1  0
  5 19  1  0
  6 20  1  0
  7 21  1  0
  8 22  1  0
 10 23  1  0
 11 24  1  0
 16 25  1  0
M  ISO  8  17  14  18   9  19  14  20  14  21  14  22  14  23  14  24  14
M  ISO  1  25   3
M  END
>  <minimizedAffinity>  (1) 
-5.06449986

>  <minimizedRMSD>  (1) 
0.135339692

$$$$
