
     RDKit          3D

 44 48  0  0  0  0  0  0  0  0999 V2000
   44.7800   35.9780   44.1340 C   0  0  0  0  0  0  0  0  0  0  0  0
   43.9680   35.8180   42.9920 C   0  0  0  0  0  0  0  0  0  0  0  0
   43.9070   34.5490   42.4740 C   0  0  0  0  0  0  0  0  0  0  0  0
   44.5870   33.5460   43.0400 N   0  0  0  0  0  0  0  0  0  0  0  0
   45.3660   33.7240   44.1460 C   0  0  0  0  0  0  0  0  0  0  0  0
   45.4530   34.9730   44.6900 N   0  0  0  0  0  0  0  0  0  0  0  0
   46.0940   32.6290   44.7580 C   0  0  0  0  0  0  0  0  0  0  0  0
   46.9100   31.7020   44.1270 C   0  0  0  0  0  0  0  0  0  0  0  0
   47.3700   30.8800   45.0650 N   0  0  0  0  0  0  0  0  0  0  0  0
   46.8950   31.2310   46.2530 C   0  0  0  0  0  0  0  0  0  0  0  0
   47.0900   30.6850   47.5230 C   0  0  0  0  0  0  0  0  0  0  0  0
   46.4820   31.2270   48.6610 C   0  0  0  0  0  0  0  0  0  0  0  0
   45.6730   32.3250   48.5090 C   0  0  0  0  0  0  0  0  0  0  0  0
   45.4580   32.8980   47.2390 C   0  0  0  0  0  0  0  0  0  0  0  0
   46.0660   32.3520   46.1290 C   0  0  0  0  0  0  0  0  0  0  0  0
   43.1010   34.3890   41.3290 C   0  0  0  0  0  0  0  0  0  0  0  0
   43.2170   35.0930   40.1670 C   0  0  0  0  0  0  0  0  0  0  0  0
   42.4710   34.9610   39.0540 C   0  0  0  0  0  0  0  0  0  0  0  0
   41.4480   33.8710   39.3060 C   0  0  0  0  0  0  0  0  0  0  0  0
   41.7700   33.2640   41.0820 S   0  0  0  0  0  0  0  0  0  0  0  0
   40.3860   33.2970   38.4790 C   0  0  0  0  0  0  0  0  0  0  0  0
   39.4610   32.3690   39.2470 C   0  0  0  0  0  0  0  0  0  0  0  0
   38.4070   32.1320   38.1550 C   0  0  0  0  0  0  0  0  0  0  0  0
   38.2820   33.4880   37.4580 C   0  0  0  0  0  0  0  0  0  0  0  0
   39.4530   34.3210   37.9410 C   0  0  0  0  0  0  0  0  0  0  0  0
   44.8608   36.9779   44.5854 H   0  0  0  0  0  0  0  0  0  0  0  0
   43.4176   36.6586   42.5443 H   0  0  0  0  0  0  0  0  0  0  0  0
   47.1346   31.6556   43.0512 H   0  0  0  0  0  0  0  0  0  0  0  0
   48.0033   30.0858   44.8943 H   0  0  0  0  0  0  0  0  0  0  0  0
   47.7397   29.8041   47.6322 H   0  0  0  0  0  0  0  0  0  0  0  0
   46.6486   30.7834   49.6537 H   0  0  0  0  0  0  0  0  0  0  0  0
   45.1850   32.7646   49.3913 H   0  0  0  0  0  0  0  0  0  0  0  0
   44.8069   33.7784   47.1342 H   0  0  0  0  0  0  0  0  0  0  0  0
   44.0097   35.8550   40.1354 H   0  0  0  0  0  0  0  0  0  0  0  0
   42.5838   35.5412   38.1263 H   0  0  0  0  0  0  0  0  0  0  0  0
   40.9525   32.7757   37.6933 H   0  0  0  0  0  0  0  0  0  0  0  0
   39.9643   31.4374   39.5449 H   0  0  0  0  0  0  0  0  0  0  0  0
   39.0776   32.7622   40.2001 H   0  0  0  0  0  0  0  0  0  0  0  0
   38.7436   31.3591   37.4484 H   0  0  0  0  0  0  0  0  0  0  0  0
   37.4491   31.7763   38.5623 H   0  0  0  0  0  0  0  0  0  0  0  0
   37.3321   33.9710   37.7309 H   0  0  0  0  0  0  0  0  0  0  0  0
   38.2921   33.3787   36.3635 H   0  0  0  0  0  0  0  0  0  0  0  0
   39.9120   34.8781   37.1110 H   0  0  0  0  0  0  0  0  0  0  0  0
   39.1691   35.0833   38.6815 H   0  0  0  0  0  0  0  0  0  0  0  0
  1  6  2  0
  2  1  1  0
  3  2  2  0
  3  4  1  0
  4  5  2  0
  5  6  1  0
  5  7  1  0
  7 15  1  0
  8  7  2  0
  8  9  1  0
  9 10  1  0
 10 11  2  0
 11 12  1  0
 13 12  2  0
 14 13  1  0
 15 10  1  0
 15 14  2  0
 16  3  1  0
 17 16  2  0
 18 19  2  0
 18 17  1  0
 19 20  1  0
 20 16  1  0
 21 22  1  0
 21 19  1  0
 23 22  1  0
 24 25  1  0
 24 23  1  0
 25 21  1  0
  1 26  1  0
  2 27  1  0
  8 28  1  0
  9 29  1  0
 11 30  1  0
 12 31  1  0
 13 32  1  0
 14 33  1  0
 17 34  1  0
 18 35  1  0
 21 36  1  0
 22 37  1  0
 22 38  1  0
 23 39  1  0
 23 40  1  0
 24 41  1  0
 24 42  1  0
 25 43  1  0
 25 44  1  0
M  ISO  8  26  14  27  14  28  14  29   9  30  14  31  14  32  14  33  14
M  ISO  8  34  14  35  14  36  13  37  13  38  13  39  13  40  13  41  13
M  ISO  3  42  13  43  13  44  13
M  END
>  <minimizedAffinity>  (1) 
-6.68938732

>  <minimizedRMSD>  (1) 
2.02547693

$$$$
