
     RDKit          3D

 38 42  0  0  0  0  0  0  0  0999 V2000
   45.1720   36.0460   43.1970 C   0  0  0  0  0  0  0  0  0  0  0  0
   43.9250   35.8470   42.5700 C   0  0  0  0  0  0  0  0  0  0  0  0
   43.9200   34.9990   41.4820 C   0  0  0  0  0  0  0  0  0  0  0  0
   45.0420   34.4150   41.0670 N   0  0  0  0  0  0  0  0  0  0  0  0
   46.2440   34.6250   41.6940 C   0  0  0  0  0  0  0  0  0  0  0  0
   46.2920   35.4500   42.7670 N   0  0  0  0  0  0  0  0  0  0  0  0
   47.4640   33.9790   41.2320 C   0  0  0  0  0  0  0  0  0  0  0  0
   48.2330   34.3020   40.1260 C   0  0  0  0  0  0  0  0  0  0  0  0
   49.2490   33.4530   40.0840 N   0  0  0  0  0  0  0  0  0  0  0  0
   49.1670   32.5980   41.1130 C   0  0  0  0  0  0  0  0  0  0  0  0
   49.9980   31.5370   41.4870 C   0  0  0  0  0  0  0  0  0  0  0  0
   49.7250   30.7710   42.6060 C   0  0  0  0  0  0  0  0  0  0  0  0
   48.6140   31.0650   43.3580 C   0  0  0  0  0  0  0  0  0  0  0  0
   47.7660   32.1250   43.0000 C   0  0  0  0  0  0  0  0  0  0  0  0
   48.0410   32.8860   41.8860 C   0  0  0  0  0  0  0  0  0  0  0  0
   42.6680   34.8200   40.8600 C   0  0  0  0  0  0  0  0  0  0  0  0
   41.5640   35.5940   41.0470 C   0  0  0  0  0  0  0  0  0  0  0  0
   40.3630   35.4510   40.4570 C   0  0  0  0  0  0  0  0  0  0  0  0
   40.4270   34.2600   39.5250 C   0  0  0  0  0  0  0  0  0  0  0  0
   42.2110   33.5900   39.6910 S   0  0  0  0  0  0  0  0  0  0  0  0
   39.4980   33.6500   38.6680 N   0  0  0  0  0  0  0  0  0  0  0  0
   39.2720   32.3490   38.7370 N   0  0  0  0  0  0  0  0  0  0  0  0
   38.3450   32.0560   37.8070 C   0  0  0  0  0  0  0  0  0  0  0  0
   38.0090   33.2420   37.1590 C   0  0  0  0  0  0  0  0  0  0  0  0
   38.7480   34.2690   37.7100 C   0  0  0  0  0  0  0  0  0  0  0  0
   45.2271   36.7137   44.0694 H   0  0  0  0  0  0  0  0  0  0  0  0
   43.0088   36.3396   42.9278 H   0  0  0  0  0  0  0  0  0  0  0  0
   48.0358   35.1156   39.4124 H   0  0  0  0  0  0  0  0  0  0  0  0
   49.9901   33.4503   39.3687 H   0  0  0  0  0  0  0  0  0  0  0  0
   50.8858   31.3072   40.8796 H   0  0  0  0  0  0  0  0  0  0  0  0
   50.3872   29.9396   42.8891 H   0  0  0  0  0  0  0  0  0  0  0  0
   48.3862   30.4635   44.2503 H   0  0  0  0  0  0  0  0  0  0  0  0
   46.8792   32.3483   43.6113 H   0  0  0  0  0  0  0  0  0  0  0  0
   41.6645   36.4273   41.7580 H   0  0  0  0  0  0  0  0  0  0  0  0
   39.4840   36.0910   40.6237 H   0  0  0  0  0  0  0  0  0  0  0  0
   37.9280   31.0601   37.5966 H   0  0  0  0  0  0  0  0  0  0  0  0
   37.2770   33.3433   36.3442 H   0  0  0  0  0  0  0  0  0  0  0  0
   38.7356   35.3354   37.4406 H   0  0  0  0  0  0  0  0  0  0  0  0
  2  1  2  0
  3  2  1  0
  4  3  2  0
  4  5  1  0
  5  6  2  0
  6  1  1  0
  7  5  1  0
  7 15  1  0
  8  7  2  0
  9  8  1  0
  9 10  1  0
 10 11  2  0
 10 15  1  0
 11 12  1  0
 12 13  2  0
 14 13  1  0
 15 14  2  0
 16 17  2  0
 16  3  1  0
 18 17  1  0
 19 20  1  0
 19 18  2  0
 20 16  1  0
 21 22  1  0
 21 19  1  0
 23 22  2  0
 24 25  2  0
 24 23  1  0
 25 21  1  0
  1 26  1  0
  2 27  1  0
  8 28  1  0
  9 29  1  0
 11 30  1  0
 12 31  1  0
 13 32  1  0
 14 33  1  0
 17 34  1  0
 18 35  1  0
 23 36  1  0
 24 37  1  0
 25 38  1  0
M  ISO  8  26  14  27  14  28  14  29   9  30  14  31  14  32  14  33  14
M  ISO  5  34  14  35  14  36  14  37  14  38  14
M  END
>  <minimizedAffinity>  (1) 
-6.32843781

>  <minimizedRMSD>  (1) 
4.50103807

$$$$
