
     RDKit          3D

 24 26  0  0  1  0  0  0  0  0999 V2000
   45.9810   34.1200   41.4480 N   0  0  0  0  0  0  0  0  0  0  0  0
   45.3280   33.3650   40.4980 C   0  0  0  0  0  0  0  0  0  0  0  0
   46.1090   33.2800   39.4070 N   0  0  0  0  0  0  0  0  0  0  0  0
   47.2410   33.9810   39.6800 C   0  0  0  0  0  0  0  0  0  0  0  0
   47.1490   34.4840   40.9210 N   0  0  0  0  0  0  0  0  0  0  0  0
   45.0570   35.8110   42.9030 C   0  0  0  0  0  0  0  0  0  0  0  0
   45.5750   34.4980   42.7530 C   0  0  0  0  0  0  0  0  0  0  0  0
   45.6470   33.6920   43.8650 C   0  0  0  0  0  0  0  0  0  0  0  0
   45.2130   34.2120   45.0510 N   0  0  0  0  0  0  0  0  0  0  0  0
   44.7300   35.4470   45.1740 C   0  0  0  0  0  0  0  0  0  0  0  0
   44.6570   36.2310   44.1040 N   0  0  0  0  0  0  0  0  0  0  0  0
   48.4240   34.2140   38.8130 C   0  0  2  0  0  0  0  0  0  0  0  0
   48.1370   34.5100   37.3210 C   0  0  0  0  0  0  0  0  0  0  0  0
   48.8060   33.2040   37.7730 C   0  0  1  0  0  0  0  0  0  0  0  0
   50.1030   33.0750   37.3510 O   0  0  0  0  0  0  0  0  0  0  0  0
   44.3340   32.9082   40.6131 H   0  0  0  0  0  0  0  0  0  0  0  0
   44.9858   36.4794   42.0323 H   0  0  0  0  0  0  0  0  0  0  0  0
   46.0396   32.6664   43.8016 H   0  0  0  0  0  0  0  0  0  0  0  0
   44.3939   35.8153   46.1545 H   0  0  0  0  0  0  0  0  0  0  0  0
   48.9772   34.7004   39.6299 H   0  0  0  0  0  0  0  0  0  0  0  0
   48.7183   35.2748   36.7851 H   0  0  0  0  0  0  0  0  0  0  0  0
   47.2508   34.7771   36.7266 H   0  0  0  0  0  0  0  0  0  0  0  0
   48.6124   32.1234   37.7040 H   0  0  0  0  0  0  0  0  0  0  0  0
   50.7015   33.0155   38.1374 H   0  0  0  0  0  0  0  0  0  0  0  0
  1  7  1  0
  2  1  1  0
  3  4  1  0
  3  2  2  0
  4  5  2  0
  5  1  1  0
  6 11  2  0
  7  6  1  0
  7  8  2  0
  8  9  1  0
  9 10  2  0
 11 10  1  0
 12  4  1  0
 13 14  1  0
 13 12  1  0
 14 12  1  0
 15 14  1  0
  2 16  1  0
  6 17  1  0
  8 18  1  0
 10 19  1  0
 12 20  1  1
 13 21  1  0
 13 22  1  0
 14 23  1  1
 15 24  1  0
M  ISO  8  16  14  17  14  18  14  19  14  20  13  21  13  22  13  23  13
M  ISO  1  24   3
M  END
>  <minimizedAffinity>  (1) 
-4.54512596

>  <minimizedRMSD>  (1) 
0.488272309

$$$$
