
     RDKit          3D

 43 46  0  0  0  0  0  0  0  0999 V2000
   45.3470   35.8680   43.2200 C   0  0  0  0  0  0  0  0  0  0  0  0
   44.3000   35.7850   42.2820 C   0  0  0  0  0  0  0  0  0  0  0  0
   43.8430   34.5180   42.0030 C   0  0  0  0  0  0  0  0  0  0  0  0
   44.3710   33.4280   42.5980 N   0  0  0  0  0  0  0  0  0  0  0  0
   45.3880   33.5370   43.5060 C   0  0  0  0  0  0  0  0  0  0  0  0
   45.8730   34.7850   43.8120 N   0  0  0  0  0  0  0  0  0  0  0  0
   45.9720   32.3800   44.1520 C   0  0  0  0  0  0  0  0  0  0  0  0
   46.5240   31.2630   43.5270 C   0  0  0  0  0  0  0  0  0  0  0  0
   46.9440   30.4460   44.4940 N   0  0  0  0  0  0  0  0  0  0  0  0
   46.6890   30.9810   45.6780 C   0  0  0  0  0  0  0  0  0  0  0  0
   46.9400   30.5080   46.9730 C   0  0  0  0  0  0  0  0  0  0  0  0
   46.5780   31.2550   48.1010 C   0  0  0  0  0  0  0  0  0  0  0  0
   45.9680   32.4670   47.9220 C   0  0  0  0  0  0  0  0  0  0  0  0
   45.7000   32.9750   46.6510 C   0  0  0  0  0  0  0  0  0  0  0  0
   46.0600   32.2340   45.5410 C   0  0  0  0  0  0  0  0  0  0  0  0
   42.8070   34.4320   41.0570 C   0  0  0  0  0  0  0  0  0  0  0  0
   42.7700   35.0750   39.8510 C   0  0  0  0  0  0  0  0  0  0  0  0
   41.8000   34.9840   38.9160 C   0  0  0  0  0  0  0  0  0  0  0  0
   40.7350   34.0380   39.4220 C   0  0  0  0  0  0  0  0  0  0  0  0
   41.3480   33.4880   41.1130 S   0  0  0  0  0  0  0  0  0  0  0  0
   39.4690   33.5170   38.9060 C   0  0  0  0  0  0  0  0  0  0  0  0
   39.5750   32.0680   38.5050 C   0  0  0  0  0  0  0  0  0  0  0  0
   39.0090   34.2910   37.6740 C   0  0  0  0  0  0  0  0  0  0  0  0
   38.3570   33.6610   39.9180 C   0  0  0  0  0  0  0  0  0  0  0  0
   45.7491   36.8590   43.4773 H   0  0  0  0  0  0  0  0  0  0  0  0
   43.8739   36.6783   41.8020 H   0  0  0  0  0  0  0  0  0  0  0  0
   46.5989   31.0887   42.4435 H   0  0  0  0  0  0  0  0  0  0  0  0
   47.3990   29.5345   44.3423 H   0  0  0  0  0  0  0  0  0  0  0  0
   47.4302   29.5323   47.1060 H   0  0  0  0  0  0  0  0  0  0  0  0
   46.7804   30.8743   49.1130 H   0  0  0  0  0  0  0  0  0  0  0  0
   45.6811   33.0569   48.8050 H   0  0  0  0  0  0  0  0  0  0  0  0
   45.2088   33.9522   46.5335 H   0  0  0  0  0  0  0  0  0  0  0  0
   43.6186   35.7351   39.6182 H   0  0  0  0  0  0  0  0  0  0  0  0
   41.7870   35.5094   37.9496 H   0  0  0  0  0  0  0  0  0  0  0  0
   39.6209   31.4403   39.4072 H   0  0  0  0  0  0  0  0  0  0  0  0
   38.6950   31.7876   37.9076 H   0  0  0  0  0  0  0  0  0  0  0  0
   40.4865   31.9186   37.9076 H   0  0  0  0  0  0  0  0  0  0  0  0
   38.4707   35.1968   37.9899 H   0  0  0  0  0  0  0  0  0  0  0  0
   39.8844   34.5759   37.0720 H   0  0  0  0  0  0  0  0  0  0  0  0
   38.3403   33.6582   37.0720 H   0  0  0  0  0  0  0  0  0  0  0  0
   38.7762   33.6067   40.9336 H   0  0  0  0  0  0  0  0  0  0  0  0
   37.8578   34.6313   39.7787 H   0  0  0  0  0  0  0  0  0  0  0  0
   37.6272   32.8499   39.7787 H   0  0  0  0  0  0  0  0  0  0  0  0
  1  6  2  0
  2  1  1  0
  3  2  2  0
  3  4  1  0
  4  5  2  0
  5  6  1  0
  5  7  1  0
  7 15  1  0
  8  7  2  0
  8  9  1  0
  9 10  1  0
 10 11  2  0
 11 12  1  0
 13 12  2  0
 14 13  1  0
 15 10  1  0
 15 14  2  0
 16 20  1  0
 16  3  1  0
 17 16  2  0
 18 19  2  0
 18 17  1  0
 19 20  1  0
 21 19  1  0
 21 24  1  0
 22 21  1  0
 23 21  1  0
  1 25  1  0
  2 26  1  0
  8 27  1  0
  9 28  1  0
 11 29  1  0
 12 30  1  0
 13 31  1  0
 14 32  1  0
 17 33  1  0
 18 34  1  0
 22 35  1  0
 22 36  1  0
 22 37  1  0
 23 38  1  0
 23 39  1  0
 23 40  1  0
 24 41  1  0
 24 42  1  0
 24 43  1  0
M  ISO  8  25  14  26  14  27  14  28   9  29  14  30  14  31  14  32  14
M  ISO  8  33  14  34  14  35   8  36   8  37   8  38   8  39   8  40   8
M  ISO  3  41   8  42   8  43   8
M  END
>  <minimizedAffinity>  (1) 
-6.23765993

>  <minimizedRMSD>  (1) 
2.34566379

$$$$
