
     RDKit          3D

 34 37  0  0  0  0  0  0  0  0999 V2000
   44.7480   35.8450   44.6270 C   0  0  0  0  0  0  0  0  0  0  0  0
   44.0330   35.6990   43.4210 C   0  0  0  0  0  0  0  0  0  0  0  0
   44.0760   34.4500   42.8440 C   0  0  0  0  0  0  0  0  0  0  0  0
   44.7600   33.4580   43.4130 N   0  0  0  0  0  0  0  0  0  0  0  0
   45.4470   33.6250   44.5860 C   0  0  0  0  0  0  0  0  0  0  0  0
   45.4290   34.8360   45.1850 N   0  0  0  0  0  0  0  0  0  0  0  0
   46.1870   32.5370   45.1960 C   0  0  0  0  0  0  0  0  0  0  0  0
   47.0960   31.6730   44.5900 C   0  0  0  0  0  0  0  0  0  0  0  0
   47.5260   30.8300   45.5260 N   0  0  0  0  0  0  0  0  0  0  0  0
   46.9480   31.1040   46.6860 C   0  0  0  0  0  0  0  0  0  0  0  0
   47.0780   30.5060   47.9400 C   0  0  0  0  0  0  0  0  0  0  0  0
   46.3620   30.9680   49.0440 C   0  0  0  0  0  0  0  0  0  0  0  0
   45.5190   32.0240   48.8920 C   0  0  0  0  0  0  0  0  0  0  0  0
   45.3650   32.6500   47.6420 C   0  0  0  0  0  0  0  0  0  0  0  0
   46.0750   32.1880   46.5510 C   0  0  0  0  0  0  0  0  0  0  0  0
   43.3630   34.3090   41.6340 C   0  0  0  0  0  0  0  0  0  0  0  0
   43.3150   35.2270   40.6260 C   0  0  0  0  0  0  0  0  0  0  0  0
   42.6490   35.1120   39.4620 C   0  0  0  0  0  0  0  0  0  0  0  0
   41.9450   33.7840   39.4400 C   0  0  0  0  0  0  0  0  0  0  0  0
   42.3780   32.9520   41.1000 S   0  0  0  0  0  0  0  0  0  0  0  0
   41.0890   33.1390   38.4390 C   0  0  0  0  0  0  0  0  0  0  0  0
   40.4880   34.0730   37.5970 F   0  0  0  0  0  0  0  0  0  0  0  0
   41.8530   32.3460   37.6470 F   0  0  0  0  0  0  0  0  0  0  0  0
   40.1010   32.4340   39.0530 F   0  0  0  0  0  0  0  0  0  0  0  0
   44.7465   36.8241   45.1284 H   0  0  0  0  0  0  0  0  0  0  0  0
   43.4749   36.5321   42.9687 H   0  0  0  0  0  0  0  0  0  0  0  0
   47.4019   31.6851   43.5335 H   0  0  0  0  0  0  0  0  0  0  0  0
   48.2088   30.0746   45.3709 H   0  0  0  0  0  0  0  0  0  0  0  0
   47.7601   29.6515   48.0604 H   0  0  0  0  0  0  0  0  0  0  0  0
   46.4777   30.4843   50.0252 H   0  0  0  0  0  0  0  0  0  0  0  0
   44.9501   32.3935   49.7579 H   0  0  0  0  0  0  0  0  0  0  0  0
   44.6813   33.5048   47.5336 H   0  0  0  0  0  0  0  0  0  0  0  0
   43.8795   36.1584   40.7806 H   0  0  0  0  0  0  0  0  0  0  0  0
   42.6240   35.8646   38.6602 H   0  0  0  0  0  0  0  0  0  0  0  0
  1  6  2  0
  2  1  1  0
  3  4  1  0
  3  2  2  0
  4  5  2  0
  5  6  1  0
  5  7  1  0
  7 15  1  0
  8  7  2  0
  8  9  1  0
  9 10  1  0
 10 11  2  0
 11 12  1  0
 13 12  2  0
 14 13  1  0
 15 10  1  0
 15 14  2  0
 16  3  1  0
 17 16  2  0
 18 17  1  0
 19 18  2  0
 19 20  1  0
 20 16  1  0
 21 24  1  0
 21 19  1  0
 22 21  1  0
 23 21  1  0
  1 25  1  0
  2 26  1  0
  8 27  1  0
  9 28  1  0
 11 29  1  0
 12 30  1  0
 13 31  1  0
 14 32  1  0
 17 33  1  0
 18 34  1  0
M  ISO  8  25  14  26  14  27  14  28   9  29  14  30  14  31  14  32  14
M  ISO  2  33  14  34  14
M  END
>  <minimizedAffinity>  (1) 
-6.05013466

>  <minimizedRMSD>  (1) 
1.15921915

$$$$
