
     RDKit          3D

 44 48  0  0  0  0  0  0  0  0999 V2000
   44.7570   35.8560   44.6910 C   0  0  0  0  0  0  0  0  0  0  0  0
   44.0350   35.7390   43.4850 C   0  0  0  0  0  0  0  0  0  0  0  0
   44.0610   34.4920   42.8840 C   0  0  0  0  0  0  0  0  0  0  0  0
   44.7340   33.4830   43.4350 N   0  0  0  0  0  0  0  0  0  0  0  0
   45.4290   33.6130   44.6040 C   0  0  0  0  0  0  0  0  0  0  0  0
   45.4280   34.8320   45.2290 N   0  0  0  0  0  0  0  0  0  0  0  0
   46.1620   32.5100   45.1940 C   0  0  0  0  0  0  0  0  0  0  0  0
   47.0400   31.6440   44.5600 C   0  0  0  0  0  0  0  0  0  0  0  0
   47.4790   30.7920   45.4790 N   0  0  0  0  0  0  0  0  0  0  0  0
   46.9200   31.0770   46.6660 C   0  0  0  0  0  0  0  0  0  0  0  0
   47.0780   30.4610   47.9070 C   0  0  0  0  0  0  0  0  0  0  0  0
   46.3880   30.9240   49.0360 C   0  0  0  0  0  0  0  0  0  0  0  0
   45.5560   31.9980   48.8880 C   0  0  0  0  0  0  0  0  0  0  0  0
   45.3790   32.6360   47.6570 C   0  0  0  0  0  0  0  0  0  0  0  0
   46.0650   32.1680   46.5540 C   0  0  0  0  0  0  0  0  0  0  0  0
   43.3480   34.3860   41.6770 C   0  0  0  0  0  0  0  0  0  0  0  0
   43.3830   35.2820   40.6470 C   0  0  0  0  0  0  0  0  0  0  0  0
   42.7320   35.1900   39.4770 C   0  0  0  0  0  0  0  0  0  0  0  0
   41.9200   33.8930   39.4790 C   0  0  0  0  0  0  0  0  0  0  0  0
   42.2840   33.1110   41.1540 S   0  0  0  0  0  0  0  0  0  0  0  0
   41.0890   33.3450   38.5080 N   0  0  0  0  0  0  0  0  0  0  0  0
   40.1580   34.2460   37.8210 C   0  0  0  0  0  0  0  0  0  0  0  0
   38.7900   33.9050   38.4220 C   0  0  0  0  0  0  0  0  0  0  0  0
   38.7710   32.6070   38.8820 O   0  0  0  0  0  0  0  0  0  0  0  0
   39.4310   31.6900   38.0970 C   0  0  0  0  0  0  0  0  0  0  0  0
   40.9420   31.9640   38.0150 C   0  0  0  0  0  0  0  0  0  0  0  0
   44.7686   36.8265   45.2087 H   0  0  0  0  0  0  0  0  0  0  0  0
   43.4853   36.5861   43.0489 H   0  0  0  0  0  0  0  0  0  0  0  0
   47.3200   31.6598   43.4964 H   0  0  0  0  0  0  0  0  0  0  0  0
   48.1476   30.0276   45.3071 H   0  0  0  0  0  0  0  0  0  0  0  0
   47.7543   29.5987   48.0015 H   0  0  0  0  0  0  0  0  0  0  0  0
   46.5128   30.4363   50.0140 H   0  0  0  0  0  0  0  0  0  0  0  0
   45.0082   32.3722   49.7654 H   0  0  0  0  0  0  0  0  0  0  0  0
   44.7026   33.4989   47.5683 H   0  0  0  0  0  0  0  0  0  0  0  0
   44.0112   36.1733   40.7916 H   0  0  0  0  0  0  0  0  0  0  0  0
   42.7748   35.9218   38.6569 H   0  0  0  0  0  0  0  0  0  0  0  0
   40.1646   34.0607   36.7367 H   0  0  0  0  0  0  0  0  0  0  0  0
   40.4232   35.3054   37.9528 H   0  0  0  0  0  0  0  0  0  0  0  0
   38.5828   34.5879   39.2591 H   0  0  0  0  0  0  0  0  0  0  0  0
   38.0230   34.0151   37.6412 H   0  0  0  0  0  0  0  0  0  0  0  0
   39.2769   30.6868   38.5211 H   0  0  0  0  0  0  0  0  0  0  0  0
   39.0219   31.7659   37.0787 H   0  0  0  0  0  0  0  0  0  0  0  0
   41.5005   31.2616   38.6512 H   0  0  0  0  0  0  0  0  0  0  0  0
   41.3374   31.8371   36.9964 H   0  0  0  0  0  0  0  0  0  0  0  0
  1  6  2  0
  2  1  1  0
  3  4  1  0
  3  2  2  0
  4  5  2  0
  5  7  1  0
  5  6  1  0
  7 15  1  0
  8  7  2  0
  8  9  1  0
  9 10  1  0
 10 11  2  0
 11 12  1  0
 13 12  2  0
 14 13  1  0
 15 10  1  0
 15 14  2  0
 16  3  1  0
 17 16  2  0
 18 19  2  0
 18 17  1  0
 19 20  1  0
 20 16  1  0
 21 19  1  0
 22 23  1  0
 22 21  1  0
 23 24  1  0
 25 24  1  0
 26 25  1  0
 26 21  1  0
  1 27  1  0
  2 28  1  0
  8 29  1  0
  9 30  1  0
 11 31  1  0
 12 32  1  0
 13 33  1  0
 14 34  1  0
 17 35  1  0
 18 36  1  0
 22 37  1  0
 22 38  1  0
 23 39  1  0
 23 40  1  0
 25 41  1  0
 25 42  1  0
 26 43  1  0
 26 44  1  0
M  ISO  8  27  14  28  14  29  14  30   9  31  14  32  14  33  14  34  14
M  ISO  8  35  14  36  14  37  13  38  13  39  13  40  13  41  13  42  13
M  ISO  2  43  13  44  13
M  END
>  <minimizedAffinity>  (1) 
-6.30840826

>  <minimizedRMSD>  (1) 
1.52214479

$$$$
