
     RDKit          3D

 42 47  0  0  0  0  0  0  0  0999 V2000
   44.8110   35.9920   44.1510 C   0  0  0  0  0  0  0  0  0  0  0  0
   43.9840   35.8190   43.0220 C   0  0  0  0  0  0  0  0  0  0  0  0
   43.9070   34.5380   42.5170 C   0  0  0  0  0  0  0  0  0  0  0  0
   44.5830   33.5370   43.0810 N   0  0  0  0  0  0  0  0  0  0  0  0
   45.3810   33.7320   44.1800 C   0  0  0  0  0  0  0  0  0  0  0  0
   45.4850   34.9780   44.7070 N   0  0  0  0  0  0  0  0  0  0  0  0
   46.1160   32.6320   44.7860 C   0  0  0  0  0  0  0  0  0  0  0  0
   46.9380   31.7080   44.1570 C   0  0  0  0  0  0  0  0  0  0  0  0
   47.3990   30.8840   45.0820 N   0  0  0  0  0  0  0  0  0  0  0  0
   46.9070   31.2400   46.2820 C   0  0  0  0  0  0  0  0  0  0  0  0
   47.1020   30.6840   47.5530 C   0  0  0  0  0  0  0  0  0  0  0  0
   46.4940   31.2140   48.6760 C   0  0  0  0  0  0  0  0  0  0  0  0
   45.6870   32.3050   48.5220 C   0  0  0  0  0  0  0  0  0  0  0  0
   45.4690   32.8880   47.2680 C   0  0  0  0  0  0  0  0  0  0  0  0
   46.0810   32.3510   46.1580 C   0  0  0  0  0  0  0  0  0  0  0  0
   43.0890   34.3870   41.3850 C   0  0  0  0  0  0  0  0  0  0  0  0
   43.2640   34.9960   40.1750 C   0  0  0  0  0  0  0  0  0  0  0  0
   42.5040   34.8490   39.0770 C   0  0  0  0  0  0  0  0  0  0  0  0
   41.3920   33.8840   39.3830 C   0  0  0  0  0  0  0  0  0  0  0  0
   41.6650   33.3760   41.2070 S   0  0  0  0  0  0  0  0  0  0  0  0
   40.3200   33.3620   38.6410 N   0  0  0  0  0  0  0  0  0  0  0  0
   39.2340   34.0400   38.2330 C   0  0  0  0  0  0  0  0  0  0  0  0
   38.4340   33.1970   37.5490 N   0  0  0  0  0  0  0  0  0  0  0  0
   39.0560   31.9850   37.5460 C   0  0  0  0  0  0  0  0  0  0  0  0
   38.6130   30.8060   36.9630 C   0  0  0  0  0  0  0  0  0  0  0  0
   39.4080   29.7030   37.0870 N   0  0  0  0  0  0  0  0  0  0  0  0
   40.5720   29.8020   37.7600 C   0  0  0  0  0  0  0  0  0  0  0  0
   40.9930   30.9560   38.3240 N   0  0  0  0  0  0  0  0  0  0  0  0
   40.2490   32.0930   38.2380 C   0  0  0  0  0  0  0  0  0  0  0  0
   44.9056   36.9960   44.5904 H   0  0  0  0  0  0  0  0  0  0  0  0
   43.4325   36.6569   42.5705 H   0  0  0  0  0  0  0  0  0  0  0  0
   47.1653   31.6683   43.0815 H   0  0  0  0  0  0  0  0  0  0  0  0
   48.0357   30.0927   44.9105 H   0  0  0  0  0  0  0  0  0  0  0  0
   47.7544   29.8048   47.6601 H   0  0  0  0  0  0  0  0  0  0  0  0
   46.6562   30.7682   49.6684 H   0  0  0  0  0  0  0  0  0  0  0  0
   45.1955   32.7369   49.4063 H   0  0  0  0  0  0  0  0  0  0  0  0
   44.8148   33.7669   47.1706 H   0  0  0  0  0  0  0  0  0  0  0  0
   44.1203   35.6813   40.0904 H   0  0  0  0  0  0  0  0  0  0  0  0
   42.6682   35.3519   38.1126 H   0  0  0  0  0  0  0  0  0  0  0  0
   39.0315   35.1041   38.4248 H   0  0  0  0  0  0  0  0  0  0  0  0
   37.6568   30.7619   36.4211 H   0  0  0  0  0  0  0  0  0  0  0  0
   41.2049   28.9072   37.8539 H   0  0  0  0  0  0  0  0  0  0  0  0
  1  6  2  0
  2  1  1  0
  3  2  2  0
  3  4  1  0
  4  5  2  0
  5  6  1  0
  5  7  1  0
  7 15  1  0
  8  7  2  0
  8  9  1  0
  9 10  1  0
 10 11  2  0
 11 12  1  0
 13 12  2  0
 14 13  1  0
 15 10  1  0
 15 14  2  0
 16  3  1  0
 17 16  2  0
 18 19  2  0
 18 17  1  0
 19 20  1  0
 20 16  1  0
 21 19  1  0
 22 21  1  0
 23 22  2  0
 24 23  1  0
 24 29  2  0
 25 26  2  0
 25 24  1  0
 26 27  1  0
 27 28  2  0
 29 28  1  0
 29 21  1  0
  1 30  1  0
  2 31  1  0
  8 32  1  0
  9 33  1  0
 11 34  1  0
 12 35  1  0
 13 36  1  0
 14 37  1  0
 17 38  1  0
 18 39  1  0
 22 40  1  0
 25 41  1  0
 27 42  1  0
M  ISO  8  30  14  31  14  32  14  33   9  34  14  35  14  36  14  37  14
M  ISO  5  38  14  39  14  40  14  41  14  42  14
M  END
>  <minimizedAffinity>  (1) 
-6.30075836

>  <minimizedRMSD>  (1) 
3.22810698

$$$$
