
     RDKit          3D

 33 36  0  0  0  0  0  0  0  0999 V2000
   44.6830   35.7150   44.7910 C   0  0  0  0  0  0  0  0  0  0  0  0
   44.1900   35.6000   43.4740 C   0  0  0  0  0  0  0  0  0  0  0  0
   44.4230   34.4000   42.8410 C   0  0  0  0  0  0  0  0  0  0  0  0
   45.0820   33.4130   43.4580 N   0  0  0  0  0  0  0  0  0  0  0  0
   45.5530   33.5400   44.7330 C   0  0  0  0  0  0  0  0  0  0  0  0
   45.3410   34.7190   45.3980 N   0  0  0  0  0  0  0  0  0  0  0  0
   46.2660   32.4730   45.4010 C   0  0  0  0  0  0  0  0  0  0  0  0
   47.2250   31.6300   44.8590 C   0  0  0  0  0  0  0  0  0  0  0  0
   47.6180   30.7980   45.8240 N   0  0  0  0  0  0  0  0  0  0  0  0
   46.9470   31.0780   46.9510 C   0  0  0  0  0  0  0  0  0  0  0  0
   47.0180   30.4760   48.2180 C   0  0  0  0  0  0  0  0  0  0  0  0
   46.2210   30.9340   49.2550 C   0  0  0  0  0  0  0  0  0  0  0  0
   45.3650   31.9720   49.0470 C   0  0  0  0  0  0  0  0  0  0  0  0
   45.2830   32.5850   47.7800 C   0  0  0  0  0  0  0  0  0  0  0  0
   46.0720   32.1360   46.7440 C   0  0  0  0  0  0  0  0  0  0  0  0
   43.9360   34.3030   41.5250 C   0  0  0  0  0  0  0  0  0  0  0  0
   43.1040   35.1920   40.9110 C   0  0  0  0  0  0  0  0  0  0  0  0
   42.6350   35.1320   39.6510 C   0  0  0  0  0  0  0  0  0  0  0  0
   43.1890   33.8840   38.9980 C   0  0  0  0  0  0  0  0  0  0  0  0
   44.2720   33.0570   40.3350 S   0  0  0  0  0  0  0  0  0  0  0  0
   43.0420   33.3210   37.7210 N   0  0  0  0  0  0  0  0  0  0  0  0
   44.5213   36.6554   45.3382 H   0  0  0  0  0  0  0  0  0  0  0  0
   43.6503   36.4222   42.9813 H   0  0  0  0  0  0  0  0  0  0  0  0
   47.5938   31.6451   43.8228 H   0  0  0  0  0  0  0  0  0  0  0  0
   48.3256   30.0568   45.7202 H   0  0  0  0  0  0  0  0  0  0  0  0
   47.7092   29.6373   48.3879 H   0  0  0  0  0  0  0  0  0  0  0  0
   46.2799   30.4592   50.2455 H   0  0  0  0  0  0  0  0  0  0  0  0
   44.7339   32.3344   49.8719 H   0  0  0  0  0  0  0  0  0  0  0  0
   44.5884   33.4225   47.6187 H   0  0  0  0  0  0  0  0  0  0  0  0
   42.7802   36.0541   41.5125 H   0  0  0  0  0  0  0  0  0  0  0  0
   41.9644   35.8640   39.1772 H   0  0  0  0  0  0  0  0  0  0  0  0
   43.5241   32.4413   37.4874 H   0  0  0  0  0  0  0  0  0  0  0  0
   42.4520   33.7875   37.0173 H   0  0  0  0  0  0  0  0  0  0  0  0
  1  6  2  0
  2  1  1  0
  3  4  1  0
  3  2  2  0
  4  5  2  0
  5  6  1  0
  5  7  1  0
  7 15  1  0
  8  7  2  0
  8  9  1  0
  9 10  1  0
 10 11  2  0
 11 12  1  0
 13 12  2  0
 14 13  1  0
 15 10  1  0
 15 14  2  0
 16  3  1  0
 17 16  2  0
 18 17  1  0
 19 18  2  0
 19 20  1  0
 20 16  1  0
 21 19  1  0
  1 22  1  0
  2 23  1  0
  8 24  1  0
  9 25  1  0
 11 26  1  0
 12 27  1  0
 13 28  1  0
 14 29  1  0
 17 30  1  0
 18 31  1  0
 21 32  1  0
 21 33  1  0
M  ISO  8  22  14  23  14  24  14  25   9  26  14  27  14  28  14  29  14
M  ISO  2  30  14  31  14
M  END
>  <minimizedAffinity>  (1) 
-5.97842884

>  <minimizedRMSD>  (1) 
0.0973937213

$$$$
