
     RDKit          3D

 30 33  0  0  1  0  0  0  0  0999 V2000
   44.9070   33.7400   40.8250 N   0  0  0  0  0  0  0  0  0  0  0  0
   45.8080   33.4790   39.8300 C   0  0  0  0  0  0  0  0  0  0  0  0
   46.9950   34.0100   40.1510 N   0  0  0  0  0  0  0  0  0  0  0  0
   46.8560   34.6050   41.3400 C   0  0  0  0  0  0  0  0  0  0  0  0
   45.5890   34.4230   41.7160 N   0  0  0  0  0  0  0  0  0  0  0  0
   42.6180   34.2570   40.3050 C   0  0  0  0  0  0  0  0  0  0  0  0
   43.5450   33.4040   40.9590 C   0  0  0  0  0  0  0  0  0  0  0  0
   43.0610   32.3270   41.6640 C   0  0  0  0  0  0  0  0  0  0  0  0
   41.7050   32.1500   41.6870 N   0  0  0  0  0  0  0  0  0  0  0  0
   40.8540   32.9630   41.0670 C   0  0  0  0  0  0  0  0  0  0  0  0
   41.3140   34.0050   40.3830 N   0  0  0  0  0  0  0  0  0  0  0  0
   47.8520   35.3470   42.1430 C   0  0  2  0  0  0  0  0  0  0  0  0
   49.0670   35.9340   41.3910 C   0  0  0  0  0  0  0  0  0  0  0  0
   49.2110   34.7720   42.3930 C   0  0  2  0  0  0  0  0  0  0  0  0
   49.6410   33.4870   41.7260 C   0  0  0  0  0  0  0  0  0  0  0  0
   50.9020   32.8710   42.2860 C   0  0  0  0  0  0  0  0  0  0  0  0
   49.5880   32.1950   42.4380 C   0  0  0  0  0  0  0  0  0  0  0  0
   45.5913   32.9193   38.9082 H   0  0  0  0  0  0  0  0  0  0  0  0
   42.9775   35.1258   39.7341 H   0  0  0  0  0  0  0  0  0  0  0  0
   43.7372   31.6357   42.1883 H   0  0  0  0  0  0  0  0  0  0  0  0
   39.7719   32.7730   41.1205 H   0  0  0  0  0  0  0  0  0  0  0  0
   47.0661   35.7363   42.8070 H   0  0  0  0  0  0  0  0  0  0  0  0
   49.1916   35.7562   40.3126 H   0  0  0  0  0  0  0  0  0  0  0  0
   49.5136   36.9320   41.2703 H   0  0  0  0  0  0  0  0  0  0  0  0
   49.7449   34.5580   43.3306 H   0  0  0  0  0  0  0  0  0  0  0  0
   49.2534   33.8129   40.7495 H   0  0  0  0  0  0  0  0  0  0  0  0
   51.6622   32.4554   41.6083 H   0  0  0  0  0  0  0  0  0  0  0  0
   51.6977   33.2001   42.9705 H   0  0  0  0  0  0  0  0  0  0  0  0
   49.1152   32.1367   43.4295 H   0  0  0  0  0  0  0  0  0  0  0  0
   49.2037   31.1946   42.1900 H   0  0  0  0  0  0  0  0  0  0  0  0
  1  7  1  0
  1  5  1  0
  2  3  2  0
  2  1  1  0
  3  4  1  0
  4  5  2  0
  4 12  1  0
  6 11  2  0
  6  7  1  0
  7  8  2  0
  8  9  1  0
 10  9  2  0
 11 10  1  0
 12 14  1  0
 13 12  1  0
 13 14  1  0
 15 16  1  0
 15 14  1  0
 15 17  1  0
 16 17  1  0
  2 18  1  0
  6 19  1  0
  8 20  1  0
 10 21  1  0
 12 22  1  1
 13 23  1  0
 13 24  1  0
 14 25  1  1
 15 26  1  0
 16 27  1  0
 16 28  1  0
 17 29  1  0
 17 30  1  0
M  ISO  8  18  14  19  14  20  14  21  14  22  13  23  13  24  13  25  13
M  ISO  5  26  13  27  13  28  13  29  13  30  13
M  END
>  <minimizedAffinity>  (1) 
-4.53652239

>  <minimizedRMSD>  (1) 
4.4596138

$$$$
