
     RDKit          3D

 38 42  0  0  0  0  0  0  0  0999 V2000
   44.7240   35.9510   44.5160 C   0  0  0  0  0  0  0  0  0  0  0  0
   43.9430   35.8340   43.3480 C   0  0  0  0  0  0  0  0  0  0  0  0
   43.9240   34.6040   42.7600 C   0  0  0  0  0  0  0  0  0  0  0  0
   44.6140   33.5800   43.2760 N   0  0  0  0  0  0  0  0  0  0  0  0
   45.3650   33.7080   44.4060 C   0  0  0  0  0  0  0  0  0  0  0  0
   45.4100   34.9180   45.0240 N   0  0  0  0  0  0  0  0  0  0  0  0
   46.1140   32.5970   44.9650 C   0  0  0  0  0  0  0  0  0  0  0  0
   46.9640   31.7240   44.2910 C   0  0  0  0  0  0  0  0  0  0  0  0
   47.4360   30.8640   45.1850 N   0  0  0  0  0  0  0  0  0  0  0  0
   46.9350   31.1400   46.3920 C   0  0  0  0  0  0  0  0  0  0  0  0
   47.1400   30.5170   47.6280 C   0  0  0  0  0  0  0  0  0  0  0  0
   46.5000   30.9840   48.7740 C   0  0  0  0  0  0  0  0  0  0  0  0
   45.6720   32.0580   48.6740 C   0  0  0  0  0  0  0  0  0  0  0  0
   45.4430   32.7080   47.4560 C   0  0  0  0  0  0  0  0  0  0  0  0
   46.0750   32.2450   46.3240 C   0  0  0  0  0  0  0  0  0  0  0  0
   43.1410   34.4930   41.5910 C   0  0  0  0  0  0  0  0  0  0  0  0
   43.3070   35.2160   40.4450 C   0  0  0  0  0  0  0  0  0  0  0  0
   42.5630   35.1150   39.3180 C   0  0  0  0  0  0  0  0  0  0  0  0
   41.5130   34.0740   39.5240 C   0  0  0  0  0  0  0  0  0  0  0  0
   41.7750   33.4220   41.2870 S   0  0  0  0  0  0  0  0  0  0  0  0
   40.4420   33.5390   38.6890 C   0  0  0  0  0  0  0  0  0  0  0  0
   39.0190   34.0600   38.8920 C   0  0  0  0  0  0  0  0  0  0  0  0
   39.8450   34.4640   37.7290 C   0  0  0  0  0  0  0  0  0  0  0  0
   44.7719   36.9235   45.0278 H   0  0  0  0  0  0  0  0  0  0  0  0
   43.3818   36.6853   42.9353 H   0  0  0  0  0  0  0  0  0  0  0  0
   47.2004   31.7435   43.2169 H   0  0  0  0  0  0  0  0  0  0  0  0
   48.0918   30.0970   44.9785 H   0  0  0  0  0  0  0  0  0  0  0  0
   47.8133   29.6497   47.6955 H   0  0  0  0  0  0  0  0  0  0  0  0
   46.6619   30.4917   49.7443 H   0  0  0  0  0  0  0  0  0  0  0  0
   45.1665   32.4273   49.5785 H   0  0  0  0  0  0  0  0  0  0  0  0
   44.7685   33.5754   47.4039 H   0  0  0  0  0  0  0  0  0  0  0  0
   44.1244   35.9520   40.4362 H   0  0  0  0  0  0  0  0  0  0  0  0
   42.7086   35.7040   38.4004 H   0  0  0  0  0  0  0  0  0  0  0  0
   40.8947   32.5371   38.6534 H   0  0  0  0  0  0  0  0  0  0  0  0
   38.1574   33.3899   38.7554 H   0  0  0  0  0  0  0  0  0  0  0  0
   38.4763   34.5817   39.6941 H   0  0  0  0  0  0  0  0  0  0  0  0
   40.2216   35.4954   37.6629 H   0  0  0  0  0  0  0  0  0  0  0  0
   39.6922   34.4389   36.6400 H   0  0  0  0  0  0  0  0  0  0  0  0
  1  6  2  0
  2  1  1  0
  3  4  1  0
  3  2  2  0
  4  5  2  0
  5  7  1  0
  5  6  1  0
  7 15  1  0
  8  7  2  0
  8  9  1  0
  9 10  1  0
 10 11  2  0
 11 12  1  0
 13 12  2  0
 14 13  1  0
 15 10  1  0
 15 14  2  0
 16  3  1  0
 17 16  2  0
 18 19  2  0
 18 17  1  0
 19 20  1  0
 20 16  1  0
 21 22  1  0
 21 19  1  0
 23 21  1  0
 23 22  1  0
  1 24  1  0
  2 25  1  0
  8 26  1  0
  9 27  1  0
 11 28  1  0
 12 29  1  0
 13 30  1  0
 14 31  1  0
 17 32  1  0
 18 33  1  0
 21 34  1  0
 22 35  1  0
 22 36  1  0
 23 37  1  0
 23 38  1  0
M  ISO  8  24  14  25  14  26  14  27   9  28  14  29  14  30  14  31  14
M  ISO  7  32  14  33  14  34  13  35  13  36  13  37  13  38  13
M  END
>  <minimizedAffinity>  (1) 
-5.97234869

>  <minimizedRMSD>  (1) 
1.60864639

$$$$
