
     RDKit          3D

 36 40  0  0  0  0  0  0  0  0999 V2000
   45.1990   35.8640   43.7230 C   0  0  0  0  0  0  0  0  0  0  0  0
   44.2790   35.7600   42.6580 C   0  0  0  0  0  0  0  0  0  0  0  0
   43.9460   34.4840   42.2770 C   0  0  0  0  0  0  0  0  0  0  0  0
   44.4760   33.4230   42.8940 N   0  0  0  0  0  0  0  0  0  0  0  0
   45.3650   33.5500   43.9220 C   0  0  0  0  0  0  0  0  0  0  0  0
   45.7210   34.7950   44.3300 N   0  0  0  0  0  0  0  0  0  0  0  0
   45.9380   32.3950   44.5890 C   0  0  0  0  0  0  0  0  0  0  0  0
   46.5650   31.3000   44.0030 C   0  0  0  0  0  0  0  0  0  0  0  0
   46.9320   30.4840   44.9750 N   0  0  0  0  0  0  0  0  0  0  0  0
   46.5710   31.0010   46.1630 C   0  0  0  0  0  0  0  0  0  0  0  0
   46.7450   30.5020   47.4600 C   0  0  0  0  0  0  0  0  0  0  0  0
   46.2820   31.2210   48.5580 C   0  0  0  0  0  0  0  0  0  0  0  0
   45.6630   32.4070   48.3530 C   0  0  0  0  0  0  0  0  0  0  0  0
   45.4740   32.9320   47.0730 C   0  0  0  0  0  0  0  0  0  0  0  0
   45.9310   32.2220   45.9770 C   0  0  0  0  0  0  0  0  0  0  0  0
   43.0230   34.3790   41.2080 C   0  0  0  0  0  0  0  0  0  0  0  0
   43.0290   35.1490   40.0820 C   0  0  0  0  0  0  0  0  0  0  0  0
   42.1670   35.0700   39.0470 C   0  0  0  0  0  0  0  0  0  0  0  0
   41.1740   33.9680   39.3440 C   0  0  0  0  0  0  0  0  0  0  0  0
   41.6690   33.2640   41.0420 S   0  0  0  0  0  0  0  0  0  0  0  0
   40.0530   33.4530   38.6090 C   0  0  0  0  0  0  0  0  0  0  0  0
   39.2920   34.3490   37.9290 N   0  0  0  0  0  0  0  0  0  0  0  0
   38.3280   33.7130   37.3250 O   0  0  0  0  0  0  0  0  0  0  0  0
   38.4050   32.4320   37.5690 C   0  0  0  0  0  0  0  0  0  0  0  0
   39.4870   32.2430   38.3780 N   0  0  0  0  0  0  0  0  0  0  0  0
   45.4980   36.8652   44.0668 H   0  0  0  0  0  0  0  0  0  0  0  0
   43.8550   36.6465   42.1638 H   0  0  0  0  0  0  0  0  0  0  0  0
   46.7259   31.1423   42.9263 H   0  0  0  0  0  0  0  0  0  0  0  0
   47.4209   29.5871   44.8429 H   0  0  0  0  0  0  0  0  0  0  0  0
   47.2503   29.5367   47.6116 H   0  0  0  0  0  0  0  0  0  0  0  0
   46.4172   30.8310   49.5776 H   0  0  0  0  0  0  0  0  0  0  0  0
   45.2976   32.9748   49.2214 H   0  0  0  0  0  0  0  0  0  0  0  0
   44.9675   33.8990   46.9376 H   0  0  0  0  0  0  0  0  0  0  0  0
   43.8175   35.9127   40.0105 H   0  0  0  0  0  0  0  0  0  0  0  0
   42.1834   35.6979   38.1440 H   0  0  0  0  0  0  0  0  0  0  0  0
   37.7256   31.6528   37.1931 H   0  0  0  0  0  0  0  0  0  0  0  0
  1  6  2  0
  2  1  1  0
  3  2  2  0
  3  4  1  0
  4  5  2  0
  5  6  1  0
  5  7  1  0
  7 15  1  0
  8  7  2  0
  8  9  1  0
  9 10  1  0
 10 11  2  0
 11 12  1  0
 13 12  2  0
 14 13  1  0
 15 10  1  0
 15 14  2  0
 16  3  1  0
 17 16  2  0
 18 19  2  0
 18 17  1  0
 19 20  1  0
 20 16  1  0
 21 19  1  0
 22 21  2  0
 23 24  1  0
 23 22  1  0
 24 25  2  0
 25 21  1  0
  1 26  1  0
  2 27  1  0
  8 28  1  0
  9 29  1  0
 11 30  1  0
 12 31  1  0
 13 32  1  0
 14 33  1  0
 17 34  1  0
 18 35  1  0
 24 36  1  0
M  ISO  8  26  14  27  14  28  14  29   9  30  14  31  14  32  14  33  14
M  ISO  3  34  14  35  14  36  14
M  END
>  <minimizedAffinity>  (1) 
-6.00615406

>  <minimizedRMSD>  (1) 
2.16266012

$$$$
