
     RDKit          3D

 41 45  0  0  0  0  0  0  0  0999 V2000
   44.8100   35.2780   44.3150 C   0  0  0  0  0  0  0  0  0  0  0  0
   44.5170   35.0420   42.9550 C   0  0  0  0  0  0  0  0  0  0  0  0
   44.8890   33.8250   42.4610 C   0  0  0  0  0  0  0  0  0  0  0  0
   45.4980   32.9190   43.2360 N   0  0  0  0  0  0  0  0  0  0  0  0
   45.7800   33.1510   44.5490 C   0  0  0  0  0  0  0  0  0  0  0  0
   45.4220   34.3620   45.0830 N   0  0  0  0  0  0  0  0  0  0  0  0
   46.4370   32.1820   45.3920 C   0  0  0  0  0  0  0  0  0  0  0  0
   47.4430   31.2920   45.0260 C   0  0  0  0  0  0  0  0  0  0  0  0
   47.7630   30.5820   46.0960 N   0  0  0  0  0  0  0  0  0  0  0  0
   47.0100   30.9740   47.1320 C   0  0  0  0  0  0  0  0  0  0  0  0
   46.9760   30.5290   48.4630 C   0  0  0  0  0  0  0  0  0  0  0  0
   46.0980   31.0890   49.3840 C   0  0  0  0  0  0  0  0  0  0  0  0
   45.2620   32.0850   48.9730 C   0  0  0  0  0  0  0  0  0  0  0  0
   45.2630   32.5580   47.6560 C   0  0  0  0  0  0  0  0  0  0  0  0
   46.1340   32.0010   46.7470 C   0  0  0  0  0  0  0  0  0  0  0  0
   44.5970   33.5990   41.1000 C   0  0  0  0  0  0  0  0  0  0  0  0
   43.5840   34.1810   40.3950 C   0  0  0  0  0  0  0  0  0  0  0  0
   43.2980   33.9840   39.0880 C   0  0  0  0  0  0  0  0  0  0  0  0
   44.2850   33.0050   38.5170 C   0  0  0  0  0  0  0  0  0  0  0  0
   45.4360   32.5530   39.9580 S   0  0  0  0  0  0  0  0  0  0  0  0
   44.4590   32.4430   37.2340 C   0  0  0  0  0  0  0  0  0  0  0  0
   45.4400   32.9050   36.4010 C   0  0  0  0  0  0  0  0  0  0  0  0
   45.5180   32.2760   35.1640 C   0  0  0  0  0  0  0  0  0  0  0  0
   44.6510   31.2430   34.7980 C   0  0  0  0  0  0  0  0  0  0  0  0
   43.6640   30.8110   35.6940 C   0  0  0  0  0  0  0  0  0  0  0  0
   43.5770   31.4380   36.9450 C   0  0  0  0  0  0  0  0  0  0  0  0
   44.5280   36.2434   44.7605 H   0  0  0  0  0  0  0  0  0  0  0  0
   44.0174   35.7957   42.3286 H   0  0  0  0  0  0  0  0  0  0  0  0
   47.8917   31.1961   44.0262 H   0  0  0  0  0  0  0  0  0  0  0  0
   48.4797   29.8429   46.1272 H   0  0  0  0  0  0  0  0  0  0  0  0
   47.6548   29.7245   48.7823 H   0  0  0  0  0  0  0  0  0  0  0  0
   46.0780   30.7351   50.4253 H   0  0  0  0  0  0  0  0  0  0  0  0
   44.5656   32.5301   49.6989 H   0  0  0  0  0  0  0  0  0  0  0  0
   44.5779   33.3630   47.3516 H   0  0  0  0  0  0  0  0  0  0  0  0
   42.9358   34.8797   40.9442 H   0  0  0  0  0  0  0  0  0  0  0  0
   42.4771   34.4622   38.5335 H   0  0  0  0  0  0  0  0  0  0  0  0
   46.1210   33.7190   36.6901 H   0  0  0  0  0  0  0  0  0  0  0  0
   46.2879   32.6022   34.4493 H   0  0  0  0  0  0  0  0  0  0  0  0
   44.7431   30.7702   33.8091 H   0  0  0  0  0  0  0  0  0  0  0  0
   42.9736   29.9989   35.4222 H   0  0  0  0  0  0  0  0  0  0  0  0
   42.8168   31.1288   37.6775 H   0  0  0  0  0  0  0  0  0  0  0  0
  1  6  2  0
  2  1  1  0
  3  2  2  0
  3  4  1  0
  4  5  2  0
  5  6  1  0
  5  7  1  0
  7 15  1  0
  8  7  2  0
  8  9  1  0
  9 10  1  0
 10 11  2  0
 11 12  1  0
 13 12  2  0
 14 13  1  0
 15 10  1  0
 15 14  2  0
 16  3  1  0
 17 16  2  0
 18 17  1  0
 19 18  2  0
 19 20  1  0
 20 16  1  0
 21 19  1  0
 22 21  2  0
 23 22  1  0
 24 23  2  0
 24 25  1  0
 25 26  2  0
 26 21  1  0
  1 27  1  0
  2 28  1  0
  8 29  1  0
  9 30  1  0
 11 31  1  0
 12 32  1  0
 13 33  1  0
 14 34  1  0
 17 35  1  0
 18 36  1  0
 22 37  1  0
 23 38  1  0
 24 39  1  0
 25 40  1  0
 26 41  1  0
M  ISO  8  27  14  28  14  29  14  30   9  31  14  32  14  33  14  34  14
M  ISO  7  35  14  36  14  37  14  38  14  39  14  40  14  41  14
M  END
>  <minimizedAffinity>  (1) 
-5.72207785

>  <minimizedRMSD>  (1) 
1.20617819

$$$$
