
     RDKit          3D

 39 43  0  0  0  0  0  0  0  0999 V2000
   44.7940   35.2950   44.3440 C   0  0  0  0  0  0  0  0  0  0  0  0
   44.4990   35.0540   42.9850 C   0  0  0  0  0  0  0  0  0  0  0  0
   44.8720   33.8320   42.4870 C   0  0  0  0  0  0  0  0  0  0  0  0
   45.4820   32.9310   43.2590 N   0  0  0  0  0  0  0  0  0  0  0  0
   45.7660   33.1680   44.5720 C   0  0  0  0  0  0  0  0  0  0  0  0
   45.4090   34.3800   45.1090 N   0  0  0  0  0  0  0  0  0  0  0  0
   46.4320   32.1910   45.4100 C   0  0  0  0  0  0  0  0  0  0  0  0
   47.4420   31.3110   45.0300 C   0  0  0  0  0  0  0  0  0  0  0  0
   47.7570   30.5990   46.1150 N   0  0  0  0  0  0  0  0  0  0  0  0
   47.0050   30.9820   47.1490 C   0  0  0  0  0  0  0  0  0  0  0  0
   46.9640   30.5390   48.4850 C   0  0  0  0  0  0  0  0  0  0  0  0
   46.0920   31.0840   49.4030 C   0  0  0  0  0  0  0  0  0  0  0  0
   45.2520   32.0800   48.9890 C   0  0  0  0  0  0  0  0  0  0  0  0
   45.2520   32.5560   47.6800 C   0  0  0  0  0  0  0  0  0  0  0  0
   46.1260   32.0070   46.7670 C   0  0  0  0  0  0  0  0  0  0  0  0
   44.5760   33.6200   41.1290 C   0  0  0  0  0  0  0  0  0  0  0  0
   43.5590   34.1950   40.4240 C   0  0  0  0  0  0  0  0  0  0  0  0
   43.2780   34.0130   39.1180 C   0  0  0  0  0  0  0  0  0  0  0  0
   44.2720   33.0570   38.5320 C   0  0  0  0  0  0  0  0  0  0  0  0
   45.4290   32.6000   39.9780 S   0  0  0  0  0  0  0  0  0  0  0  0
   44.4820   32.4970   37.2470 C   0  0  0  0  0  0  0  0  0  0  0  0
   45.4500   32.9360   36.4210 C   0  0  0  0  0  0  0  0  0  0  0  0
   45.5050   32.2610   35.1940 C   0  0  0  0  0  0  0  0  0  0  0  0
   44.6630   31.2630   34.8760 N   0  0  0  0  0  0  0  0  0  0  0  0
   43.7160   30.8690   35.7440 C   0  0  0  0  0  0  0  0  0  0  0  0
   43.6360   31.5080   36.9500 N   0  0  0  0  0  0  0  0  0  0  0  0
   44.5117   36.2606   44.7888 H   0  0  0  0  0  0  0  0  0  0  0  0
   43.9968   35.8061   42.3588 H   0  0  0  0  0  0  0  0  0  0  0  0
   47.8927   31.2200   44.0307 H   0  0  0  0  0  0  0  0  0  0  0  0
   48.4755   29.8618   46.1489 H   0  0  0  0  0  0  0  0  0  0  0  0
   47.6457   29.7370   48.8045 H   0  0  0  0  0  0  0  0  0  0  0  0
   46.0725   30.7263   50.4430 H   0  0  0  0  0  0  0  0  0  0  0  0
   44.5522   32.5205   49.7144 H   0  0  0  0  0  0  0  0  0  0  0  0
   44.5635   33.3594   47.3791 H   0  0  0  0  0  0  0  0  0  0  0  0
   42.8996   34.8784   40.9792 H   0  0  0  0  0  0  0  0  0  0  0  0
   42.4516   34.4898   38.5705 H   0  0  0  0  0  0  0  0  0  0  0  0
   46.1375   33.7528   36.6858 H   0  0  0  0  0  0  0  0  0  0  0  0
   46.2687   32.5604   34.4611 H   0  0  0  0  0  0  0  0  0  0  0  0
   43.0229   30.0532   35.4908 H   0  0  0  0  0  0  0  0  0  0  0  0
  1  6  2  0
  2  1  1  0
  3  2  2  0
  3  4  1  0
  4  5  2  0
  5  6  1  0
  5  7  1  0
  7 15  1  0
  8  7  2  0
  8  9  1  0
  9 10  1  0
 10 11  2  0
 11 12  1  0
 13 12  2  0
 14 13  1  0
 15 10  1  0
 15 14  2  0
 16  3  1  0
 17 16  2  0
 18 17  1  0
 19 18  2  0
 19 20  1  0
 20 16  1  0
 21 19  1  0
 22 21  2  0
 23 22  1  0
 24 23  2  0
 24 25  1  0
 25 26  2  0
 26 21  1  0
  1 27  1  0
  2 28  1  0
  8 29  1  0
  9 30  1  0
 11 31  1  0
 12 32  1  0
 13 33  1  0
 14 34  1  0
 17 35  1  0
 18 36  1  0
 22 37  1  0
 23 38  1  0
 25 39  1  0
M  ISO  8  27  14  28  14  29  14  30   9  31  14  32  14  33  14  34  14
M  ISO  5  35  14  36  14  37  14  38  14  39  14
M  END
>  <minimizedAffinity>  (1) 
-5.62570524

>  <minimizedRMSD>  (1) 
1.10348439

$$$$
