
     RDKit          3D

 37 41  0  0  0  0  0  0  0  0999 V2000
   44.7990   35.2760   44.2720 C   0  0  0  0  0  0  0  0  0  0  0  0
   44.5240   35.0500   42.9090 C   0  0  0  0  0  0  0  0  0  0  0  0
   44.9120   33.8390   42.4120 C   0  0  0  0  0  0  0  0  0  0  0  0
   45.5170   32.9410   43.1940 N   0  0  0  0  0  0  0  0  0  0  0  0
   45.7810   33.1610   44.5110 C   0  0  0  0  0  0  0  0  0  0  0  0
   45.4050   34.3660   45.0430 N   0  0  0  0  0  0  0  0  0  0  0  0
   46.4340   32.1930   45.3560 C   0  0  0  0  0  0  0  0  0  0  0  0
   47.4380   31.3010   44.9910 C   0  0  0  0  0  0  0  0  0  0  0  0
   47.7530   30.5910   46.0730 N   0  0  0  0  0  0  0  0  0  0  0  0
   46.9980   30.9870   47.1090 C   0  0  0  0  0  0  0  0  0  0  0  0
   46.9630   30.5450   48.4410 C   0  0  0  0  0  0  0  0  0  0  0  0
   46.0890   31.1090   49.3470 C   0  0  0  0  0  0  0  0  0  0  0  0
   45.2500   32.1090   48.9420 C   0  0  0  0  0  0  0  0  0  0  0  0
   45.2580   32.5750   47.6220 C   0  0  0  0  0  0  0  0  0  0  0  0
   46.1290   32.0150   46.7110 C   0  0  0  0  0  0  0  0  0  0  0  0
   44.6350   33.6160   41.0470 C   0  0  0  0  0  0  0  0  0  0  0  0
   43.6060   34.1710   40.3430 C   0  0  0  0  0  0  0  0  0  0  0  0
   43.3360   33.9650   39.0300 C   0  0  0  0  0  0  0  0  0  0  0  0
   44.3470   33.0240   38.4630 C   0  0  0  0  0  0  0  0  0  0  0  0
   45.5040   32.6050   39.9130 S   0  0  0  0  0  0  0  0  0  0  0  0
   44.5460   32.4680   37.1820 C   0  0  0  0  0  0  0  0  0  0  0  0
   43.6950   31.3610   36.8590 C   0  0  0  0  0  0  0  0  0  0  0  0
   44.2410   30.9420   35.1830 S   0  0  0  0  0  0  0  0  0  0  0  0
   45.5270   32.3380   35.2090 C   0  0  0  0  0  0  0  0  0  0  0  0
   45.3930   32.8140   36.2440 N   0  0  0  0  0  0  0  0  0  0  0  0
   44.5044   36.2368   44.7192 H   0  0  0  0  0  0  0  0  0  0  0  0
   44.0261   35.8045   42.2822 H   0  0  0  0  0  0  0  0  0  0  0  0
   47.8886   31.2008   43.9925 H   0  0  0  0  0  0  0  0  0  0  0  0
   48.4678   29.8503   46.1089 H   0  0  0  0  0  0  0  0  0  0  0  0
   47.6395   29.7406   48.7656 H   0  0  0  0  0  0  0  0  0  0  0  0
   46.0674   30.7562   50.3887 H   0  0  0  0  0  0  0  0  0  0  0  0
   44.5548   32.5565   49.6676 H   0  0  0  0  0  0  0  0  0  0  0  0
   44.5755   33.3808   47.3140 H   0  0  0  0  0  0  0  0  0  0  0  0
   42.9338   34.8477   40.8909 H   0  0  0  0  0  0  0  0  0  0  0  0
   42.5042   34.4191   38.4715 H   0  0  0  0  0  0  0  0  0  0  0  0
   42.9126   30.8880   37.4706 H   0  0  0  0  0  0  0  0  0  0  0  0
   46.2349   32.6236   34.4170 H   0  0  0  0  0  0  0  0  0  0  0  0
  1  6  2  0
  2  1  1  0
  3  2  2  0
  3  4  1  0
  4  5  2  0
  5  6  1  0
  5  7  1  0
  7 15  1  0
  8  7  2  0
  8  9  1  0
  9 10  1  0
 10 11  2  0
 11 12  1  0
 13 12  2  0
 14 13  1  0
 15 10  1  0
 15 14  2  0
 16  3  1  0
 17 16  2  0
 18 17  1  0
 19 18  2  0
 19 20  1  0
 20 16  1  0
 21 19  1  0
 22 21  2  0
 23 24  1  0
 23 22  1  0
 24 25  2  0
 25 21  1  0
  1 26  1  0
  2 27  1  0
  8 28  1  0
  9 29  1  0
 11 30  1  0
 12 31  1  0
 13 32  1  0
 14 33  1  0
 17 34  1  0
 18 35  1  0
 22 36  1  0
 24 37  1  0
M  ISO  8  26  14  27  14  28  14  29   9  30  14  31  14  32  14  33  14
M  ISO  4  34  14  35  14  36  14  37  14
M  END
>  <minimizedAffinity>  (1) 
-5.45552683

>  <minimizedRMSD>  (1) 
1.15528321

$$$$
