
     RDKit          3D

 22 23  0  0  0  0  0  0  0  0999 V2000
   47.1160   34.0000   43.0240 C   0  0  0  0  0  0  0  0  0  0  0  0
   47.8560   33.0430   42.3130 C   0  0  0  0  0  0  0  0  0  0  0  0
   48.1610   31.8130   42.9630 C   0  0  0  0  0  0  0  0  0  0  0  0
   47.7260   31.6300   44.2270 N   0  0  0  0  0  0  0  0  0  0  0  0
   47.0140   32.5810   44.8790 C   0  0  0  0  0  0  0  0  0  0  0  0
   46.7230   33.7450   44.2680 N   0  0  0  0  0  0  0  0  0  0  0  0
   46.5400   32.4130   46.2120 N   0  0  0  0  0  0  0  0  0  0  0  0
   47.0870   31.4150   46.9260 C   0  0  0  0  0  0  0  0  0  0  0  0
   46.7200   31.1440   48.2180 C   0  0  0  0  0  0  0  0  0  0  0  0
   45.7480   31.9250   48.8150 C   0  0  0  0  0  0  0  0  0  0  0  0
   45.3440   31.7580   49.9900 O   0  0  0  0  0  0  0  0  0  0  0  0
   45.2180   32.9140   48.0800 N   0  0  0  0  0  0  0  0  0  0  0  0
   45.5930   33.1660   46.8050 C   0  0  0  0  0  0  0  0  0  0  0  0
   45.0970   34.0870   46.1270 O   0  0  0  0  0  0  0  0  0  0  0  0
   46.7950   35.2650   42.3730 C   0  0  0  0  0  0  0  0  0  0  0  0
   45.8090   35.9460   42.7540 O   0  0  0  0  0  0  0  0  0  0  0  0
   48.1909   33.2372   41.2834 H   0  0  0  0  0  0  0  0  0  0  0  0
   48.7373   31.0310   42.4469 H   0  0  0  0  0  0  0  0  0  0  0  0
   47.8603   30.7906   46.4546 H   0  0  0  0  0  0  0  0  0  0  0  0
   47.1912   30.3183   48.7713 H   0  0  0  0  0  0  0  0  0  0  0  0
   44.4926   33.5085   48.5058 H   0  0  0  0  0  0  0  0  0  0  0  0
   47.4199   35.6259   41.5428 H   0  0  0  0  0  0  0  0  0  0  0  0
  1  6  2  0
  2  3  2  0
  2  1  1  0
  3  4  1  0
  4  5  2  0
  5  7  1  0
  6  5  1  0
  7 13  1  0
  7  8  1  0
  8  9  2  0
  9 10  1  0
 10 11  2  0
 12 10  1  0
 13 12  1  0
 14 13  2  0
 15 16  2  0
 15  1  1  0
  2 17  1  0
  3 18  1  0
  8 19  1  0
  9 20  1  0
 12 21  1  0
 15 22  1  0
M  ISO  6  17  14  18  14  19  14  20  14  21   9  22   6
M  END
>  <minimizedAffinity>  (1) 
-4.82080364

>  <minimizedRMSD>  (1) 
2.5037477

$$$$
