
     RDKit          3D

 27 28  0  0  0  0  0  0  0  0999 V2000
   44.8810   36.2800   44.4790 C   0  0  0  0  0  0  0  0  0  0  0  0
   44.8660   36.2330   43.0560 C   0  0  0  0  0  0  0  0  0  0  0  0
   45.1510   35.0020   42.4370 C   0  0  0  0  0  0  0  0  0  0  0  0
   45.4260   33.9240   43.2200 N   0  0  0  0  0  0  0  0  0  0  0  0
   45.4270   34.0320   44.5860 C   0  0  0  0  0  0  0  0  0  0  0  0
   45.1570   35.1980   45.2030 N   0  0  0  0  0  0  0  0  0  0  0  0
   45.7090   32.9250   45.4330 N   0  0  0  0  0  0  0  0  0  0  0  0
   46.2770   31.8400   44.8570 C   0  0  0  0  0  0  0  0  0  0  0  0
   46.6010   30.7010   45.5650 C   0  0  0  0  0  0  0  0  0  0  0  0
   46.3400   30.6580   46.9130 C   0  0  0  0  0  0  0  0  0  0  0  0
   46.5940   29.6710   47.6560 O   0  0  0  0  0  0  0  0  0  0  0  0
   45.7700   31.7590   47.4740 N   0  0  0  0  0  0  0  0  0  0  0  0
   45.4660   32.8510   46.7600 C   0  0  0  0  0  0  0  0  0  0  0  0
   44.9410   33.8590   47.2860 O   0  0  0  0  0  0  0  0  0  0  0  0
   44.5930   37.5220   45.1110 N   0  0  0  0  0  0  0  0  0  0  0  0
   45.1760   38.7460   44.6480 C   0  0  0  0  0  0  0  0  0  0  0  0
   45.3260   38.8560   43.3540 N   0  0  0  0  0  0  0  0  0  0  0  0
   45.5440   39.7400   45.6290 N   0  0  0  0  0  0  0  0  0  0  0  0
   45.7290   39.6760   42.8780 H   0  0  0  0  0  0  0  0  0  0  0  0
   44.6391   37.1294   42.4603 H   0  0  0  0  0  0  0  0  0  0  0  0
   45.1514   34.9129   41.3406 H   0  0  0  0  0  0  0  0  0  0  0  0
   46.4895   31.8674   43.7781 H   0  0  0  0  0  0  0  0  0  0  0  0
   47.0614   29.8403   45.0577 H   0  0  0  0  0  0  0  0  0  0  0  0
   45.5650   31.7525   48.4834 H   0  0  0  0  0  0  0  0  0  0  0  0
   43.9526   37.5414   45.9175 H   0  0  0  0  0  0  0  0  0  0  0  0
   45.9653   40.6301   45.3272 H   0  0  0  0  0  0  0  0  0  0  0  0
   45.3852   39.5588   46.6304 H   0  0  0  0  0  0  0  0  0  0  0  0
  1 15  1  0
  1  6  2  0
  2  1  1  0
  3  2  2  0
  3  4  1  0
  4  5  2  0
  5  6  1  0
  5  7  1  0
  7 13  1  0
  8  7  1  0
  8  9  2  0
  9 10  1  0
 10 12  1  0
 10 11  2  0
 13 14  2  0
 13 12  1  0
 16 15  1  0
 16 18  1  0
 17 16  2  0
 19 17  1  0
  2 20  1  0
  3 21  1  0
  8 22  1  0
  9 23  1  0
 12 24  1  0
 15 25  1  0
 18 26  1  0
 18 27  1  0
M  ISO  5  20  14  21  14  22  14  23  14  24   9
M  END
>  <minimizedAffinity>  (1) 
-5.30505848

>  <minimizedRMSD>  (1) 
1.29857051

$$$$
