
     RDKit          3D

 22 23  0  0  0  0  0  0  0  0999 V2000
   45.3810   35.6690   43.2450 C   0  0  0  0  0  0  0  0  0  0  0  0
   45.9700   35.0470   42.1150 C   0  0  0  0  0  0  0  0  0  0  0  0
   46.5520   33.7820   42.3190 C   0  0  0  0  0  0  0  0  0  0  0  0
   46.5220   33.2370   43.5500 N   0  0  0  0  0  0  0  0  0  0  0  0
   45.9400   33.8810   44.6080 C   0  0  0  0  0  0  0  0  0  0  0  0
   45.3750   35.0900   44.4490 N   0  0  0  0  0  0  0  0  0  0  0  0
   45.8920   33.3330   45.9250 N   0  0  0  0  0  0  0  0  0  0  0  0
   46.7230   32.3000   46.1640 C   0  0  0  0  0  0  0  0  0  0  0  0
   46.7830   31.6730   47.3880 C   0  0  0  0  0  0  0  0  0  0  0  0
   45.9570   32.1230   48.4090 C   0  0  0  0  0  0  0  0  0  0  0  0
   45.9180   31.6350   49.5720 O   0  0  0  0  0  0  0  0  0  0  0  0
   45.1470   33.1540   48.1250 N   0  0  0  0  0  0  0  0  0  0  0  0
   45.0970   33.7560   46.9320 C   0  0  0  0  0  0  0  0  0  0  0  0
   44.3400   34.7100   46.6870 O   0  0  0  0  0  0  0  0  0  0  0  0
   44.7680   36.9600   43.1080 N   0  0  0  0  0  0  0  0  0  0  0  0
   45.9719   35.5299   41.1267 H   0  0  0  0  0  0  0  0  0  0  0  0
   47.0253   33.2453   41.4836 H   0  0  0  0  0  0  0  0  0  0  0  0
   47.3761   31.9453   45.3531 H   0  0  0  0  0  0  0  0  0  0  0  0
   47.4721   30.8318   47.5539 H   0  0  0  0  0  0  0  0  0  0  0  0
   44.5269   33.5025   48.8699 H   0  0  0  0  0  0  0  0  0  0  0  0
   44.7576   37.4305   42.1918 H   0  0  0  0  0  0  0  0  0  0  0  0
   44.3387   37.4157   43.9259 H   0  0  0  0  0  0  0  0  0  0  0  0
  1  6  2  0
  2  3  2  0
  2  1  1  0
  3  4  1  0
  4  5  2  0
  5  7  1  0
  6  5  1  0
  7  8  1  0
  7 13  1  0
  8  9  2  0
  9 10  1  0
 10 11  2  0
 12 10  1  0
 13 12  1  0
 14 13  2  0
 15  1  1  0
  2 16  1  0
  3 17  1  0
  8 18  1  0
  9 19  1  0
 12 20  1  0
 15 21  1  0
 15 22  1  0
M  ISO  5  16  14  17  14  18  14  19  14  20   9
M  END
>  <minimizedAffinity>  (1) 
-5.29162407

>  <minimizedRMSD>  (1) 
0.86333698

$$$$
