
     RDKit          3D

 26 27  0  0  0  0  0  0  0  0999 V2000
   45.8730   35.1810   43.0470 C   0  0  0  0  0  0  0  0  0  0  0  0
   46.6100   34.4570   42.0980 C   0  0  0  0  0  0  0  0  0  0  0  0
   47.2100   33.2350   42.5140 C   0  0  0  0  0  0  0  0  0  0  0  0
   47.0460   32.8290   43.7950 N   0  0  0  0  0  0  0  0  0  0  0  0
   46.3150   33.5770   44.6760 C   0  0  0  0  0  0  0  0  0  0  0  0
   45.7460   34.7300   44.2910 N   0  0  0  0  0  0  0  0  0  0  0  0
   46.1270   33.1720   46.0310 N   0  0  0  0  0  0  0  0  0  0  0  0
   46.9240   32.2090   46.5110 C   0  0  0  0  0  0  0  0  0  0  0  0
   46.8430   31.7320   47.7950 C   0  0  0  0  0  0  0  0  0  0  0  0
   45.8970   32.2650   48.6340 C   0  0  0  0  0  0  0  0  0  0  0  0
   45.7190   31.9170   49.8340 O   0  0  0  0  0  0  0  0  0  0  0  0
   45.0960   33.2410   48.1320 N   0  0  0  0  0  0  0  0  0  0  0  0
   45.2020   33.6880   46.8650 C   0  0  0  0  0  0  0  0  0  0  0  0
   44.4560   34.5820   46.4310 O   0  0  0  0  0  0  0  0  0  0  0  0
   45.2320   36.4540   42.6650 C   0  0  0  0  0  0  0  0  0  0  0  0
   45.0230   37.3640   43.8480 C   0  0  0  0  0  0  0  0  0  0  0  0
   46.7206   34.8217   41.0661 H   0  0  0  0  0  0  0  0  0  0  0  0
   47.7970   32.6308   41.8066 H   0  0  0  0  0  0  0  0  0  0  0  0
   47.6829   31.7780   45.8414 H   0  0  0  0  0  0  0  0  0  0  0  0
   47.5215   30.9397   48.1441 H   0  0  0  0  0  0  0  0  0  0  0  0
   44.3791   33.6558   48.7443 H   0  0  0  0  0  0  0  0  0  0  0  0
   45.8722   36.9670   41.9323 H   0  0  0  0  0  0  0  0  0  0  0  0
   44.2446   36.2206   42.2401 H   0  0  0  0  0  0  0  0  0  0  0  0
   45.1544   36.7920   44.7783 H   0  0  0  0  0  0  0  0  0  0  0  0
   45.7564   38.1832   43.8146 H   0  0  0  0  0  0  0  0  0  0  0  0
   44.0057   37.7811   43.8146 H   0  0  0  0  0  0  0  0  0  0  0  0
  1  6  2  0
  2  3  2  0
  2  1  1  0
  3  4  1  0
  4  5  2  0
  5  7  1  0
  6  5  1  0
  7  8  1  0
  7 13  1  0
  8  9  2  0
  9 10  1  0
 10 11  2  0
 12 10  1  0
 13 12  1  0
 14 13  2  0
 15  1  1  0
 15 16  1  0
  2 17  1  0
  3 18  1  0
  8 19  1  0
  9 20  1  0
 12 21  1  0
 15 22  1  0
 15 23  1  0
 16 24  1  0
 16 25  1  0
 16 26  1  0
M  ISO  8  17  14  18  14  19  14  20  14  21   9  22   8  23   8  24   8
M  ISO  2  25   8  26   8
M  END
>  <minimizedAffinity>  (1) 
-4.6934104

>  <minimizedRMSD>  (1) 
1.31963503

$$$$
