
     RDKit          3D

 43 46  0  0  1  0  0  0  0  0999 V2000
   48.1510   34.0940   42.3930 C   0  0  2  0  0  0  0  0  0  0  0  0
   48.0120   32.8980   43.1930 C   0  0  0  0  0  0  0  0  0  0  0  0
   48.5100   31.7390   42.5970 C   0  0  0  0  0  0  0  0  0  0  0  0
   48.3920   30.5200   43.3110 C   0  0  0  0  0  0  0  0  0  0  0  0
   47.8000   30.5400   44.5360 N   0  0  0  0  0  0  0  0  0  0  0  0
   47.3260   31.7060   45.0740 C   0  0  0  0  0  0  0  0  0  0  0  0
   47.4390   32.8510   44.4050 N   0  0  0  0  0  0  0  0  0  0  0  0
   46.6890   31.7470   46.3540 N   0  0  0  0  0  0  0  0  0  0  0  0
   46.8430   30.6900   47.1470 C   0  0  0  0  0  0  0  0  0  0  0  0
   46.2700   30.6100   48.4060 C   0  0  0  0  0  0  0  0  0  0  0  0
   45.5100   31.6600   48.8630 C   0  0  0  0  0  0  0  0  0  0  0  0
   44.9380   31.7070   49.9850 O   0  0  0  0  0  0  0  0  0  0  0  0
   45.3690   32.7210   48.0400 N   0  0  0  0  0  0  0  0  0  0  0  0
   45.9360   32.7710   46.8240 C   0  0  0  0  0  0  0  0  0  0  0  0
   45.7980   33.7640   46.0660 O   0  0  0  0  0  0  0  0  0  0  0  0
   49.4590   34.8460   42.6720 C   0  0  0  0  0  0  0  0  0  0  0  0
   47.0000   35.0500   42.3960 C   0  0  0  0  0  0  0  0  0  0  0  0
   45.8100   34.5000   41.6970 C   0  0  0  0  0  0  0  0  0  0  0  0
   44.5620   34.4400   42.2520 N   0  0  0  0  0  0  0  0  0  0  0  0
   43.5160   33.9230   41.6040 C   0  0  0  0  0  0  0  0  0  0  0  0
   43.5790   33.4150   40.3580 N   0  0  0  0  0  0  0  0  0  0  0  0
   44.7980   33.4480   39.7550 C   0  0  0  0  0  0  0  0  0  0  0  0
   44.8950   32.9350   38.4770 C   0  0  0  0  0  0  0  0  0  0  0  0
   46.1030   32.9390   37.8090 C   0  0  0  0  0  0  0  0  0  0  0  0
   47.2270   33.4670   38.4350 C   0  0  0  0  0  0  0  0  0  0  0  0
   47.0720   33.9640   39.7090 C   0  0  0  0  0  0  0  0  0  0  0  0
   45.8970   33.9850   40.4220 C   0  0  0  0  0  0  0  0  0  0  0  0
   48.1689   33.6774   41.3751 H   0  0  0  0  0  0  0  0  0  0  0  0
   48.9801   31.7701   41.6030 H   0  0  0  0  0  0  0  0  0  0  0  0
   48.7704   29.5793   42.8844 H   0  0  0  0  0  0  0  0  0  0  0  0
   47.4498   29.8454   46.7887 H   0  0  0  0  0  0  0  0  0  0  0  0
   46.4214   29.7179   49.0315 H   0  0  0  0  0  0  0  0  0  0  0  0
   44.8051   33.5225   48.3570 H   0  0  0  0  0  0  0  0  0  0  0  0
   49.6081   34.9317   43.7585 H   0  0  0  0  0  0  0  0  0  0  0  0
   50.3010   34.2941   42.2288 H   0  0  0  0  0  0  0  0  0  0  0  0
   49.4057   35.8513   42.2288 H   0  0  0  0  0  0  0  0  0  0  0  0
   46.7271   35.2721   43.4382 H   0  0  0  0  0  0  0  0  0  0  0  0
   47.3149   35.9584   41.8615 H   0  0  0  0  0  0  0  0  0  0  0  0
   42.5438   33.9110   42.1185 H   0  0  0  0  0  0  0  0  0  0  0  0
   44.0021   32.5196   37.9869 H   0  0  0  0  0  0  0  0  0  0  0  0
   46.1759   32.5284   36.7911 H   0  0  0  0  0  0  0  0  0  0  0  0
   48.2042   33.4867   37.9303 H   0  0  0  0  0  0  0  0  0  0  0  0
   47.9649   34.3801   40.1986 H   0  0  0  0  0  0  0  0  0  0  0  0
  1 17  1  0
  1 16  1  0
  1  2  1  0
  2  7  1  0
  3  2  2  0
  3  4  1  0
  4  5  2  0
  5  6  1  0
  6  8  1  0
  7  6  2  0
  8 14  1  0
  8  9  1  0
  9 10  2  0
 10 11  1  0
 11 12  2  0
 13 11  1  0
 14 13  1  0
 15 14  2  0
 18 19  2  0
 18 17  1  0
 20 19  1  0
 21 20  2  0
 22 21  1  0
 22 27  2  0
 23 22  1  0
 24 25  1  0
 24 23  2  0
 25 26  2  0
 26 27  1  0
 27 18  1  0
  1 28  1  6
  3 29  1  0
  4 30  1  0
  9 31  1  0
 10 32  1  0
 13 33  1  0
 16 34  1  0
 16 35  1  0
 16 36  1  0
 17 37  1  0
 17 38  1  0
 20 39  1  0
 23 40  1  0
 24 41  1  0
 25 42  1  0
 26 43  1  0
M  ISO  8  28   8  29  14  30  14  31  14  32  14  33   9  34   8  35   8
M  ISO  8  36   8  37   8  38   8  39  14  40  14  41  14  42  14  43  14
M  END
>  <minimizedAffinity>  (1) 
-6.39343071

>  <minimizedRMSD>  (1) 
1.95934892

$$$$
