
     RDKit          3D

 39 41  0  0  1  0  0  0  0  0999 V2000
   47.4160   33.5030   42.9810 C   0  0  0  0  0  0  0  0  0  0  0  0
   48.1670   32.5120   42.3660 C   0  0  0  0  0  0  0  0  0  0  0  0
   48.4320   31.3390   43.1080 C   0  0  0  0  0  0  0  0  0  0  0  0
   47.9470   31.2430   44.3650 N   0  0  0  0  0  0  0  0  0  0  0  0
   47.2040   32.2620   44.9290 C   0  0  0  0  0  0  0  0  0  0  0  0
   46.9500   33.3720   44.2310 N   0  0  0  0  0  0  0  0  0  0  0  0
   46.6750   32.1710   46.2510 N   0  0  0  0  0  0  0  0  0  0  0  0
   47.1300   31.1920   47.0200 C   0  0  0  0  0  0  0  0  0  0  0  0
   46.6880   30.9820   48.3130 C   0  0  0  0  0  0  0  0  0  0  0  0
   45.7380   31.8190   48.8260 C   0  0  0  0  0  0  0  0  0  0  0  0
   45.2430   31.7430   49.9920 O   0  0  0  0  0  0  0  0  0  0  0  0
   45.2880   32.8100   48.0280 N   0  0  0  0  0  0  0  0  0  0  0  0
   45.7350   32.9930   46.7760 C   0  0  0  0  0  0  0  0  0  0  0  0
   45.3230   33.9050   46.0470 O   0  0  0  0  0  0  0  0  0  0  0  0
   47.1960   34.7230   42.1880 C   0  0  2  0  0  0  0  0  0  0  0  0
   48.4360   35.4460   41.7950 C   0  0  0  0  0  0  0  0  0  0  0  0
   46.0360   35.5730   42.5830 C   0  0  0  0  0  0  0  0  0  0  0  0
   44.8180   35.3050   41.7810 C   0  0  0  0  0  0  0  0  0  0  0  0
   45.1730   34.2710   40.8740 C   0  0  0  0  0  0  0  0  0  0  0  0
   44.3190   33.7030   39.9240 C   0  0  0  0  0  0  0  0  0  0  0  0
   43.0200   34.1510   39.8250 C   0  0  0  0  0  0  0  0  0  0  0  0
   42.6310   35.1520   40.6850 C   0  0  0  0  0  0  0  0  0  0  0  0
   43.5180   35.6640   41.5910 C   0  0  0  0  0  0  0  0  0  0  0  0
   48.5421   32.6347   41.3393 H   0  0  0  0  0  0  0  0  0  0  0  0
   49.0218   30.5200   42.6705 H   0  0  0  0  0  0  0  0  0  0  0  0
   47.8946   30.5154   46.6105 H   0  0  0  0  0  0  0  0  0  0  0  0
   47.0934   30.1569   48.9170 H   0  0  0  0  0  0  0  0  0  0  0  0
   44.5717   33.4526   48.3952 H   0  0  0  0  0  0  0  0  0  0  0  0
   46.8326   34.3208   41.2308 H   0  0  0  0  0  0  0  0  0  0  0  0
   48.9781   35.7621   42.6985 H   0  0  0  0  0  0  0  0  0  0  0  0
   49.0756   34.7793   41.1980 H   0  0  0  0  0  0  0  0  0  0  0  0
   48.1708   36.3310   41.1980 H   0  0  0  0  0  0  0  0  0  0  0  0
   45.8068   35.3822   43.6418 H   0  0  0  0  0  0  0  0  0  0  0  0
   46.3216   36.6203   42.4053 H   0  0  0  0  0  0  0  0  0  0  0  0
   46.2024   33.8864   40.9231 H   0  0  0  0  0  0  0  0  0  0  0  0
   44.6816   32.9042   39.2604 H   0  0  0  0  0  0  0  0  0  0  0  0
   42.3223   33.7258   39.0885 H   0  0  0  0  0  0  0  0  0  0  0  0
   41.6032   35.5417   40.6436 H   0  0  0  0  0  0  0  0  0  0  0  0
   43.1357   36.4616   42.2449 H   0  0  0  0  0  0  0  0  0  0  0  0
  1  6  1  0
  2  1  2  0
  2  3  1  0
  3  4  2  0
  4  5  1  0
  5  7  1  0
  6  5  2  0
  7 13  1  0
  7  8  1  0
  8  9  2  0
  9 10  1  0
 10 11  2  0
 12 10  1  0
 13 12  1  0
 14 13  2  0
 15 17  1  0
 15  1  1  0
 16 15  1  0
 18 17  1  0
 19 18  2  0
 20 19  1  0
 21 20  2  0
 21 22  1  0
 22 23  2  0
 23 18  1  0
  2 24  1  0
  3 25  1  0
  8 26  1  0
  9 27  1  0
 12 28  1  0
 15 29  1  6
 16 30  1  0
 16 31  1  0
 16 32  1  0
 17 33  1  0
 17 34  1  0
 19 35  1  0
 20 36  1  0
 21 37  1  0
 22 38  1  0
 23 39  1  0
M  ISO  8  24  14  25  14  26  14  27  14  28   9  29   8  30   8  31   8
M  ISO  8  32   8  33   8  34   8  35  14  36  14  37  14  38  14  39  14
M  END
>  <minimizedAffinity>  (1) 
-6.42804003

>  <minimizedRMSD>  (1) 
0.94113642

$$$$
