
     RDKit          3D

 37 39  0  0  1  0  0  0  0  0999 V2000
   47.4350   33.4520   42.9370 C   0  0  0  0  0  0  0  0  0  0  0  0
   48.1560   32.4170   42.3260 C   0  0  0  0  0  0  0  0  0  0  0  0
   48.4060   31.2400   43.0830 C   0  0  0  0  0  0  0  0  0  0  0  0
   47.9350   31.1750   44.3620 N   0  0  0  0  0  0  0  0  0  0  0  0
   47.2300   32.2290   44.9120 C   0  0  0  0  0  0  0  0  0  0  0  0
   47.0030   33.3160   44.2030 N   0  0  0  0  0  0  0  0  0  0  0  0
   46.7220   32.1600   46.2390 N   0  0  0  0  0  0  0  0  0  0  0  0
   47.2080   31.2220   47.0470 C   0  0  0  0  0  0  0  0  0  0  0  0
   46.7700   31.0720   48.3540 C   0  0  0  0  0  0  0  0  0  0  0  0
   45.8060   31.9080   48.8450 C   0  0  0  0  0  0  0  0  0  0  0  0
   45.3410   31.8520   50.0150 O   0  0  0  0  0  0  0  0  0  0  0  0
   45.3240   32.8560   48.0030 N   0  0  0  0  0  0  0  0  0  0  0  0
   45.7590   32.9850   46.7470 C   0  0  0  0  0  0  0  0  0  0  0  0
   45.3130   33.8650   45.9660 O   0  0  0  0  0  0  0  0  0  0  0  0
   47.1970   34.6060   42.0970 C   0  0  2  0  0  0  0  0  0  0  0  0
   48.4770   35.4200   41.8620 C   0  0  0  0  0  0  0  0  0  0  0  0
   46.0770   35.5040   42.4820 C   0  0  0  0  0  0  0  0  0  0  0  0
   44.7900   35.1520   41.8620 C   0  0  0  0  0  0  0  0  0  0  0  0
   44.9010   34.3510   40.7280 C   0  0  0  0  0  0  0  0  0  0  0  0
   43.7380   33.9630   40.0680 C   0  0  0  0  0  0  0  0  0  0  0  0
   42.5240   34.3530   40.5120 N   0  0  0  0  0  0  0  0  0  0  0  0
   42.4450   35.1340   41.6200 C   0  0  0  0  0  0  0  0  0  0  0  0
   43.5510   35.5210   42.2740 N   0  0  0  0  0  0  0  0  0  0  0  0
   48.5176   32.5126   41.2916 H   0  0  0  0  0  0  0  0  0  0  0  0
   48.9669   30.4000   42.6472 H   0  0  0  0  0  0  0  0  0  0  0  0
   47.9839   30.5420   46.6654 H   0  0  0  0  0  0  0  0  0  0  0  0
   47.1960   30.2842   48.9927 H   0  0  0  0  0  0  0  0  0  0  0  0
   44.5961   33.4997   48.3448 H   0  0  0  0  0  0  0  0  0  0  0  0
   46.8616   34.1443   41.1566 H   0  0  0  0  0  0  0  0  0  0  0  0
   48.9167   35.6996   42.8307 H   0  0  0  0  0  0  0  0  0  0  0  0
   49.1977   34.8140   41.2934 H   0  0  0  0  0  0  0  0  0  0  0  0
   48.2338   36.3297   41.2934 H   0  0  0  0  0  0  0  0  0  0  0  0
   45.9583   35.4606   43.5747 H   0  0  0  0  0  0  0  0  0  0  0  0
   46.3383   36.5111   42.1250 H   0  0  0  0  0  0  0  0  0  0  0  0
   45.8876   34.0314   40.3612 H   0  0  0  0  0  0  0  0  0  0  0  0
   43.8093   33.3294   39.1716 H   0  0  0  0  0  0  0  0  0  0  0  0
   41.4589   35.4545   41.9872 H   0  0  0  0  0  0  0  0  0  0  0  0
  1  6  1  0
  2  1  2  0
  2  3  1  0
  3  4  2  0
  4  5  1  0
  5  7  1  0
  6  5  2  0
  7 13  1  0
  7  8  1  0
  8  9  2  0
  9 10  1  0
 10 11  2  0
 12 10  1  0
 13 12  1  0
 14 13  2  0
 15 17  1  0
 15  1  1  0
 16 15  1  0
 18 23  1  0
 18 17  1  0
 19 18  2  0
 20 21  2  0
 20 19  1  0
 21 22  1  0
 22 23  2  0
  2 24  1  0
  3 25  1  0
  8 26  1  0
  9 27  1  0
 12 28  1  0
 15 29  1  6
 16 30  1  0
 16 31  1  0
 16 32  1  0
 17 33  1  0
 17 34  1  0
 19 35  1  0
 20 36  1  0
 22 37  1  0
M  ISO  8  24  14  25  14  26  14  27  14  28   9  29   8  30   8  31   8
M  ISO  6  32   8  33   8  34   8  35  14  36  14  37  14
M  END
>  <minimizedAffinity>  (1) 
-6.07930231

>  <minimizedRMSD>  (1) 
1.06812286

$$$$
