
     RDKit          3D

 45 47  0  0  1  0  0  0  0  0999 V2000
   47.5040   33.3190   42.9330 C   0  0  0  0  0  0  0  0  0  0  0  0
   48.2150   32.2730   42.3500 C   0  0  0  0  0  0  0  0  0  0  0  0
   48.4480   31.1200   43.1220 C   0  0  0  0  0  0  0  0  0  0  0  0
   47.9710   31.0860   44.3890 N   0  0  0  0  0  0  0  0  0  0  0  0
   47.2690   32.1490   44.9240 C   0  0  0  0  0  0  0  0  0  0  0  0
   47.0530   33.2260   44.1960 N   0  0  0  0  0  0  0  0  0  0  0  0
   46.7560   32.1040   46.2410 N   0  0  0  0  0  0  0  0  0  0  0  0
   47.2120   31.1750   47.0730 C   0  0  0  0  0  0  0  0  0  0  0  0
   46.7720   31.0340   48.3770 C   0  0  0  0  0  0  0  0  0  0  0  0
   45.8170   31.8920   48.8500 C   0  0  0  0  0  0  0  0  0  0  0  0
   45.3290   31.8810   50.0050 O   0  0  0  0  0  0  0  0  0  0  0  0
   45.3600   32.8340   48.0000 N   0  0  0  0  0  0  0  0  0  0  0  0
   45.8040   32.9530   46.7290 C   0  0  0  0  0  0  0  0  0  0  0  0
   45.3730   33.8270   45.9550 O   0  0  0  0  0  0  0  0  0  0  0  0
   47.2910   34.4840   42.0760 C   0  0  2  0  0  0  0  0  0  0  0  0
   48.5440   35.3580   41.9660 C   0  0  0  0  0  0  0  0  0  0  0  0
   46.0970   35.3190   42.3460 C   0  0  0  0  0  0  0  0  0  0  0  0
   44.7820   34.7440   41.9450 C   0  0  0  0  0  0  0  0  0  0  0  0
   44.9250   34.1450   40.5440 C   0  0  0  0  0  0  0  0  0  0  0  0
   43.5870   33.7390   39.9610 C   0  0  0  0  0  0  0  0  0  0  0  0
   42.6890   34.9360   39.8880 C   0  0  0  0  0  0  0  0  0  0  0  0
   42.4760   35.4120   41.3330 C   0  0  0  0  0  0  0  0  0  0  0  0
   43.8260   35.9340   41.7780 C   0  0  0  0  0  0  0  0  0  0  0  0
   48.5836   32.3461   41.3162 H   0  0  0  0  0  0  0  0  0  0  0  0
   49.0042   30.2668   42.7064 H   0  0  0  0  0  0  0  0  0  0  0  0
   47.9813   30.4799   46.7055 H   0  0  0  0  0  0  0  0  0  0  0  0
   47.1834   30.2446   49.0233 H   0  0  0  0  0  0  0  0  0  0  0  0
   44.6411   33.4916   48.3341 H   0  0  0  0  0  0  0  0  0  0  0  0
   47.0710   34.0144   41.1059 H   0  0  0  0  0  0  0  0  0  0  0  0
   48.9050   35.6098   42.9741 H   0  0  0  0  0  0  0  0  0  0  0  0
   49.3272   34.8093   41.4225 H   0  0  0  0  0  0  0  0  0  0  0  0
   48.2996   36.2826   41.4225 H   0  0  0  0  0  0  0  0  0  0  0  0
   46.0617   35.5124   43.4283 H   0  0  0  0  0  0  0  0  0  0  0  0
   46.2236   36.2190   41.7263 H   0  0  0  0  0  0  0  0  0  0  0  0
   44.4394   33.9980   42.6772 H   0  0  0  0  0  0  0  0  0  0  0  0
   45.3879   34.8930   39.8835 H   0  0  0  0  0  0  0  0  0  0  0  0
   45.5493   33.2427   40.6224 H   0  0  0  0  0  0  0  0  0  0  0  0
   43.7362   33.3307   38.9506 H   0  0  0  0  0  0  0  0  0  0  0  0
   43.1254   32.9734   40.6019 H   0  0  0  0  0  0  0  0  0  0  0  0
   43.1626   35.7303   39.2924 H   0  0  0  0  0  0  0  0  0  0  0  0
   41.7319   34.6858   39.4070 H   0  0  0  0  0  0  0  0  0  0  0  0
   41.7215   36.2116   41.3692 H   0  0  0  0  0  0  0  0  0  0  0  0
   42.1109   34.6040   41.9841 H   0  0  0  0  0  0  0  0  0  0  0  0
   44.2239   36.6252   41.0204 H   0  0  0  0  0  0  0  0  0  0  0  0
   43.7247   36.4708   42.7328 H   0  0  0  0  0  0  0  0  0  0  0  0
  1  6  1  0
  2  1  2  0
  2  3  1  0
  3  4  2  0
  4  5  1  0
  5  7  1  0
  6  5  2  0
  7 13  1  0
  7  8  1  0
  8  9  2  0
  9 10  1  0
 10 11  2  0
 12 10  1  0
 13 12  1  0
 14 13  2  0
 15 17  1  0
 15  1  1  0
 16 15  1  0
 18 17  1  0
 19 18  1  0
 20 19  1  0
 21 20  1  0
 21 22  1  0
 22 23  1  0
 23 18  1  0
  2 24  1  0
  3 25  1  0
  8 26  1  0
  9 27  1  0
 12 28  1  0
 15 29  1  6
 16 30  1  0
 16 31  1  0
 16 32  1  0
 17 33  1  0
 17 34  1  0
 18 35  1  0
 19 36  1  0
 19 37  1  0
 20 38  1  0
 20 39  1  0
 21 40  1  0
 21 41  1  0
 22 42  1  0
 22 43  1  0
 23 44  1  0
 23 45  1  0
M  ISO  8  24  14  25  14  26  14  27  14  28   9  29   8  30   8  31   8
M  ISO  8  32   8  33   8  34   8  35  13  36  13  37  13  38  13  39  13
M  ISO  6  40  13  41  13  42  13  43  13  44  13  45  13
M  END
>  <minimizedAffinity>  (1) 
-6.17843342

>  <minimizedRMSD>  (1) 
0.753523827

$$$$
