
     RDKit          3D

 36 38  0  0  1  0  0  0  0  0999 V2000
   47.3820   33.4840   42.9710 C   0  0  0  0  0  0  0  0  0  0  0  0
   48.1270   32.4820   42.3590 C   0  0  0  0  0  0  0  0  0  0  0  0
   48.3980   31.3140   43.1090 C   0  0  0  0  0  0  0  0  0  0  0  0
   47.9190   31.2380   44.3730 N   0  0  0  0  0  0  0  0  0  0  0  0
   47.1840   32.2640   44.9310 C   0  0  0  0  0  0  0  0  0  0  0  0
   46.9320   33.3580   44.2250 N   0  0  0  0  0  0  0  0  0  0  0  0
   46.6690   32.1760   46.2430 N   0  0  0  0  0  0  0  0  0  0  0  0
   47.1090   31.1990   47.0290 C   0  0  0  0  0  0  0  0  0  0  0  0
   46.6660   30.9970   48.3230 C   0  0  0  0  0  0  0  0  0  0  0  0
   45.7160   31.8500   48.8380 C   0  0  0  0  0  0  0  0  0  0  0  0
   45.2570   31.7430   49.9940 O   0  0  0  0  0  0  0  0  0  0  0  0
   45.2670   32.8550   48.0240 N   0  0  0  0  0  0  0  0  0  0  0  0
   45.7270   33.0100   46.7780 C   0  0  0  0  0  0  0  0  0  0  0  0
   45.3140   33.9270   46.0450 O   0  0  0  0  0  0  0  0  0  0  0  0
   47.1320   34.6610   42.1350 C   0  0  2  0  0  0  0  0  0  0  0  0
   48.3900   35.4350   41.8050 C   0  0  0  0  0  0  0  0  0  0  0  0
   46.0080   35.5500   42.5400 C   0  0  0  0  0  0  0  0  0  0  0  0
   44.8030   35.3250   41.7570 N   0  0  0  0  0  0  0  0  0  0  0  0
   43.5700   35.7480   41.5910 N   0  0  0  0  0  0  0  0  0  0  0  0
   42.9040   35.0850   40.6460 C   0  0  0  0  0  0  0  0  0  0  0  0
   43.7680   34.1390   40.1370 C   0  0  0  0  0  0  0  0  0  0  0  0
   44.9380   34.3100   40.8460 C   0  0  0  0  0  0  0  0  0  0  0  0
   48.4928   32.5939   41.3276 H   0  0  0  0  0  0  0  0  0  0  0  0
   48.9828   30.4887   42.6766 H   0  0  0  0  0  0  0  0  0  0  0  0
   47.8686   30.5122   46.6274 H   0  0  0  0  0  0  0  0  0  0  0  0
   47.0650   30.1705   48.9295 H   0  0  0  0  0  0  0  0  0  0  0  0
   44.5559   33.5092   48.3808 H   0  0  0  0  0  0  0  0  0  0  0  0
   46.7635   34.2061   41.2037 H   0  0  0  0  0  0  0  0  0  0  0  0
   48.8874   35.7410   42.7372 H   0  0  0  0  0  0  0  0  0  0  0  0
   49.0691   34.7983   41.2190 H   0  0  0  0  0  0  0  0  0  0  0  0
   48.1278   36.3282   41.2190 H   0  0  0  0  0  0  0  0  0  0  0  0
   45.7783   35.3659   43.5999 H   0  0  0  0  0  0  0  0  0  0  0  0
   46.3272   36.5883   42.3669 H   0  0  0  0  0  0  0  0  0  0  0  0
   41.8642   35.2592   40.3323 H   0  0  0  0  0  0  0  0  0  0  0  0
   43.5678   33.4079   39.3399 H   0  0  0  0  0  0  0  0  0  0  0  0
   45.8518   33.7151   40.7008 H   0  0  0  0  0  0  0  0  0  0  0  0
  1  6  1  0
  2  1  2  0
  2  3  1  0
  3  4  2  0
  4  5  1  0
  5  7  1  0
  6  5  2  0
  7 13  1  0
  7  8  1  0
  8  9  2  0
  9 10  1  0
 10 11  2  0
 12 10  1  0
 13 12  1  0
 14 13  2  0
 15 17  1  0
 15  1  1  0
 16 15  1  0
 18 17  1  0
 19 18  1  0
 20 19  2  0
 21 20  1  0
 21 22  2  0
 22 18  1  0
  2 23  1  0
  3 24  1  0
  8 25  1  0
  9 26  1  0
 12 27  1  0
 15 28  1  6
 16 29  1  0
 16 30  1  0
 16 31  1  0
 17 32  1  0
 17 33  1  0
 20 34  1  0
 21 35  1  0
 22 36  1  0
M  ISO  8  23  14  24  14  25  14  26  14  27   9  28   8  29   8  30   8
M  ISO  6  31   8  32   8  33   8  34  14  35  14  36  14
M  END
>  <minimizedAffinity>  (1) 
-5.94998026

>  <minimizedRMSD>  (1) 
0.940846205

$$$$
