
     RDKit          3D

 36 37  0  0  1  0  0  0  0  0999 V2000
   47.4180   33.5600   42.9090 C   0  0  0  0  0  0  0  0  0  0  0  0
   48.1210   32.5440   42.2670 C   0  0  0  0  0  0  0  0  0  0  0  0
   48.3530   31.3450   42.9920 C   0  0  0  0  0  0  0  0  0  0  0  0
   47.8790   31.2540   44.2610 N   0  0  0  0  0  0  0  0  0  0  0  0
   47.1880   32.2910   44.8460 C   0  0  0  0  0  0  0  0  0  0  0  0
   46.9730   33.4130   44.1670 N   0  0  0  0  0  0  0  0  0  0  0  0
   46.6790   32.1910   46.1620 N   0  0  0  0  0  0  0  0  0  0  0  0
   47.1190   31.2090   46.9430 C   0  0  0  0  0  0  0  0  0  0  0  0
   46.6910   31.0050   48.2430 C   0  0  0  0  0  0  0  0  0  0  0  0
   45.7450   31.8780   48.7630 C   0  0  0  0  0  0  0  0  0  0  0  0
   45.2720   31.8050   49.9290 O   0  0  0  0  0  0  0  0  0  0  0  0
   45.3030   32.8860   47.9430 N   0  0  0  0  0  0  0  0  0  0  0  0
   45.7500   33.0360   46.6980 C   0  0  0  0  0  0  0  0  0  0  0  0
   45.3290   33.9580   45.9780 O   0  0  0  0  0  0  0  0  0  0  0  0
   47.1920   34.7540   42.0970 C   0  0  2  0  0  0  0  0  0  0  0  0
   48.4940   35.5220   41.8330 C   0  0  0  0  0  0  0  0  0  0  0  0
   46.1110   35.6760   42.5300 C   0  0  0  0  0  0  0  0  0  0  0  0
   44.7850   35.1860   42.1490 N   0  0  0  0  0  0  0  0  0  0  0  0
   43.7210   35.4800   43.0480 C   0  0  0  0  0  0  0  0  0  0  0  0
   43.8750   35.7750   44.2950 N   0  0  0  0  0  0  0  0  0  0  0  0
   42.3580   35.4670   42.6080 N   0  0  0  0  0  0  0  0  0  0  0  0
   44.8070   35.8260   44.7680 H   0  0  0  0  0  0  0  0  0  0  0  0
   48.4836   32.6656   41.2356 H   0  0  0  0  0  0  0  0  0  0  0  0
   48.9040   30.5093   42.5359 H   0  0  0  0  0  0  0  0  0  0  0  0
   47.8683   30.5171   46.5309 H   0  0  0  0  0  0  0  0  0  0  0  0
   47.0885   30.1757   48.8465 H   0  0  0  0  0  0  0  0  0  0  0  0
   44.6017   33.5489   48.3031 H   0  0  0  0  0  0  0  0  0  0  0  0
   46.8086   34.3303   41.1570 H   0  0  0  0  0  0  0  0  0  0  0  0
   48.9588   35.7962   42.7915 H   0  0  0  0  0  0  0  0  0  0  0  0
   49.1846   34.8866   41.2591 H   0  0  0  0  0  0  0  0  0  0  0  0
   48.2720   36.4338   41.2591 H   0  0  0  0  0  0  0  0  0  0  0  0
   46.1501   35.7796   43.6244 H   0  0  0  0  0  0  0  0  0  0  0  0
   46.2709   36.6437   42.0321 H   0  0  0  0  0  0  0  0  0  0  0  0
   44.6305   34.6576   41.2784 H   0  0  0  0  0  0  0  0  0  0  0  0
   41.6004   35.6821   43.2719 H   0  0  0  0  0  0  0  0  0  0  0  0
   42.1354   35.2425   41.6277 H   0  0  0  0  0  0  0  0  0  0  0  0
  1  6  2  0
  2  1  1  0
  2  3  2  0
  3  4  1  0
  4  5  2  0
  5  7  1  0
  6  5  1  0
  7 13  1  0
  7  8  1  0
  8  9  2  0
  9 10  1  0
 10 11  2  0
 12 10  1  0
 13 12  1  0
 14 13  2  0
 15 17  1  0
 15  1  1  0
 16 15  1  0
 18 17  1  0
 18 19  1  0
 19 20  2  0
 20 22  1  0
 21 19  1  0
  2 23  1  0
  3 24  1  0
  8 25  1  0
  9 26  1  0
 12 27  1  0
 15 28  1  6
 16 29  1  0
 16 30  1  0
 16 31  1  0
 17 32  1  0
 17 33  1  0
 18 34  1  0
 21 35  1  0
 21 36  1  0
M  ISO  8  23  14  24  14  25  14  26  14  27   9  28   8  29   8  30   8
M  ISO  3  31   8  32   8  33   8
M  END
>  <minimizedAffinity>  (1) 
-6.35360098

>  <minimizedRMSD>  (1) 
1.29425216

$$$$
