
     RDKit          3D

 44 46  0  0  1  0  0  0  0  0999 V2000
   47.3510   33.3850   42.9260 C   0  0  0  0  0  0  0  0  0  0  0  0
   48.1010   32.3770   42.3260 C   0  0  0  0  0  0  0  0  0  0  0  0
   48.3960   31.2250   43.1000 C   0  0  0  0  0  0  0  0  0  0  0  0
   47.9350   31.1640   44.3800 N   0  0  0  0  0  0  0  0  0  0  0  0
   47.1970   32.1910   44.9250 C   0  0  0  0  0  0  0  0  0  0  0  0
   46.9270   33.2620   44.1960 N   0  0  0  0  0  0  0  0  0  0  0  0
   46.7030   32.1330   46.2490 N   0  0  0  0  0  0  0  0  0  0  0  0
   47.2110   31.1990   47.0660 C   0  0  0  0  0  0  0  0  0  0  0  0
   46.8120   31.0380   48.3810 C   0  0  0  0  0  0  0  0  0  0  0  0
   45.8350   31.8900   48.8730 C   0  0  0  0  0  0  0  0  0  0  0  0
   45.3790   31.8570   50.0450 O   0  0  0  0  0  0  0  0  0  0  0  0
   45.3300   32.8290   48.0340 N   0  0  0  0  0  0  0  0  0  0  0  0
   45.7400   32.9550   46.7680 C   0  0  0  0  0  0  0  0  0  0  0  0
   45.2780   33.8180   45.9960 O   0  0  0  0  0  0  0  0  0  0  0  0
   47.0630   34.5280   42.0710 C   0  0  2  0  0  0  0  0  0  0  0  0
   48.3150   35.3760   41.8060 C   0  0  0  0  0  0  0  0  0  0  0  0
   45.9320   35.4090   42.4600 C   0  0  0  0  0  0  0  0  0  0  0  0
   44.8300   35.3920   41.5540 N   0  0  0  0  0  0  0  0  0  0  0  0
   44.8320   34.1220   40.8520 C   0  0  0  0  0  0  0  0  0  0  0  0
   43.9150   33.1310   41.5720 C   0  0  0  0  0  0  0  0  0  0  0  0
   42.4950   33.5390   41.2340 C   0  0  0  0  0  0  0  0  0  0  0  0
   42.4540   35.0580   41.2590 C   0  0  0  0  0  0  0  0  0  0  0  0
   43.5500   35.5690   42.1970 C   0  0  0  0  0  0  0  0  0  0  0  0
   48.4526   32.4705   41.2879 H   0  0  0  0  0  0  0  0  0  0  0  0
   48.9847   30.3986   42.6751 H   0  0  0  0  0  0  0  0  0  0  0  0
   47.9854   30.5256   46.6701 H   0  0  0  0  0  0  0  0  0  0  0  0
   47.2563   30.2579   49.0167 H   0  0  0  0  0  0  0  0  0  0  0  0
   44.6035   33.4688   48.3858 H   0  0  0  0  0  0  0  0  0  0  0  0
   46.7195   34.0365   41.1488 H   0  0  0  0  0  0  0  0  0  0  0  0
   48.7622   35.6789   42.7642 H   0  0  0  0  0  0  0  0  0  0  0  0
   49.0436   34.7847   41.2319 H   0  0  0  0  0  0  0  0  0  0  0  0
   48.0362   36.2720   41.2319 H   0  0  0  0  0  0  0  0  0  0  0  0
   45.5698   35.0873   43.4476 H   0  0  0  0  0  0  0  0  0  0  0  0
   46.3220   36.4375   42.4590 H   0  0  0  0  0  0  0  0  0  0  0  0
   44.4715   34.2725   39.8237 H   0  0  0  0  0  0  0  0  0  0  0  0
   45.8558   33.7202   40.8305 H   0  0  0  0  0  0  0  0  0  0  0  0
   44.1106   32.1072   41.2205 H   0  0  0  0  0  0  0  0  0  0  0  0
   44.0864   33.1459   42.6585 H   0  0  0  0  0  0  0  0  0  0  0  0
   41.7964   33.1295   41.9785 H   0  0  0  0  0  0  0  0  0  0  0  0
   42.1990   33.1534   40.2472 H   0  0  0  0  0  0  0  0  0  0  0  0
   42.6244   35.4486   40.2449 H   0  0  0  0  0  0  0  0  0  0  0  0
   41.4705   35.3981   41.6154 H   0  0  0  0  0  0  0  0  0  0  0  0
   43.5268   34.9998   43.1380 H   0  0  0  0  0  0  0  0  0  0  0  0
   43.3865   36.6339   42.4189 H   0  0  0  0  0  0  0  0  0  0  0  0
  1  6  1  0
  2  1  2  0
  2  3  1  0
  3  4  2  0
  4  5  1  0
  5  7  1  0
  6  5  2  0
  7 13  1  0
  7  8  1  0
  8  9  2  0
  9 10  1  0
 10 11  2  0
 12 10  1  0
 13 12  1  0
 14 13  2  0
 15 17  1  0
 15  1  1  0
 16 15  1  0
 18 23  1  0
 18 17  1  0
 19 18  1  0
 19 20  1  0
 21 22  1  0
 21 20  1  0
 22 23  1  0
  2 24  1  0
  3 25  1  0
  8 26  1  0
  9 27  1  0
 12 28  1  0
 15 29  1  6
 16 30  1  0
 16 31  1  0
 16 32  1  0
 17 33  1  0
 17 34  1  0
 19 35  1  0
 19 36  1  0
 20 37  1  0
 20 38  1  0
 21 39  1  0
 21 40  1  0
 22 41  1  0
 22 42  1  0
 23 43  1  0
 23 44  1  0
M  ISO  8  24  14  25  14  26  14  27  14  28   9  29   8  30   8  31   8
M  ISO  8  32   8  33   8  34   8  35  13  36  13  37  13  38  13  39  13
M  ISO  5  40  13  41  13  42  13  43  13  44  13
M  END
>  <minimizedAffinity>  (1) 
-5.76678276

>  <minimizedRMSD>  (1) 
1.31436944

$$$$
