
     RDKit          3D

 51 53  0  0  1  0  0  0  0  0999 V2000
   48.6830   34.1160   42.0950 C   0  0  2  0  0  0  0  0  0  0  0  0
   48.4170   32.8750   42.8510 C   0  0  0  0  0  0  0  0  0  0  0  0
   48.8530   31.7030   42.2320 C   0  0  0  0  0  0  0  0  0  0  0  0
   48.6170   30.4820   42.9060 C   0  0  0  0  0  0  0  0  0  0  0  0
   47.9890   30.5200   44.1000 N   0  0  0  0  0  0  0  0  0  0  0  0
   47.5840   31.7110   44.6580 C   0  0  0  0  0  0  0  0  0  0  0  0
   47.8020   32.8690   44.0290 N   0  0  0  0  0  0  0  0  0  0  0  0
   46.9300   31.7710   45.9330 N   0  0  0  0  0  0  0  0  0  0  0  0
   46.9490   30.6590   46.6750 C   0  0  0  0  0  0  0  0  0  0  0  0
   46.3690   30.5860   47.9160 C   0  0  0  0  0  0  0  0  0  0  0  0
   45.7400   31.7020   48.4200 C   0  0  0  0  0  0  0  0  0  0  0  0
   45.1720   31.7640   49.5470 O   0  0  0  0  0  0  0  0  0  0  0  0
   45.7280   32.8210   47.6590 N   0  0  0  0  0  0  0  0  0  0  0  0
   46.3090   32.8500   46.4470 C   0  0  0  0  0  0  0  0  0  0  0  0
   46.3080   33.8600   45.7430 O   0  0  0  0  0  0  0  0  0  0  0  0
   49.8590   34.9030   42.6250 C   0  0  0  0  0  0  0  0  0  0  0  0
   47.5100   34.9680   41.7740 C   0  0  0  0  0  0  0  0  0  0  0  0
   46.6300   34.3570   40.8090 C   0  0  0  0  0  0  0  0  0  0  0  0
   47.3960   33.9720   39.6500 C   0  0  0  0  0  0  0  0  0  0  0  0
   46.8420   33.3240   38.5990 C   0  0  0  0  0  0  0  0  0  0  0  0
   45.4930   32.9920   38.5550 C   0  0  0  0  0  0  0  0  0  0  0  0
   44.7380   33.3490   39.6230 C   0  0  0  0  0  0  0  0  0  0  0  0
   45.3060   33.9940   40.6700 C   0  0  0  0  0  0  0  0  0  0  0  0
   44.5460   34.5120   41.8600 C   0  0  0  0  0  0  0  0  0  0  0  0
   43.0920   34.7380   41.5800 C   0  0  0  0  0  0  0  0  0  0  0  0
   45.2390   35.4880   42.7010 C   0  0  0  0  0  0  0  0  0  0  0  0
   44.4790   33.2420   42.7680 C   0  0  0  0  0  0  0  0  0  0  0  0
   48.9757   33.7274   41.1084 H   0  0  0  0  0  0  0  0  0  0  0  0
   49.3611   31.7276   41.2567 H   0  0  0  0  0  0  0  0  0  0  0  0
   48.9374   29.5252   42.4678 H   0  0  0  0  0  0  0  0  0  0  0  0
   47.4504   29.7659   46.2738 H   0  0  0  0  0  0  0  0  0  0  0  0
   46.4058   29.6531   48.4976 H   0  0  0  0  0  0  0  0  0  0  0  0
   45.2639   33.6684   48.0159 H   0  0  0  0  0  0  0  0  0  0  0  0
   49.8421   34.8917   43.7248 H   0  0  0  0  0  0  0  0  0  0  0  0
   50.7950   34.4487   42.2680 H   0  0  0  0  0  0  0  0  0  0  0  0
   49.7960   35.9416   42.2680 H   0  0  0  0  0  0  0  0  0  0  0  0
   46.9447   35.1527   42.6993 H   0  0  0  0  0  0  0  0  0  0  0  0
   47.8872   35.9040   41.3361 H   0  0  0  0  0  0  0  0  0  0  0  0
   48.4687   34.2135   39.6188 H   0  0  0  0  0  0  0  0  0  0  0  0
   47.4830   33.0499   37.7481 H   0  0  0  0  0  0  0  0  0  0  0  0
   45.0581   32.4640   37.6935 H   0  0  0  0  0  0  0  0  0  0  0  0
   43.6634   33.1147   39.6393 H   0  0  0  0  0  0  0  0  0  0  0  0
   42.5445   34.8231   42.5303 H   0  0  0  0  0  0  0  0  0  0  0  0
   42.9698   35.6659   41.0021 H   0  0  0  0  0  0  0  0  0  0  0  0
   42.6939   33.8909   41.0021 H   0  0  0  0  0  0  0  0  0  0  0  0
   45.0675   35.2465   43.7604 H   0  0  0  0  0  0  0  0  0  0  0  0
   46.3176   35.4557   42.4875 H   0  0  0  0  0  0  0  0  0  0  0  0
   44.8530   36.4957   42.4875 H   0  0  0  0  0  0  0  0  0  0  0  0
   44.4950   33.5458   43.8251 H   0  0  0  0  0  0  0  0  0  0  0  0
   43.5505   32.6904   42.5590 H   0  0  0  0  0  0  0  0  0  0  0  0
   45.3443   32.5958   42.5590 H   0  0  0  0  0  0  0  0  0  0  0  0
  1 16  1  0
  1  2  1  0
  2  7  1  0
  3  2  2  0
  3  4  1  0
  4  5  2  0
  5  6  1  0
  6  8  1  0
  7  6  2  0
  8 14  1  0
  8  9  1  0
  9 10  2  0
 10 11  1  0
 11 12  2  0
 13 11  1  0
 14 13  1  0
 15 14  2  0
 17  1  1  0
 18 17  1  0
 19 18  2  0
 20 19  1  0
 21 20  2  0
 21 22  1  0
 22 23  2  0
 23 18  1  0
 23 24  1  0
 24 26  1  0
 24 27  1  0
 25 24  1  0
  1 28  1  6
  3 29  1  0
  4 30  1  0
  9 31  1  0
 10 32  1  0
 13 33  1  0
 16 34  1  0
 16 35  1  0
 16 36  1  0
 17 37  1  0
 17 38  1  0
 19 39  1  0
 20 40  1  0
 21 41  1  0
 22 42  1  0
 25 43  1  0
 25 44  1  0
 25 45  1  0
 26 46  1  0
 26 47  1  0
 26 48  1  0
 27 49  1  0
 27 50  1  0
 27 51  1  0
M  ISO  8  28   8  29  14  30  14  31  14  32  14  33   9  34   8  35   8
M  ISO  8  36   8  37   8  38   8  39  14  40  14  41  14  42  14  43   8
M  ISO  8  44   8  45   8  46   8  47   8  48   8  49   8  50   8  51   8
M  END
>  <minimizedAffinity>  (1) 
-6.43537378

>  <minimizedRMSD>  (1) 
2.00870633

$$$$
