
     RDKit          3D

 45 47  0  0  1  0  0  0  0  0999 V2000
   48.3050   33.8190   42.3270 C   0  0  2  0  0  0  0  0  0  0  0  0
   48.0810   32.6010   43.1200 C   0  0  0  0  0  0  0  0  0  0  0  0
   48.4930   31.4140   42.5030 C   0  0  0  0  0  0  0  0  0  0  0  0
   48.2970   30.2080   43.2110 C   0  0  0  0  0  0  0  0  0  0  0  0
   47.7270   30.2660   44.4340 N   0  0  0  0  0  0  0  0  0  0  0  0
   47.3400   31.4710   44.9930 C   0  0  0  0  0  0  0  0  0  0  0  0
   47.5230   32.6130   44.3260 N   0  0  0  0  0  0  0  0  0  0  0  0
   46.7580   31.5560   46.2980 N   0  0  0  0  0  0  0  0  0  0  0  0
   46.8310   30.4590   47.0590 C   0  0  0  0  0  0  0  0  0  0  0  0
   46.3150   30.4070   48.3330 C   0  0  0  0  0  0  0  0  0  0  0  0
   45.7060   31.5220   48.8370 C   0  0  0  0  0  0  0  0  0  0  0  0
   45.1760   31.6450   49.9930 O   0  0  0  0  0  0  0  0  0  0  0  0
   45.6400   32.6290   48.0520 N   0  0  0  0  0  0  0  0  0  0  0  0
   46.1530   32.6420   46.8140 C   0  0  0  0  0  0  0  0  0  0  0  0
   46.0980   33.6560   46.0860 O   0  0  0  0  0  0  0  0  0  0  0  0
   49.7610   34.1490   42.1150 C   0  0  0  0  0  0  0  0  0  0  0  0
   47.4980   35.0030   42.6960 C   0  0  0  0  0  0  0  0  0  0  0  0
   46.1740   34.9880   42.0990 C   0  0  0  0  0  0  0  0  0  0  0  0
   46.1810   34.0760   40.9980 C   0  0  0  0  0  0  0  0  0  0  0  0
   45.0580   33.8170   40.2900 C   0  0  0  0  0  0  0  0  0  0  0  0
   43.8280   34.4130   40.5580 C   0  0  0  0  0  0  0  0  0  0  0  0
   43.7910   35.2910   41.5930 C   0  0  0  0  0  0  0  0  0  0  0  0
   44.9380   35.5420   42.3120 C   0  0  0  0  0  0  0  0  0  0  0  0
   45.0820   36.4820   43.4920 C   0  0  0  0  0  0  0  0  0  0  0  0
   44.4260   35.9350   44.7230 C   0  0  0  0  0  0  0  0  0  0  0  0
   47.8996   33.5302   41.3461 H   0  0  0  0  0  0  0  0  0  0  0  0
   48.9525   31.4204   41.5036 H   0  0  0  0  0  0  0  0  0  0  0  0
   48.6013   29.2443   42.7767 H   0  0  0  0  0  0  0  0  0  0  0  0
   47.3226   29.5637   46.6505 H   0  0  0  0  0  0  0  0  0  0  0  0
   46.3908   29.4882   48.9330 H   0  0  0  0  0  0  0  0  0  0  0  0
   45.1851   33.4780   48.4169 H   0  0  0  0  0  0  0  0  0  0  0  0
   50.2572   34.2615   43.0902 H   0  0  0  0  0  0  0  0  0  0  0  0
   50.2425   33.3372   41.5501 H   0  0  0  0  0  0  0  0  0  0  0  0
   49.8454   35.0891   41.5501 H   0  0  0  0  0  0  0  0  0  0  0  0
   47.3901   35.0280   43.7904 H   0  0  0  0  0  0  0  0  0  0  0  0
   48.0224   35.8930   42.3181 H   0  0  0  0  0  0  0  0  0  0  0  0
   47.1198   33.5742   40.7207 H   0  0  0  0  0  0  0  0  0  0  0  0
   45.1193   33.0984   39.4595 H   0  0  0  0  0  0  0  0  0  0  0  0
   42.9324   34.1841   39.9617 H   0  0  0  0  0  0  0  0  0  0  0  0
   42.8509   35.7984   41.8553 H   0  0  0  0  0  0  0  0  0  0  0  0
   46.1519   36.6349   43.6968 H   0  0  0  0  0  0  0  0  0  0  0  0
   44.5888   37.4311   43.2350 H   0  0  0  0  0  0  0  0  0  0  0  0
   44.9199   36.3468   45.6155 H   0  0  0  0  0  0  0  0  0  0  0  0
   43.3631   36.2181   44.7286 H   0  0  0  0  0  0  0  0  0  0  0  0
   44.5134   34.8385   44.7286 H   0  0  0  0  0  0  0  0  0  0  0  0
  1 17  1  0
  1  2  1  0
  2  7  1  0
  3  2  2  0
  3  4  1  0
  4  5  2  0
  5  6  1  0
  6  8  1  0
  7  6  2  0
  8 14  1  0
  8  9  1  0
  9 10  2  0
 10 11  1  0
 11 12  2  0
 13 11  1  0
 14 13  1  0
 15 14  2  0
 16  1  1  0
 18 23  1  0
 18 17  1  0
 19 18  2  0
 20 21  2  0
 20 19  1  0
 21 22  1  0
 22 23  2  0
 23 24  1  0
 24 25  1  0
  1 26  1  6
  3 27  1  0
  4 28  1  0
  9 29  1  0
 10 30  1  0
 13 31  1  0
 16 32  1  0
 16 33  1  0
 16 34  1  0
 17 35  1  0
 17 36  1  0
 19 37  1  0
 20 38  1  0
 21 39  1  0
 22 40  1  0
 24 41  1  0
 24 42  1  0
 25 43  1  0
 25 44  1  0
 25 45  1  0
M  ISO  8  26   8  27  14  28  14  29  14  30  14  31   9  32   8  33   8
M  ISO  8  34   8  35   8  36   8  37  14  38  14  39  14  40  14  41   8
M  ISO  4  42   8  43   8  44   8  45   8
M  END
>  <minimizedAffinity>  (1) 
-6.42591524

>  <minimizedRMSD>  (1) 
1.14308739

$$$$
