
     RDKit          3D

 42 44  0  0  1  0  0  0  0  0999 V2000
   48.2030   33.9110   42.4580 C   0  0  2  0  0  0  0  0  0  0  0  0
   47.9820   32.6900   43.2510 C   0  0  0  0  0  0  0  0  0  0  0  0
   48.4330   31.5090   42.6470 C   0  0  0  0  0  0  0  0  0  0  0  0
   48.2460   30.2970   43.3500 C   0  0  0  0  0  0  0  0  0  0  0  0
   47.6460   30.3460   44.5620 N   0  0  0  0  0  0  0  0  0  0  0  0
   47.2240   31.5360   45.1020 C   0  0  0  0  0  0  0  0  0  0  0  0
   47.3970   32.6850   44.4440 N   0  0  0  0  0  0  0  0  0  0  0  0
   46.6020   31.6120   46.3950 N   0  0  0  0  0  0  0  0  0  0  0  0
   46.6860   30.5310   47.1600 C   0  0  0  0  0  0  0  0  0  0  0  0
   46.1490   30.4640   48.4280 C   0  0  0  0  0  0  0  0  0  0  0  0
   45.4960   31.5730   48.9220 C   0  0  0  0  0  0  0  0  0  0  0  0
   44.9660   31.6430   50.0600 O   0  0  0  0  0  0  0  0  0  0  0  0
   45.4160   32.6760   48.1230 N   0  0  0  0  0  0  0  0  0  0  0  0
   45.9580   32.6800   46.8990 C   0  0  0  0  0  0  0  0  0  0  0  0
   45.8920   33.6840   46.1650 O   0  0  0  0  0  0  0  0  0  0  0  0
   49.6510   34.2680   42.2720 C   0  0  0  0  0  0  0  0  0  0  0  0
   47.3490   35.0710   42.8160 C   0  0  0  0  0  0  0  0  0  0  0  0
   46.0400   35.0220   42.1800 C   0  0  0  0  0  0  0  0  0  0  0  0
   46.1190   34.1810   41.0340 C   0  0  0  0  0  0  0  0  0  0  0  0
   45.0310   33.8960   40.2820 C   0  0  0  0  0  0  0  0  0  0  0  0
   43.7650   34.4110   40.5620 C   0  0  0  0  0  0  0  0  0  0  0  0
   43.6580   35.2260   41.6440 C   0  0  0  0  0  0  0  0  0  0  0  0
   44.7780   35.4930   42.3950 C   0  0  0  0  0  0  0  0  0  0  0  0
   44.7860   36.3580   43.5770 C   0  0  0  0  0  0  0  0  0  0  0  0
   44.5790   36.0900   44.7530 O   0  0  0  0  0  0  0  0  0  0  0  0
   45.0620   37.7060   43.4460 O   0  0  0  0  0  0  0  0  0  0  0  0
   47.8410   33.6221   41.4603 H   0  0  0  0  0  0  0  0  0  0  0  0
   48.9163   31.5244   41.6590 H   0  0  0  0  0  0  0  0  0  0  0  0
   48.5793   29.3395   42.9233 H   0  0  0  0  0  0  0  0  0  0  0  0
   47.2082   29.6475   46.7641 H   0  0  0  0  0  0  0  0  0  0  0  0
   46.2394   29.5482   49.0306 H   0  0  0  0  0  0  0  0  0  0  0  0
   44.9317   33.5176   48.4665 H   0  0  0  0  0  0  0  0  0  0  0  0
   50.1289   34.3858   43.2557 H   0  0  0  0  0  0  0  0  0  0  0  0
   50.1570   33.4677   41.7121 H   0  0  0  0  0  0  0  0  0  0  0  0
   49.7270   35.2118   41.7121 H   0  0  0  0  0  0  0  0  0  0  0  0
   47.2100   35.0823   43.9071 H   0  0  0  0  0  0  0  0  0  0  0  0
   47.8571   35.9799   42.4614 H   0  0  0  0  0  0  0  0  0  0  0  0
   47.0915   33.7510   40.7522 H   0  0  0  0  0  0  0  0  0  0  0  0
   45.1495   33.2308   39.4140 H   0  0  0  0  0  0  0  0  0  0  0  0
   42.8937   34.1685   39.9358 H   0  0  0  0  0  0  0  0  0  0  0  0
   42.6874   35.6666   41.9155 H   0  0  0  0  0  0  0  0  0  0  0  0
   45.0673   38.2902   44.2453 H   0  0  0  0  0  0  0  0  0  0  0  0
  1 17  1  0
  1  2  1  0
  2  7  1  0
  3  2  2  0
  3  4  1  0
  4  5  2  0
  5  6  1  0
  6  8  1  0
  7  6  2  0
  8 14  1  0
  8  9  1  0
  9 10  2  0
 10 11  1  0
 11 12  2  0
 13 11  1  0
 14 13  1  0
 15 14  2  0
 16  1  1  0
 18 23  1  0
 18 17  1  0
 19 18  2  0
 20 21  2  0
 20 19  1  0
 21 22  1  0
 22 23  2  0
 23 24  1  0
 24 25  2  0
 26 24  1  0
  1 27  1  6
  3 28  1  0
  4 29  1  0
  9 30  1  0
 10 31  1  0
 13 32  1  0
 16 33  1  0
 16 34  1  0
 16 35  1  0
 17 36  1  0
 17 37  1  0
 19 38  1  0
 20 39  1  0
 21 40  1  0
 22 41  1  0
 26 42  1  0
M  ISO  8  27   8  28  14  29  14  30  14  31  14  32   9  33   8  34   8
M  ISO  8  35   8  36   8  37   8  38  14  39  14  40  14  41  14  42   3
M  END
>  <minimizedAffinity>  (1) 
-6.92641973

>  <minimizedRMSD>  (1) 
1.11493134

$$$$
