
     RDKit          3D

 15 16  0  0  0  0  0  0  0  0999 V2000
   44.4810   35.9920   44.7290 C   0  0  0  0  0  0  0  0  0  0  0  0
   45.1240   35.9720   43.4800 C   0  0  0  0  0  0  0  0  0  0  0  0
   46.0080   34.9220   43.2290 C   0  0  0  0  0  0  0  0  0  0  0  0
   46.2090   33.9700   44.1920 N   0  0  0  0  0  0  0  0  0  0  0  0
   45.5640   34.0300   45.3880 C   0  0  0  0  0  0  0  0  0  0  0  0
   44.7040   35.0430   45.6440 N   0  0  0  0  0  0  0  0  0  0  0  0
   46.7390   34.7840   41.9750 C   0  0  0  0  0  0  0  0  0  0  0  0
   46.5100   34.2530   40.7620 N   0  0  0  0  0  0  0  0  0  0  0  0
   47.5510   34.4210   40.0010 O   0  0  0  0  0  0  0  0  0  0  0  0
   48.4650   35.0570   40.6960 C   0  0  0  0  0  0  0  0  0  0  0  0
   47.9870   35.3010   41.9450 N   0  0  0  0  0  0  0  0  0  0  0  0
   43.7785   36.8065   44.9592 H   0  0  0  0  0  0  0  0  0  0  0  0
   44.9377   36.7539   42.7290 H   0  0  0  0  0  0  0  0  0  0  0  0
   45.7416   33.2545   46.1477 H   0  0  0  0  0  0  0  0  0  0  0  0
   49.4598   35.3466   40.3265 H   0  0  0  0  0  0  0  0  0  0  0  0
  1  6  2  0
  2  1  1  0
  3  2  2  0
  3  4  1  0
  4  5  2  0
  5  6  1  0
  7  3  1  0
  8  7  2  0
  9 10  1  0
  9  8  1  0
 10 11  2  0
 11  7  1  0
  1 12  1  0
  2 13  1  0
  5 14  1  0
 10 15  1  0
M  ISO  4  12  14  13  14  14  14  15  14
M  END
>  <minimizedAffinity>  (1) 
-4.07988644

>  <minimizedRMSD>  (1) 
1.09898448

$$$$
