
     RDKit          3D

 40 42  0  0  1  0  0  0  0  0999 V2000
   48.1050   33.9730   42.4120 C   0  0  2  0  0  0  0  0  0  0  0  0
   47.9620   32.7540   43.2270 C   0  0  0  0  0  0  0  0  0  0  0  0
   48.4790   31.5920   42.6390 C   0  0  0  0  0  0  0  0  0  0  0  0
   48.3660   30.3900   43.3720 C   0  0  0  0  0  0  0  0  0  0  0  0
   47.7730   30.4300   44.5860 N   0  0  0  0  0  0  0  0  0  0  0  0
   47.2840   31.6080   45.1070 C   0  0  0  0  0  0  0  0  0  0  0  0
   47.3830   32.7490   44.4260 N   0  0  0  0  0  0  0  0  0  0  0  0
   46.6750   31.6720   46.4020 N   0  0  0  0  0  0  0  0  0  0  0  0
   46.8270   30.6030   47.1950 C   0  0  0  0  0  0  0  0  0  0  0  0
   46.2900   30.5320   48.4580 C   0  0  0  0  0  0  0  0  0  0  0  0
   45.5670   31.6080   48.9240 C   0  0  0  0  0  0  0  0  0  0  0  0
   45.0190   31.6800   50.0630 O   0  0  0  0  0  0  0  0  0  0  0  0
   45.4200   32.6870   48.1110 N   0  0  0  0  0  0  0  0  0  0  0  0
   45.9650   32.7060   46.8850 C   0  0  0  0  0  0  0  0  0  0  0  0
   45.8380   33.6890   46.1340 O   0  0  0  0  0  0  0  0  0  0  0  0
   49.5350   34.3970   42.1970 C   0  0  0  0  0  0  0  0  0  0  0  0
   47.2140   35.1000   42.7610 C   0  0  0  0  0  0  0  0  0  0  0  0
   45.8810   34.9630   42.1940 C   0  0  0  0  0  0  0  0  0  0  0  0
   45.9890   34.2640   40.9510 C   0  0  0  0  0  0  0  0  0  0  0  0
   44.8950   33.9390   40.2240 C   0  0  0  0  0  0  0  0  0  0  0  0
   43.6010   34.2630   40.6160 C   0  0  0  0  0  0  0  0  0  0  0  0
   43.4600   34.9350   41.7850 C   0  0  0  0  0  0  0  0  0  0  0  0
   44.5800   35.2520   42.5180 C   0  0  0  0  0  0  0  0  0  0  0  0
   44.6130   36.1380   44.1030 S   0  0  0  0  0  0  0  0  0  0  0  0
   47.7273   33.6453   41.4322 H   0  0  0  0  0  0  0  0  0  0  0  0
   48.9536   31.6150   41.6469 H   0  0  0  0  0  0  0  0  0  0  0  0
   48.7514   29.4437   42.9646 H   0  0  0  0  0  0  0  0  0  0  0  0
   47.4058   29.7463   46.8195 H   0  0  0  0  0  0  0  0  0  0  0  0
   46.4340   29.6375   49.0818 H   0  0  0  0  0  0  0  0  0  0  0  0
   44.8827   33.5016   48.4405 H   0  0  0  0  0  0  0  0  0  0  0  0
   50.0248   34.5422   43.1712 H   0  0  0  0  0  0  0  0  0  0  0  0
   50.0673   33.6180   41.6314 H   0  0  0  0  0  0  0  0  0  0  0  0
   49.5567   35.3402   41.6314 H   0  0  0  0  0  0  0  0  0  0  0  0
   47.1261   35.1521   43.8562 H   0  0  0  0  0  0  0  0  0  0  0  0
   47.6588   36.0149   42.3426 H   0  0  0  0  0  0  0  0  0  0  0  0
   46.9849   33.9840   40.5771 H   0  0  0  0  0  0  0  0  0  0  0  0
   45.0359   33.3933   39.2793 H   0  0  0  0  0  0  0  0  0  0  0  0
   42.7297   33.9862   40.0043 H   0  0  0  0  0  0  0  0  0  0  0  0
   42.4609   35.2236   42.1434 H   0  0  0  0  0  0  0  0  0  0  0  0
   44.5793   35.2343   45.1321 H   0  0  0  0  0  0  0  0  0  0  0  0
  1 17  1  0
  1  2  1  0
  2  7  1  0
  3  2  2  0
  3  4  1  0
  4  5  2  0
  5  6  1  0
  6  8  1  0
  7  6  2  0
  8 14  1  0
  8  9  1  0
  9 10  2  0
 10 11  1  0
 11 12  2  0
 13 11  1  0
 14 13  1  0
 15 14  2  0
 16  1  1  0
 18 23  1  0
 18 17  1  0
 19 18  2  0
 20 21  2  0
 20 19  1  0
 21 22  1  0
 22 23  2  0
 23 24  1  0
  1 25  1  6
  3 26  1  0
  4 27  1  0
  9 28  1  0
 10 29  1  0
 13 30  1  0
 16 31  1  0
 16 32  1  0
 16 33  1  0
 17 34  1  0
 17 35  1  0
 19 36  1  0
 20 37  1  0
 21 38  1  0
 22 39  1  0
 24 40  1  0
M  ISO  8  25   8  26  14  27  14  28  14  29  14  30   9  31   8  32   8
M  ISO  8  33   8  34   8  35   8  36  14  37  14  38  14  39  14  40  11
M  END
>  <minimizedAffinity>  (1) 
-6.19118452

>  <minimizedRMSD>  (1) 
0.955798805

$$$$
