
     RDKit          3D

 52 55  0  0  1  0  0  0  0  0999 V2000
   47.3020   34.1340   41.6780 C   0  0  2  0  0  0  0  0  0  0  0  0
   47.5430   33.0320   42.6210 C   0  0  0  0  0  0  0  0  0  0  0  0
   48.2980   31.9780   42.0930 C   0  0  0  0  0  0  0  0  0  0  0  0
   48.5610   30.8860   42.9480 C   0  0  0  0  0  0  0  0  0  0  0  0
   48.0770   30.9220   44.2070 N   0  0  0  0  0  0  0  0  0  0  0  0
   47.3410   31.9910   44.6640 C   0  0  0  0  0  0  0  0  0  0  0  0
   47.0810   33.0310   43.8700 N   0  0  0  0  0  0  0  0  0  0  0  0
   46.8420   32.0450   45.9990 N   0  0  0  0  0  0  0  0  0  0  0  0
   47.3230   31.1460   46.8680 C   0  0  0  0  0  0  0  0  0  0  0  0
   46.9170   31.0930   48.1860 C   0  0  0  0  0  0  0  0  0  0  0  0
   45.9780   32.0040   48.6210 C   0  0  0  0  0  0  0  0  0  0  0  0
   45.5160   32.0690   49.7980 O   0  0  0  0  0  0  0  0  0  0  0  0
   45.5130   32.8930   47.7340 N   0  0  0  0  0  0  0  0  0  0  0  0
   45.9270   32.9220   46.4570 C   0  0  0  0  0  0  0  0  0  0  0  0
   45.4890   33.7560   45.6360 O   0  0  0  0  0  0  0  0  0  0  0  0
   48.2430   35.3020   41.8470 C   0  0  0  0  0  0  0  0  0  0  0  0
   45.8950   34.5770   41.5310 C   0  0  0  0  0  0  0  0  0  0  0  0
   45.2630   34.0880   40.3190 C   0  0  0  0  0  0  0  0  0  0  0  0
   46.2790   33.4740   39.5200 C   0  0  0  0  0  0  0  0  0  0  0  0
   45.9980   32.8660   38.3360 C   0  0  0  0  0  0  0  0  0  0  0  0
   44.7010   32.8110   37.8220 C   0  0  0  0  0  0  0  0  0  0  0  0
   43.7220   33.3960   38.5570 C   0  0  0  0  0  0  0  0  0  0  0  0
   44.0150   33.9870   39.7240 C   0  0  0  0  0  0  0  0  0  0  0  0
   43.1130   34.6930   40.7170 C   0  0  0  0  0  0  0  0  0  0  0  0
   41.8890   35.2900   40.1510 C   0  0  0  0  0  0  0  0  0  0  0  0
   41.2890   34.0820   39.4630 C   0  0  0  0  0  0  0  0  0  0  0  0
   41.3120   33.1440   40.6880 C   0  0  0  0  0  0  0  0  0  0  0  0
   42.4520   33.5940   41.5070 C   0  0  0  0  0  0  0  0  0  0  0  0
   47.5401   33.6584   40.7152 H   0  0  0  0  0  0  0  0  0  0  0  0
   48.6698   31.9998   41.0580 H   0  0  0  0  0  0  0  0  0  0  0  0
   49.1476   30.0247   42.5957 H   0  0  0  0  0  0  0  0  0  0  0  0
   48.0718   30.4208   46.5169 H   0  0  0  0  0  0  0  0  0  0  0  0
   47.3328   30.3415   48.8733 H   0  0  0  0  0  0  0  0  0  0  0  0
   44.8112   33.5806   48.0431 H   0  0  0  0  0  0  0  0  0  0  0  0
   48.3987   35.4953   42.9186 H   0  0  0  0  0  0  0  0  0  0  0  0
   49.2074   35.0675   41.3728 H   0  0  0  0  0  0  0  0  0  0  0  0
   47.8086   36.1944   41.3728 H   0  0  0  0  0  0  0  0  0  0  0  0
   45.3217   34.2115   42.3957 H   0  0  0  0  0  0  0  0  0  0  0  0
   45.9034   35.6755   41.4738 H   0  0  0  0  0  0  0  0  0  0  0  0
   47.3201   33.4943   39.8744 H   0  0  0  0  0  0  0  0  0  0  0  0
   46.8175   32.4036   37.7662 H   0  0  0  0  0  0  0  0  0  0  0  0
   44.4827   32.3157   36.8644 H   0  0  0  0  0  0  0  0  0  0  0  0
   42.6837   33.3853   38.1938 H   0  0  0  0  0  0  0  0  0  0  0  0
   43.7524   35.4432   41.2051 H   0  0  0  0  0  0  0  0  0  0  0  0
   41.2263   35.6810   40.9371 H   0  0  0  0  0  0  0  0  0  0  0  0
   42.0613   36.1549   39.4935 H   0  0  0  0  0  0  0  0  0  0  0  0
   40.2696   34.2696   39.0946 H   0  0  0  0  0  0  0  0  0  0  0  0
   41.8003   33.7245   38.5571 H   0  0  0  0  0  0  0  0  0  0  0  0
   40.3735   33.2295   41.2554 H   0  0  0  0  0  0  0  0  0  0  0  0
   41.4128   32.0892   40.3926 H   0  0  0  0  0  0  0  0  0  0  0  0
   43.1555   32.7649   41.6735 H   0  0  0  0  0  0  0  0  0  0  0  0
   42.1267   33.9452   42.4974 H   0  0  0  0  0  0  0  0  0  0  0  0
  1 16  1  0
  1  2  1  0
  2  7  1  0
  3  2  2  0
  3  4  1  0
  4  5  2  0
  5  6  1  0
  6  8  1  0
  7  6  2  0
  8 14  1  0
  8  9  1  0
  9 10  2  0
 10 11  1  0
 11 12  2  0
 13 11  1  0
 14 13  1  0
 15 14  2  0
 17  1  1  0
 18 17  1  0
 19 18  2  0
 20 19  1  0
 21 20  2  0
 21 22  1  0
 22 23  2  0
 23 18  1  0
 23 24  1  0
 24 28  1  0
 25 24  1  0
 26 25  1  0
 26 27  1  0
 27 28  1  0
  1 29  1  6
  3 30  1  0
  4 31  1  0
  9 32  1  0
 10 33  1  0
 13 34  1  0
 16 35  1  0
 16 36  1  0
 16 37  1  0
 17 38  1  0
 17 39  1  0
 19 40  1  0
 20 41  1  0
 21 42  1  0
 22 43  1  0
 24 44  1  0
 25 45  1  0
 25 46  1  0
 26 47  1  0
 26 48  1  0
 27 49  1  0
 27 50  1  0
 28 51  1  0
 28 52  1  0
M  ISO  8  29   8  30  14  31  14  32  14  33  14  34   9  35   8  36   8
M  ISO  8  37   8  38   8  39   8  40  14  41  14  42  14  43  14  44  13
M  ISO  8  45  13  46  13  47  13  48  13  49  13  50  13  51  13  52  13
M  END
>  <minimizedAffinity>  (1) 
-6.18757534

>  <minimizedRMSD>  (1) 
2.44534898

$$$$
