
     RDKit          3D

 29 32  0  0  1  0  0  0  0  0999 V2000
   45.8110   34.2110   41.6670 N   0  0  0  0  0  0  0  0  0  0  0  0
   45.0430   33.8920   40.5920 C   0  0  0  0  0  0  0  0  0  0  0  0
   45.8420   33.7190   39.5290 N   0  0  0  0  0  0  0  0  0  0  0  0
   47.0960   33.9250   39.9230 C   0  0  0  0  0  0  0  0  0  0  0  0
   47.0460   34.2220   41.2240 N   0  0  0  0  0  0  0  0  0  0  0  0
   44.8470   35.7490   43.2650 C   0  0  0  0  0  0  0  0  0  0  0  0
   45.4680   34.4930   43.0140 C   0  0  0  0  0  0  0  0  0  0  0  0
   45.6880   33.6490   44.0790 C   0  0  0  0  0  0  0  0  0  0  0  0
   45.2960   34.0670   45.3160 N   0  0  0  0  0  0  0  0  0  0  0  0
   44.7160   35.2490   45.5240 C   0  0  0  0  0  0  0  0  0  0  0  0
   44.4920   36.0900   44.4970 N   0  0  0  0  0  0  0  0  0  0  0  0
   48.3390   33.8680   39.1340 C   0  0  2  0  0  0  0  0  0  0  0  0
   48.3340   34.5210   37.7380 C   0  0  0  0  0  0  0  0  0  0  0  0
   48.4630   33.0170   37.9060 C   0  0  2  0  0  0  0  0  0  0  0  0
   47.2930   32.1700   37.5410 C   0  0  0  0  0  0  0  0  0  0  0  0
   47.1370   30.9280   38.0640 C   0  0  0  0  0  0  0  0  0  0  0  0
   45.5230   30.3440   37.2580 S   0  0  0  0  0  0  0  0  0  0  0  0
   45.4040   31.9580   36.3580 C   0  0  0  0  0  0  0  0  0  0  0  0
   46.3230   32.4910   36.7160 N   0  0  0  0  0  0  0  0  0  0  0  0
   43.9475   33.7923   40.5936 H   0  0  0  0  0  0  0  0  0  0  0  0
   44.6601   36.4419   42.4314 H   0  0  0  0  0  0  0  0  0  0  0  0
   46.1651   32.6682   43.9364 H   0  0  0  0  0  0  0  0  0  0  0  0
   44.4182   35.5394   46.5423 H   0  0  0  0  0  0  0  0  0  0  0  0
   48.9320   33.9497   40.0569 H   0  0  0  0  0  0  0  0  0  0  0  0
   49.1957   35.1165   37.4022 H   0  0  0  0  0  0  0  0  0  0  0  0
   47.6606   35.1952   37.1885 H   0  0  0  0  0  0  0  0  0  0  0  0
   49.1861   32.2663   37.5543 H   0  0  0  0  0  0  0  0  0  0  0  0
   47.7837   30.3943   38.7760 H   0  0  0  0  0  0  0  0  0  0  0  0
   44.6321   32.3039   35.6548 H   0  0  0  0  0  0  0  0  0  0  0  0
  1  7  1  0
  2  1  1  0
  3  4  1  0
  3  2  2  0
  4  5  2  0
  5  1  1  0
  6 11  2  0
  7  6  1  0
  7  8  2  0
  8  9  1  0
  9 10  2  0
 11 10  1  0
 12  4  1  0
 13 14  1  0
 13 12  1  0
 14 12  1  0
 15 14  1  0
 15 16  2  0
 17 16  1  0
 18 19  2  0
 18 17  1  0
 19 15  1  0
  2 20  1  0
  6 21  1  0
  8 22  1  0
 10 23  1  0
 12 24  1  1
 13 25  1  0
 13 26  1  0
 14 27  1  1
 16 28  1  0
 18 29  1  0
M  ISO  8  20  14  21  14  22  14  23  14  24  13  25  13  26  13  27  13
M  ISO  2  28  14  29  14
M  END
>  <minimizedAffinity>  (1) 
-4.34034252

>  <minimizedRMSD>  (1) 
0.602845967

$$$$
