
     RDKit          3D

 25 26  0  0  0  0  0  0  0  0999 V2000
   44.6070   36.0790   44.3140 C   0  0  0  0  0  0  0  0  0  0  0  0
   45.4980   35.7170   43.2870 C   0  0  0  0  0  0  0  0  0  0  0  0
   46.3040   34.5970   43.4750 C   0  0  0  0  0  0  0  0  0  0  0  0
   46.1930   33.9100   44.6300 N   0  0  0  0  0  0  0  0  0  0  0  0
   45.3330   34.2730   45.6020 C   0  0  0  0  0  0  0  0  0  0  0  0
   44.5380   35.3550   45.4510 N   0  0  0  0  0  0  0  0  0  0  0  0
   45.2740   33.5180   46.7660 N   0  0  0  0  0  0  0  0  0  0  0  0
   47.2050   34.2300   42.4350 N   0  0  0  0  0  0  0  0  0  0  0  0
   48.5230   33.8070   42.8190 C   0  0  0  0  0  0  0  0  0  0  0  0
   49.3900   33.3740   41.6950 C   0  0  0  0  0  0  0  0  0  0  0  0
   48.8400   33.3630   40.4490 O   0  0  0  0  0  0  0  0  0  0  0  0
   47.9750   34.3690   40.1300 C   0  0  0  0  0  0  0  0  0  0  0  0
   46.7790   34.2950   41.0500 C   0  0  0  0  0  0  0  0  0  0  0  0
   43.9606   36.9603   44.1891 H   0  0  0  0  0  0  0  0  0  0  0  0
   45.5565   36.3041   42.3586 H   0  0  0  0  0  0  0  0  0  0  0  0
   44.6221   33.7819   47.5185 H   0  0  0  0  0  0  0  0  0  0  0  0
   45.8821   32.6941   46.8768 H   0  0  0  0  0  0  0  0  0  0  0  0
   49.0173   34.6474   43.3283 H   0  0  0  0  0  0  0  0  0  0  0  0
   48.3897   32.9262   43.4643 H   0  0  0  0  0  0  0  0  0  0  0  0
   50.2571   34.0503   41.6673 H   0  0  0  0  0  0  0  0  0  0  0  0
   49.6242   32.3208   41.9091 H   0  0  0  0  0  0  0  0  0  0  0  0
   48.4764   35.3403   40.2533 H   0  0  0  0  0  0  0  0  0  0  0  0
   47.6488   34.2631   39.0848 H   0  0  0  0  0  0  0  0  0  0  0  0
   46.1552   35.1894   40.9050 H   0  0  0  0  0  0  0  0  0  0  0  0
   46.2038   33.3880   40.8124 H   0  0  0  0  0  0  0  0  0  0  0  0
  1  6  2  0
  2  3  2  0
  2  1  1  0
  3  4  1  0
  4  5  2  0
  5  7  1  0
  6  5  1  0
  8  9  1  0
  8  3  1  0
 10  9  1  0
 11 10  1  0
 12 11  1  0
 12 13  1  0
 13  8  1  0
  1 14  1  0
  2 15  1  0
  7 16  1  0
  7 17  1  0
  9 18  1  0
  9 19  1  0
 10 20  1  0
 10 21  1  0
 12 22  1  0
 12 23  1  0
 13 24  1  0
 13 25  1  0
M  ISO  8  14  14  15  14  18  13  19  13  20  13  21  13  22  13  23  13
M  ISO  2  24  13  25  13
M  END
>  <minimizedAffinity>  (1) 
-4.69312048

>  <minimizedRMSD>  (1) 
0.483805269

$$$$
