
     RDKit          3D

 25 26  0  0  0  0  0  0  0  0999 V2000
   44.5610   36.0760   44.4250 C   0  0  0  0  0  0  0  0  0  0  0  0
   45.4080   35.7530   43.3440 C   0  0  0  0  0  0  0  0  0  0  0  0
   46.2420   34.6210   43.4400 C   0  0  0  0  0  0  0  0  0  0  0  0
   46.1710   33.9040   44.5890 N   0  0  0  0  0  0  0  0  0  0  0  0
   45.3600   34.2310   45.5980 C   0  0  0  0  0  0  0  0  0  0  0  0
   44.5450   35.3050   45.5500 N   0  0  0  0  0  0  0  0  0  0  0  0
   45.3490   33.4350   46.7510 N   0  0  0  0  0  0  0  0  0  0  0  0
   47.1120   34.2810   42.3410 C   0  0  0  0  0  0  0  0  0  0  0  0
   48.3650   35.0280   42.1460 C   0  0  0  0  0  0  0  0  0  0  0  0
   48.5300   35.1790   40.6360 C   0  0  0  0  0  0  0  0  0  0  0  0
   47.5400   34.1650   40.0570 C   0  0  0  0  0  0  0  0  0  0  0  0
   46.3570   34.3920   41.0080 C   0  0  0  0  0  0  0  0  0  0  0  0
   43.9072   36.9582   44.3599 H   0  0  0  0  0  0  0  0  0  0  0  0
   45.4173   36.3766   42.4379 H   0  0  0  0  0  0  0  0  0  0  0  0
   44.7283   33.6756   47.5370 H   0  0  0  0  0  0  0  0  0  0  0  0
   45.9616   32.6093   46.8126 H   0  0  0  0  0  0  0  0  0  0  0  0
   47.4149   33.2660   42.6377 H   0  0  0  0  0  0  0  0  0  0  0  0
   48.3000   36.0162   42.6247 H   0  0  0  0  0  0  0  0  0  0  0  0
   49.2217   34.5051   42.5961 H   0  0  0  0  0  0  0  0  0  0  0  0
   48.2779   36.2003   40.3145 H   0  0  0  0  0  0  0  0  0  0  0  0
   49.5631   35.0035   40.3014 H   0  0  0  0  0  0  0  0  0  0  0  0
   47.2782   34.3970   39.0141 H   0  0  0  0  0  0  0  0  0  0  0  0
   47.9073   33.1294   40.0065 H   0  0  0  0  0  0  0  0  0  0  0  0
   45.9000   35.3833   40.8718 H   0  0  0  0  0  0  0  0  0  0  0  0
   45.5053   33.7072   40.8829 H   0  0  0  0  0  0  0  0  0  0  0  0
  1  6  2  0
  2  3  2  0
  2  1  1  0
  3  4  1  0
  4  5  2  0
  5  7  1  0
  6  5  1  0
  8  3  1  0
  9  8  1  0
 10  9  1  0
 11 10  1  0
 11 12  1  0
 12  8  1  0
  1 13  1  0
  2 14  1  0
  7 15  1  0
  7 16  1  0
  8 17  1  0
  9 18  1  0
  9 19  1  0
 10 20  1  0
 10 21  1  0
 11 22  1  0
 11 23  1  0
 12 24  1  0
 12 25  1  0
M  ISO  8  13  14  14  14  17  13  18  13  19  13  20  13  21  13  22  13
M  ISO  3  23  13  24  13  25  13
M  END
>  <minimizedAffinity>  (1) 
-5.16945219

>  <minimizedRMSD>  (1) 
0.527145922

$$$$
