
     RDKit          3D

 22 23  0  0  0  0  0  0  0  0999 V2000
   44.4020   35.9960   44.7780 C   0  0  0  0  0  0  0  0  0  0  0  0
   45.0400   35.9160   43.5240 C   0  0  0  0  0  0  0  0  0  0  0  0
   45.9680   34.8970   43.3250 C   0  0  0  0  0  0  0  0  0  0  0  0
   46.2240   34.0290   44.3270 N   0  0  0  0  0  0  0  0  0  0  0  0
   45.5900   34.1370   45.5180 C   0  0  0  0  0  0  0  0  0  0  0  0
   44.6820   35.1090   45.7570 N   0  0  0  0  0  0  0  0  0  0  0  0
   45.8880   33.2190   46.5170 N   0  0  0  0  0  0  0  0  0  0  0  0
   46.6760   34.7240   42.0890 C   0  0  0  0  0  0  0  0  0  0  0  0
   47.8970   35.3430   41.9240 C   0  0  0  0  0  0  0  0  0  0  0  0
   48.6780   35.2580   40.7840 C   0  0  0  0  0  0  0  0  0  0  0  0
   48.1910   34.4910   39.7300 C   0  0  0  0  0  0  0  0  0  0  0  0
   46.9630   33.8430   39.8400 C   0  0  0  0  0  0  0  0  0  0  0  0
   46.2310   33.9750   41.0200 C   0  0  0  0  0  0  0  0  0  0  0  0
   43.6656   36.7921   44.9619 H   0  0  0  0  0  0  0  0  0  0  0  0
   44.8116   36.6374   42.7257 H   0  0  0  0  0  0  0  0  0  0  0  0
   45.4177   33.2820   47.4312 H   0  0  0  0  0  0  0  0  0  0  0  0
   46.5792   32.4753   46.3435 H   0  0  0  0  0  0  0  0  0  0  0  0
   48.2785   35.9487   42.7592 H   0  0  0  0  0  0  0  0  0  0  0  0
   49.6456   35.7765   40.7142 H   0  0  0  0  0  0  0  0  0  0  0  0
   48.7789   34.3960   38.8052 H   0  0  0  0  0  0  0  0  0  0  0  0
   46.5760   33.2359   39.0083 H   0  0  0  0  0  0  0  0  0  0  0  0
   45.2614   33.4619   41.1010 H   0  0  0  0  0  0  0  0  0  0  0  0
  1  6  2  0
  2  1  1  0
  3  2  2  0
  3  4  1  0
  4  5  2  0
  5  6  1  0
  5  7  1  0
  8  3  1  0
  9  8  2  0
 10  9  1  0
 11 12  1  0
 11 10  2  0
 12 13  2  0
 13  8  1  0
  1 14  1  0
  2 15  1  0
  7 16  1  0
  7 17  1  0
  9 18  1  0
 10 19  1  0
 11 20  1  0
 12 21  1  0
 13 22  1  0
M  ISO  7  14  14  15  14  18  14  19  14  20  14  21  14  22  14
M  END
>  <minimizedAffinity>  (1) 
-5.36422539

>  <minimizedRMSD>  (1) 
1.30595422

$$$$
