
     RDKit          3D

 21 22  0  0  0  0  0  0  0  0999 V2000
   44.3910   36.1830   44.7910 C   0  0  0  0  0  0  0  0  0  0  0  0
   45.0580   36.0850   43.5590 C   0  0  0  0  0  0  0  0  0  0  0  0
   45.9110   35.0070   43.3340 C   0  0  0  0  0  0  0  0  0  0  0  0
   46.0500   34.1070   44.3280 N   0  0  0  0  0  0  0  0  0  0  0  0
   45.4010   34.2240   45.4970 C   0  0  0  0  0  0  0  0  0  0  0  0
   44.5690   35.2460   45.7570 N   0  0  0  0  0  0  0  0  0  0  0  0
   45.6050   33.2420   46.4740 N   0  0  0  0  0  0  0  0  0  0  0  0
   46.6560   34.7850   42.1130 C   0  0  0  0  0  0  0  0  0  0  0  0
   47.8990   35.3270   41.8620 C   0  0  0  0  0  0  0  0  0  0  0  0
   48.6390   35.1410   40.7180 C   0  0  0  0  0  0  0  0  0  0  0  0
   48.1190   34.3510   39.7230 C   0  0  0  0  0  0  0  0  0  0  0  0
   46.8790   33.8110   39.9750 C   0  0  0  0  0  0  0  0  0  0  0  0
   46.1890   34.0190   41.1100 N   0  0  0  0  0  0  0  0  0  0  0  0
   43.7149   37.0308   44.9758 H   0  0  0  0  0  0  0  0  0  0  0  0
   44.9088   36.8493   42.7821 H   0  0  0  0  0  0  0  0  0  0  0  0
   45.1192   33.3080   47.3798 H   0  0  0  0  0  0  0  0  0  0  0  0
   46.2409   32.4536   46.2869 H   0  0  0  0  0  0  0  0  0  0  0  0
   48.3366   35.9636   42.6451 H   0  0  0  0  0  0  0  0  0  0  0  0
   49.6252   35.6145   40.6028 H   0  0  0  0  0  0  0  0  0  0  0  0
   48.6595   34.1617   38.7838 H   0  0  0  0  0  0  0  0  0  0  0  0
   46.4257   33.1719   39.2030 H   0  0  0  0  0  0  0  0  0  0  0  0
  1  6  2  0
  2  1  1  0
  3  2  2  0
  3  4  1  0
  4  5  2  0
  5  6  1  0
  5  7  1  0
  8  3  1  0
  9  8  2  0
 10  9  1  0
 11 12  1  0
 11 10  2  0
 12 13  2  0
 13  8  1  0
  1 14  1  0
  2 15  1  0
  7 16  1  0
  7 17  1  0
  9 18  1  0
 10 19  1  0
 11 20  1  0
 12 21  1  0
M  ISO  6  14  14  15  14  18  14  19  14  20  14  21  14
M  END
>  <minimizedAffinity>  (1) 
-5.13328981

>  <minimizedRMSD>  (1) 
1.35929263

$$$$
