
     RDKit          3D

 26 27  0  0  0  0  0  0  0  0999 V2000
   44.5670   36.0350   44.4430 C   0  0  0  0  0  0  0  0  0  0  0  0
   45.4190   35.6790   43.3880 C   0  0  0  0  0  0  0  0  0  0  0  0
   46.2350   34.5540   43.5280 C   0  0  0  0  0  0  0  0  0  0  0  0
   46.1500   33.8670   44.6930 N   0  0  0  0  0  0  0  0  0  0  0  0
   45.3280   34.2300   45.6820 C   0  0  0  0  0  0  0  0  0  0  0  0
   44.5280   35.3110   45.5770 N   0  0  0  0  0  0  0  0  0  0  0  0
   45.3080   33.4620   46.8440 N   0  0  0  0  0  0  0  0  0  0  0  0
   47.1350   34.1200   42.4980 N   0  0  0  0  0  0  0  0  0  0  0  0
   48.3660   33.4910   42.8590 C   0  0  0  0  0  0  0  0  0  0  0  0
   49.4560   33.5730   41.8420 C   0  0  0  0  0  0  0  0  0  0  0  0
   49.1200   34.3550   40.6750 N   0  0  0  0  0  0  0  0  0  0  0  0
   47.8180   33.9110   40.1920 C   0  0  0  0  0  0  0  0  0  0  0  0
   46.7170   34.3620   41.1260 C   0  0  0  0  0  0  0  0  0  0  0  0
   43.9206   36.9194   44.3425 H   0  0  0  0  0  0  0  0  0  0  0  0
   45.4445   36.2762   42.4646 H   0  0  0  0  0  0  0  0  0  0  0  0
   44.6834   33.7202   47.6213 H   0  0  0  0  0  0  0  0  0  0  0  0
   45.9178   32.6359   46.9259 H   0  0  0  0  0  0  0  0  0  0  0  0
   48.7294   33.9642   43.7831 H   0  0  0  0  0  0  0  0  0  0  0  0
   48.1361   32.4208   42.9674 H   0  0  0  0  0  0  0  0  0  0  0  0
   50.3384   34.0255   42.3180 H   0  0  0  0  0  0  0  0  0  0  0  0
   49.6395   32.5464   41.4922 H   0  0  0  0  0  0  0  0  0  0  0  0
   49.0781   35.3536   40.9240 H   0  0  0  0  0  0  0  0  0  0  0  0
   47.6399   34.3354   39.1929 H   0  0  0  0  0  0  0  0  0  0  0  0
   47.8144   32.8119   40.1470 H   0  0  0  0  0  0  0  0  0  0  0  0
   46.5271   35.4358   40.9817 H   0  0  0  0  0  0  0  0  0  0  0  0
   45.7946   33.8019   40.9129 H   0  0  0  0  0  0  0  0  0  0  0  0
  1  6  2  0
  2  3  2  0
  2  1  1  0
  3  4  1  0
  4  5  2  0
  5  7  1  0
  6  5  1  0
  8  9  1  0
  8  3  1  0
 10  9  1  0
 11 10  1  0
 12 11  1  0
 12 13  1  0
 13  8  1  0
  1 14  1  0
  2 15  1  0
  7 16  1  0
  7 17  1  0
  9 18  1  0
  9 19  1  0
 10 20  1  0
 10 21  1  0
 11 22  1  0
 12 23  1  0
 12 24  1  0
 13 25  1  0
 13 26  1  0
M  ISO  8  14  14  15  14  18  13  19  13  20  13  21  13  22   5  23  13
M  ISO  3  24  13  25  13  26  13
M  END
>  <minimizedAffinity>  (1) 
-4.81737804

>  <minimizedRMSD>  (1) 
0.403831422

$$$$
