
     RDKit          3D

 24 24  0  0  0  0  0  0  0  0999 V2000
   44.5670   36.1730   44.2760 C   0  0  0  0  0  0  0  0  0  0  0  0
   45.3910   35.8850   43.1770 C   0  0  0  0  0  0  0  0  0  0  0  0
   46.2300   34.7740   43.2030 C   0  0  0  0  0  0  0  0  0  0  0  0
   46.2020   34.0070   44.3250 N   0  0  0  0  0  0  0  0  0  0  0  0
   45.4070   34.2930   45.3720 C   0  0  0  0  0  0  0  0  0  0  0  0
   44.5970   35.3520   45.3660 N   0  0  0  0  0  0  0  0  0  0  0  0
   45.4390   33.4510   46.4920 N   0  0  0  0  0  0  0  0  0  0  0  0
   47.1390   34.3600   42.1270 C   0  0  0  0  0  0  0  0  0  0  0  0
   46.3260   34.1580   40.8620 C   0  0  0  0  0  0  0  0  0  0  0  0
   48.2160   35.4070   41.9470 C   0  0  0  0  0  0  0  0  0  0  0  0
   47.8230   33.0710   42.5340 C   0  0  0  0  0  0  0  0  0  0  0  0
   43.9042   37.0508   44.2591 H   0  0  0  0  0  0  0  0  0  0  0  0
   45.3740   36.5388   42.2926 H   0  0  0  0  0  0  0  0  0  0  0  0
   44.8385   33.6516   47.3044 H   0  0  0  0  0  0  0  0  0  0  0  0
   46.0630   32.6316   46.5026 H   0  0  0  0  0  0  0  0  0  0  0  0
   45.2904   33.9007   41.1289 H   0  0  0  0  0  0  0  0  0  0  0  0
   46.3325   35.0851   40.2700 H   0  0  0  0  0  0  0  0  0  0  0  0
   46.7657   33.3418   40.2700 H   0  0  0  0  0  0  0  0  0  0  0  0
   48.5655   35.7468   42.9331 H   0  0  0  0  0  0  0  0  0  0  0  0
   49.0589   34.9738   41.3885 H   0  0  0  0  0  0  0  0  0  0  0  0
   47.8068   36.2618   41.3885 H   0  0  0  0  0  0  0  0  0  0  0  0
   47.8579   33.0051   43.6315 H   0  0  0  0  0  0  0  0  0  0  0  0
   47.2605   32.2150   42.1330 H   0  0  0  0  0  0  0  0  0  0  0  0
   48.8472   33.0570   42.1330 H   0  0  0  0  0  0  0  0  0  0  0  0
  1  6  2  0
  2  3  2  0
  2  1  1  0
  3  4  1  0
  4  5  2  0
  5  7  1  0
  6  5  1  0
  8 11  1  0
  8  3  1  0
  9  8  1  0
 10  8  1  0
  1 12  1  0
  2 13  1  0
  7 14  1  0
  7 15  1  0
  9 16  1  0
  9 17  1  0
  9 18  1  0
 10 19  1  0
 10 20  1  0
 10 21  1  0
 11 22  1  0
 11 23  1  0
 11 24  1  0
M  ISO  8  12  14  13  14  16   8  17   8  18   8  19   8  20   8  21   8
M  ISO  3  22   8  23   8  24   8
M  END
>  <minimizedAffinity>  (1) 
-4.39285374

>  <minimizedRMSD>  (1) 
0.615057409

$$$$
