
     RDKit          3D

 19 20  0  0  0  0  0  0  0  0999 V2000
   44.6390   36.0640   44.2520 C   0  0  0  0  0  0  0  0  0  0  0  0
   45.5280   35.6930   43.2240 C   0  0  0  0  0  0  0  0  0  0  0  0
   46.3360   34.5670   43.4140 C   0  0  0  0  0  0  0  0  0  0  0  0
   46.2340   33.8810   44.5720 N   0  0  0  0  0  0  0  0  0  0  0  0
   45.3690   34.2620   45.5420 C   0  0  0  0  0  0  0  0  0  0  0  0
   44.5770   35.3400   45.3940 N   0  0  0  0  0  0  0  0  0  0  0  0
   45.3110   33.5090   46.7170 N   0  0  0  0  0  0  0  0  0  0  0  0
   47.2920   34.1190   42.3770 C   0  0  0  0  0  0  0  0  0  0  0  0
   48.0570   35.0780   41.5790 C   0  0  0  0  0  0  0  0  0  0  0  0
   46.8550   34.3920   40.9570 C   0  0  0  0  0  0  0  0  0  0  0  0
   43.9929   36.9453   44.1261 H   0  0  0  0  0  0  0  0  0  0  0  0
   45.5855   36.2757   42.2928 H   0  0  0  0  0  0  0  0  0  0  0  0
   44.6614   33.7782   47.4696 H   0  0  0  0  0  0  0  0  0  0  0  0
   45.9178   32.6846   46.8308 H   0  0  0  0  0  0  0  0  0  0  0  0
   47.6065   33.2510   42.9750 H   0  0  0  0  0  0  0  0  0  0  0  0
   48.0116   36.1503   41.8199 H   0  0  0  0  0  0  0  0  0  0  0  0
   49.1165   35.1816   41.3022 H   0  0  0  0  0  0  0  0  0  0  0  0
   45.9330   34.9581   40.7581 H   0  0  0  0  0  0  0  0  0  0  0  0
   46.6678   33.7872   40.0574 H   0  0  0  0  0  0  0  0  0  0  0  0
  1  6  2  0
  2  3  2  0
  2  1  1  0
  3  4  1  0
  4  5  2  0
  5  7  1  0
  6  5  1  0
  8  3  1  0
  9  8  1  0
 10  9  1  0
 10  8  1  0
  1 11  1  0
  2 12  1  0
  7 13  1  0
  7 14  1  0
  8 15  1  0
  9 16  1  0
  9 17  1  0
 10 18  1  0
 10 19  1  0
M  ISO  7  11  14  12  14  15  13  16  13  17  13  18  13  19  13
M  END
>  <minimizedAffinity>  (1) 
-4.27983904

>  <minimizedRMSD>  (1) 
0.345541716

$$$$
