
     RDKit          3D

 18 19  0  0  0  0  0  0  0  0999 V2000
   44.4900   36.1100   44.5960 C   0  0  0  0  0  0  0  0  0  0  0  0
   45.2400   35.8820   43.4330 C   0  0  0  0  0  0  0  0  0  0  0  0
   46.0750   34.7690   43.3760 C   0  0  0  0  0  0  0  0  0  0  0  0
   46.1210   33.9490   44.4650 N   0  0  0  0  0  0  0  0  0  0  0  0
   45.3950   34.1910   45.5590 C   0  0  0  0  0  0  0  0  0  0  0  0
   44.5800   35.2620   45.6390 N   0  0  0  0  0  0  0  0  0  0  0  0
   45.4890   33.3100   46.6410 N   0  0  0  0  0  0  0  0  0  0  0  0
   46.8910   34.4100   42.2710 N   0  0  0  0  0  0  0  0  0  0  0  0
   47.0800   33.3730   41.4320 C   0  0  0  0  0  0  0  0  0  0  0  0
   48.0640   33.6860   40.5560 N   0  0  0  0  0  0  0  0  0  0  0  0
   48.4830   34.9360   40.8630 C   0  0  0  0  0  0  0  0  0  0  0  0
   47.7580   35.3590   41.9070 N   0  0  0  0  0  0  0  0  0  0  0  0
   43.8257   36.9846   44.6568 H   0  0  0  0  0  0  0  0  0  0  0  0
   45.1697   36.5717   42.5790 H   0  0  0  0  0  0  0  0  0  0  0  0
   44.9365   33.4804   47.4934 H   0  0  0  0  0  0  0  0  0  0  0  0
   46.1108   32.4907   46.5855 H   0  0  0  0  0  0  0  0  0  0  0  0
   46.5241   32.4241   41.4549 H   0  0  0  0  0  0  0  0  0  0  0  0
   49.2744   35.5013   40.3490 H   0  0  0  0  0  0  0  0  0  0  0  0
  1  6  2  0
  2  1  1  0
  3  2  2  0
  3  4  1  0
  4  5  2  0
  5  6  1  0
  5  7  1  0
  8  3  1  0
  9  8  1  0
 10 11  1  0
 10  9  2  0
 11 12  2  0
 12  8  1  0
  1 13  1  0
  2 14  1  0
  7 15  1  0
  7 16  1  0
  9 17  1  0
 11 18  1  0
M  ISO  4  13  14  14  14  17  14  18  14
M  END
>  <minimizedAffinity>  (1) 
-4.34604549

>  <minimizedRMSD>  (1) 
0.753547192

$$$$
