
     RDKit          3D

 14 14  0  0  0  0  0  0  0  0999 V2000
   44.6510   36.0580   44.3220 C   0  0  0  0  0  0  0  0  0  0  0  0
   45.4750   35.5390   43.3100 C   0  0  0  0  0  0  0  0  0  0  0  0
   46.1870   34.3580   43.5460 C   0  0  0  0  0  0  0  0  0  0  0  0
   46.0410   33.7700   44.7540 N   0  0  0  0  0  0  0  0  0  0  0  0
   45.2410   34.2910   45.7090 C   0  0  0  0  0  0  0  0  0  0  0  0
   44.5510   35.4200   45.5060 N   0  0  0  0  0  0  0  0  0  0  0  0
   45.1470   33.6200   46.9290 N   0  0  0  0  0  0  0  0  0  0  0  0
   47.0480   33.7370   42.6120 N   0  0  0  0  0  0  0  0  0  0  0  0
   44.0865   36.9860   44.1487 H   0  0  0  0  0  0  0  0  0  0  0  0
   45.5596   36.0554   42.3424 H   0  0  0  0  0  0  0  0  0  0  0  0
   44.5449   33.9930   47.6768 H   0  0  0  0  0  0  0  0  0  0  0  0
   45.6798   32.7518   47.0816 H   0  0  0  0  0  0  0  0  0  0  0  0
   47.5377   32.8662   42.8627 H   0  0  0  0  0  0  0  0  0  0  0  0
   47.1855   34.1554   41.6809 H   0  0  0  0  0  0  0  0  0  0  0  0
  1  6  2  0
  2  3  2  0
  2  1  1  0
  3  4  1  0
  4  5  2  0
  5  7  1  0
  6  5  1  0
  8  3  1  0
  1  9  1  0
  2 10  1  0
  7 11  1  0
  7 12  1  0
  8 13  1  0
  8 14  1  0
M  ISO  2   9  14  10  14
M  END
>  <minimizedAffinity>  (1) 
-3.52971268

>  <minimizedRMSD>  (1) 
0.0343169384

$$$$
