
     RDKit          3D

 15 15  0  0  0  0  0  0  0  0999 V2000
   44.5400   36.1900   44.3810 C   0  0  0  0  0  0  0  0  0  0  0  0
   45.3300   35.9480   43.2430 C   0  0  0  0  0  0  0  0  0  0  0  0
   46.1670   34.8340   43.2140 C   0  0  0  0  0  0  0  0  0  0  0  0
   46.1750   34.0300   44.2990 N   0  0  0  0  0  0  0  0  0  0  0  0
   45.4100   34.2810   45.3770 C   0  0  0  0  0  0  0  0  0  0  0  0
   44.5890   35.3530   45.4340 N   0  0  0  0  0  0  0  0  0  0  0  0
   45.4730   33.4020   46.4610 N   0  0  0  0  0  0  0  0  0  0  0  0
   46.9650   34.6280   42.0140 C   0  0  0  0  0  0  0  0  0  0  0  0
   46.1690   34.6220   40.8820 F   0  0  0  0  0  0  0  0  0  0  0  0
   47.7390   33.4860   42.0420 F   0  0  0  0  0  0  0  0  0  0  0  0
   47.8520   35.6810   41.8480 F   0  0  0  0  0  0  0  0  0  0  0  0
   43.8783   37.0682   44.4108 H   0  0  0  0  0  0  0  0  0  0  0  0
   45.2877   36.6323   42.3828 H   0  0  0  0  0  0  0  0  0  0  0  0
   44.8967   33.5735   47.2973 H   0  0  0  0  0  0  0  0  0  0  0  0
   46.0958   32.5825   46.4240 H   0  0  0  0  0  0  0  0  0  0  0  0
  1  6  2  0
  2  1  1  0
  3  2  2  0
  3  4  1  0
  4  5  2  0
  5  6  1  0
  5  7  1  0
  8 10  1  0
  8  3  1  0
  9  8  1  0
 11  8  1  0
  1 12  1  0
  2 13  1  0
  7 14  1  0
  7 15  1  0
M  ISO  2  12  14  13  14
M  END
>  <minimizedAffinity>  (1) 
-4.32630634

>  <minimizedRMSD>  (1) 
0.757950246

$$$$
