
     RDKit          3D

 14 14  0  0  0  0  0  0  0  0999 V2000
   44.5930   36.1010   44.3820 C   0  0  0  0  0  0  0  0  0  0  0  0
   45.4050   35.7450   43.2890 C   0  0  0  0  0  0  0  0  0  0  0  0
   46.1990   34.6010   43.3800 C   0  0  0  0  0  0  0  0  0  0  0  0
   46.1390   33.8850   44.5400 N   0  0  0  0  0  0  0  0  0  0  0  0
   45.3530   34.2570   45.5560 C   0  0  0  0  0  0  0  0  0  0  0  0
   44.5720   35.3510   45.5140 N   0  0  0  0  0  0  0  0  0  0  0  0
   45.3550   33.4670   46.7010 N   0  0  0  0  0  0  0  0  0  0  0  0
   47.0470   34.2170   42.2570 C   0  0  0  0  0  0  0  0  0  0  0  0
   47.6910   35.0870   41.6350 O   0  0  0  0  0  0  0  0  0  0  0  0
   43.9649   37.0018   44.3183 H   0  0  0  0  0  0  0  0  0  0  0  0
   45.4137   36.3593   42.3766 H   0  0  0  0  0  0  0  0  0  0  0  0
   44.7623   33.7222   47.5038 H   0  0  0  0  0  0  0  0  0  0  0  0
   45.9491   32.6268   46.7460 H   0  0  0  0  0  0  0  0  0  0  0  0
   47.1190   33.1608   41.9582 H   0  0  0  0  0  0  0  0  0  0  0  0
  1  6  2  0
  2  3  2  0
  2  1  1  0
  3  4  1  0
  4  5  2  0
  5  7  1  0
  6  5  1  0
  8  3  1  0
  9  8  2  0
  1 10  1  0
  2 11  1  0
  7 12  1  0
  7 13  1  0
  8 14  1  0
M  ISO  3  10  14  11  14  14   6
M  END
>  <minimizedAffinity>  (1) 
-3.64728999

>  <minimizedRMSD>  (1) 
0.433498144

$$$$
