
     RDKit          3D

 28 29  0  0  0  0  0  0  0  0999 V2000
   47.5350   32.9890   43.9360 C   0  0  0  0  0  0  0  0  0  0  0  0
   47.5430   31.7650   44.2540 O   0  0  0  0  0  0  0  0  0  0  0  0
   44.8630   35.6240   44.2140 C   0  0  0  0  0  0  0  0  0  0  0  0
   45.9090   34.8430   43.6620 C   0  0  0  0  0  0  0  0  0  0  0  0
   46.4580   33.8230   44.4510 C   0  0  0  0  0  0  0  0  0  0  0  0
   45.9530   33.6510   45.6880 N   0  0  0  0  0  0  0  0  0  0  0  0
   44.9650   34.4020   46.1850 C   0  0  0  0  0  0  0  0  0  0  0  0
   44.4080   35.3890   45.4700 N   0  0  0  0  0  0  0  0  0  0  0  0
   44.4980   34.1630   47.4700 N   0  0  0  0  0  0  0  0  0  0  0  0
   48.5000   33.5090   43.1390 O   0  0  0  0  0  0  0  0  0  0  0  0
   48.1680   33.9540   38.9900 C   0  0  0  0  0  0  0  0  0  0  0  0
   47.9890   32.6940   39.5650 C   0  0  0  0  0  0  0  0  0  0  0  0
   48.0940   32.5270   40.9310 C   0  0  0  0  0  0  0  0  0  0  0  0
   48.3800   33.6100   41.7540 C   0  0  0  0  0  0  0  0  0  0  0  0
   48.5590   34.8670   41.1850 C   0  0  0  0  0  0  0  0  0  0  0  0
   48.4490   35.0090   39.8110 C   0  0  0  0  0  0  0  0  0  0  0  0
   48.0070   34.0200   37.2590 S   0  0  0  0  0  0  0  0  0  0  0  0
   49.0420   33.1240   36.6190 O   0  0  0  0  0  0  0  0  0  0  0  0
   46.6690   33.5120   36.7780 O   0  0  0  0  0  0  0  0  0  0  0  0
   44.4144   36.4311   43.6162 H   0  0  0  0  0  0  0  0  0  0  0  0
   46.2793   35.0320   42.6436 H   0  0  0  0  0  0  0  0  0  0  0  0
   43.7369   34.7392   47.8569 H   0  0  0  0  0  0  0  0  0  0  0  0
   44.9125   33.4094   48.0367 H   0  0  0  0  0  0  0  0  0  0  0  0
   47.7627   31.8286   38.9248 H   0  0  0  0  0  0  0  0  0  0  0  0
   47.9503   31.5294   41.3717 H   0  0  0  0  0  0  0  0  0  0  0  0
   48.7851   35.7376   41.8182 H   0  0  0  0  0  0  0  0  0  0  0  0
   48.5928   36.0048   39.3664 H   0  0  0  0  0  0  0  0  0  0  0  0
   48.1551   35.3377   36.9145 H   0  0  0  0  0  0  0  0  0  0  0  0
  1  2  2  0
  1  5  1  0
  3  8  2  0
  4  3  1  0
  4  5  2  0
  5  6  1  0
  6  7  2  0
  7  9  1  0
  8  7  1  0
 10  1  1  0
 11 12  2  0
 11 16  1  0
 12 13  1  0
 13 14  2  0
 14 10  1  0
 15 14  1  0
 16 15  2  0
 17 11  1  0
 18 17  2  0
 19 17  2  0
  3 20  1  0
  4 21  1  0
  9 22  1  0
  9 23  1  0
 12 24  1  0
 13 25  1  0
 15 26  1  0
 16 27  1  0
 17 28  1  0
M  ISO  7  20  14  21  14  24  14  25  14  26  14  27  14  28  11
M  END
>  <minimizedAffinity>  (1) 
-5.35797739

>  <minimizedRMSD>  (1) 
2.12815285

$$$$
