
     RDKit          3D

 22 23  0  0  0  0  0  0  0  0999 V2000
   44.7930   36.0180   43.9910 C   0  0  0  0  0  0  0  0  0  0  0  0
   45.7490   35.1680   43.4000 C   0  0  0  0  0  0  0  0  0  0  0  0
   46.2140   34.0800   44.1190 C   0  0  0  0  0  0  0  0  0  0  0  0
   45.7150   33.8970   45.3660 N   0  0  0  0  0  0  0  0  0  0  0  0
   44.8050   34.7210   45.9060 C   0  0  0  0  0  0  0  0  0  0  0  0
   44.3320   35.7950   45.2260 N   0  0  0  0  0  0  0  0  0  0  0  0
   44.3520   34.4440   47.2030 N   0  0  0  0  0  0  0  0  0  0  0  0
   47.1970   33.1720   43.5600 C   0  0  0  0  0  0  0  0  0  0  0  0
   46.8930   31.9320   43.4460 O   0  0  0  0  0  0  0  0  0  0  0  0
   48.4260   33.6410   43.1640 O   0  0  0  0  0  0  0  0  0  0  0  0
   48.4940   34.2380   41.8910 C   0  0  0  0  0  0  0  0  0  0  0  0
   47.9380   33.7320   40.7220 C   0  0  0  0  0  0  0  0  0  0  0  0
   48.2870   34.6810   39.7850 C   0  0  0  0  0  0  0  0  0  0  0  0
   48.9970   35.6850   40.3280 N   0  0  0  0  0  0  0  0  0  0  0  0
   49.1290   35.4190   41.6340 N   0  0  0  0  0  0  0  0  0  0  0  0
   44.4182   36.8831   43.4244 H   0  0  0  0  0  0  0  0  0  0  0  0
   46.1200   35.3658   42.3835 H   0  0  0  0  0  0  0  0  0  0  0  0
   43.6534   35.0573   47.6465 H   0  0  0  0  0  0  0  0  0  0  0  0
   44.7177   33.6271   47.7128 H   0  0  0  0  0  0  0  0  0  0  0  0
   47.3628   32.8052   40.5799 H   0  0  0  0  0  0  0  0  0  0  0  0
   48.0168   34.6235   38.7203 H   0  0  0  0  0  0  0  0  0  0  0  0
   49.3704   36.5067   39.8316 H   0  0  0  0  0  0  0  0  0  0  0  0
  1  6  2  0
  2  1  1  0
  2  3  2  0
  3  4  1  0
  4  5  2  0
  5  7  1  0
  6  5  1  0
  8  3  1  0
  9  8  2  0
 10  8  1  0
 11 10  1  0
 12 11  1  0
 13 14  1  0
 13 12  2  0
 14 15  1  0
 15 11  2  0
  1 16  1  0
  2 17  1  0
  7 18  1  0
  7 19  1  0
 12 20  1  0
 13 21  1  0
 14 22  1  0
M  ISO  5  16  14  17  14  20  14  21  14  22   9
M  END
>  <minimizedAffinity>  (1) 
-5.15385389

>  <minimizedRMSD>  (1) 
1.63329899

$$$$
