
     RDKit          3D

 31 32  0  0  0  0  0  0  0  0999 V2000
   44.8470   36.0020   43.9160 C   0  0  0  0  0  0  0  0  0  0  0  0
   45.8180   35.1490   43.3430 C   0  0  0  0  0  0  0  0  0  0  0  0
   46.2690   34.0740   44.0930 C   0  0  0  0  0  0  0  0  0  0  0  0
   45.7630   33.8840   45.3390 N   0  0  0  0  0  0  0  0  0  0  0  0
   44.8370   34.7250   45.8430 C   0  0  0  0  0  0  0  0  0  0  0  0
   44.3680   35.7790   45.1600 N   0  0  0  0  0  0  0  0  0  0  0  0
   44.3560   34.4750   47.1310 N   0  0  0  0  0  0  0  0  0  0  0  0
   47.2700   33.1560   43.5620 C   0  0  0  0  0  0  0  0  0  0  0  0
   46.9610   31.9310   43.4020 O   0  0  0  0  0  0  0  0  0  0  0  0
   48.5140   33.6040   43.2410 O   0  0  0  0  0  0  0  0  0  0  0  0
   49.0010   33.6300   41.9350 C   0  0  0  0  0  0  0  0  0  0  0  0
   48.7350   32.3390   41.1810 C   0  0  0  0  0  0  0  0  0  0  0  0
   49.0690   32.5540   39.7210 C   0  0  0  0  0  0  0  0  0  0  0  0
   48.0100   33.4250   39.1180 C   0  0  0  0  0  0  0  0  0  0  0  0
   47.4260   34.3380   40.2000 C   0  0  0  0  0  0  0  0  0  0  0  0
   48.5780   34.7590   41.0800 C   0  0  0  0  0  0  0  0  0  0  0  0
   44.4750   36.8618   43.3395 H   0  0  0  0  0  0  0  0  0  0  0  0
   46.2049   35.3333   42.3299 H   0  0  0  0  0  0  0  0  0  0  0  0
   43.6483   35.0976   47.5463 H   0  0  0  0  0  0  0  0  0  0  0  0
   44.7092   33.6682   47.6650 H   0  0  0  0  0  0  0  0  0  0  0  0
   50.0766   33.7693   42.1183 H   0  0  0  0  0  0  0  0  0  0  0  0
   49.3639   31.5347   41.5903 H   0  0  0  0  0  0  0  0  0  0  0  0
   47.6778   32.0538   41.2862 H   0  0  0  0  0  0  0  0  0  0  0  0
   50.0492   33.0453   39.6324 H   0  0  0  0  0  0  0  0  0  0  0  0
   49.1089   31.5883   39.1958 H   0  0  0  0  0  0  0  0  0  0  0  0
   48.4507   34.0387   38.3185 H   0  0  0  0  0  0  0  0  0  0  0  0
   47.2116   32.7957   38.6978 H   0  0  0  0  0  0  0  0  0  0  0  0
   46.9584   35.2207   39.7394 H   0  0  0  0  0  0  0  0  0  0  0  0
   46.6526   33.8164   40.7830 H   0  0  0  0  0  0  0  0  0  0  0  0
   49.4221   35.0740   40.4489 H   0  0  0  0  0  0  0  0  0  0  0  0
   48.2571   35.5949   41.7190 H   0  0  0  0  0  0  0  0  0  0  0  0
  1  6  2  0
  2  1  1  0
  2  3  2  0
  3  4  1  0
  4  5  2  0
  5  7  1  0
  6  5  1  0
  8  3  1  0
  9  8  2  0
 10  8  1  0
 11 10  1  0
 12 11  1  0
 13 12  1  0
 14 13  1  0
 14 15  1  0
 15 16  1  0
 16 11  1  0
  1 17  1  0
  2 18  1  0
  7 19  1  0
  7 20  1  0
 11 21  1  0
 12 22  1  0
 12 23  1  0
 13 24  1  0
 13 25  1  0
 14 26  1  0
 14 27  1  0
 15 28  1  0
 15 29  1  0
 16 30  1  0
 16 31  1  0
M  ISO  8  17  14  18  14  21  13  22  13  23  13  24  13  25  13  26  13
M  ISO  5  27  13  28  13  29  13  30  13  31  13
M  END
>  <minimizedAffinity>  (1) 
-5.06684351

>  <minimizedRMSD>  (1) 
1.43171871

$$$$
