
     RDKit          3D

 22 23  0  0  0  0  0  0  0  0999 V2000
   44.7180   35.8570   44.3580 C   0  0  0  0  0  0  0  0  0  0  0  0
   45.6710   35.2290   43.5420 C   0  0  0  0  0  0  0  0  0  0  0  0
   46.3360   34.1130   44.0190 C   0  0  0  0  0  0  0  0  0  0  0  0
   46.0330   33.6710   45.2680 N   0  0  0  0  0  0  0  0  0  0  0  0
   45.1110   34.2940   46.0310 C   0  0  0  0  0  0  0  0  0  0  0  0
   44.4490   35.3920   45.5790 N   0  0  0  0  0  0  0  0  0  0  0  0
   44.8430   33.7920   47.3050 N   0  0  0  0  0  0  0  0  0  0  0  0
   47.3390   33.4120   43.2300 C   0  0  0  0  0  0  0  0  0  0  0  0
   47.0220   32.3190   42.6470 O   0  0  0  0  0  0  0  0  0  0  0  0
   48.6020   33.9490   43.1360 O   0  0  0  0  0  0  0  0  0  0  0  0
   49.0720   34.4360   41.9100 C   0  0  0  0  0  0  0  0  0  0  0  0
   48.1630   34.8820   40.8270 C   0  0  0  0  0  0  0  0  0  0  0  0
   49.0820   35.8720   41.5770 C   0  0  0  0  0  0  0  0  0  0  0  0
   44.1855   36.7447   43.9859 H   0  0  0  0  0  0  0  0  0  0  0  0
   45.8868   35.6186   42.5362 H   0  0  0  0  0  0  0  0  0  0  0  0
   44.1427   34.2529   47.9034 H   0  0  0  0  0  0  0  0  0  0  0  0
   45.3454   32.9605   47.6471 H   0  0  0  0  0  0  0  0  0  0  0  0
   49.8545   33.6658   41.9772 H   0  0  0  0  0  0  0  0  0  0  0  0
   47.0752   34.9030   40.9891 H   0  0  0  0  0  0  0  0  0  0  0  0
   47.9941   34.6052   39.7759 H   0  0  0  0  0  0  0  0  0  0  0  0
   49.9500   36.3159   41.0675 H   0  0  0  0  0  0  0  0  0  0  0  0
   48.9371   36.8084   42.1357 H   0  0  0  0  0  0  0  0  0  0  0  0
  1  6  2  0
  2  3  2  0
  2  1  1  0
  3  4  1  0
  4  5  2  0
  5  7  1  0
  6  5  1  0
  8  3  1  0
  9  8  2  0
 10  8  1  0
 11 10  1  0
 12 13  1  0
 12 11  1  0
 13 11  1  0
  1 14  1  0
  2 15  1  0
  7 16  1  0
  7 17  1  0
 11 18  1  0
 12 19  1  0
 12 20  1  0
 13 21  1  0
 13 22  1  0
M  ISO  7  14  14  15  14  18  13  19  13  20  13  21  13  22  13
M  END
>  <minimizedAffinity>  (1) 
-4.78466511

>  <minimizedRMSD>  (1) 
1.38336599

$$$$
