
     RDKit          3D

 18 18  0  0  0  0  0  0  0  0999 V2000
   44.6310   36.0400   44.3850 C   0  0  0  0  0  0  0  0  0  0  0  0
   45.4590   35.6090   43.3280 C   0  0  0  0  0  0  0  0  0  0  0  0
   46.2160   34.4450   43.5130 C   0  0  0  0  0  0  0  0  0  0  0  0
   46.1180   33.7860   44.6970 N   0  0  0  0  0  0  0  0  0  0  0  0
   45.3060   34.2480   45.6750 C   0  0  0  0  0  0  0  0  0  0  0  0
   44.5610   35.3560   45.5500 N   0  0  0  0  0  0  0  0  0  0  0  0
   45.2520   33.5310   46.8620 N   0  0  0  0  0  0  0  0  0  0  0  0
   47.0890   33.9500   42.4640 C   0  0  0  0  0  0  0  0  0  0  0  0
   47.5770   32.7910   42.5670 O   0  0  0  0  0  0  0  0  0  0  0  0
   47.3750   34.7440   41.3750 O   0  0  0  0  0  0  0  0  0  0  0  0
   48.6240   35.3380   41.2550 C   0  0  0  0  0  0  0  0  0  0  0  0
   49.4030   35.4360   42.2390 O   0  0  0  0  0  0  0  0  0  0  0  0
   49.1050   35.8620   40.0610 O   0  0  0  0  0  0  0  0  0  0  0  0
   44.0290   36.9521   44.2595 H   0  0  0  0  0  0  0  0  0  0  0  0
   45.5091   36.1715   42.3840 H   0  0  0  0  0  0  0  0  0  0  0  0
   44.6452   33.8515   47.6301 H   0  0  0  0  0  0  0  0  0  0  0  0
   45.8187   32.6784   46.9749 H   0  0  0  0  0  0  0  0  0  0  0  0
   50.0039   36.2756   40.0285 H   0  0  0  0  0  0  0  0  0  0  0  0
  1  6  2  0
  2  3  2  0
  2  1  1  0
  3  4  1  0
  4  5  2  0
  5  7  1  0
  6  5  1  0
  8  9  2  0
  8  3  1  0
 10  8  1  0
 11 10  1  0
 11 12  2  0
 13 11  1  0
  1 14  1  0
  2 15  1  0
  7 16  1  0
  7 17  1  0
 13 18  1  0
M  ISO  3  14  14  15  14  18   3
M  END
>  <minimizedAffinity>  (1) 
-4.74639225

>  <minimizedRMSD>  (1) 
0.832369745

$$$$
