
     RDKit          3D

 27 28  0  0  1  0  0  0  0  0999 V2000
   44.7980   35.7690   44.2360 C   0  0  0  0  0  0  0  0  0  0  0  0
   45.8060   35.0150   43.6000 C   0  0  0  0  0  0  0  0  0  0  0  0
   46.3710   33.9590   44.2980 C   0  0  0  0  0  0  0  0  0  0  0  0
   45.9370   33.6900   45.5580 N   0  0  0  0  0  0  0  0  0  0  0  0
   44.9680   34.4440   46.1190 C   0  0  0  0  0  0  0  0  0  0  0  0
   44.3870   35.4750   45.4920 N   0  0  0  0  0  0  0  0  0  0  0  0
   44.5620   34.1270   47.4080 N   0  0  0  0  0  0  0  0  0  0  0  0
   47.4190   33.1430   43.6930 C   0  0  0  0  0  0  0  0  0  0  0  0
   47.4420   31.8920   43.9210 O   0  0  0  0  0  0  0  0  0  0  0  0
   48.3610   33.6920   42.8980 O   0  0  0  0  0  0  0  0  0  0  0  0
   47.3170   32.9690   40.8800 N   0  0  0  0  0  0  0  0  0  0  0  0
   47.7430   33.1180   39.4970 C   0  0  0  0  0  0  0  0  0  0  0  0
   48.3610   34.5050   39.3820 C   0  0  0  0  0  0  0  0  0  0  0  0
   48.2630   35.0310   40.8240 C   0  0  0  0  0  0  0  0  0  0  0  0
   48.3710   33.7240   41.5430 C   0  0  1  0  0  0  0  0  0  0  0  0
   44.3368   36.6123   43.7012 H   0  0  0  0  0  0  0  0  0  0  0  0
   46.1346   35.2581   42.5788 H   0  0  0  0  0  0  0  0  0  0  0  0
   43.8250   34.6813   47.8668 H   0  0  0  0  0  0  0  0  0  0  0  0
   44.9978   33.3375   47.9057 H   0  0  0  0  0  0  0  0  0  0  0  0
   47.3087   31.9821   41.1746 H   0  0  0  0  0  0  0  0  0  0  0  0
   48.4869   32.3483   39.2435 H   0  0  0  0  0  0  0  0  0  0  0  0
   46.8959   33.0013   38.8051 H   0  0  0  0  0  0  0  0  0  0  0  0
   49.4080   34.4478   39.0496 H   0  0  0  0  0  0  0  0  0  0  0  0
   47.8605   35.1493   38.6442 H   0  0  0  0  0  0  0  0  0  0  0  0
   49.0902   35.7116   41.0743 H   0  0  0  0  0  0  0  0  0  0  0  0
   47.3705   35.6313   41.0545 H   0  0  0  0  0  0  0  0  0  0  0  0
   49.3850   33.3052   41.4627 H   0  0  0  0  0  0  0  0  0  0  0  0
  1  6  2  0
  2  1  1  0
  2  3  2  0
  3  4  1  0
  4  5  2  0
  5  7  1  0
  6  5  1  0
  8  9  2  0
  8  3  1  0
 10  8  1  0
 11 15  1  0
 12 11  1  0
 13 12  1  0
 13 14  1  0
 14 15  1  0
 15 10  1  0
  1 16  1  0
  2 17  1  0
  7 18  1  0
  7 19  1  0
 11 20  1  0
 12 21  1  0
 12 22  1  0
 13 23  1  0
 13 24  1  0
 14 25  1  0
 14 26  1  0
 15 27  1  6
M  ISO  8  16  14  17  14  20   5  21  13  22  13  23  13  24  13  25  13
M  ISO  2  26  13  27  13
M  END
>  <minimizedAffinity>  (1) 
-4.75775862

>  <minimizedRMSD>  (1) 
1.44324231

$$$$
