
     RDKit          3D

 22 23  0  0  0  0  0  0  0  0999 V2000
   44.6700   35.9940   44.1850 C   0  0  0  0  0  0  0  0  0  0  0  0
   45.6480   35.6110   43.2310 C   0  0  0  0  0  0  0  0  0  0  0  0
   46.4640   34.5110   43.5440 C   0  0  0  0  0  0  0  0  0  0  0  0
   46.2620   33.8990   44.7190 N   0  0  0  0  0  0  0  0  0  0  0  0
   45.3350   34.2820   45.5950 C   0  0  0  0  0  0  0  0  0  0  0  0
   44.5280   35.3250   45.3530 N   0  0  0  0  0  0  0  0  0  0  0  0
   45.1860   33.5980   46.7940 N   0  0  0  0  0  0  0  0  0  0  0  0
   47.4860   34.0730   42.5960 C   0  0  0  0  0  0  0  0  0  0  0  0
   47.9620   32.8940   42.7630 O   0  0  0  0  0  0  0  0  0  0  0  0
   47.9050   34.9000   41.5840 O   0  0  0  0  0  0  0  0  0  0  0  0
   47.7230   34.4140   40.2740 C   0  0  0  0  0  0  0  0  0  0  0  0
   46.6550   33.6480   39.8520 C   0  0  0  0  0  0  0  0  0  0  0  0
   46.8710   33.4000   38.5340 N   0  0  0  0  0  0  0  0  0  0  0  0
   48.0090   33.9780   38.1480 C   0  0  0  0  0  0  0  0  0  0  0  0
   48.5520   34.6100   39.2070 N   0  0  0  0  0  0  0  0  0  0  0  0
   44.0146   36.8512   43.9712 H   0  0  0  0  0  0  0  0  0  0  0  0
   45.7630   36.1550   42.2819 H   0  0  0  0  0  0  0  0  0  0  0  0
   44.4686   33.8952   47.4707 H   0  0  0  0  0  0  0  0  0  0  0  0
   45.7928   32.7934   47.0067 H   0  0  0  0  0  0  0  0  0  0  0  0
   45.8030   33.3079   40.4590 H   0  0  0  0  0  0  0  0  0  0  0  0
   48.4338   33.9445   37.1339 H   0  0  0  0  0  0  0  0  0  0  0  0
   49.4327   35.1441   39.2108 H   0  0  0  0  0  0  0  0  0  0  0  0
  1  6  2  0
  2  3  2  0
  2  1  1  0
  3  4  1  0
  4  5  2  0
  5  7  1  0
  6  5  1  0
  8  9  2  0
  8  3  1  0
 10  8  1  0
 11 10  1  0
 12 11  2  0
 13 12  1  0
 14 13  2  0
 14 15  1  0
 15 11  1  0
  1 16  1  0
  2 17  1  0
  7 18  1  0
  7 19  1  0
 12 20  1  0
 14 21  1  0
 15 22  1  0
M  ISO  5  16  14  17  14  20  14  21  14  22   9
M  END
>  <minimizedAffinity>  (1) 
-4.77735329

>  <minimizedRMSD>  (1) 
1.116593

$$$$
