
     RDKit          3D

 21 21  0  0  0  0  0  0  0  0999 V2000
   44.6340   36.0740   44.3550 C   0  0  0  0  0  0  0  0  0  0  0  0
   45.4140   35.6100   43.2760 C   0  0  0  0  0  0  0  0  0  0  0  0
   46.1270   34.4340   43.4410 C   0  0  0  0  0  0  0  0  0  0  0  0
   46.0340   33.7910   44.6350 N   0  0  0  0  0  0  0  0  0  0  0  0
   45.2880   34.2480   45.6420 C   0  0  0  0  0  0  0  0  0  0  0  0
   44.5770   35.3930   45.5210 N   0  0  0  0  0  0  0  0  0  0  0  0
   45.2330   33.5470   46.8380 N   0  0  0  0  0  0  0  0  0  0  0  0
   46.9620   33.8810   42.3770 C   0  0  0  0  0  0  0  0  0  0  0  0
   47.5810   32.7800   42.5840 O   0  0  0  0  0  0  0  0  0  0  0  0
   47.0630   34.5460   41.1910 O   0  0  0  0  0  0  0  0  0  0  0  0
   48.3140   34.9260   40.6680 C   0  0  0  0  0  0  0  0  0  0  0  0
   49.0570   35.8980   41.5210 C   0  0  0  0  0  0  0  0  0  0  0  0
   44.0616   37.0070   44.2458 H   0  0  0  0  0  0  0  0  0  0  0  0
   45.4552   36.1671   42.3284 H   0  0  0  0  0  0  0  0  0  0  0  0
   44.6570   33.8997   47.6157 H   0  0  0  0  0  0  0  0  0  0  0  0
   45.7681   32.6739   46.9483 H   0  0  0  0  0  0  0  0  0  0  0  0
   48.9309   34.0223   40.5552 H   0  0  0  0  0  0  0  0  0  0  0  0
   48.1193   35.4277   39.7086 H   0  0  0  0  0  0  0  0  0  0  0  0
   48.8794   35.6657   42.5814 H   0  0  0  0  0  0  0  0  0  0  0  0
   50.1333   35.8271   41.3053 H   0  0  0  0  0  0  0  0  0  0  0  0
   48.7062   36.9180   41.3053 H   0  0  0  0  0  0  0  0  0  0  0  0
  1  6  2  0
  2  3  2  0
  2  1  1  0
  3  4  1  0
  4  5  2  0
  5  7  1  0
  6  5  1  0
  8  9  2  0
  8  3  1  0
 10  8  1  0
 11 10  1  0
 11 12  1  0
  1 13  1  0
  2 14  1  0
  7 15  1  0
  7 16  1  0
 11 17  1  0
 11 18  1  0
 12 19  1  0
 12 20  1  0
 12 21  1  0
M  ISO  7  13  14  14  14  17   8  18   8  19   8  20   8  21   8
M  END
>  <minimizedAffinity>  (1) 
-4.4233942

>  <minimizedRMSD>  (1) 
0.631730497

$$$$
