
     RDKit          3D

 21 22  0  0  0  0  0  0  0  0999 V2000
   45.0200   36.1940   43.2770 C   0  0  0  0  0  0  0  0  0  0  0  0
   46.0240   35.3070   42.8530 C   0  0  0  0  0  0  0  0  0  0  0  0
   46.4260   34.2900   43.7310 C   0  0  0  0  0  0  0  0  0  0  0  0
   45.8240   34.2170   44.9430 N   0  0  0  0  0  0  0  0  0  0  0  0
   44.8640   35.0940   45.3030 C   0  0  0  0  0  0  0  0  0  0  0  0
   44.4440   36.0910   44.4890 N   0  0  0  0  0  0  0  0  0  0  0  0
   44.2840   34.9570   46.5750 N   0  0  0  0  0  0  0  0  0  0  0  0
   47.4540   33.3470   43.3560 C   0  0  0  0  0  0  0  0  0  0  0  0
   47.3410   32.1330   43.7270 O   0  0  0  0  0  0  0  0  0  0  0  0
   48.5360   33.7330   42.6150 O   0  0  0  0  0  0  0  0  0  0  0  0
   48.6030   33.3940   41.2450 C   0  0  0  0  0  0  0  0  0  0  0  0
   49.2140   32.2660   40.8610 C   0  0  0  0  0  0  0  0  0  0  0  0
   48.9990   32.3390   38.9900 S   0  0  0  0  0  0  0  0  0  0  0  0
   48.0650   33.9990   39.1830 C   0  0  0  0  0  0  0  0  0  0  0  0
   48.0730   34.1690   40.3060 N   0  0  0  0  0  0  0  0  0  0  0  0
   44.6952   36.9963   42.5982 H   0  0  0  0  0  0  0  0  0  0  0  0
   46.4827   35.4077   41.8583 H   0  0  0  0  0  0  0  0  0  0  0  0
   43.5486   35.6111   46.8788 H   0  0  0  0  0  0  0  0  0  0  0  0
   44.5941   34.2025   47.2039 H   0  0  0  0  0  0  0  0  0  0  0  0
   49.7100   31.4998   41.4749 H   0  0  0  0  0  0  0  0  0  0  0  0
   47.6274   34.6333   38.3980 H   0  0  0  0  0  0  0  0  0  0  0  0
  1  6  2  0
  2  1  1  0
  2  3  2  0
  3  4  1  0
  4  5  2  0
  5  7  1  0
  6  5  1  0
  8  9  2  0
  8  3  1  0
 10  8  1  0
 11 10  1  0
 12 11  2  0
 13 14  1  0
 13 12  1  0
 14 15  2  0
 15 11  1  0
  1 16  1  0
  2 17  1  0
  7 18  1  0
  7 19  1  0
 12 20  1  0
 14 21  1  0
M  ISO  4  16  14  17  14  20  14  21  14
M  END
>  <minimizedAffinity>  (1) 
-4.59615374

>  <minimizedRMSD>  (1) 
1.39517415

$$$$
