
     RDKit          3D

 17 17  0  0  0  0  0  0  0  0999 V2000
   44.6410   36.0730   44.3010 C   0  0  0  0  0  0  0  0  0  0  0  0
   45.4950   35.6530   43.2620 C   0  0  0  0  0  0  0  0  0  0  0  0
   46.2690   34.4990   43.4440 C   0  0  0  0  0  0  0  0  0  0  0  0
   46.1510   33.8530   44.6110 N   0  0  0  0  0  0  0  0  0  0  0  0
   45.3360   34.2630   45.5860 C   0  0  0  0  0  0  0  0  0  0  0  0
   44.5730   35.3660   45.4570 N   0  0  0  0  0  0  0  0  0  0  0  0
   45.2690   33.5390   46.7690 N   0  0  0  0  0  0  0  0  0  0  0  0
   47.1630   34.0420   42.3840 C   0  0  0  0  0  0  0  0  0  0  0  0
   47.8030   32.9510   42.5850 O   0  0  0  0  0  0  0  0  0  0  0  0
   47.3030   34.7550   41.2340 O   0  0  0  0  0  0  0  0  0  0  0  0
   48.5190   35.1570   40.7570 C   0  0  0  0  0  0  0  0  0  0  0  0
   49.1230   36.0680   41.3940 O   0  0  0  0  0  0  0  0  0  0  0  0
   44.0274   36.9771   44.1745 H   0  0  0  0  0  0  0  0  0  0  0  0
   45.5533   36.2221   42.3225 H   0  0  0  0  0  0  0  0  0  0  0  0
   44.6433   33.8474   47.5268 H   0  0  0  0  0  0  0  0  0  0  0  0
   45.8450   32.6936   46.8887 H   0  0  0  0  0  0  0  0  0  0  0  0
   48.9558   34.7058   39.8539 H   0  0  0  0  0  0  0  0  0  0  0  0
  1  6  2  0
  2  3  2  0
  2  1  1  0
  3  4  1  0
  4  5  2  0
  5  7  1  0
  6  5  1  0
  8  9  2  0
  8  3  1  0
 10  8  1  0
 11 10  1  0
 11 12  2  0
  1 13  1  0
  2 14  1  0
  7 15  1  0
  7 16  1  0
 11 17  1  0
M  ISO  3  13  14  14  14  17   6
M  END
>  <minimizedAffinity>  (1) 
-4.21586561

>  <minimizedRMSD>  (1) 
0.806079566

$$$$
