
     RDKit          3D

 42 45  0  0  1  0  0  0  0  0999 V2000
   47.8590   33.5340   41.3960 C   0  0  2  0  0  0  0  0  0  0  0  0
   49.0610   33.2910   40.8390 C   0  0  0  0  0  0  0  0  0  0  0  0
   48.4890   32.8830   39.4910 C   0  0  0  0  0  0  0  0  0  0  0  0
   47.3730   33.8600   39.2380 C   0  0  0  0  0  0  0  0  0  0  0  0
   46.7740   34.1040   40.6200 C   0  0  1  0  0  0  0  0  0  0  0  0
   45.4960   33.3090   40.5190 C   0  0  0  0  0  0  0  0  0  0  0  0
   45.1930   32.0180   40.2660 C   0  0  0  0  0  0  0  0  0  0  0  0
   43.8680   31.8020   40.2890 N   0  0  0  0  0  0  0  0  0  0  0  0
   43.3190   32.9840   40.5640 C   0  0  0  0  0  0  0  0  0  0  0  0
   41.9850   33.3080   40.7010 C   0  0  0  0  0  0  0  0  0  0  0  0
   41.5700   34.5830   40.9880 C   0  0  0  0  0  0  0  0  0  0  0  0
   42.5320   35.5680   41.1430 C   0  0  0  0  0  0  0  0  0  0  0  0
   43.8640   35.2460   41.0080 C   0  0  0  0  0  0  0  0  0  0  0  0
   44.2760   33.9640   40.7190 C   0  0  0  0  0  0  0  0  0  0  0  0
   47.9770   34.2880   42.5810 O   0  0  0  0  0  0  0  0  0  0  0  0
   47.2950   33.5510   43.4660 C   0  0  0  0  0  0  0  0  0  0  0  0
   47.5490   32.3250   43.4650 O   0  0  0  0  0  0  0  0  0  0  0  0
   44.5940   35.7250   44.8090 C   0  0  0  0  0  0  0  0  0  0  0  0
   45.5860   35.2030   43.9650 C   0  0  0  0  0  0  0  0  0  0  0  0
   46.3200   34.1110   44.3670 C   0  0  0  0  0  0  0  0  0  0  0  0
   46.0630   33.5870   45.5530 N   0  0  0  0  0  0  0  0  0  0  0  0
   45.1080   34.0930   46.3660 C   0  0  0  0  0  0  0  0  0  0  0  0
   44.3710   35.1460   46.0200 N   0  0  0  0  0  0  0  0  0  0  0  0
   44.9110   33.4930   47.6070 N   0  0  0  0  0  0  0  0  0  0  0  0
   47.5408   32.4918   41.5463 H   0  0  0  0  0  0  0  0  0  0  0  0
   49.6989   34.1854   40.7835 H   0  0  0  0  0  0  0  0  0  0  0  0
   49.7321   32.5845   41.3493 H   0  0  0  0  0  0  0  0  0  0  0  0
   49.2556   32.9579   38.7056 H   0  0  0  0  0  0  0  0  0  0  0  0
   48.1384   31.8404   39.4861 H   0  0  0  0  0  0  0  0  0  0  0  0
   47.7622   34.7956   38.8100 H   0  0  0  0  0  0  0  0  0  0  0  0
   46.6336   33.4801   38.5177 H   0  0  0  0  0  0  0  0  0  0  0  0
   46.5055   35.0926   41.0207 H   0  0  0  0  0  0  0  0  0  0  0  0
   45.9414   31.2372   40.0652 H   0  0  0  0  0  0  0  0  0  0  0  0
   43.3790   30.9099   40.1279 H   0  0  0  0  0  0  0  0  0  0  0  0
   41.2299   32.5180   40.5760 H   0  0  0  0  0  0  0  0  0  0  0  0
   40.5005   34.8179   41.0925 H   0  0  0  0  0  0  0  0  0  0  0  0
   42.2334   36.6015   41.3726 H   0  0  0  0  0  0  0  0  0  0  0  0
   44.6202   36.0348   41.1345 H   0  0  0  0  0  0  0  0  0  0  0  0
   44.0008   36.5961   44.4939 H   0  0  0  0  0  0  0  0  0  0  0  0
   45.7762   35.6654   42.9852 H   0  0  0  0  0  0  0  0  0  0  0  0
   44.1906   33.8574   48.2467 H   0  0  0  0  0  0  0  0  0  0  0  0
   45.4857   32.6848   47.8853 H   0  0  0  0  0  0  0  0  0  0  0  0
  1 15  1  0
  2  1  1  0
  3  2  1  0
  4  3  1  0
  4  5  1  0
  5  1  1  0
  6  5  1  0
  6 14  1  0
  7  8  1  0
  7  6  2  0
  8  9  1  0
  9 10  1  0
  9 14  2  0
 10 11  2  0
 11 12  1  0
 13 12  2  0
 14 13  1  0
 15 16  1  0
 16 20  1  0
 17 16  2  0
 18 23  2  0
 19 20  2  0
 19 18  1  0
 20 21  1  0
 21 22  2  0
 22 24  1  0
 23 22  1  0
  1 25  1  1
  2 26  1  0
  2 27  1  0
  3 28  1  0
  3 29  1  0
  4 30  1  0
  4 31  1  0
  5 32  1  1
  7 33  1  0
  8 34  1  0
 10 35  1  0
 11 36  1  0
 12 37  1  0
 13 38  1  0
 18 39  1  0
 19 40  1  0
 24 41  1  0
 24 42  1  0
M  ISO  8  25  13  26  13  27  13  28  13  29  13  30  13  31  13  32  13
M  ISO  8  33  14  34   9  35  14  36  14  37  14  38  14  39  14  40  14
M  END
>  <minimizedAffinity>  (1) 
-5.75944757

>  <minimizedRMSD>  (1) 
1.38739777

$$$$
