
     RDKit          3D

 31 32  0  0  1  0  0  0  0  0999 V2000
   48.0170   33.2220   41.5160 C   0  0  2  0  0  0  0  0  0  0  0  0
   48.9970   32.4350   41.0500 C   0  0  0  0  0  0  0  0  0  0  0  0
   48.7420   32.7010   39.5830 C   0  0  0  0  0  0  0  0  0  0  0  0
   48.0520   34.0030   39.4200 C   0  0  0  0  0  0  0  0  0  0  0  0
   47.7340   34.4820   40.8620 C   0  0  2  0  0  0  0  0  0  0  0  0
   48.7950   35.5040   41.1860 C   0  0  0  0  0  0  0  0  0  0  0  0
   49.1970   36.2050   40.0510 F   0  0  0  0  0  0  0  0  0  0  0  0
   48.3990   36.4130   42.1150 F   0  0  0  0  0  0  0  0  0  0  0  0
   49.8600   34.7860   41.7190 F   0  0  0  0  0  0  0  0  0  0  0  0
   48.0920   33.4970   42.8880 O   0  0  0  0  0  0  0  0  0  0  0  0
   46.8600   33.2080   43.3270 C   0  0  0  0  0  0  0  0  0  0  0  0
   46.4610   32.0510   43.0700 O   0  0  0  0  0  0  0  0  0  0  0  0
   44.7540   36.1780   44.1000 C   0  0  0  0  0  0  0  0  0  0  0  0
   45.6130   35.2840   43.4190 C   0  0  0  0  0  0  0  0  0  0  0  0
   46.0230   34.1270   44.0420 C   0  0  0  0  0  0  0  0  0  0  0  0
   45.5880   33.9040   45.2690 N   0  0  0  0  0  0  0  0  0  0  0  0
   44.7760   34.7410   45.9230 C   0  0  0  0  0  0  0  0  0  0  0  0
   44.3460   35.8800   45.3620 N   0  0  0  0  0  0  0  0  0  0  0  0
   44.3760   34.4050   47.2220 N   0  0  0  0  0  0  0  0  0  0  0  0
   47.1868   32.5462   41.2628 H   0  0  0  0  0  0  0  0  0  0  0  0
   49.9952   32.7654   41.3730 H   0  0  0  0  0  0  0  0  0  0  0  0
   48.9893   31.3841   41.3747 H   0  0  0  0  0  0  0  0  0  0  0  0
   49.7009   32.7262   39.0446 H   0  0  0  0  0  0  0  0  0  0  0  0
   48.1076   31.9007   39.1742 H   0  0  0  0  0  0  0  0  0  0  0  0
   48.7069   34.7248   38.9099 H   0  0  0  0  0  0  0  0  0  0  0  0
   47.1422   33.9110   38.8086 H   0  0  0  0  0  0  0  0  0  0  0  0
   46.7552   34.9267   41.0946 H   0  0  0  0  0  0  0  0  0  0  0  0
   44.4193   37.1057   43.6129 H   0  0  0  0  0  0  0  0  0  0  0  0
   45.9514   35.5120   42.3975 H   0  0  0  0  0  0  0  0  0  0  0  0
   43.7508   35.0330   47.7470 H   0  0  0  0  0  0  0  0  0  0  0  0
   44.7069   33.5298   47.6526 H   0  0  0  0  0  0  0  0  0  0  0  0
  1 10  1  0
  2  1  1  0
  3  2  1  0
  4  3  1  0
  4  5  1  0
  5  6  1  0
  5  1  1  0
  6  9  1  0
  6  8  1  0
  7  6  1  0
 10 11  1  0
 11 15  1  0
 12 11  2  0
 13 18  2  0
 14 15  2  0
 14 13  1  0
 15 16  1  0
 16 17  2  0
 17 19  1  0
 18 17  1  0
  1 20  1  1
  2 21  1  0
  2 22  1  0
  3 23  1  0
  3 24  1  0
  4 25  1  0
  4 26  1  0
  5 27  1  6
 13 28  1  0
 14 29  1  0
 19 30  1  0
 19 31  1  0
M  ISO  8  20  13  21  13  22  13  23  13  24  13  25  13  26  13  27  13
M  ISO  2  28  14  29  14
M  END
>  <minimizedAffinity>  (1) 
-5.921206

>  <minimizedRMSD>  (1) 
0.54685086

$$$$
