
     RDKit          3D

 35 37  0  0  1  0  0  0  0  0999 V2000
   48.4530   34.2820   41.9810 C   0  0  2  0  0  0  0  0  0  0  0  0
   49.6410   34.8630   42.1800 C   0  0  0  0  0  0  0  0  0  0  0  0
   50.4130   33.5860   42.4250 C   0  0  0  0  0  0  0  0  0  0  0  0
   49.7320   32.4540   41.7350 C   0  0  0  0  0  0  0  0  0  0  0  0
   48.3720   33.0320   41.2600 C   0  0  2  0  0  0  0  0  0  0  0  0
   48.5380   33.2540   39.7810 C   0  0  0  0  0  0  0  0  0  0  0  0
   48.1410   34.4500   39.0280 C   0  0  0  0  0  0  0  0  0  0  0  0
   48.4180   34.3720   37.6930 C   0  0  0  0  0  0  0  0  0  0  0  0
   49.0080   33.2690   37.1560 C   0  0  0  0  0  0  0  0  0  0  0  0
   49.2200   32.1770   38.6750 S   0  0  0  0  0  0  0  0  0  0  0  0
   47.4740   35.1190   41.4320 O   0  0  0  0  0  0  0  0  0  0  0  0
   46.3960   34.8720   42.1870 C   0  0  0  0  0  0  0  0  0  0  0  0
   46.6200   34.7560   43.4170 O   0  0  0  0  0  0  0  0  0  0  0  0
   43.5320   33.8100   40.0610 C   0  0  0  0  0  0  0  0  0  0  0  0
   44.8510   33.9870   40.5410 C   0  0  0  0  0  0  0  0  0  0  0  0
   45.0610   34.7380   41.6760 C   0  0  0  0  0  0  0  0  0  0  0  0
   44.0040   35.2580   42.2590 N   0  0  0  0  0  0  0  0  0  0  0  0
   42.7520   35.1010   41.8190 C   0  0  0  0  0  0  0  0  0  0  0  0
   42.4980   34.3830   40.7270 N   0  0  0  0  0  0  0  0  0  0  0  0
   41.7180   35.7020   42.5350 N   0  0  0  0  0  0  0  0  0  0  0  0
   48.2635   34.0436   43.0380 H   0  0  0  0  0  0  0  0  0  0  0  0
   49.9981   35.4106   41.2954 H   0  0  0  0  0  0  0  0  0  0  0  0
   49.6936   35.6350   42.9618 H   0  0  0  0  0  0  0  0  0  0  0  0
   51.4346   33.6939   42.0318 H   0  0  0  0  0  0  0  0  0  0  0  0
   50.4555   33.3847   43.5056 H   0  0  0  0  0  0  0  0  0  0  0  0
   50.3272   32.1106   40.8760 H   0  0  0  0  0  0  0  0  0  0  0  0
   49.6028   31.5848   42.3966 H   0  0  0  0  0  0  0  0  0  0  0  0
   47.4443   32.4625   41.4184 H   0  0  0  0  0  0  0  0  0  0  0  0
   47.6657   35.3255   39.4946 H   0  0  0  0  0  0  0  0  0  0  0  0
   48.1592   35.2174   37.0385 H   0  0  0  0  0  0  0  0  0  0  0  0
   49.2871   33.0687   36.1110 H   0  0  0  0  0  0  0  0  0  0  0  0
   43.3463   33.2131   39.1559 H   0  0  0  0  0  0  0  0  0  0  0  0
   45.7004   33.5293   40.0128 H   0  0  0  0  0  0  0  0  0  0  0  0
   40.7435   35.5972   42.2183 H   0  0  0  0  0  0  0  0  0  0  0  0
   41.9284   36.2509   43.3808 H   0  0  0  0  0  0  0  0  0  0  0  0
  1  2  1  0
  2  3  1  0
  4  3  1  0
  5  4  1  0
  5  1  1  0
  6  5  1  0
  7  6  2  0
  8  7  1  0
  9  8  2  0
  9 10  1  0
 10  6  1  0
 11  1  1  0
 11 12  1  0
 12 13  2  0
 14 15  2  0
 14 19  1  0
 15 16  1  0
 16 12  1  0
 16 17  2  0
 18 17  1  0
 18 20  1  0
 19 18  2  0
  1 21  1  1
  2 22  1  0
  2 23  1  0
  3 24  1  0
  3 25  1  0
  4 26  1  0
  4 27  1  0
  5 28  1  6
  7 29  1  0
  8 30  1  0
  9 31  1  0
 14 32  1  0
 15 33  1  0
 20 34  1  0
 20 35  1  0
M  ISO  8  21  13  22  13  23  13  24  13  25  13  26  13  27  13  28  13
M  ISO  5  29  14  30  14  31  14  32  14  33  14
M  END
>  <minimizedAffinity>  (1) 
-5.42154408

>  <minimizedRMSD>  (1) 
3.78105879

$$$$
