
     RDKit          3D

 35 37  0  0  1  0  0  0  0  0999 V2000
   47.2870   32.9930   40.9110 C   0  0  2  0  0  0  0  0  0  0  0  0
   47.8300   31.9270   40.3010 C   0  0  0  0  0  0  0  0  0  0  0  0
   47.9710   32.5750   38.9380 C   0  0  0  0  0  0  0  0  0  0  0  0
   47.9980   34.0540   39.0750 C   0  0  0  0  0  0  0  0  0  0  0  0
   47.7100   34.3260   40.5730 C   0  0  2  0  0  0  0  0  0  0  0  0
   49.0050   34.8510   41.1330 C   0  0  0  0  0  0  0  0  0  0  0  0
   49.2200   36.2310   41.5820 C   0  0  0  0  0  0  0  0  0  0  0  0
   49.2670   35.0210   42.5680 C   0  0  0  0  0  0  0  0  0  0  0  0
   47.2500   32.9270   42.3080 O   0  0  0  0  0  0  0  0  0  0  0  0
   45.9640   33.1760   42.6000 C   0  0  0  0  0  0  0  0  0  0  0  0
   45.1350   32.3690   42.1150 O   0  0  0  0  0  0  0  0  0  0  0  0
   44.9630   36.6200   43.5910 C   0  0  0  0  0  0  0  0  0  0  0  0
   45.4340   35.5290   42.8260 C   0  0  0  0  0  0  0  0  0  0  0  0
   45.5250   34.2820   43.4000 C   0  0  0  0  0  0  0  0  0  0  0  0
   45.1660   34.1450   44.6620 N   0  0  0  0  0  0  0  0  0  0  0  0
   44.7150   35.1880   45.3980 C   0  0  0  0  0  0  0  0  0  0  0  0
   44.6070   36.4190   44.8880 N   0  0  0  0  0  0  0  0  0  0  0  0
   44.3580   34.9480   46.7310 N   0  0  0  0  0  0  0  0  0  0  0  0
   46.2944   32.8667   40.4540 H   0  0  0  0  0  0  0  0  0  0  0  0
   48.7981   31.6370   40.7353 H   0  0  0  0  0  0  0  0  0  0  0  0
   47.2688   30.9822   40.3505 H   0  0  0  0  0  0  0  0  0  0  0  0
   47.1184   32.2838   38.3070 H   0  0  0  0  0  0  0  0  0  0  0  0
   48.9112   32.2395   38.4759 H   0  0  0  0  0  0  0  0  0  0  0  0
   48.9849   34.4500   38.7934 H   0  0  0  0  0  0  0  0  0  0  0  0
   47.2625   34.5422   38.4187 H   0  0  0  0  0  0  0  0  0  0  0  0
   46.9737   35.0634   40.9253 H   0  0  0  0  0  0  0  0  0  0  0  0
   49.4680   34.2389   40.3449 H   0  0  0  0  0  0  0  0  0  0  0  0
   50.1433   36.7652   41.3135 H   0  0  0  0  0  0  0  0  0  0  0  0
   48.6635   37.1778   41.5194 H   0  0  0  0  0  0  0  0  0  0  0  0
   48.4616   34.8702   43.3019 H   0  0  0  0  0  0  0  0  0  0  0  0
   49.9908   34.6193   43.2924 H   0  0  0  0  0  0  0  0  0  0  0  0
   44.8852   37.6212   43.1420 H   0  0  0  0  0  0  0  0  0  0  0  0
   45.7266   35.6763   41.7759 H   0  0  0  0  0  0  0  0  0  0  0  0
   44.0112   35.7199   47.3182 H   0  0  0  0  0  0  0  0  0  0  0  0
   44.4423   33.9997   47.1240 H   0  0  0  0  0  0  0  0  0  0  0  0
  1  9  1  0
  2  1  1  0
  3  4  1  0
  3  2  1  0
  4  5  1  0
  5  1  1  0
  5  6  1  0
  6  7  1  0
  6  8  1  0
  7  8  1  0
  9 10  1  0
 10 14  1  0
 11 10  2  0
 12 17  2  0
 13 14  2  0
 13 12  1  0
 14 15  1  0
 15 16  2  0
 16 18  1  0
 17 16  1  0
  1 19  1  6
  2 20  1  0
  2 21  1  0
  3 22  1  0
  3 23  1  0
  4 24  1  0
  4 25  1  0
  5 26  1  6
  6 27  1  0
  7 28  1  0
  7 29  1  0
  8 30  1  0
  8 31  1  0
 12 32  1  0
 13 33  1  0
 18 34  1  0
 18 35  1  0
M  ISO  8  19  13  20  13  21  13  22  13  23  13  24  13  25  13  26  13
M  ISO  7  27  13  28  13  29  13  30  13  31  13  32  14  33  14
M  END
>  <minimizedAffinity>  (1) 
-5.4227643

>  <minimizedRMSD>  (1) 
1.17689574

$$$$
