
     RDKit          3D

 35 36  0  0  1  0  0  0  0  0999 V2000
   48.8010   32.2930   42.1420 C   0  0  2  0  0  0  0  0  0  0  0  0
   49.9160   31.5860   42.4340 C   0  0  0  0  0  0  0  0  0  0  0  0
   49.8130   30.6280   41.2660 C   0  0  0  0  0  0  0  0  0  0  0  0
   48.9620   31.2060   40.1950 C   0  0  0  0  0  0  0  0  0  0  0  0
   48.4070   32.5300   40.7960 C   0  0  2  0  0  0  0  0  0  0  0  0
   48.8880   33.5630   39.9650 N   0  0  0  0  0  0  0  0  0  0  0  0
   48.2740   34.1660   38.8040 C   0  0  0  0  0  0  0  0  0  0  0  0
   47.0770   33.8260   38.5600 N   0  0  0  0  0  0  0  0  0  0  0  0
   48.9500   35.1070   37.9430 N   0  0  0  0  0  0  0  0  0  0  0  0
   46.5920   34.2310   37.7380 H   0  0  0  0  0  0  0  0  0  0  0  0
   48.6320   33.4770   42.8740 O   0  0  0  0  0  0  0  0  0  0  0  0
   47.5410   33.2310   43.6180 C   0  0  0  0  0  0  0  0  0  0  0  0
   47.4510   32.0740   44.0940 O   0  0  0  0  0  0  0  0  0  0  0  0
   45.1140   36.0100   43.1260 C   0  0  0  0  0  0  0  0  0  0  0  0
   46.1570   35.0860   42.8880 C   0  0  0  0  0  0  0  0  0  0  0  0
   46.5090   34.2000   43.8770 C   0  0  0  0  0  0  0  0  0  0  0  0
   45.8470   34.2580   45.0170 N   0  0  0  0  0  0  0  0  0  0  0  0
   44.8540   35.1340   45.2480 C   0  0  0  0  0  0  0  0  0  0  0  0
   44.4750   36.0110   44.3220 N   0  0  0  0  0  0  0  0  0  0  0  0
   44.2220   35.0930   46.4850 N   0  0  0  0  0  0  0  0  0  0  0  0
   48.1114   31.5048   42.4784 H   0  0  0  0  0  0  0  0  0  0  0  0
   50.8283   32.1996   42.4000 H   0  0  0  0  0  0  0  0  0  0  0  0
   49.9785   31.1437   43.4392 H   0  0  0  0  0  0  0  0  0  0  0  0
   50.8192   30.4358   40.8652 H   0  0  0  0  0  0  0  0  0  0  0  0
   49.3588   29.6887   41.6143 H   0  0  0  0  0  0  0  0  0  0  0  0
   48.1394   30.5209   39.9422 H   0  0  0  0  0  0  0  0  0  0  0  0
   49.5249   31.3769   39.2655 H   0  0  0  0  0  0  0  0  0  0  0  0
   47.3516   32.8385   40.8275 H   0  0  0  0  0  0  0  0  0  0  0  0
   49.8102   33.9425   40.2228 H   0  0  0  0  0  0  0  0  0  0  0  0
   48.4599   35.5040   37.1287 H   0  0  0  0  0  0  0  0  0  0  0  0
   49.9224   35.3814   38.1430 H   0  0  0  0  0  0  0  0  0  0  0  0
   44.8217   36.7258   42.3436 H   0  0  0  0  0  0  0  0  0  0  0  0
   46.6812   35.0766   41.9210 H   0  0  0  0  0  0  0  0  0  0  0  0
   43.4572   35.7503   46.6946 H   0  0  0  0  0  0  0  0  0  0  0  0
   44.5184   34.4053   47.1922 H   0  0  0  0  0  0  0  0  0  0  0  0
  1  2  1  0
  1 11  1  0
  3  2  1  0
  4  5  1  0
  4  3  1  0
  5  1  1  0
  6  5  1  0
  7  6  1  0
  8  7  2  0
  9  7  1  0
 10  8  1  0
 11 12  1  0
 12 16  1  0
 12 13  2  0
 14 19  2  0
 15 14  1  0
 15 16  2  0
 16 17  1  0
 17 18  2  0
 18 20  1  0
 19 18  1  0
  1 21  1  1
  2 22  1  0
  2 23  1  0
  3 24  1  0
  3 25  1  0
  4 26  1  0
  4 27  1  0
  5 28  1  1
  6 29  1  0
  9 30  1  0
  9 31  1  0
 14 32  1  0
 15 33  1  0
 20 34  1  0
 20 35  1  0
M  ISO  8  21  13  22  13  23  13  24  13  25  13  26  13  27  13  28  13
M  ISO  2  32  14  33  14
M  END
>  <minimizedAffinity>  (1) 
-5.61007881

>  <minimizedRMSD>  (1) 
1.95548344

$$$$
