
     RDKit          3D

 30 31  0  0  1  0  0  0  0  0999 V2000
   48.2340   33.3190   41.1600 C   0  0  2  0  0  0  0  0  0  0  0  0
   49.1830   32.4590   40.7740 C   0  0  0  0  0  0  0  0  0  0  0  0
   48.8940   32.5380   39.2920 C   0  0  0  0  0  0  0  0  0  0  0  0
   48.2220   33.8190   38.9750 C   0  0  0  0  0  0  0  0  0  0  0  0
   47.9340   34.4810   40.3460 C   0  0  2  0  0  0  0  0  0  0  0  0
   48.9000   35.5520   40.4760 N   0  0  0  0  0  0  0  0  0  0  0  0
   48.3430   33.7670   42.4830 O   0  0  0  0  0  0  0  0  0  0  0  0
   47.1730   33.4070   43.0280 C   0  0  0  0  0  0  0  0  0  0  0  0
   46.9030   32.1870   42.9690 O   0  0  0  0  0  0  0  0  0  0  0  0
   44.9540   36.3550   43.5350 C   0  0  0  0  0  0  0  0  0  0  0  0
   45.8860   35.4640   42.9530 C   0  0  0  0  0  0  0  0  0  0  0  0
   46.2620   34.3330   43.6440 C   0  0  0  0  0  0  0  0  0  0  0  0
   45.7270   34.1380   44.8330 N   0  0  0  0  0  0  0  0  0  0  0  0
   44.8470   34.9740   45.3920 C   0  0  0  0  0  0  0  0  0  0  0  0
   44.4470   36.0830   44.7640 N   0  0  0  0  0  0  0  0  0  0  0  0
   44.3460   34.6610   46.6610 N   0  0  0  0  0  0  0  0  0  0  0  0
   47.3916   32.6250   41.0230 H   0  0  0  0  0  0  0  0  0  0  0  0
   50.1959   32.8059   41.0263 H   0  0  0  0  0  0  0  0  0  0  0  0
   49.1630   31.4588   41.2315 H   0  0  0  0  0  0  0  0  0  0  0  0
   49.8390   32.4741   38.7326 H   0  0  0  0  0  0  0  0  0  0  0  0
   48.2352   31.7043   39.0075 H   0  0  0  0  0  0  0  0  0  0  0  0
   48.8797   34.4592   38.3688 H   0  0  0  0  0  0  0  0  0  0  0  0
   47.3015   33.6656   38.3926 H   0  0  0  0  0  0  0  0  0  0  0  0
   46.9546   34.9329   40.5620 H   0  0  0  0  0  0  0  0  0  0  0  0
   49.0706   35.7412   41.4740 H   0  0  0  0  0  0  0  0  0  0  0  0
   49.7827   35.2750   40.0232 H   0  0  0  0  0  0  0  0  0  0  0  0
   44.6426   37.2615   42.9953 H   0  0  0  0  0  0  0  0  0  0  0  0
   46.3065   35.6722   41.9581 H   0  0  0  0  0  0  0  0  0  0  0  0
   43.6665   35.2877   47.1154 H   0  0  0  0  0  0  0  0  0  0  0  0
   44.6569   33.8040   47.1404 H   0  0  0  0  0  0  0  0  0  0  0  0
  1  7  1  0
  2  1  1  0
  3  2  1  0
  4  3  1  0
  4  5  1  0
  5  6  1  0
  5  1  1  0
  7  8  1  0
  8 12  1  0
  9  8  2  0
 10 15  2  0
 11 10  1  0
 11 12  2  0
 12 13  1  0
 13 14  2  0
 14 16  1  0
 15 14  1  0
  1 17  1  1
  2 18  1  0
  2 19  1  0
  3 20  1  0
  3 21  1  0
  4 22  1  0
  4 23  1  0
  5 24  1  6
  6 25  1  0
  6 26  1  0
 10 27  1  0
 11 28  1  0
 16 29  1  0
 16 30  1  0
M  ISO  8  17  13  18  13  19  13  20  13  21  13  22  13  23  13  24  13
M  ISO  4  25   5  26   5  27  14  28  14
M  END
>  <minimizedAffinity>  (1) 
-5.16085148

>  <minimizedRMSD>  (1) 
0.498850405

$$$$
