
     RDKit          3D

 38 40  0  0  1  0  0  0  0  0999 V2000
   46.5150   32.0040   41.6190 C   0  0  2  0  0  0  0  0  0  0  0  0
   46.9230   30.7300   41.4720 C   0  0  0  0  0  0  0  0  0  0  0  0
   45.7510   30.2830   40.6240 C   0  0  0  0  0  0  0  0  0  0  0  0
   45.1350   31.4550   39.9470 C   0  0  0  0  0  0  0  0  0  0  0  0
   45.8600   32.6950   40.5420 C   0  0  2  0  0  0  0  0  0  0  0  0
   46.6650   33.2320   39.4260 C   0  0  0  0  0  0  0  0  0  0  0  0
   46.6070   32.9980   38.0980 C   0  0  0  0  0  0  0  0  0  0  0  0
   47.4160   33.5810   37.1520 C   0  0  0  0  0  0  0  0  0  0  0  0
   48.3780   34.4780   37.5370 C   0  0  0  0  0  0  0  0  0  0  0  0
   48.4940   34.7630   38.8750 C   0  0  0  0  0  0  0  0  0  0  0  0
   47.6590   34.1550   39.7880 C   0  0  0  0  0  0  0  0  0  0  0  0
   47.4800   32.8770   42.1370 O   0  0  0  0  0  0  0  0  0  0  0  0
   47.0700   33.0820   43.3970 C   0  0  0  0  0  0  0  0  0  0  0  0
   47.4750   32.2430   44.2370 O   0  0  0  0  0  0  0  0  0  0  0  0
   45.1590   36.2720   43.3300 C   0  0  0  0  0  0  0  0  0  0  0  0
   46.0210   35.2180   42.9480 C   0  0  0  0  0  0  0  0  0  0  0  0
   46.2260   34.1640   43.8090 C   0  0  0  0  0  0  0  0  0  0  0  0
   45.5970   34.1890   44.9700 N   0  0  0  0  0  0  0  0  0  0  0  0
   44.7780   35.1820   45.3430 C   0  0  0  0  0  0  0  0  0  0  0  0
   44.5450   36.2270   44.5430 N   0  0  0  0  0  0  0  0  0  0  0  0
   44.1650   35.1000   46.5930 N   0  0  0  0  0  0  0  0  0  0  0  0
   45.7202   31.7709   42.3428 H   0  0  0  0  0  0  0  0  0  0  0  0
   47.8844   30.6503   40.9434 H   0  0  0  0  0  0  0  0  0  0  0  0
   47.1234   30.1590   42.3905 H   0  0  0  0  0  0  0  0  0  0  0  0
   46.1022   29.5677   39.8657 H   0  0  0  0  0  0  0  0  0  0  0  0
   45.0004   29.8043   41.2701 H   0  0  0  0  0  0  0  0  0  0  0  0
   44.0565   31.5001   40.1586 H   0  0  0  0  0  0  0  0  0  0  0  0
   45.2411   31.4015   38.8534 H   0  0  0  0  0  0  0  0  0  0  0  0
   45.3392   33.5866   40.9212 H   0  0  0  0  0  0  0  0  0  0  0  0
   45.8505   32.2823   37.7438 H   0  0  0  0  0  0  0  0  0  0  0  0
   47.2916   33.3283   36.0887 H   0  0  0  0  0  0  0  0  0  0  0  0
   49.0370   34.9550   36.7966 H   0  0  0  0  0  0  0  0  0  0  0  0
   49.2553   35.4784   39.2194 H   0  0  0  0  0  0  0  0  0  0  0  0
   47.7774   34.4054   40.8526 H   0  0  0  0  0  0  0  0  0  0  0  0
   44.9865   37.1209   42.6521 H   0  0  0  0  0  0  0  0  0  0  0  0
   46.5239   35.2404   41.9700 H   0  0  0  0  0  0  0  0  0  0  0  0
   43.5307   35.8489   46.9056 H   0  0  0  0  0  0  0  0  0  0  0  0
   44.3466   34.2906   47.2035 H   0  0  0  0  0  0  0  0  0  0  0  0
  1 12  1  0
  2  1  1  0
  3  2  1  0
  4  5  1  0
  4  3  1  0
  5  1  1  0
  6 11  1  0
  6  5  1  0
  7  6  2  0
  8  9  2  0
  8  7  1  0
  9 10  1  0
 10 11  2  0
 12 13  1  0
 13 17  1  0
 13 14  2  0
 15 20  2  0
 16 15  1  0
 16 17  2  0
 17 18  1  0
 18 19  2  0
 19 21  1  0
 20 19  1  0
  1 22  1  1
  2 23  1  0
  2 24  1  0
  3 25  1  0
  3 26  1  0
  4 27  1  0
  4 28  1  0
  5 29  1  1
  7 30  1  0
  8 31  1  0
  9 32  1  0
 10 33  1  0
 11 34  1  0
 15 35  1  0
 16 36  1  0
 21 37  1  0
 21 38  1  0
M  ISO  8  22  13  23  13  24  13  25  13  26  13  27  13  28  13  29  13
M  ISO  7  30  14  31  14  32  14  33  14  34  14  35  14  36  14
M  END
>  <minimizedAffinity>  (1) 
-5.3355093

>  <minimizedRMSD>  (1) 
3.05031943

$$$$
