
     RDKit          3D

 30 31  0  0  1  0  0  0  0  0999 V2000
   48.0170   33.3870   41.5240 C   0  0  2  0  0  0  0  0  0  0  0  0
   48.9360   32.5720   40.9910 C   0  0  0  0  0  0  0  0  0  0  0  0
   48.6790   32.9550   39.5490 C   0  0  0  0  0  0  0  0  0  0  0  0
   48.1390   34.3390   39.4950 C   0  0  0  0  0  0  0  0  0  0  0  0
   47.8170   34.7060   40.9620 C   0  0  2  0  0  0  0  0  0  0  0  0
   48.9080   35.6180   41.3840 C   0  0  0  0  0  0  0  0  0  0  0  0
   49.7330   35.5310   42.3060 O   0  0  0  0  0  0  0  0  0  0  0  0
   48.1230   33.5670   42.9080 O   0  0  0  0  0  0  0  0  0  0  0  0
   46.9130   33.2020   43.3580 C   0  0  0  0  0  0  0  0  0  0  0  0
   46.5420   32.0540   43.0210 O   0  0  0  0  0  0  0  0  0  0  0  0
   44.6720   35.9840   44.3960 C   0  0  0  0  0  0  0  0  0  0  0  0
   45.5440   35.1820   43.6230 C   0  0  0  0  0  0  0  0  0  0  0  0
   46.0670   34.0300   44.1650 C   0  0  0  0  0  0  0  0  0  0  0  0
   45.7250   33.7260   45.4030 N   0  0  0  0  0  0  0  0  0  0  0  0
   44.8980   34.4840   46.1450 C   0  0  0  0  0  0  0  0  0  0  0  0
   44.3670   35.6060   45.6620 N   0  0  0  0  0  0  0  0  0  0  0  0
   44.6120   34.0560   47.4450 N   0  0  0  0  0  0  0  0  0  0  0  0
   47.1426   32.7829   41.2402 H   0  0  0  0  0  0  0  0  0  0  0  0
   49.9580   32.8138   41.3182 H   0  0  0  0  0  0  0  0  0  0  0  0
   48.8639   31.5041   41.2447 H   0  0  0  0  0  0  0  0  0  0  0  0
   49.6208   32.9061   38.9827 H   0  0  0  0  0  0  0  0  0  0  0  0
   47.9506   32.2587   39.1079 H   0  0  0  0  0  0  0  0  0  0  0  0
   48.8881   35.0294   39.0802 H   0  0  0  0  0  0  0  0  0  0  0  0
   47.2512   34.4090   38.8493 H   0  0  0  0  0  0  0  0  0  0  0  0
   46.8553   35.1803   41.2074 H   0  0  0  0  0  0  0  0  0  0  0  0
   49.0015   36.5286   40.7740 H   0  0  0  0  0  0  0  0  0  0  0  0
   44.2453   36.9058   43.9739 H   0  0  0  0  0  0  0  0  0  0  0  0
   45.8024   35.4772   42.5953 H   0  0  0  0  0  0  0  0  0  0  0  0
   43.9829   34.6105   48.0430 H   0  0  0  0  0  0  0  0  0  0  0  0
   45.0305   33.1863   47.8046 H   0  0  0  0  0  0  0  0  0  0  0  0
  1  8  1  0
  2  1  1  0
  3  2  1  0
  4  3  1  0
  4  5  1  0
  5  6  1  0
  5  1  1  0
  6  7  2  0
  8  9  1  0
  9 13  1  0
 10  9  2  0
 11 16  2  0
 12 13  2  0
 12 11  1  0
 13 14  1  0
 14 15  2  0
 15 17  1  0
 16 15  1  0
  1 18  1  1
  2 19  1  0
  2 20  1  0
  3 21  1  0
  3 22  1  0
  4 23  1  0
  4 24  1  0
  5 25  1  6
  6 26  1  0
 11 27  1  0
 12 28  1  0
 17 29  1  0
 17 30  1  0
M  ISO  8  18  13  19  13  20  13  21  13  22  13  23  13  24  13  25  13
M  ISO  3  26   6  27  14  28  14
M  END
>  <minimizedAffinity>  (1) 
-5.22130394

>  <minimizedRMSD>  (1) 
0.507844687

$$$$
