
     RDKit          3D

 43 45  0  0  1  0  0  0  0  0999 V2000
   48.0980   30.9900   43.3160 C   0  0  2  0  0  0  0  0  0  0  0  0
   49.2720   30.4330   43.6630 C   0  0  0  0  0  0  0  0  0  0  0  0
   49.5290   29.7970   42.3100 C   0  0  0  0  0  0  0  0  0  0  0  0
   48.9630   30.7140   41.2650 C   0  0  0  0  0  0  0  0  0  0  0  0
   47.9180   31.5690   42.0050 C   0  0  2  0  0  0  0  0  0  0  0  0
   48.2190   32.9220   41.7540 N   0  0  0  0  0  0  0  0  0  0  0  0
   47.6640   33.9480   42.5330 C   0  0  0  0  0  0  0  0  0  0  0  0
   47.9840   35.2530   41.7720 C   0  0  0  0  0  0  0  0  0  0  0  0
   49.4070   35.6010   42.0470 C   0  0  0  0  0  0  0  0  0  0  0  0
   50.1110   34.3460   42.4820 C   0  0  0  0  0  0  0  0  0  0  0  0
   49.6600   33.1290   41.7150 C   0  0  0  0  0  0  0  0  0  0  0  0
   47.6590   31.9560   44.2350 O   0  0  0  0  0  0  0  0  0  0  0  0
   46.8140   31.2550   45.0170 C   0  0  0  0  0  0  0  0  0  0  0  0
   46.1720   30.3430   44.4600 O   0  0  0  0  0  0  0  0  0  0  0  0
   45.4490   32.6310   48.1900 C   0  0  0  0  0  0  0  0  0  0  0  0
   45.6360   32.3790   46.8210 C   0  0  0  0  0  0  0  0  0  0  0  0
   46.6410   31.5250   46.4230 C   0  0  0  0  0  0  0  0  0  0  0  0
   47.3990   30.9650   47.3490 N   0  0  0  0  0  0  0  0  0  0  0  0
   47.2190   31.2060   48.6640 C   0  0  0  0  0  0  0  0  0  0  0  0
   46.2530   32.0330   49.1060 N   0  0  0  0  0  0  0  0  0  0  0  0
   48.0570   30.5590   49.5770 N   0  0  0  0  0  0  0  0  0  0  0  0
   47.5016   30.0658   43.3091 H   0  0  0  0  0  0  0  0  0  0  0  0
   50.0341   31.1770   43.9380 H   0  0  0  0  0  0  0  0  0  0  0  0
   49.2824   29.7754   44.5447 H   0  0  0  0  0  0  0  0  0  0  0  0
   50.6105   29.6715   42.1534 H   0  0  0  0  0  0  0  0  0  0  0  0
   49.0563   28.8054   42.2522 H   0  0  0  0  0  0  0  0  0  0  0  0
   48.4878   30.1349   40.4595 H   0  0  0  0  0  0  0  0  0  0  0  0
   49.7415   31.3316   40.7933 H   0  0  0  0  0  0  0  0  0  0  0  0
   46.8495   31.5644   41.7436 H   0  0  0  0  0  0  0  0  0  0  0  0
   46.5764   33.8142   42.6288 H   0  0  0  0  0  0  0  0  0  0  0  0
   48.0738   33.9565   43.5538 H   0  0  0  0  0  0  0  0  0  0  0  0
   47.3261   36.0619   42.1224 H   0  0  0  0  0  0  0  0  0  0  0  0
   47.8221   35.1188   40.6923 H   0  0  0  0  0  0  0  0  0  0  0  0
   49.8781   35.9976   41.1356 H   0  0  0  0  0  0  0  0  0  0  0  0
   49.4700   36.3688   42.8322 H   0  0  0  0  0  0  0  0  0  0  0  0
   51.1922   34.4779   42.3283 H   0  0  0  0  0  0  0  0  0  0  0  0
   49.8676   34.1793   43.5417 H   0  0  0  0  0  0  0  0  0  0  0  0
   50.1512   32.2438   42.1453 H   0  0  0  0  0  0  0  0  0  0  0  0
   49.9369   33.2876   40.6623 H   0  0  0  0  0  0  0  0  0  0  0  0
   44.6513   33.3127   48.5199 H   0  0  0  0  0  0  0  0  0  0  0  0
   44.9865   32.8588   46.0741 H   0  0  0  0  0  0  0  0  0  0  0  0
   47.9427   30.7238   50.5873 H   0  0  0  0  0  0  0  0  0  0  0  0
   48.7887   29.9175   49.2394 H   0  0  0  0  0  0  0  0  0  0  0  0
  1  2  1  0
  1 12  1  0
  3  2  1  0
  4  5  1  0
  4  3  1  0
  5  1  1  0
  6  5  1  0
  6  7  1  0
  8  9  1  0
  8  7  1  0
  9 10  1  0
 11  6  1  0
 11 10  1  0
 12 13  1  0
 13 17  1  0
 14 13  2  0
 15 20  2  0
 16 15  1  0
 17 16  2  0
 17 18  1  0
 18 19  2  0
 19 20  1  0
 19 21  1  0
  1 22  1  6
  2 23  1  0
  2 24  1  0
  3 25  1  0
  3 26  1  0
  4 27  1  0
  4 28  1  0
  5 29  1  6
  7 30  1  0
  7 31  1  0
  8 32  1  0
  8 33  1  0
  9 34  1  0
  9 35  1  0
 10 36  1  0
 10 37  1  0
 11 38  1  0
 11 39  1  0
 15 40  1  0
 16 41  1  0
 21 42  1  0
 21 43  1  0
M  ISO  8  22  13  23  13  24  13  25  13  26  13  27  13  28  13  29  13
M  ISO  8  30  13  31  13  32  13  33  13  34  13  35  13  36  13  37  13
M  ISO  4  38  13  39  13  40  14  41  14
M  END
>  <minimizedAffinity>  (1) 
-4.88205385

>  <minimizedRMSD>  (1) 
3.83788633

$$$$
