
     RDKit          3D

 29 30  0  0  1  0  0  0  0  0999 V2000
   47.9840   33.2630   41.5860 C   0  0  2  0  0  0  0  0  0  0  0  0
   48.9560   32.5100   41.0570 C   0  0  0  0  0  0  0  0  0  0  0  0
   48.7300   32.9220   39.6200 C   0  0  0  0  0  0  0  0  0  0  0  0
   48.0440   34.2300   39.5670 C   0  0  0  0  0  0  0  0  0  0  0  0
   47.7320   34.5840   41.0490 C   0  0  2  0  0  0  0  0  0  0  0  0
   49.0240   35.7630   41.5150 S   0  0  0  0  0  0  0  0  0  0  0  0
   48.0410   33.3920   42.9790 O   0  0  0  0  0  0  0  0  0  0  0  0
   46.7910   33.1050   43.3650 C   0  0  0  0  0  0  0  0  0  0  0  0
   46.3470   32.0090   42.9590 O   0  0  0  0  0  0  0  0  0  0  0  0
   44.6630   35.9650   44.4400 C   0  0  0  0  0  0  0  0  0  0  0  0
   45.4880   35.1400   43.6440 C   0  0  0  0  0  0  0  0  0  0  0  0
   45.9850   33.9740   44.1810 C   0  0  0  0  0  0  0  0  0  0  0  0
   45.6610   33.6870   45.4260 N   0  0  0  0  0  0  0  0  0  0  0  0
   44.8780   34.4650   46.1870 C   0  0  0  0  0  0  0  0  0  0  0  0
   44.3720   35.6010   45.7160 N   0  0  0  0  0  0  0  0  0  0  0  0
   44.6020   34.0450   47.4830 N   0  0  0  0  0  0  0  0  0  0  0  0
   47.1414   32.6351   41.2607 H   0  0  0  0  0  0  0  0  0  0  0  0
   49.9545   32.7890   41.4247 H   0  0  0  0  0  0  0  0  0  0  0  0
   48.9243   31.4324   41.2757 H   0  0  0  0  0  0  0  0  0  0  0  0
   49.7000   32.9992   39.1071 H   0  0  0  0  0  0  0  0  0  0  0  0
   48.1026   32.1668   39.1240 H   0  0  0  0  0  0  0  0  0  0  0  0
   48.6984   34.9914   39.1176 H   0  0  0  0  0  0  0  0  0  0  0  0
   47.1331   34.1931   38.9514 H   0  0  0  0  0  0  0  0  0  0  0  0
   46.7636   35.0186   41.3378 H   0  0  0  0  0  0  0  0  0  0  0  0
   49.1043   35.8363   42.8807 H   0  0  0  0  0  0  0  0  0  0  0  0
   44.2569   36.9004   44.0275 H   0  0  0  0  0  0  0  0  0  0  0  0
   45.7300   35.4252   42.6095 H   0  0  0  0  0  0  0  0  0  0  0  0
   44.0039   34.6192   48.0941 H   0  0  0  0  0  0  0  0  0  0  0  0
   44.9956   33.1596   47.8322 H   0  0  0  0  0  0  0  0  0  0  0  0
  1  7  1  0
  2  1  1  0
  3  2  1  0
  4  3  1  0
  4  5  1  0
  5  6  1  0
  5  1  1  0
  7  8  1  0
  8 12  1  0
  9  8  2  0
 10 15  2  0
 11 12  2  0
 11 10  1  0
 12 13  1  0
 13 14  2  0
 14 16  1  0
 15 14  1  0
  1 17  1  1
  2 18  1  0
  2 19  1  0
  3 20  1  0
  3 21  1  0
  4 22  1  0
  4 23  1  0
  5 24  1  6
  6 25  1  0
 10 26  1  0
 11 27  1  0
 16 28  1  0
 16 29  1  0
M  ISO  8  17  13  18  13  19  13  20  13  21  13  22  13  23  13  24  13
M  ISO  3  25  11  26  14  27  14
M  END
>  <minimizedAffinity>  (1) 
-4.9095273

>  <minimizedRMSD>  (1) 
0.498687327

$$$$
