
     RDKit          3D

 29 30  0  0  1  0  0  0  0  0999 V2000
   48.0210   33.3810   41.4560 C   0  0  2  0  0  0  0  0  0  0  0  0
   49.1270   32.7470   41.0510 C   0  0  0  0  0  0  0  0  0  0  0  0
   48.7680   32.7510   39.5760 C   0  0  0  0  0  0  0  0  0  0  0  0
   48.0940   34.0710   39.3150 C   0  0  0  0  0  0  0  0  0  0  0  0
   47.4450   34.4430   40.6420 C   0  0  1  0  0  0  0  0  0  0  0  0
   46.0640   34.3300   40.3460 O   0  0  0  0  0  0  0  0  0  0  0  0
   48.1190   33.8610   42.7740 O   0  0  0  0  0  0  0  0  0  0  0  0
   47.0330   33.3490   43.3580 C   0  0  0  0  0  0  0  0  0  0  0  0
   46.8270   32.1360   43.1570 O   0  0  0  0  0  0  0  0  0  0  0  0
   44.6340   36.0000   44.4020 C   0  0  0  0  0  0  0  0  0  0  0  0
   45.5550   35.2580   43.6350 C   0  0  0  0  0  0  0  0  0  0  0  0
   46.1330   34.1270   44.1700 C   0  0  0  0  0  0  0  0  0  0  0  0
   45.7860   33.7950   45.3990 N   0  0  0  0  0  0  0  0  0  0  0  0
   44.9140   34.4960   46.1300 C   0  0  0  0  0  0  0  0  0  0  0  0
   44.3260   35.5940   45.6580 N   0  0  0  0  0  0  0  0  0  0  0  0
   44.6250   34.0400   47.4260 N   0  0  0  0  0  0  0  0  0  0  0  0
   47.3167   32.5428   41.3495 H   0  0  0  0  0  0  0  0  0  0  0  0
   50.0459   33.3113   41.2680 H   0  0  0  0  0  0  0  0  0  0  0  0
   49.3509   31.7748   41.5143 H   0  0  0  0  0  0  0  0  0  0  0  0
   49.6757   32.6576   38.9617 H   0  0  0  0  0  0  0  0  0  0  0  0
   48.1115   31.9065   39.3195 H   0  0  0  0  0  0  0  0  0  0  0  0
   48.8315   34.8310   39.0174 H   0  0  0  0  0  0  0  0  0  0  0  0
   47.3618   34.0097   38.4964 H   0  0  0  0  0  0  0  0  0  0  0  0
   47.5873   35.4205   41.1259 H   0  0  0  0  0  0  0  0  0  0  0  0
   45.5480   34.2878   41.1898 H   0  0  0  0  0  0  0  0  0  0  0  0
   44.1676   36.9040   43.9833 H   0  0  0  0  0  0  0  0  0  0  0  0
   45.8110   35.5800   42.6148 H   0  0  0  0  0  0  0  0  0  0  0  0
   43.9575   34.5562   48.0167 H   0  0  0  0  0  0  0  0  0  0  0  0
   45.0804   33.1892   47.7861 H   0  0  0  0  0  0  0  0  0  0  0  0
  1  7  1  0
  2  1  1  0
  3  2  1  0
  4  3  1  0
  4  5  1  0
  5  1  1  0
  6  5  1  0
  7  8  1  0
  8 12  1  0
  9  8  2  0
 10 15  2  0
 11 12  2  0
 11 10  1  0
 12 13  1  0
 13 14  2  0
 14 16  1  0
 15 14  1  0
  1 17  1  1
  2 18  1  0
  2 19  1  0
  3 20  1  0
  3 21  1  0
  4 22  1  0
  4 23  1  0
  5 24  1  1
  6 25  1  0
 10 26  1  0
 11 27  1  0
 16 28  1  0
 16 29  1  0
M  ISO  8  17  13  18  13  19  13  20  13  21  13  22  13  23  13  24  13
M  ISO  3  25   3  26  14  27  14
M  END
>  <minimizedAffinity>  (1) 
-4.8923645

>  <minimizedRMSD>  (1) 
0.285032123

$$$$
