
     RDKit          3D

 35 37  0  0  1  0  0  0  0  0999 V2000
   47.8080   34.7640   41.8730 C   0  0  2  0  0  0  0  0  0  0  0  0
   48.7650   35.6310   41.5230 C   0  0  0  0  0  0  0  0  0  0  0  0
   49.8460   35.0610   42.4170 C   0  0  0  0  0  0  0  0  0  0  0  0
   49.5800   33.6070   42.6330 C   0  0  0  0  0  0  0  0  0  0  0  0
   48.1460   33.3770   42.1230 C   0  0  2  0  0  0  0  0  0  0  0  0
   48.2690   32.5740   40.9280 N   0  0  0  0  0  0  0  0  0  0  0  0
   49.2820   32.5370   40.1070 N   0  0  0  0  0  0  0  0  0  0  0  0
   49.0670   31.6770   39.0900 C   0  0  0  0  0  0  0  0  0  0  0  0
   47.8030   31.1170   39.2840 C   0  0  0  0  0  0  0  0  0  0  0  0
   47.3450   31.7030   40.4350 C   0  0  0  0  0  0  0  0  0  0  0  0
   46.6740   34.7610   41.0500 O   0  0  0  0  0  0  0  0  0  0  0  0
   45.6730   34.9920   41.9130 C   0  0  0  0  0  0  0  0  0  0  0  0
   46.0050   35.5420   42.9890 O   0  0  0  0  0  0  0  0  0  0  0  0
   42.6080   32.9810   41.2640 C   0  0  0  0  0  0  0  0  0  0  0  0
   43.9630   33.3250   41.4670 C   0  0  0  0  0  0  0  0  0  0  0  0
   44.3010   34.6460   41.6620 C   0  0  0  0  0  0  0  0  0  0  0  0
   43.3270   35.5330   41.6450 N   0  0  0  0  0  0  0  0  0  0  0  0
   42.0360   35.2140   41.4530 C   0  0  0  0  0  0  0  0  0  0  0  0
   41.6600   33.9500   41.2620 N   0  0  0  0  0  0  0  0  0  0  0  0
   41.1010   36.2440   41.4660 N   0  0  0  0  0  0  0  0  0  0  0  0
   47.6059   35.2158   42.8554 H   0  0  0  0  0  0  0  0  0  0  0  0
   49.0225   35.5688   40.4554 H   0  0  0  0  0  0  0  0  0  0  0  0
   48.5348   36.7002   41.6403 H   0  0  0  0  0  0  0  0  0  0  0  0
   50.8275   35.1893   41.9371 H   0  0  0  0  0  0  0  0  0  0  0  0
   49.8457   35.5870   43.3831 H   0  0  0  0  0  0  0  0  0  0  0  0
   50.2947   32.9955   42.0626 H   0  0  0  0  0  0  0  0  0  0  0  0
   49.6904   33.3222   43.6897 H   0  0  0  0  0  0  0  0  0  0  0  0
   47.4079   32.8582   42.7524 H   0  0  0  0  0  0  0  0  0  0  0  0
   49.7582   31.4580   38.2628 H   0  0  0  0  0  0  0  0  0  0  0  0
   47.2907   30.3738   38.6554 H   0  0  0  0  0  0  0  0  0  0  0  0
   46.3676   31.4985   40.8964 H   0  0  0  0  0  0  0  0  0  0  0  0
   42.3230   31.9301   41.1080 H   0  0  0  0  0  0  0  0  0  0  0  0
   44.7399   32.5463   41.4693 H   0  0  0  0  0  0  0  0  0  0  0  0
   40.1027   36.0352   41.3221 H   0  0  0  0  0  0  0  0  0  0  0  0
   41.4070   37.2154   41.6195 H   0  0  0  0  0  0  0  0  0  0  0  0
  1  5  1  0
  2  1  1  0
  2  3  1  0
  3  4  1  0
  5  4  1  0
  6  5  1  0
  7  6  1  0
  8  9  1  0
  8  7  2  0
  9 10  2  0
 10  6  1  0
 11  1  1  0
 11 12  1  0
 12 13  2  0
 14 15  2  0
 15 16  1  0
 16 12  1  0
 17 16  2  0
 18 20  1  0
 18 17  1  0
 19 14  1  0
 19 18  2  0
  1 21  1  1
  2 22  1  0
  2 23  1  0
  3 24  1  0
  3 25  1  0
  4 26  1  0
  4 27  1  0
  5 28  1  1
  8 29  1  0
  9 30  1  0
 10 31  1  0
 14 32  1  0
 15 33  1  0
 20 34  1  0
 20 35  1  0
M  ISO  8  21  13  22  13  23  13  24  13  25  13  26  13  27  13  28  13
M  ISO  5  29  14  30  14  31  14  32  14  33  14
M  END
>  <minimizedAffinity>  (1) 
-4.99171734

>  <minimizedRMSD>  (1) 
4.33471489

$$$$
