
     RDKit          3D

 35 37  0  0  1  0  0  0  0  0999 V2000
   48.2670   31.8380   42.3460 C   0  0  2  0  0  0  0  0  0  0  0  0
   49.4110   31.1720   42.1400 C   0  0  0  0  0  0  0  0  0  0  0  0
   49.2510   31.0290   40.6410 C   0  0  0  0  0  0  0  0  0  0  0  0
   48.4160   32.1540   40.1270 C   0  0  0  0  0  0  0  0  0  0  0  0
   47.8190   32.8220   41.3830 C   0  0  2  0  0  0  0  0  0  0  0  0
   48.4730   34.1050   41.5010 N   0  0  0  0  0  0  0  0  0  0  0  0
   48.3690   35.3020   40.9560 C   0  0  0  0  0  0  0  0  0  0  0  0
   49.3220   36.1390   41.5170 C   0  0  0  0  0  0  0  0  0  0  0  0
   49.9970   35.3970   42.4150 N   0  0  0  0  0  0  0  0  0  0  0  0
   49.4870   34.1510   42.4130 C   0  0  0  0  0  0  0  0  0  0  0  0
   48.1480   32.4340   43.6090 O   0  0  0  0  0  0  0  0  0  0  0  0
   46.8350   32.3460   43.8660 C   0  0  0  0  0  0  0  0  0  0  0  0
   46.2920   31.2680   43.5310 O   0  0  0  0  0  0  0  0  0  0  0  0
   44.9040   35.4980   44.3050 C   0  0  0  0  0  0  0  0  0  0  0  0
   45.6980   34.4820   43.7250 C   0  0  0  0  0  0  0  0  0  0  0  0
   46.0630   33.3890   44.4790 C   0  0  0  0  0  0  0  0  0  0  0  0
   45.6510   33.3370   45.7310 N   0  0  0  0  0  0  0  0  0  0  0  0
   44.8960   34.2990   46.2900 C   0  0  0  0  0  0  0  0  0  0  0  0
   44.5110   35.3830   45.5990 N   0  0  0  0  0  0  0  0  0  0  0  0
   44.5110   34.1480   47.6290 N   0  0  0  0  0  0  0  0  0  0  0  0
   47.6073   30.9657   42.2280 H   0  0  0  0  0  0  0  0  0  0  0  0
   50.2990   31.7589   42.4175 H   0  0  0  0  0  0  0  0  0  0  0  0
   49.5614   30.2474   42.7166 H   0  0  0  0  0  0  0  0  0  0  0  0
   50.2405   31.0561   40.1612 H   0  0  0  0  0  0  0  0  0  0  0  0
   48.7619   30.0709   40.4113 H   0  0  0  0  0  0  0  0  0  0  0  0
   49.0358   32.8698   39.5672 H   0  0  0  0  0  0  0  0  0  0  0  0
   47.6342   31.8036   39.4370 H   0  0  0  0  0  0  0  0  0  0  0  0
   46.7412   33.0327   41.4462 H   0  0  0  0  0  0  0  0  0  0  0  0
   47.6431   35.5899   40.1812 H   0  0  0  0  0  0  0  0  0  0  0  0
   49.4925   37.1987   41.2761 H   0  0  0  0  0  0  0  0  0  0  0  0
   49.8290   33.3137   43.0391 H   0  0  0  0  0  0  0  0  0  0  0  0
   44.6069   36.3754   43.7117 H   0  0  0  0  0  0  0  0  0  0  0  0
   46.0224   34.5642   42.6771 H   0  0  0  0  0  0  0  0  0  0  0  0
   43.9326   34.8693   48.0830 H   0  0  0  0  0  0  0  0  0  0  0  0
   44.8064   33.3158   48.1591 H   0  0  0  0  0  0  0  0  0  0  0  0
  1 11  1  0
  2  1  1  0
  3  2  1  0
  4  3  1  0
  4  5  1  0
  5  6  1  0
  5  1  1  0
  6 10  1  0
  7  6  1  0
  7  8  2  0
  8  9  1  0
 10  9  2  0
 11 12  1  0
 12 16  1  0
 13 12  2  0
 14 19  2  0
 15 14  1  0
 15 16  2  0
 16 17  1  0
 17 18  2  0
 18 20  1  0
 19 18  1  0
  1 21  1  1
  2 22  1  0
  2 23  1  0
  3 24  1  0
  3 25  1  0
  4 26  1  0
  4 27  1  0
  5 28  1  6
  7 29  1  0
  8 30  1  0
 10 31  1  0
 14 32  1  0
 15 33  1  0
 20 34  1  0
 20 35  1  0
M  ISO  8  21  13  22  13  23  13  24  13  25  13  26  13  27  13  28  13
M  ISO  5  29  14  30  14  31  14  32  14  33  14
M  END
>  <minimizedAffinity>  (1) 
-4.94350481

>  <minimizedRMSD>  (1) 
1.54286146

$$$$
