
     RDKit          3D

 41 43  0  0  1  0  0  0  0  0999 V2000
   47.4740   32.6860   43.4270 C   0  0  2  0  0  0  0  0  0  0  0  0
   48.5690   33.2920   42.9390 C   0  0  0  0  0  0  0  0  0  0  0  0
   48.0900   33.3500   41.5030 C   0  0  0  0  0  0  0  0  0  0  0  0
   46.5980   33.3840   41.4850 C   0  0  0  0  0  0  0  0  0  0  0  0
   46.1670   33.0280   42.9230 C   0  0  2  0  0  0  0  0  0  0  0  0
   45.4800   34.1590   43.4350 N   0  0  0  0  0  0  0  0  0  0  0  0
   45.7780   35.3810   42.7380 C   0  0  0  0  0  0  0  0  0  0  0  0
   44.8000   36.4420   43.1290 C   0  0  0  0  0  0  0  0  0  0  0  0
   44.9470   36.6270   44.5160 O   0  0  0  0  0  0  0  0  0  0  0  0
   44.4930   35.4780   45.1500 C   0  0  0  0  0  0  0  0  0  0  0  0
   45.3380   34.2540   44.8310 C   0  0  0  0  0  0  0  0  0  0  0  0
   47.3720   32.6890   44.8260 O   0  0  0  0  0  0  0  0  0  0  0  0
   47.3250   31.3820   45.1320 C   0  0  0  0  0  0  0  0  0  0  0  0
   48.0640   30.6370   44.4440 O   0  0  0  0  0  0  0  0  0  0  0  0
   44.7370   29.3320   46.8460 C   0  0  0  0  0  0  0  0  0  0  0  0
   45.5340   29.9070   45.8330 C   0  0  0  0  0  0  0  0  0  0  0  0
   46.4940   30.8360   46.1670 C   0  0  0  0  0  0  0  0  0  0  0  0
   46.6320   31.1590   47.4390 N   0  0  0  0  0  0  0  0  0  0  0  0
   45.8730   30.6130   48.4120 C   0  0  0  0  0  0  0  0  0  0  0  0
   44.9270   29.7050   48.1410 N   0  0  0  0  0  0  0  0  0  0  0  0
   46.0820   31.0210   49.7280 N   0  0  0  0  0  0  0  0  0  0  0  0
   47.7099   31.6926   43.0176 H   0  0  0  0  0  0  0  0  0  0  0  0
   48.7321   34.2894   43.3733 H   0  0  0  0  0  0  0  0  0  0  0  0
   49.5376   32.8054   43.1260 H   0  0  0  0  0  0  0  0  0  0  0  0
   48.4846   34.2559   41.0197 H   0  0  0  0  0  0  0  0  0  0  0  0
   48.4463   32.4633   40.9582 H   0  0  0  0  0  0  0  0  0  0  0  0
   46.2384   34.3870   41.2119 H   0  0  0  0  0  0  0  0  0  0  0  0
   46.1801   32.6847   40.7459 H   0  0  0  0  0  0  0  0  0  0  0  0
   45.4525   32.2227   43.1488 H   0  0  0  0  0  0  0  0  0  0  0  0
   45.7135   35.2074   41.6537 H   0  0  0  0  0  0  0  0  0  0  0  0
   46.7938   35.7100   43.0024 H   0  0  0  0  0  0  0  0  0  0  0  0
   45.0206   37.3780   42.5950 H   0  0  0  0  0  0  0  0  0  0  0  0
   43.7710   36.1494   42.8728 H   0  0  0  0  0  0  0  0  0  0  0  0
   44.5135   35.6453   46.2370 H   0  0  0  0  0  0  0  0  0  0  0  0
   43.4740   35.2802   44.7859 H   0  0  0  0  0  0  0  0  0  0  0  0
   44.8419   33.3506   45.2155 H   0  0  0  0  0  0  0  0  0  0  0  0
   46.3268   34.3459   45.3042 H   0  0  0  0  0  0  0  0  0  0  0  0
   43.9681   28.5880   46.5908 H   0  0  0  0  0  0  0  0  0  0  0  0
   45.3891   29.6147   44.7825 H   0  0  0  0  0  0  0  0  0  0  0  0
   45.5152   30.6187   50.4881 H   0  0  0  0  0  0  0  0  0  0  0  0
   46.8033   31.7249   49.9406 H   0  0  0  0  0  0  0  0  0  0  0  0
  1 12  1  0
  2  1  1  0
  3  2  1  0
  4  3  1  0
  4  5  1  0
  5  1  1  0
  5  6  1  0
  6 11  1  0
  7  8  1  0
  7  6  1  0
  8  9  1  0
  9 10  1  0
 11 10  1  0
 12 13  1  0
 13 17  1  0
 14 13  2  0
 15 20  2  0
 16 17  2  0
 16 15  1  0
 17 18  1  0
 18 19  2  0
 19 21  1  0
 20 19  1  0
  1 22  1  6
  2 23  1  0
  2 24  1  0
  3 25  1  0
  3 26  1  0
  4 27  1  0
  4 28  1  0
  5 29  1  6
  7 30  1  0
  7 31  1  0
  8 32  1  0
  8 33  1  0
 10 34  1  0
 10 35  1  0
 11 36  1  0
 11 37  1  0
 15 38  1  0
 16 39  1  0
 21 40  1  0
 21 41  1  0
M  ISO  8  22  13  23  13  24  13  25  13  26  13  27  13  28  13  29  13
M  ISO  8  30  13  31  13  32  13  33  13  34  13  35  13  36  13  37  13
M  ISO  2  38  14  39  14
M  END
>  <minimizedAffinity>  (1) 
-4.86632252

>  <minimizedRMSD>  (1) 
4.44741583

$$$$
