
     RDKit          3D

 42 44  0  0  1  0  0  0  0  0999 V2000
   46.8100   31.6760   41.9650 C   0  0  2  0  0  0  0  0  0  0  0  0
   47.2670   31.0200   40.8890 C   0  0  0  0  0  0  0  0  0  0  0  0
   46.8520   32.0600   39.8740 C   0  0  0  0  0  0  0  0  0  0  0  0
   46.6750   33.3760   40.5240 C   0  0  0  0  0  0  0  0  0  0  0  0
   46.9130   33.1140   42.0350 C   0  0  2  0  0  0  0  0  0  0  0  0
   48.1560   33.7170   42.3600 N   0  0  0  0  0  0  0  0  0  0  0  0
   49.2520   32.8360   42.6000 C   0  0  0  0  0  0  0  0  0  0  0  0
   50.5340   33.6500   42.3800 C   0  0  0  0  0  0  0  0  0  0  0  0
   50.3900   35.0020   42.8740 N   0  0  0  0  0  0  0  0  0  0  0  0
   49.3470   35.7550   42.2090 C   0  0  0  0  0  0  0  0  0  0  0  0
   48.5230   34.7740   41.4270 C   0  0  0  0  0  0  0  0  0  0  0  0
   47.2730   31.1800   43.1910 O   0  0  0  0  0  0  0  0  0  0  0  0
   46.1470   31.0020   43.8970 C   0  0  0  0  0  0  0  0  0  0  0  0
   45.2020   30.4660   43.2750 O   0  0  0  0  0  0  0  0  0  0  0  0
   45.7590   33.1140   46.9300 C   0  0  0  0  0  0  0  0  0  0  0  0
   45.9580   32.7270   45.5880 C   0  0  0  0  0  0  0  0  0  0  0  0
   45.9890   31.3900   45.2700 C   0  0  0  0  0  0  0  0  0  0  0  0
   45.8300   30.5140   46.2470 N   0  0  0  0  0  0  0  0  0  0  0  0
   45.6400   30.8850   47.5310 C   0  0  0  0  0  0  0  0  0  0  0  0
   45.6010   32.1660   47.8890 N   0  0  0  0  0  0  0  0  0  0  0  0
   45.4830   29.8730   48.4850 N   0  0  0  0  0  0  0  0  0  0  0  0
   45.7460   31.4569   41.7920 H   0  0  0  0  0  0  0  0  0  0  0  0
   48.3558   30.8659   40.9172 H   0  0  0  0  0  0  0  0  0  0  0  0
   46.8974   29.9956   40.7342 H   0  0  0  0  0  0  0  0  0  0  0  0
   45.9024   31.7546   39.4103 H   0  0  0  0  0  0  0  0  0  0  0  0
   47.6378   32.1439   39.1089 H   0  0  0  0  0  0  0  0  0  0  0  0
   47.4075   34.0997   40.1372 H   0  0  0  0  0  0  0  0  0  0  0  0
   45.6791   33.8013   40.3306 H   0  0  0  0  0  0  0  0  0  0  0  0
   46.2633   33.5157   42.8265 H   0  0  0  0  0  0  0  0  0  0  0  0
   49.2155   32.4594   43.6329 H   0  0  0  0  0  0  0  0  0  0  0  0
   49.2154   31.9686   41.9246 H   0  0  0  0  0  0  0  0  0  0  0  0
   51.3642   33.1612   42.9108 H   0  0  0  0  0  0  0  0  0  0  0  0
   50.7353   33.6950   41.2995 H   0  0  0  0  0  0  0  0  0  0  0  0
   50.1702   34.9595   43.8794 H   0  0  0  0  0  0  0  0  0  0  0  0
   48.7187   36.2668   42.9528 H   0  0  0  0  0  0  0  0  0  0  0  0
   49.7786   36.5193   41.5460 H   0  0  0  0  0  0  0  0  0  0  0  0
   47.6209   35.2636   41.0314 H   0  0  0  0  0  0  0  0  0  0  0  0
   49.0830   34.3745   40.5686 H   0  0  0  0  0  0  0  0  0  0  0  0
   45.7319   34.1804   47.1985 H   0  0  0  0  0  0  0  0  0  0  0  0
   46.0871   33.4876   44.8039 H   0  0  0  0  0  0  0  0  0  0  0  0
   45.3360   30.1167   49.4749 H   0  0  0  0  0  0  0  0  0  0  0  0
   45.5145   28.8845   48.1972 H   0  0  0  0  0  0  0  0  0  0  0  0
  1  5  1  0
  1 12  1  0
  2  1  1  0
  3  4  1  0
  3  2  1  0
  4  5  1  0
  5  6  1  0
  6  7  1  0
  8  7  1  0
  8  9  1  0
 10  9  1  0
 11 10  1  0
 11  6  1  0
 12 13  1  0
 13 17  1  0
 14 13  2  0
 15 20  2  0
 16 15  1  0
 17 16  2  0
 17 18  1  0
 18 19  2  0
 19 20  1  0
 19 21  1  0
  1 22  1  1
  2 23  1  0
  2 24  1  0
  3 25  1  0
  3 26  1  0
  4 27  1  0
  4 28  1  0
  5 29  1  1
  7 30  1  0
  7 31  1  0
  8 32  1  0
  8 33  1  0
  9 34  1  0
 10 35  1  0
 10 36  1  0
 11 37  1  0
 11 38  1  0
 15 39  1  0
 16 40  1  0
 21 41  1  0
 21 42  1  0
M  ISO  8  22  13  23  13  24  13  25  13  26  13  27  13  28  13  29  13
M  ISO  8  30  13  31  13  32  13  33  13  34   5  35  13  36  13  37  13
M  ISO  3  38  13  39  14  40  14
M  END
>  <minimizedAffinity>  (1) 
-4.55660343

>  <minimizedRMSD>  (1) 
3.31918526

$$$$
