
     RDKit          3D

 40 42  0  0  1  0  0  0  0  0999 V2000
   47.3150   31.7450   41.7100 C   0  0  2  0  0  0  0  0  0  0  0  0
   48.1480   30.7890   41.2630 C   0  0  0  0  0  0  0  0  0  0  0  0
   48.0410   31.1590   39.8000 C   0  0  0  0  0  0  0  0  0  0  0  0
   47.6220   32.5780   39.6630 C   0  0  0  0  0  0  0  0  0  0  0  0
   47.3200   33.0560   41.1060 C   0  0  2  0  0  0  0  0  0  0  0  0
   48.2800   33.9970   41.4660 N   0  0  0  0  0  0  0  0  0  0  0  0
   47.9740   35.3540   41.6630 C   0  0  0  0  0  0  0  0  0  0  0  0
   49.3830   35.9460   41.8170 C   0  0  0  0  0  0  0  0  0  0  0  0
   50.1430   34.7840   42.4620 C   0  0  0  0  0  0  0  0  0  0  0  0
   49.0980   33.6860   42.6020 C   0  0  0  0  0  0  0  0  0  0  0  0
   47.3620   31.9540   43.0960 O   0  0  0  0  0  0  0  0  0  0  0  0
   46.0780   32.1400   43.4240 C   0  0  0  0  0  0  0  0  0  0  0  0
   45.2710   31.3300   42.9150 O   0  0  0  0  0  0  0  0  0  0  0  0
   44.6890   35.3920   44.5610 C   0  0  0  0  0  0  0  0  0  0  0  0
   45.2040   34.3750   43.7290 C   0  0  0  0  0  0  0  0  0  0  0  0
   45.6000   33.1770   44.2870 C   0  0  0  0  0  0  0  0  0  0  0  0
   45.4810   33.0280   45.5940 N   0  0  0  0  0  0  0  0  0  0  0  0
   44.9860   34.0080   46.3890 C   0  0  0  0  0  0  0  0  0  0  0  0
   44.5890   35.1810   45.8960 N   0  0  0  0  0  0  0  0  0  0  0  0
   44.8990   33.7520   47.7620 N   0  0  0  0  0  0  0  0  0  0  0  0
   46.3882   31.2563   41.3750 H   0  0  0  0  0  0  0  0  0  0  0  0
   49.1698   30.8980   41.6554 H   0  0  0  0  0  0  0  0  0  0  0  0
   47.9129   29.7499   41.5367 H   0  0  0  0  0  0  0  0  0  0  0  0
   49.0194   31.0200   39.3168 H   0  0  0  0  0  0  0  0  0  0  0  0
   47.2915   30.5136   39.3186 H   0  0  0  0  0  0  0  0  0  0  0  0
   48.4308   33.1775   39.2198 H   0  0  0  0  0  0  0  0  0  0  0  0
   46.7481   32.6859   39.0038 H   0  0  0  0  0  0  0  0  0  0  0  0
   46.4094   33.6145   41.3684 H   0  0  0  0  0  0  0  0  0  0  0  0
   47.4480   35.7806   40.7962 H   0  0  0  0  0  0  0  0  0  0  0  0
   47.3014   35.5513   42.5108 H   0  0  0  0  0  0  0  0  0  0  0  0
   49.8138   36.2135   40.8408 H   0  0  0  0  0  0  0  0  0  0  0  0
   49.4132   36.8770   42.4021 H   0  0  0  0  0  0  0  0  0  0  0  0
   50.9714   34.4543   41.8178 H   0  0  0  0  0  0  0  0  0  0  0  0
   50.5957   35.0600   43.4258 H   0  0  0  0  0  0  0  0  0  0  0  0
   48.5391   33.7684   43.5458 H   0  0  0  0  0  0  0  0  0  0  0  0
   49.4949   32.6604   42.6284 H   0  0  0  0  0  0  0  0  0  0  0  0
   44.3702   36.3516   44.1279 H   0  0  0  0  0  0  0  0  0  0  0  0
   45.2890   34.5362   42.6442 H   0  0  0  0  0  0  0  0  0  0  0  0
   44.5281   34.4725   48.3977 H   0  0  0  0  0  0  0  0  0  0  0  0
   45.2059   32.8431   48.1369 H   0  0  0  0  0  0  0  0  0  0  0  0
  1 11  1  0
  2  1  1  0
  3  2  1  0
  4  3  1  0
  4  5  1  0
  5  6  1  0
  5  1  1  0
  6  7  1  0
  6 10  1  0
  7  8  1  0
  8  9  1  0
  9 10  1  0
 11 12  1  0
 12 16  1  0
 13 12  2  0
 14 19  2  0
 15 16  2  0
 15 14  1  0
 16 17  1  0
 17 18  2  0
 18 20  1  0
 19 18  1  0
  1 21  1  1
  2 22  1  0
  2 23  1  0
  3 24  1  0
  3 25  1  0
  4 26  1  0
  4 27  1  0
  5 28  1  6
  7 29  1  0
  7 30  1  0
  8 31  1  0
  8 32  1  0
  9 33  1  0
  9 34  1  0
 10 35  1  0
 10 36  1  0
 14 37  1  0
 15 38  1  0
 20 39  1  0
 20 40  1  0
M  ISO  8  21  13  22  13  23  13  24  13  25  13  26  13  27  13  28  13
M  ISO  8  29  13  30  13  31  13  32  13  33  13  34  13  35  13  36  13
M  ISO  2  37  14  38  14
M  END
>  <minimizedAffinity>  (1) 
-4.74637079

>  <minimizedRMSD>  (1) 
1.84327579

$$$$
