
     RDKit          3D

 19 20  0  0  0  0  0  0  0  0999 V2000
   44.8700   34.8530   45.2370 C   0  0  0  0  0  0  0  0  0  0  0  0
   45.4080   35.0950   43.9740 C   0  0  0  0  0  0  0  0  0  0  0  0
   46.4910   34.3600   43.5020 C   0  0  0  0  0  0  0  0  0  0  0  0
   46.9860   33.3960   44.3510 N   0  0  0  0  0  0  0  0  0  0  0  0
   46.4560   33.1690   45.5750 C   0  0  0  0  0  0  0  0  0  0  0  0
   45.4150   33.8950   45.9980 N   0  0  0  0  0  0  0  0  0  0  0  0
   47.1040   34.5310   42.2410 N   0  0  0  0  0  0  0  0  0  0  0  0
   46.8880   34.0650   41.0070 C   0  0  0  0  0  0  0  0  0  0  0  0
   47.7820   34.5480   40.1400 N   0  0  0  0  0  0  0  0  0  0  0  0
   48.5860   35.3480   40.8730 C   0  0  0  0  0  0  0  0  0  0  0  0
   48.1710   35.3430   42.1810 N   0  0  0  0  0  0  0  0  0  0  0  0
   44.8780   36.1200   43.0790 C   0  0  0  0  0  0  0  0  0  0  0  0
   44.1530   35.7620   42.1470 O   0  0  0  0  0  0  0  0  0  0  0  0
   45.1630   37.4690   43.2450 O   0  0  0  0  0  0  0  0  0  0  0  0
   44.0132   35.4383   45.6021 H   0  0  0  0  0  0  0  0  0  0  0  0
   46.8810   32.3876   46.2222 H   0  0  0  0  0  0  0  0  0  0  0  0
   46.0770   33.3717   40.7394 H   0  0  0  0  0  0  0  0  0  0  0  0
   49.4424   35.9166   40.4815 H   0  0  0  0  0  0  0  0  0  0  0  0
   44.7854   38.1355   42.6179 H   0  0  0  0  0  0  0  0  0  0  0  0
  1  6  2  0
  2  1  1  0
  3  2  2  0
  3  4  1  0
  4  5  2  0
  5  6  1  0
  7  3  1  0
  8  7  1  0
  9 10  1  0
  9  8  2  0
 10 11  2  0
 11  7  1  0
 12 14  1  0
 12  2  1  0
 13 12  2  0
  1 15  1  0
  5 16  1  0
  8 17  1  0
 10 18  1  0
 14 19  1  0
M  ISO  5  15  14  16  14  17  14  18  14  19   3
M  END
>  <minimizedAffinity>  (1) 
-4.57709217

>  <minimizedRMSD>  (1) 
1.05668759

$$$$
