
     RDKit          3D

 23 25  0  0  0  0  0  0  0  0999 V2000
   45.3350   36.2100   43.1850 C   0  0  0  0  0  0  0  0  0  0  0  0
   45.9440   34.9740   42.9220 C   0  0  0  0  0  0  0  0  0  0  0  0
   45.8610   33.9750   43.8910 C   0  0  0  0  0  0  0  0  0  0  0  0
   45.1870   34.2640   45.0450 N   0  0  0  0  0  0  0  0  0  0  0  0
   44.6110   35.4640   45.2710 C   0  0  0  0  0  0  0  0  0  0  0  0
   44.6890   36.4290   44.3380 N   0  0  0  0  0  0  0  0  0  0  0  0
   46.4290   32.6780   43.7590 N   0  0  0  0  0  0  0  0  0  0  0  0
   45.9630   31.4600   43.4170 C   0  0  0  0  0  0  0  0  0  0  0  0
   46.9580   30.5550   43.4550 N   0  0  0  0  0  0  0  0  0  0  0  0
   48.0600   31.2450   43.8330 C   0  0  0  0  0  0  0  0  0  0  0  0
   47.7480   32.5550   44.0230 N   0  0  0  0  0  0  0  0  0  0  0  0
   46.6540   34.6660   41.7070 C   0  0  0  0  0  0  0  0  0  0  0  0
   46.0510   33.9950   40.6550 C   0  0  0  0  0  0  0  0  0  0  0  0
   46.9810   33.8460   39.6370 C   0  0  0  0  0  0  0  0  0  0  0  0
   48.1150   34.4460   40.1360 C   0  0  0  0  0  0  0  0  0  0  0  0
   47.8830   34.9090   41.3410 O   0  0  0  0  0  0  0  0  0  0  0  0
   45.3887   37.0113   42.4333 H   0  0  0  0  0  0  0  0  0  0  0  0
   44.0795   35.6516   46.2156 H   0  0  0  0  0  0  0  0  0  0  0  0
   44.9202   31.2382   43.1461 H   0  0  0  0  0  0  0  0  0  0  0  0
   49.0613   30.8096   43.9668 H   0  0  0  0  0  0  0  0  0  0  0  0
   45.0100   33.6403   40.6314 H   0  0  0  0  0  0  0  0  0  0  0  0
   46.8443   33.3614   38.6590 H   0  0  0  0  0  0  0  0  0  0  0  0
   49.0739   34.5254   39.6029 H   0  0  0  0  0  0  0  0  0  0  0  0
  1  6  2  0
  2  1  1  0
  2  3  2  0
  3  4  1  0
  4  5  2  0
  6  5  1  0
  7  3  1  0
  7 11  1  0
  8  9  2  0
  8  7  1  0
  9 10  1  0
 10 11  2  0
 12  2  1  0
 13 12  2  0
 14 15  2  0
 14 13  1  0
 15 16  1  0
 16 12  1  0
  1 17  1  0
  5 18  1  0
  8 19  1  0
 10 20  1  0
 13 21  1  0
 14 22  1  0
 15 23  1  0
M  ISO  7  17  14  18  14  19  14  20  14  21  14  22  14  23  14
M  END
>  <minimizedAffinity>  (1) 
-4.30553389

>  <minimizedRMSD>  (1) 
3.46357393

$$$$
