
     RDKit          3D

 26 28  0  0  0  0  0  0  0  0999 V2000
   45.2300   33.6280   45.0060 C   0  0  0  0  0  0  0  0  0  0  0  0
   45.5150   33.8110   43.6530 C   0  0  0  0  0  0  0  0  0  0  0  0
   46.7380   33.3920   43.1430 C   0  0  0  0  0  0  0  0  0  0  0  0
   47.6100   32.8110   44.0210 N   0  0  0  0  0  0  0  0  0  0  0  0
   47.3100   32.6430   45.3360 C   0  0  0  0  0  0  0  0  0  0  0  0
   46.1280   33.0530   45.8050 N   0  0  0  0  0  0  0  0  0  0  0  0
   44.6030   34.4110   42.7720 N   0  0  0  0  0  0  0  0  0  0  0  0
   43.8170   33.4820   42.1670 C   0  0  0  0  0  0  0  0  0  0  0  0
   42.8320   33.8540   41.2440 C   0  0  0  0  0  0  0  0  0  0  0  0
   42.6760   35.1930   40.9620 C   0  0  0  0  0  0  0  0  0  0  0  0
   41.7970   35.5700   40.1340 O   0  0  0  0  0  0  0  0  0  0  0  0
   43.4700   36.0740   41.5790 N   0  0  0  0  0  0  0  0  0  0  0  0
   44.4150   35.7080   42.4660 C   0  0  0  0  0  0  0  0  0  0  0  0
   45.1940   36.4800   43.0810 O   0  0  0  0  0  0  0  0  0  0  0  0
   47.1400   33.5270   41.7880 N   0  0  0  0  0  0  0  0  0  0  0  0
   47.0580   32.7800   40.6810 C   0  0  0  0  0  0  0  0  0  0  0  0
   47.6150   33.4020   39.6370 N   0  0  0  0  0  0  0  0  0  0  0  0
   48.0610   34.5810   40.1180 C   0  0  0  0  0  0  0  0  0  0  0  0
   47.7710   34.6700   41.4510 N   0  0  0  0  0  0  0  0  0  0  0  0
   44.2633   33.9586   45.4137 H   0  0  0  0  0  0  0  0  0  0  0  0
   48.0381   32.1709   46.0120 H   0  0  0  0  0  0  0  0  0  0  0  0
   43.9573   32.4177   42.4069 H   0  0  0  0  0  0  0  0  0  0  0  0
   42.1996   33.0970   40.7571 H   0  0  0  0  0  0  0  0  0  0  0  0
   43.3541   37.0753   41.3670 H   0  0  0  0  0  0  0  0  0  0  0  0
   46.5930   31.7841   40.6359 H   0  0  0  0  0  0  0  0  0  0  0  0
   48.5784   35.3521   39.5283 H   0  0  0  0  0  0  0  0  0  0  0  0
  1  6  2  0
  2  1  1  0
  3  2  2  0
  3  4  1  0
  4  5  2  0
  5  6  1  0
  7  2  1  0
  8  7  1  0
  9  8  2  0
 10  9  1  0
 10 12  1  0
 11 10  2  0
 12 13  1  0
 13  7  1  0
 13 14  2  0
 15  3  1  0
 16 15  1  0
 17 18  1  0
 17 16  2  0
 18 19  2  0
 19 15  1  0
  1 20  1  0
  5 21  1  0
  8 22  1  0
  9 23  1  0
 12 24  1  0
 16 25  1  0
 18 26  1  0
M  ISO  7  20  14  21  14  22  14  23  14  24   9  25  14  26  14
M  END
>  <minimizedAffinity>  (1) 
-4.36256886

>  <minimizedRMSD>  (1) 
2.60386252

$$$$
