
     RDKit          3D

 17 18  0  0  0  0  0  0  0  0999 V2000
   44.4980   35.7290   45.0150 C   0  0  0  0  0  0  0  0  0  0  0  0
   45.1130   35.7740   43.7550 C   0  0  0  0  0  0  0  0  0  0  0  0
   46.0460   34.7650   43.4330 C   0  0  0  0  0  0  0  0  0  0  0  0
   46.2940   33.8080   44.3630 N   0  0  0  0  0  0  0  0  0  0  0  0
   45.6820   33.7940   45.5730 C   0  0  0  0  0  0  0  0  0  0  0  0
   44.7900   34.7610   45.8770 N   0  0  0  0  0  0  0  0  0  0  0  0
   46.7350   34.7000   42.1910 N   0  0  0  0  0  0  0  0  0  0  0  0
   46.4840   34.0890   41.0070 C   0  0  0  0  0  0  0  0  0  0  0  0
   47.4830   34.3560   40.1430 N   0  0  0  0  0  0  0  0  0  0  0  0
   48.3520   35.1380   40.8160 C   0  0  0  0  0  0  0  0  0  0  0  0
   47.8940   35.3550   42.0840 N   0  0  0  0  0  0  0  0  0  0  0  0
   44.9090   36.7170   42.7570 O   0  0  0  0  0  0  0  0  0  0  0  0
   43.7668   36.5027   45.2921 H   0  0  0  0  0  0  0  0  0  0  0  0
   45.9103   33.0015   46.3008 H   0  0  0  0  0  0  0  0  0  0  0  0
   45.6014   33.4709   40.7859 H   0  0  0  0  0  0  0  0  0  0  0  0
   49.2894   35.5407   40.4048 H   0  0  0  0  0  0  0  0  0  0  0  0
   45.4028   36.6473   41.9018 H   0  0  0  0  0  0  0  0  0  0  0  0
  1  6  2  0
  2  1  1  0
  3  2  2  0
  3  4  1  0
  4  5  2  0
  5  6  1  0
  7  3  1  0
  8  7  1  0
  9 10  1  0
  9  8  2  0
 10 11  2  0
 11  7  1  0
 12  2  1  0
  1 13  1  0
  5 14  1  0
  8 15  1  0
 10 16  1  0
 12 17  1  0
M  ISO  5  13  14  14  14  15  14  16  14  17   3
M  END
>  <minimizedAffinity>  (1) 
-4.26853657

>  <minimizedRMSD>  (1) 
0.359255999

$$$$
