
     RDKit          3D

 23 25  0  0  0  0  0  0  0  0999 V2000
   46.0730   35.5120   42.9680 C   0  0  0  0  0  0  0  0  0  0  0  0
   46.5690   34.3550   43.6050 C   0  0  0  0  0  0  0  0  0  0  0  0
   45.9500   33.9440   44.7720 C   0  0  0  0  0  0  0  0  0  0  0  0
   44.8930   34.6960   45.2300 N   0  0  0  0  0  0  0  0  0  0  0  0
   44.4450   35.7990   44.5950 C   0  0  0  0  0  0  0  0  0  0  0  0
   45.0400   36.1950   43.4700 N   0  0  0  0  0  0  0  0  0  0  0  0
   46.3160   32.8050   45.5190 N   0  0  0  0  0  0  0  0  0  0  0  0
   46.1400   31.4610   45.3690 C   0  0  0  0  0  0  0  0  0  0  0  0
   46.6910   30.8030   46.4050 N   0  0  0  0  0  0  0  0  0  0  0  0
   47.2150   31.7610   47.2050 C   0  0  0  0  0  0  0  0  0  0  0  0
   46.9910   33.0060   46.6710 N   0  0  0  0  0  0  0  0  0  0  0  0
   47.6790   33.6710   43.0230 C   0  0  0  0  0  0  0  0  0  0  0  0
   47.9060   32.5300   42.3110 C   0  0  0  0  0  0  0  0  0  0  0  0
   49.1960   32.3400   42.0100 N   0  0  0  0  0  0  0  0  0  0  0  0
   49.8660   33.3940   42.5400 C   0  0  0  0  0  0  0  0  0  0  0  0
   48.9350   34.1620   43.1320 N   0  0  0  0  0  0  0  0  0  0  0  0
   46.5469   35.8593   42.0380 H   0  0  0  0  0  0  0  0  0  0  0  0
   43.5956   36.3668   45.0025 H   0  0  0  0  0  0  0  0  0  0  0  0
   45.6226   30.9841   44.5235 H   0  0  0  0  0  0  0  0  0  0  0  0
   47.7453   31.5692   48.1494 H   0  0  0  0  0  0  0  0  0  0  0  0
   47.1074   31.8345   42.0135 H   0  0  0  0  0  0  0  0  0  0  0  0
   50.9489   33.5816   42.4946 H   0  0  0  0  0  0  0  0  0  0  0  0
   49.1567   35.0405   43.6219 H   0  0  0  0  0  0  0  0  0  0  0  0
  1  6  2  0
  1  2  1  0
  2  3  2  0
  3  4  1  0
  3  7  1  0
  5  4  2  0
  6  5  1  0
  7 11  1  0
  8  7  1  0
  8  9  2  0
  9 10  1  0
 11 10  2  0
 12 16  1  0
 12  2  1  0
 13 12  2  0
 14 13  1  0
 14 15  2  0
 15 16  1  0
  1 17  1  0
  5 18  1  0
  8 19  1  0
 10 20  1  0
 13 21  1  0
 15 22  1  0
 16 23  1  0
M  ISO  7  17  14  18  14  19  14  20  14  21  14  22  14  23   9
M  END
>  <minimizedAffinity>  (1) 
-4.5106163

>  <minimizedRMSD>  (1) 
5.19080114

$$$$
