
     RDKit          3D

 30 33  0  0  0  0  0  0  0  0999 V2000
   44.9650   34.2260   43.7400 C   0  0  0  0  0  0  0  0  0  0  0  0
   45.0000   33.8690   42.3720 C   0  0  0  0  0  0  0  0  0  0  0  0
   46.1810   33.3740   41.8330 C   0  0  0  0  0  0  0  0  0  0  0  0
   47.2470   33.2600   42.6620 N   0  0  0  0  0  0  0  0  0  0  0  0
   47.1990   33.6070   43.9780 C   0  0  0  0  0  0  0  0  0  0  0  0
   46.0680   34.0820   44.5000 N   0  0  0  0  0  0  0  0  0  0  0  0
   43.8390   33.9810   41.5350 C   0  0  0  0  0  0  0  0  0  0  0  0
   43.6450   35.1130   40.7950 N   0  0  0  0  0  0  0  0  0  0  0  0
   42.5580   35.2760   39.9900 C   0  0  0  0  0  0  0  0  0  0  0  0
   41.6330   34.2700   39.9180 N   0  0  0  0  0  0  0  0  0  0  0  0
   41.7200   33.1340   40.5900 C   0  0  0  0  0  0  0  0  0  0  0  0
   40.8010   32.1010   40.5510 C   0  0  0  0  0  0  0  0  0  0  0  0
   40.9390   30.9400   41.2880 C   0  0  0  0  0  0  0  0  0  0  0  0
   42.0940   30.9060   42.0740 C   0  0  0  0  0  0  0  0  0  0  0  0
   43.0630   31.8930   42.1690 C   0  0  0  0  0  0  0  0  0  0  0  0
   42.8350   33.0330   41.3860 C   0  0  0  0  0  0  0  0  0  0  0  0
   46.3350   32.9860   40.4690 N   0  0  0  0  0  0  0  0  0  0  0  0
   46.0220   31.8930   39.7650 C   0  0  0  0  0  0  0  0  0  0  0  0
   46.4140   32.0450   38.4780 N   0  0  0  0  0  0  0  0  0  0  0  0
   46.9740   33.2520   38.4040 C   0  0  0  0  0  0  0  0  0  0  0  0
   46.9350   33.8550   39.6350 N   0  0  0  0  0  0  0  0  0  0  0  0
   44.0386   34.6206   44.1828 H   0  0  0  0  0  0  0  0  0  0  0  0
   48.0926   33.4955   44.6097 H   0  0  0  0  0  0  0  0  0  0  0  0
   42.4262   36.2001   39.4081 H   0  0  0  0  0  0  0  0  0  0  0  0
   39.9188   32.2086   39.9029 H   0  0  0  0  0  0  0  0  0  0  0  0
   40.2076   30.1189   41.2586 H   0  0  0  0  0  0  0  0  0  0  0  0
   42.2507   30.0018   42.6806 H   0  0  0  0  0  0  0  0  0  0  0  0
   43.9483   31.7888   42.8134 H   0  0  0  0  0  0  0  0  0  0  0  0
   45.5204   31.0024   40.1713 H   0  0  0  0  0  0  0  0  0  0  0  0
   47.4024   33.6970   37.4938 H   0  0  0  0  0  0  0  0  0  0  0  0
  1  6  2  0
  2  1  1  0
  3  2  2  0
  3  4  1  0
  4  5  2  0
  5  6  1  0
  7  2  1  0
  8  7  2  0
  9  8  1  0
 10  9  2  0
 10 11  1  0
 11 16  2  0
 12 11  1  0
 12 13  2  0
 13 14  1  0
 14 15  2  0
 16  7  1  0
 16 15  1  0
 17  3  1  0
 18 17  1  0
 19 18  2  0
 20 19  1  0
 20 21  2  0
 21 17  1  0
  1 22  1  0
  5 23  1  0
  9 24  1  0
 12 25  1  0
 13 26  1  0
 14 27  1  0
 15 28  1  0
 18 29  1  0
 20 30  1  0
M  ISO  8  22  14  23  14  24  14  25  14  26  14  27  14  28  14  29  14
M  ISO  1  30  14
M  END
>  <minimizedAffinity>  (1) 
-4.10761261

>  <minimizedRMSD>  (1) 
3.81469536

$$$$
