
     RDKit          3D

 28 29  0  0  0  0  0  0  0  0999 V2000
   45.4900   34.2550   45.1650 C   0  0  0  0  0  0  0  0  0  0  0  0
   46.1910   34.0730   43.9550 C   0  0  0  0  0  0  0  0  0  0  0  0
   47.0890   33.0090   43.8940 C   0  0  0  0  0  0  0  0  0  0  0  0
   47.2300   32.2210   44.9970 N   0  0  0  0  0  0  0  0  0  0  0  0
   46.5410   32.4280   46.1370 C   0  0  0  0  0  0  0  0  0  0  0  0
   45.6790   33.4440   46.2090 N   0  0  0  0  0  0  0  0  0  0  0  0
   47.8860   32.6840   42.7550 N   0  0  0  0  0  0  0  0  0  0  0  0
   47.6960   31.9990   41.6250 C   0  0  0  0  0  0  0  0  0  0  0  0
   48.8220   32.0130   40.8840 N   0  0  0  0  0  0  0  0  0  0  0  0
   49.7230   32.7240   41.5760 C   0  0  0  0  0  0  0  0  0  0  0  0
   49.1540   33.1530   42.7510 N   0  0  0  0  0  0  0  0  0  0  0  0
   46.0240   34.9360   42.7690 C   0  0  0  0  0  0  0  0  0  0  0  0
   47.2720   35.3690   42.0910 C   0  0  0  0  0  0  0  0  0  0  0  0
   45.2290   34.1270   41.7570 C   0  0  0  0  0  0  0  0  0  0  0  0
   45.1720   36.1540   43.0810 C   0  0  0  0  0  0  0  0  0  0  0  0
   44.7715   35.0835   45.2508 H   0  0  0  0  0  0  0  0  0  0  0  0
   46.6883   31.7642   47.0016 H   0  0  0  0  0  0  0  0  0  0  0  0
   46.7592   31.4974   41.3407 H   0  0  0  0  0  0  0  0  0  0  0  0
   50.7543   32.9313   41.2544 H   0  0  0  0  0  0  0  0  0  0  0  0
   48.0276   35.6312   42.8462 H   0  0  0  0  0  0  0  0  0  0  0  0
   47.6509   34.5498   41.4622 H   0  0  0  0  0  0  0  0  0  0  0  0
   47.0621   36.2468   41.4622 H   0  0  0  0  0  0  0  0  0  0  0  0
   44.5533   33.4394   42.2867 H   0  0  0  0  0  0  0  0  0  0  0  0
   44.6386   34.8076   41.1260 H   0  0  0  0  0  0  0  0  0  0  0  0
   45.9198   33.5486   41.1260 H   0  0  0  0  0  0  0  0  0  0  0  0
   45.0884   36.2735   44.1713 H   0  0  0  0  0  0  0  0  0  0  0  0
   45.6412   37.0501   42.6488 H   0  0  0  0  0  0  0  0  0  0  0  0
   44.1693   36.0205   42.6488 H   0  0  0  0  0  0  0  0  0  0  0  0
  1  6  2  0
  2  1  1  0
  3  2  2  0
  3  4  1  0
  4  5  2  0
  5  6  1  0
  7  3  1  0
  8  7  1  0
  9 10  1  0
  9  8  2  0
 10 11  2  0
 11  7  1  0
 12 15  1  0
 12  2  1  0
 13 12  1  0
 14 12  1  0
  1 16  1  0
  5 17  1  0
  8 18  1  0
 10 19  1  0
 13 20  1  0
 13 21  1  0
 13 22  1  0
 14 23  1  0
 14 24  1  0
 14 25  1  0
 15 26  1  0
 15 27  1  0
 15 28  1  0
M  ISO  8  16  14  17  14  18  14  19  14  20   8  21   8  22   8  23   8
M  ISO  5  24   8  25   8  26   8  27   8  28   8
M  END
>  <minimizedAffinity>  (1) 
-3.99540925

>  <minimizedRMSD>  (1) 
2.43422556

$$$$
