
     RDKit          3D

 23 25  0  0  0  0  0  0  0  0999 V2000
   45.0460   34.0030   46.0840 C   0  0  0  0  0  0  0  0  0  0  0  0
   45.5980   34.1100   44.8060 C   0  0  0  0  0  0  0  0  0  0  0  0
   46.7280   33.3710   44.4760 C   0  0  0  0  0  0  0  0  0  0  0  0
   47.2560   32.5520   45.4520 N   0  0  0  0  0  0  0  0  0  0  0  0
   46.6940   32.4690   46.6890 C   0  0  0  0  0  0  0  0  0  0  0  0
   45.6060   33.1890   46.9880 N   0  0  0  0  0  0  0  0  0  0  0  0
   47.3740   33.3990   43.2120 N   0  0  0  0  0  0  0  0  0  0  0  0
   47.3050   32.6380   42.0960 C   0  0  0  0  0  0  0  0  0  0  0  0
   48.1490   33.1130   41.1690 N   0  0  0  0  0  0  0  0  0  0  0  0
   48.7400   34.1770   41.7210 C   0  0  0  0  0  0  0  0  0  0  0  0
   48.2650   34.3650   42.9960 N   0  0  0  0  0  0  0  0  0  0  0  0
   45.0350   34.9770   43.7790 C   0  0  0  0  0  0  0  0  0  0  0  0
   44.2710   34.4920   42.7220 C   0  0  0  0  0  0  0  0  0  0  0  0
   43.9270   35.5990   41.9760 C   0  0  0  0  0  0  0  0  0  0  0  0
   44.4590   36.7130   42.5550 N   0  0  0  0  0  0  0  0  0  0  0  0
   45.1160   36.3130   43.6300 N   0  0  0  0  0  0  0  0  0  0  0  0
   44.1519   34.5868   46.3481 H   0  0  0  0  0  0  0  0  0  0  0  0
   47.1366   31.8064   47.4473 H   0  0  0  0  0  0  0  0  0  0  0  0
   46.6539   31.7607   41.9681 H   0  0  0  0  0  0  0  0  0  0  0  0
   49.4942   34.8079   41.2279 H   0  0  0  0  0  0  0  0  0  0  0  0
   43.9987   33.4449   42.5234 H   0  0  0  0  0  0  0  0  0  0  0  0
   43.3196   35.5858   41.0590 H   0  0  0  0  0  0  0  0  0  0  0  0
   44.3665   37.6821   42.2186 H   0  0  0  0  0  0  0  0  0  0  0  0
  1  6  2  0
  2  1  1  0
  3  2  2  0
  3  4  1  0
  4  5  2  0
  5  6  1  0
  7  3  1  0
  8  7  1  0
  9 10  1  0
  9  8  2  0
 10 11  2  0
 11  7  1  0
 12  2  1  0
 13 12  1  0
 14 15  1  0
 14 13  2  0
 15 16  1  0
 16 12  2  0
  1 17  1  0
  5 18  1  0
  8 19  1  0
 10 20  1  0
 13 21  1  0
 14 22  1  0
 15 23  1  0
M  ISO  7  17  14  18  14  19  14  20  14  21  14  22  14  23   9
M  END
>  <minimizedAffinity>  (1) 
-4.09344959

>  <minimizedRMSD>  (1) 
2.29408193

$$$$
