
     RDKit          3D

 18 19  0  0  0  0  0  0  0  0999 V2000
   44.9180   34.9350   45.0590 C   0  0  0  0  0  0  0  0  0  0  0  0
   45.4560   35.1970   43.7910 C   0  0  0  0  0  0  0  0  0  0  0  0
   46.5330   34.4320   43.3630 C   0  0  0  0  0  0  0  0  0  0  0  0
   47.0180   33.4550   44.2050 N   0  0  0  0  0  0  0  0  0  0  0  0
   46.4730   33.2280   45.4270 C   0  0  0  0  0  0  0  0  0  0  0  0
   45.4330   33.9670   45.8370 N   0  0  0  0  0  0  0  0  0  0  0  0
   47.1770   34.5870   42.1080 N   0  0  0  0  0  0  0  0  0  0  0  0
   46.9910   34.0960   40.8710 C   0  0  0  0  0  0  0  0  0  0  0  0
   47.9180   34.5720   40.0280 N   0  0  0  0  0  0  0  0  0  0  0  0
   48.6920   35.3750   40.7600 C   0  0  0  0  0  0  0  0  0  0  0  0
   48.2540   35.3980   42.0430 N   0  0  0  0  0  0  0  0  0  0  0  0
   44.9430   36.2310   42.9010 C   0  0  0  0  0  0  0  0  0  0  0  0
   44.0560   35.8580   42.0920 O   0  0  0  0  0  0  0  0  0  0  0  0
   44.0652   35.5279   45.4212 H   0  0  0  0  0  0  0  0  0  0  0  0
   46.8829   32.4414   46.0776 H   0  0  0  0  0  0  0  0  0  0  0  0
   46.1881   33.3990   40.5889 H   0  0  0  0  0  0  0  0  0  0  0  0
   49.5581   35.9359   40.3788 H   0  0  0  0  0  0  0  0  0  0  0  0
   45.3076   37.2683   42.9349 H   0  0  0  0  0  0  0  0  0  0  0  0
  1  6  2  0
  2  1  1  0
  3  2  2  0
  3  4  1  0
  4  5  2  0
  5  6  1  0
  7  3  1  0
  8  7  1  0
  9 10  1  0
  9  8  2  0
 10 11  2  0
 11  7  1  0
 12  2  1  0
 13 12  2  0
  1 14  1  0
  5 15  1  0
  8 16  1  0
 10 17  1  0
 12 18  1  0
M  ISO  5  14  14  15  14  16  14  17  14  18   6
M  END
>  <minimizedAffinity>  (1) 
-4.05867338

>  <minimizedRMSD>  (1) 
0.890978813

$$$$
