
     RDKit          3D

 23 25  0  0  0  0  0  0  0  0999 V2000
   45.1300   34.5320   45.3180 C   0  0  0  0  0  0  0  0  0  0  0  0
   45.9020   34.4950   44.1430 C   0  0  0  0  0  0  0  0  0  0  0  0
   46.9220   33.5270   44.0700 C   0  0  0  0  0  0  0  0  0  0  0  0
   47.1070   32.6880   45.1250 N   0  0  0  0  0  0  0  0  0  0  0  0
   46.3290   32.7650   46.2430 C   0  0  0  0  0  0  0  0  0  0  0  0
   45.3520   33.6880   46.3190 N   0  0  0  0  0  0  0  0  0  0  0  0
   47.7860   33.3690   42.9450 N   0  0  0  0  0  0  0  0  0  0  0  0
   47.7030   32.6830   41.7800 C   0  0  0  0  0  0  0  0  0  0  0  0
   48.8160   32.8810   41.0580 N   0  0  0  0  0  0  0  0  0  0  0  0
   49.5890   33.7020   41.7910 C   0  0  0  0  0  0  0  0  0  0  0  0
   48.9590   34.0140   42.9710 N   0  0  0  0  0  0  0  0  0  0  0  0
   45.8140   35.3270   42.9470 C   0  0  0  0  0  0  0  0  0  0  0  0
   45.0460   36.6340   43.0830 C   0  0  0  0  0  0  0  0  0  0  0  0
   44.4190   35.4960   42.3570 C   0  0  0  0  0  0  0  0  0  0  0  0
   44.3250   35.2760   45.4098 H   0  0  0  0  0  0  0  0  0  0  0  0
   46.4998   32.0737   47.0814 H   0  0  0  0  0  0  0  0  0  0  0  0
   46.8516   32.0580   41.4725 H   0  0  0  0  0  0  0  0  0  0  0  0
   50.5809   34.0699   41.4895 H   0  0  0  0  0  0  0  0  0  0  0  0
   46.8044   35.0359   42.5670 H   0  0  0  0  0  0  0  0  0  0  0  0
   44.6547   36.9398   44.0645 H   0  0  0  0  0  0  0  0  0  0  0  0
   45.2588   37.6848   42.8368 H   0  0  0  0  0  0  0  0  0  0  0  0
   44.2878   35.5474   41.2661 H   0  0  0  0  0  0  0  0  0  0  0  0
   43.4688   34.9493   42.4482 H   0  0  0  0  0  0  0  0  0  0  0  0
  1  6  2  0
  2  1  1  0
  3  2  2  0
  3  4  1  0
  4  5  2  0
  5  6  1  0
  7 11  1  0
  7  3  1  0
  8  7  1  0
  9  8  2  0
  9 10  1  0
 10 11  2  0
 12 13  1  0
 12  2  1  0
 14 12  1  0
 14 13  1  0
  1 15  1  0
  5 16  1  0
  8 17  1  0
 10 18  1  0
 12 19  1  0
 13 20  1  0
 13 21  1  0
 14 22  1  0
 14 23  1  0
M  ISO  8  15  14  16  14  17  14  18  14  19  13  20  13  21  13  22  13
M  ISO  1  23  13
M  END
>  <minimizedAffinity>  (1) 
-3.96461511

>  <minimizedRMSD>  (1) 
1.9864378

$$$$
