
     RDKit          3D

 23 25  0  0  0  0  0  0  0  0999 V2000
   45.3190   33.5330   46.2180 C   0  0  0  0  0  0  0  0  0  0  0  0
   45.8720   33.4930   44.9380 C   0  0  0  0  0  0  0  0  0  0  0  0
   46.9980   32.7290   44.6840 C   0  0  0  0  0  0  0  0  0  0  0  0
   47.5210   32.0320   45.7520 N   0  0  0  0  0  0  0  0  0  0  0  0
   46.9640   32.0890   46.9900 C   0  0  0  0  0  0  0  0  0  0  0  0
   45.8750   32.8340   47.2080 N   0  0  0  0  0  0  0  0  0  0  0  0
   47.6420   32.6130   43.4370 N   0  0  0  0  0  0  0  0  0  0  0  0
   47.6150   31.7210   42.4320 C   0  0  0  0  0  0  0  0  0  0  0  0
   48.4470   32.0920   41.4470 N   0  0  0  0  0  0  0  0  0  0  0  0
   49.0040   33.2550   41.8590 C   0  0  0  0  0  0  0  0  0  0  0  0
   48.5020   33.5620   43.0800 N   0  0  0  0  0  0  0  0  0  0  0  0
   45.2990   34.2170   43.8930 C   0  0  0  0  0  0  0  0  0  0  0  0
   45.3170   35.6290   43.7160 C   0  0  0  0  0  0  0  0  0  0  0  0
   44.6880   36.1370   42.6080 C   0  0  0  0  0  0  0  0  0  0  0  0
   44.0720   35.2630   41.7270 C   0  0  0  0  0  0  0  0  0  0  0  0
   44.4020   33.6200   42.5090 S   0  0  0  0  0  0  0  0  0  0  0  0
   44.4234   34.1418   46.4108 H   0  0  0  0  0  0  0  0  0  0  0  0
   47.4114   31.5191   47.8177 H   0  0  0  0  0  0  0  0  0  0  0  0
   46.9959   30.8118   42.4189 H   0  0  0  0  0  0  0  0  0  0  0  0
   49.7395   33.8501   41.2979 H   0  0  0  0  0  0  0  0  0  0  0  0
   45.8168   36.2885   44.4408 H   0  0  0  0  0  0  0  0  0  0  0  0
   44.6729   37.2210   42.4219 H   0  0  0  0  0  0  0  0  0  0  0  0
   43.5260   35.4888   40.7992 H   0  0  0  0  0  0  0  0  0  0  0  0
  1  6  2  0
  2  1  1  0
  3  2  2  0
  3  4  1  0
  4  5  2  0
  5  6  1  0
  7  3  1  0
  8  7  1  0
  9 10  1  0
  9  8  2  0
 10 11  2  0
 11  7  1  0
 12  2  1  0
 13 12  2  0
 14 13  1  0
 15 16  1  0
 15 14  2  0
 16 12  1  0
  1 17  1  0
  5 18  1  0
  8 19  1  0
 10 20  1  0
 13 21  1  0
 14 22  1  0
 15 23  1  0
M  ISO  7  17  14  18  14  19  14  20  14  21  14  22  14  23  14
M  END
>  <minimizedAffinity>  (1) 
-3.65736437

>  <minimizedRMSD>  (1) 
2.9976449

$$$$
