
     RDKit          3D

 37 41  0  0  1  0  0  0  0  0999 V2000
   48.1550   34.0470   42.2490 C   0  0  2  0  0  0  0  0  0  0  0  0
   48.4850   35.4990   41.8080 C   0  0  0  0  0  0  0  0  0  0  0  0
   47.6550   34.5330   40.9370 C   0  0  1  0  0  0  0  0  0  0  0  0
   46.4550   33.1770   45.3120 N   0  0  0  0  0  0  0  0  0  0  0  0
   45.5780   34.0900   44.7980 C   0  0  0  0  0  0  0  0  0  0  0  0
   46.0340   34.5530   43.6210 N   0  0  0  0  0  0  0  0  0  0  0  0
   47.2230   33.9110   43.3990 C   0  0  0  0  0  0  0  0  0  0  0  0
   47.4190   33.1080   44.4380 N   0  0  0  0  0  0  0  0  0  0  0  0
   45.4260   32.7980   47.4600 C   0  0  0  0  0  0  0  0  0  0  0  0
   46.4210   32.4260   46.5080 C   0  0  0  0  0  0  0  0  0  0  0  0
   47.2460   31.3840   46.8300 C   0  0  0  0  0  0  0  0  0  0  0  0
   47.0680   30.7770   48.0220 N   0  0  0  0  0  0  0  0  0  0  0  0
   46.1210   31.1460   48.9010 C   0  0  0  0  0  0  0  0  0  0  0  0
   45.3020   32.1620   48.6090 N   0  0  0  0  0  0  0  0  0  0  0  0
   48.2070   33.9510   39.7330 C   0  0  0  0  0  0  0  0  0  0  0  0
   48.8590   32.8490   39.8700 O   0  0  0  0  0  0  0  0  0  0  0  0
   48.0540   34.5330   38.4950 O   0  0  0  0  0  0  0  0  0  0  0  0
   45.0680   31.8250   36.2880 N   0  0  0  0  0  0  0  0  0  0  0  0
   44.5090   32.3350   37.4030 C   0  0  0  0  0  0  0  0  0  0  0  0
   45.3930   33.1390   38.0600 N   0  0  0  0  0  0  0  0  0  0  0  0
   46.5300   33.1100   37.3070 C   0  0  0  0  0  0  0  0  0  0  0  0
   47.7870   33.6910   37.3970 C   0  0  0  0  0  0  0  0  0  0  0  0
   48.7340   33.4600   36.4600 N   0  0  0  0  0  0  0  0  0  0  0  0
   48.4720   32.6440   35.3990 C   0  0  0  0  0  0  0  0  0  0  0  0
   47.2610   32.0550   35.2680 N   0  0  0  0  0  0  0  0  0  0  0  0
   46.3400   32.2950   36.2010 C   0  0  0  0  0  0  0  0  0  0  0  0
   48.7266   33.1561   42.5484 H   0  0  0  0  0  0  0  0  0  0  0  0
   48.0040   36.3549   42.3041 H   0  0  0  0  0  0  0  0  0  0  0  0
   49.3969   36.1001   41.6771 H   0  0  0  0  0  0  0  0  0  0  0  0
   46.6699   34.6140   40.4544 H   0  0  0  0  0  0  0  0  0  0  0  0
   44.6375   34.4005   45.2766 H   0  0  0  0  0  0  0  0  0  0  0  0
   44.7476   33.6331   47.2311 H   0  0  0  0  0  0  0  0  0  0  0  0
   48.0324   31.0501   46.1371 H   0  0  0  0  0  0  0  0  0  0  0  0
   46.0197   30.6137   49.8583 H   0  0  0  0  0  0  0  0  0  0  0  0
   44.6108   31.1897   35.6184 H   0  0  0  0  0  0  0  0  0  0  0  0
   43.4811   32.1309   37.7372 H   0  0  0  0  0  0  0  0  0  0  0  0
   49.2513   32.4634   34.6440 H   0  0  0  0  0  0  0  0  0  0  0  0
  1  7  1  0
  2  1  1  0
  3  2  1  0
  3  1  1  0
  4 10  1  0
  5  4  1  0
  6  5  2  0
  7  6  1  0
  7  8  2  0
  8  4  1  0
  9 14  2  0
 10 11  2  0
 10  9  1  0
 11 12  1  0
 12 13  2  0
 14 13  1  0
 15 16  2  0
 15  3  1  0
 17 15  1  0
 18 19  1  0
 19 20  2  0
 21 22  2  0
 21 20  1  0
 22 17  1  0
 23 22  1  0
 24 23  2  0
 25 24  1  0
 25 26  2  0
 26 18  1  0
 26 21  1  0
  1 27  1  6
  2 28  1  0
  2 29  1  0
  3 30  1  1
  5 31  1  0
  9 32  1  0
 11 33  1  0
 13 34  1  0
 18 35  1  0
 19 36  1  0
 24 37  1  0
M  ISO  8  27  13  28  13  29  13  30  13  31  14  32  14  33  14  34  14
M  ISO  3  35   9  36  14  37  14
M  END
>  <minimizedAffinity>  (1) 
-5.88309002

>  <minimizedRMSD>  (1) 
5.14460659

$$$$
