
     RDKit          3D

 40 44  0  0  0  0  0  0  0  0999 V2000
   45.5560   33.4620   44.2810 C   0  0  0  0  0  0  0  0  0  0  0  0
   45.3470   34.5580   45.0620 C   0  0  0  0  0  0  0  0  0  0  0  0
   44.6500   35.6700   44.6610 C   0  0  0  0  0  0  0  0  0  0  0  0
   44.1340   35.7060   43.4270 N   0  0  0  0  0  0  0  0  0  0  0  0
   44.3240   34.6330   42.6260 C   0  0  0  0  0  0  0  0  0  0  0  0
   45.0090   33.5960   43.0890 N   0  0  0  0  0  0  0  0  0  0  0  0
   43.8810   34.3940   41.2370 C   0  0  0  0  0  0  0  0  0  0  0  0
   44.6410   33.7400   40.2750 C   0  0  0  0  0  0  0  0  0  0  0  0
   44.2250   33.5230   38.9920 C   0  0  0  0  0  0  0  0  0  0  0  0
   42.9910   33.9560   38.5740 C   0  0  0  0  0  0  0  0  0  0  0  0
   42.1900   34.6110   39.4790 C   0  0  0  0  0  0  0  0  0  0  0  0
   40.9740   35.0210   39.0140 C   0  0  0  0  0  0  0  0  0  0  0  0
   40.1130   35.6860   39.8590 C   0  0  0  0  0  0  0  0  0  0  0  0
   40.5380   35.9050   41.1640 C   0  0  0  0  0  0  0  0  0  0  0  0
   41.7780   35.4640   41.5650 C   0  0  0  0  0  0  0  0  0  0  0  0
   42.6610   34.7980   40.7530 C   0  0  0  0  0  0  0  0  0  0  0  0
   45.9190   31.4630   45.7790 C   0  0  0  0  0  0  0  0  0  0  0  0
   46.2940   32.2770   44.7100 C   0  0  0  0  0  0  0  0  0  0  0  0
   47.4410   31.9480   44.0040 C   0  0  0  0  0  0  0  0  0  0  0  0
   48.1470   30.8370   44.3960 N   0  0  0  0  0  0  0  0  0  0  0  0
   47.7370   30.0790   45.4460 C   0  0  0  0  0  0  0  0  0  0  0  0
   46.6370   30.3930   46.1240 N   0  0  0  0  0  0  0  0  0  0  0  0
   47.9360   32.6980   42.8870 N   0  0  0  0  0  0  0  0  0  0  0  0
   47.9140   32.5010   41.5590 C   0  0  0  0  0  0  0  0  0  0  0  0
   48.5350   33.5320   40.9370 N   0  0  0  0  0  0  0  0  0  0  0  0
   48.9300   34.3550   41.9240 C   0  0  0  0  0  0  0  0  0  0  0  0
   48.5600   33.8390   43.1320 N   0  0  0  0  0  0  0  0  0  0  0  0
   45.7638   34.5514   46.0800 H   0  0  0  0  0  0  0  0  0  0  0  0
   44.5172   36.5209   45.3453 H   0  0  0  0  0  0  0  0  0  0  0  0
   45.6376   33.3750   40.5639 H   0  0  0  0  0  0  0  0  0  0  0  0
   44.8850   32.9963   38.2871 H   0  0  0  0  0  0  0  0  0  0  0  0
   42.6521   33.7833   37.5418 H   0  0  0  0  0  0  0  0  0  0  0  0
   40.6836   34.8218   37.9719 H   0  0  0  0  0  0  0  0  0  0  0  0
   39.1269   36.0305   39.5141 H   0  0  0  0  0  0  0  0  0  0  0  0
   39.8838   36.4303   41.8754 H   0  0  0  0  0  0  0  0  0  0  0  0
   42.0813   35.6580   42.6044 H   0  0  0  0  0  0  0  0  0  0  0  0
   45.0114   31.7088   46.3499 H   0  0  0  0  0  0  0  0  0  0  0  0
   48.3220   29.1947   45.7390 H   0  0  0  0  0  0  0  0  0  0  0  0
   47.4612   31.6353   41.0536 H   0  0  0  0  0  0  0  0  0  0  0  0
   49.4704   35.3022   41.7795 H   0  0  0  0  0  0  0  0  0  0  0  0
  1 18  1  0
  1  2  2  0
  3  2  1  0
  4  3  2  0
  5  6  2  0
  5  4  1  0
  6  1  1  0
  7  5  1  0
  8  7  2  0
  9  8  1  0
 10  9  2  0
 10 11  1  0
 11 16  2  0
 12 11  1  0
 12 13  2  0
 13 14  1  0
 14 15  2  0
 16  7  1  0
 16 15  1  0
 17 22  2  0
 18 17  1  0
 19 20  1  0
 19 18  2  0
 20 21  2  0
 21 22  1  0
 23 27  1  0
 23 19  1  0
 24 23  1  0
 25 24  2  0
 25 26  1  0
 26 27  2  0
  2 28  1  0
  3 29  1  0
  8 30  1  0
  9 31  1  0
 10 32  1  0
 12 33  1  0
 13 34  1  0
 14 35  1  0
 15 36  1  0
 17 37  1  0
 21 38  1  0
 24 39  1  0
 26 40  1  0
M  ISO  8  28  14  29  14  30  14  31  14  32  14  33  14  34  14  35  14
M  ISO  5  36  14  37  14  38  14  39  14  40  14
M  END
>  <minimizedAffinity>  (1) 
-6.5241828

>  <minimizedRMSD>  (1) 
2.69581056

$$$$
