
     RDKit          3D

 38 42  0  0  0  0  0  0  0  0999 V2000
   45.2340   34.4220   43.8950 C   0  0  0  0  0  0  0  0  0  0  0  0
   45.4850   35.7510   43.7390 C   0  0  0  0  0  0  0  0  0  0  0  0
   44.9420   36.5200   42.7400 C   0  0  0  0  0  0  0  0  0  0  0  0
   44.1150   35.9590   41.8540 N   0  0  0  0  0  0  0  0  0  0  0  0
   43.8480   34.6390   41.9850 C   0  0  0  0  0  0  0  0  0  0  0  0
   44.4090   33.9570   42.9770 N   0  0  0  0  0  0  0  0  0  0  0  0
   42.9910   33.7410   41.1790 C   0  0  0  0  0  0  0  0  0  0  0  0
   43.2970   32.4750   40.8240 N   0  0  0  0  0  0  0  0  0  0  0  0
   42.5290   31.6720   40.1020 C   0  0  0  0  0  0  0  0  0  0  0  0
   41.3470   32.0620   39.6480 N   0  0  0  0  0  0  0  0  0  0  0  0
   40.9270   33.3190   39.9390 C   0  0  0  0  0  0  0  0  0  0  0  0
   39.6970   33.7140   39.4620 C   0  0  0  0  0  0  0  0  0  0  0  0
   39.2290   34.9780   39.7310 C   0  0  0  0  0  0  0  0  0  0  0  0
   40.0380   35.8040   40.4840 C   0  0  0  0  0  0  0  0  0  0  0  0
   41.2610   35.3620   40.9380 C   0  0  0  0  0  0  0  0  0  0  0  0
   41.7610   34.1070   40.6900 C   0  0  0  0  0  0  0  0  0  0  0  0
   45.3200   33.5400   46.2610 C   0  0  0  0  0  0  0  0  0  0  0  0
   45.8100   33.6000   44.9600 C   0  0  0  0  0  0  0  0  0  0  0  0
   46.9250   32.8280   44.6320 C   0  0  0  0  0  0  0  0  0  0  0  0
   47.4760   32.0500   45.6260 N   0  0  0  0  0  0  0  0  0  0  0  0
   46.9580   32.0320   46.8750 C   0  0  0  0  0  0  0  0  0  0  0  0
   45.8940   32.7690   47.1820 N   0  0  0  0  0  0  0  0  0  0  0  0
   47.5270   32.7930   43.3390 N   0  0  0  0  0  0  0  0  0  0  0  0
   47.3480   32.0170   42.2490 C   0  0  0  0  0  0  0  0  0  0  0  0
   48.1920   32.4180   41.2720 N   0  0  0  0  0  0  0  0  0  0  0  0
   48.8810   33.4470   41.7890 C   0  0  0  0  0  0  0  0  0  0  0  0
   48.4670   33.6780   43.0680 N   0  0  0  0  0  0  0  0  0  0  0  0
   46.1630   36.2373   44.4559 H   0  0  0  0  0  0  0  0  0  0  0  0
   45.1862   37.5903   42.6697 H   0  0  0  0  0  0  0  0  0  0  0  0
   42.8819   30.6555   39.8737 H   0  0  0  0  0  0  0  0  0  0  0  0
   39.0890   33.0178   38.8656 H   0  0  0  0  0  0  0  0  0  0  0  0
   38.2500   35.3171   39.3613 H   0  0  0  0  0  0  0  0  0  0  0  0
   39.7034   36.8241   40.7238 H   0  0  0  0  0  0  0  0  0  0  0  0
   41.8732   36.0547   41.5341 H   0  0  0  0  0  0  0  0  0  0  0  0
   44.4406   34.1418   46.5339 H   0  0  0  0  0  0  0  0  0  0  0  0
   47.4222   31.4002   47.6466 H   0  0  0  0  0  0  0  0  0  0  0  0
   46.6286   31.1887   42.1684 H   0  0  0  0  0  0  0  0  0  0  0  0
   49.6604   34.0170   41.2620 H   0  0  0  0  0  0  0  0  0  0  0  0
  1 18  1  0
  2  1  2  0
  3  2  1  0
  4  5  1  0
  4  3  2  0
  5  6  2  0
  6  1  1  0
  7  5  1  0
  8  7  2  0
  9  8  1  0
 10 11  1  0
 10  9  2  0
 11 16  2  0
 12 13  2  0
 12 11  1  0
 13 14  1  0
 14 15  2  0
 16 15  1  0
 16  7  1  0
 17 22  2  0
 18 17  1  0
 19 18  2  0
 19 20  1  0
 20 21  2  0
 21 22  1  0
 23 19  1  0
 24 23  1  0
 25 26  1  0
 25 24  2  0
 26 27  2  0
 27 23  1  0
  2 28  1  0
  3 29  1  0
  9 30  1  0
 12 31  1  0
 13 32  1  0
 14 33  1  0
 15 34  1  0
 17 35  1  0
 21 36  1  0
 24 37  1  0
 26 38  1  0
M  ISO  8  28  14  29  14  30  14  31  14  32  14  33  14  34  14  35  14
M  ISO  3  36  14  37  14  38  14
M  END
>  <minimizedAffinity>  (1) 
-5.98013544

>  <minimizedRMSD>  (1) 
1.07318771

$$$$
