
     RDKit          3D

 38 42  0  0  0  0  0  0  0  0999 V2000
   45.2380   34.2230   43.9800 C   0  0  0  0  0  0  0  0  0  0  0  0
   45.4680   35.5670   43.8210 C   0  0  0  0  0  0  0  0  0  0  0  0
   44.9350   36.3320   42.7910 C   0  0  0  0  0  0  0  0  0  0  0  0
   44.1400   35.7270   41.8880 N   0  0  0  0  0  0  0  0  0  0  0  0
   43.9120   34.3980   42.0480 C   0  0  0  0  0  0  0  0  0  0  0  0
   44.4410   33.6710   43.0570 N   0  0  0  0  0  0  0  0  0  0  0  0
   43.0970   33.6150   41.1810 N   0  0  0  0  0  0  0  0  0  0  0  0
   42.8710   32.3050   41.4820 C   0  0  0  0  0  0  0  0  0  0  0  0
   42.0730   31.7380   40.5330 N   0  0  0  0  0  0  0  0  0  0  0  0
   41.7890   32.6980   39.6210 C   0  0  0  0  0  0  0  0  0  0  0  0
   41.0640   32.8210   38.4440 C   0  0  0  0  0  0  0  0  0  0  0  0
   40.4650   31.7790   38.0380 O   0  0  0  0  0  0  0  0  0  0  0  0
   41.0140   33.9960   37.7860 N   0  0  0  0  0  0  0  0  0  0  0  0
   41.6520   35.0970   38.2230 C   0  0  0  0  0  0  0  0  0  0  0  0
   41.4790   36.2390   37.3910 N   0  0  0  0  0  0  0  0  0  0  0  0
   42.3770   35.0220   39.3760 N   0  0  0  0  0  0  0  0  0  0  0  0
   42.4280   33.8460   40.0370 C   0  0  0  0  0  0  0  0  0  0  0  0
   45.3330   33.4470   46.3860 C   0  0  0  0  0  0  0  0  0  0  0  0
   45.8230   33.4560   45.0820 C   0  0  0  0  0  0  0  0  0  0  0  0
   46.9530   32.6890   44.7780 C   0  0  0  0  0  0  0  0  0  0  0  0
   47.5180   31.9600   45.8030 N   0  0  0  0  0  0  0  0  0  0  0  0
   47.0060   31.9830   47.0570 C   0  0  0  0  0  0  0  0  0  0  0  0
   45.9200   32.7250   47.3350 N   0  0  0  0  0  0  0  0  0  0  0  0
   47.5540   32.6090   43.4920 N   0  0  0  0  0  0  0  0  0  0  0  0
   47.4420   31.7810   42.4440 C   0  0  0  0  0  0  0  0  0  0  0  0
   48.2630   32.1730   41.4480 N   0  0  0  0  0  0  0  0  0  0  0  0
   48.8870   33.2660   41.9090 C   0  0  0  0  0  0  0  0  0  0  0  0
   48.4510   33.5330   43.1650 N   0  0  0  0  0  0  0  0  0  0  0  0
   46.1148   36.0697   44.5551 H   0  0  0  0  0  0  0  0  0  0  0  0
   45.1572   37.4066   42.7149 H   0  0  0  0  0  0  0  0  0  0  0  0
   43.2736   31.7818   42.3619 H   0  0  0  0  0  0  0  0  0  0  0  0
   40.4665   34.0534   36.9154 H   0  0  0  0  0  0  0  0  0  0  0  0
   41.9285   37.1313   37.6412 H   0  0  0  0  0  0  0  0  0  0  0  0
   40.9043   36.1730   36.5388 H   0  0  0  0  0  0  0  0  0  0  0  0
   44.4455   34.0475   46.6344 H   0  0  0  0  0  0  0  0  0  0  0  0
   47.4818   31.3909   47.8526 H   0  0  0  0  0  0  0  0  0  0  0  0
   46.7758   30.9067   42.4021 H   0  0  0  0  0  0  0  0  0  0  0  0
   49.6346   33.8535   41.3559 H   0  0  0  0  0  0  0  0  0  0  0  0
  1 19  1  0
  2  1  2  0
  3  2  1  0
  4  5  1  0
  4  3  2  0
  5  6  2  0
  6  1  1  0
  7  8  1  0
  7  5  1  0
  9  8  2  0
 10 17  2  0
 10  9  1  0
 11 10  1  0
 12 11  2  0
 13 14  1  0
 13 11  1  0
 14 16  2  0
 15 14  1  0
 16 17  1  0
 17  7  1  0
 18 23  2  0
 19 18  1  0
 20 19  2  0
 20 21  1  0
 21 22  2  0
 22 23  1  0
 24 20  1  0
 25 24  1  0
 26 27  1  0
 26 25  2  0
 27 28  2  0
 28 24  1  0
  2 29  1  0
  3 30  1  0
  8 31  1  0
 13 32  1  0
 15 33  1  0
 15 34  1  0
 18 35  1  0
 22 36  1  0
 25 37  1  0
 27 38  1  0
M  ISO  8  29  14  30  14  31  14  32   9  35  14  36  14  37  14  38  14
M  END
>  <minimizedAffinity>  (1) 
-6.3680501

>  <minimizedRMSD>  (1) 
0.453231812

$$$$
