
     RDKit          3D

 37 40  0  0  0  0  0  0  0  0999 V2000
   45.3580   33.5690   43.4740 C   0  0  0  0  0  0  0  0  0  0  0  0
   45.3130   34.7720   44.1240 C   0  0  0  0  0  0  0  0  0  0  0  0
   44.4940   35.8270   43.7700 C   0  0  0  0  0  0  0  0  0  0  0  0
   43.6740   35.6880   42.7170 N   0  0  0  0  0  0  0  0  0  0  0  0
   43.7130   34.4870   42.0600 C   0  0  0  0  0  0  0  0  0  0  0  0
   44.5210   33.4750   42.4260 N   0  0  0  0  0  0  0  0  0  0  0  0
   42.9230   34.1190   40.9100 N   0  0  0  0  0  0  0  0  0  0  0  0
   42.4660   35.1580   40.1830 C   0  0  0  0  0  0  0  0  0  0  0  0
   41.7050   34.7760   39.0760 C   0  0  0  0  0  0  0  0  0  0  0  0
   41.1630   35.8650   38.2190 C   0  0  0  0  0  0  0  0  0  0  0  0
   41.4870   33.4260   38.8190 C   0  0  0  0  0  0  0  0  0  0  0  0
   40.7970   33.1160   37.8130 O   0  0  0  0  0  0  0  0  0  0  0  0
   41.9870   32.4630   39.6070 N   0  0  0  0  0  0  0  0  0  0  0  0
   42.7120   32.8130   40.6620 C   0  0  0  0  0  0  0  0  0  0  0  0
   43.2140   31.9590   41.4480 O   0  0  0  0  0  0  0  0  0  0  0  0
   45.8840   31.4630   44.7680 C   0  0  0  0  0  0  0  0  0  0  0  0
   46.2390   32.4700   43.8750 C   0  0  0  0  0  0  0  0  0  0  0  0
   47.5130   32.4550   43.3070 C   0  0  0  0  0  0  0  0  0  0  0  0
   48.3600   31.4290   43.6690 N   0  0  0  0  0  0  0  0  0  0  0  0
   47.9640   30.4670   44.5490 C   0  0  0  0  0  0  0  0  0  0  0  0
   46.7430   30.4950   45.0830 N   0  0  0  0  0  0  0  0  0  0  0  0
   48.0020   33.4210   42.3820 N   0  0  0  0  0  0  0  0  0  0  0  0
   47.9120   33.5920   41.0610 C   0  0  0  0  0  0  0  0  0  0  0  0
   48.5740   34.6980   40.6760 N   0  0  0  0  0  0  0  0  0  0  0  0
   49.0820   35.2140   41.8100 C   0  0  0  0  0  0  0  0  0  0  0  0
   48.7260   34.4210   42.8600 N   0  0  0  0  0  0  0  0  0  0  0  0
   45.9764   34.9092   44.9906 H   0  0  0  0  0  0  0  0  0  0  0  0
   44.5139   36.7661   44.3424 H   0  0  0  0  0  0  0  0  0  0  0  0
   42.6730   36.2079   40.4376 H   0  0  0  0  0  0  0  0  0  0  0  0
   40.7633   36.6681   38.8556 H   0  0  0  0  0  0  0  0  0  0  0  0
   41.9666   36.2662   37.5839 H   0  0  0  0  0  0  0  0  0  0  0  0
   40.3584   35.4658   37.5839 H   0  0  0  0  0  0  0  0  0  0  0  0
   41.8116   31.4700   39.3973 H   0  0  0  0  0  0  0  0  0  0  0  0
   44.8809   31.4667   45.2195 H   0  0  0  0  0  0  0  0  0  0  0  0
   48.6590   29.6591   44.8215 H   0  0  0  0  0  0  0  0  0  0  0  0
   47.3700   32.9196   40.3797 H   0  0  0  0  0  0  0  0  0  0  0  0
   49.6878   36.1296   41.8788 H   0  0  0  0  0  0  0  0  0  0  0  0
  1 17  1  0
  1  2  2  0
  3  2  1  0
  4  3  2  0
  5  6  2  0
  5  4  1  0
  6  1  1  0
  7  5  1  0
  8  7  1  0
  9  8  2  0
 10  9  1  0
 11  9  1  0
 11 13  1  0
 12 11  2  0
 13 14  1  0
 14  7  1  0
 14 15  2  0
 16 21  2  0
 17 16  1  0
 18 19  1  0
 18 17  2  0
 19 20  2  0
 20 21  1  0
 22 26  1  0
 22 18  1  0
 23 22  1  0
 24 23  2  0
 24 25  1  0
 25 26  2  0
  2 27  1  0
  3 28  1  0
  8 29  1  0
 10 30  1  0
 10 31  1  0
 10 32  1  0
 13 33  1  0
 16 34  1  0
 20 35  1  0
 23 36  1  0
 25 37  1  0
M  ISO  8  27  14  28  14  29  14  30   8  31   8  32   8  33   9  34  14
M  ISO  3  35  14  36  14  37  14
M  END
>  <minimizedAffinity>  (1) 
-5.74286509

>  <minimizedRMSD>  (1) 
2.01593971

$$$$
