
     RDKit          3D

 35 39  0  0  0  0  0  0  0  0999 V2000
   45.2690   34.2280   44.0250 C   0  0  0  0  0  0  0  0  0  0  0  0
   45.4930   35.5770   43.8780 C   0  0  0  0  0  0  0  0  0  0  0  0
   44.9660   36.3570   42.8610 C   0  0  0  0  0  0  0  0  0  0  0  0
   44.1670   35.7580   41.9380 N   0  0  0  0  0  0  0  0  0  0  0  0
   43.9480   34.4220   42.0890 C   0  0  0  0  0  0  0  0  0  0  0  0
   44.4730   33.6840   43.0860 N   0  0  0  0  0  0  0  0  0  0  0  0
   43.1000   33.8720   41.0800 N   0  0  0  0  0  0  0  0  0  0  0  0
   43.2250   32.7890   40.3010 C   0  0  0  0  0  0  0  0  0  0  0  0
   42.1420   32.6810   39.4860 N   0  0  0  0  0  0  0  0  0  0  0  0
   41.3140   33.7120   39.7480 C   0  0  0  0  0  0  0  0  0  0  0  0
   40.1000   34.0420   39.1930 C   0  0  0  0  0  0  0  0  0  0  0  0
   39.4860   35.1630   39.6710 N   0  0  0  0  0  0  0  0  0  0  0  0
   40.0940   35.8740   40.6470 C   0  0  0  0  0  0  0  0  0  0  0  0
   41.2810   35.5570   41.1940 N   0  0  0  0  0  0  0  0  0  0  0  0
   41.9240   34.4570   40.7520 C   0  0  0  0  0  0  0  0  0  0  0  0
   45.3610   33.4240   46.4180 C   0  0  0  0  0  0  0  0  0  0  0  0
   45.8420   33.4510   45.1040 C   0  0  0  0  0  0  0  0  0  0  0  0
   46.9550   32.6700   44.8160 C   0  0  0  0  0  0  0  0  0  0  0  0
   47.5230   31.9190   45.8190 N   0  0  0  0  0  0  0  0  0  0  0  0
   47.0100   31.9370   47.0690 C   0  0  0  0  0  0  0  0  0  0  0  0
   45.9450   32.6800   47.3580 N   0  0  0  0  0  0  0  0  0  0  0  0
   47.5610   32.5950   43.5140 N   0  0  0  0  0  0  0  0  0  0  0  0
   47.4660   31.7580   42.4690 C   0  0  0  0  0  0  0  0  0  0  0  0
   48.2710   32.1600   41.4750 N   0  0  0  0  0  0  0  0  0  0  0  0
   48.8700   33.2620   41.9190 C   0  0  0  0  0  0  0  0  0  0  0  0
   48.4320   33.5280   43.1750 N   0  0  0  0  0  0  0  0  0  0  0  0
   46.1362   36.0720   44.6205 H   0  0  0  0  0  0  0  0  0  0  0  0
   45.1882   37.4327   42.8019 H   0  0  0  0  0  0  0  0  0  0  0  0
   44.0759   32.0921   40.3182 H   0  0  0  0  0  0  0  0  0  0  0  0
   39.6447   33.4304   38.4001 H   0  0  0  0  0  0  0  0  0  0  0  0
   39.5825   36.7738   41.0194 H   0  0  0  0  0  0  0  0  0  0  0  0
   44.4816   34.0300   46.6812 H   0  0  0  0  0  0  0  0  0  0  0  0
   47.4788   31.3298   47.8573 H   0  0  0  0  0  0  0  0  0  0  0  0
   46.8196   30.8687   42.4332 H   0  0  0  0  0  0  0  0  0  0  0  0
   49.6024   33.8609   41.3579 H   0  0  0  0  0  0  0  0  0  0  0  0
  1 17  1  0
  2  1  2  0
  3  2  1  0
  4  5  1  0
  4  3  2  0
  5  6  2  0
  6  1  1  0
  7  5  1  0
  8  7  1  0
  9 10  1  0
  9  8  2  0
 10 15  2  0
 11 12  2  0
 11 10  1  0
 12 13  1  0
 13 14  2  0
 15  7  1  0
 15 14  1  0
 16 21  2  0
 17 16  1  0
 18 17  2  0
 18 19  1  0
 19 20  2  0
 20 21  1  0
 22 18  1  0
 23 22  1  0
 24 25  1  0
 24 23  2  0
 25 26  2  0
 26 22  1  0
  2 27  1  0
  3 28  1  0
  8 29  1  0
 11 30  1  0
 13 31  1  0
 16 32  1  0
 20 33  1  0
 23 34  1  0
 25 35  1  0
M  ISO  8  27  14  28  14  29  14  30  14  31  14  32  14  33  14  34  14
M  ISO  1  35  14
M  END
>  <minimizedAffinity>  (1) 
-5.89536476

>  <minimizedRMSD>  (1) 
0.429819256

$$$$
