
     RDKit          3D

 38 41  0  0  0  0  0  0  0  0999 V2000
   45.3370   33.4710   46.3300 C   0  0  0  0  0  0  0  0  0  0  0  0
   45.8120   33.5040   45.0170 C   0  0  0  0  0  0  0  0  0  0  0  0
   46.9250   32.7310   44.7110 C   0  0  0  0  0  0  0  0  0  0  0  0
   47.5050   31.9760   45.7050 N   0  0  0  0  0  0  0  0  0  0  0  0
   46.9960   31.9890   46.9610 C   0  0  0  0  0  0  0  0  0  0  0  0
   45.9280   32.7250   47.2680 N   0  0  0  0  0  0  0  0  0  0  0  0
   45.2280   34.2850   43.9420 C   0  0  0  0  0  0  0  0  0  0  0  0
   45.4560   35.6230   43.7660 C   0  0  0  0  0  0  0  0  0  0  0  0
   44.9230   36.4000   42.7620 C   0  0  0  0  0  0  0  0  0  0  0  0
   44.1080   35.8110   41.8720 N   0  0  0  0  0  0  0  0  0  0  0  0
   43.8630   34.4680   42.0260 C   0  0  0  0  0  0  0  0  0  0  0  0
   44.4130   33.7470   43.0320 N   0  0  0  0  0  0  0  0  0  0  0  0
   43.0030   33.7860   41.1070 N   0  0  0  0  0  0  0  0  0  0  0  0
   42.6290   34.3650   39.8470 C   0  0  0  0  0  0  0  0  0  0  0  0
   41.3510   33.9030   39.2810 C   0  0  0  0  0  0  0  0  0  0  0  0
   40.8390   32.6670   39.7930 N   0  0  0  0  0  0  0  0  0  0  0  0
   41.0020   32.5330   41.2270 C   0  0  0  0  0  0  0  0  0  0  0  0
   42.4950   32.4620   41.4730 C   0  0  0  0  0  0  0  0  0  0  0  0
   47.5190   32.6650   43.4150 N   0  0  0  0  0  0  0  0  0  0  0  0
   47.3810   31.8630   42.3460 C   0  0  0  0  0  0  0  0  0  0  0  0
   48.2070   32.2530   41.3490 N   0  0  0  0  0  0  0  0  0  0  0  0
   48.8580   33.3150   41.8310 C   0  0  0  0  0  0  0  0  0  0  0  0
   48.4420   33.5740   43.0960 N   0  0  0  0  0  0  0  0  0  0  0  0
   44.4562   34.0729   46.5981 H   0  0  0  0  0  0  0  0  0  0  0  0
   47.4738   31.3800   47.7426 H   0  0  0  0  0  0  0  0  0  0  0  0
   46.1213   36.1196   44.4876 H   0  0  0  0  0  0  0  0  0  0  0  0
   45.1580   37.4723   42.6910 H   0  0  0  0  0  0  0  0  0  0  0  0
   42.5630   35.4545   39.9831 H   0  0  0  0  0  0  0  0  0  0  0  0
   43.4029   34.0480   39.1324 H   0  0  0  0  0  0  0  0  0  0  0  0
   41.4884   33.7848   38.1960 H   0  0  0  0  0  0  0  0  0  0  0  0
   40.6118   34.6664   39.5653 H   0  0  0  0  0  0  0  0  0  0  0  0
   39.8348   32.6113   39.5709 H   0  0  0  0  0  0  0  0  0  0  0  0
   40.5705   33.4030   41.7436 H   0  0  0  0  0  0  0  0  0  0  0  0
   40.4879   31.6387   41.6090 H   0  0  0  0  0  0  0  0  0  0  0  0
   42.9538   31.6846   40.8445 H   0  0  0  0  0  0  0  0  0  0  0  0
   42.7300   32.2032   42.5160 H   0  0  0  0  0  0  0  0  0  0  0  0
   46.6916   31.0077   42.2896 H   0  0  0  0  0  0  0  0  0  0  0  0
   49.6176   33.8930   41.2842 H   0  0  0  0  0  0  0  0  0  0  0  0
  1  6  2  0
  2  1  1  0
  3  2  2  0
  3  4  1  0
  4  5  2  0
  5  6  1  0
  7  2  1  0
  8  7  2  0
  9  8  1  0
 10 11  1  0
 10  9  2  0
 11 12  2  0
 12  7  1  0
 13 18  1  0
 13 11  1  0
 14 13  1  0
 15 16  1  0
 15 14  1  0
 16 17  1  0
 17 18  1  0
 19  3  1  0
 20 19  1  0
 21 22  1  0
 21 20  2  0
 22 23  2  0
 23 19  1  0
  1 24  1  0
  5 25  1  0
  8 26  1  0
  9 27  1  0
 14 28  1  0
 14 29  1  0
 15 30  1  0
 15 31  1  0
 16 32  1  0
 17 33  1  0
 17 34  1  0
 18 35  1  0
 18 36  1  0
 20 37  1  0
 22 38  1  0
M  ISO  8  24  14  25  14  26  14  27  14  28  13  29  13  30  13  31  13
M  ISO  7  32   5  33  13  34  13  35  13  36  13  37  14  38  14
M  END
>  <minimizedAffinity>  (1) 
-4.89141321

>  <minimizedRMSD>  (1) 
0.454326898

$$$$
