
     RDKit          3D

 33 36  0  0  0  0  0  0  0  0999 V2000
   45.3190   33.4760   46.2910 C   0  0  0  0  0  0  0  0  0  0  0  0
   45.8080   33.5390   44.9840 C   0  0  0  0  0  0  0  0  0  0  0  0
   46.9370   32.7940   44.6770 C   0  0  0  0  0  0  0  0  0  0  0  0
   47.5210   32.0320   45.6600 N   0  0  0  0  0  0  0  0  0  0  0  0
   47.0020   32.0090   46.9170 C   0  0  0  0  0  0  0  0  0  0  0  0
   45.9120   32.7250   47.2210 N   0  0  0  0  0  0  0  0  0  0  0  0
   45.2210   34.3300   43.9180 C   0  0  0  0  0  0  0  0  0  0  0  0
   45.4410   35.6720   43.7740 C   0  0  0  0  0  0  0  0  0  0  0  0
   44.9140   36.4720   42.7860 C   0  0  0  0  0  0  0  0  0  0  0  0
   44.1020   35.8840   41.8670 N   0  0  0  0  0  0  0  0  0  0  0  0
   43.8770   34.5520   42.0020 C   0  0  0  0  0  0  0  0  0  0  0  0
   44.4190   33.8090   42.9900 N   0  0  0  0  0  0  0  0  0  0  0  0
   42.9950   33.9120   41.0040 C   0  0  0  0  0  0  0  0  0  0  0  0
   42.8920   34.4700   39.7410 C   0  0  0  0  0  0  0  0  0  0  0  0
   42.0440   33.8280   38.8300 C   0  0  0  0  0  0  0  0  0  0  0  0
   41.3550   32.6930   39.2030 C   0  0  0  0  0  0  0  0  0  0  0  0
   41.5160   32.2010   40.4910 C   0  0  0  0  0  0  0  0  0  0  0  0
   42.3350   32.8070   41.3920 N   0  0  0  0  0  0  0  0  0  0  0  0
   47.5490   32.7610   43.3800 N   0  0  0  0  0  0  0  0  0  0  0  0
   47.4420   31.9950   42.2960 C   0  0  0  0  0  0  0  0  0  0  0  0
   48.2810   32.4320   41.3320 N   0  0  0  0  0  0  0  0  0  0  0  0
   48.9060   33.4810   41.8470 C   0  0  0  0  0  0  0  0  0  0  0  0
   48.4630   33.6920   43.1070 N   0  0  0  0  0  0  0  0  0  0  0  0
   44.4253   34.0584   46.5595 H   0  0  0  0  0  0  0  0  0  0  0  0
   47.4831   31.3952   47.6927 H   0  0  0  0  0  0  0  0  0  0  0  0
   46.0972   36.1547   44.5132 H   0  0  0  0  0  0  0  0  0  0  0  0
   45.1411   37.5474   42.7412 H   0  0  0  0  0  0  0  0  0  0  0  0
   43.4509   35.3765   39.4657 H   0  0  0  0  0  0  0  0  0  0  0  0
   41.9270   34.2305   37.8130 H   0  0  0  0  0  0  0  0  0  0  0  0
   40.6880   32.1853   38.4907 H   0  0  0  0  0  0  0  0  0  0  0  0
   40.9664   31.2966   40.7910 H   0  0  0  0  0  0  0  0  0  0  0  0
   46.7678   31.1312   42.1996 H   0  0  0  0  0  0  0  0  0  0  0  0
   49.6661   34.0854   41.3304 H   0  0  0  0  0  0  0  0  0  0  0  0
  1  6  2  0
  2  1  1  0
  3  2  2  0
  3  4  1  0
  4  5  2  0
  5  6  1  0
  7  2  1  0
  8  7  2  0
  9  8  1  0
 10 11  1  0
 10  9  2  0
 11 12  2  0
 12  7  1  0
 13 18  1  0
 13 11  1  0
 14 13  2  0
 15 16  2  0
 15 14  1  0
 16 17  1  0
 17 18  2  0
 19  3  1  0
 20 19  1  0
 21 22  1  0
 21 20  2  0
 22 23  2  0
 23 19  1  0
  1 24  1  0
  5 25  1  0
  8 26  1  0
  9 27  1  0
 14 28  1  0
 15 29  1  0
 16 30  1  0
 17 31  1  0
 20 32  1  0
 22 33  1  0
M  ISO  8  24  14  25  14  26  14  27  14  28  14  29  14  30  14  31  14
M  ISO  2  32  14  33  14
M  END
>  <minimizedAffinity>  (1) 
-4.66473389

>  <minimizedRMSD>  (1) 
0.498126924

$$$$
