
     RDKit          3D

 36 39  0  0  0  0  0  0  0  0999 V2000
   45.3330   33.4360   46.3870 C   0  0  0  0  0  0  0  0  0  0  0  0
   45.8260   33.4720   45.0840 C   0  0  0  0  0  0  0  0  0  0  0  0
   46.9460   32.6990   44.7660 C   0  0  0  0  0  0  0  0  0  0  0  0
   47.5020   31.9390   45.7720 N   0  0  0  0  0  0  0  0  0  0  0  0
   46.9830   31.9400   47.0230 C   0  0  0  0  0  0  0  0  0  0  0  0
   45.9130   32.6800   47.3200 N   0  0  0  0  0  0  0  0  0  0  0  0
   45.2550   34.2680   44.0050 C   0  0  0  0  0  0  0  0  0  0  0  0
   45.4260   35.6250   43.8980 C   0  0  0  0  0  0  0  0  0  0  0  0
   44.9070   36.4180   42.9010 C   0  0  0  0  0  0  0  0  0  0  0  0
   44.1630   35.8160   41.9380 N   0  0  0  0  0  0  0  0  0  0  0  0
   43.9830   34.4710   42.0280 C   0  0  0  0  0  0  0  0  0  0  0  0
   44.5080   33.7330   43.0220 N   0  0  0  0  0  0  0  0  0  0  0  0
   43.1990   33.8690   41.0050 N   0  0  0  0  0  0  0  0  0  0  0  0
   41.8340   33.4120   41.1660 C   0  0  0  0  0  0  0  0  0  0  0  0
   41.2750   33.5230   39.7710 C   0  0  0  0  0  0  0  0  0  0  0  0
   42.4460   33.1110   38.9150 C   0  0  0  0  0  0  0  0  0  0  0  0
   43.6660   33.6250   39.6340 C   0  0  0  0  0  0  0  0  0  0  0  0
   47.5510   32.6420   43.4790 N   0  0  0  0  0  0  0  0  0  0  0  0
   47.4610   31.8110   42.4350 C   0  0  0  0  0  0  0  0  0  0  0  0
   48.2720   32.2280   41.4350 N   0  0  0  0  0  0  0  0  0  0  0  0
   48.8600   33.3400   41.9000 C   0  0  0  0  0  0  0  0  0  0  0  0
   48.4180   33.6000   43.1600 N   0  0  0  0  0  0  0  0  0  0  0  0
   44.4522   34.0403   46.6498 H   0  0  0  0  0  0  0  0  0  0  0  0
   47.4497   31.3226   47.8046 H   0  0  0  0  0  0  0  0  0  0  0  0
   46.0282   36.1201   44.6740 H   0  0  0  0  0  0  0  0  0  0  0  0
   45.0886   37.5028   42.8845 H   0  0  0  0  0  0  0  0  0  0  0  0
   41.8044   32.3718   41.5226 H   0  0  0  0  0  0  0  0  0  0  0  0
   41.2665   33.9919   41.9088 H   0  0  0  0  0  0  0  0  0  0  0  0
   40.4213   32.8438   39.6299 H   0  0  0  0  0  0  0  0  0  0  0  0
   40.8890   34.5250   39.5323 H   0  0  0  0  0  0  0  0  0  0  0  0
   42.3697   33.5626   37.9149 H   0  0  0  0  0  0  0  0  0  0  0  0
   42.4845   32.0212   38.7707 H   0  0  0  0  0  0  0  0  0  0  0  0
   44.4703   32.8747   39.6234 H   0  0  0  0  0  0  0  0  0  0  0  0
   44.0836   34.5275   39.1638 H   0  0  0  0  0  0  0  0  0  0  0  0
   46.8204   30.9177   42.3949 H   0  0  0  0  0  0  0  0  0  0  0  0
   49.5893   33.9496   41.3464 H   0  0  0  0  0  0  0  0  0  0  0  0
  1  6  2  0
  2  1  1  0
  3  2  2  0
  3  4  1  0
  4  5  2  0
  5  6  1  0
  7  2  1  0
  8  7  2  0
  9  8  1  0
 10 11  1  0
 10  9  2  0
 11 12  2  0
 12  7  1  0
 13 14  1  0
 13 11  1  0
 15 14  1  0
 16 17  1  0
 16 15  1  0
 17 13  1  0
 18  3  1  0
 19 18  1  0
 20 21  1  0
 20 19  2  0
 21 22  2  0
 22 18  1  0
  1 23  1  0
  5 24  1  0
  8 25  1  0
  9 26  1  0
 14 27  1  0
 14 28  1  0
 15 29  1  0
 15 30  1  0
 16 31  1  0
 16 32  1  0
 17 33  1  0
 17 34  1  0
 19 35  1  0
 21 36  1  0
M  ISO  8  23  14  24  14  25  14  26  14  27  13  28  13  29  13  30  13
M  ISO  6  31  13  32  13  33  13  34  13  35  14  36  14
M  END
>  <minimizedAffinity>  (1) 
-4.69586563

>  <minimizedRMSD>  (1) 
0.334760755

$$$$
