
     RDKit          3D

 32 35  0  0  0  0  0  0  0  0999 V2000
   45.3250   33.5050   46.2740 C   0  0  0  0  0  0  0  0  0  0  0  0
   45.8080   33.5610   44.9660 C   0  0  0  0  0  0  0  0  0  0  0  0
   46.9290   32.8040   44.6500 C   0  0  0  0  0  0  0  0  0  0  0  0
   47.5150   32.0360   45.6230 N   0  0  0  0  0  0  0  0  0  0  0  0
   46.9960   32.0210   46.8890 C   0  0  0  0  0  0  0  0  0  0  0  0
   45.9180   32.7480   47.1960 N   0  0  0  0  0  0  0  0  0  0  0  0
   45.2220   34.3560   43.9080 C   0  0  0  0  0  0  0  0  0  0  0  0
   45.4770   35.7030   43.7350 C   0  0  0  0  0  0  0  0  0  0  0  0
   44.9360   36.4900   42.7370 C   0  0  0  0  0  0  0  0  0  0  0  0
   44.0840   35.9110   41.8460 N   0  0  0  0  0  0  0  0  0  0  0  0
   43.8360   34.5900   42.0180 C   0  0  0  0  0  0  0  0  0  0  0  0
   44.3760   33.8550   42.9950 N   0  0  0  0  0  0  0  0  0  0  0  0
   42.9230   33.9500   41.0720 C   0  0  0  0  0  0  0  0  0  0  0  0
   42.7090   34.4800   39.8160 C   0  0  0  0  0  0  0  0  0  0  0  0
   41.8390   33.8390   38.9570 C   0  0  0  0  0  0  0  0  0  0  0  0
   41.1990   32.7120   39.3200 N   0  0  0  0  0  0  0  0  0  0  0  0
   41.4120   32.1900   40.5620 C   0  0  0  0  0  0  0  0  0  0  0  0
   42.2680   32.8140   41.4150 N   0  0  0  0  0  0  0  0  0  0  0  0
   47.5280   32.7700   43.3450 N   0  0  0  0  0  0  0  0  0  0  0  0
   47.3700   32.0150   42.2490 C   0  0  0  0  0  0  0  0  0  0  0  0
   48.2080   32.4200   41.2770 N   0  0  0  0  0  0  0  0  0  0  0  0
   48.8930   33.4500   41.8000 C   0  0  0  0  0  0  0  0  0  0  0  0
   48.4770   33.6720   43.0800 N   0  0  0  0  0  0  0  0  0  0  0  0
   44.4390   34.0963   46.5486 H   0  0  0  0  0  0  0  0  0  0  0  0
   47.4724   31.4025   47.6639 H   0  0  0  0  0  0  0  0  0  0  0  0
   46.1633   36.1855   44.4465 H   0  0  0  0  0  0  0  0  0  0  0  0
   45.1872   37.5584   42.6636 H   0  0  0  0  0  0  0  0  0  0  0  0
   43.2244   35.4002   39.5037 H   0  0  0  0  0  0  0  0  0  0  0  0
   41.6652   34.2581   37.9549 H   0  0  0  0  0  0  0  0  0  0  0  0
   40.8946   31.2700   40.8718 H   0  0  0  0  0  0  0  0  0  0  0  0
   46.6568   31.1826   42.1570 H   0  0  0  0  0  0  0  0  0  0  0  0
   49.6702   34.0262   41.2765 H   0  0  0  0  0  0  0  0  0  0  0  0
  1  6  2  0
  2  1  1  0
  3  2  2  0
  3  4  1  0
  4  5  2  0
  5  6  1  0
  7  2  1  0
  8  7  2  0
  9  8  1  0
 10 11  1  0
 10  9  2  0
 11 12  2  0
 12  7  1  0
 13 18  1  0
 13 11  1  0
 14 13  2  0
 15 16  2  0
 15 14  1  0
 16 17  1  0
 17 18  2  0
 19  3  1  0
 20 19  1  0
 21 22  1  0
 21 20  2  0
 22 23  2  0
 23 19  1  0
  1 24  1  0
  5 25  1  0
  8 26  1  0
  9 27  1  0
 14 28  1  0
 15 29  1  0
 17 30  1  0
 20 31  1  0
 22 32  1  0
M  ISO  8  24  14  25  14  26  14  27  14  28  14  29  14  30  14  31  14
M  ISO  1  32  14
M  END
>  <minimizedAffinity>  (1) 
-4.5965395

>  <minimizedRMSD>  (1) 
0.577009201

$$$$
