
     RDKit          3D

 34 37  0  0  0  0  0  0  0  0999 V2000
   45.2060   34.3710   43.8830 C   0  0  0  0  0  0  0  0  0  0  0  0
   45.4260   35.7240   43.7480 C   0  0  0  0  0  0  0  0  0  0  0  0
   44.8880   36.5110   42.7510 C   0  0  0  0  0  0  0  0  0  0  0  0
   44.0870   35.9300   41.8330 N   0  0  0  0  0  0  0  0  0  0  0  0
   43.8670   34.5960   41.9620 C   0  0  0  0  0  0  0  0  0  0  0  0
   44.4070   33.8620   42.9450 N   0  0  0  0  0  0  0  0  0  0  0  0
   45.2960   33.5000   46.2480 C   0  0  0  0  0  0  0  0  0  0  0  0
   45.7880   33.5760   44.9440 C   0  0  0  0  0  0  0  0  0  0  0  0
   46.9240   32.8330   44.6330 C   0  0  0  0  0  0  0  0  0  0  0  0
   47.4980   32.0700   45.6150 N   0  0  0  0  0  0  0  0  0  0  0  0
   46.9750   32.0340   46.8710 C   0  0  0  0  0  0  0  0  0  0  0  0
   45.8800   32.7500   47.1710 N   0  0  0  0  0  0  0  0  0  0  0  0
   47.5350   32.8110   43.3530 N   0  0  0  0  0  0  0  0  0  0  0  0
   47.4260   32.0420   42.2470 C   0  0  0  0  0  0  0  0  0  0  0  0
   48.2620   32.4730   41.2910 N   0  0  0  0  0  0  0  0  0  0  0  0
   48.8970   33.5210   41.8120 C   0  0  0  0  0  0  0  0  0  0  0  0
   48.4550   33.7330   43.0760 N   0  0  0  0  0  0  0  0  0  0  0  0
   43.0050   33.9050   40.9960 C   0  0  0  0  0  0  0  0  0  0  0  0
   42.3540   32.7430   41.3720 C   0  0  0  0  0  0  0  0  0  0  0  0
   41.5410   32.0870   40.4700 C   0  0  0  0  0  0  0  0  0  0  0  0
   41.3900   32.6060   39.2000 C   0  0  0  0  0  0  0  0  0  0  0  0
   42.0180   33.7700   38.7650 C   0  0  0  0  0  0  0  0  0  0  0  0
   42.8210   34.3920   39.6990 C   0  0  0  0  0  0  0  0  0  0  0  0
   46.0773   36.2118   44.4882 H   0  0  0  0  0  0  0  0  0  0  0  0
   45.1069   37.5880   42.7051 H   0  0  0  0  0  0  0  0  0  0  0  0
   44.3995   34.0782   46.5165 H   0  0  0  0  0  0  0  0  0  0  0  0
   47.4524   31.4146   47.6446 H   0  0  0  0  0  0  0  0  0  0  0  0
   46.7467   31.1828   42.1452 H   0  0  0  0  0  0  0  0  0  0  0  0
   49.6613   34.1214   41.2969 H   0  0  0  0  0  0  0  0  0  0  0  0
   42.4844   32.3428   42.3883 H   0  0  0  0  0  0  0  0  0  0  0  0
   41.0201   31.1624   40.7595 H   0  0  0  0  0  0  0  0  0  0  0  0
   40.7383   32.0711   38.4934 H   0  0  0  0  0  0  0  0  0  0  0  0
   41.8834   34.1662   37.7477 H   0  0  0  0  0  0  0  0  0  0  0  0
   43.3418   35.3163   39.4085 H   0  0  0  0  0  0  0  0  0  0  0  0
  1  8  1  0
  2  1  2  0
  3  2  1  0
  4  5  1  0
  4  3  2  0
  5  6  2  0
  6  1  1  0
  7 12  2  0
  8  7  1  0
  9  8  2  0
  9 10  1  0
 10 11  2  0
 11 12  1  0
 13  9  1  0
 14 13  1  0
 15 16  1  0
 15 14  2  0
 16 17  2  0
 17 13  1  0
 18 19  2  0
 18  5  1  0
 20 19  1  0
 21 20  2  0
 22 21  1  0
 22 23  2  0
 23 18  1  0
  2 24  1  0
  3 25  1  0
  7 26  1  0
 11 27  1  0
 14 28  1  0
 16 29  1  0
 19 30  1  0
 20 31  1  0
 21 32  1  0
 22 33  1  0
 23 34  1  0
M  ISO  8  24  14  25  14  26  14  27  14  28  14  29  14  30  14  31  14
M  ISO  3  32  14  33  14  34  14
M  END
>  <minimizedAffinity>  (1) 
-4.62911081

>  <minimizedRMSD>  (1) 
0.642335236

$$$$
