
     RDKit          3D

 31 34  0  0  0  0  0  0  0  0999 V2000
   45.3450   33.4460   46.3460 C   0  0  0  0  0  0  0  0  0  0  0  0
   45.8390   33.4720   45.0450 C   0  0  0  0  0  0  0  0  0  0  0  0
   46.9580   32.7230   44.7330 C   0  0  0  0  0  0  0  0  0  0  0  0
   47.5400   31.9770   45.7330 N   0  0  0  0  0  0  0  0  0  0  0  0
   47.0230   31.9810   46.9930 C   0  0  0  0  0  0  0  0  0  0  0  0
   45.9370   32.7110   47.2880 N   0  0  0  0  0  0  0  0  0  0  0  0
   45.2430   34.2540   43.9640 C   0  0  0  0  0  0  0  0  0  0  0  0
   45.4490   35.5960   43.7940 C   0  0  0  0  0  0  0  0  0  0  0  0
   44.9030   36.3640   42.7890 C   0  0  0  0  0  0  0  0  0  0  0  0
   44.0970   35.7610   41.8870 N   0  0  0  0  0  0  0  0  0  0  0  0
   43.8840   34.4250   42.0460 C   0  0  0  0  0  0  0  0  0  0  0  0
   44.4330   33.7140   43.0380 N   0  0  0  0  0  0  0  0  0  0  0  0
   43.0620   33.5910   41.2010 N   0  0  0  0  0  0  0  0  0  0  0  0
   42.8860   33.9690   39.9010 C   0  0  0  0  0  0  0  0  0  0  0  0
   42.0670   33.0320   39.2750 C   0  0  0  0  0  0  0  0  0  0  0  0
   41.7790   32.1220   40.2220 N   0  0  0  0  0  0  0  0  0  0  0  0
   42.3700   32.4570   41.3610 C   0  0  0  0  0  0  0  0  0  0  0  0
   47.5570   32.6670   43.4400 N   0  0  0  0  0  0  0  0  0  0  0  0
   47.4400   31.8720   42.3690 C   0  0  0  0  0  0  0  0  0  0  0  0
   48.2640   32.2770   41.3850 N   0  0  0  0  0  0  0  0  0  0  0  0
   48.8990   33.3560   41.8760 C   0  0  0  0  0  0  0  0  0  0  0  0
   48.4670   33.5940   43.1350 N   0  0  0  0  0  0  0  0  0  0  0  0
   44.4545   34.0396   46.6004 H   0  0  0  0  0  0  0  0  0  0  0  0
   47.5020   31.3781   47.7785 H   0  0  0  0  0  0  0  0  0  0  0  0
   46.1036   36.1027   44.5185 H   0  0  0  0  0  0  0  0  0  0  0  0
   45.1176   37.4408   42.7223 H   0  0  0  0  0  0  0  0  0  0  0  0
   43.3181   34.8629   39.4276 H   0  0  0  0  0  0  0  0  0  0  0  0
   41.7280   33.0358   38.2285 H   0  0  0  0  0  0  0  0  0  0  0  0
   42.3014   31.8866   42.2991 H   0  0  0  0  0  0  0  0  0  0  0  0
   46.7636   31.0071   42.3025 H   0  0  0  0  0  0  0  0  0  0  0  0
   49.6515   33.9513   41.3380 H   0  0  0  0  0  0  0  0  0  0  0  0
  1  6  2  0
  2  1  1  0
  3  2  2  0
  3  4  1  0
  4  5  2  0
  5  6  1  0
  7  2  1  0
  8  7  2  0
  9  8  1  0
 10 11  1  0
 10  9  2  0
 11 12  2  0
 12  7  1  0
 13 17  1  0
 13 11  1  0
 14 13  1  0
 15 14  2  0
 15 16  1  0
 16 17  2  0
 18  3  1  0
 19 18  1  0
 20 21  1  0
 20 19  2  0
 21 22  2  0
 22 18  1  0
  1 23  1  0
  5 24  1  0
  8 25  1  0
  9 26  1  0
 14 27  1  0
 15 28  1  0
 17 29  1  0
 19 30  1  0
 21 31  1  0
M  ISO  8  23  14  24  14  25  14  26  14  27  14  28  14  29  14  30  14
M  ISO  1  31  14
M  END
>  <minimizedAffinity>  (1) 
-4.56111288

>  <minimizedRMSD>  (1) 
0.370775342

$$$$
