
     RDKit          3D

 36 38  0  0  0  0  0  0  0  0999 V2000
   45.2810   33.4820   46.3900 C   0  0  0  0  0  0  0  0  0  0  0  0
   45.7950   33.5040   45.0890 C   0  0  0  0  0  0  0  0  0  0  0  0
   46.9080   32.7110   44.7970 C   0  0  0  0  0  0  0  0  0  0  0  0
   47.4430   31.9460   45.8050 N   0  0  0  0  0  0  0  0  0  0  0  0
   46.9100   31.9550   47.0580 C   0  0  0  0  0  0  0  0  0  0  0  0
   45.8420   32.7170   47.3380 N   0  0  0  0  0  0  0  0  0  0  0  0
   45.2460   34.3040   44.0070 C   0  0  0  0  0  0  0  0  0  0  0  0
   45.3340   35.6750   43.9660 C   0  0  0  0  0  0  0  0  0  0  0  0
   44.8260   36.4670   42.9550 C   0  0  0  0  0  0  0  0  0  0  0  0
   44.1940   35.8710   41.9280 N   0  0  0  0  0  0  0  0  0  0  0  0
   44.1010   34.5080   41.9610 C   0  0  0  0  0  0  0  0  0  0  0  0
   44.6090   33.7610   42.9630 N   0  0  0  0  0  0  0  0  0  0  0  0
   43.3900   33.9170   40.7930 C   0  0  0  0  0  0  0  0  0  0  0  0
   42.7230   34.9700   39.9360 C   0  0  0  0  0  0  0  0  0  0  0  0
   44.4190   33.2500   39.8840 C   0  0  0  0  0  0  0  0  0  0  0  0
   42.3870   32.8810   41.2860 C   0  0  0  0  0  0  0  0  0  0  0  0
   47.5230   32.6440   43.5200 N   0  0  0  0  0  0  0  0  0  0  0  0
   47.4640   31.7900   42.4820 C   0  0  0  0  0  0  0  0  0  0  0  0
   48.2740   32.2100   41.4850 N   0  0  0  0  0  0  0  0  0  0  0  0
   48.8350   33.3480   41.9350 C   0  0  0  0  0  0  0  0  0  0  0  0
   48.3720   33.6140   43.1850 N   0  0  0  0  0  0  0  0  0  0  0  0
   44.4056   34.1000   46.6385 H   0  0  0  0  0  0  0  0  0  0  0  0
   47.3585   31.3328   47.8465 H   0  0  0  0  0  0  0  0  0  0  0  0
   45.8464   36.1782   44.7992 H   0  0  0  0  0  0  0  0  0  0  0  0
   44.9358   37.5610   42.9889 H   0  0  0  0  0  0  0  0  0  0  0  0
   42.2469   35.7216   40.5829 H   0  0  0  0  0  0  0  0  0  0  0  0
   43.4773   35.4577   39.3010 H   0  0  0  0  0  0  0  0  0  0  0  0
   41.9598   34.4965   39.3010 H   0  0  0  0  0  0  0  0  0  0  0  0
   45.1844   32.7539   40.4988 H   0  0  0  0  0  0  0  0  0  0  0  0
   43.9185   32.5041   39.2491 H   0  0  0  0  0  0  0  0  0  0  0  0
   44.8956   34.0114   39.2491 H   0  0  0  0  0  0  0  0  0  0  0  0
   42.3790   32.8728   42.3859 H   0  0  0  0  0  0  0  0  0  0  0  0
   41.3837   33.1359   40.9140 H   0  0  0  0  0  0  0  0  0  0  0  0
   42.6743   31.8865   40.9140 H   0  0  0  0  0  0  0  0  0  0  0  0
   46.8456   30.8809   42.4495 H   0  0  0  0  0  0  0  0  0  0  0  0
   49.5551   33.9657   41.3784 H   0  0  0  0  0  0  0  0  0  0  0  0
  1  6  2  0
  2  1  1  0
  3  2  2  0
  3  4  1  0
  4  5  2  0
  5  6  1  0
  7  2  1  0
  8  7  2  0
  9  8  1  0
 10 11  1  0
 10  9  2  0
 11 12  2  0
 12  7  1  0
 13 16  1  0
 13 11  1  0
 14 13  1  0
 15 13  1  0
 17  3  1  0
 18 17  1  0
 19 20  1  0
 19 18  2  0
 20 21  2  0
 21 17  1  0
  1 22  1  0
  5 23  1  0
  8 24  1  0
  9 25  1  0
 14 26  1  0
 14 27  1  0
 14 28  1  0
 15 29  1  0
 15 30  1  0
 15 31  1  0
 16 32  1  0
 16 33  1  0
 16 34  1  0
 18 35  1  0
 20 36  1  0
M  ISO  8  22  14  23  14  24  14  25  14  26   8  27   8  28   8  29   8
M  ISO  7  30   8  31   8  32   8  33   8  34   8  35  14  36  14
M  END
>  <minimizedAffinity>  (1) 
-4.3920145

>  <minimizedRMSD>  (1) 
0.334931731

$$$$
