
     RDKit          3D

 31 34  0  0  0  0  0  0  0  0999 V2000
   45.3270   33.5040   46.2960 C   0  0  0  0  0  0  0  0  0  0  0  0
   45.8160   33.5340   44.9850 C   0  0  0  0  0  0  0  0  0  0  0  0
   46.9270   32.7750   44.6680 C   0  0  0  0  0  0  0  0  0  0  0  0
   47.5090   32.0180   45.6570 N   0  0  0  0  0  0  0  0  0  0  0  0
   47.0000   32.0180   46.9190 C   0  0  0  0  0  0  0  0  0  0  0  0
   45.9300   32.7500   47.2230 N   0  0  0  0  0  0  0  0  0  0  0  0
   45.2210   34.3290   43.9090 C   0  0  0  0  0  0  0  0  0  0  0  0
   45.4630   35.6630   43.7330 C   0  0  0  0  0  0  0  0  0  0  0  0
   44.9290   36.4470   42.7420 C   0  0  0  0  0  0  0  0  0  0  0  0
   44.0840   35.8620   41.8490 N   0  0  0  0  0  0  0  0  0  0  0  0
   43.8470   34.5410   42.0270 C   0  0  0  0  0  0  0  0  0  0  0  0
   44.3810   33.7910   43.0040 N   0  0  0  0  0  0  0  0  0  0  0  0
   42.9560   33.7060   41.1660 C   0  0  0  0  0  0  0  0  0  0  0  0
   42.5050   34.1550   39.8820 C   0  0  0  0  0  0  0  0  0  0  0  0
   41.6920   33.3210   39.1660 C   0  0  0  0  0  0  0  0  0  0  0  0
   41.3320   32.0640   39.7150 C   0  0  0  0  0  0  0  0  0  0  0  0
   42.2470   32.1170   41.3820 S   0  0  0  0  0  0  0  0  0  0  0  0
   47.5200   32.7210   43.3690 N   0  0  0  0  0  0  0  0  0  0  0  0
   47.3630   31.9310   42.2940 C   0  0  0  0  0  0  0  0  0  0  0  0
   48.1920   32.3250   41.3080 N   0  0  0  0  0  0  0  0  0  0  0  0
   48.8640   33.3780   41.8020 C   0  0  0  0  0  0  0  0  0  0  0  0
   48.4470   33.6160   43.0680 N   0  0  0  0  0  0  0  0  0  0  0  0
   44.4441   34.1022   46.5655 H   0  0  0  0  0  0  0  0  0  0  0  0
   47.4784   31.4057   47.6977 H   0  0  0  0  0  0  0  0  0  0  0  0
   46.1441   36.1492   44.4470 H   0  0  0  0  0  0  0  0  0  0  0  0
   45.1762   37.5165   42.6710 H   0  0  0  0  0  0  0  0  0  0  0  0
   42.8028   35.1371   39.4860 H   0  0  0  0  0  0  0  0  0  0  0  0
   41.3212   33.6217   38.1750 H   0  0  0  0  0  0  0  0  0  0  0  0
   40.6960   31.2727   39.2916 H   0  0  0  0  0  0  0  0  0  0  0  0
   46.6609   31.0867   42.2285 H   0  0  0  0  0  0  0  0  0  0  0  0
   49.6307   33.9548   41.2639 H   0  0  0  0  0  0  0  0  0  0  0  0
  1  6  2  0
  2  1  1  0
  3  2  2  0
  3  4  1  0
  4  5  2  0
  5  6  1  0
  7  2  1  0
  8  7  2  0
  9  8  1  0
 10 11  1  0
 10  9  2  0
 11 12  2  0
 12  7  1  0
 13 17  1  0
 13 11  1  0
 14 13  2  0
 15 16  2  0
 15 14  1  0
 16 17  1  0
 18  3  1  0
 19 18  1  0
 20 21  1  0
 20 19  2  0
 21 22  2  0
 22 18  1  0
  1 23  1  0
  5 24  1  0
  8 25  1  0
  9 26  1  0
 14 27  1  0
 15 28  1  0
 16 29  1  0
 19 30  1  0
 21 31  1  0
M  ISO  8  23  14  24  14  25  14  26  14  27  14  28  14  29  14  30  14
M  ISO  1  31  14
M  END
>  <minimizedAffinity>  (1) 
-4.38932514

>  <minimizedRMSD>  (1) 
0.656084657

$$$$
