
     RDKit          3D

 25 27  0  0  0  0  0  0  0  0999 V2000
   45.3480   33.4270   46.3820 C   0  0  0  0  0  0  0  0  0  0  0  0
   45.8390   33.4350   45.0810 C   0  0  0  0  0  0  0  0  0  0  0  0
   46.9650   32.6840   44.8070 C   0  0  0  0  0  0  0  0  0  0  0  0
   47.5520   31.9640   45.8210 N   0  0  0  0  0  0  0  0  0  0  0  0
   47.0340   31.9900   47.0690 C   0  0  0  0  0  0  0  0  0  0  0  0
   45.9390   32.7170   47.3460 N   0  0  0  0  0  0  0  0  0  0  0  0
   45.2460   34.1860   43.9820 C   0  0  0  0  0  0  0  0  0  0  0  0
   45.4060   35.5350   43.8190 C   0  0  0  0  0  0  0  0  0  0  0  0
   44.8580   36.2700   42.7920 C   0  0  0  0  0  0  0  0  0  0  0  0
   44.1060   35.6260   41.8700 N   0  0  0  0  0  0  0  0  0  0  0  0
   43.9420   34.2920   42.0240 C   0  0  0  0  0  0  0  0  0  0  0  0
   44.4880   33.6050   43.0330 N   0  0  0  0  0  0  0  0  0  0  0  0
   42.9800   33.2580   40.9070 S   0  0  0  0  0  0  0  0  0  0  0  0
   47.5750   32.6030   43.5130 N   0  0  0  0  0  0  0  0  0  0  0  0
   47.4940   31.7420   42.4730 C   0  0  0  0  0  0  0  0  0  0  0  0
   48.2960   32.1410   41.4760 N   0  0  0  0  0  0  0  0  0  0  0  0
   48.8780   33.2620   41.9080 C   0  0  0  0  0  0  0  0  0  0  0  0
   48.4340   33.5440   43.1570 N   0  0  0  0  0  0  0  0  0  0  0  0
   44.4525   34.0189   46.6223 H   0  0  0  0  0  0  0  0  0  0  0  0
   47.5155   31.4080   47.8686 H   0  0  0  0  0  0  0  0  0  0  0  0
   46.0160   36.0704   44.5615 H   0  0  0  0  0  0  0  0  0  0  0  0
   45.0275   37.3547   42.7227 H   0  0  0  0  0  0  0  0  0  0  0  0
   42.1902   32.4091   41.6368 H   0  0  0  0  0  0  0  0  0  0  0  0
   46.8606   30.8430   42.4489 H   0  0  0  0  0  0  0  0  0  0  0  0
   49.6037   33.8623   41.3397 H   0  0  0  0  0  0  0  0  0  0  0  0
  1  6  2  0
  2  1  1  0
  3  2  2  0
  3  4  1  0
  4  5  2  0
  5  6  1  0
  7  2  1  0
  8  7  2  0
  9  8  1  0
 10 11  1  0
 10  9  2  0
 11 12  2  0
 12  7  1  0
 13 11  1  0
 14  3  1  0
 15 14  1  0
 16 17  1  0
 16 15  2  0
 17 18  2  0
 18 14  1  0
  1 19  1  0
  5 20  1  0
  8 21  1  0
  9 22  1  0
 13 23  1  0
 15 24  1  0
 17 25  1  0
M  ISO  7  19  14  20  14  21  14  22  14  23  11  24  14  25  14
M  END
>  <minimizedAffinity>  (1) 
-3.90004015

>  <minimizedRMSD>  (1) 
0.174427524

$$$$
