
     RDKit          3D

 26 28  0  0  0  0  0  0  0  0999 V2000
   45.3520   33.4190   46.3830 C   0  0  0  0  0  0  0  0  0  0  0  0
   45.8340   33.4300   45.0830 C   0  0  0  0  0  0  0  0  0  0  0  0
   46.9720   32.6760   44.7940 C   0  0  0  0  0  0  0  0  0  0  0  0
   47.5540   31.9610   45.8240 N   0  0  0  0  0  0  0  0  0  0  0  0
   47.0350   31.9920   47.0710 C   0  0  0  0  0  0  0  0  0  0  0  0
   45.9350   32.7210   47.3510 N   0  0  0  0  0  0  0  0  0  0  0  0
   45.2440   34.1690   43.9830 C   0  0  0  0  0  0  0  0  0  0  0  0
   45.3870   35.5230   43.8150 C   0  0  0  0  0  0  0  0  0  0  0  0
   44.8430   36.2570   42.7860 C   0  0  0  0  0  0  0  0  0  0  0  0
   44.1020   35.6120   41.8500 N   0  0  0  0  0  0  0  0  0  0  0  0
   43.9560   34.2660   42.0110 C   0  0  0  0  0  0  0  0  0  0  0  0
   44.5020   33.5790   43.0290 N   0  0  0  0  0  0  0  0  0  0  0  0
   43.2030   33.4290   41.1130 N   0  0  0  0  0  0  0  0  0  0  0  0
   47.5790   32.5900   43.5090 N   0  0  0  0  0  0  0  0  0  0  0  0
   47.5080   31.7260   42.4900 C   0  0  0  0  0  0  0  0  0  0  0  0
   48.3180   32.1400   41.4830 N   0  0  0  0  0  0  0  0  0  0  0  0
   48.8800   33.2670   41.9120 C   0  0  0  0  0  0  0  0  0  0  0  0
   48.4330   33.5560   43.1580 N   0  0  0  0  0  0  0  0  0  0  0  0
   44.4549   34.0093   46.6211 H   0  0  0  0  0  0  0  0  0  0  0  0
   47.5178   31.4127   47.8719 H   0  0  0  0  0  0  0  0  0  0  0  0
   45.9843   36.0653   44.5627 H   0  0  0  0  0  0  0  0  0  0  0  0
   45.0053   37.3432   42.7236 H   0  0  0  0  0  0  0  0  0  0  0  0
   43.1309   32.4170   41.2908 H   0  0  0  0  0  0  0  0  0  0  0  0
   42.7366   33.8423   40.2929 H   0  0  0  0  0  0  0  0  0  0  0  0
   46.8874   30.8180   42.4713 H   0  0  0  0  0  0  0  0  0  0  0  0
   49.5991   33.8728   41.3412 H   0  0  0  0  0  0  0  0  0  0  0  0
  1  6  2  0
  2  1  1  0
  3  2  2  0
  3  4  1  0
  4  5  2  0
  5  6  1  0
  7  2  1  0
  8  7  2  0
  9  8  1  0
 10 11  1  0
 10  9  2  0
 11 12  2  0
 12  7  1  0
 13 11  1  0
 14  3  1  0
 15 14  1  0
 16 17  1  0
 16 15  2  0
 17 18  2  0
 18 14  1  0
  1 19  1  0
  5 20  1  0
  8 21  1  0
  9 22  1  0
 13 23  1  0
 13 24  1  0
 15 25  1  0
 17 26  1  0
M  ISO  6  19  14  20  14  21  14  22  14  25  14  26  14
M  END
>  <minimizedAffinity>  (1) 
-3.92001796

>  <minimizedRMSD>  (1) 
0.161612436

$$$$
