
     RDKit          3D

 33 36  0  0  1  0  0  0  0  0999 V2000
   48.2990   33.7090   39.2470 C   0  0  2  0  0  0  0  0  0  0  0  0
   48.2780   34.3550   37.8370 C   0  0  0  0  0  0  0  0  0  0  0  0
   48.3540   32.8310   38.0480 C   0  0  1  0  0  0  0  0  0  0  0  0
   45.7510   34.1570   41.7760 N   0  0  0  0  0  0  0  0  0  0  0  0
   44.9770   33.8450   40.7010 C   0  0  0  0  0  0  0  0  0  0  0  0
   45.7450   33.6290   39.6170 N   0  0  0  0  0  0  0  0  0  0  0  0
   47.0380   33.8120   40.0290 C   0  0  0  0  0  0  0  0  0  0  0  0
   46.9710   34.1220   41.3170 N   0  0  0  0  0  0  0  0  0  0  0  0
   44.8280   35.7400   43.3420 C   0  0  0  0  0  0  0  0  0  0  0  0
   45.4190   34.4630   43.1110 C   0  0  0  0  0  0  0  0  0  0  0  0
   45.6070   33.6550   44.1970 C   0  0  0  0  0  0  0  0  0  0  0  0
   45.2230   34.1220   45.4100 N   0  0  0  0  0  0  0  0  0  0  0  0
   44.6710   35.3220   45.6000 C   0  0  0  0  0  0  0  0  0  0  0  0
   44.4730   36.1420   44.5420 N   0  0  0  0  0  0  0  0  0  0  0  0
   49.5760   32.1050   37.7890 C   0  0  0  0  0  0  0  0  0  0  0  0
   49.8810   31.9090   36.5570 O   0  0  0  0  0  0  0  0  0  0  0  0
   50.3910   31.6350   38.7920 O   0  0  0  0  0  0  0  0  0  0  0  0
   51.7610   31.4900   38.6060 C   0  0  0  0  0  0  0  0  0  0  0  0
   52.5960   30.5300   39.1920 C   0  0  0  0  0  0  0  0  0  0  0  0
   53.8670   30.7090   38.7660 N   0  0  0  0  0  0  0  0  0  0  0  0
   53.8590   31.7520   37.9280 C   0  0  0  0  0  0  0  0  0  0  0  0
   52.5950   32.2030   37.8450 N   0  0  0  0  0  0  0  0  0  0  0  0
   48.9239   33.7883   40.1488 H   0  0  0  0  0  0  0  0  0  0  0  0
   49.1522   34.9100   37.4657 H   0  0  0  0  0  0  0  0  0  0  0  0
   47.6191   35.0475   37.2926 H   0  0  0  0  0  0  0  0  0  0  0  0
   47.7599   31.9883   37.6647 H   0  0  0  0  0  0  0  0  0  0  0  0
   43.8791   33.7787   40.7159 H   0  0  0  0  0  0  0  0  0  0  0  0
   44.6635   36.4117   42.4866 H   0  0  0  0  0  0  0  0  0  0  0  0
   46.0561   32.6566   44.0900 H   0  0  0  0  0  0  0  0  0  0  0  0
   44.3787   35.6427   46.6108 H   0  0  0  0  0  0  0  0  0  0  0  0
   52.2675   29.7485   39.8929 H   0  0  0  0  0  0  0  0  0  0  0  0
   54.7310   32.1666   37.4009 H   0  0  0  0  0  0  0  0  0  0  0  0
   52.3049   33.0025   37.2641 H   0  0  0  0  0  0  0  0  0  0  0  0
  1  7  1  0
  2  3  1  0
  2  1  1  0
  3  1  1  0
  4 10  1  0
  5  4  1  0
  6  7  1  0
  6  5  2  0
  7  8  2  0
  8  4  1  0
  9 14  2  0
 10  9  1  0
 10 11  2  0
 11 12  1  0
 12 13  2  0
 14 13  1  0
 15  3  1  0
 15 17  1  0
 16 15  2  0
 18 17  1  0
 18 19  2  0
 20 19  1  0
 21 20  2  0
 22 21  1  0
 22 18  1  0
  1 23  1  1
  2 24  1  0
  2 25  1  0
  3 26  1  6
  5 27  1  0
  9 28  1  0
 11 29  1  0
 13 30  1  0
 19 31  1  0
 21 32  1  0
 22 33  1  0
M  ISO  8  23  13  24  13  25  13  26  13  27  14  28  14  29  14  30  14
M  ISO  3  31  14  32  14  33   9
M  END
>  <minimizedAffinity>  (1) 
-4.97933102

>  <minimizedRMSD>  (1) 
1.12290049

$$$$
