
     RDKit          3D

 26 28  0  0  0  0  0  0  0  0999 V2000
   45.3450   33.4260   46.3850 C   0  0  0  0  0  0  0  0  0  0  0  0
   45.8340   33.4320   45.0770 C   0  0  0  0  0  0  0  0  0  0  0  0
   46.9660   32.6820   44.7920 C   0  0  0  0  0  0  0  0  0  0  0  0
   47.5480   31.9710   45.8050 N   0  0  0  0  0  0  0  0  0  0  0  0
   47.0410   31.9930   47.0600 C   0  0  0  0  0  0  0  0  0  0  0  0
   45.9420   32.7200   47.3390 N   0  0  0  0  0  0  0  0  0  0  0  0
   45.2370   34.1770   43.9760 C   0  0  0  0  0  0  0  0  0  0  0  0
   45.4100   35.5410   43.8100 C   0  0  0  0  0  0  0  0  0  0  0  0
   44.8560   36.2660   42.7780 C   0  0  0  0  0  0  0  0  0  0  0  0
   44.0980   35.6380   41.8590 N   0  0  0  0  0  0  0  0  0  0  0  0
   43.9290   34.2940   42.0250 C   0  0  0  0  0  0  0  0  0  0  0  0
   44.4780   33.6050   43.0390 N   0  0  0  0  0  0  0  0  0  0  0  0
   43.1280   33.5200   41.0890 C   0  0  0  0  0  0  0  0  0  0  0  0
   41.8780   33.5950   40.9850 O   0  0  0  0  0  0  0  0  0  0  0  0
   47.5700   32.5990   43.4990 N   0  0  0  0  0  0  0  0  0  0  0  0
   47.4930   31.7600   42.4630 C   0  0  0  0  0  0  0  0  0  0  0  0
   48.2980   32.1610   41.4640 N   0  0  0  0  0  0  0  0  0  0  0  0
   48.8790   33.2710   41.9010 C   0  0  0  0  0  0  0  0  0  0  0  0
   48.4380   33.5510   43.1560 N   0  0  0  0  0  0  0  0  0  0  0  0
   44.4496   34.0163   46.6298 H   0  0  0  0  0  0  0  0  0  0  0  0
   47.5297   31.4134   47.8570 H   0  0  0  0  0  0  0  0  0  0  0  0
   46.0266   36.0775   44.5462 H   0  0  0  0  0  0  0  0  0  0  0  0
   45.0314   37.3495   42.7051 H   0  0  0  0  0  0  0  0  0  0  0  0
   43.6544   32.8189   40.4247 H   0  0  0  0  0  0  0  0  0  0  0  0
   46.8573   30.8628   42.4314 H   0  0  0  0  0  0  0  0  0  0  0  0
   49.6057   33.8721   41.3348 H   0  0  0  0  0  0  0  0  0  0  0  0
  1  6  2  0
  2  1  1  0
  3  2  2  0
  3  4  1  0
  4  5  2  0
  5  6  1  0
  7  2  1  0
  8  7  2  0
  9  8  1  0
 10 11  1  0
 10  9  2  0
 11 12  2  0
 12  7  1  0
 13 11  1  0
 14 13  2  0
 15  3  1  0
 16 15  1  0
 17 18  1  0
 17 16  2  0
 18 19  2  0
 19 15  1  0
  1 20  1  0
  5 21  1  0
  8 22  1  0
  9 23  1  0
 13 24  1  0
 16 25  1  0
 18 26  1  0
M  ISO  7  20  14  21  14  22  14  23  14  24   6  25  14  26  14
M  END
>  <minimizedAffinity>  (1) 
-3.92372012

>  <minimizedRMSD>  (1) 
0.201690331

$$$$
