
     RDKit          3D

 25 27  0  0  0  0  0  0  0  0999 V2000
   45.3430   33.4270   46.3780 C   0  0  0  0  0  0  0  0  0  0  0  0
   45.8320   33.4310   45.0770 C   0  0  0  0  0  0  0  0  0  0  0  0
   46.9670   32.6810   44.7910 C   0  0  0  0  0  0  0  0  0  0  0  0
   47.5520   31.9700   45.8180 N   0  0  0  0  0  0  0  0  0  0  0  0
   47.0420   31.9930   47.0730 C   0  0  0  0  0  0  0  0  0  0  0  0
   45.9400   32.7230   47.3420 N   0  0  0  0  0  0  0  0  0  0  0  0
   45.2400   34.1680   43.9780 C   0  0  0  0  0  0  0  0  0  0  0  0
   45.3990   35.5280   43.8140 C   0  0  0  0  0  0  0  0  0  0  0  0
   44.8510   36.2710   42.7780 C   0  0  0  0  0  0  0  0  0  0  0  0
   44.1030   35.6100   41.8550 N   0  0  0  0  0  0  0  0  0  0  0  0
   43.9440   34.2750   42.0100 C   0  0  0  0  0  0  0  0  0  0  0  0
   44.4900   33.5900   43.0270 N   0  0  0  0  0  0  0  0  0  0  0  0
   43.1910   33.5380   41.1020 O   0  0  0  0  0  0  0  0  0  0  0  0
   47.5720   32.5950   43.5090 N   0  0  0  0  0  0  0  0  0  0  0  0
   47.5000   31.7420   42.4760 C   0  0  0  0  0  0  0  0  0  0  0  0
   48.3050   32.1410   41.4750 N   0  0  0  0  0  0  0  0  0  0  0  0
   48.8790   33.2660   41.9120 C   0  0  0  0  0  0  0  0  0  0  0  0
   48.4300   33.5410   43.1550 N   0  0  0  0  0  0  0  0  0  0  0  0
   44.4456   34.0161   46.6181 H   0  0  0  0  0  0  0  0  0  0  0  0
   47.5272   31.4156   47.8737 H   0  0  0  0  0  0  0  0  0  0  0  0
   46.0051   36.0635   44.5596 H   0  0  0  0  0  0  0  0  0  0  0  0
   45.0159   37.3562   42.7061 H   0  0  0  0  0  0  0  0  0  0  0  0
   43.0821   32.5619   41.2263 H   0  0  0  0  0  0  0  0  0  0  0  0
   46.8697   30.8408   42.4511 H   0  0  0  0  0  0  0  0  0  0  0  0
   49.6030   33.8722   41.3478 H   0  0  0  0  0  0  0  0  0  0  0  0
  1  6  2  0
  2  1  1  0
  3  2  2  0
  3  4  1  0
  4  5  2  0
  5  6  1  0
  7  2  1  0
  8  7  2  0
  9  8  1  0
 10 11  1  0
 10  9  2  0
 11 12  2  0
 12  7  1  0
 13 11  1  0
 14  3  1  0
 15 14  1  0
 16 17  1  0
 16 15  2  0
 17 18  2  0
 18 14  1  0
  1 19  1  0
  5 20  1  0
  8 21  1  0
  9 22  1  0
 13 23  1  0
 15 24  1  0
 17 25  1  0
M  ISO  7  19  14  20  14  21  14  22  14  23   3  24  14  25  14
M  END
>  <minimizedAffinity>  (1) 
-3.89159441

>  <minimizedRMSD>  (1) 
0.170279413

$$$$
