
     RDKit          3D

 38 42  0  0  0  0  0  0  0  0999 V2000
   44.9890   33.6510   46.8160 C   0  0  0  0  0  0  0  0  0  0  0  0
   45.5980   33.6200   45.5650 C   0  0  0  0  0  0  0  0  0  0  0  0
   46.7230   32.8370   45.3920 C   0  0  0  0  0  0  0  0  0  0  0  0
   47.2120   32.1150   46.4470 N   0  0  0  0  0  0  0  0  0  0  0  0
   46.5850   32.1720   47.6650 C   0  0  0  0  0  0  0  0  0  0  0  0
   45.4960   32.9300   47.8330 N   0  0  0  0  0  0  0  0  0  0  0  0
   45.1150   34.3720   44.4040 C   0  0  0  0  0  0  0  0  0  0  0  0
   45.2280   35.7250   44.3010 C   0  0  0  0  0  0  0  0  0  0  0  0
   44.7910   36.4800   43.2310 C   0  0  0  0  0  0  0  0  0  0  0  0
   44.2000   35.8300   42.1940 N   0  0  0  0  0  0  0  0  0  0  0  0
   44.0900   34.4800   42.3000 C   0  0  0  0  0  0  0  0  0  0  0  0
   44.5280   33.7800   43.3580 N   0  0  0  0  0  0  0  0  0  0  0  0
   43.4540   33.7690   41.1880 C   0  0  0  0  0  0  0  0  0  0  0  0
   43.2800   34.2640   39.8840 C   0  0  0  0  0  0  0  0  0  0  0  0
   42.6420   33.2600   39.1890 C   0  0  0  0  0  0  0  0  0  0  0  0
   42.4360   32.2180   40.0040 N   0  0  0  0  0  0  0  0  0  0  0  0
   42.9250   32.5390   41.1890 N   0  0  0  0  0  0  0  0  0  0  0  0
   47.4350   32.7200   44.1590 N   0  0  0  0  0  0  0  0  0  0  0  0
   47.7430   31.7250   43.3160 C   0  0  0  0  0  0  0  0  0  0  0  0
   48.4570   32.1800   42.2650 N   0  0  0  0  0  0  0  0  0  0  0  0
   48.5870   33.4970   42.4780 C   0  0  0  0  0  0  0  0  0  0  0  0
   47.9650   33.8230   43.6280 N   0  0  0  0  0  0  0  0  0  0  0  0
   49.3210   34.3800   41.5330 C   0  0  0  0  0  0  0  0  0  0  0  0
   48.5840   35.1330   40.4900 C   0  0  0  0  0  0  0  0  0  0  0  0
   49.0850   35.8560   41.7000 C   0  0  0  0  0  0  0  0  0  0  0  0
   44.0910   34.2664   46.9739 H   0  0  0  0  0  0  0  0  0  0  0  0
   46.9806   31.5899   48.5104 H   0  0  0  0  0  0  0  0  0  0  0  0
   45.7051   36.2586   45.1363 H   0  0  0  0  0  0  0  0  0  0  0  0
   44.9171   37.5727   43.2182 H   0  0  0  0  0  0  0  0  0  0  0  0
   43.5886   35.2471   39.4990 H   0  0  0  0  0  0  0  0  0  0  0  0
   42.3479   33.3071   38.1301 H   0  0  0  0  0  0  0  0  0  0  0  0
   41.9800   31.3291   39.7534 H   0  0  0  0  0  0  0  0  0  0  0  0
   47.4518   30.6743   43.4616 H   0  0  0  0  0  0  0  0  0  0  0  0
   50.1878   33.7036   41.5005 H   0  0  0  0  0  0  0  0  0  0  0  0
   49.0515   35.3136   39.5108 H   0  0  0  0  0  0  0  0  0  0  0  0
   47.6030   35.0241   40.0044 H   0  0  0  0  0  0  0  0  0  0  0  0
   48.3764   36.2195   42.4588 H   0  0  0  0  0  0  0  0  0  0  0  0
   49.7221   36.7349   41.8783 H   0  0  0  0  0  0  0  0  0  0  0  0
  1  6  2  0
  2  1  1  0
  3  2  2  0
  3  4  1  0
  4  5  2  0
  5  6  1  0
  7  2  1  0
  8  7  2  0
  9  8  1  0
 10 11  1  0
 10  9  2  0
 11 12  2  0
 12  7  1  0
 13 17  2  0
 13 11  1  0
 14 13  1  0
 15 14  2  0
 15 16  1  0
 16 17  1  0
 18  3  1  0
 19 18  1  0
 20 21  1  0
 20 19  2  0
 21 22  2  0
 22 18  1  0
 23 25  1  0
 23 21  1  0
 24 23  1  0
 24 25  1  0
  1 26  1  0
  5 27  1  0
  8 28  1  0
  9 29  1  0
 14 30  1  0
 15 31  1  0
 16 32  1  0
 19 33  1  0
 23 34  1  0
 24 35  1  0
 24 36  1  0
 25 37  1  0
 25 38  1  0
M  ISO  8  26  14  27  14  28  14  29  14  30  14  31  14  32   9  33  14
M  ISO  5  34  13  35  13  36  13  37  13  38  13
M  END
>  <minimizedAffinity>  (1) 
-5.49838734

>  <minimizedRMSD>  (1) 
0.912873864

$$$$
