
     RDKit          3D

 31 34  0  0  0  0  0  0  0  0999 V2000
   45.3050   33.5180   46.2590 C   0  0  0  0  0  0  0  0  0  0  0  0
   45.8030   33.5780   44.9520 C   0  0  0  0  0  0  0  0  0  0  0  0
   46.9230   32.8280   44.6400 C   0  0  0  0  0  0  0  0  0  0  0  0
   47.5060   32.0550   45.6100 N   0  0  0  0  0  0  0  0  0  0  0  0
   46.9850   32.0280   46.8740 C   0  0  0  0  0  0  0  0  0  0  0  0
   45.9060   32.7490   47.1780 N   0  0  0  0  0  0  0  0  0  0  0  0
   45.2130   34.3840   43.8910 C   0  0  0  0  0  0  0  0  0  0  0  0
   45.4630   35.7210   43.7450 C   0  0  0  0  0  0  0  0  0  0  0  0
   44.9240   36.5170   42.7540 C   0  0  0  0  0  0  0  0  0  0  0  0
   44.0840   35.9500   41.8500 N   0  0  0  0  0  0  0  0  0  0  0  0
   43.8400   34.6240   42.0000 C   0  0  0  0  0  0  0  0  0  0  0  0
   44.3760   33.8630   42.9740 N   0  0  0  0  0  0  0  0  0  0  0  0
   42.9380   34.0010   41.0320 C   0  0  0  0  0  0  0  0  0  0  0  0
   42.5160   34.5480   39.8180 C   0  0  0  0  0  0  0  0  0  0  0  0
   41.6800   33.6200   39.2430 C   0  0  0  0  0  0  0  0  0  0  0  0
   41.5880   32.5550   40.0550 N   0  0  0  0  0  0  0  0  0  0  0  0
   42.3410   32.7950   41.1170 N   0  0  0  0  0  0  0  0  0  0  0  0
   47.5300   32.8020   43.3410 N   0  0  0  0  0  0  0  0  0  0  0  0
   47.3990   32.0550   42.2400 C   0  0  0  0  0  0  0  0  0  0  0  0
   48.2420   32.4770   41.2740 N   0  0  0  0  0  0  0  0  0  0  0  0
   48.9010   33.5070   41.8050 C   0  0  0  0  0  0  0  0  0  0  0  0
   48.4700   33.7140   43.0750 N   0  0  0  0  0  0  0  0  0  0  0  0
   44.4160   34.1049   46.5333 H   0  0  0  0  0  0  0  0  0  0  0  0
   47.4605   31.4059   47.6466 H   0  0  0  0  0  0  0  0  0  0  0  0
   46.1418   36.1957   44.4687 H   0  0  0  0  0  0  0  0  0  0  0  0
   45.1697   37.5877   42.6979 H   0  0  0  0  0  0  0  0  0  0  0  0
   42.7969   35.5276   39.4038 H   0  0  0  0  0  0  0  0  0  0  0  0
   41.1696   33.7321   38.2750 H   0  0  0  0  0  0  0  0  0  0  0  0
   41.0322   31.7051   39.8829 H   0  0  0  0  0  0  0  0  0  0  0  0
   46.7000   31.2120   42.1357 H   0  0  0  0  0  0  0  0  0  0  0  0
   49.6747   34.0979   41.2928 H   0  0  0  0  0  0  0  0  0  0  0  0
  1  6  2  0
  2  1  1  0
  3  2  2  0
  3  4  1  0
  4  5  2  0
  5  6  1  0
  7  2  1  0
  8  7  2  0
  9  8  1  0
 10 11  1  0
 10  9  2  0
 11 12  2  0
 12  7  1  0
 13 17  2  0
 13 11  1  0
 14 13  1  0
 15 14  2  0
 15 16  1  0
 16 17  1  0
 18  3  1  0
 19 18  1  0
 20 21  1  0
 20 19  2  0
 21 22  2  0
 22 18  1  0
  1 23  1  0
  5 24  1  0
  8 25  1  0
  9 26  1  0
 14 27  1  0
 15 28  1  0
 16 29  1  0
 19 30  1  0
 21 31  1  0
M  ISO  8  23  14  24  14  25  14  26  14  27  14  28  14  29   9  30  14
M  ISO  1  31  14
M  END
>  <minimizedAffinity>  (1) 
-4.41335011

>  <minimizedRMSD>  (1) 
0.584062159

$$$$
