
     RDKit          3D

 34 37  0  0  0  0  0  0  0  0999 V2000
   45.0970   33.4230   47.1140 C   0  0  0  0  0  0  0  0  0  0  0  0
   45.6560   33.3580   45.8380 C   0  0  0  0  0  0  0  0  0  0  0  0
   46.7340   32.4980   45.6310 C   0  0  0  0  0  0  0  0  0  0  0  0
   47.2000   31.7550   46.6800 N   0  0  0  0  0  0  0  0  0  0  0  0
   46.6140   31.8580   47.9140 C   0  0  0  0  0  0  0  0  0  0  0  0
   45.5890   32.6770   48.1090 N   0  0  0  0  0  0  0  0  0  0  0  0
   45.1830   34.1370   44.6920 C   0  0  0  0  0  0  0  0  0  0  0  0
   45.1790   35.4950   44.6740 C   0  0  0  0  0  0  0  0  0  0  0  0
   44.7380   36.2580   43.6040 C   0  0  0  0  0  0  0  0  0  0  0  0
   44.2800   35.6270   42.5010 N   0  0  0  0  0  0  0  0  0  0  0  0
   44.2890   34.2750   42.5290 C   0  0  0  0  0  0  0  0  0  0  0  0
   44.7200   33.5440   43.5750 N   0  0  0  0  0  0  0  0  0  0  0  0
   43.7950   33.5750   41.3390 C   0  0  0  0  0  0  0  0  0  0  0  0
   43.7080   34.1040   40.0450 C   0  0  0  0  0  0  0  0  0  0  0  0
   43.1920   33.1010   39.2570 C   0  0  0  0  0  0  0  0  0  0  0  0
   42.9730   32.0190   40.0130 N   0  0  0  0  0  0  0  0  0  0  0  0
   43.3380   32.3180   41.2510 N   0  0  0  0  0  0  0  0  0  0  0  0
   47.3910   32.3400   44.3790 N   0  0  0  0  0  0  0  0  0  0  0  0
   47.5340   31.3550   43.4920 C   0  0  0  0  0  0  0  0  0  0  0  0
   48.2850   31.7560   42.4360 N   0  0  0  0  0  0  0  0  0  0  0  0
   48.5990   33.0140   42.7000 C   0  0  0  0  0  0  0  0  0  0  0  0
   48.0630   33.3870   43.8790 N   0  0  0  0  0  0  0  0  0  0  0  0
   49.4110   33.8360   41.8120 C   0  0  0  0  0  0  0  0  0  0  0  0
   50.3480   34.5210   42.3100 O   0  0  0  0  0  0  0  0  0  0  0  0
   49.2410   33.9330   40.4380 O   0  0  0  0  0  0  0  0  0  0  0  0
   44.2452   34.0927   47.3035 H   0  0  0  0  0  0  0  0  0  0  0  0
   46.9971   31.2558   48.7510 H   0  0  0  0  0  0  0  0  0  0  0  0
   45.5492   36.0230   45.5651 H   0  0  0  0  0  0  0  0  0  0  0  0
   44.7606   37.3567   43.6523 H   0  0  0  0  0  0  0  0  0  0  0  0
   43.9942   35.1164   39.7238 H   0  0  0  0  0  0  0  0  0  0  0  0
   42.9916   33.1766   38.1781 H   0  0  0  0  0  0  0  0  0  0  0  0
   42.5906   31.1183   39.6913 H   0  0  0  0  0  0  0  0  0  0  0  0
   47.1003   30.3501   43.6020 H   0  0  0  0  0  0  0  0  0  0  0  0
   48.5227   33.4192   39.9906 H   0  0  0  0  0  0  0  0  0  0  0  0
  1  6  2  0
  2  1  1  0
  3  2  2  0
  3  4  1  0
  4  5  2  0
  5  6  1  0
  7  2  1  0
  8  7  2  0
  9  8  1  0
 10 11  1  0
 10  9  2  0
 11 12  2  0
 12  7  1  0
 13 11  1  0
 14 13  1  0
 15 16  1  0
 15 14  2  0
 16 17  1  0
 17 13  2  0
 18  3  1  0
 19 18  1  0
 20 21  1  0
 20 19  2  0
 21 22  2  0
 22 18  1  0
 23 24  2  0
 23 21  1  0
 25 23  1  0
  1 26  1  0
  5 27  1  0
  8 28  1  0
  9 29  1  0
 14 30  1  0
 15 31  1  0
 16 32  1  0
 19 33  1  0
 25 34  1  0
M  ISO  8  26  14  27  14  28  14  29  14  30  14  31  14  32   9  33  14
M  ISO  1  34   3
M  END
>  <minimizedAffinity>  (1) 
-5.00640869

>  <minimizedRMSD>  (1) 
1.1274482

$$$$
