
     RDKit          3D

 47 51  0  0  0  0  0  0  0  0999 V2000
   45.6020   33.2820   46.6890 C   0  0  0  0  0  0  0  0  0  0  0  0
   46.0000   32.7700   45.4490 C   0  0  0  0  0  0  0  0  0  0  0  0
   46.5130   31.4830   45.4040 C   0  0  0  0  0  0  0  0  0  0  0  0
   46.6170   30.7540   46.5580 N   0  0  0  0  0  0  0  0  0  0  0  0
   46.2150   31.2990   47.7520 C   0  0  0  0  0  0  0  0  0  0  0  0
   45.7200   32.5370   47.7970 N   0  0  0  0  0  0  0  0  0  0  0  0
   45.9070   33.5080   44.1950 C   0  0  0  0  0  0  0  0  0  0  0  0
   46.9590   34.1790   43.6520 C   0  0  0  0  0  0  0  0  0  0  0  0
   46.9160   34.8880   42.4720 C   0  0  0  0  0  0  0  0  0  0  0  0
   45.7460   34.9330   41.7830 N   0  0  0  0  0  0  0  0  0  0  0  0
   44.6990   34.2620   42.3290 C   0  0  0  0  0  0  0  0  0  0  0  0
   44.7620   33.5750   43.4840 N   0  0  0  0  0  0  0  0  0  0  0  0
   43.4340   34.3000   41.6010 C   0  0  0  0  0  0  0  0  0  0  0  0
   42.8210   35.4160   41.0500 C   0  0  0  0  0  0  0  0  0  0  0  0
   41.6530   34.9880   40.4620 C   0  0  0  0  0  0  0  0  0  0  0  0
   41.5460   33.6650   40.6400 N   0  0  0  0  0  0  0  0  0  0  0  0
   42.6160   33.2760   41.3210 N   0  0  0  0  0  0  0  0  0  0  0  0
   46.9550   30.8440   44.1960 N   0  0  0  0  0  0  0  0  0  0  0  0
   46.3690   30.1490   43.2260 C   0  0  0  0  0  0  0  0  0  0  0  0
   47.2730   29.7640   42.2940 N   0  0  0  0  0  0  0  0  0  0  0  0
   48.4490   30.2480   42.7200 C   0  0  0  0  0  0  0  0  0  0  0  0
   48.2430   30.9140   43.8950 N   0  0  0  0  0  0  0  0  0  0  0  0
   49.7990   30.1310   42.0900 C   0  0  0  0  0  0  0  0  0  0  0  0
   50.8080   31.0330   42.7190 C   0  0  0  0  0  0  0  0  0  0  0  0
   51.0110   32.2490   41.8260 C   0  0  0  0  0  0  0  0  0  0  0  0
   51.7270   31.7420   40.5730 C   0  0  0  0  0  0  0  0  0  0  0  0
   51.0510   30.5120   40.0360 C   0  0  0  0  0  0  0  0  0  0  0  0
   49.6400   30.3950   40.6100 C   0  0  0  0  0  0  0  0  0  0  0  0
   45.1906   34.3001   46.7547 H   0  0  0  0  0  0  0  0  0  0  0  0
   46.3016   30.7111   48.6777 H   0  0  0  0  0  0  0  0  0  0  0  0
   47.9148   34.1532   44.1959 H   0  0  0  0  0  0  0  0  0  0  0  0
   47.8099   35.4068   42.0955 H   0  0  0  0  0  0  0  0  0  0  0  0
   43.1980   36.4490   41.0780 H   0  0  0  0  0  0  0  0  0  0  0  0
   40.9285   35.6256   39.9342 H   0  0  0  0  0  0  0  0  0  0  0  0
   40.7779   33.0631   40.3104 H   0  0  0  0  0  0  0  0  0  0  0  0
   45.2943   29.9177   43.1858 H   0  0  0  0  0  0  0  0  0  0  0  0
   50.1925   29.1165   42.2509 H   0  0  0  0  0  0  0  0  0  0  0  0
   50.4482   31.3568   43.7068 H   0  0  0  0  0  0  0  0  0  0  0  0
   51.7612   30.4974   42.8397 H   0  0  0  0  0  0  0  0  0  0  0  0
   50.0404   32.6918   41.5580 H   0  0  0  0  0  0  0  0  0  0  0  0
   51.5971   33.0279   42.3357 H   0  0  0  0  0  0  0  0  0  0  0  0
   51.7096   32.5284   39.8041 H   0  0  0  0  0  0  0  0  0  0  0  0
   52.7645   31.4888   40.8366 H   0  0  0  0  0  0  0  0  0  0  0  0
   50.9933   30.5780   38.9395 H   0  0  0  0  0  0  0  0  0  0  0  0
   51.6328   29.6252   40.3277 H   0  0  0  0  0  0  0  0  0  0  0  0
   49.0852   31.3310   40.4484 H   0  0  0  0  0  0  0  0  0  0  0  0
   49.0771   29.5869   40.1201 H   0  0  0  0  0  0  0  0  0  0  0  0
  1  6  2  0
  2  1  1  0
  3  2  2  0
  3  4  1  0
  4  5  2  0
  5  6  1  0
  7  2  1  0
  8  7  2  0
  9  8  1  0
 10 11  1  0
 10  9  2  0
 11 12  2  0
 12  7  1  0
 13 11  1  0
 14 13  1  0
 15 16  1  0
 15 14  2  0
 16 17  1  0
 17 13  2  0
 18  3  1  0
 19 18  1  0
 20 21  1  0
 20 19  2  0
 21 22  2  0
 22 18  1  0
 23 24  1  0
 23 21  1  0
 25 24  1  0
 26 25  1  0
 27 26  1  0
 27 28  1  0
 28 23  1  0
  1 29  1  0
  5 30  1  0
  8 31  1  0
  9 32  1  0
 14 33  1  0
 15 34  1  0
 16 35  1  0
 19 36  1  0
 23 37  1  0
 24 38  1  0
 24 39  1  0
 25 40  1  0
 25 41  1  0
 26 42  1  0
 26 43  1  0
 27 44  1  0
 27 45  1  0
 28 46  1  0
 28 47  1  0
M  ISO  8  29  14  30  14  31  14  32  14  33  14  34  14  35   9  36  14
M  ISO  8  37  13  38  13  39  13  40  13  41  13  42  13  43  13  44  13
M  ISO  3  45  13  46  13  47  13
M  END
>  <minimizedAffinity>  (1) 
-5.15435314

>  <minimizedRMSD>  (1) 
2.67958331

$$$$
