
     RDKit          3D

 34 37  0  0  0  0  0  0  0  0999 V2000
   45.5310   33.2650   46.4460 C   0  0  0  0  0  0  0  0  0  0  0  0
   45.9020   33.0780   45.1060 C   0  0  0  0  0  0  0  0  0  0  0  0
   46.8190   32.0910   44.8090 C   0  0  0  0  0  0  0  0  0  0  0  0
   47.3420   31.3230   45.8220 N   0  0  0  0  0  0  0  0  0  0  0  0
   46.9460   31.5450   47.1130 C   0  0  0  0  0  0  0  0  0  0  0  0
   46.0610   32.4960   47.4060 N   0  0  0  0  0  0  0  0  0  0  0  0
   45.3840   33.8600   43.9970 C   0  0  0  0  0  0  0  0  0  0  0  0
   45.8300   35.1250   43.6940 C   0  0  0  0  0  0  0  0  0  0  0  0
   45.3620   35.8990   42.6490 C   0  0  0  0  0  0  0  0  0  0  0  0
   44.3880   35.3820   41.8540 N   0  0  0  0  0  0  0  0  0  0  0  0
   43.9490   34.1370   42.1540 C   0  0  0  0  0  0  0  0  0  0  0  0
   44.4150   33.3960   43.1740 N   0  0  0  0  0  0  0  0  0  0  0  0
   42.9080   33.5860   41.3030 C   0  0  0  0  0  0  0  0  0  0  0  0
   42.4650   34.0900   40.0730 C   0  0  0  0  0  0  0  0  0  0  0  0
   41.4770   33.2570   39.6330 C   0  0  0  0  0  0  0  0  0  0  0  0
   41.2990   32.2700   40.5380 N   0  0  0  0  0  0  0  0  0  0  0  0
   42.1600   32.4850   41.5230 N   0  0  0  0  0  0  0  0  0  0  0  0
   47.2840   31.7960   43.4890 N   0  0  0  0  0  0  0  0  0  0  0  0
   46.8970   30.9680   42.4990 C   0  0  0  0  0  0  0  0  0  0  0  0
   47.7140   31.0980   41.4380 N   0  0  0  0  0  0  0  0  0  0  0  0
   48.6110   32.0160   41.7820 C   0  0  0  0  0  0  0  0  0  0  0  0
   48.3600   32.4540   43.0410 N   0  0  0  0  0  0  0  0  0  0  0  0
   49.7380   32.4980   40.9090 C   0  0  0  0  0  0  0  0  0  0  0  0
   44.8023   34.0459   46.7091 H   0  0  0  0  0  0  0  0  0  0  0  0
   47.3653   30.9282   47.9215 H   0  0  0  0  0  0  0  0  0  0  0  0
   46.6182   35.5529   44.3310 H   0  0  0  0  0  0  0  0  0  0  0  0
   45.7664   36.9054   42.4657 H   0  0  0  0  0  0  0  0  0  0  0  0
   42.8418   34.9868   39.5593 H   0  0  0  0  0  0  0  0  0  0  0  0
   40.9165   33.3711   38.6934 H   0  0  0  0  0  0  0  0  0  0  0  0
   40.6220   31.4963   40.4747 H   0  0  0  0  0  0  0  0  0  0  0  0
   46.0369   30.2842   42.5508 H   0  0  0  0  0  0  0  0  0  0  0  0
   50.5658   32.8520   41.5410 H   0  0  0  0  0  0  0  0  0  0  0  0
   50.0892   31.6714   40.2739 H   0  0  0  0  0  0  0  0  0  0  0  0
   49.3828   33.3229   40.2739 H   0  0  0  0  0  0  0  0  0  0  0  0
  1  6  2  0
  2  1  1  0
  3  2  2  0
  3  4  1  0
  4  5  2  0
  5  6  1  0
  7  2  1  0
  8  7  2  0
  9  8  1  0
 10 11  1  0
 10  9  2  0
 11 12  2  0
 12  7  1  0
 13 17  2  0
 13 11  1  0
 14 13  1  0
 15 14  2  0
 15 16  1  0
 16 17  1  0
 18  3  1  0
 19 18  1  0
 20 21  1  0
 20 19  2  0
 21 22  2  0
 22 18  1  0
 23 21  1  0
  1 24  1  0
  5 25  1  0
  8 26  1  0
  9 27  1  0
 14 28  1  0
 15 29  1  0
 16 30  1  0
 19 31  1  0
 23 32  1  0
 23 33  1  0
 23 34  1  0
M  ISO  8  24  14  25  14  26  14  27  14  28  14  29  14  30   9  31  14
M  ISO  3  32   8  33   8  34   8
M  END
>  <minimizedAffinity>  (1) 
-4.38158607

>  <minimizedRMSD>  (1) 
0.884838879

$$$$
