
     RDKit          3D

 33 36  0  0  0  0  0  0  0  0999 V2000
   45.3510   33.4420   46.4670 C   0  0  0  0  0  0  0  0  0  0  0  0
   45.8110   33.4200   45.1480 C   0  0  0  0  0  0  0  0  0  0  0  0
   46.8580   32.5760   44.8300 C   0  0  0  0  0  0  0  0  0  0  0  0
   47.4140   31.7850   45.8140 N   0  0  0  0  0  0  0  0  0  0  0  0
   46.9220   31.8480   47.0860 C   0  0  0  0  0  0  0  0  0  0  0  0
   45.9110   32.6650   47.3920 N   0  0  0  0  0  0  0  0  0  0  0  0
   47.4270   32.4560   43.5140 N   0  0  0  0  0  0  0  0  0  0  0  0
   47.2600   31.6430   42.4780 C   0  0  0  0  0  0  0  0  0  0  0  0
   48.0690   31.9800   41.4570 N   0  0  0  0  0  0  0  0  0  0  0  0
   48.7510   33.0410   41.9000 C   0  0  0  0  0  0  0  0  0  0  0  0
   48.3590   33.3380   43.1660 N   0  0  0  0  0  0  0  0  0  0  0  0
   49.7350   33.7420   41.1480 N   0  0  0  0  0  0  0  0  0  0  0  0
   45.2570   34.2380   44.0690 C   0  0  0  0  0  0  0  0  0  0  0  0
   45.5350   35.5690   43.9320 C   0  0  0  0  0  0  0  0  0  0  0  0
   45.0330   36.3780   42.9290 C   0  0  0  0  0  0  0  0  0  0  0  0
   44.2040   35.8240   42.0080 N   0  0  0  0  0  0  0  0  0  0  0  0
   43.9370   34.5070   42.1560 C   0  0  0  0  0  0  0  0  0  0  0  0
   44.4360   33.7390   43.1380 N   0  0  0  0  0  0  0  0  0  0  0  0
   43.0450   33.9000   41.1700 C   0  0  0  0  0  0  0  0  0  0  0  0
   42.8080   34.3480   39.8620 C   0  0  0  0  0  0  0  0  0  0  0  0
   41.9080   33.4800   39.3070 C   0  0  0  0  0  0  0  0  0  0  0  0
   41.5950   32.5400   40.2090 N   0  0  0  0  0  0  0  0  0  0  0  0
   42.2720   32.7910   41.3170 N   0  0  0  0  0  0  0  0  0  0  0  0
   44.5193   34.1067   46.7436 H   0  0  0  0  0  0  0  0  0  0  0  0
   47.3649   31.2165   47.8703 H   0  0  0  0  0  0  0  0  0  0  0  0
   46.5514   30.8019   42.4569 H   0  0  0  0  0  0  0  0  0  0  0  0
   50.2180   34.5526   41.5610 H   0  0  0  0  0  0  0  0  0  0  0  0
   49.9642   33.4388   40.1907 H   0  0  0  0  0  0  0  0  0  0  0  0
   46.2058   36.0296   44.6722 H   0  0  0  0  0  0  0  0  0  0  0  0
   45.2990   37.4442   42.8788 H   0  0  0  0  0  0  0  0  0  0  0  0
   43.2583   35.2265   39.3768 H   0  0  0  0  0  0  0  0  0  0  0  0
   41.5061   33.5435   38.2850 H   0  0  0  0  0  0  0  0  0  0  0  0
   40.9407   31.7577   40.0645 H   0  0  0  0  0  0  0  0  0  0  0  0
  1  6  2  0
  2  1  1  0
  3  2  2  0
  3  4  1  0
  4  5  2  0
  5  6  1  0
  7  3  1  0
  8  7  1  0
  9 10  1  0
  9  8  2  0
 10 11  2  0
 11  7  1  0
 12 10  1  0
 13  2  1  0
 14 13  2  0
 15 14  1  0
 16 17  1  0
 16 15  2  0
 17 18  2  0
 18 13  1  0
 19 23  2  0
 19 17  1  0
 20 19  1  0
 21 20  2  0
 21 22  1  0
 22 23  1  0
  1 24  1  0
  5 25  1  0
  8 26  1  0
 12 27  1  0
 12 28  1  0
 14 29  1  0
 15 30  1  0
 20 31  1  0
 21 32  1  0
 22 33  1  0
M  ISO  8  24  14  25  14  26  14  29  14  30  14  31  14  32  14  33   9
M  END
>  <minimizedAffinity>  (1) 
-4.7945261

>  <minimizedRMSD>  (1) 
0.332277983

$$$$
