
     RDKit          3D

 40 42  0  0  1  0  0  0  0  0999 V2000
   46.0420   33.4640   45.9650 C   0  0  2  0  0  0  0  0  0  0  0  0
   44.8890   34.4380   46.0340 C   0  0  0  0  0  0  0  0  0  0  0  0
   44.6620   35.2930   44.8820 C   0  0  0  0  0  0  0  0  0  0  0  0
   45.5220   35.1920   43.7190 C   0  0  0  0  0  0  0  0  0  0  0  0
   46.6990   34.3180   43.8350 C   0  0  1  0  0  0  0  0  0  0  0  0
   46.3100   33.0460   44.5530 C   0  0  0  0  0  0  0  0  0  0  0  0
   45.4870   32.6450   48.2390 C   0  0  0  0  0  0  0  0  0  0  0  0
   45.8110   32.3690   46.9120 C   0  0  0  0  0  0  0  0  0  0  0  0
   45.9170   31.0220   46.5410 C   0  0  0  0  0  0  0  0  0  0  0  0
   45.7020   30.0510   47.4830 N   0  0  0  0  0  0  0  0  0  0  0  0
   45.3880   30.3700   48.7640 C   0  0  0  0  0  0  0  0  0  0  0  0
   45.2830   31.6690   49.1330 N   0  0  0  0  0  0  0  0  0  0  0  0
   47.3870   33.9980   42.5560 C   0  0  0  0  0  0  0  0  0  0  0  0
   47.7130   35.1450   41.6870 C   0  0  0  0  0  0  0  0  0  0  0  0
   49.1140   35.6590   41.7290 C   0  0  0  0  0  0  0  0  0  0  0  0
   50.1230   34.7610   42.3570 C   0  0  0  0  0  0  0  0  0  0  0  0
   49.7350   33.3230   41.9890 C   0  0  0  0  0  0  0  0  0  0  0  0
   48.5210   33.0510   42.8600 C   0  0  0  0  0  0  0  0  0  0  0  0
   46.9784   33.9458   46.2828 H   0  0  0  0  0  0  0  0  0  0  0  0
   44.2452   34.4974   46.9239 H   0  0  0  0  0  0  0  0  0  0  0  0
   43.8356   36.0189   44.8919 H   0  0  0  0  0  0  0  0  0  0  0  0
   45.8819   36.2043   43.4831 H   0  0  0  0  0  0  0  0  0  0  0  0
   44.8976   34.7297   42.9403 H   0  0  0  0  0  0  0  0  0  0  0  0
   47.4387   34.8927   44.4117 H   0  0  0  0  0  0  0  0  0  0  0  0
   45.4076   32.6079   44.1017 H   0  0  0  0  0  0  0  0  0  0  0  0
   47.0969   32.2799   44.4914 H   0  0  0  0  0  0  0  0  0  0  0  0
   45.3964   33.6930   48.5608 H   0  0  0  0  0  0  0  0  0  0  0  0
   46.1697   30.7477   45.5062 H   0  0  0  0  0  0  0  0  0  0  0  0
   45.2186   29.5732   49.5032 H   0  0  0  0  0  0  0  0  0  0  0  0
   46.6724   33.4871   41.8939 H   0  0  0  0  0  0  0  0  0  0  0  0
   47.0481   35.9741   41.9708 H   0  0  0  0  0  0  0  0  0  0  0  0
   47.5805   34.7693   40.6617 H   0  0  0  0  0  0  0  0  0  0  0  0
   49.4328   35.8507   40.6938 H   0  0  0  0  0  0  0  0  0  0  0  0
   49.0806   36.5561   42.3647 H   0  0  0  0  0  0  0  0  0  0  0  0
   51.1267   34.9920   41.9707 H   0  0  0  0  0  0  0  0  0  0  0  0
   50.1422   34.8951   43.4486 H   0  0  0  0  0  0  0  0  0  0  0  0
   49.4790   33.2454   40.9220 H   0  0  0  0  0  0  0  0  0  0  0  0
   50.5506   32.6033   42.1529 H   0  0  0  0  0  0  0  0  0  0  0  0
   48.8076   33.1667   43.9157 H   0  0  0  0  0  0  0  0  0  0  0  0
   48.1752   32.0275   42.6528 H   0  0  0  0  0  0  0  0  0  0  0  0
  1  2  1  0
  1  8  1  0
  3  2  2  0
  4  5  1  0
  4  3  1  0
  5  6  1  0
  6  1  1  0
  7 12  2  0
  8  7  1  0
  9  8  2  0
  9 10  1  0
 10 11  2  0
 11 12  1  0
 13 18  1  0
 13  5  1  0
 14 15  1  0
 14 13  1  0
 15 16  1  0
 17 16  1  0
 17 18  1  0
  1 19  1  1
  2 20  1  0
  3 21  1  0
  4 22  1  0
  4 23  1  0
  5 24  1  1
  6 25  1  0
  6 26  1  0
  7 27  1  0
  9 28  1  0
 11 29  1  0
 13 30  1  0
 14 31  1  0
 14 32  1  0
 15 33  1  0
 15 34  1  0
 16 35  1  0
 16 36  1  0
 17 37  1  0
 17 38  1  0
 18 39  1  0
 18 40  1  0
M  ISO  8  19  13  20  13  21  13  22  13  23  13  24  13  25  13  26  13
M  ISO  8  27  14  28  14  29  14  30  13  31  13  32  13  33  13  34  13
M  ISO  6  35  13  36  13  37  13  38  13  39  13  40  13
M  END
>  <minimizedAffinity>  (1) 
-6.17062664

>  <minimizedRMSD>  (1) 
2.07783675

$$$$
