
     RDKit          3D

 37 39  0  0  1  0  0  0  0  0999 V2000
   45.9540   33.8110   45.5660 C   0  0  2  0  0  0  0  0  0  0  0  0
   44.8030   34.7660   45.7810 C   0  0  0  0  0  0  0  0  0  0  0  0
   44.5010   35.7170   44.7320 C   0  0  0  0  0  0  0  0  0  0  0  0
   45.3040   35.7280   43.5080 C   0  0  0  0  0  0  0  0  0  0  0  0
   46.4700   34.8280   43.4510 C   0  0  1  0  0  0  0  0  0  0  0  0
   46.1440   33.5110   44.1100 C   0  0  0  0  0  0  0  0  0  0  0  0
   45.2460   32.7730   47.6940 C   0  0  0  0  0  0  0  0  0  0  0  0
   45.7760   32.6270   46.4100 C   0  0  0  0  0  0  0  0  0  0  0  0
   46.1280   31.3200   45.9830 C   0  0  0  0  0  0  0  0  0  0  0  0
   45.9350   30.2900   46.8350 N   0  0  0  0  0  0  0  0  0  0  0  0
   45.4190   30.4630   48.0770 C   0  0  0  0  0  0  0  0  0  0  0  0
   45.0770   31.7000   48.5020 N   0  0  0  0  0  0  0  0  0  0  0  0
   47.2740   33.9170   39.3730 C   0  0  0  0  0  0  0  0  0  0  0  0
   46.0740   33.4990   39.9500 C   0  0  0  0  0  0  0  0  0  0  0  0
   45.8020   33.7930   41.2860 C   0  0  0  0  0  0  0  0  0  0  0  0
   46.7400   34.4970   42.0070 C   0  0  0  0  0  0  0  0  0  0  0  0
   47.9350   34.9240   41.4640 C   0  0  0  0  0  0  0  0  0  0  0  0
   48.1950   34.6240   40.1260 C   0  0  0  0  0  0  0  0  0  0  0  0
   47.6070   33.5380   37.6790 S   0  0  0  0  0  0  0  0  0  0  0  0
   46.2860   33.3690   36.9900 O   0  0  0  0  0  0  0  0  0  0  0  0
   48.4150   34.6230   37.0290 O   0  0  0  0  0  0  0  0  0  0  0  0
   46.8974   34.2804   45.8816 H   0  0  0  0  0  0  0  0  0  0  0  0
   44.2115   34.7394   46.7080 H   0  0  0  0  0  0  0  0  0  0  0  0
   43.6712   36.4287   44.8542 H   0  0  0  0  0  0  0  0  0  0  0  0
   44.6384   35.4581   42.6748 H   0  0  0  0  0  0  0  0  0  0  0  0
   45.7295   36.7413   43.4610 H   0  0  0  0  0  0  0  0  0  0  0  0
   47.3186   35.3225   43.9464 H   0  0  0  0  0  0  0  0  0  0  0  0
   45.2221   33.0886   43.6837 H   0  0  0  0  0  0  0  0  0  0  0  0
   46.9449   32.7736   43.9527 H   0  0  0  0  0  0  0  0  0  0  0  0
   44.9621   33.7731   48.0535 H   0  0  0  0  0  0  0  0  0  0  0  0
   46.5485   31.1498   44.9809 H   0  0  0  0  0  0  0  0  0  0  0  0
   45.2786   29.5961   48.7393 H   0  0  0  0  0  0  0  0  0  0  0  0
   45.3423   32.9373   39.3508 H   0  0  0  0  0  0  0  0  0  0  0  0
   44.8598   33.4698   41.7528 H   0  0  0  0  0  0  0  0  0  0  0  0
   48.6623   35.4852   42.0691 H   0  0  0  0  0  0  0  0  0  0  0  0
   49.1391   34.9520   39.6665 H   0  0  0  0  0  0  0  0  0  0  0  0
   48.3471   32.3888   37.5873 H   0  0  0  0  0  0  0  0  0  0  0  0
  1  2  1  0
  1  8  1  0
  3  2  2  0
  4  3  1  0
  5  4  1  0
  5  6  1  0
  6  1  1  0
  7 12  2  0
  8  7  1  0
  9  8  2  0
  9 10  1  0
 10 11  2  0
 11 12  1  0
 13 14  2  0
 13 18  1  0
 14 15  1  0
 15 16  2  0
 16  5  1  0
 17 16  1  0
 18 17  2  0
 19 13  1  0
 20 19  2  0
 21 19  2  0
  1 22  1  1
  2 23  1  0
  3 24  1  0
  4 25  1  0
  4 26  1  0
  5 27  1  1
  6 28  1  0
  6 29  1  0
  7 30  1  0
  9 31  1  0
 11 32  1  0
 14 33  1  0
 15 34  1  0
 17 35  1  0
 18 36  1  0
 19 37  1  0
M  ISO  8  22  13  23  13  24  13  25  13  26  13  27  13  28  13  29  13
M  ISO  8  30  14  31  14  32  14  33  14  34  14  35  14  36  14  37  11
M  END
>  <minimizedAffinity>  (1) 
-6.24935341

>  <minimizedRMSD>  (1) 
0.788651228

$$$$
