
     RDKit          3D

 32 34  0  0  1  0  0  0  0  0999 V2000
   45.9870   33.7900   45.5380 C   0  0  2  0  0  0  0  0  0  0  0  0
   44.8380   34.7500   45.7290 C   0  0  0  0  0  0  0  0  0  0  0  0
   44.5490   35.6710   44.6520 C   0  0  0  0  0  0  0  0  0  0  0  0
   45.3560   35.6490   43.4340 C   0  0  0  0  0  0  0  0  0  0  0  0
   46.5190   34.7460   43.4040 C   0  0  1  0  0  0  0  0  0  0  0  0
   46.1780   33.4480   44.0910 C   0  0  0  0  0  0  0  0  0  0  0  0
   45.2560   32.8220   47.6850 C   0  0  0  0  0  0  0  0  0  0  0  0
   45.8240   32.6320   46.4230 C   0  0  0  0  0  0  0  0  0  0  0  0
   46.2250   31.3320   46.0850 C   0  0  0  0  0  0  0  0  0  0  0  0
   46.0460   30.3270   46.9820 N   0  0  0  0  0  0  0  0  0  0  0  0
   45.4950   30.5450   48.1900 C   0  0  0  0  0  0  0  0  0  0  0  0
   45.0990   31.7900   48.5450 N   0  0  0  0  0  0  0  0  0  0  0  0
   46.9440   34.5490   41.9930 C   0  0  0  0  0  0  0  0  0  0  0  0
   48.0970   35.1660   41.5520 C   0  0  0  0  0  0  0  0  0  0  0  0
   48.5310   35.0070   40.2350 C   0  0  0  0  0  0  0  0  0  0  0  0
   47.7860   34.2370   39.4270 N   0  0  0  0  0  0  0  0  0  0  0  0
   46.6600   33.6300   39.8430 C   0  0  0  0  0  0  0  0  0  0  0  0
   46.2330   33.7820   41.1230 N   0  0  0  0  0  0  0  0  0  0  0  0
   46.9294   34.2729   45.8356 H   0  0  0  0  0  0  0  0  0  0  0  0
   44.2422   34.7492   46.6536 H   0  0  0  0  0  0  0  0  0  0  0  0
   43.7211   36.3886   44.7498 H   0  0  0  0  0  0  0  0  0  0  0  0
   44.6932   35.3600   42.6050 H   0  0  0  0  0  0  0  0  0  0  0  0
   45.7846   36.6596   43.3641 H   0  0  0  0  0  0  0  0  0  0  0  0
   47.3648   35.1866   43.9521 H   0  0  0  0  0  0  0  0  0  0  0  0
   45.2533   33.0243   43.6722 H   0  0  0  0  0  0  0  0  0  0  0  0
   46.9697   32.6968   43.9535 H   0  0  0  0  0  0  0  0  0  0  0  0
   44.9306   33.8291   47.9847 H   0  0  0  0  0  0  0  0  0  0  0  0
   46.6796   31.1276   45.1044 H   0  0  0  0  0  0  0  0  0  0  0  0
   45.3657   29.7081   48.8921 H   0  0  0  0  0  0  0  0  0  0  0  0
   48.6801   35.7896   42.2457 H   0  0  0  0  0  0  0  0  0  0  0  0
   49.4485   35.4942   39.8733 H   0  0  0  0  0  0  0  0  0  0  0  0
   46.0826   33.0078   39.1433 H   0  0  0  0  0  0  0  0  0  0  0  0
  1  2  1  0
  1  8  1  0
  3  2  2  0
  4  3  1  0
  5  4  1  0
  5  6  1  0
  6  1  1  0
  7 12  2  0
  8  7  1  0
  9  8  2  0
  9 10  1  0
 10 11  2  0
 11 12  1  0
 13  5  1  0
 14 13  2  0
 15 14  1  0
 16 17  1  0
 16 15  2  0
 17 18  2  0
 18 13  1  0
  1 19  1  1
  2 20  1  0
  3 21  1  0
  4 22  1  0
  4 23  1  0
  5 24  1  1
  6 25  1  0
  6 26  1  0
  7 27  1  0
  9 28  1  0
 11 29  1  0
 14 30  1  0
 15 31  1  0
 17 32  1  0
M  ISO  8  19  13  20  13  21  13  22  13  23  13  24  13  25  13  26  13
M  ISO  6  27  14  28  14  29  14  30  14  31  14  32  14
M  END
>  <minimizedAffinity>  (1) 
-5.55004501

>  <minimizedRMSD>  (1) 
0.316404969

$$$$
