
     RDKit          3D

 31 32  0  0  1  0  0  0  0  0999 V2000
   46.4700   33.2050   45.7480 C   0  0  2  0  0  0  0  0  0  0  0  0
   45.3270   34.1510   45.4600 C   0  0  0  0  0  0  0  0  0  0  0  0
   45.3180   34.8360   44.1790 C   0  0  0  0  0  0  0  0  0  0  0  0
   46.3900   34.6020   43.2200 C   0  0  0  0  0  0  0  0  0  0  0  0
   47.5370   33.7870   43.6940 C   0  0  1  0  0  0  0  0  0  0  0  0
   47.0020   32.6150   44.4760 C   0  0  0  0  0  0  0  0  0  0  0  0
   45.3450   32.6330   47.8860 C   0  0  0  0  0  0  0  0  0  0  0  0
   46.0350   32.2160   46.7470 C   0  0  0  0  0  0  0  0  0  0  0  0
   46.2930   30.8250   46.6170 C   0  0  0  0  0  0  0  0  0  0  0  0
   45.8630   29.9850   47.5900 N   0  0  0  0  0  0  0  0  0  0  0  0
   45.1960   30.4320   48.6820 C   0  0  0  0  0  0  0  0  0  0  0  0
   44.9430   31.7540   48.8160 N   0  0  0  0  0  0  0  0  0  0  0  0
   48.3830   33.4080   42.6080 N   0  0  0  0  0  0  0  0  0  0  0  0
   49.6930   33.9530   42.4960 C   0  0  0  0  0  0  0  0  0  0  0  0
   50.0720   34.9700   43.1660 N   0  0  0  0  0  0  0  0  0  0  0  0
   50.5880   33.3060   41.5890 N   0  0  0  0  0  0  0  0  0  0  0  0
   51.0260   35.3380   43.0610 H   0  0  0  0  0  0  0  0  0  0  0  0
   47.3227   33.7427   46.1881 H   0  0  0  0  0  0  0  0  0  0  0  0
   44.5272   34.3156   46.1971 H   0  0  0  0  0  0  0  0  0  0  0  0
   44.5020   35.5314   43.9329 H   0  0  0  0  0  0  0  0  0  0  0  0
   46.7817   35.5823   42.9109 H   0  0  0  0  0  0  0  0  0  0  0  0
   45.9323   34.0164   42.4091 H   0  0  0  0  0  0  0  0  0  0  0  0
   48.1772   34.3783   44.3652 H   0  0  0  0  0  0  0  0  0  0  0  0
   46.1985   32.1125   43.9176 H   0  0  0  0  0  0  0  0  0  0  0  0
   47.7767   31.8573   44.6652 H   0  0  0  0  0  0  0  0  0  0  0  0
   45.1267   33.7023   48.0237 H   0  0  0  0  0  0  0  0  0  0  0  0
   46.8329   30.4361   45.7411 H   0  0  0  0  0  0  0  0  0  0  0  0
   44.8624   29.7238   49.4548 H   0  0  0  0  0  0  0  0  0  0  0  0
   48.0440   32.7378   41.9031 H   0  0  0  0  0  0  0  0  0  0  0  0
   51.5476   33.6612   41.4711 H   0  0  0  0  0  0  0  0  0  0  0  0
   50.2735   32.4845   41.0532 H   0  0  0  0  0  0  0  0  0  0  0  0
  1  8  1  0
  2  1  1  0
  3  2  2  0
  4  5  1  0
  4  3  1  0
  5  6  1  0
  6  1  1  0
  7 12  2  0
  8  7  1  0
  9  8  2  0
  9 10  1  0
 10 11  2  0
 11 12  1  0
 13  5  1  0
 14 13  1  0
 14 15  2  0
 16 14  1  0
 17 15  1  0
  1 18  1  1
  2 19  1  0
  3 20  1  0
  4 21  1  0
  4 22  1  0
  5 23  1  1
  6 24  1  0
  6 25  1  0
  7 26  1  0
  9 27  1  0
 11 28  1  0
 13 29  1  0
 16 30  1  0
 16 31  1  0
M  ISO  8  18  13  19  13  20  13  21  13  22  13  23  13  24  13  25  13
M  ISO  3  26  14  27  14  28  14
M  END
>  <minimizedAffinity>  (1) 
-5.63326073

>  <minimizedRMSD>  (1) 
1.56673229

$$$$
