
     RDKit          3D

 31 33  0  0  1  0  0  0  0  0999 V2000
   46.0000   33.9770   45.2750 C   0  0  2  0  0  0  0  0  0  0  0  0
   44.8410   34.9250   45.4590 C   0  0  0  0  0  0  0  0  0  0  0  0
   44.5350   35.8280   44.3690 C   0  0  0  0  0  0  0  0  0  0  0  0
   45.3430   35.7920   43.1420 C   0  0  0  0  0  0  0  0  0  0  0  0
   46.5340   34.9260   43.1470 C   0  0  1  0  0  0  0  0  0  0  0  0
   46.2090   33.6250   43.8360 C   0  0  0  0  0  0  0  0  0  0  0  0
   45.2670   32.9830   47.4290 C   0  0  0  0  0  0  0  0  0  0  0  0
   45.8080   32.7900   46.1510 C   0  0  0  0  0  0  0  0  0  0  0  0
   46.1590   31.4670   45.7610 C   0  0  0  0  0  0  0  0  0  0  0  0
   45.9460   30.4680   46.6550 N   0  0  0  0  0  0  0  0  0  0  0  0
   45.4200   30.6900   47.8850 C   0  0  0  0  0  0  0  0  0  0  0  0
   45.0870   31.9500   48.2540 N   0  0  0  0  0  0  0  0  0  0  0  0
   46.9170   34.5700   41.7460 C   0  0  0  0  0  0  0  0  0  0  0  0
   48.1180   34.9910   41.2120 C   0  0  0  0  0  0  0  0  0  0  0  0
   48.1020   34.4660   39.9130 C   0  0  0  0  0  0  0  0  0  0  0  0
   46.9140   33.7720   39.7430 C   0  0  0  0  0  0  0  0  0  0  0  0
   46.2460   33.8760   40.8900 O   0  0  0  0  0  0  0  0  0  0  0  0
   46.9313   34.4745   45.5836 H   0  0  0  0  0  0  0  0  0  0  0  0
   44.2502   34.9301   46.3868 H   0  0  0  0  0  0  0  0  0  0  0  0
   43.7003   36.5387   44.4592 H   0  0  0  0  0  0  0  0  0  0  0  0
   45.6810   36.8187   42.9378 H   0  0  0  0  0  0  0  0  0  0  0  0
   44.6803   35.3592   42.3781 H   0  0  0  0  0  0  0  0  0  0  0  0
   47.3446   35.4672   43.6569 H   0  0  0  0  0  0  0  0  0  0  0  0
   45.2955   33.1828   43.4117 H   0  0  0  0  0  0  0  0  0  0  0  0
   47.0120   32.8840   43.7093 H   0  0  0  0  0  0  0  0  0  0  0  0
   44.9880   33.9958   47.7552 H   0  0  0  0  0  0  0  0  0  0  0  0
   46.5881   31.2611   44.7693 H   0  0  0  0  0  0  0  0  0  0  0  0
   45.2646   29.8512   48.5795 H   0  0  0  0  0  0  0  0  0  0  0  0
   48.9017   35.5953   41.6922 H   0  0  0  0  0  0  0  0  0  0  0  0
   48.8943   34.5840   39.1592 H   0  0  0  0  0  0  0  0  0  0  0  0
   46.5872   33.2396   38.8376 H   0  0  0  0  0  0  0  0  0  0  0  0
  1  2  1  0
  1  8  1  0
  3  2  2  0
  4  5  1  0
  4  3  1  0
  5  6  1  0
  6  1  1  0
  7 12  2  0
  8  7  1  0
  9  8  2  0
  9 10  1  0
 10 11  2  0
 11 12  1  0
 13  5  1  0
 14 13  2  0
 15 14  1  0
 16 15  2  0
 16 17  1  0
 17 13  1  0
  1 18  1  1
  2 19  1  0
  3 20  1  0
  4 21  1  0
  4 22  1  0
  5 23  1  1
  6 24  1  0
  6 25  1  0
  7 26  1  0
  9 27  1  0
 11 28  1  0
 14 29  1  0
 15 30  1  0
 16 31  1  0
M  ISO  8  18  13  19  13  20  13  21  13  22  13  23  13  24  13  25  13
M  ISO  6  26  14  27  14  28  14  29  14  30  14  31  14
M  END
>  <minimizedAffinity>  (1) 
-5.50163555

>  <minimizedRMSD>  (1) 
0.422233522

$$$$
