
     RDKit          3D

 32 34  0  0  1  0  0  0  0  0999 V2000
   45.9750   33.9420   45.2810 C   0  0  2  0  0  0  0  0  0  0  0  0
   44.8560   34.9280   45.5180 C   0  0  0  0  0  0  0  0  0  0  0  0
   44.5190   35.8290   44.4410 C   0  0  0  0  0  0  0  0  0  0  0  0
   45.2560   35.7690   43.1740 C   0  0  0  0  0  0  0  0  0  0  0  0
   46.4240   34.8530   43.1220 C   0  0  1  0  0  0  0  0  0  0  0  0
   46.0140   33.5590   43.8330 C   0  0  0  0  0  0  0  0  0  0  0  0
   45.2390   33.0130   47.4650 C   0  0  0  0  0  0  0  0  0  0  0  0
   45.8430   32.8280   46.2220 C   0  0  0  0  0  0  0  0  0  0  0  0
   46.3240   31.5300   45.9180 C   0  0  0  0  0  0  0  0  0  0  0  0
   46.1810   30.5400   46.8300 N   0  0  0  0  0  0  0  0  0  0  0  0
   45.5870   30.7620   48.0270 C   0  0  0  0  0  0  0  0  0  0  0  0
   45.1270   31.9810   48.3310 N   0  0  0  0  0  0  0  0  0  0  0  0
   46.7140   34.4680   41.7160 C   0  0  0  0  0  0  0  0  0  0  0  0
   47.8650   34.7530   41.0240 C   0  0  0  0  0  0  0  0  0  0  0  0
   48.0840   34.3740   39.7260 C   0  0  0  0  0  0  0  0  0  0  0  0
   47.1040   33.6850   39.1160 N   0  0  0  0  0  0  0  0  0  0  0  0
   45.9410   33.3770   39.7600 C   0  0  0  0  0  0  0  0  0  0  0  0
   45.7680   33.7690   41.0370 N   0  0  0  0  0  0  0  0  0  0  0  0
   46.9601   34.3868   45.4851 H   0  0  0  0  0  0  0  0  0  0  0  0
   44.3171   34.9588   46.4764 H   0  0  0  0  0  0  0  0  0  0  0  0
   43.7085   36.5613   44.5708 H   0  0  0  0  0  0  0  0  0  0  0  0
   44.5495   35.4523   42.3926 H   0  0  0  0  0  0  0  0  0  0  0  0
   45.6741   36.7770   43.0359 H   0  0  0  0  0  0  0  0  0  0  0  0
   47.2958   35.3471   43.5757 H   0  0  0  0  0  0  0  0  0  0  0  0
   45.0249   33.2205   43.4907 H   0  0  0  0  0  0  0  0  0  0  0  0
   46.7047   32.7268   43.6322 H   0  0  0  0  0  0  0  0  0  0  0  0
   44.8514   34.0043   47.7426 H   0  0  0  0  0  0  0  0  0  0  0  0
   46.8085   31.3292   44.9511 H   0  0  0  0  0  0  0  0  0  0  0  0
   45.4828   29.9393   48.7497 H   0  0  0  0  0  0  0  0  0  0  0  0
   48.6554   35.3172   41.5407 H   0  0  0  0  0  0  0  0  0  0  0  0
   49.0207   34.6225   39.2056 H   0  0  0  0  0  0  0  0  0  0  0  0
   45.1517   32.8135   39.2408 H   0  0  0  0  0  0  0  0  0  0  0  0
  1  2  1  0
  1  8  1  0
  3  2  2  0
  4  3  1  0
  5  4  1  0
  5  6  1  0
  6  1  1  0
  7 12  2  0
  8  7  1  0
  9  8  2  0
  9 10  1  0
 10 11  2  0
 11 12  1  0
 13  5  1  0
 14 13  2  0
 15 14  1  0
 16 15  2  0
 16 17  1  0
 17 18  2  0
 18 13  1  0
  1 19  1  1
  2 20  1  0
  3 21  1  0
  4 22  1  0
  4 23  1  0
  5 24  1  1
  6 25  1  0
  6 26  1  0
  7 27  1  0
  9 28  1  0
 11 29  1  0
 14 30  1  0
 15 31  1  0
 17 32  1  0
M  ISO  8  19  13  20  13  21  13  22  13  23  13  24  13  25  13  26  13
M  ISO  6  27  14  28  14  29  14  30  14  31  14  32  14
M  END
>  <minimizedAffinity>  (1) 
-5.50888252

>  <minimizedRMSD>  (1) 
0.420976877

$$$$
