
     RDKit          3D

 34 36  0  0  1  0  0  0  0  0999 V2000
   42.6290   34.6740   40.6570 C   0  0  2  0  0  0  0  0  0  0  0  0
   42.5810   35.3250   39.3090 C   0  0  0  0  0  0  0  0  0  0  0  0
   41.2820   35.7490   38.8170 C   0  0  0  0  0  0  0  0  0  0  0  0
   40.0740   35.5380   39.6250 C   0  0  0  0  0  0  0  0  0  0  0  0
   40.2350   34.8200   40.9000 C   0  0  2  0  0  0  0  0  0  0  0  0
   41.5390   35.1670   41.5520 C   0  0  0  0  0  0  0  0  0  0  0  0
   45.0430   34.1630   40.6330 C   0  0  0  0  0  0  0  0  0  0  0  0
   43.9850   34.8290   41.2480 C   0  0  0  0  0  0  0  0  0  0  0  0
   44.2490   35.5940   42.3960 C   0  0  0  0  0  0  0  0  0  0  0  0
   45.5230   35.6480   42.8540 N   0  0  0  0  0  0  0  0  0  0  0  0
   46.5380   34.9920   42.2410 C   0  0  0  0  0  0  0  0  0  0  0  0
   46.2970   34.2530   41.1340 N   0  0  0  0  0  0  0  0  0  0  0  0
   40.0340   33.3690   40.8300 C   0  0  0  0  0  0  0  0  0  0  0  0
   39.9950   32.4780   41.8820 C   0  0  0  0  0  0  0  0  0  0  0  0
   39.7920   31.1270   41.7510 C   0  0  0  0  0  0  0  0  0  0  0  0
   39.6080   30.5680   40.5080 C   0  0  0  0  0  0  0  0  0  0  0  0
   39.6320   31.3820   39.4030 C   0  0  0  0  0  0  0  0  0  0  0  0
   39.8410   32.7300   39.6000 C   0  0  0  0  0  0  0  0  0  0  0  0
   42.4428   33.5965   40.5375 H   0  0  0  0  0  0  0  0  0  0  0  0
   43.4942   35.4761   38.7147 H   0  0  0  0  0  0  0  0  0  0  0  0
   41.2024   36.2318   37.8318 H   0  0  0  0  0  0  0  0  0  0  0  0
   39.6515   36.5276   39.8534 H   0  0  0  0  0  0  0  0  0  0  0  0
   39.4326   34.8876   39.0121 H   0  0  0  0  0  0  0  0  0  0  0  0
   39.4098   35.1774   41.5335 H   0  0  0  0  0  0  0  0  0  0  0  0
   41.6098   34.6789   42.5352 H   0  0  0  0  0  0  0  0  0  0  0  0
   41.6214   36.2534   41.7036 H   0  0  0  0  0  0  0  0  0  0  0  0
   44.8575   33.5589   39.7326 H   0  0  0  0  0  0  0  0  0  0  0  0
   43.4416   36.1358   42.9104 H   0  0  0  0  0  0  0  0  0  0  0  0
   47.5592   35.0606   42.6441 H   0  0  0  0  0  0  0  0  0  0  0  0
   40.1365   32.8781   42.8968 H   0  0  0  0  0  0  0  0  0  0  0  0
   39.7764   30.4873   42.6457 H   0  0  0  0  0  0  0  0  0  0  0  0
   39.4442   29.4855   40.4010 H   0  0  0  0  0  0  0  0  0  0  0  0
   39.4890   30.9716   38.3925 H   0  0  0  0  0  0  0  0  0  0  0  0
   39.8577   33.3658   38.7025 H   0  0  0  0  0  0  0  0  0  0  0  0
  1  8  1  0
  1  6  1  0
  2  1  1  0
  3  2  2  0
  3  4  1  0
  4  5  1  0
  5  6  1  0
  7 12  2  0
  7  8  1  0
  8  9  2  0
  9 10  1  0
 11 10  2  0
 12 11  1  0
 13  5  1  0
 13 14  2  0
 15 14  1  0
 16 15  2  0
 17 18  2  0
 17 16  1  0
 18 13  1  0
  1 19  1  6
  2 20  1  0
  3 21  1  0
  4 22  1  0
  4 23  1  0
  5 24  1  1
  6 25  1  0
  6 26  1  0
  7 27  1  0
  9 28  1  0
 11 29  1  0
 14 30  1  0
 15 31  1  0
 16 32  1  0
 17 33  1  0
 18 34  1  0
M  ISO  8  19  13  20  13  21  13  22  13  23  13  24  13  25  13  26  13
M  ISO  8  27  14  28  14  29  14  30  14  31  14  32  14  33  14  34  14
M  END
>  <minimizedAffinity>  (1) 
-5.17173529

>  <minimizedRMSD>  (1) 
8.0926609

$$$$
