
     RDKit          3D

 37 39  0  0  1  0  0  0  0  0999 V2000
   46.4440   33.4110   45.7630 C   0  0  2  0  0  0  0  0  0  0  0  0
   45.1860   34.2300   45.5870 C   0  0  0  0  0  0  0  0  0  0  0  0
   45.0300   34.9280   44.3280 C   0  0  0  0  0  0  0  0  0  0  0  0
   46.0530   34.8380   43.2840 C   0  0  0  0  0  0  0  0  0  0  0  0
   47.3000   34.0990   43.6330 C   0  0  1  0  0  0  0  0  0  0  0  0
   46.9250   32.8850   44.4460 C   0  0  0  0  0  0  0  0  0  0  0  0
   45.2870   32.6310   47.7970 C   0  0  0  0  0  0  0  0  0  0  0  0
   46.2290   32.3930   46.7970 C   0  0  0  0  0  0  0  0  0  0  0  0
   46.9370   31.1840   46.8510 C   0  0  0  0  0  0  0  0  0  0  0  0
   46.6850   30.3050   47.8590 N   0  0  0  0  0  0  0  0  0  0  0  0
   45.7670   30.5720   48.8080 C   0  0  0  0  0  0  0  0  0  0  0  0
   45.0680   31.7310   48.7800 N   0  0  0  0  0  0  0  0  0  0  0  0
   47.9790   33.6310   42.4410 N   0  0  0  0  0  0  0  0  0  0  0  0
   48.5600   32.3520   42.7380 C   0  0  0  0  0  0  0  0  0  0  0  0
   49.8310   32.0760   41.9890 C   0  0  0  0  0  0  0  0  0  0  0  0
   50.7060   33.1260   41.8920 O   0  0  0  0  0  0  0  0  0  0  0  0
   50.2620   34.3180   42.4470 C   0  0  0  0  0  0  0  0  0  0  0  0
   48.8930   34.5730   41.8840 C   0  0  0  0  0  0  0  0  0  0  0  0
   47.2681   34.0417   46.1276 H   0  0  0  0  0  0  0  0  0  0  0  0
   44.4245   34.2929   46.3783 H   0  0  0  0  0  0  0  0  0  0  0  0
   44.1295   35.5350   44.1531 H   0  0  0  0  0  0  0  0  0  0  0  0
   46.3391   35.8636   43.0079 H   0  0  0  0  0  0  0  0  0  0  0  0
   45.5893   34.2574   42.4729 H   0  0  0  0  0  0  0  0  0  0  0  0
   47.9627   34.7783   44.1892 H   0  0  0  0  0  0  0  0  0  0  0  0
   46.1261   32.3194   43.9442 H   0  0  0  0  0  0  0  0  0  0  0  0
   47.7771   32.2004   44.5694 H   0  0  0  0  0  0  0  0  0  0  0  0
   44.7119   33.5686   47.7851 H   0  0  0  0  0  0  0  0  0  0  0  0
   47.6901   30.9478   46.0848 H   0  0  0  0  0  0  0  0  0  0  0  0
   45.5841   29.8432   49.6113 H   0  0  0  0  0  0  0  0  0  0  0  0
   48.7766   32.3112   43.8157 H   0  0  0  0  0  0  0  0  0  0  0  0
   47.8318   31.5888   42.4260 H   0  0  0  0  0  0  0  0  0  0  0  0
   50.3499   31.2501   42.4976 H   0  0  0  0  0  0  0  0  0  0  0  0
   49.5259   31.8451   40.9577 H   0  0  0  0  0  0  0  0  0  0  0  0
   50.2111   34.2304   43.5423 H   0  0  0  0  0  0  0  0  0  0  0  0
   50.9477   35.1446   42.2094 H   0  0  0  0  0  0  0  0  0  0  0  0
   48.9174   34.4607   40.7900 H   0  0  0  0  0  0  0  0  0  0  0  0
   48.5724   35.5949   42.1350 H   0  0  0  0  0  0  0  0  0  0  0  0
  1  8  1  0
  2  1  1  0
  3  2  2  0
  4  5  1  0
  4  3  1  0
  5  6  1  0
  6  1  1  0
  7 12  2  0
  8  9  2  0
  8  7  1  0
  9 10  1  0
 10 11  2  0
 12 11  1  0
 13 14  1  0
 13  5  1  0
 15 14  1  0
 16 15  1  0
 16 17  1  0
 18 13  1  0
 18 17  1  0
  1 19  1  1
  2 20  1  0
  3 21  1  0
  4 22  1  0
  4 23  1  0
  5 24  1  1
  6 25  1  0
  6 26  1  0
  7 27  1  0
  9 28  1  0
 11 29  1  0
 14 30  1  0
 14 31  1  0
 15 32  1  0
 15 33  1  0
 17 34  1  0
 17 35  1  0
 18 36  1  0
 18 37  1  0
M  ISO  8  19  13  20  13  21  13  22  13  23  13  24  13  25  13  26  13
M  ISO  8  27  14  28  14  29  14  30  13  31  13  32  13  33  13  34  13
M  ISO  3  35  13  36  13  37  13
M  END
>  <minimizedAffinity>  (1) 
-5.16885662

>  <minimizedRMSD>  (1) 
1.96356916

$$$$
