
     RDKit          3D

 30 32  0  0  1  0  0  0  0  0999 V2000
   46.0450   33.9380   45.2810 C   0  0  2  0  0  0  0  0  0  0  0  0
   44.8590   34.8630   45.3980 C   0  0  0  0  0  0  0  0  0  0  0  0
   44.5960   35.7500   44.2990 C   0  0  0  0  0  0  0  0  0  0  0  0
   45.4620   35.7480   43.1250 C   0  0  0  0  0  0  0  0  0  0  0  0
   46.6140   34.8150   43.1220 C   0  0  1  0  0  0  0  0  0  0  0  0
   46.2540   33.5580   43.8500 C   0  0  0  0  0  0  0  0  0  0  0  0
   45.2720   32.9960   47.4400 C   0  0  0  0  0  0  0  0  0  0  0  0
   45.8360   32.7700   46.1800 C   0  0  0  0  0  0  0  0  0  0  0  0
   46.1890   31.4390   45.8310 C   0  0  0  0  0  0  0  0  0  0  0  0
   45.9600   30.4560   46.7410 N   0  0  0  0  0  0  0  0  0  0  0  0
   45.4080   30.7320   47.9500 C   0  0  0  0  0  0  0  0  0  0  0  0
   45.0660   31.9970   48.2970 N   0  0  0  0  0  0  0  0  0  0  0  0
   46.9370   34.4640   41.7070 C   0  0  0  0  0  0  0  0  0  0  0  0
   48.1970   34.7780   41.0620 C   0  0  0  0  0  0  0  0  0  0  0  0
   47.9550   34.0990   39.4100 S   0  0  0  0  0  0  0  0  0  0  0  0
   46.2010   33.4950   39.8300 C   0  0  0  0  0  0  0  0  0  0  0  0
   46.0460   33.8270   40.9770 N   0  0  0  0  0  0  0  0  0  0  0  0
   46.9696   34.4382   45.6048 H   0  0  0  0  0  0  0  0  0  0  0  0
   44.2188   34.8584   46.2925 H   0  0  0  0  0  0  0  0  0  0  0  0
   43.7364   36.4349   44.3430 H   0  0  0  0  0  0  0  0  0  0  0  0
   44.8360   35.5004   42.2550 H   0  0  0  0  0  0  0  0  0  0  0  0
   45.9150   36.7503   43.1111 H   0  0  0  0  0  0  0  0  0  0  0  0
   47.4736   35.2930   43.6145 H   0  0  0  0  0  0  0  0  0  0  0  0
   45.3312   33.1287   43.4326 H   0  0  0  0  0  0  0  0  0  0  0  0
   47.0469   32.8019   43.7521 H   0  0  0  0  0  0  0  0  0  0  0  0
   44.9928   34.0199   47.7292 H   0  0  0  0  0  0  0  0  0  0  0  0
   46.6351   31.2105   44.8518 H   0  0  0  0  0  0  0  0  0  0  0  0
   45.2346   29.9123   48.6628 H   0  0  0  0  0  0  0  0  0  0  0  0
   49.0747   35.2970   41.4746 H   0  0  0  0  0  0  0  0  0  0  0  0
   45.4924   32.9651   39.1765 H   0  0  0  0  0  0  0  0  0  0  0  0
  1  2  1  0
  1  8  1  0
  3  2  2  0
  4  3  1  0
  5  4  1  0
  5  6  1  0
  6  1  1  0
  7 12  2  0
  8  7  1  0
  9  8  2  0
  9 10  1  0
 10 11  2  0
 11 12  1  0
 13  5  1  0
 14 13  2  0
 15 16  1  0
 15 14  1  0
 16 17  2  0
 17 13  1  0
  1 18  1  1
  2 19  1  0
  3 20  1  0
  4 21  1  0
  4 22  1  0
  5 23  1  1
  6 24  1  0
  6 25  1  0
  7 26  1  0
  9 27  1  0
 11 28  1  0
 14 29  1  0
 16 30  1  0
M  ISO  8  18  13  19  13  20  13  21  13  22  13  23  13  24  13  25  13
M  ISO  5  26  14  27  14  28  14  29  14  30  14
M  END
>  <minimizedAffinity>  (1) 
-5.10270977

>  <minimizedRMSD>  (1) 
0.21078594

$$$$
