
     RDKit          3D

 31 33  0  0  1  0  0  0  0  0999 V2000
   46.0550   33.9350   45.2970 C   0  0  2  0  0  0  0  0  0  0  0  0
   44.8620   34.8520   45.4140 C   0  0  0  0  0  0  0  0  0  0  0  0
   44.5970   35.7380   44.3040 C   0  0  0  0  0  0  0  0  0  0  0  0
   45.4630   35.7250   43.1270 C   0  0  0  0  0  0  0  0  0  0  0  0
   46.6460   34.8500   43.1590 C   0  0  1  0  0  0  0  0  0  0  0  0
   46.3260   33.5610   43.8710 C   0  0  0  0  0  0  0  0  0  0  0  0
   45.2550   32.9910   47.4300 C   0  0  0  0  0  0  0  0  0  0  0  0
   45.8960   32.7960   46.2070 C   0  0  0  0  0  0  0  0  0  0  0  0
   46.3740   31.5020   45.9270 C   0  0  0  0  0  0  0  0  0  0  0  0
   46.1940   30.5160   46.8400 N   0  0  0  0  0  0  0  0  0  0  0  0
   45.5660   30.7430   48.0160 C   0  0  0  0  0  0  0  0  0  0  0  0
   45.0970   31.9770   48.3110 N   0  0  0  0  0  0  0  0  0  0  0  0
   47.0260   34.5490   41.7750 N   0  0  0  0  0  0  0  0  0  0  0  0
   46.2620   33.8480   40.9460 N   0  0  0  0  0  0  0  0  0  0  0  0
   46.8870   33.7430   39.7430 C   0  0  0  0  0  0  0  0  0  0  0  0
   48.0850   34.4310   39.9020 C   0  0  0  0  0  0  0  0  0  0  0  0
   48.1740   34.9460   41.1970 C   0  0  0  0  0  0  0  0  0  0  0  0
   46.9640   34.4649   45.6177 H   0  0  0  0  0  0  0  0  0  0  0  0
   44.2206   34.8460   46.3077 H   0  0  0  0  0  0  0  0  0  0  0  0
   43.7394   36.4256   44.3450 H   0  0  0  0  0  0  0  0  0  0  0  0
   45.8192   36.7538   42.9696 H   0  0  0  0  0  0  0  0  0  0  0  0
   44.8344   35.3142   42.3232 H   0  0  0  0  0  0  0  0  0  0  0  0
   47.4651   35.3544   43.6925 H   0  0  0  0  0  0  0  0  0  0  0  0
   45.4392   33.0874   43.4246 H   0  0  0  0  0  0  0  0  0  0  0  0
   47.1536   32.8406   43.7930 H   0  0  0  0  0  0  0  0  0  0  0  0
   44.8700   33.9898   47.6834 H   0  0  0  0  0  0  0  0  0  0  0  0
   46.8882   31.2929   44.9773 H   0  0  0  0  0  0  0  0  0  0  0  0
   45.4361   29.9210   48.7354 H   0  0  0  0  0  0  0  0  0  0  0  0
   46.5245   33.2270   38.8417 H   0  0  0  0  0  0  0  0  0  0  0  0
   48.8508   34.5519   39.1216 H   0  0  0  0  0  0  0  0  0  0  0  0
   48.9897   35.5365   41.6396 H   0  0  0  0  0  0  0  0  0  0  0  0
  1  2  1  0
  1  8  1  0
  3  2  2  0
  4  5  1  0
  4  3  1  0
  5  6  1  0
  6  1  1  0
  7 12  2  0
  8  7  1  0
  9  8  2  0
  9 10  1  0
 10 11  2  0
 11 12  1  0
 13  5  1  0
 14 13  1  0
 15 16  1  0
 15 14  2  0
 16 17  2  0
 17 13  1  0
  1 18  1  1
  2 19  1  0
  3 20  1  0
  4 21  1  0
  4 22  1  0
  5 23  1  1
  6 24  1  0
  6 25  1  0
  7 26  1  0
  9 27  1  0
 11 28  1  0
 15 29  1  0
 16 30  1  0
 17 31  1  0
M  ISO  8  18  13  19  13  20  13  21  13  22  13  23  13  24  13  25  13
M  ISO  6  26  14  27  14  28  14  29  14  30  14  31  14
M  END
>  <minimizedAffinity>  (1) 
-5.20271254

>  <minimizedRMSD>  (1) 
0.284363657

$$$$
