
     RDKit          3D

 29 31  0  0  1  0  0  0  0  0999 V2000
   46.0410   34.0060   45.2580 C   0  0  2  0  0  0  0  0  0  0  0  0
   44.8300   34.9060   45.3860 C   0  0  0  0  0  0  0  0  0  0  0  0
   44.5600   35.7980   44.2810 C   0  0  0  0  0  0  0  0  0  0  0  0
   45.4220   35.8220   43.1020 C   0  0  0  0  0  0  0  0  0  0  0  0
   46.5880   34.9070   43.0940 C   0  0  1  0  0  0  0  0  0  0  0  0
   46.2870   33.6450   43.8260 C   0  0  0  0  0  0  0  0  0  0  0  0
   45.2870   33.0240   47.3920 C   0  0  0  0  0  0  0  0  0  0  0  0
   45.8610   32.8210   46.1370 C   0  0  0  0  0  0  0  0  0  0  0  0
   46.2550   31.5050   45.7680 C   0  0  0  0  0  0  0  0  0  0  0  0
   46.0520   30.5100   46.6630 N   0  0  0  0  0  0  0  0  0  0  0  0
   45.4920   30.7360   47.8780 C   0  0  0  0  0  0  0  0  0  0  0  0
   45.1120   31.9820   48.2420 N   0  0  0  0  0  0  0  0  0  0  0  0
   46.8050   34.5180   41.6710 C   0  0  0  0  0  0  0  0  0  0  0  0
   45.9220   33.9410   40.8350 N   0  0  0  0  0  0  0  0  0  0  0  0
   46.5200   33.7760   39.6990 O   0  0  0  0  0  0  0  0  0  0  0  0
   47.7710   34.2270   39.7600 C   0  0  0  0  0  0  0  0  0  0  0  0
   47.9400   34.6930   41.0110 N   0  0  0  0  0  0  0  0  0  0  0  0
   46.9446   34.5363   45.5931 H   0  0  0  0  0  0  0  0  0  0  0  0
   44.1862   34.8821   46.2776 H   0  0  0  0  0  0  0  0  0  0  0  0
   43.6906   36.4702   44.3288 H   0  0  0  0  0  0  0  0  0  0  0  0
   44.7984   35.5703   42.2315 H   0  0  0  0  0  0  0  0  0  0  0  0
   45.8559   36.8327   43.0898 H   0  0  0  0  0  0  0  0  0  0  0  0
   47.4488   35.4079   43.5611 H   0  0  0  0  0  0  0  0  0  0  0  0
   45.3926   33.1672   43.3997 H   0  0  0  0  0  0  0  0  0  0  0  0
   47.1254   32.9379   43.7422 H   0  0  0  0  0  0  0  0  0  0  0  0
   44.9747   34.0346   47.6938 H   0  0  0  0  0  0  0  0  0  0  0  0
   46.7099   31.3024   44.7872 H   0  0  0  0  0  0  0  0  0  0  0  0
   45.3455   29.8971   48.5743 H   0  0  0  0  0  0  0  0  0  0  0  0
   48.5162   34.2201   38.9510 H   0  0  0  0  0  0  0  0  0  0  0  0
  1  2  1  0
  1  8  1  0
  3  2  2  0
  4  3  1  0
  5  4  1  0
  5  6  1  0
  6  1  1  0
  7 12  2  0
  8  7  1  0
  9  8  2  0
  9 10  1  0
 10 11  2  0
 11 12  1  0
 13  5  1  0
 14 13  2  0
 15 16  1  0
 15 14  1  0
 16 17  2  0
 17 13  1  0
  1 18  1  1
  2 19  1  0
  3 20  1  0
  4 21  1  0
  4 22  1  0
  5 23  1  1
  6 24  1  0
  6 25  1  0
  7 26  1  0
  9 27  1  0
 11 28  1  0
 16 29  1  0
M  ISO  8  18  13  19  13  20  13  21  13  22  13  23  13  24  13  25  13
M  ISO  4  26  14  27  14  28  14  29  14
M  END
>  <minimizedAffinity>  (1) 
-5.13297224

>  <minimizedRMSD>  (1) 
0.569065273

$$$$
