
     RDKit          3D

 31 33  0  0  1  0  0  0  0  0999 V2000
   46.0190   33.9570   45.3070 C   0  0  2  0  0  0  0  0  0  0  0  0
   44.8540   34.8990   45.4610 C   0  0  0  0  0  0  0  0  0  0  0  0
   44.5450   35.7940   44.3630 C   0  0  0  0  0  0  0  0  0  0  0  0
   45.3520   35.7700   43.1490 C   0  0  0  0  0  0  0  0  0  0  0  0
   46.5600   34.8950   43.1650 C   0  0  1  0  0  0  0  0  0  0  0  0
   46.2490   33.6080   43.8750 C   0  0  0  0  0  0  0  0  0  0  0  0
   45.2650   32.9650   47.4580 C   0  0  0  0  0  0  0  0  0  0  0  0
   45.8130   32.7720   46.1800 C   0  0  0  0  0  0  0  0  0  0  0  0
   46.1530   31.4540   45.7800 C   0  0  0  0  0  0  0  0  0  0  0  0
   45.9320   30.4420   46.6530 N   0  0  0  0  0  0  0  0  0  0  0  0
   45.3990   30.6690   47.8790 C   0  0  0  0  0  0  0  0  0  0  0  0
   45.0700   31.9230   48.2750 N   0  0  0  0  0  0  0  0  0  0  0  0
   46.7900   34.4900   41.7670 N   0  0  0  0  0  0  0  0  0  0  0  0
   47.9800   34.7640   41.1520 C   0  0  0  0  0  0  0  0  0  0  0  0
   47.9070   34.2720   39.8630 C   0  0  0  0  0  0  0  0  0  0  0  0
   46.6840   33.7220   39.7490 N   0  0  0  0  0  0  0  0  0  0  0  0
   46.0070   33.8560   40.9080 C   0  0  0  0  0  0  0  0  0  0  0  0
   46.9441   34.4523   45.6369 H   0  0  0  0  0  0  0  0  0  0  0  0
   44.2533   34.9077   46.3824 H   0  0  0  0  0  0  0  0  0  0  0  0
   43.6996   36.4929   44.4461 H   0  0  0  0  0  0  0  0  0  0  0  0
   45.6881   36.7987   42.9517 H   0  0  0  0  0  0  0  0  0  0  0  0
   44.6969   35.3443   42.3746 H   0  0  0  0  0  0  0  0  0  0  0  0
   47.3986   35.4259   43.6393 H   0  0  0  0  0  0  0  0  0  0  0  0
   45.3468   33.1467   43.4470 H   0  0  0  0  0  0  0  0  0  0  0  0
   47.0732   32.8871   43.7695 H   0  0  0  0  0  0  0  0  0  0  0  0
   44.9944   33.9783   47.7897 H   0  0  0  0  0  0  0  0  0  0  0  0
   46.5847   31.2590   44.7872 H   0  0  0  0  0  0  0  0  0  0  0  0
   45.2312   29.8233   48.5621 H   0  0  0  0  0  0  0  0  0  0  0  0
   48.8397   35.2822   41.6019 H   0  0  0  0  0  0  0  0  0  0  0  0
   48.6876   34.3199   39.0894 H   0  0  0  0  0  0  0  0  0  0  0  0
   44.9846   33.5011   41.1048 H   0  0  0  0  0  0  0  0  0  0  0  0
  1  2  1  0
  1  8  1  0
  3  2  2  0
  4  5  1  0
  4  3  1  0
  5  6  1  0
  6  1  1  0
  7 12  2  0
  8  7  1  0
  9  8  2  0
  9 10  1  0
 10 11  2  0
 11 12  1  0
 13  5  1  0
 14 13  1  0
 15 14  2  0
 16 15  1  0
 16 17  2  0
 17 13  1  0
  1 18  1  1
  2 19  1  0
  3 20  1  0
  4 21  1  0
  4 22  1  0
  5 23  1  1
  6 24  1  0
  6 25  1  0
  7 26  1  0
  9 27  1  0
 11 28  1  0
 14 29  1  0
 15 30  1  0
 17 31  1  0
M  ISO  8  18  13  19  13  20  13  21  13  22  13  23  13  24  13  25  13
M  ISO  6  26  14  27  14  28  14  29  14  30  14  31  14
M  END
>  <minimizedAffinity>  (1) 
-5.10788822

>  <minimizedRMSD>  (1) 
0.366236717

$$$$
