
     RDKit          3D

 25 26  0  0  1  0  0  0  0  0999 V2000
   45.8450   33.5840   45.4070 C   0  0  2  0  0  0  0  0  0  0  0  0
   44.9520   34.7350   45.8020 C   0  0  0  0  0  0  0  0  0  0  0  0
   44.5350   35.6350   44.7530 C   0  0  0  0  0  0  0  0  0  0  0  0
   44.9700   35.4220   43.3720 C   0  0  0  0  0  0  0  0  0  0  0  0
   45.8800   34.2990   43.1150 C   0  0  2  0  0  0  0  0  0  0  0  0
   45.5680   33.1320   44.0110 C   0  0  0  0  0  0  0  0  0  0  0  0
   45.3210   32.8570   47.7010 C   0  0  0  0  0  0  0  0  0  0  0  0
   45.7630   32.5260   46.4200 C   0  0  0  0  0  0  0  0  0  0  0  0
   46.1270   31.1820   46.1730 C   0  0  0  0  0  0  0  0  0  0  0  0
   46.0290   30.2810   47.1960 N   0  0  0  0  0  0  0  0  0  0  0  0
   45.5950   30.6440   48.4280 C   0  0  0  0  0  0  0  0  0  0  0  0
   45.2430   31.9260   48.6790 N   0  0  0  0  0  0  0  0  0  0  0  0
   47.2050   34.6760   43.1980 O   0  0  0  0  0  0  0  0  0  0  0  0
   46.8944   33.9132   45.3852 H   0  0  0  0  0  0  0  0  0  0  0  0
   44.6327   34.8818   46.8443 H   0  0  0  0  0  0  0  0  0  0  0  0
   43.8844   36.4886   44.9939 H   0  0  0  0  0  0  0  0  0  0  0  0
   44.0680   35.2615   42.7632 H   0  0  0  0  0  0  0  0  0  0  0  0
   45.5534   36.3197   43.1197 H   0  0  0  0  0  0  0  0  0  0  0  0
   45.7143   33.9718   42.0780 H   0  0  0  0  0  0  0  0  0  0  0  0
   44.5112   32.8449   43.9071 H   0  0  0  0  0  0  0  0  0  0  0  0
   46.1773   32.2546   43.7485 H   0  0  0  0  0  0  0  0  0  0  0  0
   45.0303   33.8951   47.9199 H   0  0  0  0  0  0  0  0  0  0  0  0
   46.4811   30.8688   45.1798 H   0  0  0  0  0  0  0  0  0  0  0  0
   45.5287   29.8920   49.2280 H   0  0  0  0  0  0  0  0  0  0  0  0
   47.4678   34.7508   44.1495 H   0  0  0  0  0  0  0  0  0  0  0  0
  1  2  1  0
  1  8  1  0
  3  2  2  0
  4  3  1  0
  5 13  1  0
  5  4  1  0
  5  6  1  0
  6  1  1  0
  7 12  2  0
  8  7  1  0
  9  8  2  0
  9 10  1  0
 10 11  2  0
 11 12  1  0
  1 14  1  6
  2 15  1  0
  3 16  1  0
  4 17  1  0
  4 18  1  0
  5 19  1  6
  6 20  1  0
  6 21  1  0
  7 22  1  0
  9 23  1  0
 11 24  1  0
 13 25  1  0
M  ISO  8  14  13  15  13  16  13  17  13  18  13  19  13  20  13  21  13
M  ISO  4  22  14  23  14  24  14  25   3
M  END
>  <minimizedAffinity>  (1) 
-4.22599459

>  <minimizedRMSD>  (1) 
0.526740551

$$$$
