
     RDKit          3D

 31 33  0  0  1  0  0  0  0  0999 V2000
   46.2380   33.6650   45.3550 C   0  0  2  0  0  0  0  0  0  0  0  0
   45.0460   34.5930   45.2580 C   0  0  0  0  0  0  0  0  0  0  0  0
   44.9390   35.4030   44.0590 C   0  0  0  0  0  0  0  0  0  0  0  0
   45.9510   35.3140   43.0010 C   0  0  0  0  0  0  0  0  0  0  0  0
   47.1160   34.4250   43.2600 C   0  0  1  0  0  0  0  0  0  0  0  0
   46.6540   33.2010   43.9920 C   0  0  0  0  0  0  0  0  0  0  0  0
   45.3180   32.8660   47.5180 C   0  0  0  0  0  0  0  0  0  0  0  0
   45.9230   32.5830   46.2920 C   0  0  0  0  0  0  0  0  0  0  0  0
   46.2080   31.2270   46.0320 C   0  0  0  0  0  0  0  0  0  0  0  0
   45.8960   30.2790   46.9550 N   0  0  0  0  0  0  0  0  0  0  0  0
   45.3090   30.6090   48.1320 C   0  0  0  0  0  0  0  0  0  0  0  0
   45.0260   31.9050   48.3990 N   0  0  0  0  0  0  0  0  0  0  0  0
   47.6870   33.9890   41.9300 C   0  0  0  0  0  0  0  0  0  0  0  0
   47.0110   34.2840   40.6490 C   0  0  0  0  0  0  0  0  0  0  0  0
   48.3290   34.9650   41.0380 C   0  0  0  0  0  0  0  0  0  0  0  0
   47.1152   34.1913   45.7595 H   0  0  0  0  0  0  0  0  0  0  0  0
   44.2952   34.6506   46.0599 H   0  0  0  0  0  0  0  0  0  0  0  0
   44.0893   36.0917   43.9421 H   0  0  0  0  0  0  0  0  0  0  0  0
   46.3389   36.3282   42.8253 H   0  0  0  0  0  0  0  0  0  0  0  0
   45.4310   34.8642   42.1423 H   0  0  0  0  0  0  0  0  0  0  0  0
   47.8688   34.9606   43.8570 H   0  0  0  0  0  0  0  0  0  0  0  0
   45.8025   32.7416   43.4686 H   0  0  0  0  0  0  0  0  0  0  0  0
   47.4492   32.4432   44.0505 H   0  0  0  0  0  0  0  0  0  0  0  0
   45.0748   33.9098   47.7656 H   0  0  0  0  0  0  0  0  0  0  0  0
   46.6824   30.9363   45.0831 H   0  0  0  0  0  0  0  0  0  0  0  0
   45.0641   29.8271   48.8660 H   0  0  0  0  0  0  0  0  0  0  0  0
   48.0101   33.0543   42.4116 H   0  0  0  0  0  0  0  0  0  0  0  0
   46.0728   34.8582   40.6366 H   0  0  0  0  0  0  0  0  0  0  0  0
   46.6531   33.6926   39.7933 H   0  0  0  0  0  0  0  0  0  0  0  0
   49.2609   34.7060   40.5141 H   0  0  0  0  0  0  0  0  0  0  0  0
   48.6763   36.0044   41.1332 H   0  0  0  0  0  0  0  0  0  0  0  0
  1  8  1  0
  2  1  1  0
  3  2  2  0
  4  5  1  0
  4  3  1  0
  5  6  1  0
  6  1  1  0
  7 12  2  0
  8  7  1  0
  9  8  2  0
  9 10  1  0
 10 11  2  0
 11 12  1  0
 13  5  1  0
 14 15  1  0
 14 13  1  0
 15 13  1  0
  1 16  1  1
  2 17  1  0
  3 18  1  0
  4 19  1  0
  4 20  1  0
  5 21  1  1
  6 22  1  0
  6 23  1  0
  7 24  1  0
  9 25  1  0
 11 26  1  0
 13 27  1  0
 14 28  1  0
 14 29  1  0
 15 30  1  0
 15 31  1  0
M  ISO  8  16  13  17  13  18  13  19  13  20  13  21  13  22  13  23  13
M  ISO  8  24  14  25  14  26  14  27  13  28  13  29  13  30  13  31  13
M  END
>  <minimizedAffinity>  (1) 
-4.95845699

>  <minimizedRMSD>  (1) 
0.78252542

$$$$
