
     RDKit          3D

 35 38  0  0  1  0  0  0  0  0999 V2000
   48.1630   33.3920   39.1780 C   0  0  2  0  0  0  0  0  0  0  0  0
   48.2600   34.1880   37.8440 C   0  0  0  0  0  0  0  0  0  0  0  0
   48.1000   32.6560   37.8890 C   0  0  1  0  0  0  0  0  0  0  0  0
   45.6800   34.0710   41.7180 N   0  0  0  0  0  0  0  0  0  0  0  0
   44.8700   33.8340   40.6390 C   0  0  0  0  0  0  0  0  0  0  0  0
   45.6100   33.5490   39.5510 N   0  0  0  0  0  0  0  0  0  0  0  0
   46.9140   33.6090   39.9630 C   0  0  0  0  0  0  0  0  0  0  0  0
   46.8890   33.9220   41.2530 N   0  0  0  0  0  0  0  0  0  0  0  0
   44.7870   35.6850   43.2620 C   0  0  0  0  0  0  0  0  0  0  0  0
   45.3810   34.4060   43.0540 C   0  0  0  0  0  0  0  0  0  0  0  0
   45.6080   33.6250   44.1520 C   0  0  0  0  0  0  0  0  0  0  0  0
   45.2460   34.1320   45.3670 N   0  0  0  0  0  0  0  0  0  0  0  0
   44.6960   35.3230   45.5350 C   0  0  0  0  0  0  0  0  0  0  0  0
   44.4650   36.1050   44.4800 N   0  0  0  0  0  0  0  0  0  0  0  0
   49.2100   31.7890   37.5520 C   0  0  0  0  0  0  0  0  0  0  0  0
   48.9550   30.5390   37.4090 O   0  0  0  0  0  0  0  0  0  0  0  0
   50.4930   32.2570   37.3840 O   0  0  0  0  0  0  0  0  0  0  0  0
   51.4880   31.8080   38.2590 C   0  0  0  0  0  0  0  0  0  0  0  0
   52.7580   31.5670   37.7390 C   0  0  0  0  0  0  0  0  0  0  0  0
   53.6930   31.1240   38.6660 C   0  0  0  0  0  0  0  0  0  0  0  0
   53.3250   30.9570   39.9770 C   0  0  0  0  0  0  0  0  0  0  0  0
   52.0510   31.2070   40.4540 C   0  0  0  0  0  0  0  0  0  0  0  0
   51.1540   31.6390   39.5320 N   0  0  0  0  0  0  0  0  0  0  0  0
   48.7793   33.2703   40.0810 H   0  0  0  0  0  0  0  0  0  0  0  0
   49.2134   34.6398   37.5327 H   0  0  0  0  0  0  0  0  0  0  0  0
   47.7222   35.0284   37.3809 H   0  0  0  0  0  0  0  0  0  0  0  0
   47.3890   31.9619   37.4171 H   0  0  0  0  0  0  0  0  0  0  0  0
   43.7708   33.8713   40.6587 H   0  0  0  0  0  0  0  0  0  0  0  0
   44.5917   36.3363   42.3974 H   0  0  0  0  0  0  0  0  0  0  0  0
   46.0640   32.6281   44.0608 H   0  0  0  0  0  0  0  0  0  0  0  0
   44.4292   35.6683   46.5447 H   0  0  0  0  0  0  0  0  0  0  0  0
   53.0014   31.7160   36.6767 H   0  0  0  0  0  0  0  0  0  0  0  0
   54.7243   30.9080   38.3501 H   0  0  0  0  0  0  0  0  0  0  0  0
   54.0859   30.6045   40.6889 H   0  0  0  0  0  0  0  0  0  0  0  0
   51.7826   31.0650   41.5113 H   0  0  0  0  0  0  0  0  0  0  0  0
  1  7  1  0
  2  3  1  0
  2  1  1  0
  3  1  1  0
  4 10  1  0
  5  4  1  0
  6  7  1  0
  6  5  2  0
  7  8  2  0
  8  4  1  0
  9 14  2  0
 10  9  1  0
 10 11  2  0
 11 12  1  0
 12 13  2  0
 14 13  1  0
 15  3  1  0
 16 15  2  0
 17 15  1  0
 17 18  1  0
 18 23  1  0
 19 18  2  0
 19 20  1  0
 20 21  2  0
 21 22  1  0
 23 22  2  0
  1 24  1  1
  2 25  1  0
  2 26  1  0
  3 27  1  6
  5 28  1  0
  9 29  1  0
 11 30  1  0
 13 31  1  0
 19 32  1  0
 20 33  1  0
 21 34  1  0
 22 35  1  0
M  ISO  8  24  13  25  13  26  13  27  13  28  14  29  14  30  14  31  14
M  ISO  4  32  14  33  14  34  14  35  14
M  END
>  <minimizedAffinity>  (1) 
-4.69647169

>  <minimizedRMSD>  (1) 
1.51084852

$$$$
