
     RDKit          3D

 50 54  0  0  1  0  0  0  0  0999 V2000
   46.4020   33.6200   44.8650 C   0  0  2  0  0  0  0  0  0  0  0  0
   45.0450   34.3070   44.9550 C   0  0  0  0  0  0  0  0  0  0  0  0
   44.8140   35.3660   43.9990 C   0  0  0  0  0  0  0  0  0  0  0  0
   45.8220   35.7560   43.0130 C   0  0  0  0  0  0  0  0  0  0  0  0
   47.0820   34.9890   43.0320 C   0  0  1  0  0  0  0  0  0  0  0  0
   46.9220   33.5990   43.4710 C   0  0  0  0  0  0  0  0  0  0  0  0
   47.6710   34.9770   41.6740 C   0  0  0  0  0  0  0  0  0  0  0  0
   48.8130   35.6570   41.2520 C   0  0  0  0  0  0  0  0  0  0  0  0
   48.9330   35.3230   39.9660 N   0  0  0  0  0  0  0  0  0  0  0  0
   47.9620   34.4940   39.5490 C   0  0  0  0  0  0  0  0  0  0  0  0
   47.7660   33.9370   38.2770 C   0  0  0  0  0  0  0  0  0  0  0  0
   46.6740   33.1200   38.1770 C   0  0  0  0  0  0  0  0  0  0  0  0
   45.8000   32.8320   39.2100 C   0  0  0  0  0  0  0  0  0  0  0  0
   46.0830   33.4330   40.4250 C   0  0  0  0  0  0  0  0  0  0  0  0
   47.1560   34.2760   40.6510 C   0  0  0  0  0  0  0  0  0  0  0  0
   46.6320   32.1570   46.8470 C   0  0  0  0  0  0  0  0  0  0  0  0
   46.2970   32.2910   45.5000 C   0  0  0  0  0  0  0  0  0  0  0  0
   45.8910   31.1210   44.7790 C   0  0  0  0  0  0  0  0  0  0  0  0
   45.8540   29.9420   45.4370 N   0  0  0  0  0  0  0  0  0  0  0  0
   46.1880   29.8450   46.7490 C   0  0  0  0  0  0  0  0  0  0  0  0
   46.5690   30.9350   47.4350 N   0  0  0  0  0  0  0  0  0  0  0  0
   46.1210   28.5610   47.3600 N   0  0  0  0  0  0  0  0  0  0  0  0
   44.9870   27.9840   48.0230 C   0  0  0  0  0  0  0  0  0  0  0  0
   45.1480   26.4800   47.9320 C   0  0  0  0  0  0  0  0  0  0  0  0
   46.4890   26.2140   47.3140 C   0  0  0  0  0  0  0  0  0  0  0  0
   47.1740   27.5670   47.4450 C   0  0  0  0  0  0  0  0  0  0  0  0
   47.1598   34.1933   45.4192 H   0  0  0  0  0  0  0  0  0  0  0  0
   44.2897   34.0157   45.6997 H   0  0  0  0  0  0  0  0  0  0  0  0
   43.8499   35.8955   44.0132 H   0  0  0  0  0  0  0  0  0  0  0  0
   46.0701   36.8135   43.1868 H   0  0  0  0  0  0  0  0  0  0  0  0
   45.3683   35.5529   42.0317 H   0  0  0  0  0  0  0  0  0  0  0  0
   47.7347   35.4924   43.7604 H   0  0  0  0  0  0  0  0  0  0  0  0
   46.2100   33.0785   42.8137 H   0  0  0  0  0  0  0  0  0  0  0  0
   47.8848   33.0688   43.4277 H   0  0  0  0  0  0  0  0  0  0  0  0
   49.4648   36.3169   41.8433 H   0  0  0  0  0  0  0  0  0  0  0  0
   49.6903   35.6648   39.3572 H   0  0  0  0  0  0  0  0  0  0  0  0
   48.4361   34.1407   37.4288 H   0  0  0  0  0  0  0  0  0  0  0  0
   46.4752   32.6559   37.1997 H   0  0  0  0  0  0  0  0  0  0  0  0
   44.9342   32.1671   39.0746 H   0  0  0  0  0  0  0  0  0  0  0  0
   45.4080   33.2257   41.2685 H   0  0  0  0  0  0  0  0  0  0  0  0
   46.9453   33.0360   47.4295 H   0  0  0  0  0  0  0  0  0  0  0  0
   45.6162   31.1816   43.7156 H   0  0  0  0  0  0  0  0  0  0  0  0
   44.9627   28.2996   49.0765 H   0  0  0  0  0  0  0  0  0  0  0  0
   44.0467   28.3103   47.5547 H   0  0  0  0  0  0  0  0  0  0  0  0
   45.1009   26.0345   48.9366 H   0  0  0  0  0  0  0  0  0  0  0  0
   44.3439   26.0372   47.3259 H   0  0  0  0  0  0  0  0  0  0  0  0
   46.3908   25.9165   46.2596 H   0  0  0  0  0  0  0  0  0  0  0  0
   47.0407   25.3904   47.7908 H   0  0  0  0  0  0  0  0  0  0  0  0
   47.8991   27.7083   46.6299 H   0  0  0  0  0  0  0  0  0  0  0  0
   47.7269   27.6474   48.3925 H   0  0  0  0  0  0  0  0  0  0  0  0
  1  2  1  0
  1 17  1  0
  3  2  2  0
  4  5  1  0
  4  3  1  0
  5  6  1  0
  6  1  1  0
  7  5  1  0
  8  7  2  0
  9  8  1  0
 10  9  1  0
 10 15  2  0
 11 10  1  0
 12 11  2  0
 12 13  1  0
 13 14  2  0
 14 15  1  0
 15  7  1  0
 16 21  2  0
 17 16  1  0
 18 19  1  0
 18 17  2  0
 19 20  2  0
 20 22  1  0
 20 21  1  0
 22 26  1  0
 22 23  1  0
 24 23  1  0
 25 26  1  0
 25 24  1  0
  1 27  1  1
  2 28  1  0
  3 29  1  0
  4 30  1  0
  4 31  1  0
  5 32  1  1
  6 33  1  0
  6 34  1  0
  8 35  1  0
  9 36  1  0
 11 37  1  0
 12 38  1  0
 13 39  1  0
 14 40  1  0
 16 41  1  0
 18 42  1  0
 23 43  1  0
 23 44  1  0
 24 45  1  0
 24 46  1  0
 25 47  1  0
 25 48  1  0
 26 49  1  0
 26 50  1  0
M  ISO  8  27  13  28  13  29  13  30  13  31  13  32  13  33  13  34  13
M  ISO  8  35  14  36   9  37  14  38  14  39  14  40  14  41  14  42  14
M  ISO  8  43  13  44  13  45  13  46  13  47  13  48  13  49  13  50  13
M  END
>  <minimizedAffinity>  (1) 
-6.74297905

>  <minimizedRMSD>  (1) 
1.08931124

$$$$
