
     RDKit          3D

 41 44  0  0  1  0  0  0  0  0999 V2000
   46.1210   34.0290   44.9770 C   0  0  2  0  0  0  0  0  0  0  0  0
   44.8280   34.8250   44.9750 C   0  0  0  0  0  0  0  0  0  0  0  0
   44.6740   35.7990   43.9180 C   0  0  0  0  0  0  0  0  0  0  0  0
   45.7160   36.0160   42.9170 C   0  0  0  0  0  0  0  0  0  0  0  0
   46.9170   35.1590   43.0260 C   0  0  1  0  0  0  0  0  0  0  0  0
   46.6440   33.8300   43.5890 C   0  0  0  0  0  0  0  0  0  0  0  0
   47.5120   34.9710   41.6840 C   0  0  0  0  0  0  0  0  0  0  0  0
   48.7330   35.4700   41.2370 C   0  0  0  0  0  0  0  0  0  0  0  0
   48.8190   35.0310   39.9830 N   0  0  0  0  0  0  0  0  0  0  0  0
   47.7540   34.2990   39.6050 C   0  0  0  0  0  0  0  0  0  0  0  0
   47.5030   33.6830   38.3770 C   0  0  0  0  0  0  0  0  0  0  0  0
   46.3170   33.0050   38.3130 C   0  0  0  0  0  0  0  0  0  0  0  0
   45.4060   32.9040   39.3440 C   0  0  0  0  0  0  0  0  0  0  0  0
   45.7460   33.5490   40.5210 C   0  0  0  0  0  0  0  0  0  0  0  0
   46.9120   34.2620   40.7040 C   0  0  0  0  0  0  0  0  0  0  0  0
   45.5630   32.8410   47.0840 C   0  0  0  0  0  0  0  0  0  0  0  0
   45.8960   32.7650   45.7310 C   0  0  0  0  0  0  0  0  0  0  0  0
   46.0160   31.4720   45.1180 C   0  0  0  0  0  0  0  0  0  0  0  0
   45.7940   30.3860   45.9020 N   0  0  0  0  0  0  0  0  0  0  0  0
   45.4760   30.5050   47.1960 C   0  0  0  0  0  0  0  0  0  0  0  0
   45.3600   31.7070   47.7880 N   0  0  0  0  0  0  0  0  0  0  0  0
   45.2640   29.2130   47.9170 C   0  0  0  0  0  0  0  0  0  0  0  0
   46.4690   28.5340   47.9070 F   0  0  0  0  0  0  0  0  0  0  0  0
   44.8230   29.4140   49.2020 F   0  0  0  0  0  0  0  0  0  0  0  0
   44.3650   28.4090   47.2050 F   0  0  0  0  0  0  0  0  0  0  0  0
   46.9171   34.5868   45.4918 H   0  0  0  0  0  0  0  0  0  0  0  0
   44.0502   34.6689   45.7370 H   0  0  0  0  0  0  0  0  0  0  0  0
   43.7489   36.3918   43.8660 H   0  0  0  0  0  0  0  0  0  0  0  0
   46.0432   37.0633   42.9951 H   0  0  0  0  0  0  0  0  0  0  0  0
   45.2557   35.7553   41.9526 H   0  0  0  0  0  0  0  0  0  0  0  0
   47.6015   35.6790   43.7123 H   0  0  0  0  0  0  0  0  0  0  0  0
   45.8938   33.3091   42.9759 H   0  0  0  0  0  0  0  0  0  0  0  0
   47.5590   33.2195   43.6032 H   0  0  0  0  0  0  0  0  0  0  0  0
   49.4580   36.0842   41.7913 H   0  0  0  0  0  0  0  0  0  0  0  0
   49.6185   35.2309   39.3652 H   0  0  0  0  0  0  0  0  0  0  0  0
   48.2025   33.7386   37.5299 H   0  0  0  0  0  0  0  0  0  0  0  0
   46.0705   32.5015   37.3666 H   0  0  0  0  0  0  0  0  0  0  0  0
   44.4652   32.3442   39.2373 H   0  0  0  0  0  0  0  0  0  0  0  0
   45.0413   33.4889   41.3635 H   0  0  0  0  0  0  0  0  0  0  0  0
   45.4663   33.8206   47.5749 H   0  0  0  0  0  0  0  0  0  0  0  0
   46.2775   31.3656   44.0549 H   0  0  0  0  0  0  0  0  0  0  0  0
  1 17  1  0
  2  1  1  0
  3  2  2  0
  4  5  1  0
  4  3  1  0
  5  6  1  0
  6  1  1  0
  7  5  1  0
  8  7  2  0
  9  8  1  0
 10  9  1  0
 10 15  2  0
 11 10  1  0
 12 11  2  0
 12 13  1  0
 13 14  2  0
 14 15  1  0
 15  7  1  0
 16 21  2  0
 17 16  1  0
 18 17  2  0
 18 19  1  0
 19 20  2  0
 20 21  1  0
 20 22  1  0
 22 24  1  0
 23 22  1  0
 25 22  1  0
  1 26  1  1
  2 27  1  0
  3 28  1  0
  4 29  1  0
  4 30  1  0
  5 31  1  1
  6 32  1  0
  6 33  1  0
  8 34  1  0
  9 35  1  0
 11 36  1  0
 12 37  1  0
 13 38  1  0
 14 39  1  0
 16 40  1  0
 18 41  1  0
M  ISO  8  26  13  27  13  28  13  29  13  30  13  31  13  32  13  33  13
M  ISO  8  34  14  35   9  36  14  37  14  38  14  39  14  40  14  41  14
M  END
>  <minimizedAffinity>  (1) 
-6.82026577

>  <minimizedRMSD>  (1) 
0.354484588

$$$$
