
     RDKit          3D

 44 48  0  0  1  0  0  0  0  0999 V2000
   46.4190   33.5750   44.8580 C   0  0  2  0  0  0  0  0  0  0  0  0
   45.0660   34.2720   44.9650 C   0  0  0  0  0  0  0  0  0  0  0  0
   44.8450   35.3500   44.0260 C   0  0  0  0  0  0  0  0  0  0  0  0
   45.8570   35.7450   43.0450 C   0  0  0  0  0  0  0  0  0  0  0  0
   47.1040   34.9570   43.0400 C   0  0  1  0  0  0  0  0  0  0  0  0
   46.9210   33.5640   43.4580 C   0  0  0  0  0  0  0  0  0  0  0  0
   47.6840   34.9550   41.6760 C   0  0  0  0  0  0  0  0  0  0  0  0
   48.8180   35.6410   41.2480 C   0  0  0  0  0  0  0  0  0  0  0  0
   48.9280   35.3190   39.9570 N   0  0  0  0  0  0  0  0  0  0  0  0
   47.9560   34.4880   39.5440 C   0  0  0  0  0  0  0  0  0  0  0  0
   47.7540   33.9420   38.2730 C   0  0  0  0  0  0  0  0  0  0  0  0
   46.6600   33.1180   38.1780 C   0  0  0  0  0  0  0  0  0  0  0  0
   45.7950   32.8190   39.2170 C   0  0  0  0  0  0  0  0  0  0  0  0
   46.0870   33.4130   40.4340 C   0  0  0  0  0  0  0  0  0  0  0  0
   47.1500   34.2530   40.6580 C   0  0  0  0  0  0  0  0  0  0  0  0
   46.7030   32.0710   46.8010 C   0  0  0  0  0  0  0  0  0  0  0  0
   46.2990   32.2320   45.4750 C   0  0  0  0  0  0  0  0  0  0  0  0
   45.8120   31.0890   44.7570 C   0  0  0  0  0  0  0  0  0  0  0  0
   45.7730   29.9050   45.4140 N   0  0  0  0  0  0  0  0  0  0  0  0
   46.1700   29.7780   46.6930 C   0  0  0  0  0  0  0  0  0  0  0  0
   46.6320   30.8530   47.3850 N   0  0  0  0  0  0  0  0  0  0  0  0
   46.0630   28.4640   47.2310 N   0  0  0  0  0  0  0  0  0  0  0  0
   46.8730   27.3880   47.3770 C   0  0  0  0  0  0  0  0  0  0  0  0
   46.1620   26.4110   47.9850 N   0  0  0  0  0  0  0  0  0  0  0  0
   44.9150   26.8770   48.2160 C   0  0  0  0  0  0  0  0  0  0  0  0
   44.8690   28.1370   47.7480 N   0  0  0  0  0  0  0  0  0  0  0  0
   47.1881   34.1318   45.4134 H   0  0  0  0  0  0  0  0  0  0  0  0
   44.3095   33.9748   45.7062 H   0  0  0  0  0  0  0  0  0  0  0  0
   43.8867   35.8896   44.0499 H   0  0  0  0  0  0  0  0  0  0  0  0
   45.4049   35.6635   42.0455 H   0  0  0  0  0  0  0  0  0  0  0  0
   46.1558   36.7657   43.3261 H   0  0  0  0  0  0  0  0  0  0  0  0
   47.7721   35.4388   43.7691 H   0  0  0  0  0  0  0  0  0  0  0  0
   46.1903   33.0687   42.8017 H   0  0  0  0  0  0  0  0  0  0  0  0
   47.8715   33.0140   43.3935 H   0  0  0  0  0  0  0  0  0  0  0  0
   49.4733   36.2980   41.8387 H   0  0  0  0  0  0  0  0  0  0  0  0
   49.6773   35.6698   39.3435 H   0  0  0  0  0  0  0  0  0  0  0  0
   48.4160   34.1547   37.4206 H   0  0  0  0  0  0  0  0  0  0  0  0
   46.4545   32.6593   37.1996 H   0  0  0  0  0  0  0  0  0  0  0  0
   44.9305   32.1519   39.0845 H   0  0  0  0  0  0  0  0  0  0  0  0
   45.4198   33.1963   41.2813 H   0  0  0  0  0  0  0  0  0  0  0  0
   47.0788   32.9337   47.3707 H   0  0  0  0  0  0  0  0  0  0  0  0
   45.4822   31.1713   43.7108 H   0  0  0  0  0  0  0  0  0  0  0  0
   47.9234   27.3207   47.0575 H   0  0  0  0  0  0  0  0  0  0  0  0
   44.0916   26.3285   48.6968 H   0  0  0  0  0  0  0  0  0  0  0  0
  1  2  1  0
  1 17  1  0
  3  2  2  0
  4  3  1  0
  5  4  1  0
  5  6  1  0
  6  1  1  0
  7  5  1  0
  8  7  2  0
  9  8  1  0
 10  9  1  0
 10 15  2  0
 11 10  1  0
 12 11  2  0
 12 13  1  0
 13 14  2  0
 14 15  1  0
 15  7  1  0
 16 21  2  0
 17 16  1  0
 18 19  1  0
 18 17  2  0
 19 20  2  0
 20 22  1  0
 20 21  1  0
 22 23  1  0
 22 26  1  0
 23 24  2  0
 24 25  1  0
 26 25  2  0
  1 27  1  1
  2 28  1  0
  3 29  1  0
  4 30  1  0
  4 31  1  0
  5 32  1  1
  6 33  1  0
  6 34  1  0
  8 35  1  0
  9 36  1  0
 11 37  1  0
 12 38  1  0
 13 39  1  0
 14 40  1  0
 16 41  1  0
 18 42  1  0
 23 43  1  0
 25 44  1  0
M  ISO  8  27  13  28  13  29  13  30  13  31  13  32  13  33  13  34  13
M  ISO  8  35  14  36   9  37  14  38  14  39  14  40  14  41  14  42  14
M  ISO  2  43  14  44  14
M  END
>  <minimizedAffinity>  (1) 
-6.75186872

>  <minimizedRMSD>  (1) 
1.09574449

$$$$
