
     RDKit          3D

 29 31  0  0  1  0  0  0  0  0999 V2000
   45.7330   34.0820   41.6590 N   0  0  0  0  0  0  0  0  0  0  0  0
   44.9580   33.7430   40.6060 C   0  0  0  0  0  0  0  0  0  0  0  0
   45.7150   33.5160   39.5200 N   0  0  0  0  0  0  0  0  0  0  0  0
   47.0120   33.7210   39.9140 C   0  0  0  0  0  0  0  0  0  0  0  0
   46.9730   34.0570   41.1970 N   0  0  0  0  0  0  0  0  0  0  0  0
   44.8120   35.6860   43.2050 C   0  0  0  0  0  0  0  0  0  0  0  0
   45.4200   34.4130   42.9980 C   0  0  0  0  0  0  0  0  0  0  0  0
   45.6440   33.6360   44.0990 C   0  0  0  0  0  0  0  0  0  0  0  0
   45.2750   34.1270   45.3100 N   0  0  0  0  0  0  0  0  0  0  0  0
   44.7130   35.3120   45.4760 C   0  0  0  0  0  0  0  0  0  0  0  0
   44.4780   36.1000   44.4120 N   0  0  0  0  0  0  0  0  0  0  0  0
   48.2680   33.6160   39.1130 C   0  0  2  0  0  0  0  0  0  0  0  0
   48.3210   34.4950   37.8300 C   0  0  0  0  0  0  0  0  0  0  0  0
   48.2370   32.9580   37.7800 C   0  0  1  0  0  0  0  0  0  0  0  0
   49.3760   32.1570   37.3880 C   0  0  0  0  0  0  0  0  0  0  0  0
   49.5140   31.9160   36.1300 O   0  0  0  0  0  0  0  0  0  0  0  0
   50.2790   31.6660   38.3050 O   0  0  0  0  0  0  0  0  0  0  0  0
   51.6070   31.5150   37.9440 C   0  0  0  0  0  0  0  0  0  0  0  0
   52.0440   30.3460   37.7220 O   0  0  0  0  0  0  0  0  0  0  0  0
   52.5680   32.4920   37.7830 O   0  0  0  0  0  0  0  0  0  0  0  0
   43.8612   33.6640   40.6339 H   0  0  0  0  0  0  0  0  0  0  0  0
   44.6173   36.3367   42.3397 H   0  0  0  0  0  0  0  0  0  0  0  0
   46.1089   32.6433   44.0074 H   0  0  0  0  0  0  0  0  0  0  0  0
   44.4375   35.6535   46.4847 H   0  0  0  0  0  0  0  0  0  0  0  0
   48.8926   33.4707   40.0067 H   0  0  0  0  0  0  0  0  0  0  0  0
   47.4563   35.1099   37.5399 H   0  0  0  0  0  0  0  0  0  0  0  0
   48.9927   35.2659   37.4243 H   0  0  0  0  0  0  0  0  0  0  0  0
   47.5598   32.2619   37.2635 H   0  0  0  0  0  0  0  0  0  0  0  0
   53.4889   32.2419   37.5193 H   0  0  0  0  0  0  0  0  0  0  0  0
  1  7  1  0
  2  1  1  0
  3  4  1  0
  3  2  2  0
  4  5  2  0
  5  1  1  0
  6 11  2  0
  7  6  1  0
  7  8  2  0
  8  9  1  0
  9 10  2  0
 11 10  1  0
 12  4  1  0
 13 12  1  0
 14 13  1  0
 14 12  1  0
 15 14  1  0
 15 17  1  0
 16 15  2  0
 18 17  1  0
 19 18  2  0
 20 18  1  0
  2 21  1  0
  6 22  1  0
  8 23  1  0
 10 24  1  0
 12 25  1  1
 13 26  1  0
 13 27  1  0
 14 28  1  6
 20 29  1  0
M  ISO  8  21  14  22  14  23  14  24  14  25  13  26  13  27  13  28  13
M  ISO  1  29   3
M  END
>  <minimizedAffinity>  (1) 
-4.6766305

>  <minimizedRMSD>  (1) 
0.623821199

$$$$
