
     RDKit          3D

 45 49  0  0  1  0  0  0  0  0999 V2000
   46.4230   33.5690   44.8570 C   0  0  2  0  0  0  0  0  0  0  0  0
   45.0700   34.2650   44.9640 C   0  0  0  0  0  0  0  0  0  0  0  0
   44.8430   35.3470   44.0320 C   0  0  0  0  0  0  0  0  0  0  0  0
   45.8590   35.7470   43.0480 C   0  0  0  0  0  0  0  0  0  0  0  0
   47.1010   34.9570   43.0440 C   0  0  1  0  0  0  0  0  0  0  0  0
   46.9230   33.5620   43.4570 C   0  0  0  0  0  0  0  0  0  0  0  0
   47.6870   34.9610   41.6790 C   0  0  0  0  0  0  0  0  0  0  0  0
   48.8200   35.6500   41.2550 C   0  0  0  0  0  0  0  0  0  0  0  0
   48.9330   35.3270   39.9650 N   0  0  0  0  0  0  0  0  0  0  0  0
   47.9640   34.4940   39.5480 C   0  0  0  0  0  0  0  0  0  0  0  0
   47.7600   33.9440   38.2760 C   0  0  0  0  0  0  0  0  0  0  0  0
   46.6720   33.1230   38.1790 C   0  0  0  0  0  0  0  0  0  0  0  0
   45.8080   32.8220   39.2150 C   0  0  0  0  0  0  0  0  0  0  0  0
   46.0950   33.4150   40.4330 C   0  0  0  0  0  0  0  0  0  0  0  0
   47.1570   34.2580   40.6610 C   0  0  0  0  0  0  0  0  0  0  0  0
   46.7030   32.0670   46.8020 C   0  0  0  0  0  0  0  0  0  0  0  0
   46.3090   32.2330   45.4750 C   0  0  0  0  0  0  0  0  0  0  0  0
   45.8340   31.0920   44.7550 C   0  0  0  0  0  0  0  0  0  0  0  0
   45.7920   29.8980   45.4000 N   0  0  0  0  0  0  0  0  0  0  0  0
   46.1850   29.7740   46.6930 C   0  0  0  0  0  0  0  0  0  0  0  0
   46.6310   30.8410   47.3760 N   0  0  0  0  0  0  0  0  0  0  0  0
   46.0740   28.4200   47.2310 C   0  0  0  0  0  0  0  0  0  0  0  0
   44.8530   28.0260   47.7780 C   0  0  0  0  0  0  0  0  0  0  0  0
   45.0110   26.7220   48.2100 C   0  0  0  0  0  0  0  0  0  0  0  0
   46.3340   26.3870   47.8990 C   0  0  0  0  0  0  0  0  0  0  0  0
   46.9080   27.4010   47.3340 O   0  0  0  0  0  0  0  0  0  0  0  0
   47.1929   34.1247   45.4124 H   0  0  0  0  0  0  0  0  0  0  0  0
   44.3142   33.9627   45.7039 H   0  0  0  0  0  0  0  0  0  0  0  0
   43.8841   35.8853   44.0602 H   0  0  0  0  0  0  0  0  0  0  0  0
   45.4076   35.6692   42.0479 H   0  0  0  0  0  0  0  0  0  0  0  0
   46.1581   36.7675   43.3293 H   0  0  0  0  0  0  0  0  0  0  0  0
   47.7634   35.4356   43.7803 H   0  0  0  0  0  0  0  0  0  0  0  0
   46.1929   33.0664   42.8002 H   0  0  0  0  0  0  0  0  0  0  0  0
   47.8744   33.0141   43.3889 H   0  0  0  0  0  0  0  0  0  0  0  0
   49.4721   36.3090   41.8470 H   0  0  0  0  0  0  0  0  0  0  0  0
   49.6835   35.6789   39.3536 H   0  0  0  0  0  0  0  0  0  0  0  0
   48.4224   34.1559   37.4237 H   0  0  0  0  0  0  0  0  0  0  0  0
   46.4678   32.6658   37.1996 H   0  0  0  0  0  0  0  0  0  0  0  0
   44.9456   32.1526   39.0803 H   0  0  0  0  0  0  0  0  0  0  0  0
   45.4258   33.1961   41.2782 H   0  0  0  0  0  0  0  0  0  0  0  0
   47.0707   32.9271   47.3807 H   0  0  0  0  0  0  0  0  0  0  0  0
   45.5114   31.1795   43.7070 H   0  0  0  0  0  0  0  0  0  0  0  0
   43.9401   28.6353   47.8516 H   0  0  0  0  0  0  0  0  0  0  0  0
   44.2575   26.0839   48.6948 H   0  0  0  0  0  0  0  0  0  0  0  0
   46.8104   25.4166   48.1022 H   0  0  0  0  0  0  0  0  0  0  0  0
  1  2  1  0
  1 17  1  0
  3  2  2  0
  4  3  1  0
  5  4  1  0
  5  6  1  0
  6  1  1  0
  7  5  1  0
  8  7  2  0
  9  8  1  0
 10  9  1  0
 10 15  2  0
 11 10  1  0
 12 11  2  0
 12 13  1  0
 13 14  2  0
 14 15  1  0
 15  7  1  0
 16 21  2  0
 17 16  1  0
 18 19  1  0
 18 17  2  0
 19 20  2  0
 20 22  1  0
 20 21  1  0
 22 26  1  0
 22 23  2  0
 23 24  1  0
 25 24  2  0
 26 25  1  0
  1 27  1  1
  2 28  1  0
  3 29  1  0
  4 30  1  0
  4 31  1  0
  5 32  1  1
  6 33  1  0
  6 34  1  0
  8 35  1  0
  9 36  1  0
 11 37  1  0
 12 38  1  0
 13 39  1  0
 14 40  1  0
 16 41  1  0
 18 42  1  0
 23 43  1  0
 24 44  1  0
 25 45  1  0
M  ISO  8  27  13  28  13  29  13  30  13  31  13  32  13  33  13  34  13
M  ISO  8  35  14  36   9  37  14  38  14  39  14  40  14  41  14  42  14
M  ISO  3  43  14  44  14  45  14
M  END
>  <minimizedAffinity>  (1) 
-6.51170826

>  <minimizedRMSD>  (1) 
1.11552429

$$$$
