
     RDKit          3D

 34 37  0  0  1  0  0  0  0  0999 V2000
   48.1580   33.3930   39.1800 C   0  0  2  0  0  0  0  0  0  0  0  0
   48.2620   34.2060   37.8580 C   0  0  0  0  0  0  0  0  0  0  0  0
   48.0830   32.6720   37.8830 C   0  0  1  0  0  0  0  0  0  0  0  0
   45.6800   34.0760   41.7210 N   0  0  0  0  0  0  0  0  0  0  0  0
   44.8670   33.8440   40.6440 C   0  0  0  0  0  0  0  0  0  0  0  0
   45.6050   33.5580   39.5540 N   0  0  0  0  0  0  0  0  0  0  0  0
   46.9100   33.6150   39.9690 C   0  0  0  0  0  0  0  0  0  0  0  0
   46.8910   33.9260   41.2600 N   0  0  0  0  0  0  0  0  0  0  0  0
   44.7840   35.6850   43.2700 C   0  0  0  0  0  0  0  0  0  0  0  0
   45.3830   34.4080   43.0600 C   0  0  0  0  0  0  0  0  0  0  0  0
   45.6160   33.6240   44.1550 C   0  0  0  0  0  0  0  0  0  0  0  0
   45.2540   34.1310   45.3720 N   0  0  0  0  0  0  0  0  0  0  0  0
   44.6980   35.3190   45.5430 C   0  0  0  0  0  0  0  0  0  0  0  0
   44.4620   36.0990   44.4880 N   0  0  0  0  0  0  0  0  0  0  0  0
   49.1820   31.7960   37.5320 C   0  0  0  0  0  0  0  0  0  0  0  0
   48.9090   30.5470   37.3940 O   0  0  0  0  0  0  0  0  0  0  0  0
   50.4710   32.2500   37.3480 O   0  0  0  0  0  0  0  0  0  0  0  0
   51.4530   31.8200   38.2370 C   0  0  0  0  0  0  0  0  0  0  0  0
   52.7580   31.5710   37.7990 C   0  0  0  0  0  0  0  0  0  0  0  0
   53.6950   31.1460   38.7250 C   0  0  0  0  0  0  0  0  0  0  0  0
   53.3880   30.9650   40.0320 N   0  0  0  0  0  0  0  0  0  0  0  0
   52.1080   31.2170   40.4210 C   0  0  0  0  0  0  0  0  0  0  0  0
   51.1640   31.6340   39.5480 N   0  0  0  0  0  0  0  0  0  0  0  0
   48.7752   33.2528   40.0796 H   0  0  0  0  0  0  0  0  0  0  0  0
   49.2202   34.6504   37.5509 H   0  0  0  0  0  0  0  0  0  0  0  0
   47.7337   35.0593   37.4076 H   0  0  0  0  0  0  0  0  0  0  0  0
   47.3629   31.9919   37.4047 H   0  0  0  0  0  0  0  0  0  0  0  0
   43.7680   33.8853   40.6657 H   0  0  0  0  0  0  0  0  0  0  0  0
   44.5857   36.3377   42.4070 H   0  0  0  0  0  0  0  0  0  0  0  0
   46.0747   32.6286   44.0612 H   0  0  0  0  0  0  0  0  0  0  0  0
   44.4310   35.6625   46.5533 H   0  0  0  0  0  0  0  0  0  0  0  0
   53.0332   31.7097   36.7431 H   0  0  0  0  0  0  0  0  0  0  0  0
   54.7234   30.9486   38.3883 H   0  0  0  0  0  0  0  0  0  0  0  0
   51.8338   31.0771   41.4771 H   0  0  0  0  0  0  0  0  0  0  0  0
  1  7  1  0
  2  3  1  0
  2  1  1  0
  3  1  1  0
  4 10  1  0
  5  4  1  0
  6  7  1  0
  6  5  2  0
  7  8  2  0
  8  4  1  0
  9 14  2  0
 10  9  1  0
 10 11  2  0
 11 12  1  0
 12 13  2  0
 14 13  1  0
 15  3  1  0
 16 15  2  0
 17 15  1  0
 17 18  1  0
 18 23  1  0
 19 18  2  0
 19 20  1  0
 20 21  2  0
 21 22  1  0
 23 22  2  0
  1 24  1  1
  2 25  1  0
  2 26  1  0
  3 27  1  6
  5 28  1  0
  9 29  1  0
 11 30  1  0
 13 31  1  0
 19 32  1  0
 20 33  1  0
 22 34  1  0
M  ISO  8  24  13  25  13  26  13  27  13  28  14  29  14  30  14  31  14
M  ISO  3  32  14  33  14  34  14
M  END
>  <minimizedAffinity>  (1) 
-4.64598608

>  <minimizedRMSD>  (1) 
1.58233941

$$$$
