
     RDKit          3D

 54 58  0  0  1  0  0  0  0  0999 V2000
   46.4510   33.5780   44.8590 C   0  0  2  0  0  0  0  0  0  0  0  0
   45.0840   34.2600   44.9590 C   0  0  0  0  0  0  0  0  0  0  0  0
   44.8430   35.3310   44.0240 C   0  0  0  0  0  0  0  0  0  0  0  0
   45.8560   35.7370   43.0380 C   0  0  0  0  0  0  0  0  0  0  0  0
   47.1070   34.9610   43.0370 C   0  0  1  0  0  0  0  0  0  0  0  0
   46.9440   33.5670   43.4540 C   0  0  0  0  0  0  0  0  0  0  0  0
   47.6910   34.9660   41.6740 C   0  0  0  0  0  0  0  0  0  0  0  0
   48.8270   35.6590   41.2510 C   0  0  0  0  0  0  0  0  0  0  0  0
   48.9400   35.3390   39.9570 N   0  0  0  0  0  0  0  0  0  0  0  0
   47.9700   34.5060   39.5450 C   0  0  0  0  0  0  0  0  0  0  0  0
   47.7690   33.9580   38.2690 C   0  0  0  0  0  0  0  0  0  0  0  0
   46.6830   33.1330   38.1700 C   0  0  0  0  0  0  0  0  0  0  0  0
   45.8170   32.8260   39.2040 C   0  0  0  0  0  0  0  0  0  0  0  0
   46.1030   33.4200   40.4230 C   0  0  0  0  0  0  0  0  0  0  0  0
   47.1630   34.2650   40.6550 C   0  0  0  0  0  0  0  0  0  0  0  0
   45.7920   32.1210   46.7620 C   0  0  0  0  0  0  0  0  0  0  0  0
   46.3360   32.2270   45.4810 C   0  0  0  0  0  0  0  0  0  0  0  0
   46.7790   31.0390   44.8120 C   0  0  0  0  0  0  0  0  0  0  0  0
   46.6390   29.8600   45.4760 N   0  0  0  0  0  0  0  0  0  0  0  0
   46.1130   29.7950   46.7010 C   0  0  0  0  0  0  0  0  0  0  0  0
   45.6950   30.9030   47.3370 N   0  0  0  0  0  0  0  0  0  0  0  0
   46.0100   28.4680   47.3220 C   0  0  0  0  0  0  0  0  0  0  0  0
   45.7890   27.3820   46.2980 C   0  0  0  0  0  0  0  0  0  0  0  0
   44.2830   27.2290   46.1060 C   0  0  0  0  0  0  0  0  0  0  0  0
   43.7850   26.3850   47.2750 C   0  0  0  0  0  0  0  0  0  0  0  0
   44.5950   26.8490   48.4880 C   0  0  0  0  0  0  0  0  0  0  0  0
   44.9030   28.3430   48.3380 C   0  0  0  0  0  0  0  0  0  0  0  0
   47.2180   34.1393   45.4128 H   0  0  0  0  0  0  0  0  0  0  0  0
   44.3311   33.9517   45.6994 H   0  0  0  0  0  0  0  0  0  0  0  0
   43.8775   35.8575   44.0488 H   0  0  0  0  0  0  0  0  0  0  0  0
   45.4057   35.6497   42.0382 H   0  0  0  0  0  0  0  0  0  0  0  0
   46.1443   36.7616   43.3157 H   0  0  0  0  0  0  0  0  0  0  0  0
   47.7644   35.4495   43.7713 H   0  0  0  0  0  0  0  0  0  0  0  0
   46.2144   33.0626   42.8033 H   0  0  0  0  0  0  0  0  0  0  0  0
   47.8986   33.0254   43.3813 H   0  0  0  0  0  0  0  0  0  0  0  0
   49.4788   36.3166   41.8449 H   0  0  0  0  0  0  0  0  0  0  0  0
   49.6885   35.6925   39.3440 H   0  0  0  0  0  0  0  0  0  0  0  0
   48.4311   34.1744   37.4177 H   0  0  0  0  0  0  0  0  0  0  0  0
   46.4819   32.6769   37.1894 H   0  0  0  0  0  0  0  0  0  0  0  0
   44.9570   32.1539   39.0675 H   0  0  0  0  0  0  0  0  0  0  0  0
   45.4330   33.1994   41.2670 H   0  0  0  0  0  0  0  0  0  0  0  0
   45.4466   33.0183   47.2964 H   0  0  0  0  0  0  0  0  0  0  0  0
   47.2145   31.0792   43.8027 H   0  0  0  0  0  0  0  0  0  0  0  0
   46.9771   28.3476   47.8322 H   0  0  0  0  0  0  0  0  0  0  0  0
   46.2620   27.6627   45.3454 H   0  0  0  0  0  0  0  0  0  0  0  0
   46.2336   26.4347   46.6372 H   0  0  0  0  0  0  0  0  0  0  0  0
   43.7961   28.2153   46.1139 H   0  0  0  0  0  0  0  0  0  0  0  0
   44.0495   26.7535   45.1420 H   0  0  0  0  0  0  0  0  0  0  0  0
   42.7111   26.5549   47.4419 H   0  0  0  0  0  0  0  0  0  0  0  0
   43.9134   25.3091   47.0856 H   0  0  0  0  0  0  0  0  0  0  0  0
   44.0128   26.6825   49.4063 H   0  0  0  0  0  0  0  0  0  0  0  0
   45.5341   26.2794   48.5488 H   0  0  0  0  0  0  0  0  0  0  0  0
   45.2275   28.7600   49.3028 H   0  0  0  0  0  0  0  0  0  0  0  0
   44.0094   28.8961   48.0132 H   0  0  0  0  0  0  0  0  0  0  0  0
  1  2  1  0
  1 17  1  0
  3  2  2  0
  4  3  1  0
  5  4  1  0
  5  6  1  0
  6  1  1  0
  7  5  1  0
  8  7  2  0
  9  8  1  0
 10  9  1  0
 10 15  2  0
 11 10  1  0
 12 11  2  0
 12 13  1  0
 13 14  2  0
 14 15  1  0
 15  7  1  0
 16 21  2  0
 17 16  1  0
 18 19  1  0
 18 17  2  0
 19 20  2  0
 20 22  1  0
 20 21  1  0
 22 27  1  0
 23 22  1  0
 24 23  1  0
 24 25  1  0
 25 26  1  0
 27 26  1  0
  1 28  1  1
  2 29  1  0
  3 30  1  0
  4 31  1  0
  4 32  1  0
  5 33  1  1
  6 34  1  0
  6 35  1  0
  8 36  1  0
  9 37  1  0
 11 38  1  0
 12 39  1  0
 13 40  1  0
 14 41  1  0
 16 42  1  0
 18 43  1  0
 22 44  1  0
 23 45  1  0
 23 46  1  0
 24 47  1  0
 24 48  1  0
 25 49  1  0
 25 50  1  0
 26 51  1  0
 26 52  1  0
 27 53  1  0
 27 54  1  0
M  ISO  8  28  13  29  13  30  13  31  13  32  13  33  13  34  13  35  13
M  ISO  8  36  14  37   9  38  14  39  14  40  14  41  14  42  14  43  14
M  ISO  8  44  13  45  13  46  13  47  13  48  13  49  13  50  13  51  13
M  ISO  3  52  13  53  13  54  13
M  END
>  <minimizedAffinity>  (1) 
-6.66479254

>  <minimizedRMSD>  (1) 
0.921015918

$$$$
