
     RDKit          3D

 46 50  0  0  1  0  0  0  0  0999 V2000
   46.5560   33.4400   44.8120 C   0  0  2  0  0  0  0  0  0  0  0  0
   45.1840   34.0950   44.9390 C   0  0  0  0  0  0  0  0  0  0  0  0
   44.9160   35.1910   44.0340 C   0  0  0  0  0  0  0  0  0  0  0  0
   45.9100   35.6460   43.0610 C   0  0  0  0  0  0  0  0  0  0  0  0
   47.1850   34.8980   43.0280 C   0  0  1  0  0  0  0  0  0  0  0  0
   47.0480   33.4880   43.4010 C   0  0  0  0  0  0  0  0  0  0  0  0
   47.7590   34.9590   41.6650 C   0  0  0  0  0  0  0  0  0  0  0  0
   48.8690   35.6970   41.2580 C   0  0  0  0  0  0  0  0  0  0  0  0
   48.9940   35.4220   39.9620 N   0  0  0  0  0  0  0  0  0  0  0  0
   48.0500   34.5690   39.5220 C   0  0  0  0  0  0  0  0  0  0  0  0
   47.8620   34.0510   38.2350 C   0  0  0  0  0  0  0  0  0  0  0  0
   46.7940   33.1910   38.1160 C   0  0  0  0  0  0  0  0  0  0  0  0
   45.9450   32.8320   39.1410 C   0  0  0  0  0  0  0  0  0  0  0  0
   46.2150   33.3980   40.3770 C   0  0  0  0  0  0  0  0  0  0  0  0
   47.2500   34.2690   40.6280 C   0  0  0  0  0  0  0  0  0  0  0  0
   45.8580   31.8950   46.6160 C   0  0  0  0  0  0  0  0  0  0  0  0
   46.4800   32.0740   45.3800 C   0  0  0  0  0  0  0  0  0  0  0  0
   47.0330   30.9260   44.7170 C   0  0  0  0  0  0  0  0  0  0  0  0
   46.9150   29.7240   45.3420 N   0  0  0  0  0  0  0  0  0  0  0  0
   46.3120   29.5960   46.5270 C   0  0  0  0  0  0  0  0  0  0  0  0
   45.7880   30.6600   47.1610 N   0  0  0  0  0  0  0  0  0  0  0  0
   46.1970   28.2910   47.1780 C   0  0  0  0  0  0  0  0  0  0  0  0
   44.9770   27.9260   47.7330 C   0  0  0  0  0  0  0  0  0  0  0  0
   44.9060   26.6870   48.3400 C   0  0  0  0  0  0  0  0  0  0  0  0
   45.9730   25.8680   48.3930 N   0  0  0  0  0  0  0  0  0  0  0  0
   47.1300   26.2390   47.8550 C   0  0  0  0  0  0  0  0  0  0  0  0
   47.2340   27.4370   47.2580 N   0  0  0  0  0  0  0  0  0  0  0  0
   47.3082   33.9976   45.3894 H   0  0  0  0  0  0  0  0  0  0  0  0
   44.4419   33.7537   45.6758 H   0  0  0  0  0  0  0  0  0  0  0  0
   43.9396   35.6957   44.0782 H   0  0  0  0  0  0  0  0  0  0  0  0
   45.4559   35.5783   42.0614 H   0  0  0  0  0  0  0  0  0  0  0  0
   46.1771   36.6672   43.3705 H   0  0  0  0  0  0  0  0  0  0  0  0
   47.8401   35.3771   43.7705 H   0  0  0  0  0  0  0  0  0  0  0  0
   46.3265   32.9921   42.7350 H   0  0  0  0  0  0  0  0  0  0  0  0
   48.0134   32.9686   43.3104 H   0  0  0  0  0  0  0  0  0  0  0  0
   49.4999   36.3581   41.8703 H   0  0  0  0  0  0  0  0  0  0  0  0
   49.7315   35.8180   39.3619 H   0  0  0  0  0  0  0  0  0  0  0  0
   48.5145   34.3101   37.3882 H   0  0  0  0  0  0  0  0  0  0  0  0
   46.6027   32.7555   37.1241 H   0  0  0  0  0  0  0  0  0  0  0  0
   45.1048   32.1389   38.9874 H   0  0  0  0  0  0  0  0  0  0  0  0
   45.5554   33.1321   41.2162 H   0  0  0  0  0  0  0  0  0  0  0  0
   45.4257   32.7567   47.1456 H   0  0  0  0  0  0  0  0  0  0  0  0
   47.5327   31.0157   43.7412 H   0  0  0  0  0  0  0  0  0  0  0  0
   44.1047   28.5949   47.6910 H   0  0  0  0  0  0  0  0  0  0  0  0
   43.9562   26.3624   48.7901 H   0  0  0  0  0  0  0  0  0  0  0  0
   47.9996   25.5668   47.8986 H   0  0  0  0  0  0  0  0  0  0  0  0
  1  2  1  0
  1 17  1  0
  3  2  2  0
  4  3  1  0
  5  4  1  0
  5  6  1  0
  6  1  1  0
  7  5  1  0
  8  7  2  0
  9  8  1  0
 10  9  1  0
 10 15  2  0
 11 10  1  0
 12 11  2  0
 12 13  1  0
 13 14  2  0
 14 15  1  0
 15  7  1  0
 16 21  2  0
 17 16  1  0
 18 19  1  0
 18 17  2  0
 19 20  2  0
 20 21  1  0
 20 22  1  0
 22 27  1  0
 22 23  2  0
 23 24  1  0
 24 25  2  0
 26 25  1  0
 27 26  2  0
  1 28  1  1
  2 29  1  0
  3 30  1  0
  4 31  1  0
  4 32  1  0
  5 33  1  1
  6 34  1  0
  6 35  1  0
  8 36  1  0
  9 37  1  0
 11 38  1  0
 12 39  1  0
 13 40  1  0
 14 41  1  0
 16 42  1  0
 18 43  1  0
 23 44  1  0
 24 45  1  0
 26 46  1  0
M  ISO  8  28  13  29  13  30  13  31  13  32  13  33  13  34  13  35  13
M  ISO  8  36  14  37   9  38  14  39  14  40  14  41  14  42  14  43  14
M  ISO  3  44  14  45  14  46  14
M  END
>  <minimizedAffinity>  (1) 
-6.5675931

>  <minimizedRMSD>  (1) 
1.4094137

$$$$
