
     RDKit          3D

 43 47  0  0  1  0  0  0  0  0999 V2000
   46.4260   33.5620   44.8520 C   0  0  2  0  0  0  0  0  0  0  0  0
   45.0690   34.2630   44.9540 C   0  0  0  0  0  0  0  0  0  0  0  0
   44.8450   35.3430   44.0220 C   0  0  0  0  0  0  0  0  0  0  0  0
   45.8630   35.7420   43.0460 C   0  0  0  0  0  0  0  0  0  0  0  0
   47.1080   34.9470   43.0370 C   0  0  1  0  0  0  0  0  0  0  0  0
   46.9180   33.5520   43.4420 C   0  0  0  0  0  0  0  0  0  0  0  0
   47.6870   34.9530   41.6720 C   0  0  0  0  0  0  0  0  0  0  0  0
   48.8210   35.6470   41.2490 C   0  0  0  0  0  0  0  0  0  0  0  0
   48.9330   35.3300   39.9570 N   0  0  0  0  0  0  0  0  0  0  0  0
   47.9640   34.4960   39.5430 C   0  0  0  0  0  0  0  0  0  0  0  0
   47.7620   33.9530   38.2690 C   0  0  0  0  0  0  0  0  0  0  0  0
   46.6760   33.1280   38.1650 C   0  0  0  0  0  0  0  0  0  0  0  0
   45.8100   32.8190   39.2020 C   0  0  0  0  0  0  0  0  0  0  0  0
   46.1000   33.4110   40.4200 C   0  0  0  0  0  0  0  0  0  0  0  0
   47.1620   34.2560   40.6460 C   0  0  0  0  0  0  0  0  0  0  0  0
   46.6760   32.0340   46.7930 C   0  0  0  0  0  0  0  0  0  0  0  0
   46.2960   32.2150   45.4630 C   0  0  0  0  0  0  0  0  0  0  0  0
   45.8060   31.0850   44.7260 C   0  0  0  0  0  0  0  0  0  0  0  0
   45.7400   29.8910   45.3730 N   0  0  0  0  0  0  0  0  0  0  0  0
   46.1130   29.7570   46.6500 C   0  0  0  0  0  0  0  0  0  0  0  0
   46.5730   30.8080   47.3510 N   0  0  0  0  0  0  0  0  0  0  0  0
   45.9990   28.4300   47.2470 C   0  0  0  0  0  0  0  0  0  0  0  0
   44.9160   28.0240   47.9450 N   0  0  0  0  0  0  0  0  0  0  0  0
   45.0770   26.7970   48.3660 O   0  0  0  0  0  0  0  0  0  0  0  0
   46.2590   26.3570   47.9640 C   0  0  0  0  0  0  0  0  0  0  0  0
   46.8260   27.3650   47.2740 N   0  0  0  0  0  0  0  0  0  0  0  0
   47.1994   34.1090   45.4111 H   0  0  0  0  0  0  0  0  0  0  0  0
   44.3108   33.9624   45.6921 H   0  0  0  0  0  0  0  0  0  0  0  0
   43.8854   35.8802   44.0452 H   0  0  0  0  0  0  0  0  0  0  0  0
   45.4131   35.6716   42.0447 H   0  0  0  0  0  0  0  0  0  0  0  0
   46.1661   36.7585   43.3372 H   0  0  0  0  0  0  0  0  0  0  0  0
   47.7777   35.4188   43.7712 H   0  0  0  0  0  0  0  0  0  0  0  0
   46.1775   33.0678   42.7884 H   0  0  0  0  0  0  0  0  0  0  0  0
   47.8612   32.9915   43.3626 H   0  0  0  0  0  0  0  0  0  0  0  0
   49.4728   36.3042   41.8433 H   0  0  0  0  0  0  0  0  0  0  0  0
   49.6806   35.6859   39.3443 H   0  0  0  0  0  0  0  0  0  0  0  0
   48.4243   34.1724   37.4185 H   0  0  0  0  0  0  0  0  0  0  0  0
   46.4745   32.6751   37.1830 H   0  0  0  0  0  0  0  0  0  0  0  0
   44.9491   32.1478   39.0666 H   0  0  0  0  0  0  0  0  0  0  0  0
   45.4339   33.1899   41.2670 H   0  0  0  0  0  0  0  0  0  0  0  0
   47.0560   32.8818   47.3820 H   0  0  0  0  0  0  0  0  0  0  0  0
   45.4950   31.1815   43.6753 H   0  0  0  0  0  0  0  0  0  0  0  0
   46.6924   25.3643   48.1557 H   0  0  0  0  0  0  0  0  0  0  0  0
  1  2  1  0
  1 17  1  0
  3  2  2  0
  4  3  1  0
  5  4  1  0
  5  6  1  0
  6  1  1  0
  7  5  1  0
  8  7  2  0
  9  8  1  0
 10  9  1  0
 10 15  2  0
 11 10  1  0
 12 11  2  0
 12 13  1  0
 13 14  2  0
 14 15  1  0
 15  7  1  0
 16 21  2  0
 17 16  1  0
 18 19  1  0
 18 17  2  0
 19 20  2  0
 20 22  1  0
 20 21  1  0
 22 26  1  0
 22 23  2  0
 23 24  1  0
 25 24  1  0
 26 25  2  0
  1 27  1  1
  2 28  1  0
  3 29  1  0
  4 30  1  0
  4 31  1  0
  5 32  1  1
  6 33  1  0
  6 34  1  0
  8 35  1  0
  9 36  1  0
 11 37  1  0
 12 38  1  0
 13 39  1  0
 14 40  1  0
 16 41  1  0
 18 42  1  0
 25 43  1  0
M  ISO  8  27  13  28  13  29  13  30  13  31  13  32  13  33  13  34  13
M  ISO  8  35  14  36   9  37  14  38  14  39  14  40  14  41  14  42  14
M  ISO  1  43  14
M  END
>  <minimizedAffinity>  (1) 
-6.38396454

>  <minimizedRMSD>  (1) 
1.13884699

$$$$
