
     RDKit          3D

 47 50  0  0  1  0  0  0  0  0999 V2000
   46.2930   33.7280   44.9140 C   0  0  2  0  0  0  0  0  0  0  0  0
   44.9610   34.4580   44.9750 C   0  0  0  0  0  0  0  0  0  0  0  0
   44.7510   35.4970   44.0060 C   0  0  0  0  0  0  0  0  0  0  0  0
   45.7750   35.8370   43.0110 C   0  0  0  0  0  0  0  0  0  0  0  0
   47.0100   35.0300   43.0520 C   0  0  1  0  0  0  0  0  0  0  0  0
   46.8040   33.6540   43.5150 C   0  0  0  0  0  0  0  0  0  0  0  0
   47.6090   34.9710   41.7000 C   0  0  0  0  0  0  0  0  0  0  0  0
   48.7840   35.5890   41.2750 C   0  0  0  0  0  0  0  0  0  0  0  0
   48.8970   35.2320   39.9930 N   0  0  0  0  0  0  0  0  0  0  0  0
   47.8900   34.4420   39.5840 C   0  0  0  0  0  0  0  0  0  0  0  0
   47.6760   33.8760   38.3220 C   0  0  0  0  0  0  0  0  0  0  0  0
   46.5480   33.1100   38.2260 C   0  0  0  0  0  0  0  0  0  0  0  0
   45.6570   32.8790   39.2520 C   0  0  0  0  0  0  0  0  0  0  0  0
   45.9560   33.4830   40.4610 C   0  0  0  0  0  0  0  0  0  0  0  0
   47.0590   34.2740   40.6830 C   0  0  0  0  0  0  0  0  0  0  0  0
   45.8820   32.3670   46.9460 C   0  0  0  0  0  0  0  0  0  0  0  0
   46.1340   32.4070   45.5750 C   0  0  0  0  0  0  0  0  0  0  0  0
   46.2460   31.1660   44.8630 C   0  0  0  0  0  0  0  0  0  0  0  0
   46.0990   30.0180   45.5680 N   0  0  0  0  0  0  0  0  0  0  0  0
   45.8560   30.0130   46.8860 C   0  0  0  0  0  0  0  0  0  0  0  0
   45.7500   31.1680   47.5640 N   0  0  0  0  0  0  0  0  0  0  0  0
   45.7070   28.7290   47.5890 C   0  0  0  0  0  0  0  0  0  0  0  0
   44.5450   27.9410   47.0180 C   0  0  0  0  0  0  0  0  0  0  0  0
   46.9560   27.8920   47.3810 C   0  0  0  0  0  0  0  0  0  0  0  0
   47.0684   34.2830   45.4624 H   0  0  0  0  0  0  0  0  0  0  0  0
   44.1964   34.2032   45.7237 H   0  0  0  0  0  0  0  0  0  0  0  0
   43.8006   36.0509   44.0096 H   0  0  0  0  0  0  0  0  0  0  0  0
   46.0556   36.8897   43.1630 H   0  0  0  0  0  0  0  0  0  0  0  0
   45.3178   35.6299   42.0322 H   0  0  0  0  0  0  0  0  0  0  0  0
   47.6719   35.5288   43.7752 H   0  0  0  0  0  0  0  0  0  0  0  0
   46.0694   33.1467   42.8724 H   0  0  0  0  0  0  0  0  0  0  0  0
   47.7443   33.0846   43.4737 H   0  0  0  0  0  0  0  0  0  0  0  0
   49.4630   36.2253   41.8615 H   0  0  0  0  0  0  0  0  0  0  0  0
   49.6722   35.5300   39.3838 H   0  0  0  0  0  0  0  0  0  0  0  0
   48.3604   34.0348   37.4756 H   0  0  0  0  0  0  0  0  0  0  0  0
   46.3346   32.6413   37.2540 H   0  0  0  0  0  0  0  0  0  0  0  0
   44.7627   32.2527   39.1181 H   0  0  0  0  0  0  0  0  0  0  0  0
   45.2648   33.3193   41.3009 H   0  0  0  0  0  0  0  0  0  0  0  0
   45.7911   33.3004   47.5209 H   0  0  0  0  0  0  0  0  0  0  0  0
   46.4445   31.1472   43.7812 H   0  0  0  0  0  0  0  0  0  0  0  0
   45.5377   28.9426   48.6547 H   0  0  0  0  0  0  0  0  0  0  0  0
   43.9405   27.5311   47.8405 H   0  0  0  0  0  0  0  0  0  0  0  0
   43.9215   28.6034   46.3995 H   0  0  0  0  0  0  0  0  0  0  0  0
   44.9297   27.1167   46.3995 H   0  0  0  0  0  0  0  0  0  0  0  0
   47.3758   27.6107   48.3581 H   0  0  0  0  0  0  0  0  0  0  0  0
   46.6987   26.9833   46.8171 H   0  0  0  0  0  0  0  0  0  0  0  0
   47.6987   28.4755   46.8171 H   0  0  0  0  0  0  0  0  0  0  0  0
  1  2  1  0
  1 17  1  0
  3  2  2  0
  4  5  1  0
  4  3  1  0
  5  6  1  0
  6  1  1  0
  7  5  1  0
  8  7  2  0
  9  8  1  0
 10  9  1  0
 10 15  2  0
 11 10  1  0
 12 11  2  0
 12 13  1  0
 13 14  2  0
 14 15  1  0
 15  7  1  0
 16 21  2  0
 17 16  1  0
 18 19  1  0
 18 17  2  0
 19 20  2  0
 20 21  1  0
 20 22  1  0
 23 22  1  0
 24 22  1  0
  1 25  1  1
  2 26  1  0
  3 27  1  0
  4 28  1  0
  4 29  1  0
  5 30  1  1
  6 31  1  0
  6 32  1  0
  8 33  1  0
  9 34  1  0
 11 35  1  0
 12 36  1  0
 13 37  1  0
 14 38  1  0
 16 39  1  0
 18 40  1  0
 22 41  1  0
 23 42  1  0
 23 43  1  0
 23 44  1  0
 24 45  1  0
 24 46  1  0
 24 47  1  0
M  ISO  8  25  13  26  13  27  13  28  13  29  13  30  13  31  13  32  13
M  ISO  8  33  14  34   9  35  14  36  14  37  14  38  14  39  14  40  14
M  ISO  7  41   8  42   8  43   8  44   8  45   8  46   8  47   8
M  END
>  <minimizedAffinity>  (1) 
-6.29269123

>  <minimizedRMSD>  (1) 
0.736129463

$$$$
