
     RDKit          3D

 39 42  0  0  1  0  0  0  0  0999 V2000
   45.7350   34.0650   41.6340 N   0  0  0  0  0  0  0  0  0  0  0  0
   44.9300   33.7380   40.5730 C   0  0  0  0  0  0  0  0  0  0  0  0
   45.6880   33.4950   39.4950 N   0  0  0  0  0  0  0  0  0  0  0  0
   46.9880   33.6700   39.8820 C   0  0  0  0  0  0  0  0  0  0  0  0
   46.9530   34.0090   41.1650 N   0  0  0  0  0  0  0  0  0  0  0  0
   44.8140   35.6730   43.1710 C   0  0  0  0  0  0  0  0  0  0  0  0
   45.4260   34.4040   42.9720 C   0  0  0  0  0  0  0  0  0  0  0  0
   45.6620   33.6230   44.0700 C   0  0  0  0  0  0  0  0  0  0  0  0
   45.2930   34.1210   45.2870 N   0  0  0  0  0  0  0  0  0  0  0  0
   44.7250   35.3030   45.4570 C   0  0  0  0  0  0  0  0  0  0  0  0
   44.4870   36.0810   44.3910 N   0  0  0  0  0  0  0  0  0  0  0  0
   48.2310   33.5280   39.0800 C   0  0  2  0  0  0  0  0  0  0  0  0
   48.4820   34.6240   38.0140 C   0  0  0  0  0  0  0  0  0  0  0  0
   48.1520   33.1690   37.6390 C   0  0  1  0  0  0  0  0  0  0  0  0
   49.1640   32.2830   37.1010 C   0  0  0  0  0  0  0  0  0  0  0  0
   49.2330   32.1920   35.8170 O   0  0  0  0  0  0  0  0  0  0  0  0
   50.0190   31.5630   37.9020 O   0  0  0  0  0  0  0  0  0  0  0  0
   51.3930   31.5690   37.6490 C   0  0  0  0  0  0  0  0  0  0  0  0
   52.2430   31.4980   38.9190 C   0  0  0  0  0  0  0  0  0  0  0  0
   53.6270   31.4710   38.2570 C   0  0  0  0  0  0  0  0  0  0  0  0
   53.4270   30.5230   37.0920 C   0  0  0  0  0  0  0  0  0  0  0  0
   51.9140   30.3760   36.9100 C   0  0  0  0  0  0  0  0  0  0  0  0
   43.8317   33.6836   40.6023 H   0  0  0  0  0  0  0  0  0  0  0  0
   44.6101   36.3216   42.3063 H   0  0  0  0  0  0  0  0  0  0  0  0
   46.1308   32.6323   43.9764 H   0  0  0  0  0  0  0  0  0  0  0  0
   44.4498   35.6455   46.4654 H   0  0  0  0  0  0  0  0  0  0  0  0
   48.7842   33.1010   39.9295 H   0  0  0  0  0  0  0  0  0  0  0  0
   47.7426   35.4221   37.8515 H   0  0  0  0  0  0  0  0  0  0  0  0
   49.2880   35.3370   37.7861 H   0  0  0  0  0  0  0  0  0  0  0  0
   47.3953   32.7182   36.9801 H   0  0  0  0  0  0  0  0  0  0  0  0
   51.4811   32.5048   37.0776 H   0  0  0  0  0  0  0  0  0  0  0  0
   52.1063   32.3811   39.5604 H   0  0  0  0  0  0  0  0  0  0  0  0
   52.0201   30.6633   39.5999 H   0  0  0  0  0  0  0  0  0  0  0  0
   53.9177   32.4724   37.9068 H   0  0  0  0  0  0  0  0  0  0  0  0
   54.4292   31.1559   38.9405 H   0  0  0  0  0  0  0  0  0  0  0  0
   53.8813   30.9389   36.1806 H   0  0  0  0  0  0  0  0  0  0  0  0
   53.9023   29.5496   37.2835 H   0  0  0  0  0  0  0  0  0  0  0  0
   51.6343   30.4112   35.8467 H   0  0  0  0  0  0  0  0  0  0  0  0
   51.5147   29.4188   37.2764 H   0  0  0  0  0  0  0  0  0  0  0  0
  1  7  1  0
  2  1  1  0
  3  4  1  0
  3  2  2  0
  4  5  2  0
  5  1  1  0
  6 11  2  0
  7  6  1  0
  7  8  2  0
  8  9  1  0
  9 10  2  0
 11 10  1  0
 12  4  1  0
 13 12  1  0
 14 13  1  0
 14 12  1  0
 15 14  1  0
 15 17  1  0
 16 15  2  0
 18 17  1  0
 18 19  1  0
 20 19  1  0
 21 20  1  0
 22 21  1  0
 22 18  1  0
  2 23  1  0
  6 24  1  0
  8 25  1  0
 10 26  1  0
 12 27  1  1
 13 28  1  0
 13 29  1  0
 14 30  1  6
 18 31  1  0
 19 32  1  0
 19 33  1  0
 20 34  1  0
 20 35  1  0
 21 36  1  0
 21 37  1  0
 22 38  1  0
 22 39  1  0
M  ISO  8  23  14  24  14  25  14  26  14  27  13  28  13  29  13  30  13
M  ISO  8  31  13  32  13  33  13  34  13  35  13  36  13  37  13  38  13
M  ISO  1  39  13
M  END
>  <minimizedAffinity>  (1) 
-4.58282089

>  <minimizedRMSD>  (1) 
0.644989431

$$$$
