
     RDKit          3D

 55 59  0  0  0  0  0  0  0  0999 V2000
   44.4900   35.8640   44.7670 C   0  0  0  0  0  0  0  0  0  0  0  0
   45.0870   35.8920   43.5310 C   0  0  0  0  0  0  0  0  0  0  0  0
   46.0320   34.9450   43.1090 C   0  0  0  0  0  0  0  0  0  0  0  0
   46.2730   34.0210   44.0960 N   0  0  0  0  0  0  0  0  0  0  0  0
   45.7040   33.9800   45.2900 C   0  0  0  0  0  0  0  0  0  0  0  0
   44.8160   34.9060   45.6080 N   0  0  0  0  0  0  0  0  0  0  0  0
   46.0270   32.8980   46.1690 N   0  0  0  0  0  0  0  0  0  0  0  0
   45.2870   32.7550   47.3050 C   0  0  0  0  0  0  0  0  0  0  0  0
   45.6380   31.7080   48.1470 C   0  0  0  0  0  0  0  0  0  0  0  0
   46.7100   30.8870   47.7780 C   0  0  0  0  0  0  0  0  0  0  0  0
   47.0170   29.9430   48.5700 O   0  0  0  0  0  0  0  0  0  0  0  0
   47.3860   31.0890   46.6460 N   0  0  0  0  0  0  0  0  0  0  0  0
   47.0330   32.1000   45.8490 C   0  0  0  0  0  0  0  0  0  0  0  0
   47.7000   32.2430   44.7990 O   0  0  0  0  0  0  0  0  0  0  0  0
   46.7390   34.8270   41.9070 C   0  0  0  0  0  0  0  0  0  0  0  0
   47.9520   35.4780   41.8680 C   0  0  0  0  0  0  0  0  0  0  0  0
   48.8200   35.4550   40.7840 C   0  0  0  0  0  0  0  0  0  0  0  0
   48.4520   34.7350   39.6690 C   0  0  0  0  0  0  0  0  0  0  0  0
   47.2450   34.0620   39.6570 C   0  0  0  0  0  0  0  0  0  0  0  0
   46.8450   33.3840   38.5510 C   0  0  0  0  0  0  0  0  0  0  0  0
   45.6360   32.7610   38.4760 C   0  0  0  0  0  0  0  0  0  0  0  0
   44.8450   32.8550   39.5750 C   0  0  0  0  0  0  0  0  0  0  0  0
   45.2260   33.5280   40.7270 C   0  0  0  0  0  0  0  0  0  0  0  0
   46.4430   34.1370   40.7630 C   0  0  0  0  0  0  0  0  0  0  0  0
   44.1620   33.4620   41.7190 C   0  0  0  0  0  0  0  0  0  0  0  0
   42.9410   34.2710   41.3000 C   0  0  0  0  0  0  0  0  0  0  0  0
   41.9230   33.6370   40.4780 C   0  0  0  0  0  0  0  0  0  0  0  0
   41.4780   32.2650   40.8890 C   0  0  0  0  0  0  0  0  0  0  0  0
   42.2130   31.9310   42.1680 C   0  0  0  0  0  0  0  0  0  0  0  0
   43.6620   31.9830   41.8190 C   0  0  0  0  0  0  0  0  0  0  0  0
   44.9020   31.4540   49.4090 C   0  0  0  0  0  0  0  0  0  0  0  0
   43.7519   36.6292   45.0493 H   0  0  0  0  0  0  0  0  0  0  0  0
   44.8101   36.6984   42.8359 H   0  0  0  0  0  0  0  0  0  0  0  0
   44.4548   33.4340   47.5424 H   0  0  0  0  0  0  0  0  0  0  0  0
   48.1705   30.4726   46.3901 H   0  0  0  0  0  0  0  0  0  0  0  0
   48.2536   36.0548   42.7548 H   0  0  0  0  0  0  0  0  0  0  0  0
   49.7763   35.9976   40.8151 H   0  0  0  0  0  0  0  0  0  0  0  0
   49.1155   34.6958   38.7925 H   0  0  0  0  0  0  0  0  0  0  0  0
   47.5212   33.3360   37.6847 H   0  0  0  0  0  0  0  0  0  0  0  0
   45.3189   32.2131   37.5764 H   0  0  0  0  0  0  0  0  0  0  0  0
   43.8555   32.3751   39.5512 H   0  0  0  0  0  0  0  0  0  0  0  0
   44.5743   33.8517   42.6614 H   0  0  0  0  0  0  0  0  0  0  0  0
   42.4461   34.6086   42.2225 H   0  0  0  0  0  0  0  0  0  0  0  0
   43.3550   35.0550   40.6488 H   0  0  0  0  0  0  0  0  0  0  0  0
   42.3193   33.5653   39.4544 H   0  0  0  0  0  0  0  0  0  0  0  0
   41.0312   34.2721   40.5845 H   0  0  0  0  0  0  0  0  0  0  0  0
   40.3919   32.2557   41.0631 H   0  0  0  0  0  0  0  0  0  0  0  0
   41.6983   31.5272   40.1034 H   0  0  0  0  0  0  0  0  0  0  0  0
   41.9790   32.6685   42.9499 H   0  0  0  0  0  0  0  0  0  0  0  0
   41.9225   30.9453   42.5606 H   0  0  0  0  0  0  0  0  0  0  0  0
   43.8169   31.4847   40.8506 H   0  0  0  0  0  0  0  0  0  0  0  0
   44.2315   31.4733   42.6102 H   0  0  0  0  0  0  0  0  0  0  0  0
   45.5544   31.6791   50.2656 H   0  0  0  0  0  0  0  0  0  0  0  0
   44.0098   32.0962   49.4488 H   0  0  0  0  0  0  0  0  0  0  0  0
   44.5958   30.3982   49.4488 H   0  0  0  0  0  0  0  0  0  0  0  0
  1  6  2  0
  2  1  1  0
  3  2  2  0
  3  4  1  0
  4  5  2  0
  5  6  1  0
  5  7  1  0
  7  8  1  0
  8  9  2  0
  9 31  1  0
 10  9  1  0
 10 11  2  0
 12 10  1  0
 13  7  1  0
 13 12  1  0
 14 13  2  0
 15  3  1  0
 16 15  2  0
 17 16  1  0
 18 17  2  0
 19 18  1  0
 19 24  2  0
 20 19  1  0
 21 20  2  0
 21 22  1  0
 22 23  2  0
 23 24  1  0
 23 25  1  0
 24 15  1  0
 25 30  1  0
 26 25  1  0
 27 28  1  0
 27 26  1  0
 28 29  1  0
 30 29  1  0
  1 32  1  0
  2 33  1  0
  8 34  1  0
 12 35  1  0
 16 36  1  0
 17 37  1  0
 18 38  1  0
 20 39  1  0
 21 40  1  0
 22 41  1  0
 25 42  1  0
 26 43  1  0
 26 44  1  0
 27 45  1  0
 27 46  1  0
 28 47  1  0
 28 48  1  0
 29 49  1  0
 29 50  1  0
 30 51  1  0
 30 52  1  0
 31 53  1  0
 31 54  1  0
 31 55  1  0
M  ISO  8  32  14  33  14  34  14  35   9  36  14  37  14  38  14  39  14
M  ISO  8  40  14  41  14  42  13  43  13  44  13  45  13  46  13  47  13
M  ISO  8  48  13  49  13  50  13  51  13  52  13  53   8  54   8  55   8
M  END
>  <minimizedAffinity>  (1) 
-8.48173141

>  <minimizedRMSD>  (1) 
0.310376853

$$$$
