
     RDKit          3D

 33 36  0  0  1  0  0  0  0  0999 V2000
   45.7810   34.0390   41.3480 N   0  0  0  0  0  0  0  0  0  0  0  0
   44.9900   33.5810   40.3260 C   0  0  0  0  0  0  0  0  0  0  0  0
   45.7360   33.3360   39.2350 N   0  0  0  0  0  0  0  0  0  0  0  0
   47.0230   33.6470   39.5820 C   0  0  0  0  0  0  0  0  0  0  0  0
   46.9830   34.0570   40.8450 N   0  0  0  0  0  0  0  0  0  0  0  0
   45.0230   35.7670   42.8420 C   0  0  0  0  0  0  0  0  0  0  0  0
   45.4680   34.4260   42.6620 C   0  0  0  0  0  0  0  0  0  0  0  0
   45.5530   33.6270   43.7700 C   0  0  0  0  0  0  0  0  0  0  0  0
   45.2060   34.1640   44.9670 N   0  0  0  0  0  0  0  0  0  0  0  0
   44.7890   35.4310   45.1130 C   0  0  0  0  0  0  0  0  0  0  0  0
   44.7000   36.2330   44.0280 N   0  0  0  0  0  0  0  0  0  0  0  0
   48.2650   33.5760   38.7600 C   0  0  2  0  0  0  0  0  0  0  0  0
   48.4090   34.6730   37.6680 C   0  0  0  0  0  0  0  0  0  0  0  0
   48.1790   33.1870   37.3270 C   0  0  1  0  0  0  0  0  0  0  0  0
   49.2380   32.3730   36.7760 C   0  0  0  0  0  0  0  0  0  0  0  0
   50.1910   32.0400   37.5730 O   0  0  0  0  0  0  0  0  0  0  0  0
   49.2450   31.9630   35.4630 O   0  0  0  0  0  0  0  0  0  0  0  0
   48.6840   32.7420   34.4450 C   0  0  0  0  0  0  0  0  0  0  0  0
   47.9730   32.1470   33.2800 C   0  0  0  0  0  0  0  0  0  0  0  0
   49.3100   32.8560   33.1090 C   0  0  0  0  0  0  0  0  0  0  0  0
   43.9016   33.4351   40.3897 H   0  0  0  0  0  0  0  0  0  0  0  0
   44.9477   36.4292   41.9669 H   0  0  0  0  0  0  0  0  0  0  0  0
   45.8916   32.5833   43.6927 H   0  0  0  0  0  0  0  0  0  0  0  0
   44.5214   35.8146   46.1086 H   0  0  0  0  0  0  0  0  0  0  0  0
   48.8678   33.2046   39.6018 H   0  0  0  0  0  0  0  0  0  0  0  0
   47.6085   35.4109   37.5108 H   0  0  0  0  0  0  0  0  0  0  0  0
   49.1535   35.4399   37.4081 H   0  0  0  0  0  0  0  0  0  0  0  0
   47.4418   32.6678   36.6970 H   0  0  0  0  0  0  0  0  0  0  0  0
   48.4008   33.4608   35.2280 H   0  0  0  0  0  0  0  0  0  0  0  0
   47.9083   31.0544   33.1706 H   0  0  0  0  0  0  0  0  0  0  0  0
   46.9703   32.2461   32.8387 H   0  0  0  0  0  0  0  0  0  0  0  0
   50.2150   32.2771   32.8727 H   0  0  0  0  0  0  0  0  0  0  0  0
   49.6808   33.6850   32.4883 H   0  0  0  0  0  0  0  0  0  0  0  0
  1  7  1  0
  2  1  1  0
  3  4  1  0
  3  2  2  0
  4  5  2  0
  5  1  1  0
  6 11  2  0
  7  6  1  0
  7  8  2  0
  8  9  1  0
  9 10  2  0
 11 10  1  0
 12  4  1  0
 13 12  1  0
 14 13  1  0
 14 12  1  0
 15 14  1  0
 15 16  2  0
 17 15  1  0
 18 17  1  0
 19 18  1  0
 20 19  1  0
 20 18  1  0
  2 21  1  0
  6 22  1  0
  8 23  1  0
 10 24  1  0
 12 25  1  1
 13 26  1  0
 13 27  1  0
 14 28  1  1
 18 29  1  0
 19 30  1  0
 19 31  1  0
 20 32  1  0
 20 33  1  0
M  ISO  8  21  14  22  14  23  14  24  14  25  13  26  13  27  13  28  13
M  ISO  5  29  13  30  13  31  13  32  13  33  13
M  END
>  <minimizedAffinity>  (1) 
-4.55882072

>  <minimizedRMSD>  (1) 
2.18273211

$$$$
