
     RDKit          3D

 32 35  0  0  1  0  0  0  0  0999 V2000
   48.1790   33.3980   39.1690 C   0  0  2  0  0  0  0  0  0  0  0  0
   48.3030   34.2310   37.8600 C   0  0  0  0  0  0  0  0  0  0  0  0
   48.1130   32.7020   37.8570 C   0  0  1  0  0  0  0  0  0  0  0  0
   45.7040   34.0720   41.7020 N   0  0  0  0  0  0  0  0  0  0  0  0
   44.8900   33.8360   40.6340 C   0  0  0  0  0  0  0  0  0  0  0  0
   45.6320   33.5540   39.5510 N   0  0  0  0  0  0  0  0  0  0  0  0
   46.9380   33.6160   39.9570 C   0  0  0  0  0  0  0  0  0  0  0  0
   46.9180   33.9290   41.2490 N   0  0  0  0  0  0  0  0  0  0  0  0
   44.7920   35.6830   43.2550 C   0  0  0  0  0  0  0  0  0  0  0  0
   45.3980   34.4090   43.0460 C   0  0  0  0  0  0  0  0  0  0  0  0
   45.6280   33.6330   44.1450 C   0  0  0  0  0  0  0  0  0  0  0  0
   45.2650   34.1290   45.3530 N   0  0  0  0  0  0  0  0  0  0  0  0
   44.7050   35.3130   45.5280 C   0  0  0  0  0  0  0  0  0  0  0  0
   44.4640   36.1030   44.4630 N   0  0  0  0  0  0  0  0  0  0  0  0
   49.1980   31.8150   37.4980 C   0  0  0  0  0  0  0  0  0  0  0  0
   48.8860   30.5920   37.2400 O   0  0  0  0  0  0  0  0  0  0  0  0
   50.5060   32.2420   37.4340 O   0  0  0  0  0  0  0  0  0  0  0  0
   51.4850   31.7760   38.3240 C   0  0  0  0  0  0  0  0  0  0  0  0
   51.2870   31.3950   39.7060 C   0  0  0  0  0  0  0  0  0  0  0  0
   52.9980   30.9270   40.1240 S   0  0  0  0  0  0  0  0  0  0  0  0
   53.6660   31.3220   38.3860 C   0  0  0  0  0  0  0  0  0  0  0  0
   52.6320   31.7440   37.6780 N   0  0  0  0  0  0  0  0  0  0  0  0
   48.7848   33.2361   40.0728 H   0  0  0  0  0  0  0  0  0  0  0  0
   47.4853   34.8947   37.5424 H   0  0  0  0  0  0  0  0  0  0  0  0
   49.0296   34.9406   37.4375 H   0  0  0  0  0  0  0  0  0  0  0  0
   47.3929   32.0371   37.3577 H   0  0  0  0  0  0  0  0  0  0  0  0
   43.7908   33.8713   40.6562 H   0  0  0  0  0  0  0  0  0  0  0  0
   44.5931   36.3313   42.3889 H   0  0  0  0  0  0  0  0  0  0  0  0
   46.0918   32.6397   44.0535 H   0  0  0  0  0  0  0  0  0  0  0  0
   44.4365   35.6526   46.5392 H   0  0  0  0  0  0  0  0  0  0  0  0
   50.3751   31.3895   40.3211 H   0  0  0  0  0  0  0  0  0  0  0  0
   54.7050   31.2196   38.0396 H   0  0  0  0  0  0  0  0  0  0  0  0
  1  7  1  0
  2  1  1  0
  3  2  1  0
  3  1  1  0
  4 10  1  0
  5  4  1  0
  6  7  1  0
  6  5  2  0
  7  8  2  0
  8  4  1  0
  9 14  2  0
 10  9  1  0
 10 11  2  0
 11 12  1  0
 12 13  2  0
 14 13  1  0
 15  3  1  0
 16 15  2  0
 17 15  1  0
 17 18  1  0
 18 19  2  0
 19 20  1  0
 21 20  1  0
 22 18  1  0
 22 21  2  0
  1 23  1  1
  2 24  1  0
  2 25  1  0
  3 26  1  6
  5 27  1  0
  9 28  1  0
 11 29  1  0
 13 30  1  0
 19 31  1  0
 21 32  1  0
M  ISO  8  23  13  24  13  25  13  26  13  27  14  28  14  29  14  30  14
M  ISO  2  31  14  32  14
M  END
>  <minimizedAffinity>  (1) 
-4.52454615

>  <minimizedRMSD>  (1) 
1.34180248

$$$$
