
     RDKit          3D

 34 37  0  0  1  0  0  0  0  0999 V2000
   43.1750   34.7090   41.5200 C   0  0  2  0  0  0  0  0  0  0  0  0
   42.9560   35.1160   40.0670 C   0  0  0  0  0  0  0  0  0  0  0  0
   41.9400   35.3950   41.1570 C   0  0  1  0  0  0  0  0  0  0  0  0
   40.7050   34.5600   41.0030 C   0  0  0  0  0  0  0  0  0  0  0  0
   39.9540   33.8100   41.8870 C   0  0  0  0  0  0  0  0  0  0  0  0
   38.9300   33.2510   41.2150 N   0  0  0  0  0  0  0  0  0  0  0  0
   39.0100   33.6280   39.9200 C   0  0  0  0  0  0  0  0  0  0  0  0
   38.1650   33.2890   38.8710 C   0  0  0  0  0  0  0  0  0  0  0  0
   38.4770   33.8160   37.6320 C   0  0  0  0  0  0  0  0  0  0  0  0
   39.5570   34.6320   37.4240 C   0  0  0  0  0  0  0  0  0  0  0  0
   40.3810   34.9530   38.4850 C   0  0  0  0  0  0  0  0  0  0  0  0
   40.0970   34.4390   39.7500 C   0  0  0  0  0  0  0  0  0  0  0  0
   44.3150   35.4290   42.1980 C   0  0  0  0  0  0  0  0  0  0  0  0
   44.3690   35.6180   44.6620 C   0  0  0  0  0  0  0  0  0  0  0  0
   44.7010   34.9050   43.5030 C   0  0  0  0  0  0  0  0  0  0  0  0
   45.4040   33.6930   43.6410 C   0  0  0  0  0  0  0  0  0  0  0  0
   45.7270   33.2720   44.8920 N   0  0  0  0  0  0  0  0  0  0  0  0
   45.3850   33.9960   45.9880 C   0  0  0  0  0  0  0  0  0  0  0  0
   44.7180   35.1480   45.8810 N   0  0  0  0  0  0  0  0  0  0  0  0
   43.3535   33.7864   42.0918 H   0  0  0  0  0  0  0  0  0  0  0  0
   42.7547   34.3544   39.2993 H   0  0  0  0  0  0  0  0  0  0  0  0
   43.5007   35.7111   39.3193 H   0  0  0  0  0  0  0  0  0  0  0  0
   41.4348   36.2783   41.5747 H   0  0  0  0  0  0  0  0  0  0  0  0
   40.1585   33.6895   42.9611 H   0  0  0  0  0  0  0  0  0  0  0  0
   38.2073   32.6390   41.6199 H   0  0  0  0  0  0  0  0  0  0  0  0
   37.2929   32.6351   39.0187 H   0  0  0  0  0  0  0  0  0  0  0  0
   37.8305   33.5696   36.7768 H   0  0  0  0  0  0  0  0  0  0  0  0
   39.7666   35.0287   36.4197 H   0  0  0  0  0  0  0  0  0  0  0  0
   41.2522   35.6073   38.3338 H   0  0  0  0  0  0  0  0  0  0  0  0
   45.1925   35.3724   41.5370 H   0  0  0  0  0  0  0  0  0  0  0  0
   43.9603   36.4547   42.3773 H   0  0  0  0  0  0  0  0  0  0  0  0
   43.8201   36.5677   44.5800 H   0  0  0  0  0  0  0  0  0  0  0  0
   45.6850   33.1011   42.7574 H   0  0  0  0  0  0  0  0  0  0  0  0
   45.6632   33.6259   46.9858 H   0  0  0  0  0  0  0  0  0  0  0  0
  1 13  1  0
  2  3  1  0
  2  1  1  0
  3  1  1  0
  4  3  1  0
  4  5  2  0
  6  5  1  0
  7  6  1  0
  8  7  2  0
  9  8  1  0
 10  9  2  0
 10 11  1  0
 11 12  2  0
 12  7  1  0
 12  4  1  0
 13 15  1  0
 14 19  2  0
 15 16  2  0
 15 14  1  0
 16 17  1  0
 17 18  2  0
 19 18  1  0
  1 20  1  6
  2 21  1  0
  2 22  1  0
  3 23  1  1
  5 24  1  0
  6 25  1  0
  8 26  1  0
  9 27  1  0
 10 28  1  0
 11 29  1  0
 13 30  1  0
 13 31  1  0
 14 32  1  0
 16 33  1  0
 18 34  1  0
M  ISO  8  20  13  21  13  22  13  23  13  24  14  25   9  26  14  27  14
M  ISO  7  28  14  29  14  30   8  31   8  32  14  33  14  34  14
M  END
>  <minimizedAffinity>  (1) 
-6.55813837

>  <minimizedRMSD>  (1) 
0.716908753

$$$$
