
     RDKit          3D

 28 30  0  0  1  0  0  0  0  0999 V2000
   42.9540   34.7600   41.1040 C   0  0  2  0  0  0  0  0  0  0  0  0
   42.7160   35.1970   39.6570 C   0  0  0  0  0  0  0  0  0  0  0  0
   41.6460   35.2980   40.6950 C   0  0  1  0  0  0  0  0  0  0  0  0
   40.5130   34.3570   40.7060 C   0  0  0  0  0  0  0  0  0  0  0  0
   39.3940   34.5400   39.9190 C   0  0  0  0  0  0  0  0  0  0  0  0
   38.3350   33.6370   39.9480 C   0  0  0  0  0  0  0  0  0  0  0  0
   38.3900   32.5440   40.7620 N   0  0  0  0  0  0  0  0  0  0  0  0
   39.5020   32.3750   41.5330 C   0  0  0  0  0  0  0  0  0  0  0  0
   40.5140   33.2500   41.4990 N   0  0  0  0  0  0  0  0  0  0  0  0
   43.9420   35.6190   41.8490 C   0  0  0  0  0  0  0  0  0  0  0  0
   44.3660   35.7880   44.2860 C   0  0  0  0  0  0  0  0  0  0  0  0
   44.4520   35.0430   43.0960 C   0  0  0  0  0  0  0  0  0  0  0  0
   45.0240   33.7560   43.1150 C   0  0  0  0  0  0  0  0  0  0  0  0
   45.4740   33.2910   44.3140 N   0  0  0  0  0  0  0  0  0  0  0  0
   45.3750   34.0400   45.4450 C   0  0  0  0  0  0  0  0  0  0  0  0
   44.8310   35.2670   45.4370 N   0  0  0  0  0  0  0  0  0  0  0  0
   43.2436   33.8487   41.6478 H   0  0  0  0  0  0  0  0  0  0  0  0
   42.6427   34.4468   38.8558 H   0  0  0  0  0  0  0  0  0  0  0  0
   43.1996   35.8909   38.9538 H   0  0  0  0  0  0  0  0  0  0  0  0
   40.9986   36.1288   41.0123 H   0  0  0  0  0  0  0  0  0  0  0  0
   39.3380   35.4161   39.2562 H   0  0  0  0  0  0  0  0  0  0  0  0
   37.4524   33.8052   39.3134 H   0  0  0  0  0  0  0  0  0  0  0  0
   39.5686   31.5007   42.1972 H   0  0  0  0  0  0  0  0  0  0  0  0
   44.7988   35.8065   41.1851 H   0  0  0  0  0  0  0  0  0  0  0  0
   43.3993   36.5325   42.1336 H   0  0  0  0  0  0  0  0  0  0  0  0
   43.9201   36.7935   44.2762 H   0  0  0  0  0  0  0  0  0  0  0  0
   45.1041   33.1513   42.1996 H   0  0  0  0  0  0  0  0  0  0  0  0
   45.7514   33.6285   46.3931 H   0  0  0  0  0  0  0  0  0  0  0  0
  1 10  1  0
  2  3  1  0
  2  1  1  0
  3  4  1  0
  3  1  1  0
  4  9  2  0
  5  6  2  0
  5  4  1  0
  6  7  1  0
  7  8  2  0
  9  8  1  0
 10 12  1  0
 11 16  2  0
 12 13  2  0
 12 11  1  0
 13 14  1  0
 14 15  2  0
 16 15  1  0
  1 17  1  6
  2 18  1  0
  2 19  1  0
  3 20  1  1
  5 21  1  0
  6 22  1  0
  8 23  1  0
 10 24  1  0
 10 25  1  0
 11 26  1  0
 13 27  1  0
 15 28  1  0
M  ISO  8  17  13  18  13  19  13  20  13  21  14  22  14  23  14  24   8
M  ISO  4  25   8  26  14  27  14  28  14
M  END
>  <minimizedAffinity>  (1) 
-5.06042433

>  <minimizedRMSD>  (1) 
0.812775552

$$$$
