
     RDKit          3D

 33 35  0  0  1  0  0  0  0  0999 V2000
   42.8360   34.8250   41.2660 C   0  0  2  0  0  0  0  0  0  0  0  0
   42.5480   35.1840   39.8040 C   0  0  0  0  0  0  0  0  0  0  0  0
   41.6130   35.5320   40.9290 C   0  0  1  0  0  0  0  0  0  0  0  0
   40.3510   34.8640   40.8540 N   0  0  0  0  0  0  0  0  0  0  0  0
   40.2790   33.6740   41.6670 C   0  0  0  0  0  0  0  0  0  0  0  0
   39.3000   32.6520   41.2230 C   0  0  0  0  0  0  0  0  0  0  0  0
   38.2590   33.0920   40.4670 O   0  0  0  0  0  0  0  0  0  0  0  0
   38.4780   34.1300   39.6140 C   0  0  0  0  0  0  0  0  0  0  0  0
   39.8960   34.6100   39.5090 C   0  0  0  0  0  0  0  0  0  0  0  0
   44.0440   35.5120   41.8290 C   0  0  0  0  0  0  0  0  0  0  0  0
   44.3050   35.7970   44.2650 C   0  0  0  0  0  0  0  0  0  0  0  0
   44.4970   35.0160   43.1190 C   0  0  0  0  0  0  0  0  0  0  0  0
   45.1270   33.7690   43.2650 C   0  0  0  0  0  0  0  0  0  0  0  0
   45.5250   33.3710   44.5140 N   0  0  0  0  0  0  0  0  0  0  0  0
   45.3130   34.1670   45.5810 C   0  0  0  0  0  0  0  0  0  0  0  0
   44.7180   35.3590   45.4840 N   0  0  0  0  0  0  0  0  0  0  0  0
   43.0064   33.9294   41.8815 H   0  0  0  0  0  0  0  0  0  0  0  0
   42.2815   34.4005   39.0794 H   0  0  0  0  0  0  0  0  0  0  0  0
   43.0666   35.7324   39.0038 H   0  0  0  0  0  0  0  0  0  0  0  0
   41.1682   36.4391   41.3641 H   0  0  0  0  0  0  0  0  0  0  0  0
   41.2753   33.2078   41.6733 H   0  0  0  0  0  0  0  0  0  0  0  0
   39.9372   34.0072   42.6580 H   0  0  0  0  0  0  0  0  0  0  0  0
   39.8462   31.9010   40.6334 H   0  0  0  0  0  0  0  0  0  0  0  0
   38.8441   32.2673   42.1472 H   0  0  0  0  0  0  0  0  0  0  0  0
   38.1547   33.8147   38.6110 H   0  0  0  0  0  0  0  0  0  0  0  0
   37.9092   34.9764   40.0263 H   0  0  0  0  0  0  0  0  0  0  0  0
   40.5226   33.8392   39.0365 H   0  0  0  0  0  0  0  0  0  0  0  0
   39.9603   35.5187   38.8925 H   0  0  0  0  0  0  0  0  0  0  0  0
   44.8684   35.3926   41.1106 H   0  0  0  0  0  0  0  0  0  0  0  0
   43.7495   36.5592   41.9924 H   0  0  0  0  0  0  0  0  0  0  0  0
   43.8138   36.7774   44.1780 H   0  0  0  0  0  0  0  0  0  0  0  0
   45.2979   33.1230   42.3912 H   0  0  0  0  0  0  0  0  0  0  0  0
   45.6433   33.8210   46.5715 H   0  0  0  0  0  0  0  0  0  0  0  0
  1 10  1  0
  2  3  1  0
  2  1  1  0
  3  1  1  0
  4  3  1  0
  4  5  1  0
  6  5  1  0
  7  6  1  0
  8  7  1  0
  9  8  1  0
  9  4  1  0
 10 12  1  0
 11 16  2  0
 12 13  2  0
 12 11  1  0
 13 14  1  0
 14 15  2  0
 16 15  1  0
  1 17  1  6
  2 18  1  0
  2 19  1  0
  3 20  1  1
  5 21  1  0
  5 22  1  0
  6 23  1  0
  6 24  1  0
  8 25  1  0
  8 26  1  0
  9 27  1  0
  9 28  1  0
 10 29  1  0
 10 30  1  0
 11 31  1  0
 13 32  1  0
 15 33  1  0
M  ISO  8  17  13  18  13  19  13  20  13  21  13  22  13  23  13  24  13
M  ISO  8  25  13  26  13  27  13  28  13  29   8  30   8  31  14  32  14
M  ISO  1  33  14
M  END
>  <minimizedAffinity>  (1) 
-4.91699743

>  <minimizedRMSD>  (1) 
0.143472999

$$$$
