
     RDKit          3D

 27 29  0  0  1  0  0  0  0  0999 V2000
   42.5890   34.8800   40.8570 C   0  0  2  0  0  0  0  0  0  0  0  0
   42.4700   35.1160   39.3610 C   0  0  0  0  0  0  0  0  0  0  0  0
   41.3570   35.4620   40.3010 C   0  0  1  0  0  0  0  0  0  0  0  0
   40.1330   34.6200   40.3710 C   0  0  0  0  0  0  0  0  0  0  0  0
   39.1420   34.5030   39.3910 C   0  0  0  0  0  0  0  0  0  0  0  0
   38.2080   33.6160   39.8930 C   0  0  0  0  0  0  0  0  0  0  0  0
   38.6190   33.2220   41.1130 N   0  0  0  0  0  0  0  0  0  0  0  0
   39.7620   33.8260   41.3820 N   0  0  0  0  0  0  0  0  0  0  0  0
   43.6190   35.7090   41.5540 C   0  0  0  0  0  0  0  0  0  0  0  0
   44.3440   35.8450   43.9280 C   0  0  0  0  0  0  0  0  0  0  0  0
   44.2310   35.0930   42.7320 C   0  0  0  0  0  0  0  0  0  0  0  0
   44.7090   33.7810   42.7190 C   0  0  0  0  0  0  0  0  0  0  0  0
   45.2710   33.2670   43.8560 N   0  0  0  0  0  0  0  0  0  0  0  0
   45.3600   34.0160   44.9720 C   0  0  0  0  0  0  0  0  0  0  0  0
   44.9080   35.2790   45.0150 N   0  0  0  0  0  0  0  0  0  0  0  0
   42.7618   34.0361   41.5411 H   0  0  0  0  0  0  0  0  0  0  0  0
   42.3691   34.2647   38.6717 H   0  0  0  0  0  0  0  0  0  0  0  0
   43.0539   35.6548   38.6002 H   0  0  0  0  0  0  0  0  0  0  0  0
   40.7732   36.3811   40.4574 H   0  0  0  0  0  0  0  0  0  0  0  0
   39.1119   35.0137   38.4172 H   0  0  0  0  0  0  0  0  0  0  0  0
   37.2891   33.2891   39.3843 H   0  0  0  0  0  0  0  0  0  0  0  0
   38.1259   32.5620   41.7312 H   0  0  0  0  0  0  0  0  0  0  0  0
   44.4196   35.9315   40.8332 H   0  0  0  0  0  0  0  0  0  0  0  0
   43.0913   36.6022   41.9197 H   0  0  0  0  0  0  0  0  0  0  0  0
   43.9753   36.8805   43.9696 H   0  0  0  0  0  0  0  0  0  0  0  0
   44.6349   33.1693   41.8078 H   0  0  0  0  0  0  0  0  0  0  0  0
   45.8159   33.5803   45.8733 H   0  0  0  0  0  0  0  0  0  0  0  0
  1  9  1  0
  2  3  1  0
  2  1  1  0
  3  4  1  0
  3  1  1  0
  4  8  2  0
  5  6  2  0
  5  4  1  0
  6  7  1  0
  7  8  1  0
  9 11  1  0
 10 15  2  0
 11 10  1  0
 12 11  2  0
 12 13  1  0
 13 14  2  0
 14 15  1  0
  1 16  1  6
  2 17  1  0
  2 18  1  0
  3 19  1  1
  5 20  1  0
  6 21  1  0
  7 22  1  0
  9 23  1  0
  9 24  1  0
 10 25  1  0
 12 26  1  0
 14 27  1  0
M  ISO  8  16  13  17  13  18  13  19  13  20  14  21  14  22   9  23   8
M  ISO  4  24   8  25  14  26  14  27  14
M  END
>  <minimizedAffinity>  (1) 
-5.07933903

>  <minimizedRMSD>  (1) 
0.915400803

$$$$
