
     RDKit          3D

 27 29  0  0  1  0  0  0  0  0999 V2000
   42.7370   34.8630   41.0070 C   0  0  2  0  0  0  0  0  0  0  0  0
   42.7080   35.0730   39.4930 C   0  0  0  0  0  0  0  0  0  0  0  0
   41.5490   35.4460   40.3620 C   0  0  1  0  0  0  0  0  0  0  0  0
   40.3480   34.5690   40.4320 C   0  0  0  0  0  0  0  0  0  0  0  0
   39.2880   34.6590   39.5190 C   0  0  0  0  0  0  0  0  0  0  0  0
   38.3490   33.7050   39.8740 C   0  0  0  0  0  0  0  0  0  0  0  0
   38.8780   33.0740   40.9880 C   0  0  0  0  0  0  0  0  0  0  0  0
   40.0410   33.6130   41.2720 O   0  0  0  0  0  0  0  0  0  0  0  0
   43.7510   35.7100   41.7320 C   0  0  0  0  0  0  0  0  0  0  0  0
   44.3080   35.8500   44.1350 C   0  0  0  0  0  0  0  0  0  0  0  0
   44.3100   35.1170   42.9380 C   0  0  0  0  0  0  0  0  0  0  0  0
   44.8520   33.8350   42.9490 C   0  0  0  0  0  0  0  0  0  0  0  0
   45.3570   33.3450   44.1220 N   0  0  0  0  0  0  0  0  0  0  0  0
   45.3380   34.0800   45.2550 C   0  0  0  0  0  0  0  0  0  0  0  0
   44.8250   35.3180   45.2800 N   0  0  0  0  0  0  0  0  0  0  0  0
   42.8526   34.0356   41.7226 H   0  0  0  0  0  0  0  0  0  0  0  0
   42.6376   34.2101   38.8144 H   0  0  0  0  0  0  0  0  0  0  0  0
   43.3402   35.5915   38.7571 H   0  0  0  0  0  0  0  0  0  0  0  0
   40.9653   36.3756   40.4341 H   0  0  0  0  0  0  0  0  0  0  0  0
   39.2153   35.3599   38.6743 H   0  0  0  0  0  0  0  0  0  0  0  0
   37.3900   33.4938   39.3783 H   0  0  0  0  0  0  0  0  0  0  0  0
   38.4008   32.2540   41.5446 H   0  0  0  0  0  0  0  0  0  0  0  0
   44.5800   35.9152   41.0387 H   0  0  0  0  0  0  0  0  0  0  0  0
   43.2146   36.6133   42.0582 H   0  0  0  0  0  0  0  0  0  0  0  0
   43.8847   36.8652   44.1501 H   0  0  0  0  0  0  0  0  0  0  0  0
   44.8738   33.2276   42.0321 H   0  0  0  0  0  0  0  0  0  0  0  0
   45.7535   33.6523   46.1794 H   0  0  0  0  0  0  0  0  0  0  0  0
  1  9  1  0
  2  3  1  0
  2  1  1  0
  3  4  1  0
  3  1  1  0
  4  8  1  0
  5  6  1  0
  5  4  2  0
  6  7  2  0
  7  8  1  0
  9 11  1  0
 10 15  2  0
 11 12  2  0
 11 10  1  0
 12 13  1  0
 13 14  2  0
 14 15  1  0
  1 16  1  6
  2 17  1  0
  2 18  1  0
  3 19  1  1
  5 20  1  0
  6 21  1  0
  7 22  1  0
  9 23  1  0
  9 24  1  0
 10 25  1  0
 12 26  1  0
 14 27  1  0
M  ISO  8  16  13  17  13  18  13  19  13  20  14  21  14  22  14  23   8
M  ISO  4  24   8  25  14  26  14  27  14
M  END
>  <minimizedAffinity>  (1) 
-4.90618038

>  <minimizedRMSD>  (1) 
0.808741987

$$$$
