
     RDKit          3D

 27 29  0  0  1  0  0  0  0  0999 V2000
   43.0740   34.7300   41.2740 C   0  0  2  0  0  0  0  0  0  0  0  0
   42.6860   35.2740   39.8980 C   0  0  0  0  0  0  0  0  0  0  0  0
   41.7260   35.2770   41.0420 C   0  0  1  0  0  0  0  0  0  0  0  0
   40.6040   34.3000   41.0680 C   0  0  0  0  0  0  0  0  0  0  0  0
   39.4690   34.3930   40.2670 C   0  0  0  0  0  0  0  0  0  0  0  0
   38.7020   33.3330   40.5850 N   0  0  0  0  0  0  0  0  0  0  0  0
   39.2960   32.5950   41.5320 C   0  0  0  0  0  0  0  0  0  0  0  0
   40.4830   33.1930   41.8370 N   0  0  0  0  0  0  0  0  0  0  0  0
   44.1290   35.5320   41.9800 C   0  0  0  0  0  0  0  0  0  0  0  0
   44.3350   35.7440   44.4300 C   0  0  0  0  0  0  0  0  0  0  0  0
   44.5700   34.9930   43.2570 C   0  0  0  0  0  0  0  0  0  0  0  0
   45.2140   33.7630   43.3760 C   0  0  0  0  0  0  0  0  0  0  0  0
   45.5880   33.3410   44.6130 N   0  0  0  0  0  0  0  0  0  0  0  0
   45.3450   34.0920   45.7120 C   0  0  0  0  0  0  0  0  0  0  0  0
   44.7240   35.2880   45.6450 N   0  0  0  0  0  0  0  0  0  0  0  0
   43.4235   33.7844   41.7141 H   0  0  0  0  0  0  0  0  0  0  0  0
   42.5381   34.5872   39.0516 H   0  0  0  0  0  0  0  0  0  0  0  0
   43.0899   36.0284   39.2068 H   0  0  0  0  0  0  0  0  0  0  0  0
   41.1094   36.0671   41.4954 H   0  0  0  0  0  0  0  0  0  0  0  0
   39.2445   35.1736   39.5252 H   0  0  0  0  0  0  0  0  0  0  0  0
   38.8983   31.6735   41.9821 H   0  0  0  0  0  0  0  0  0  0  0  0
   41.1675   32.8604   42.5311 H   0  0  0  0  0  0  0  0  0  0  0  0
   45.0052   35.5978   41.3183 H   0  0  0  0  0  0  0  0  0  0  0  0
   43.6708   36.5067   42.2036 H   0  0  0  0  0  0  0  0  0  0  0  0
   43.8269   36.7168   44.3556 H   0  0  0  0  0  0  0  0  0  0  0  0
   45.4155   33.1464   42.4876 H   0  0  0  0  0  0  0  0  0  0  0  0
   45.6649   33.7143   46.6944 H   0  0  0  0  0  0  0  0  0  0  0  0
  1  9  1  0
  2  3  1  0
  2  1  1  0
  3  4  1  0
  3  1  1  0
  4  8  1  0
  5  6  1  0
  5  4  2  0
  6  7  2  0
  7  8  1  0
  9 11  1  0
 10 15  2  0
 11 12  2  0
 11 10  1  0
 12 13  1  0
 13 14  2  0
 15 14  1  0
  1 16  1  6
  2 17  1  0
  2 18  1  0
  3 19  1  1
  5 20  1  0
  7 21  1  0
  8 22  1  0
  9 23  1  0
  9 24  1  0
 10 25  1  0
 12 26  1  0
 14 27  1  0
M  ISO  8  16  13  17  13  18  13  19  13  20  14  21  14  22   9  23   8
M  ISO  4  24   8  25  14  26  14  27  14
M  END
>  <minimizedAffinity>  (1) 
-4.76644754

>  <minimizedRMSD>  (1) 
0.559148848

$$$$
