
     RDKit          3D

 23 24  0  0  1  0  0  0  0  0999 V2000
   43.3500   35.6220   41.3230 C   0  0  0  0  0  0  0  0  0  0  0  0
   44.3250   35.7630   43.5890 C   0  0  0  0  0  0  0  0  0  0  0  0
   44.0390   34.9980   42.4450 C   0  0  0  0  0  0  0  0  0  0  0  0
   44.4270   33.6510   42.4180 C   0  0  0  0  0  0  0  0  0  0  0  0
   45.0720   33.1260   43.5080 N   0  0  0  0  0  0  0  0  0  0  0  0
   45.3250   33.9060   44.5900 C   0  0  0  0  0  0  0  0  0  0  0  0
   44.9660   35.1980   44.6420 N   0  0  0  0  0  0  0  0  0  0  0  0
   42.7980   34.6610   40.3100 C   0  0  2  0  0  0  0  0  0  0  0  0
   42.2280   35.3260   39.0540 C   0  0  0  0  0  0  0  0  0  0  0  0
   41.3840   34.5180   40.0000 C   0  0  2  0  0  0  0  0  0  0  0  0
   40.2860   35.3020   40.6420 C   0  0  0  0  0  0  0  0  0  0  0  0
   39.0370   35.0090   40.0880 F   0  0  0  0  0  0  0  0  0  0  0  0
   40.1770   34.8870   41.9580 F   0  0  0  0  0  0  0  0  0  0  0  0
   40.5170   36.6650   40.6920 F   0  0  0  0  0  0  0  0  0  0  0  0
   42.5145   36.2160   41.7220 H   0  0  0  0  0  0  0  0  0  0  0  0
   44.1016   36.2289   40.7968 H   0  0  0  0  0  0  0  0  0  0  0  0
   44.0284   36.8215   43.6302 H   0  0  0  0  0  0  0  0  0  0  0  0
   44.2175   33.0261   41.5373 H   0  0  0  0  0  0  0  0  0  0  0  0
   45.8423   33.4635   45.4541 H   0  0  0  0  0  0  0  0  0  0  0  0
   43.5511   33.9084   40.5866 H   0  0  0  0  0  0  0  0  0  0  0  0
   42.4753   34.9359   38.0557 H   0  0  0  0  0  0  0  0  0  0  0  0
   42.2006   36.3440   38.6381 H   0  0  0  0  0  0  0  0  0  0  0  0
   40.7604   33.6119   39.9894 H   0  0  0  0  0  0  0  0  0  0  0  0
  1  3  1  0
  2  7  2  0
  3  2  1  0
  4  3  2  0
  4  5  1  0
  5  6  2  0
  6  7  1  0
  8  1  1  0
  9 10  1  0
  9  8  1  0
 10  8  1  0
 10 11  1  0
 11 14  1  0
 11 13  1  0
 12 11  1  0
  1 15  1  0
  1 16  1  0
  2 17  1  0
  4 18  1  0
  6 19  1  0
  8 20  1  6
  9 21  1  0
  9 22  1  0
 10 23  1  6
M  ISO  8  15   8  16   8  17  14  18  14  19  14  20  13  21  13  22  13
M  ISO  1  23  13
M  END
>  <minimizedAffinity>  (1) 
-4.53273201

>  <minimizedRMSD>  (1) 
1.57369173

$$$$
