
     RDKit          3D

 32 33  0  0  1  0  0  0  0  0999 V2000
   44.2810   35.3660   41.8500 C   0  0  0  0  0  0  0  0  0  0  0  0
   44.3560   35.7400   44.2550 C   0  0  0  0  0  0  0  0  0  0  0  0
   44.6470   34.9060   43.1670 C   0  0  0  0  0  0  0  0  0  0  0  0
   45.2730   33.6920   43.4280 C   0  0  0  0  0  0  0  0  0  0  0  0
   45.5730   33.3710   44.7130 N   0  0  0  0  0  0  0  0  0  0  0  0
   45.2840   34.1910   45.7360 C   0  0  0  0  0  0  0  0  0  0  0  0
   44.6720   35.3850   45.5370 N   0  0  0  0  0  0  0  0  0  0  0  0
   43.0720   34.6850   41.2450 C   0  0  2  0  0  0  0  0  0  0  0  0
   43.3040   34.0910   39.8560 C   0  0  0  0  0  0  0  0  0  0  0  0
   42.4170   35.2760   40.0790 C   0  0  1  0  0  0  0  0  0  0  0  0
   40.9380   35.2130   39.8890 C   0  0  0  0  0  0  0  0  0  0  0  0
   40.6960   35.2500   38.3780 C   0  0  0  0  0  0  0  0  0  0  0  0
   40.1730   36.3300   40.5530 C   0  0  0  0  0  0  0  0  0  0  0  0
   40.3850   33.8870   40.3740 C   0  0  0  0  0  0  0  0  0  0  0  0
   44.0696   36.4437   41.9120 H   0  0  0  0  0  0  0  0  0  0  0  0
   45.1298   35.1231   41.1938 H   0  0  0  0  0  0  0  0  0  0  0  0
   43.8606   36.7051   44.0729 H   0  0  0  0  0  0  0  0  0  0  0  0
   45.5211   33.0031   42.6071 H   0  0  0  0  0  0  0  0  0  0  0  0
   45.5497   33.8875   46.7594 H   0  0  0  0  0  0  0  0  0  0  0  0
   42.6973   34.3380   42.2193 H   0  0  0  0  0  0  0  0  0  0  0  0
   42.8718   33.1153   39.5892 H   0  0  0  0  0  0  0  0  0  0  0  0
   44.1790   33.8654   39.2287 H   0  0  0  0  0  0  0  0  0  0  0  0
   42.3764   36.2891   39.6525 H   0  0  0  0  0  0  0  0  0  0  0  0
   39.6260   35.4136   38.1819 H   0  0  0  0  0  0  0  0  0  0  0  0
   41.2798   36.0693   37.9331 H   0  0  0  0  0  0  0  0  0  0  0  0
   41.0083   34.2937   37.9331 H   0  0  0  0  0  0  0  0  0  0  0  0
   40.2450   36.2248   41.6456 H   0  0  0  0  0  0  0  0  0  0  0  0
   40.5990   37.2975   40.2489 H   0  0  0  0  0  0  0  0  0  0  0  0
   39.1169   36.2825   40.2489 H   0  0  0  0  0  0  0  0  0  0  0  0
   40.3790   33.8725   41.4739 H   0  0  0  0  0  0  0  0  0  0  0  0
   39.3585   33.7590   40.0000 H   0  0  0  0  0  0  0  0  0  0  0  0
   41.0164   33.0676   40.0000 H   0  0  0  0  0  0  0  0  0  0  0  0
  1  3  1  0
  2  7  2  0
  3  4  2  0
  3  2  1  0
  4  5  1  0
  5  6  2  0
  7  6  1  0
  8  1  1  0
  9 10  1  0
  9  8  1  0
 10  8  1  0
 11 10  1  0
 11 14  1  0
 11 13  1  0
 12 11  1  0
  1 15  1  0
  1 16  1  0
  2 17  1  0
  4 18  1  0
  6 19  1  0
  8 20  1  1
  9 21  1  0
  9 22  1  0
 10 23  1  6
 12 24  1  0
 12 25  1  0
 12 26  1  0
 13 27  1  0
 13 28  1  0
 13 29  1  0
 14 30  1  0
 14 31  1  0
 14 32  1  0
M  ISO  8  15   8  16   8  17  14  18  14  19  14  20  13  21  13  22  13
M  ISO  8  23  13  24   8  25   8  26   8  27   8  28   8  29   8  30   8
M  ISO  2  31   8  32   8
M  END
>  <minimizedAffinity>  (1) 
-4.7232399

>  <minimizedRMSD>  (1) 
0.996268213

$$$$
