
     RDKit          3D

 22 23  0  0  1  0  0  0  0  0999 V2000
   44.0760   35.4960   41.7950 C   0  0  0  0  0  0  0  0  0  0  0  0
   44.3090   35.8220   44.2360 C   0  0  0  0  0  0  0  0  0  0  0  0
   44.5130   35.0140   43.1060 C   0  0  0  0  0  0  0  0  0  0  0  0
   45.1260   33.7710   43.2570 C   0  0  0  0  0  0  0  0  0  0  0  0
   45.5060   33.3930   44.5100 N   0  0  0  0  0  0  0  0  0  0  0  0
   45.2990   34.1860   45.5840 C   0  0  0  0  0  0  0  0  0  0  0  0
   44.7030   35.3970   45.4510 N   0  0  0  0  0  0  0  0  0  0  0  0
   43.2530   34.5270   41.0020 C   0  0  2  0  0  0  0  0  0  0  0  0
   42.7050   35.0910   39.6850 C   0  0  0  0  0  0  0  0  0  0  0  0
   41.8170   34.6240   40.8230 C   0  0  2  0  0  0  0  0  0  0  0  0
   40.9770   35.6870   41.3810 C   0  0  0  0  0  0  0  0  0  0  0  0
   40.2580   36.4860   40.8220 O   0  0  0  0  0  0  0  0  0  0  0  0
   43.4767   36.4055   41.9490 H   0  0  0  0  0  0  0  0  0  0  0  0
   44.9925   35.6679   41.2114 H   0  0  0  0  0  0  0  0  0  0  0  0
   43.8262   36.8045   44.1282 H   0  0  0  0  0  0  0  0  0  0  0  0
   45.2978   33.1151   42.3908 H   0  0  0  0  0  0  0  0  0  0  0  0
   45.6182   33.8449   46.5799 H   0  0  0  0  0  0  0  0  0  0  0  0
   43.8721   33.6883   41.3532 H   0  0  0  0  0  0  0  0  0  0  0  0
   42.7749   34.5074   38.7552 H   0  0  0  0  0  0  0  0  0  0  0  0
   42.8309   36.0143   39.1005 H   0  0  0  0  0  0  0  0  0  0  0  0
   41.0373   33.8721   41.0143 H   0  0  0  0  0  0  0  0  0  0  0  0
   41.0033   35.7729   42.4773 H   0  0  0  0  0  0  0  0  0  0  0  0
  1  3  1  0
  2  7  2  0
  3  4  2  0
  3  2  1  0
  4  5  1  0
  5  6  2  0
  7  6  1  0
  8  1  1  0
  9 10  1  0
  9  8  1  0
 10  8  1  0
 10 11  1  0
 12 11  2  0
  1 13  1  0
  1 14  1  0
  2 15  1  0
  4 16  1  0
  6 17  1  0
  8 18  1  6
  9 19  1  0
  9 20  1  0
 10 21  1  6
 11 22  1  0
M  ISO  8  13   8  14   8  15  14  16  14  17  14  18  13  19  13  20  13
M  ISO  2  21  13  22   6
M  END
>  <minimizedAffinity>  (1) 
-3.87538934

>  <minimizedRMSD>  (1) 
0.76823312

$$$$
