
     RDKit          3D

 21 22  0  0  1  0  0  0  0  0999 V2000
   44.1250   35.4130   41.8510 C   0  0  0  0  0  0  0  0  0  0  0  0
   44.3440   35.7620   44.2840 C   0  0  0  0  0  0  0  0  0  0  0  0
   44.5460   34.9470   43.1630 C   0  0  0  0  0  0  0  0  0  0  0  0
   45.1540   33.6910   43.3430 C   0  0  0  0  0  0  0  0  0  0  0  0
   45.5150   33.3400   44.6060 N   0  0  0  0  0  0  0  0  0  0  0  0
   45.3090   34.1430   45.6620 C   0  0  0  0  0  0  0  0  0  0  0  0
   44.7250   35.3580   45.5120 N   0  0  0  0  0  0  0  0  0  0  0  0
   42.9670   34.6660   41.2410 C   0  0  2  0  0  0  0  0  0  0  0  0
   42.5100   35.1620   39.8710 C   0  0  0  0  0  0  0  0  0  0  0  0
   41.6540   35.2850   41.1020 C   0  0  1  0  0  0  0  0  0  0  0  0
   40.1890   34.2800   41.3230 S   0  0  0  0  0  0  0  0  0  0  0  0
   43.8362   36.4704   41.9429 H   0  0  0  0  0  0  0  0  0  0  0  0
   44.9809   35.2454   41.1806 H   0  0  0  0  0  0  0  0  0  0  0  0
   43.8676   36.7458   44.1604 H   0  0  0  0  0  0  0  0  0  0  0  0
   45.3310   33.0168   42.4920 H   0  0  0  0  0  0  0  0  0  0  0  0
   45.6185   33.8106   46.6639 H   0  0  0  0  0  0  0  0  0  0  0  0
   43.2958   33.7168   41.6891 H   0  0  0  0  0  0  0  0  0  0  0  0
   42.2465   34.4456   39.0789 H   0  0  0  0  0  0  0  0  0  0  0  0
   42.9012   35.8491   39.1063 H   0  0  0  0  0  0  0  0  0  0  0  0
   41.1375   36.1318   41.5775 H   0  0  0  0  0  0  0  0  0  0  0  0
   39.9468   34.1138   42.6611 H   0  0  0  0  0  0  0  0  0  0  0  0
  1  3  1  0
  2  7  2  0
  3  4  2  0
  3  2  1  0
  4  5  1  0
  5  6  2  0
  7  6  1  0
  8  1  1  0
  9 10  1  0
  9  8  1  0
 10  8  1  0
 10 11  1  0
  1 12  1  0
  1 13  1  0
  2 14  1  0
  4 15  1  0
  6 16  1  0
  8 17  1  6
  9 18  1  0
  9 19  1  0
 10 20  1  1
 11 21  1  0
M  ISO  8  12   8  13   8  14  14  15  14  16  14  17  13  18  13  19  13
M  ISO  2  20  13  21  11
M  END
>  <minimizedAffinity>  (1) 
-3.68520951

>  <minimizedRMSD>  (1) 
0.230239496

$$$$
