
     RDKit          3D

 29 31  0  0  1  0  0  0  0  0999 V2000
   45.7570   34.1140   41.5180 N   0  0  0  0  0  0  0  0  0  0  0  0
   44.9970   33.6840   40.4730 C   0  0  0  0  0  0  0  0  0  0  0  0
   45.7710   33.4420   39.4020 N   0  0  0  0  0  0  0  0  0  0  0  0
   47.0540   33.7270   39.7810 C   0  0  0  0  0  0  0  0  0  0  0  0
   46.9730   34.1200   41.0470 N   0  0  0  0  0  0  0  0  0  0  0  0
   44.9290   35.8220   43.0000 C   0  0  0  0  0  0  0  0  0  0  0  0
   45.4210   34.4950   42.8330 C   0  0  0  0  0  0  0  0  0  0  0  0
   45.5250   33.7100   43.9450 C   0  0  0  0  0  0  0  0  0  0  0  0
   45.1450   34.2650   45.1380 N   0  0  0  0  0  0  0  0  0  0  0  0
   44.6930   35.5000   45.2690 C   0  0  0  0  0  0  0  0  0  0  0  0
   44.5830   36.2920   44.1820 N   0  0  0  0  0  0  0  0  0  0  0  0
   48.3100   33.6480   38.9940 C   0  0  2  0  0  0  0  0  0  0  0  0
   48.3420   34.4940   37.6900 C   0  0  0  0  0  0  0  0  0  0  0  0
   48.3190   32.9540   37.6810 C   0  0  1  0  0  0  0  0  0  0  0  0
   49.4960   32.1880   37.3240 C   0  0  0  0  0  0  0  0  0  0  0  0
   49.5950   31.8230   36.0940 O   0  0  0  0  0  0  0  0  0  0  0  0
   50.4700   31.8590   38.2420 O   0  0  0  0  0  0  0  0  0  0  0  0
   51.7930   31.6630   37.7470 C   0  0  0  0  0  0  0  0  0  0  0  0
   43.9052   33.5535   40.5018 H   0  0  0  0  0  0  0  0  0  0  0  0
   44.8353   36.4724   42.1178 H   0  0  0  0  0  0  0  0  0  0  0  0
   45.8977   32.6768   43.8854 H   0  0  0  0  0  0  0  0  0  0  0  0
   44.4075   35.8810   46.2606 H   0  0  0  0  0  0  0  0  0  0  0  0
   48.9305   33.5495   39.8969 H   0  0  0  0  0  0  0  0  0  0  0  0
   47.4569   35.0663   37.3753 H   0  0  0  0  0  0  0  0  0  0  0  0
   48.9870   35.2800   37.2702 H   0  0  0  0  0  0  0  0  0  0  0  0
   47.6753   32.2183   37.1765 H   0  0  0  0  0  0  0  0  0  0  0  0
   52.4892   31.5599   38.5923 H   0  0  0  0  0  0  0  0  0  0  0  0
   51.8235   30.7505   37.1334 H   0  0  0  0  0  0  0  0  0  0  0  0
   52.0867   32.5274   37.1334 H   0  0  0  0  0  0  0  0  0  0  0  0
  1  7  1  0
  2  1  1  0
  3  4  1  0
  3  2  2  0
  4  5  2  0
  5  1  1  0
  6 11  2  0
  7  6  1  0
  7  8  2  0
  8  9  1  0
  9 10  2  0
 11 10  1  0
 12  4  1  0
 13 12  1  0
 14 13  1  0
 14 12  1  0
 15 14  1  0
 15 17  1  0
 16 15  2  0
 18 17  1  0
  2 19  1  0
  6 20  1  0
  8 21  1  0
 10 22  1  0
 12 23  1  1
 13 24  1  0
 13 25  1  0
 14 26  1  6
 18 27  1  0
 18 28  1  0
 18 29  1  0
M  ISO  8  19  14  20  14  21  14  22  14  23  13  24  13  25  13  26  13
M  ISO  3  27   8  28   8  29   8
M  END
>  <minimizedAffinity>  (1) 
-4.22728443

>  <minimizedRMSD>  (1) 
0.367576867

$$$$
