
     RDKit          3D

 27 29  0  0  1  0  0  0  0  0999 V2000
   44.2680   35.1790   41.6150 C   0  0  0  0  0  0  0  0  0  0  0  0
   44.3180   35.8520   43.9910 C   0  0  0  0  0  0  0  0  0  0  0  0
   44.5880   34.8890   42.9950 C   0  0  0  0  0  0  0  0  0  0  0  0
   45.1650   33.6660   43.3810 C   0  0  0  0  0  0  0  0  0  0  0  0
   45.4400   33.4620   44.7020 N   0  0  0  0  0  0  0  0  0  0  0  0
   45.1630   34.4190   45.6300 C   0  0  0  0  0  0  0  0  0  0  0  0
   44.6080   35.6040   45.2830 N   0  0  0  0  0  0  0  0  0  0  0  0
   42.8110   35.2110   41.2780 C   0  0  2  0  0  0  0  0  0  0  0  0
   42.1980   33.8420   40.9230 C   0  0  0  0  0  0  0  0  0  0  0  0
   42.2950   34.9590   39.9270 C   0  0  1  0  0  0  0  0  0  0  0  0
   41.0350   35.5780   39.4340 C   0  0  0  0  0  0  0  0  0  0  0  0
   39.8570   34.7340   39.0220 C   0  0  0  0  0  0  0  0  0  0  0  0
   40.7360   35.3520   37.9540 C   0  0  0  0  0  0  0  0  0  0  0  0
   44.6930   36.1635   41.3696 H   0  0  0  0  0  0  0  0  0  0  0  0
   44.6922   34.3502   41.0292 H   0  0  0  0  0  0  0  0  0  0  0  0
   43.8663   36.8146   43.7094 H   0  0  0  0  0  0  0  0  0  0  0  0
   45.3899   32.8904   42.6341 H   0  0  0  0  0  0  0  0  0  0  0  0
   45.3958   34.2246   46.6874 H   0  0  0  0  0  0  0  0  0  0  0  0
   42.6393   36.0365   41.9845 H   0  0  0  0  0  0  0  0  0  0  0  0
   42.8393   32.9535   40.8266 H   0  0  0  0  0  0  0  0  0  0  0  0
   41.3940   33.2073   41.3240 H   0  0  0  0  0  0  0  0  0  0  0  0
   42.7409   35.0841   38.9292 H   0  0  0  0  0  0  0  0  0  0  0  0
   41.1341   36.4290   40.1239 H   0  0  0  0  0  0  0  0  0  0  0  0
   39.8774   33.6466   39.1870 H   0  0  0  0  0  0  0  0  0  0  0  0
   38.7793   34.7499   39.2417 H   0  0  0  0  0  0  0  0  0  0  0  0
   41.3981   34.7159   37.3482 H   0  0  0  0  0  0  0  0  0  0  0  0
   40.5673   36.0019   37.0827 H   0  0  0  0  0  0  0  0  0  0  0  0
  1  3  1  0
  2  7  2  0
  3  4  2  0
  3  2  1  0
  4  5  1  0
  5  6  2  0
  7  6  1  0
  8  1  1  0
  9  8  1  0
 10  9  1  0
 10  8  1  0
 11 10  1  0
 12 11  1  0
 13 12  1  0
 13 11  1  0
  1 14  1  0
  1 15  1  0
  2 16  1  0
  4 17  1  0
  6 18  1  0
  8 19  1  1
  9 20  1  0
  9 21  1  0
 10 22  1  6
 11 23  1  0
 12 24  1  0
 12 25  1  0
 13 26  1  0
 13 27  1  0
M  ISO  8  14   8  15   8  16  14  17  14  18  14  19  13  20  13  21  13
M  ISO  6  22  13  23  13  24  13  25  13  26  13  27  13
M  END
>  <minimizedAffinity>  (1) 
-4.360291

>  <minimizedRMSD>  (1) 
1.5925951

$$$$
