
     RDKit          3D

 41 45  0  0  1  0  0  0  0  0999 V2000
   42.4740   35.6960   41.2950 C   0  0  2  0  0  0  0  0  0  0  0  0
   41.2440   35.2320   42.0200 C   0  0  0  0  0  0  0  0  0  0  0  0
   41.1150   36.0590   40.7460 C   0  0  2  0  0  0  0  0  0  0  0  0
   40.5500   35.3710   39.6290 N   0  0  0  0  0  0  0  0  0  0  0  0
   40.7770   35.7090   38.3260 C   0  0  0  0  0  0  0  0  0  0  0  0
   40.1280   34.9010   37.4650 N   0  0  0  0  0  0  0  0  0  0  0  0
   39.4520   34.0040   38.1980 C   0  0  0  0  0  0  0  0  0  0  0  0
   38.6130   32.9300   37.9120 C   0  0  0  0  0  0  0  0  0  0  0  0
   38.3570   32.6430   36.7090 O   0  0  0  0  0  0  0  0  0  0  0  0
   38.0910   32.2220   38.9560 N   0  0  0  0  0  0  0  0  0  0  0  0
   38.3610   32.5250   40.2430 C   0  0  0  0  0  0  0  0  0  0  0  0
   37.7660   31.7220   41.2620 N   0  0  0  0  0  0  0  0  0  0  0  0
   39.1790   33.5700   40.5210 N   0  0  0  0  0  0  0  0  0  0  0  0
   39.7260   34.3120   39.5220 C   0  0  0  0  0  0  0  0  0  0  0  0
   44.5000   34.1130   41.0620 C   0  0  2  0  0  0  0  0  0  0  0  0
   43.2270   33.3130   40.7770 C   0  0  0  0  0  0  0  0  0  0  0  0
   43.3090   34.7750   40.4870 C   0  0  1  0  0  0  0  0  0  0  0  0
   45.6880   33.7540   40.2060 C   0  0  0  0  0  0  0  0  0  0  0  0
   47.1480   34.8140   41.8830 C   0  0  0  0  0  0  0  0  0  0  0  0
   46.9700   33.8670   40.8430 C   0  0  0  0  0  0  0  0  0  0  0  0
   48.0640   33.0750   40.4800 C   0  0  0  0  0  0  0  0  0  0  0  0
   49.2460   33.2510   41.1400 N   0  0  0  0  0  0  0  0  0  0  0  0
   49.3710   34.1680   42.1280 C   0  0  0  0  0  0  0  0  0  0  0  0
   48.3250   34.9540   42.5040 N   0  0  0  0  0  0  0  0  0  0  0  0
   43.3747   36.2334   41.6266 H   0  0  0  0  0  0  0  0  0  0  0  0
   40.9710   34.1664   42.0145 H   0  0  0  0  0  0  0  0  0  0  0  0
   40.8659   35.3230   43.0489 H   0  0  0  0  0  0  0  0  0  0  0  0
   40.6700   37.0143   40.4307 H   0  0  0  0  0  0  0  0  0  0  0  0
   41.4178   36.5469   38.0140 H   0  0  0  0  0  0  0  0  0  0  0  0
   37.4680   31.4271   38.7539 H   0  0  0  0  0  0  0  0  0  0  0  0
   37.9523   31.9274   42.2540 H   0  0  0  0  0  0  0  0  0  0  0  0
   37.1503   30.9371   41.0054 H   0  0  0  0  0  0  0  0  0  0  0  0
   45.1407   34.3494   41.9243 H   0  0  0  0  0  0  0  0  0  0  0  0
   43.2031   32.5852   39.9525 H   0  0  0  0  0  0  0  0  0  0  0  0
   42.5589   32.6638   41.3621 H   0  0  0  0  0  0  0  0  0  0  0  0
   43.1618   35.4087   39.6000 H   0  0  0  0  0  0  0  0  0  0  0  0
   45.6862   34.4184   39.3293 H   0  0  0  0  0  0  0  0  0  0  0  0
   45.5687   32.6890   39.9580 H   0  0  0  0  0  0  0  0  0  0  0  0
   46.3008   35.4469   42.1858 H   0  0  0  0  0  0  0  0  0  0  0  0
   47.9740   32.3260   39.6795 H   0  0  0  0  0  0  0  0  0  0  0  0
   50.3390   34.2805   42.6382 H   0  0  0  0  0  0  0  0  0  0  0  0
  1  2  1  0
  3  1  1  0
  3  2  1  0
  4  3  1  0
  5  4  1  0
  6  7  1  0
  6  5  2  0
  7 14  2  0
  8  7  1  0
  8 10  1  0
  9  8  2  0
 10 11  1  0
 11 13  2  0
 11 12  1  0
 14  4  1  0
 14 13  1  0
 16 15  1  0
 17 16  1  0
 17 15  1  0
 17  1  1  0
 18 20  1  0
 18 15  1  0
 19 24  2  0
 20 19  1  0
 21 20  2  0
 21 22  1  0
 22 23  2  0
 23 24  1  0
  1 25  1  1
  2 26  1  0
  2 27  1  0
  3 28  1  1
  5 29  1  0
 10 30  1  0
 12 31  1  0
 12 32  1  0
 15 33  1  1
 16 34  1  0
 16 35  1  0
 17 36  1  6
 18 37  1  0
 18 38  1  0
 19 39  1  0
 21 40  1  0
 23 41  1  0
M  ISO  8  25  13  26  13  27  13  28  13  29  14  30   9  33  13  34  13
M  ISO  7  35  13  36  13  37   8  38   8  39  14  40  14  41  14
M  END
>  <minimizedAffinity>  (1) 
-5.60508108

>  <minimizedRMSD>  (1) 
4.64885521

$$$$
