
     RDKit          3D

 41 45  0  0  1  0  0  0  0  0999 V2000
   42.0120   34.5810   40.3420 C   0  0  2  0  0  0  0  0  0  0  0  0
   41.5670   35.7860   41.1780 C   0  0  0  0  0  0  0  0  0  0  0  0
   43.0060   35.4290   41.0330 C   0  0  1  0  0  0  0  0  0  0  0  0
   43.7220   34.9190   42.2390 C   0  0  2  0  0  0  0  0  0  0  0  0
   44.1150   35.7990   43.3800 C   0  0  0  0  0  0  0  0  0  0  0  0
   45.1700   35.4040   42.3840 C   0  0  1  0  0  0  0  0  0  0  0  0
   46.1060   34.2920   42.6900 C   0  0  0  0  0  0  0  0  0  0  0  0
   46.9010   33.7560   41.7190 N   0  0  0  0  0  0  0  0  0  0  0  0
   47.7540   32.7470   41.9790 C   0  0  0  0  0  0  0  0  0  0  0  0
   47.8580   32.2190   43.2290 N   0  0  0  0  0  0  0  0  0  0  0  0
   47.1030   32.6980   44.2450 C   0  0  0  0  0  0  0  0  0  0  0  0
   47.2160   32.1600   45.4960 C   0  0  0  0  0  0  0  0  0  0  0  0
   46.4410   32.6520   46.5300 C   0  0  0  0  0  0  0  0  0  0  0  0
   45.5730   33.6910   46.2240 C   0  0  0  0  0  0  0  0  0  0  0  0
   45.4530   34.2460   44.9510 C   0  0  0  0  0  0  0  0  0  0  0  0
   46.2370   33.7310   43.9510 C   0  0  0  0  0  0  0  0  0  0  0  0
   41.7480   34.6920   38.8690 C   0  0  0  0  0  0  0  0  0  0  0  0
   40.6610   32.5090   38.4500 C   0  0  0  0  0  0  0  0  0  0  0  0
   40.6240   33.9200   38.3870 C   0  0  0  0  0  0  0  0  0  0  0  0
   39.4820   34.5360   37.8510 C   0  0  0  0  0  0  0  0  0  0  0  0
   38.4610   33.7500   37.4160 N   0  0  0  0  0  0  0  0  0  0  0  0
   38.5350   32.4000   37.4940 C   0  0  0  0  0  0  0  0  0  0  0  0
   39.6150   31.7810   38.0020 N   0  0  0  0  0  0  0  0  0  0  0  0
   41.8554   33.4925   40.3182 H   0  0  0  0  0  0  0  0  0  0  0  0
   41.1667   36.6845   40.6855 H   0  0  0  0  0  0  0  0  0  0  0  0
   40.8779   35.9474   42.0200 H   0  0  0  0  0  0  0  0  0  0  0  0
   43.9093   35.9558   40.6916 H   0  0  0  0  0  0  0  0  0  0  0  0
   43.1682   33.9694   42.2006 H   0  0  0  0  0  0  0  0  0  0  0  0
   43.7593   36.8393   43.4144 H   0  0  0  0  0  0  0  0  0  0  0  0
   44.0247   35.7254   44.4738 H   0  0  0  0  0  0  0  0  0  0  0  0
   45.9108   35.9892   41.8194 H   0  0  0  0  0  0  0  0  0  0  0  0
   48.3771   32.3428   41.1676 H   0  0  0  0  0  0  0  0  0  0  0  0
   47.9222   31.3370   45.6801 H   0  0  0  0  0  0  0  0  0  0  0  0
   46.5091   32.2394   47.5474 H   0  0  0  0  0  0  0  0  0  0  0  0
   44.9455   34.0987   47.0302 H   0  0  0  0  0  0  0  0  0  0  0  0
   44.7519   35.0706   44.7550 H   0  0  0  0  0  0  0  0  0  0  0  0
   41.5597   35.7503   38.6354 H   0  0  0  0  0  0  0  0  0  0  0  0
   42.6376   34.2839   38.3669 H   0  0  0  0  0  0  0  0  0  0  0  0
   41.5443   32.0017   38.8652 H   0  0  0  0  0  0  0  0  0  0  0  0
   39.4144   35.6319   37.7842 H   0  0  0  0  0  0  0  0  0  0  0  0
   37.6905   31.7948   37.1327 H   0  0  0  0  0  0  0  0  0  0  0  0
  1  3  1  0
  1  2  1  0
  3  2  1  0
  3  4  1  0
  4  6  1  0
  4  5  1  0
  6  7  1  0
  6  5  1  0
  7 16  2  0
  8  9  2  0
  8  7  1  0
  9 10  1  0
 10 11  2  0
 11 12  1  0
 12 13  2  0
 14 13  1  0
 15 14  2  0
 16 11  1  0
 16 15  1  0
 17  1  1  0
 19 18  2  0
 19 17  1  0
 20 19  1  0
 21 22  1  0
 21 20  2  0
 22 23  2  0
 23 18  1  0
  1 24  1  1
  2 25  1  0
  2 26  1  0
  3 27  1  6
  4 28  1  1
  5 29  1  0
  5 30  1  0
  6 31  1  6
  9 32  1  0
 12 33  1  0
 13 34  1  0
 14 35  1  0
 15 36  1  0
 17 37  1  0
 17 38  1  0
 18 39  1  0
 20 40  1  0
 22 41  1  0
M  ISO  8  24  13  25  13  26  13  27  13  28  13  29  13  30  13  31  13
M  ISO  8  32  14  33  14  34  14  35  14  36  14  37   8  38   8  39  14
M  ISO  2  40  14  41  14
M  END
>  <minimizedAffinity>  (1) 
-5.64254236

>  <minimizedRMSD>  (1) 
8.71968269

$$$$
