
     RDKit          3D

 40 44  0  0  1  0  0  0  0  0999 V2000
   41.1910   35.5070   40.0680 C   0  0  2  0  0  0  0  0  0  0  0  0
   42.0470   35.6310   38.8040 C   0  0  0  0  0  0  0  0  0  0  0  0
   42.3000   34.5730   39.8270 C   0  0  1  0  0  0  0  0  0  0  0  0
   43.5750   34.6580   40.5910 C   0  0  2  0  0  0  0  0  0  0  0  0
   44.7880   33.8590   40.1940 C   0  0  0  0  0  0  0  0  0  0  0  0
   43.9750   33.4240   41.3790 C   0  0  1  0  0  0  0  0  0  0  0  0
   44.5930   33.7410   42.6700 N   0  0  0  0  0  0  0  0  0  0  0  0
   44.7300   34.9730   43.1820 C   0  0  0  0  0  0  0  0  0  0  0  0
   45.3480   34.8870   44.3950 N   0  0  0  0  0  0  0  0  0  0  0  0
   45.5720   33.5840   44.5900 C   0  0  0  0  0  0  0  0  0  0  0  0
   46.1560   32.8730   45.6160 C   0  0  0  0  0  0  0  0  0  0  0  0
   46.2680   31.5450   45.5840 N   0  0  0  0  0  0  0  0  0  0  0  0
   45.8060   30.8200   44.5250 C   0  0  0  0  0  0  0  0  0  0  0  0
   45.2330   31.5000   43.5140 N   0  0  0  0  0  0  0  0  0  0  0  0
   45.1110   32.8220   43.5260 C   0  0  0  0  0  0  0  0  0  0  0  0
   46.6740   33.4930   46.7670 N   0  0  0  0  0  0  0  0  0  0  0  0
   39.7650   35.1370   39.8300 C   0  0  0  0  0  0  0  0  0  0  0  0
   38.5600   33.0080   39.5100 C   0  0  0  0  0  0  0  0  0  0  0  0
   39.3750   33.8250   40.3080 C   0  0  0  0  0  0  0  0  0  0  0  0
   39.7910   33.3380   41.5610 C   0  0  0  0  0  0  0  0  0  0  0  0
   39.3890   32.1000   41.9460 N   0  0  0  0  0  0  0  0  0  0  0  0
   38.6030   31.3400   41.1490 C   0  0  0  0  0  0  0  0  0  0  0  0
   38.1850   31.7820   39.9370 N   0  0  0  0  0  0  0  0  0  0  0  0
   40.9188   36.1173   40.9417 H   0  0  0  0  0  0  0  0  0  0  0  0
   42.7482   36.4706   38.6886 H   0  0  0  0  0  0  0  0  0  0  0  0
   41.8559   35.6512   37.7209 H   0  0  0  0  0  0  0  0  0  0  0  0
   42.3530   33.4743   39.8332 H   0  0  0  0  0  0  0  0  0  0  0  0
   43.4125   35.7280   40.7878 H   0  0  0  0  0  0  0  0  0  0  0  0
   44.7731   33.2623   39.2701 H   0  0  0  0  0  0  0  0  0  0  0  0
   45.8496   34.0943   40.0279 H   0  0  0  0  0  0  0  0  0  0  0  0
   43.4796   32.4898   41.6820 H   0  0  0  0  0  0  0  0  0  0  0  0
   44.3971   35.9043   42.7005 H   0  0  0  0  0  0  0  0  0  0  0  0
   45.8978   29.7242   44.4980 H   0  0  0  0  0  0  0  0  0  0  0  0
   47.1024   32.9231   47.5104 H   0  0  0  0  0  0  0  0  0  0  0  0
   46.6250   34.5170   46.8667 H   0  0  0  0  0  0  0  0  0  0  0  0
   39.1323   35.8833   40.3327 H   0  0  0  0  0  0  0  0  0  0  0  0
   39.6365   35.1123   38.7378 H   0  0  0  0  0  0  0  0  0  0  0  0
   38.2230   33.3690   38.5271 H   0  0  0  0  0  0  0  0  0  0  0  0
   40.4297   33.9489   42.2159 H   0  0  0  0  0  0  0  0  0  0  0  0
   38.2961   30.3409   41.4919 H   0  0  0  0  0  0  0  0  0  0  0  0
  2  3  1  0
  2  1  1  0
  3  1  1  0
  3  4  1  0
  4  6  1  0
  5  4  1  0
  5  6  1  0
  6  7  1  0
  7  8  1  0
  7 15  1  0
  8  9  2  0
  9 10  1  0
 10 11  2  0
 11 16  1  0
 12 11  1  0
 13 12  2  0
 14 15  2  0
 14 13  1  0
 15 10  1  0
 17  1  1  0
 17 19  1  0
 18 23  2  0
 18 19  1  0
 19 20  2  0
 20 21  1  0
 22 21  2  0
 23 22  1  0
  1 24  1  1
  2 25  1  0
  2 26  1  0
  3 27  1  6
  4 28  1  1
  5 29  1  0
  5 30  1  0
  6 31  1  6
  8 32  1  0
 13 33  1  0
 16 34  1  0
 16 35  1  0
 17 36  1  0
 17 37  1  0
 18 38  1  0
 20 39  1  0
 22 40  1  0
M  ISO  8  24  13  25  13  26  13  27  13  28  13  29  13  30  13  31  13
M  ISO  7  32  14  33  14  36   8  37   8  38  14  39  14  40  14
M  END
>  <minimizedAffinity>  (1) 
-5.91802168

>  <minimizedRMSD>  (1) 
8.95113182

$$$$
