
     RDKit          3D

 38 40  0  0  1  0  0  0  0  0999 V2000
   45.7870   34.0510   41.4040 N   0  0  0  0  0  0  0  0  0  0  0  0
   45.0060   33.5810   40.3800 C   0  0  0  0  0  0  0  0  0  0  0  0
   45.7660   33.3460   39.3000 N   0  0  0  0  0  0  0  0  0  0  0  0
   47.0490   33.6730   39.6500 C   0  0  0  0  0  0  0  0  0  0  0  0
   46.9940   34.0860   40.9110 N   0  0  0  0  0  0  0  0  0  0  0  0
   45.0100   35.7800   42.8890 C   0  0  0  0  0  0  0  0  0  0  0  0
   45.4620   34.4390   42.7220 C   0  0  0  0  0  0  0  0  0  0  0  0
   45.5430   33.6440   43.8310 C   0  0  0  0  0  0  0  0  0  0  0  0
   45.1810   34.2060   45.0260 N   0  0  0  0  0  0  0  0  0  0  0  0
   44.7640   35.4540   45.1570 C   0  0  0  0  0  0  0  0  0  0  0  0
   44.6800   36.2410   44.0840 N   0  0  0  0  0  0  0  0  0  0  0  0
   48.2930   33.6130   38.8360 C   0  0  2  0  0  0  0  0  0  0  0  0
   48.3360   34.5660   37.6060 C   0  0  0  0  0  0  0  0  0  0  0  0
   48.2470   33.0340   37.4660 C   0  0  1  0  0  0  0  0  0  0  0  0
   49.3800   32.2570   37.0160 C   0  0  0  0  0  0  0  0  0  0  0  0
   49.2270   31.5810   35.9300 O   0  0  0  0  0  0  0  0  0  0  0  0
   50.5720   32.2300   37.7050 O   0  0  0  0  0  0  0  0  0  0  0  0
   50.9810   31.0460   38.3600 C   0  0  0  0  0  0  0  0  0  0  0  0
   51.7870   31.3310   39.5990 C   0  0  0  0  0  0  0  0  0  0  0  0
   51.8590   30.2070   37.4460 C   0  0  0  0  0  0  0  0  0  0  0  0
   49.7300   30.2800   38.7370 C   0  0  0  0  0  0  0  0  0  0  0  0
   43.9192   33.4207   40.4357 H   0  0  0  0  0  0  0  0  0  0  0  0
   44.9345   36.4405   42.0126 H   0  0  0  0  0  0  0  0  0  0  0  0
   45.8836   32.6000   43.7664 H   0  0  0  0  0  0  0  0  0  0  0  0
   44.4872   35.8418   46.1485 H   0  0  0  0  0  0  0  0  0  0  0  0
   48.9259   33.4144   39.7135 H   0  0  0  0  0  0  0  0  0  0  0  0
   47.4703   35.1989   37.3612 H   0  0  0  0  0  0  0  0  0  0  0  0
   49.0060   35.3578   37.2398 H   0  0  0  0  0  0  0  0  0  0  0  0
   47.5627   32.3706   36.9168 H   0  0  0  0  0  0  0  0  0  0  0  0
   51.1785   31.1159   40.4898 H   0  0  0  0  0  0  0  0  0  0  0  0
   52.6851   30.6959   39.6063 H   0  0  0  0  0  0  0  0  0  0  0  0
   52.0863   32.3895   39.6063 H   0  0  0  0  0  0  0  0  0  0  0  0
   52.5217   29.5737   38.0541 H   0  0  0  0  0  0  0  0  0  0  0  0
   51.2249   29.5707   36.8112 H   0  0  0  0  0  0  0  0  0  0  0  0
   52.4659   30.8694   36.8112 H   0  0  0  0  0  0  0  0  0  0  0  0
   49.6473   30.2294   39.8327 H   0  0  0  0  0  0  0  0  0  0  0  0
   48.8481   30.7931   38.3260 H   0  0  0  0  0  0  0  0  0  0  0  0
   49.7861   29.2612   38.3260 H   0  0  0  0  0  0  0  0  0  0  0  0
  1  7  1  0
  2  1  1  0
  3  4  1  0
  3  2  2  0
  4  5  2  0
  5  1  1  0
  6 11  2  0
  7  6  1  0
  7  8  2  0
  8  9  1  0
  9 10  2  0
 11 10  1  0
 12  4  1  0
 13 12  1  0
 14 13  1  0
 14 12  1  0
 15 14  1  0
 15 17  1  0
 16 15  2  0
 17 18  1  0
 18 21  1  0
 18 19  1  0
 20 18  1  0
  2 22  1  0
  6 23  1  0
  8 24  1  0
 10 25  1  0
 12 26  1  1
 13 27  1  0
 13 28  1  0
 14 29  1  1
 19 30  1  0
 19 31  1  0
 19 32  1  0
 20 33  1  0
 20 34  1  0
 20 35  1  0
 21 36  1  0
 21 37  1  0
 21 38  1  0
M  ISO  8  22  14  23  14  24  14  25  14  26  13  27  13  28  13  29  13
M  ISO  8  30   8  31   8  32   8  33   8  34   8  35   8  36   8  37   8
M  ISO  1  38   8
M  END
>  <minimizedAffinity>  (1) 
-4.22456264

>  <minimizedRMSD>  (1) 
1.03196633

$$$$
