
     RDKit          3D

 34 37  0  0  1  0  0  0  0  0999 V2000
   45.3200   33.7800   44.3710 C   0  0  2  0  0  0  0  0  0  0  0  0
   46.2500   34.5850   43.4480 C   0  0  0  0  0  0  0  0  0  0  0  0
   44.7730   34.7890   43.4540 C   0  0  1  0  0  0  0  0  0  0  0  0
   44.0040   34.4110   42.2340 C   0  0  2  0  0  0  0  0  0  0  0  0
   44.6020   34.5370   40.8600 C   0  0  0  0  0  0  0  0  0  0  0  0
   43.5890   35.5730   41.3260 C   0  0  1  0  0  0  0  0  0  0  0  0
   42.2410   35.4580   40.7750 C   0  0  0  0  0  0  0  0  0  0  0  0
   41.0270   35.8110   41.1980 C   0  0  0  0  0  0  0  0  0  0  0  0
   39.9060   35.5720   40.4510 C   0  0  0  0  0  0  0  0  0  0  0  0
   40.1040   34.9320   39.2100 C   0  0  0  0  0  0  0  0  0  0  0  0
   41.9630   34.6880   39.1590 S   0  0  0  0  0  0  0  0  0  0  0  0
   45.4930   34.0360   45.8340 C   0  0  0  0  0  0  0  0  0  0  0  0
   45.2990   32.6490   47.8770 C   0  0  0  0  0  0  0  0  0  0  0  0
   45.9130   32.8910   46.6200 C   0  0  0  0  0  0  0  0  0  0  0  0
   46.9080   32.0160   46.1750 C   0  0  0  0  0  0  0  0  0  0  0  0
   47.2570   30.9580   46.9640 N   0  0  0  0  0  0  0  0  0  0  0  0
   46.6380   30.7670   48.1640 C   0  0  0  0  0  0  0  0  0  0  0  0
   45.6750   31.5890   48.6250 N   0  0  0  0  0  0  0  0  0  0  0  0
   45.0551   32.7289   44.5582 H   0  0  0  0  0  0  0  0  0  0  0  0
   46.7400   34.0983   42.5918 H   0  0  0  0  0  0  0  0  0  0  0  0
   47.1356   35.2235   43.5821 H   0  0  0  0  0  0  0  0  0  0  0  0
   44.1000   35.6448   43.6114 H   0  0  0  0  0  0  0  0  0  0  0  0
   43.5147   33.5766   42.7579 H   0  0  0  0  0  0  0  0  0  0  0  0
   44.3274   33.8170   40.0751 H   0  0  0  0  0  0  0  0  0  0  0  0
   45.6275   34.5821   40.4645 H   0  0  0  0  0  0  0  0  0  0  0  0
   43.5791   36.6710   41.3916 H   0  0  0  0  0  0  0  0  0  0  0  0
   40.9238   36.3078   42.1740 H   0  0  0  0  0  0  0  0  0  0  0  0
   38.9042   35.8633   40.7996 H   0  0  0  0  0  0  0  0  0  0  0  0
   39.3537   34.6465   38.4579 H   0  0  0  0  0  0  0  0  0  0  0  0
   46.2494   34.8257   45.9534 H   0  0  0  0  0  0  0  0  0  0  0  0
   44.4989   34.3158   46.2127 H   0  0  0  0  0  0  0  0  0  0  0  0
   44.5142   33.3272   48.2431 H   0  0  0  0  0  0  0  0  0  0  0  0
   47.4016   32.1772   45.2053 H   0  0  0  0  0  0  0  0  0  0  0  0
   46.9371   29.9067   48.7808 H   0  0  0  0  0  0  0  0  0  0  0  0
  1 12  1  0
  2  3  1  0
  2  1  1  0
  3  1  1  0
  4  3  1  0
  5  6  1  0
  5  4  1  0
  6  4  1  0
  7  8  2  0
  7  6  1  0
  9  8  1  0
 10  9  2  0
 11 10  1  0
 11  7  1  0
 12 14  1  0
 13 18  2  0
 14 13  1  0
 15 14  2  0
 15 16  1  0
 16 17  2  0
 17 18  1  0
  1 19  1  1
  2 20  1  0
  2 21  1  0
  3 22  1  1
  4 23  1  1
  5 24  1  0
  5 25  1  0
  6 26  1  1
  8 27  1  0
  9 28  1  0
 10 29  1  0
 12 30  1  0
 12 31  1  0
 13 32  1  0
 15 33  1  0
 17 34  1  0
M  ISO  8  19  13  20  13  21  13  22  13  23  13  24  13  25  13  26  13
M  ISO  8  27  14  28  14  29  14  30   8  31   8  32  14  33  14  34  14
M  END
>  <minimizedAffinity>  (1) 
-5.18637276

>  <minimizedRMSD>  (1) 
4.58552408

$$$$
