
     RDKit          3D

 39 42  0  0  1  0  0  0  0  0999 V2000
   45.4180   33.5800   44.4820 C   0  0  2  0  0  0  0  0  0  0  0  0
   46.3800   34.3430   43.5460 C   0  0  0  0  0  0  0  0  0  0  0  0
   44.8960   34.5480   43.5250 C   0  0  1  0  0  0  0  0  0  0  0  0
   44.1630   34.1340   42.3070 C   0  0  2  0  0  0  0  0  0  0  0  0
   44.5330   34.7220   40.9550 C   0  0  0  0  0  0  0  0  0  0  0  0
   43.2820   35.1770   41.6390 C   0  0  1  0  0  0  0  0  0  0  0  0
   42.0520   34.8510   41.0640 N   0  0  0  0  0  0  0  0  0  0  0  0
   40.8260   35.2040   41.6310 C   0  0  0  0  0  0  0  0  0  0  0  0
   40.2870   36.2310   40.6260 C   0  0  0  0  0  0  0  0  0  0  0  0
   40.5630   35.4880   39.3350 C   0  0  0  0  0  0  0  0  0  0  0  0
   41.9480   34.9300   39.6470 C   0  0  0  0  0  0  0  0  0  0  0  0
   45.6050   33.8910   45.9390 C   0  0  0  0  0  0  0  0  0  0  0  0
   45.3280   32.5480   48.0050 C   0  0  0  0  0  0  0  0  0  0  0  0
   45.9930   32.7620   46.7670 C   0  0  0  0  0  0  0  0  0  0  0  0
   47.0000   31.8710   46.3920 C   0  0  0  0  0  0  0  0  0  0  0  0
   47.3070   30.8320   47.2240 N   0  0  0  0  0  0  0  0  0  0  0  0
   46.6490   30.6620   48.4000 C   0  0  0  0  0  0  0  0  0  0  0  0
   45.6610   31.5130   48.7970 N   0  0  0  0  0  0  0  0  0  0  0  0
   45.1224   32.5440   44.7038 H   0  0  0  0  0  0  0  0  0  0  0  0
   47.0449   35.1229   43.9456 H   0  0  0  0  0  0  0  0  0  0  0  0
   47.1544   34.0732   42.8128 H   0  0  0  0  0  0  0  0  0  0  0  0
   44.2183   35.4059   43.6458 H   0  0  0  0  0  0  0  0  0  0  0  0
   44.0427   33.1100   42.6903 H   0  0  0  0  0  0  0  0  0  0  0  0
   44.4683   34.1001   40.0500 H   0  0  0  0  0  0  0  0  0  0  0  0
   45.4205   35.2275   40.5466 H   0  0  0  0  0  0  0  0  0  0  0  0
   42.8627   36.1366   41.9757 H   0  0  0  0  0  0  0  0  0  0  0  0
   40.1576   34.3339   41.7092 H   0  0  0  0  0  0  0  0  0  0  0  0
   40.9097   35.5923   42.6568 H   0  0  0  0  0  0  0  0  0  0  0  0
   39.2128   36.4199   40.7689 H   0  0  0  0  0  0  0  0  0  0  0  0
   40.7363   37.2327   40.6944 H   0  0  0  0  0  0  0  0  0  0  0  0
   40.5807   36.1658   38.4688 H   0  0  0  0  0  0  0  0  0  0  0  0
   39.8091   34.7352   39.0614 H   0  0  0  0  0  0  0  0  0  0  0  0
   42.0618   33.9301   39.2030 H   0  0  0  0  0  0  0  0  0  0  0  0
   42.7355   35.5747   39.2297 H   0  0  0  0  0  0  0  0  0  0  0  0
   46.3860   34.6608   46.0253 H   0  0  0  0  0  0  0  0  0  0  0  0
   44.6227   34.2187   46.3100 H   0  0  0  0  0  0  0  0  0  0  0  0
   44.5308   33.2377   48.3194 H   0  0  0  0  0  0  0  0  0  0  0  0
   47.5378   32.0034   45.4416 H   0  0  0  0  0  0  0  0  0  0  0  0
   46.9203   29.8160   49.0486 H   0  0  0  0  0  0  0  0  0  0  0  0
  1 12  1  0
  2  1  1  0
  3  2  1  0
  3  1  1  0
  4  3  1  0
  5  6  1  0
  5  4  1  0
  6  4  1  0
  7  8  1  0
  7  6  1  0
  9  8  1  0
 10 11  1  0
 10  9  1  0
 11  7  1  0
 12 14  1  0
 13 18  2  0
 14 13  1  0
 15 14  2  0
 15 16  1  0
 16 17  2  0
 17 18  1  0
  1 19  1  1
  2 20  1  0
  2 21  1  0
  3 22  1  1
  4 23  1  6
  5 24  1  0
  5 25  1  0
  6 26  1  1
  8 27  1  0
  8 28  1  0
  9 29  1  0
  9 30  1  0
 10 31  1  0
 10 32  1  0
 11 33  1  0
 11 34  1  0
 12 35  1  0
 12 36  1  0
 13 37  1  0
 15 38  1  0
 17 39  1  0
M  ISO  8  19  13  20  13  21  13  22  13  23  13  24  13  25  13  26  13
M  ISO  8  27  13  28  13  29  13  30  13  31  13  32  13  33  13  34  13
M  ISO  5  35   8  36   8  37  14  38  14  39  14
M  END
>  <minimizedAffinity>  (1) 
-5.1675396

>  <minimizedRMSD>  (1) 
4.72665071

$$$$
