
     RDKit          3D

 34 37  0  0  1  0  0  0  0  0999 V2000
   42.8030   35.4090   41.4040 C   0  0  2  0  0  0  0  0  0  0  0  0
   41.9500   34.1370   41.4380 C   0  0  0  0  0  0  0  0  0  0  0  0
   42.1790   34.9030   40.1660 C   0  0  1  0  0  0  0  0  0  0  0  0
   41.0090   35.5950   39.5670 C   0  0  2  0  0  0  0  0  0  0  0  0
   39.5920   35.1680   39.8920 C   0  0  0  0  0  0  0  0  0  0  0  0
   40.1910   34.7980   38.5620 C   0  0  2  0  0  0  0  0  0  0  0  0
   40.4250   33.3680   38.3580 C   0  0  0  0  0  0  0  0  0  0  0  0
   39.7300   32.2410   38.7430 C   0  0  0  0  0  0  0  0  0  0  0  0
   40.3530   31.1100   38.3140 N   0  0  0  0  0  0  0  0  0  0  0  0
   41.4550   31.5020   37.6500 C   0  0  0  0  0  0  0  0  0  0  0  0
   41.4830   32.8370   37.6850 N   0  0  0  0  0  0  0  0  0  0  0  0
   44.2600   35.2300   41.6920 C   0  0  0  0  0  0  0  0  0  0  0  0
   44.3190   35.8290   44.0890 C   0  0  0  0  0  0  0  0  0  0  0  0
   44.6030   34.8930   43.0570 C   0  0  0  0  0  0  0  0  0  0  0  0
   45.2020   33.6770   43.3880 C   0  0  0  0  0  0  0  0  0  0  0  0
   45.4940   33.4330   44.6950 N   0  0  0  0  0  0  0  0  0  0  0  0
   45.2090   34.3540   45.6690 C   0  0  0  0  0  0  0  0  0  0  0  0
   44.6260   35.5430   45.3660 N   0  0  0  0  0  0  0  0  0  0  0  0
   42.8073   36.3996   41.8822 H   0  0  0  0  0  0  0  0  0  0  0  0
   42.4232   33.1553   41.5875 H   0  0  0  0  0  0  0  0  0  0  0  0
   41.0716   33.7918   42.0030 H   0  0  0  0  0  0  0  0  0  0  0  0
   42.5812   34.6706   39.1689 H   0  0  0  0  0  0  0  0  0  0  0  0
   41.5306   36.5629   39.5996 H   0  0  0  0  0  0  0  0  0  0  0  0
   39.4134   34.3899   40.6488 H   0  0  0  0  0  0  0  0  0  0  0  0
   38.6790   35.6915   40.2120 H   0  0  0  0  0  0  0  0  0  0  0  0
   39.9640   34.9552   37.4972 H   0  0  0  0  0  0  0  0  0  0  0  0
   38.7944   32.2545   39.3213 H   0  0  0  0  0  0  0  0  0  0  0  0
   42.1949   30.8459   37.1682 H   0  0  0  0  0  0  0  0  0  0  0  0
   42.2249   33.4037   37.2498 H   0  0  0  0  0  0  0  0  0  0  0  0
   44.6343   34.4247   41.0429 H   0  0  0  0  0  0  0  0  0  0  0  0
   44.7205   36.2114   41.5056 H   0  0  0  0  0  0  0  0  0  0  0  0
   43.8462   36.7909   43.8414 H   0  0  0  0  0  0  0  0  0  0  0  0
   45.4328   32.9332   42.6112 H   0  0  0  0  0  0  0  0  0  0  0  0
   45.4571   34.1261   46.7162 H   0  0  0  0  0  0  0  0  0  0  0  0
  1  2  1  0
  1 12  1  0
  3  1  1  0
  3  2  1  0
  4  5  1  0
  4  3  1  0
  6  4  1  0
  6  5  1  0
  7  6  1  0
  7  8  2  0
  9  8  1  0
 10 11  1  0
 10  9  2  0
 11  7  1  0
 12 14  1  0
 13 18  2  0
 14 15  2  0
 14 13  1  0
 15 16  1  0
 16 17  2  0
 18 17  1  0
  1 19  1  1
  2 20  1  0
  2 21  1  0
  3 22  1  6
  4 23  1  6
  5 24  1  0
  5 25  1  0
  6 26  1  6
  8 27  1  0
 10 28  1  0
 11 29  1  0
 12 30  1  0
 12 31  1  0
 13 32  1  0
 15 33  1  0
 17 34  1  0
M  ISO  8  19  13  20  13  21  13  22  13  23  13  24  13  25  13  26  13
M  ISO  8  27  14  28  14  29   9  30   8  31   8  32  14  33  14  34  14
M  END
>  <minimizedAffinity>  (1) 
-5.0941186

>  <minimizedRMSD>  (1) 
1.52193892

$$$$
