
     RDKit          3D

 40 43  0  0  1  0  0  0  0  0999 V2000
   44.7300   34.3240   42.6730 C   0  0  2  0  0  0  0  0  0  0  0  0
   45.2770   34.5620   41.2490 C   0  0  0  0  0  0  0  0  0  0  0  0
   43.9720   35.1160   41.7050 C   0  0  1  0  0  0  0  0  0  0  0  0
   42.7140   34.5990   41.0960 C   0  0  2  0  0  0  0  0  0  0  0  0
   42.7580   33.5440   40.0100 C   0  0  0  0  0  0  0  0  0  0  0  0
   42.5020   34.9680   39.6210 C   0  0  1  0  0  0  0  0  0  0  0  0
   41.1550   35.4970   39.2910 C   0  0  0  0  0  0  0  0  0  0  0  0
   40.7810   35.5600   37.8600 C   0  0  0  0  0  0  0  0  0  0  0  0
   39.6720   34.5360   37.6320 C   0  0  0  0  0  0  0  0  0  0  0  0
   39.0130   34.5060   38.9840 C   0  0  0  0  0  0  0  0  0  0  0  0
   40.1390   34.5680   39.9670 C   0  0  0  0  0  0  0  0  0  0  0  0
   45.5550   34.9470   43.7660 C   0  0  0  0  0  0  0  0  0  0  0  0
   44.8730   34.4480   46.0820 C   0  0  0  0  0  0  0  0  0  0  0  0
   45.6860   34.1540   44.9680 C   0  0  0  0  0  0  0  0  0  0  0  0
   46.6060   33.0950   45.0600 C   0  0  0  0  0  0  0  0  0  0  0  0
   46.6740   32.3890   46.2280 N   0  0  0  0  0  0  0  0  0  0  0  0
   45.8670   32.7100   47.2790 C   0  0  0  0  0  0  0  0  0  0  0  0
   44.9710   33.7280   47.2170 N   0  0  0  0  0  0  0  0  0  0  0  0
   44.4393   33.4846   43.3217 H   0  0  0  0  0  0  0  0  0  0  0  0
   45.3079   33.7389   40.5200 H   0  0  0  0  0  0  0  0  0  0  0  0
   46.2014   34.9698   40.8141 H   0  0  0  0  0  0  0  0  0  0  0  0
   43.5321   36.1233   41.7473 H   0  0  0  0  0  0  0  0  0  0  0  0
   42.1642   34.6807   42.0452 H   0  0  0  0  0  0  0  0  0  0  0  0
   43.7150   33.0694   39.7476 H   0  0  0  0  0  0  0  0  0  0  0  0
   42.2334   32.5924   39.8387 H   0  0  0  0  0  0  0  0  0  0  0  0
   42.9617   35.6090   38.8543 H   0  0  0  0  0  0  0  0  0  0  0  0
   41.1636   36.5415   39.6358 H   0  0  0  0  0  0  0  0  0  0  0  0
   40.4189   36.5682   37.6102 H   0  0  0  0  0  0  0  0  0  0  0  0
   41.6495   35.3402   37.2217 H   0  0  0  0  0  0  0  0  0  0  0  0
   38.9724   34.8679   36.8507 H   0  0  0  0  0  0  0  0  0  0  0  0
   40.0298   33.5556   37.2843 H   0  0  0  0  0  0  0  0  0  0  0  0
   38.3446   35.3709   39.1072 H   0  0  0  0  0  0  0  0  0  0  0  0
   38.3945   33.6068   39.1215 H   0  0  0  0  0  0  0  0  0  0  0  0
   40.5699   33.5699   40.1345 H   0  0  0  0  0  0  0  0  0  0  0  0
   39.8232   34.9274   40.9575 H   0  0  0  0  0  0  0  0  0  0  0  0
   46.5639   35.1305   43.3680 H   0  0  0  0  0  0  0  0  0  0  0  0
   45.0253   35.8644   44.0624 H   0  0  0  0  0  0  0  0  0  0  0  0
   44.1501   35.2750   46.0239 H   0  0  0  0  0  0  0  0  0  0  0  0
   47.2568   32.8403   44.2105 H   0  0  0  0  0  0  0  0  0  0  0  0
   45.9444   32.1251   48.2074 H   0  0  0  0  0  0  0  0  0  0  0  0
  1 12  1  0
  2  3  1  0
  2  1  1  0
  3  1  1  0
  4  3  1  0
  5  4  1  0
  6  5  1  0
  6  4  1  0
  7  6  1  0
  7 11  1  0
  8  7  1  0
  9  8  1  0
  9 10  1  0
 10 11  1  0
 12 14  1  0
 13 18  2  0
 14 15  2  0
 14 13  1  0
 15 16  1  0
 16 17  2  0
 18 17  1  0
  1 19  1  1
  2 20  1  0
  2 21  1  0
  3 22  1  1
  4 23  1  1
  5 24  1  0
  5 25  1  0
  6 26  1  6
  7 27  1  0
  8 28  1  0
  8 29  1  0
  9 30  1  0
  9 31  1  0
 10 32  1  0
 10 33  1  0
 11 34  1  0
 11 35  1  0
 12 36  1  0
 12 37  1  0
 13 38  1  0
 15 39  1  0
 17 40  1  0
M  ISO  8  19  13  20  13  21  13  22  13  23  13  24  13  25  13  26  13
M  ISO  8  27  13  28  13  29  13  30  13  31  13  32  13  33  13  34  13
M  ISO  6  35  13  36   8  37   8  38  14  39  14  40  14
M  END
>  <minimizedAffinity>  (1) 
-5.24916983

>  <minimizedRMSD>  (1) 
3.05655193

$$$$
