
     RDKit          3D

 35 38  0  0  1  0  0  0  0  0999 V2000
   42.8430   35.4220   41.3320 C   0  0  2  0  0  0  0  0  0  0  0  0
   41.8860   34.2350   41.5200 C   0  0  0  0  0  0  0  0  0  0  0  0
   42.1330   34.8290   40.1770 C   0  0  1  0  0  0  0  0  0  0  0  0
   41.0120   35.5370   39.5170 C   0  0  2  0  0  0  0  0  0  0  0  0
   39.5800   35.3220   39.9210 C   0  0  0  0  0  0  0  0  0  0  0  0
   40.0880   34.7140   38.6470 C   0  0  2  0  0  0  0  0  0  0  0  0
   40.3120   33.2700   38.5430 C   0  0  0  0  0  0  0  0  0  0  0  0
   39.3880   32.4760   39.2290 C   0  0  0  0  0  0  0  0  0  0  0  0
   39.4990   31.0890   39.2080 C   0  0  0  0  0  0  0  0  0  0  0  0
   40.5070   30.5370   38.5180 N   0  0  0  0  0  0  0  0  0  0  0  0
   41.3750   31.3530   37.8690 C   0  0  0  0  0  0  0  0  0  0  0  0
   41.2940   32.6950   37.8710 N   0  0  0  0  0  0  0  0  0  0  0  0
   44.2870   35.0970   41.6010 C   0  0  0  0  0  0  0  0  0  0  0  0
   44.3380   35.8120   43.9620 C   0  0  0  0  0  0  0  0  0  0  0  0
   44.6160   34.8200   42.9830 C   0  0  0  0  0  0  0  0  0  0  0  0
   45.2000   33.6070   43.3970 C   0  0  0  0  0  0  0  0  0  0  0  0
   45.4740   33.4410   44.7230 N   0  0  0  0  0  0  0  0  0  0  0  0
   45.1970   34.4030   45.6300 C   0  0  0  0  0  0  0  0  0  0  0  0
   44.6380   35.5700   45.2530 N   0  0  0  0  0  0  0  0  0  0  0  0
   42.9494   36.4570   41.6891 H   0  0  0  0  0  0  0  0  0  0  0  0
   42.2812   33.2384   41.7662 H   0  0  0  0  0  0  0  0  0  0  0  0
   40.9995   34.0300   42.1381 H   0  0  0  0  0  0  0  0  0  0  0  0
   42.4814   34.4516   39.2043 H   0  0  0  0  0  0  0  0  0  0  0  0
   41.6351   36.4371   39.4095 H   0  0  0  0  0  0  0  0  0  0  0  0
   39.3432   34.6774   40.7803 H   0  0  0  0  0  0  0  0  0  0  0  0
   38.7411   35.9834   40.1835 H   0  0  0  0  0  0  0  0  0  0  0  0
   39.7584   34.7422   37.5979 H   0  0  0  0  0  0  0  0  0  0  0  0
   38.5684   32.9505   39.7886 H   0  0  0  0  0  0  0  0  0  0  0  0
   38.7752   30.4592   39.7460 H   0  0  0  0  0  0  0  0  0  0  0  0
   42.1970   30.8872   37.3056 H   0  0  0  0  0  0  0  0  0  0  0  0
   44.5517   34.2109   41.0054 H   0  0  0  0  0  0  0  0  0  0  0  0
   44.8553   35.9990   41.3301 H   0  0  0  0  0  0  0  0  0  0  0  0
   43.8819   36.7689   43.6683 H   0  0  0  0  0  0  0  0  0  0  0  0
   45.4292   32.8140   42.6699 H   0  0  0  0  0  0  0  0  0  0  0  0
   45.4309   34.2315   46.6911 H   0  0  0  0  0  0  0  0  0  0  0  0
  1  2  1  0
  1 13  1  0
  3  1  1  0
  3  2  1  0
  4  5  1  0
  4  3  1  0
  6  4  1  0
  6  5  1  0
  7  6  1  0
  7  8  2  0
  9  8  1  0
 10  9  2  0
 11 12  2  0
 11 10  1  0
 12  7  1  0
 13 15  1  0
 14 19  2  0
 15 16  2  0
 15 14  1  0
 16 17  1  0
 17 18  2  0
 19 18  1  0
  1 20  1  1
  2 21  1  0
  2 22  1  0
  3 23  1  6
  4 24  1  6
  5 25  1  0
  5 26  1  0
  6 27  1  6
  8 28  1  0
  9 29  1  0
 11 30  1  0
 13 31  1  0
 13 32  1  0
 14 33  1  0
 16 34  1  0
 18 35  1  0
M  ISO  8  20  13  21  13  22  13  23  13  24  13  25  13  26  13  27  13
M  ISO  8  28  14  29  14  30  14  31   8  32   8  33  14  34  14  35  14
M  END
>  <minimizedAffinity>  (1) 
-4.98344326

>  <minimizedRMSD>  (1) 
2.06980681

$$$$
