
     RDKit          3D

 36 38  0  0  1  0  0  0  0  0999 V2000
   44.0480   34.7760   42.1260 C   0  0  2  0  0  0  0  0  0  0  0  0
   44.6060   34.3470   40.7450 C   0  0  0  0  0  0  0  0  0  0  0  0
   43.5710   35.4240   40.8930 C   0  0  1  0  0  0  0  0  0  0  0  0
   42.1970   35.1770   40.3580 C   0  0  2  0  0  0  0  0  0  0  0  0
   41.8610   33.8600   39.7010 C   0  0  0  0  0  0  0  0  0  0  0  0
   42.1060   35.0830   38.8470 C   0  0  1  0  0  0  0  0  0  0  0  0
   40.9300   35.7030   38.1480 C   0  0  0  0  0  0  0  0  0  0  0  0
   39.9200   34.7240   37.6380 C   0  0  0  0  0  0  0  0  0  0  0  0
   41.3470   36.6250   37.0080 C   0  0  0  0  0  0  0  0  0  0  0  0
   45.0640   35.4070   43.0260 C   0  0  0  0  0  0  0  0  0  0  0  0
   44.9870   34.6140   45.3470 C   0  0  0  0  0  0  0  0  0  0  0  0
   45.5860   34.5730   44.0810 C   0  0  0  0  0  0  0  0  0  0  0  0
   46.6820   33.7150   43.8820 C   0  0  0  0  0  0  0  0  0  0  0  0
   47.1070   32.9640   44.9340 N   0  0  0  0  0  0  0  0  0  0  0  0
   46.5030   33.0270   46.1510 C   0  0  0  0  0  0  0  0  0  0  0  0
   45.4420   33.8520   46.3640 N   0  0  0  0  0  0  0  0  0  0  0  0
   43.5084   34.3345   42.9768 H   0  0  0  0  0  0  0  0  0  0  0  0
   44.3360   33.3714   40.3146 H   0  0  0  0  0  0  0  0  0  0  0  0
   45.6018   34.2645   40.2850 H   0  0  0  0  0  0  0  0  0  0  0  0
   43.4957   36.4786   40.5893 H   0  0  0  0  0  0  0  0  0  0  0  0
   41.7194   35.7541   41.1635 H   0  0  0  0  0  0  0  0  0  0  0  0
   42.5938   33.0396   39.7086 H   0  0  0  0  0  0  0  0  0  0  0  0
   41.0426   33.1313   39.7967 H   0  0  0  0  0  0  0  0  0  0  0  0
   42.7785   35.3370   38.0144 H   0  0  0  0  0  0  0  0  0  0  0  0
   40.4447   36.2910   38.9409 H   0  0  0  0  0  0  0  0  0  0  0  0
   39.4187   34.2380   38.4880 H   0  0  0  0  0  0  0  0  0  0  0  0
   39.1743   35.2520   37.0255 H   0  0  0  0  0  0  0  0  0  0  0  0
   40.4245   33.9622   37.0255 H   0  0  0  0  0  0  0  0  0  0  0  0
   41.7669   37.5535   37.4223 H   0  0  0  0  0  0  0  0  0  0  0  0
   42.1058   36.1233   36.3895 H   0  0  0  0  0  0  0  0  0  0  0  0
   40.4692   36.8636   36.3895 H   0  0  0  0  0  0  0  0  0  0  0  0
   45.9111   35.7287   42.4023 H   0  0  0  0  0  0  0  0  0  0  0  0
   44.5376   36.2287   43.5336 H   0  0  0  0  0  0  0  0  0  0  0  0
   44.1285   35.2807   45.5155 H   0  0  0  0  0  0  0  0  0  0  0  0
   47.1815   33.6527   42.9039 H   0  0  0  0  0  0  0  0  0  0  0  0
   46.8776   32.4020   46.9750 H   0  0  0  0  0  0  0  0  0  0  0  0
  1 10  1  0
  2  3  1  0
  2  1  1  0
  3  1  1  0
  4  3  1  0
  5  4  1  0
  6  5  1  0
  6  4  1  0
  7  6  1  0
  8  7  1  0
  9  7  1  0
 10 12  1  0
 11 16  2  0
 12 11  1  0
 13 12  2  0
 13 14  1  0
 14 15  2  0
 15 16  1  0
  1 17  1  1
  2 18  1  0
  2 19  1  0
  3 20  1  1
  4 21  1  1
  5 22  1  0
  5 23  1  0
  6 24  1  6
  7 25  1  0
  8 26  1  0
  8 27  1  0
  8 28  1  0
  9 29  1  0
  9 30  1  0
  9 31  1  0
 10 32  1  0
 10 33  1  0
 11 34  1  0
 13 35  1  0
 15 36  1  0
M  ISO  8  17  13  18  13  19  13  20  13  21  13  22  13  23  13  24  13
M  ISO  8  25   8  26   8  27   8  28   8  29   8  30   8  31   8  32   8
M  ISO  4  33   8  34  14  35  14  36  14
M  END
>  <minimizedAffinity>  (1) 
-5.02844

>  <minimizedRMSD>  (1) 
1.82609427

$$$$
