
     RDKit          3D

 33 36  0  0  1  0  0  0  0  0999 V2000
   48.1410   33.2610   39.1830 C   0  0  2  0  0  0  0  0  0  0  0  0
   48.2940   34.0810   37.8710 C   0  0  0  0  0  0  0  0  0  0  0  0
   48.0430   32.5600   37.8770 C   0  0  1  0  0  0  0  0  0  0  0  0
   45.6810   34.0440   41.7100 N   0  0  0  0  0  0  0  0  0  0  0  0
   44.8600   33.8410   40.6310 C   0  0  0  0  0  0  0  0  0  0  0  0
   45.5950   33.5270   39.5520 N   0  0  0  0  0  0  0  0  0  0  0  0
   46.8990   33.5340   39.9680 C   0  0  0  0  0  0  0  0  0  0  0  0
   46.8880   33.8480   41.2590 N   0  0  0  0  0  0  0  0  0  0  0  0
   44.7820   35.6670   43.2500 C   0  0  0  0  0  0  0  0  0  0  0  0
   45.3850   34.3910   43.0480 C   0  0  0  0  0  0  0  0  0  0  0  0
   45.6220   33.6180   44.1500 C   0  0  0  0  0  0  0  0  0  0  0  0
   45.2670   34.1180   45.3650 N   0  0  0  0  0  0  0  0  0  0  0  0
   44.7020   35.3210   45.5240 C   0  0  0  0  0  0  0  0  0  0  0  0
   44.4620   36.0900   44.4560 N   0  0  0  0  0  0  0  0  0  0  0  0
   49.0900   31.6260   37.5230 C   0  0  0  0  0  0  0  0  0  0  0  0
   48.7830   30.3770   37.5210 O   0  0  0  0  0  0  0  0  0  0  0  0
   50.3640   32.0420   37.2000 O   0  0  0  0  0  0  0  0  0  0  0  0
   53.4190   31.6060   38.8540 N   0  0  0  0  0  0  0  0  0  0  0  0
   52.6710   31.9060   37.7870 N   0  0  0  0  0  0  0  0  0  0  0  0
   51.3740   31.7880   38.1230 C   0  0  0  0  0  0  0  0  0  0  0  0
   51.2870   31.4010   39.4450 C   0  0  0  0  0  0  0  0  0  0  0  0
   52.6100   31.2990   39.8660 C   0  0  0  0  0  0  0  0  0  0  0  0
   48.7431   33.0814   40.0859 H   0  0  0  0  0  0  0  0  0  0  0  0
   49.2746   34.4828   37.5762 H   0  0  0  0  0  0  0  0  0  0  0  0
   47.8102   34.9629   37.4259 H   0  0  0  0  0  0  0  0  0  0  0  0
   47.2958   31.9221   37.3822 H   0  0  0  0  0  0  0  0  0  0  0  0
   43.7632   33.9231   40.6468 H   0  0  0  0  0  0  0  0  0  0  0  0
   44.5799   36.3112   42.3816 H   0  0  0  0  0  0  0  0  0  0  0  0
   46.0845   32.6242   44.0579 H   0  0  0  0  0  0  0  0  0  0  0  0
   44.4357   35.6764   46.5304 H   0  0  0  0  0  0  0  0  0  0  0  0
   54.4484   31.6115   38.8874 H   0  0  0  0  0  0  0  0  0  0  0  0
   50.3766   31.2149   40.0338 H   0  0  0  0  0  0  0  0  0  0  0  0
   52.9359   31.0101   40.8761 H   0  0  0  0  0  0  0  0  0  0  0  0
  1  7  1  0
  2  3  1  0
  2  1  1  0
  3  1  1  0
  4 10  1  0
  5  4  1  0
  6  7  1  0
  6  5  2  0
  7  8  2  0
  8  4  1  0
  9 14  2  0
 10  9  1  0
 10 11  2  0
 11 12  1  0
 12 13  2  0
 14 13  1  0
 15  3  1  0
 16 15  2  0
 17 15  1  0
 17 20  1  0
 18 22  1  0
 19 20  2  0
 19 18  1  0
 20 21  1  0
 21 22  2  0
  1 23  1  1
  2 24  1  0
  2 25  1  0
  3 26  1  6
  5 27  1  0
  9 28  1  0
 11 29  1  0
 13 30  1  0
 18 31  1  0
 21 32  1  0
 22 33  1  0
M  ISO  8  23  13  24  13  25  13  26  13  27  14  28  14  29  14  30  14
M  ISO  3  31   9  32  14  33  14
M  END
>  <minimizedAffinity>  (1) 
-4.62389755

>  <minimizedRMSD>  (1) 
1.40269482

$$$$
