
     RDKit          3D

 30 32  0  0  1  0  0  0  0  0999 V2000
   43.0600   35.3850   41.2580 C   0  0  2  0  0  0  0  0  0  0  0  0
   42.1030   34.1990   41.4270 C   0  0  0  0  0  0  0  0  0  0  0  0
   42.4230   34.7750   40.0790 C   0  0  1  0  0  0  0  0  0  0  0  0
   41.3380   35.4490   39.3280 C   0  0  2  0  0  0  0  0  0  0  0  0
   39.9000   35.0740   39.5070 C   0  0  0  0  0  0  0  0  0  0  0  0
   40.6320   34.5870   38.2860 C   0  0  2  0  0  0  0  0  0  0  0  0
   40.9410   33.1420   38.2240 C   0  0  0  0  0  0  0  0  0  0  0  0
   40.3320   32.2120   38.7880 O   0  0  0  0  0  0  0  0  0  0  0  0
   42.0430   32.7470   37.4470 O   0  0  0  0  0  0  0  0  0  0  0  0
   44.4810   35.1080   41.6290 C   0  0  0  0  0  0  0  0  0  0  0  0
   44.3890   35.8090   43.9860 C   0  0  0  0  0  0  0  0  0  0  0  0
   44.7220   34.8420   43.0260 C   0  0  0  0  0  0  0  0  0  0  0  0
   45.2820   33.6410   43.4720 C   0  0  0  0  0  0  0  0  0  0  0  0
   45.4830   33.4530   44.8080 N   0  0  0  0  0  0  0  0  0  0  0  0
   45.1480   34.4110   45.7060 C   0  0  0  0  0  0  0  0  0  0  0  0
   44.6070   35.5760   45.2970 N   0  0  0  0  0  0  0  0  0  0  0  0
   43.1406   36.4292   41.5943 H   0  0  0  0  0  0  0  0  0  0  0  0
   42.4896   33.2101   41.7143 H   0  0  0  0  0  0  0  0  0  0  0  0
   41.1871   34.0000   42.0028 H   0  0  0  0  0  0  0  0  0  0  0  0
   42.8301   34.3898   39.1325 H   0  0  0  0  0  0  0  0  0  0  0  0
   41.8633   36.4145   39.3710 H   0  0  0  0  0  0  0  0  0  0  0  0
   39.6147   34.3608   40.2944 H   0  0  0  0  0  0  0  0  0  0  0  0
   38.9709   35.6383   39.6754 H   0  0  0  0  0  0  0  0  0  0  0  0
   40.4931   34.6532   37.1968 H   0  0  0  0  0  0  0  0  0  0  0  0
   42.2832   31.7889   37.3795 H   0  0  0  0  0  0  0  0  0  0  0  0
   44.8153   34.2310   41.0553 H   0  0  0  0  0  0  0  0  0  0  0  0
   45.0361   36.0294   41.3990 H   0  0  0  0  0  0  0  0  0  0  0  0
   43.9468   36.7645   43.6676 H   0  0  0  0  0  0  0  0  0  0  0  0
   45.5577   32.8557   42.7528 H   0  0  0  0  0  0  0  0  0  0  0  0
   45.3191   34.2364   46.7785 H   0  0  0  0  0  0  0  0  0  0  0  0
  1  2  1  0
  1 10  1  0
  3  1  1  0
  3  2  1  0
  4  5  1  0
  4  3  1  0
  6  4  1  0
  6  5  1  0
  7  6  1  0
  7  8  2  0
  9  7  1  0
 10 12  1  0
 11 16  2  0
 12 13  2  0
 12 11  1  0
 13 14  1  0
 14 15  2  0
 16 15  1  0
  1 17  1  1
  2 18  1  0
  2 19  1  0
  3 20  1  6
  4 21  1  6
  5 22  1  0
  5 23  1  0
  6 24  1  6
  9 25  1  0
 10 26  1  0
 10 27  1  0
 11 28  1  0
 13 29  1  0
 15 30  1  0
M  ISO  8  17  13  18  13  19  13  20  13  21  13  22  13  23  13  24  13
M  ISO  6  25   3  26   8  27   8  28  14  29  14  30  14
M  END
>  <minimizedAffinity>  (1) 
-4.76661205

>  <minimizedRMSD>  (1) 
1.04745483

$$$$
