
     RDKit          3D

 28 30  0  0  1  0  0  0  0  0999 V2000
   43.0550   35.2640   41.3270 C   0  0  2  0  0  0  0  0  0  0  0  0
   42.2670   33.9550   41.2460 C   0  0  0  0  0  0  0  0  0  0  0  0
   42.5330   34.7990   40.0350 C   0  0  1  0  0  0  0  0  0  0  0  0
   41.3950   35.4660   39.3640 C   0  0  2  0  0  0  0  0  0  0  0  0
   40.0140   34.8880   39.3820 C   0  0  0  0  0  0  0  0  0  0  0  0
   40.8490   34.7480   38.1270 C   0  0  1  0  0  0  0  0  0  0  0  0
   40.4130   35.5110   37.0640 O   0  0  0  0  0  0  0  0  0  0  0  0
   44.5000   35.1280   41.7160 C   0  0  0  0  0  0  0  0  0  0  0  0
   44.3970   35.7590   44.0890 C   0  0  0  0  0  0  0  0  0  0  0  0
   44.7510   34.8160   43.0940 C   0  0  0  0  0  0  0  0  0  0  0  0
   45.3390   33.6050   43.5180 C   0  0  0  0  0  0  0  0  0  0  0  0
   45.5350   33.4030   44.8430 N   0  0  0  0  0  0  0  0  0  0  0  0
   45.1810   34.3340   45.7570 C   0  0  0  0  0  0  0  0  0  0  0  0
   44.6130   35.5120   45.3930 N   0  0  0  0  0  0  0  0  0  0  0  0
   42.9850   36.2326   41.8437 H   0  0  0  0  0  0  0  0  0  0  0  0
   42.7788   32.9897   41.3737 H   0  0  0  0  0  0  0  0  0  0  0  0
   41.3755   33.5386   41.7377 H   0  0  0  0  0  0  0  0  0  0  0  0
   43.0030   34.6363   39.0539 H   0  0  0  0  0  0  0  0  0  0  0  0
   41.7838   36.4613   39.6251 H   0  0  0  0  0  0  0  0  0  0  0  0
   39.7999   34.0022   39.9980 H   0  0  0  0  0  0  0  0  0  0  0  0
   39.0133   35.2883   39.6018 H   0  0  0  0  0  0  0  0  0  0  0  0
   41.2234   33.9313   37.4923 H   0  0  0  0  0  0  0  0  0  0  0  0
   39.9518   36.3182   37.4044 H   0  0  0  0  0  0  0  0  0  0  0  0
   44.9401   34.3273   41.1035 H   0  0  0  0  0  0  0  0  0  0  0  0
   44.9481   36.1185   41.5485 H   0  0  0  0  0  0  0  0  0  0  0  0
   43.9364   36.7120   43.7895 H   0  0  0  0  0  0  0  0  0  0  0  0
   45.6329   32.8388   42.7855 H   0  0  0  0  0  0  0  0  0  0  0  0
   45.3578   34.1317   46.8237 H   0  0  0  0  0  0  0  0  0  0  0  0
  1  8  1  0
  2  1  1  0
  3  2  1  0
  3  1  1  0
  4  5  1  0
  4  3  1  0
  6  4  1  0
  6  5  1  0
  7  6  1  0
  8 10  1  0
  9 14  2  0
 10 11  2  0
 10  9  1  0
 11 12  1  0
 12 13  2  0
 14 13  1  0
  1 15  1  1
  2 16  1  0
  2 17  1  0
  3 18  1  6
  4 19  1  6
  5 20  1  0
  5 21  1  0
  6 22  1  6
  7 23  1  0
  8 24  1  0
  8 25  1  0
  9 26  1  0
 11 27  1  0
 13 28  1  0
M  ISO  8  15  13  16  13  17  13  18  13  19  13  20  13  21  13  22  13
M  ISO  6  23   3  24   8  25   8  26  14  27  14  28  14
M  END
>  <minimizedAffinity>  (1) 
-4.58881903

>  <minimizedRMSD>  (1) 
0.37684983

$$$$
