
     RDKit          3D

 29 31  0  0  1  0  0  0  0  0999 V2000
   43.0840   34.6910   41.0960 C   0  0  2  0  0  0  0  0  0  0  0  0
   43.5610   34.0690   39.7750 C   0  0  0  0  0  0  0  0  0  0  0  0
   42.4780   35.1070   39.8350 C   0  0  1  0  0  0  0  0  0  0  0  0
   41.0930   34.7150   39.4550 C   0  0  2  0  0  0  0  0  0  0  0  0
   40.8010   33.9730   38.1880 C   0  0  0  0  0  0  0  0  0  0  0  0
   40.5330   35.4510   38.2290 C   0  0  2  0  0  0  0  0  0  0  0  0
   41.4790   36.2770   37.4430 C   0  0  0  0  0  0  0  0  0  0  0  0
   41.1720   36.9260   36.4640 O   0  0  0  0  0  0  0  0  0  0  0  0
   44.1010   35.5260   41.8150 C   0  0  0  0  0  0  0  0  0  0  0  0
   44.3210   35.8150   44.2480 C   0  0  0  0  0  0  0  0  0  0  0  0
   44.5300   35.0240   43.1090 C   0  0  0  0  0  0  0  0  0  0  0  0
   45.1470   33.7740   43.2690 C   0  0  0  0  0  0  0  0  0  0  0  0
   45.5180   33.3800   44.5140 N   0  0  0  0  0  0  0  0  0  0  0  0
   45.2940   34.1840   45.5910 C   0  0  0  0  0  0  0  0  0  0  0  0
   44.6970   35.4050   45.4730 N   0  0  0  0  0  0  0  0  0  0  0  0
   42.6453   34.3568   42.0478 H   0  0  0  0  0  0  0  0  0  0  0  0
   43.3182   33.0241   39.5316 H   0  0  0  0  0  0  0  0  0  0  0  0
   44.5231   33.9565   39.2537 H   0  0  0  0  0  0  0  0  0  0  0  0
   42.3136   36.0956   39.3815 H   0  0  0  0  0  0  0  0  0  0  0  0
   40.8136   34.5288   40.5025 H   0  0  0  0  0  0  0  0  0  0  0  0
   39.9586   33.2666   38.1512 H   0  0  0  0  0  0  0  0  0  0  0  0
   41.3884   33.3166   37.5292 H   0  0  0  0  0  0  0  0  0  0  0  0
   39.6710   36.1115   38.0535 H   0  0  0  0  0  0  0  0  0  0  0  0
   42.5295   36.3040   37.7681 H   0  0  0  0  0  0  0  0  0  0  0  0
   44.9898   35.6038   41.1715 H   0  0  0  0  0  0  0  0  0  0  0  0
   43.6089   36.4890   42.0162 H   0  0  0  0  0  0  0  0  0  0  0  0
   43.8369   36.7965   44.1369 H   0  0  0  0  0  0  0  0  0  0  0  0
   45.3271   33.1241   42.4000 H   0  0  0  0  0  0  0  0  0  0  0  0
   45.6045   33.8374   46.5877 H   0  0  0  0  0  0  0  0  0  0  0  0
  1  9  1  0
  2  3  1  0
  2  1  1  0
  3  1  1  0
  4  3  1  0
  5  6  1  0
  5  4  1  0
  6  4  1  0
  7  6  1  0
  8  7  2  0
  9 11  1  0
 10 15  2  0
 11 12  2  0
 11 10  1  0
 12 13  1  0
 13 14  2  0
 15 14  1  0
  1 16  1  1
  2 17  1  0
  2 18  1  0
  3 19  1  6
  4 20  1  1
  5 21  1  0
  5 22  1  0
  6 23  1  1
  7 24  1  0
  9 25  1  0
  9 26  1  0
 10 27  1  0
 12 28  1  0
 14 29  1  0
M  ISO  8  16  13  17  13  18  13  19  13  20  13  21  13  22  13  23  13
M  ISO  6  24   6  25   8  26   8  27  14  28  14  29  14
M  END
>  <minimizedAffinity>  (1) 
-4.61572981

>  <minimizedRMSD>  (1) 
1.14950514

$$$$
