
     RDKit          3D

 30 32  0  0  1  0  0  0  0  0999 V2000
   42.6460   35.3650   41.5100 C   0  0  2  0  0  0  0  0  0  0  0  0
   42.0310   33.9930   41.2240 C   0  0  0  0  0  0  0  0  0  0  0  0
   42.0690   35.0610   40.1840 C   0  0  1  0  0  0  0  0  0  0  0  0
   40.7820   35.6670   39.7420 C   0  0  2  0  0  0  0  0  0  0  0  0
   39.4710   34.9550   39.9330 C   0  0  0  0  0  0  0  0  0  0  0  0
   40.1140   35.0130   38.5540 C   0  0  2  0  0  0  0  0  0  0  0  0
   40.5720   33.6770   38.0420 C   0  0  0  0  0  0  0  0  0  0  0  0
   44.1260   35.3850   41.7700 C   0  0  0  0  0  0  0  0  0  0  0  0
   44.3010   35.8080   44.1980 C   0  0  0  0  0  0  0  0  0  0  0  0
   44.5350   34.9750   43.0930 C   0  0  0  0  0  0  0  0  0  0  0  0
   45.1730   33.7320   43.2960 C   0  0  0  0  0  0  0  0  0  0  0  0
   45.5350   33.4040   44.5760 N   0  0  0  0  0  0  0  0  0  0  0  0
   45.2900   34.2380   45.6100 C   0  0  0  0  0  0  0  0  0  0  0  0
   44.6760   35.4390   45.4360 N   0  0  0  0  0  0  0  0  0  0  0  0
   42.4982   36.2009   42.2095 H   0  0  0  0  0  0  0  0  0  0  0  0
   42.6747   33.1059   41.1309 H   0  0  0  0  0  0  0  0  0  0  0  0
   41.2492   33.3705   41.6836 H   0  0  0  0  0  0  0  0  0  0  0  0
   42.4626   35.1428   39.1601 H   0  0  0  0  0  0  0  0  0  0  0  0
   41.1268   36.6739   40.0198 H   0  0  0  0  0  0  0  0  0  0  0  0
   39.4367   34.0039   40.4845 H   0  0  0  0  0  0  0  0  0  0  0  0
   38.4892   35.2296   40.3461 H   0  0  0  0  0  0  0  0  0  0  0  0
   39.8720   35.3821   37.5464 H   0  0  0  0  0  0  0  0  0  0  0  0
   40.7984   33.0166   38.8920 H   0  0  0  0  0  0  0  0  0  0  0  0
   39.7769   33.2268   37.4295 H   0  0  0  0  0  0  0  0  0  0  0  0
   41.4761   33.8094   37.4295 H   0  0  0  0  0  0  0  0  0  0  0  0
   44.6058   34.7120   41.0442 H   0  0  0  0  0  0  0  0  0  0  0  0
   44.4332   36.4368   41.6737 H   0  0  0  0  0  0  0  0  0  0  0  0
   43.8032   36.7776   44.0494 H   0  0  0  0  0  0  0  0  0  0  0  0
   45.3725   33.0507   42.4558 H   0  0  0  0  0  0  0  0  0  0  0  0
   45.5962   33.9368   46.6227 H   0  0  0  0  0  0  0  0  0  0  0  0
  1  8  1  0
  2  1  1  0
  3  2  1  0
  3  1  1  0
  4  5  1  0
  4  3  1  0
  6  4  1  0
  6  5  1  0
  7  6  1  0
  8 10  1  0
  9 14  2  0
 10 11  2  0
 10  9  1  0
 11 12  1  0
 12 13  2  0
 14 13  1  0
  1 15  1  1
  2 16  1  0
  2 17  1  0
  3 18  1  6
  4 19  1  6
  5 20  1  0
  5 21  1  0
  6 22  1  6
  7 23  1  0
  7 24  1  0
  7 25  1  0
  8 26  1  0
  8 27  1  0
  9 28  1  0
 11 29  1  0
 13 30  1  0
M  ISO  8  15  13  16  13  17  13  18  13  19  13  20  13  21  13  22  13
M  ISO  8  23   8  24   8  25   8  26   8  27   8  28  14  29  14  30  14
M  END
>  <minimizedAffinity>  (1) 
-4.71302414

>  <minimizedRMSD>  (1) 
0.573831499

$$$$
