
     RDKit          3D

 29 31  0  0  1  0  0  0  0  0999 V2000
   42.7910   35.3550   41.4990 C   0  0  2  0  0  0  0  0  0  0  0  0
   42.1690   33.9680   41.2290 C   0  0  0  0  0  0  0  0  0  0  0  0
   42.2490   35.0280   40.1700 C   0  0  1  0  0  0  0  0  0  0  0  0
   40.9880   35.6220   39.6680 C   0  0  2  0  0  0  0  0  0  0  0  0
   39.7090   34.8240   39.5920 C   0  0  0  0  0  0  0  0  0  0  0  0
   40.4850   35.0950   38.3280 C   0  0  2  0  0  0  0  0  0  0  0  0
   41.1380   33.9120   37.7820 N   0  0  0  0  0  0  0  0  0  0  0  0
   44.2610   35.3230   41.7980 C   0  0  0  0  0  0  0  0  0  0  0  0
   44.3280   35.8020   44.2140 C   0  0  0  0  0  0  0  0  0  0  0  0
   44.6110   34.9320   43.1420 C   0  0  0  0  0  0  0  0  0  0  0  0
   45.2350   33.6930   43.4290 C   0  0  0  0  0  0  0  0  0  0  0  0
   45.5340   33.4010   44.7300 N   0  0  0  0  0  0  0  0  0  0  0  0
   45.2390   34.2780   45.7330 C   0  0  0  0  0  0  0  0  0  0  0  0
   44.6410   35.4680   45.4740 N   0  0  0  0  0  0  0  0  0  0  0  0
   42.6333   36.2179   42.1628 H   0  0  0  0  0  0  0  0  0  0  0  0
   42.8075   33.0742   41.1704 H   0  0  0  0  0  0  0  0  0  0  0  0
   41.3713   33.3584   41.6785 H   0  0  0  0  0  0  0  0  0  0  0  0
   42.6762   35.0944   39.1585 H   0  0  0  0  0  0  0  0  0  0  0  0
   41.2366   36.5945   40.1180 H   0  0  0  0  0  0  0  0  0  0  0  0
   39.6734   33.8052   40.0053 H   0  0  0  0  0  0  0  0  0  0  0  0
   38.6710   34.9940   39.9138 H   0  0  0  0  0  0  0  0  0  0  0  0
   40.2936   35.5647   37.3519 H   0  0  0  0  0  0  0  0  0  0  0  0
   41.4676   33.3148   38.5537 H   0  0  0  0  0  0  0  0  0  0  0  0
   40.4677   33.3862   37.2032 H   0  0  0  0  0  0  0  0  0  0  0  0
   44.7330   34.6120   41.1040 H   0  0  0  0  0  0  0  0  0  0  0  0
   44.6166   36.3574   41.6811 H   0  0  0  0  0  0  0  0  0  0  0  0
   43.8433   36.7690   44.0140 H   0  0  0  0  0  0  0  0  0  0  0  0
   45.4732   32.9827   42.6235 H   0  0  0  0  0  0  0  0  0  0  0  0
   45.4908   34.0152   46.7710 H   0  0  0  0  0  0  0  0  0  0  0  0
  1  8  1  0
  2  1  1  0
  3  2  1  0
  3  1  1  0
  4  3  1  0
  5  4  1  0
  6  5  1  0
  6  4  1  0
  7  6  1  0
  8 10  1  0
  9 14  2  0
 10 11  2  0
 10  9  1  0
 11 12  1  0
 12 13  2  0
 14 13  1  0
  1 15  1  1
  2 16  1  0
  2 17  1  0
  3 18  1  6
  4 19  1  6
  5 20  1  0
  5 21  1  0
  6 22  1  6
  7 23  1  0
  7 24  1  0
  8 25  1  0
  8 26  1  0
  9 27  1  0
 11 28  1  0
 13 29  1  0
M  ISO  8  15  13  16  13  17  13  18  13  19  13  20  13  21  13  22  13
M  ISO  7  23   5  24   5  25   8  26   8  27  14  28  14  29  14
M  END
>  <minimizedAffinity>  (1) 
-4.67052317

>  <minimizedRMSD>  (1) 
0.358166188

$$$$
