
     RDKit          3D

 45 48  0  0  1  0  0  0  0  0999 V2000
   43.8580   35.2390   42.3080 C   0  0  2  0  0  0  0  0  0  0  0  0
   43.9640   34.5750   40.9180 C   0  0  0  0  0  0  0  0  0  0  0  0
   43.1280   35.7470   41.1410 C   0  0  1  0  0  0  0  0  0  0  0  0
   41.6360   35.6460   41.0520 C   0  0  2  0  0  0  0  0  0  0  0  0
   40.8680   34.9220   42.1000 C   0  0  0  0  0  0  0  0  0  0  0  0
   41.1390   34.2690   40.7710 C   0  0  1  0  0  0  0  0  0  0  0  0
   40.1600   33.9990   39.7990 N   0  0  0  0  0  0  0  0  0  0  0  0
   40.2350   34.6590   38.5620 C   0  0  0  0  0  0  0  0  0  0  0  0
   39.0610   34.2850   37.6970 C   0  0  0  0  0  0  0  0  0  0  0  0
   39.0080   32.8920   37.6010 O   0  0  0  0  0  0  0  0  0  0  0  0
   38.6300   32.4150   38.8470 C   0  0  0  0  0  0  0  0  0  0  0  0
   39.2250   32.9980   40.0330 C   0  0  0  0  0  0  0  0  0  0  0  0
   45.1370   35.8420   42.7980 C   0  0  0  0  0  0  0  0  0  0  0  0
   46.4660   33.9700   43.7240 C   0  0  0  0  0  0  0  0  0  0  0  0
   46.2950   34.9780   42.7680 C   0  0  0  0  0  0  0  0  0  0  0  0
   47.2800   35.1160   41.7860 C   0  0  0  0  0  0  0  0  0  0  0  0
   48.3640   34.2710   41.7940 N   0  0  0  0  0  0  0  0  0  0  0  0
   48.4700   33.3120   42.7510 C   0  0  0  0  0  0  0  0  0  0  0  0
   47.5370   33.1540   43.7110 N   0  0  0  0  0  0  0  0  0  0  0  0
   49.6370   32.5090   42.6320 N   0  0  0  0  0  0  0  0  0  0  0  0
   50.3580   32.5440   41.4240 C   0  0  0  0  0  0  0  0  0  0  0  0
   49.8060   32.5770   40.2650 N   0  0  0  0  0  0  0  0  0  0  0  0
   51.8020   32.5380   41.3970 N   0  0  0  0  0  0  0  0  0  0  0  0
   48.7720   32.5800   40.1960 H   0  0  0  0  0  0  0  0  0  0  0  0
   43.5390   34.9999   43.3332 H   0  0  0  0  0  0  0  0  0  0  0  0
   43.5039   33.5924   40.7366 H   0  0  0  0  0  0  0  0  0  0  0  0
   44.7828   34.3116   40.2323 H   0  0  0  0  0  0  0  0  0  0  0  0
   43.0666   36.7377   40.6670 H   0  0  0  0  0  0  0  0  0  0  0  0
   41.5265   36.6521   40.6209 H   0  0  0  0  0  0  0  0  0  0  0  0
   41.3776   34.5605   43.0053 H   0  0  0  0  0  0  0  0  0  0  0  0
   39.9672   35.1361   42.6938 H   0  0  0  0  0  0  0  0  0  0  0  0
   41.5845   33.3128   40.4593 H   0  0  0  0  0  0  0  0  0  0  0  0
   40.2299   35.7461   38.7300 H   0  0  0  0  0  0  0  0  0  0  0  0
   41.1633   34.3601   38.0532 H   0  0  0  0  0  0  0  0  0  0  0  0
   38.1317   34.6615   38.1494 H   0  0  0  0  0  0  0  0  0  0  0  0
   39.1733   34.7281   36.6965 H   0  0  0  0  0  0  0  0  0  0  0  0
   37.8896   31.6062   38.9339 H   0  0  0  0  0  0  0  0  0  0  0  0
   38.9552   32.6708   41.0480 H   0  0  0  0  0  0  0  0  0  0  0  0
   45.3561   36.7208   42.1737 H   0  0  0  0  0  0  0  0  0  0  0  0
   44.9680   36.0760   43.8594 H   0  0  0  0  0  0  0  0  0  0  0  0
   45.7046   33.8409   44.5073 H   0  0  0  0  0  0  0  0  0  0  0  0
   47.1885   35.8939   41.0137 H   0  0  0  0  0  0  0  0  0  0  0  0
   49.9482   31.9143   43.4133 H   0  0  0  0  0  0  0  0  0  0  0  0
   52.3004   32.5643   40.4960 H   0  0  0  0  0  0  0  0  0  0  0  0
   52.3335   32.5074   42.2788 H   0  0  0  0  0  0  0  0  0  0  0  0
  1 13  1  0
  2  3  1  0
  2  1  1  0
  3  1  1  0
  4  3  1  0
  4  5  1  0
  6  4  1  0
  6  5  1  0
  7 12  1  0
  7  6  1  0
  8  7  1  0
  9  8  1  0
 10  9  1  0
 10 11  1  0
 11 12  2  0
 15 13  1  0
 15 14  2  0
 16 17  2  0
 16 15  1  0
 17 18  1  0
 18 19  2  0
 19 14  1  0
 20 18  1  0
 21 20  1  0
 22 21  2  0
 23 21  1  0
 24 22  1  0
  1 25  1  1
  2 26  1  0
  2 27  1  0
  3 28  1  6
  4 29  1  6
  5 30  1  0
  5 31  1  0
  6 32  1  1
  8 33  1  0
  8 34  1  0
  9 35  1  0
  9 36  1  0
 11 37  1  0
 12 38  1  0
 13 39  1  0
 13 40  1  0
 14 41  1  0
 16 42  1  0
 20 43  1  0
 23 44  1  0
 23 45  1  0
M  ISO  8  25  13  26  13  27  13  28  13  29  13  30  13  31  13  32  13
M  ISO  8  33  13  34  13  35  13  36  13  37  13  38  13  39   8  40   8
M  ISO  2  41  14  42  14
M  END
>  <minimizedAffinity>  (1) 
-5.93856764

>  <minimizedRMSD>  (1) 
0.532055199

$$$$
