
     RDKit          3D

 48 52  0  0  1  0  0  0  0  0999 V2000
   42.5580   34.9580   41.1760 C   0  0  2  0  0  0  0  0  0  0  0  0
   42.1930   35.5670   39.8070 C   0  0  0  0  0  0  0  0  0  0  0  0
   41.2490   35.5710   40.9190 C   0  0  1  0  0  0  0  0  0  0  0  0
   40.0010   34.7490   40.8560 C   0  0  2  0  0  0  0  0  0  0  0  0
   39.8440   33.5470   41.7210 C   0  0  0  0  0  0  0  0  0  0  0  0
   40.1920   33.3950   40.2650 C   0  0  1  0  0  0  0  0  0  0  0  0
   39.3330   32.8600   39.2910 N   0  0  0  0  0  0  0  0  0  0  0  0
   38.9770   33.6630   38.1950 C   0  0  0  0  0  0  0  0  0  0  0  0
   37.9940   32.9400   37.3110 C   0  0  0  0  0  0  0  0  0  0  0  0
   38.5520   31.7100   36.9490 O   0  0  0  0  0  0  0  0  0  0  0  0
   38.5590   30.9260   38.0980 C   0  0  0  0  0  0  0  0  0  0  0  0
   38.9650   31.5250   39.3600 C   0  0  0  0  0  0  0  0  0  0  0  0
   43.6700   35.6740   41.8800 C   0  0  0  0  0  0  0  0  0  0  0  0
   45.2730   34.1330   40.7600 C   0  0  0  0  0  0  0  0  0  0  0  0
   44.9770   35.0530   41.7920 C   0  0  0  0  0  0  0  0  0  0  0  0
   45.9750   35.3770   42.7330 C   0  0  0  0  0  0  0  0  0  0  0  0
   47.2200   34.7790   42.6130 N   0  0  0  0  0  0  0  0  0  0  0  0
   47.4230   33.9080   41.5930 C   0  0  0  0  0  0  0  0  0  0  0  0
   46.4970   33.5670   40.6690 N   0  0  0  0  0  0  0  0  0  0  0  0
   48.7680   33.2990   41.5070 C   0  0  0  0  0  0  0  0  0  0  0  0
   49.0290   32.3200   40.5700 C   0  0  0  0  0  0  0  0  0  0  0  0
   50.2890   31.7360   40.4750 C   0  0  0  0  0  0  0  0  0  0  0  0
   51.2230   32.2120   41.3720 C   0  0  0  0  0  0  0  0  0  0  0  0
   51.0140   33.1880   42.3260 C   0  0  0  0  0  0  0  0  0  0  0  0
   49.7320   33.7450   42.3860 C   0  0  0  0  0  0  0  0  0  0  0  0
   42.8466   33.9935   41.6192 H   0  0  0  0  0  0  0  0  0  0  0  0
   42.0227   34.9145   38.9379 H   0  0  0  0  0  0  0  0  0  0  0  0
   42.6294   36.3277   39.1430 H   0  0  0  0  0  0  0  0  0  0  0  0
   40.6767   36.3590   41.4304 H   0  0  0  0  0  0  0  0  0  0  0  0
   39.3575   35.6248   40.6861 H   0  0  0  0  0  0  0  0  0  0  0  0
   40.5945   33.3221   42.4932 H   0  0  0  0  0  0  0  0  0  0  0  0
   39.0527   33.1574   42.3784 H   0  0  0  0  0  0  0  0  0  0  0  0
   40.9907   32.8776   39.7132 H   0  0  0  0  0  0  0  0  0  0  0  0
   38.5187   34.5935   38.5612 H   0  0  0  0  0  0  0  0  0  0  0  0
   39.8810   33.8909   37.6113 H   0  0  0  0  0  0  0  0  0  0  0  0
   37.0535   32.7755   37.8572 H   0  0  0  0  0  0  0  0  0  0  0  0
   37.7801   33.5383   36.4131 H   0  0  0  0  0  0  0  0  0  0  0  0
   38.2617   29.8679   38.0530 H   0  0  0  0  0  0  0  0  0  0  0  0
   38.9791   30.9585   40.3028 H   0  0  0  0  0  0  0  0  0  0  0  0
   43.7466   36.6836   41.4500 H   0  0  0  0  0  0  0  0  0  0  0  0
   43.4047   35.6606   42.9474 H   0  0  0  0  0  0  0  0  0  0  0  0
   44.4984   33.8750   40.0228 H   0  0  0  0  0  0  0  0  0  0  0  0
   45.7703   36.0895   43.5457 H   0  0  0  0  0  0  0  0  0  0  0  0
   48.2291   31.9962   39.8878 H   0  0  0  0  0  0  0  0  0  0  0  0
   50.5228   30.9527   39.7390 H   0  0  0  0  0  0  0  0  0  0  0  0
   52.2300   31.7721   41.3224 H   0  0  0  0  0  0  0  0  0  0  0  0
   51.8161   33.5118   43.0055 H   0  0  0  0  0  0  0  0  0  0  0  0
   49.4968   34.5268   43.1232 H   0  0  0  0  0  0  0  0  0  0  0  0
  1 13  1  0
  2  3  1  0
  2  1  1  0
  3  1  1  0
  4  3  1  0
  4  5  1  0
  6  4  1  0
  6  5  1  0
  7 12  1  0
  7  6  1  0
  8  7  1  0
  9  8  1  0
 10  9  1  0
 10 11  1  0
 11 12  2  0
 14 15  2  0
 15 13  1  0
 15 16  1  0
 17 16  2  0
 18 17  1  0
 19 14  1  0
 19 18  2  0
 20 18  1  0
 20 25  1  0
 21 20  2  0
 22 21  1  0
 22 23  2  0
 23 24  1  0
 24 25  2  0
  1 26  1  6
  2 27  1  0
  2 28  1  0
  3 29  1  1
  4 30  1  6
  5 31  1  0
  5 32  1  0
  6 33  1  1
  8 34  1  0
  8 35  1  0
  9 36  1  0
  9 37  1  0
 11 38  1  0
 12 39  1  0
 13 40  1  0
 13 41  1  0
 14 42  1  0
 16 43  1  0
 21 44  1  0
 22 45  1  0
 23 46  1  0
 24 47  1  0
 25 48  1  0
M  ISO  8  26  13  27  13  28  13  29  13  30  13  31  13  32  13  33  13
M  ISO  8  34  13  35  13  36  13  37  13  38  13  39  13  40   8  41   8
M  ISO  7  42  14  43  14  44  14  45  14  46  14  47  14  48  14
M  END
>  <minimizedAffinity>  (1) 
-5.79893351

>  <minimizedRMSD>  (1) 
2.19198322

$$$$
