
     RDKit          3D

 51 55  0  0  1  0  0  0  0  0999 V2000
   43.7760   35.2510   42.3280 C   0  0  2  0  0  0  0  0  0  0  0  0
   43.8760   34.4640   41.0020 C   0  0  0  0  0  0  0  0  0  0  0  0
   43.0810   35.6810   41.1130 C   0  0  1  0  0  0  0  0  0  0  0  0
   41.5890   35.6270   41.0060 C   0  0  2  0  0  0  0  0  0  0  0  0
   40.7820   34.9800   42.0780 C   0  0  0  0  0  0  0  0  0  0  0  0
   41.0460   34.2520   40.7860 C   0  0  1  0  0  0  0  0  0  0  0  0
   40.0700   33.9780   39.8130 N   0  0  0  0  0  0  0  0  0  0  0  0
   40.1360   34.6510   38.5810 C   0  0  0  0  0  0  0  0  0  0  0  0
   38.9830   34.2570   37.7000 C   0  0  0  0  0  0  0  0  0  0  0  0
   38.9560   32.8630   37.5970 O   0  0  0  0  0  0  0  0  0  0  0  0
   38.5680   32.3810   38.8390 C   0  0  0  0  0  0  0  0  0  0  0  0
   39.1430   32.9650   40.0360 C   0  0  0  0  0  0  0  0  0  0  0  0
   45.0710   35.8420   42.7870 C   0  0  0  0  0  0  0  0  0  0  0  0
   46.4870   34.0280   43.7060 C   0  0  0  0  0  0  0  0  0  0  0  0
   46.2280   34.9730   42.7050 C   0  0  0  0  0  0  0  0  0  0  0  0
   47.1140   35.0480   41.6370 C   0  0  0  0  0  0  0  0  0  0  0  0
   48.2010   34.2130   41.5840 N   0  0  0  0  0  0  0  0  0  0  0  0
   48.3970   33.3120   42.5930 C   0  0  0  0  0  0  0  0  0  0  0  0
   47.5550   33.2090   43.6540 N   0  0  0  0  0  0  0  0  0  0  0  0
   49.5110   32.4290   42.5770 N   0  0  0  0  0  0  0  0  0  0  0  0
   49.4160   31.0240   42.8810 C   0  0  0  0  0  0  0  0  0  0  0  0
   50.0500   30.2540   41.7440 C   0  0  0  0  0  0  0  0  0  0  0  0
   51.3870   30.6510   41.6300 O   0  0  0  0  0  0  0  0  0  0  0  0
   51.4190   31.9730   41.1910 C   0  0  0  0  0  0  0  0  0  0  0  0
   50.8450   32.9080   42.2420 C   0  0  0  0  0  0  0  0  0  0  0  0
   43.4337   35.1163   43.3647 H   0  0  0  0  0  0  0  0  0  0  0  0
   43.3823   33.4865   40.8986 H   0  0  0  0  0  0  0  0  0  0  0  0
   44.6926   34.1128   40.3540 H   0  0  0  0  0  0  0  0  0  0  0  0
   43.0621   36.6300   40.5571 H   0  0  0  0  0  0  0  0  0  0  0  0
   41.5203   36.6135   40.5241 H   0  0  0  0  0  0  0  0  0  0  0  0
   41.2675   34.6463   43.0069 H   0  0  0  0  0  0  0  0  0  0  0  0
   39.8817   35.2538   42.6476 H   0  0  0  0  0  0  0  0  0  0  0  0
   41.4597   33.2652   40.5308 H   0  0  0  0  0  0  0  0  0  0  0  0
   40.1004   35.7359   38.7594 H   0  0  0  0  0  0  0  0  0  0  0  0
   41.0756   34.3786   38.0781 H   0  0  0  0  0  0  0  0  0  0  0  0
   38.0407   34.6143   38.1410 H   0  0  0  0  0  0  0  0  0  0  0  0
   39.1022   34.7051   36.7025 H   0  0  0  0  0  0  0  0  0  0  0  0
   37.8333   31.5659   38.9150 H   0  0  0  0  0  0  0  0  0  0  0  0
   38.8660   32.6310   41.0468 H   0  0  0  0  0  0  0  0  0  0  0  0
   45.2728   36.7308   42.1712 H   0  0  0  0  0  0  0  0  0  0  0  0
   44.9366   36.0584   43.8571 H   0  0  0  0  0  0  0  0  0  0  0  0
   45.7977   33.9525   44.5599 H   0  0  0  0  0  0  0  0  0  0  0  0
   46.9433   35.7785   40.8325 H   0  0  0  0  0  0  0  0  0  0  0  0
   49.9478   30.8087   43.8195 H   0  0  0  0  0  0  0  0  0  0  0  0
   48.3627   30.7300   43.0001 H   0  0  0  0  0  0  0  0  0  0  0  0
   49.9998   29.1752   41.9530 H   0  0  0  0  0  0  0  0  0  0  0  0
   49.5146   30.4591   40.8052 H   0  0  0  0  0  0  0  0  0  0  0  0
   52.4611   32.2589   40.9853 H   0  0  0  0  0  0  0  0  0  0  0  0
   50.8105   32.0548   40.2783 H   0  0  0  0  0  0  0  0  0  0  0  0
   51.4822   32.9006   43.1386 H   0  0  0  0  0  0  0  0  0  0  0  0
   50.8004   33.9383   41.8592 H   0  0  0  0  0  0  0  0  0  0  0  0
  1 13  1  0
  2  3  1  0
  2  1  1  0
  3  1  1  0
  4  3  1  0
  4  5  1  0
  6  4  1  0
  6  5  1  0
  7 12  1  0
  7  6  1  0
  8  7  1  0
  9  8  1  0
 10  9  1  0
 10 11  1  0
 11 12  2  0
 15 13  1  0
 15 14  2  0
 16 15  1  0
 17 16  2  0
 17 18  1  0
 18 19  2  0
 19 14  1  0
 20 18  1  0
 20 21  1  0
 22 21  1  0
 23 22  1  0
 24 23  1  0
 24 25  1  0
 25 20  1  0
  1 26  1  1
  2 27  1  0
  2 28  1  0
  3 29  1  6
  4 30  1  6
  5 31  1  0
  5 32  1  0
  6 33  1  1
  8 34  1  0
  8 35  1  0
  9 36  1  0
  9 37  1  0
 11 38  1  0
 12 39  1  0
 13 40  1  0
 13 41  1  0
 14 42  1  0
 16 43  1  0
 21 44  1  0
 21 45  1  0
 22 46  1  0
 22 47  1  0
 24 48  1  0
 24 49  1  0
 25 50  1  0
 25 51  1  0
M  ISO  8  26  13  27  13  28  13  29  13  30  13  31  13  32  13  33  13
M  ISO  8  34  13  35  13  36  13  37  13  38  13  39  13  40   8  41   8
M  ISO  8  42  14  43  14  44  13  45  13  46  13  47  13  48  13  49  13
M  ISO  2  50  13  51  13
M  END
>  <minimizedAffinity>  (1) 
-5.61881924

>  <minimizedRMSD>  (1) 
0.682943046

$$$$
