
     RDKit          3D

 44 48  0  0  1  0  0  0  0  0999 V2000
   42.7070   34.9180   41.3390 C   0  0  2  0  0  0  0  0  0  0  0  0
   42.4110   35.4160   39.9080 C   0  0  0  0  0  0  0  0  0  0  0  0
   41.4240   35.5210   40.9750 C   0  0  1  0  0  0  0  0  0  0  0  0
   40.1660   34.7080   40.9280 C   0  0  2  0  0  0  0  0  0  0  0  0
   40.0530   33.4490   41.7160 C   0  0  0  0  0  0  0  0  0  0  0  0
   40.3230   33.3940   40.2310 C   0  0  1  0  0  0  0  0  0  0  0  0
   39.4010   32.9420   39.2730 N   0  0  0  0  0  0  0  0  0  0  0  0
   38.9870   33.8220   38.2600 C   0  0  0  0  0  0  0  0  0  0  0  0
   37.9510   33.1690   37.3860 C   0  0  0  0  0  0  0  0  0  0  0  0
   38.4670   31.9580   36.9190 O   0  0  0  0  0  0  0  0  0  0  0  0
   38.5300   31.0990   38.0050 C   0  0  0  0  0  0  0  0  0  0  0  0
   39.0180   31.6040   39.2730 C   0  0  0  0  0  0  0  0  0  0  0  0
   43.8010   35.6590   42.0360 C   0  0  0  0  0  0  0  0  0  0  0  0
   45.5180   34.2930   40.8780 C   0  0  0  0  0  0  0  0  0  0  0  0
   45.1140   35.0530   41.9740 C   0  0  0  0  0  0  0  0  0  0  0  0
   46.0240   35.2150   43.0210 C   0  0  0  0  0  0  0  0  0  0  0  0
   47.2660   34.6380   42.9530 N   0  0  0  0  0  0  0  0  0  0  0  0
   47.5940   33.9060   41.8470 C   0  0  0  0  0  0  0  0  0  0  0  0
   46.7360   33.7260   40.8100 N   0  0  0  0  0  0  0  0  0  0  0  0
   48.8470   33.2620   41.6600 N   0  0  0  0  0  0  0  0  0  0  0  0
   49.9600   33.5890   42.3390 C   0  0  0  0  0  0  0  0  0  0  0  0
   50.9840   32.8070   41.9470 N   0  0  0  0  0  0  0  0  0  0  0  0
   50.4770   31.9740   40.9950 C   0  0  0  0  0  0  0  0  0  0  0  0
   49.1720   32.2780   40.8450 N   0  0  0  0  0  0  0  0  0  0  0  0
   42.9603   33.9905   41.8734 H   0  0  0  0  0  0  0  0  0  0  0  0
   42.2677   34.6961   39.0887 H   0  0  0  0  0  0  0  0  0  0  0  0
   42.8860   36.1140   39.2028 H   0  0  0  0  0  0  0  0  0  0  0  0
   40.8430   36.3559   41.3937 H   0  0  0  0  0  0  0  0  0  0  0  0
   39.5157   35.5924   40.8573 H   0  0  0  0  0  0  0  0  0  0  0  0
   40.8433   33.1735   42.4298 H   0  0  0  0  0  0  0  0  0  0  0  0
   39.2969   33.0151   42.3868 H   0  0  0  0  0  0  0  0  0  0  0  0
   41.0888   32.9110   39.6063 H   0  0  0  0  0  0  0  0  0  0  0  0
   38.5571   34.7249   38.7182 H   0  0  0  0  0  0  0  0  0  0  0  0
   39.8573   34.0881   37.6421 H   0  0  0  0  0  0  0  0  0  0  0  0
   37.0370   32.9830   37.9691 H   0  0  0  0  0  0  0  0  0  0  0  0
   37.7033   33.8256   36.5390 H   0  0  0  0  0  0  0  0  0  0  0  0
   38.2144   30.0499   37.9061 H   0  0  0  0  0  0  0  0  0  0  0  0
   39.0812   30.9738   40.1724 H   0  0  0  0  0  0  0  0  0  0  0  0
   43.8702   36.6601   41.5855 H   0  0  0  0  0  0  0  0  0  0  0  0
   43.5255   35.6643   43.1009 H   0  0  0  0  0  0  0  0  0  0  0  0
   44.8181   34.1521   40.0412 H   0  0  0  0  0  0  0  0  0  0  0  0
   45.7432   35.8080   43.9039 H   0  0  0  0  0  0  0  0  0  0  0  0
   50.0249   34.3786   43.1021 H   0  0  0  0  0  0  0  0  0  0  0  0
   51.0309   31.1962   40.4490 H   0  0  0  0  0  0  0  0  0  0  0  0
  1 13  1  0
  2  3  1  0
  2  1  1  0
  3  1  1  0
  4  3  1  0
  4  5  1  0
  6  4  1  0
  6  5  1  0
  7  6  1  0
  8  7  1  0
  9  8  1  0
 10  9  1  0
 10 11  1  0
 11 12  2  0
 12  7  1  0
 14 15  2  0
 15 13  1  0
 15 16  1  0
 17 16  2  0
 18 17  1  0
 19 14  1  0
 19 18  2  0
 20 18  1  0
 20 21  1  0
 22 21  2  0
 23 22  1  0
 24 23  2  0
 24 20  1  0
  1 25  1  6
  2 26  1  0
  2 27  1  0
  3 28  1  1
  4 29  1  6
  5 30  1  0
  5 31  1  0
  6 32  1  1
  8 33  1  0
  8 34  1  0
  9 35  1  0
  9 36  1  0
 11 37  1  0
 12 38  1  0
 13 39  1  0
 13 40  1  0
 14 41  1  0
 16 42  1  0
 21 43  1  0
 23 44  1  0
M  ISO  8  25  13  26  13  27  13  28  13  29  13  30  13  31  13  32  13
M  ISO  8  33  13  34  13  35  13  36  13  37  13  38  13  39   8  40   8
M  ISO  4  41  14  42  14  43  14  44  14
M  END
>  <minimizedAffinity>  (1) 
-5.64560843

>  <minimizedRMSD>  (1) 
2.16189456

$$$$
