
     RDKit          3D

 48 52  0  0  1  0  0  0  0  0999 V2000
   43.9450   35.2880   42.4030 C   0  0  2  0  0  0  0  0  0  0  0  0
   43.9830   34.3470   41.1780 C   0  0  0  0  0  0  0  0  0  0  0  0
   43.3240   35.6470   41.1250 C   0  0  1  0  0  0  0  0  0  0  0  0
   41.8350   35.7360   40.9830 C   0  0  2  0  0  0  0  0  0  0  0  0
   40.9420   35.2350   42.0620 C   0  0  0  0  0  0  0  0  0  0  0  0
   41.1660   34.4130   40.8170 C   0  0  1  0  0  0  0  0  0  0  0  0
   40.1890   34.1770   39.8350 N   0  0  0  0  0  0  0  0  0  0  0  0
   40.4140   34.6530   38.5320 C   0  0  0  0  0  0  0  0  0  0  0  0
   39.2340   34.3520   37.6500 C   0  0  0  0  0  0  0  0  0  0  0  0
   38.9620   32.9840   37.7220 O   0  0  0  0  0  0  0  0  0  0  0  0
   38.4600   32.7410   38.9940 C   0  0  0  0  0  0  0  0  0  0  0  0
   39.0950   33.3750   40.1360 C   0  0  0  0  0  0  0  0  0  0  0  0
   45.2870   35.7920   42.8320 C   0  0  0  0  0  0  0  0  0  0  0  0
   46.5940   33.8530   43.6600 C   0  0  0  0  0  0  0  0  0  0  0  0
   46.3780   34.8510   42.7110 C   0  0  0  0  0  0  0  0  0  0  0  0
   47.2600   34.9110   41.6240 C   0  0  0  0  0  0  0  0  0  0  0  0
   48.2880   34.0130   41.5220 N   0  0  0  0  0  0  0  0  0  0  0  0
   48.4370   33.0600   42.4930 C   0  0  0  0  0  0  0  0  0  0  0  0
   47.6020   32.9710   43.5580 N   0  0  0  0  0  0  0  0  0  0  0  0
   49.5440   32.1220   42.3460 C   0  0  0  0  0  0  0  0  0  0  0  0
   49.5260   30.9210   43.0250 C   0  0  0  0  0  0  0  0  0  0  0  0
   50.5940   30.0420   42.8690 C   0  0  0  0  0  0  0  0  0  0  0  0
   51.6260   30.4350   42.0290 C   0  0  0  0  0  0  0  0  0  0  0  0
   51.6770   31.6380   41.3300 C   0  0  0  0  0  0  0  0  0  0  0  0
   50.5940   32.4670   41.5220 C   0  0  0  0  0  0  0  0  0  0  0  0
   43.5714   35.3084   43.4374 H   0  0  0  0  0  0  0  0  0  0  0  0
   44.9254   34.1804   40.6357 H   0  0  0  0  0  0  0  0  0  0  0  0
   43.6897   33.3065   40.9748 H   0  0  0  0  0  0  0  0  0  0  0  0
   43.4199   36.5213   40.4644 H   0  0  0  0  0  0  0  0  0  0  0  0
   41.8763   36.6981   40.4514 H   0  0  0  0  0  0  0  0  0  0  0  0
   41.3680   34.9079   43.0220 H   0  0  0  0  0  0  0  0  0  0  0  0
   40.0596   35.6276   42.5886 H   0  0  0  0  0  0  0  0  0  0  0  0
   41.4892   33.3797   40.6226 H   0  0  0  0  0  0  0  0  0  0  0  0
   40.5720   35.7411   38.5664 H   0  0  0  0  0  0  0  0  0  0  0  0
   41.3030   34.1535   38.1194 H   0  0  0  0  0  0  0  0  0  0  0  0
   39.4672   34.6294   36.6114 H   0  0  0  0  0  0  0  0  0  0  0  0
   38.3582   34.9276   37.9842 H   0  0  0  0  0  0  0  0  0  0  0  0
   37.5938   32.0778   39.1345 H   0  0  0  0  0  0  0  0  0  0  0  0
   38.7356   33.2306   41.1655 H   0  0  0  0  0  0  0  0  0  0  0  0
   45.5298   36.6717   42.2179 H   0  0  0  0  0  0  0  0  0  0  0  0
   45.1963   36.0094   43.9065 H   0  0  0  0  0  0  0  0  0  0  0  0
   45.9150   33.7854   44.5228 H   0  0  0  0  0  0  0  0  0  0  0  0
   47.1260   35.6817   40.8506 H   0  0  0  0  0  0  0  0  0  0  0  0
   48.6807   30.6621   43.6795 H   0  0  0  0  0  0  0  0  0  0  0  0
   50.6188   29.0741   43.3910 H   0  0  0  0  0  0  0  0  0  0  0  0
   52.4707   29.7413   41.9055 H   0  0  0  0  0  0  0  0  0  0  0  0
   52.5184   31.9060   40.6741 H   0  0  0  0  0  0  0  0  0  0  0  0
   50.5660   33.4355   41.0011 H   0  0  0  0  0  0  0  0  0  0  0  0
  1 13  1  0
  2  1  1  0
  3  2  1  0
  3  1  1  0
  4  3  1  0
  4  5  1  0
  6  4  1  0
  6  5  1  0
  7 12  1  0
  7  6  1  0
  8  7  1  0
  9 10  1  0
  9  8  1  0
 10 11  1  0
 11 12  2  0
 15 13  1  0
 15 14  2  0
 16 15  1  0
 17 16  2  0
 17 18  1  0
 18 19  2  0
 19 14  1  0
 20 18  1  0
 20 21  2  0
 22 21  1  0
 23 22  2  0
 24 25  2  0
 24 23  1  0
 25 20  1  0
  1 26  1  1
  2 27  1  0
  2 28  1  0
  3 29  1  6
  4 30  1  6
  5 31  1  0
  5 32  1  0
  6 33  1  1
  8 34  1  0
  8 35  1  0
  9 36  1  0
  9 37  1  0
 11 38  1  0
 12 39  1  0
 13 40  1  0
 13 41  1  0
 14 42  1  0
 16 43  1  0
 21 44  1  0
 22 45  1  0
 23 46  1  0
 24 47  1  0
 25 48  1  0
M  ISO  8  26  13  27  13  28  13  29  13  30  13  31  13  32  13  33  13
M  ISO  8  34  13  35  13  36  13  37  13  38  13  39  13  40   8  41   8
M  ISO  7  42  14  43  14  44  14  45  14  46  14  47  14  48  14
M  END
>  <minimizedAffinity>  (1) 
-5.44442892

>  <minimizedRMSD>  (1) 
0.816791594

$$$$
