
     RDKit          3D

 45 49  0  0  1  0  0  0  0  0999 V2000
   43.8390   35.2920   42.3840 C   0  0  2  0  0  0  0  0  0  0  0  0
   43.9100   34.4040   41.1260 C   0  0  0  0  0  0  0  0  0  0  0  0
   43.2000   35.6760   41.1170 C   0  0  1  0  0  0  0  0  0  0  0  0
   41.7080   35.7050   40.9810 C   0  0  2  0  0  0  0  0  0  0  0  0
   40.8380   35.1380   42.0460 C   0  0  0  0  0  0  0  0  0  0  0  0
   41.0850   34.3680   40.7790 C   0  0  1  0  0  0  0  0  0  0  0  0
   40.1200   34.1170   39.7890 N   0  0  0  0  0  0  0  0  0  0  0  0
   40.3250   34.6320   38.4990 C   0  0  0  0  0  0  0  0  0  0  0  0
   39.1450   34.3180   37.6160 C   0  0  0  0  0  0  0  0  0  0  0  0
   38.9300   32.9360   37.6460 O   0  0  0  0  0  0  0  0  0  0  0  0
   38.4480   32.6370   38.9140 C   0  0  0  0  0  0  0  0  0  0  0  0
   39.0620   33.2620   40.0700 C   0  0  0  0  0  0  0  0  0  0  0  0
   45.1670   35.8310   42.8240 C   0  0  0  0  0  0  0  0  0  0  0  0
   46.4450   33.9520   43.8060 C   0  0  0  0  0  0  0  0  0  0  0  0
   46.2730   34.9070   42.7800 C   0  0  0  0  0  0  0  0  0  0  0  0
   47.1980   34.9280   41.7180 C   0  0  0  0  0  0  0  0  0  0  0  0
   48.2340   34.0170   41.7170 N   0  0  0  0  0  0  0  0  0  0  0  0
   48.3300   33.1280   42.7380 C   0  0  0  0  0  0  0  0  0  0  0  0
   47.4710   33.0660   43.7810 N   0  0  0  0  0  0  0  0  0  0  0  0
   49.4960   32.2690   42.5220 C   0  0  0  0  0  0  0  0  0  0  0  0
   50.5160   32.6960   41.6640 C   0  0  0  0  0  0  0  0  0  0  0  0
   51.4920   31.6950   41.6430 C   0  0  0  0  0  0  0  0  0  0  0  0
   50.9900   30.7170   42.4990 C   0  0  0  0  0  0  0  0  0  0  0  0
   49.8220   31.1020   42.9850 O   0  0  0  0  0  0  0  0  0  0  0  0
   43.4674   35.2586   43.4188 H   0  0  0  0  0  0  0  0  0  0  0  0
   44.8575   34.2948   40.5780 H   0  0  0  0  0  0  0  0  0  0  0  0
   43.6566   33.3610   40.8851 H   0  0  0  0  0  0  0  0  0  0  0  0
   43.2595   36.5771   40.4889 H   0  0  0  0  0  0  0  0  0  0  0  0
   41.7138   36.6822   40.4760 H   0  0  0  0  0  0  0  0  0  0  0  0
   41.2794   34.7956   42.9936 H   0  0  0  0  0  0  0  0  0  0  0  0
   39.9444   35.4816   42.5877 H   0  0  0  0  0  0  0  0  0  0  0  0
   41.4418   33.3523   40.5530 H   0  0  0  0  0  0  0  0  0  0  0  0
   40.4523   35.7229   38.5600 H   0  0  0  0  0  0  0  0  0  0  0  0
   41.2261   34.1705   38.0689 H   0  0  0  0  0  0  0  0  0  0  0  0
   39.3556   34.6395   36.5853 H   0  0  0  0  0  0  0  0  0  0  0  0
   38.2509   34.8488   37.9750 H   0  0  0  0  0  0  0  0  0  0  0  0
   37.6108   31.9347   39.0399 H   0  0  0  0  0  0  0  0  0  0  0  0
   38.7145   33.0723   41.0963 H   0  0  0  0  0  0  0  0  0  0  0  0
   45.4154   36.6836   42.1748 H   0  0  0  0  0  0  0  0  0  0  0  0
   45.0427   36.0925   43.8852 H   0  0  0  0  0  0  0  0  0  0  0  0
   45.7317   33.9264   44.6430 H   0  0  0  0  0  0  0  0  0  0  0  0
   47.0960   35.6591   40.9025 H   0  0  0  0  0  0  0  0  0  0  0  0
   50.5446   33.6449   41.1082 H   0  0  0  0  0  0  0  0  0  0  0  0
   52.4374   31.6825   41.0808 H   0  0  0  0  0  0  0  0  0  0  0  0
   51.4906   29.7664   42.7353 H   0  0  0  0  0  0  0  0  0  0  0  0
  1 13  1  0
  2  1  1  0
  3  2  1  0
  3  1  1  0
  4  3  1  0
  4  5  1  0
  6  4  1  0
  6  5  1  0
  7 12  1  0
  7  6  1  0
  8  7  1  0
  9 10  1  0
  9  8  1  0
 10 11  1  0
 11 12  2  0
 15 13  1  0
 15 14  2  0
 16 15  1  0
 17 16  2  0
 17 18  1  0
 18 19  2  0
 19 14  1  0
 20 18  1  0
 20 24  1  0
 21 20  2  0
 22 21  1  0
 22 23  2  0
 23 24  1  0
  1 25  1  1
  2 26  1  0
  2 27  1  0
  3 28  1  6
  4 29  1  6
  5 30  1  0
  5 31  1  0
  6 32  1  1
  8 33  1  0
  8 34  1  0
  9 35  1  0
  9 36  1  0
 11 37  1  0
 12 38  1  0
 13 39  1  0
 13 40  1  0
 14 41  1  0
 16 42  1  0
 21 43  1  0
 22 44  1  0
 23 45  1  0
M  ISO  8  25  13  26  13  27  13  28  13  29  13  30  13  31  13  32  13
M  ISO  8  33  13  34  13  35  13  36  13  37  13  38  13  39   8  40   8
M  ISO  5  41  14  42  14  43  14  44  14  45  14
M  END
>  <minimizedAffinity>  (1) 
-5.31045151

>  <minimizedRMSD>  (1) 
0.573720217

$$$$
