
     RDKit          3D

 45 49  0  0  1  0  0  0  0  0999 V2000
   43.8030   35.2500   42.2860 C   0  0  2  0  0  0  0  0  0  0  0  0
   43.9120   34.6160   40.8820 C   0  0  0  0  0  0  0  0  0  0  0  0
   43.0560   35.7670   41.1400 C   0  0  1  0  0  0  0  0  0  0  0  0
   41.5650   35.6380   41.0630 C   0  0  2  0  0  0  0  0  0  0  0  0
   40.8160   34.8880   42.1100 C   0  0  0  0  0  0  0  0  0  0  0  0
   41.0930   34.2520   40.7750 C   0  0  1  0  0  0  0  0  0  0  0  0
   40.1140   33.9730   39.8060 N   0  0  0  0  0  0  0  0  0  0  0  0
   40.1680   34.6530   38.5770 C   0  0  0  0  0  0  0  0  0  0  0  0
   39.0000   34.2640   37.7090 C   0  0  0  0  0  0  0  0  0  0  0  0
   38.9830   32.8710   37.5920 O   0  0  0  0  0  0  0  0  0  0  0  0
   38.6150   32.3690   38.8340 C   0  0  0  0  0  0  0  0  0  0  0  0
   39.2010   32.9510   40.0270 C   0  0  0  0  0  0  0  0  0  0  0  0
   45.0780   35.8540   42.7820 C   0  0  0  0  0  0  0  0  0  0  0  0
   46.4640   33.9490   43.5540 C   0  0  0  0  0  0  0  0  0  0  0  0
   46.2570   35.0240   42.6740 C   0  0  0  0  0  0  0  0  0  0  0  0
   47.2240   35.2590   41.7010 C   0  0  0  0  0  0  0  0  0  0  0  0
   48.3320   34.4530   41.6240 N   0  0  0  0  0  0  0  0  0  0  0  0
   48.4710   33.4270   42.5070 C   0  0  0  0  0  0  0  0  0  0  0  0
   47.5530   33.1630   43.4720 N   0  0  0  0  0  0  0  0  0  0  0  0
   49.6060   32.5120   42.5140 C   0  0  0  0  0  0  0  0  0  0  0  0
   49.4830   31.1460   42.7850 C   0  0  0  0  0  0  0  0  0  0  0  0
   50.7670   30.6130   42.7000 C   0  0  0  0  0  0  0  0  0  0  0  0
   51.6090   31.6380   42.3900 N   0  0  0  0  0  0  0  0  0  0  0  0
   50.9070   32.7620   42.2820 N   0  0  0  0  0  0  0  0  0  0  0  0
   43.4932   34.9893   43.3088 H   0  0  0  0  0  0  0  0  0  0  0  0
   43.4694   33.6288   40.6831 H   0  0  0  0  0  0  0  0  0  0  0  0
   44.7295   34.3825   40.1840 H   0  0  0  0  0  0  0  0  0  0  0  0
   42.9721   36.7666   40.6885 H   0  0  0  0  0  0  0  0  0  0  0  0
   41.4333   36.6460   40.6428 H   0  0  0  0  0  0  0  0  0  0  0  0
   41.3375   34.5293   43.0096 H   0  0  0  0  0  0  0  0  0  0  0  0
   39.9140   35.0787   42.7100 H   0  0  0  0  0  0  0  0  0  0  0  0
   41.5556   33.3069   40.4546 H   0  0  0  0  0  0  0  0  0  0  0  0
   40.1374   35.7371   38.7611 H   0  0  0  0  0  0  0  0  0  0  0  0
   41.1012   34.3830   38.0609 H   0  0  0  0  0  0  0  0  0  0  0  0
   38.0630   34.6097   38.1699 H   0  0  0  0  0  0  0  0  0  0  0  0
   39.0966   34.7260   36.7154 H   0  0  0  0  0  0  0  0  0  0  0  0
   37.8915   31.5441   38.9117 H   0  0  0  0  0  0  0  0  0  0  0  0
   38.9395   32.6057   41.0381 H   0  0  0  0  0  0  0  0  0  0  0  0
   45.2604   36.7740   42.2073 H   0  0  0  0  0  0  0  0  0  0  0  0
   44.9288   36.0182   43.8594 H   0  0  0  0  0  0  0  0  0  0  0  0
   45.7144   33.7438   44.3325 H   0  0  0  0  0  0  0  0  0  0  0  0
   47.1000   36.0917   40.9930 H   0  0  0  0  0  0  0  0  0  0  0  0
   48.5567   30.6008   43.0188 H   0  0  0  0  0  0  0  0  0  0  0  0
   51.0485   29.5609   42.8544 H   0  0  0  0  0  0  0  0  0  0  0  0
   52.6274   31.5554   42.2600 H   0  0  0  0  0  0  0  0  0  0  0  0
  1 13  1  0
  2  3  1  0
  2  1  1  0
  3  1  1  0
  4  3  1  0
  4  5  1  0
  6  4  1  0
  6  5  1  0
  7 12  1  0
  7  6  1  0
  8  7  1  0
  9  8  1  0
 10  9  1  0
 10 11  1  0
 11 12  2  0
 15 13  1  0
 15 14  2  0
 16 15  1  0
 17 16  2  0
 17 18  1  0
 18 20  1  0
 18 19  2  0
 19 14  1  0
 20 21  1  0
 22 21  2  0
 23 22  1  0
 24 23  1  0
 24 20  2  0
  1 25  1  1
  2 26  1  0
  2 27  1  0
  3 28  1  6
  4 29  1  6
  5 30  1  0
  5 31  1  0
  6 32  1  1
  8 33  1  0
  8 34  1  0
  9 35  1  0
  9 36  1  0
 11 37  1  0
 12 38  1  0
 13 39  1  0
 13 40  1  0
 14 41  1  0
 16 42  1  0
 21 43  1  0
 22 44  1  0
 23 45  1  0
M  ISO  8  25  13  26  13  27  13  28  13  29  13  30  13  31  13  32  13
M  ISO  8  33  13  34  13  35  13  36  13  37  13  38  13  39   8  40   8
M  ISO  5  41  14  42  14  43  14  44  14  45   9
M  END
>  <minimizedAffinity>  (1) 
-5.26860857

>  <minimizedRMSD>  (1) 
0.821929157

$$$$
