
     RDKit          3D

 45 49  0  0  1  0  0  0  0  0999 V2000
   42.8290   34.9780   41.4320 C   0  0  2  0  0  0  0  0  0  0  0  0
   42.6100   35.3330   39.9460 C   0  0  0  0  0  0  0  0  0  0  0  0
   41.5990   35.6140   40.9580 C   0  0  1  0  0  0  0  0  0  0  0  0
   40.2920   34.8830   40.9490 C   0  0  2  0  0  0  0  0  0  0  0  0
   40.0900   33.6960   41.8270 C   0  0  0  0  0  0  0  0  0  0  0  0
   40.3690   33.5160   40.3540 C   0  0  1  0  0  0  0  0  0  0  0  0
   39.4310   33.0450   39.4200 N   0  0  0  0  0  0  0  0  0  0  0  0
   39.0490   33.8900   38.3640 C   0  0  0  0  0  0  0  0  0  0  0  0
   37.9990   33.2270   37.5150 C   0  0  0  0  0  0  0  0  0  0  0  0
   38.4770   31.9800   37.1060 O   0  0  0  0  0  0  0  0  0  0  0  0
   38.5060   31.1720   38.2370 C   0  0  0  0  0  0  0  0  0  0  0  0
   39.0050   31.7260   39.4830 C   0  0  0  0  0  0  0  0  0  0  0  0
   43.9490   35.7310   42.0780 C   0  0  0  0  0  0  0  0  0  0  0  0
   45.8710   34.9250   43.4220 C   0  0  0  0  0  0  0  0  0  0  0  0
   45.1990   35.0180   42.2060 C   0  0  0  0  0  0  0  0  0  0  0  0
   45.7760   34.3870   41.0900 C   0  0  0  0  0  0  0  0  0  0  0  0
   46.9650   33.7110   41.2350 N   0  0  0  0  0  0  0  0  0  0  0  0
   47.5590   33.6660   42.4550 C   0  0  0  0  0  0  0  0  0  0  0  0
   47.0320   34.2630   43.5540 N   0  0  0  0  0  0  0  0  0  0  0  0
   48.8490   32.9350   42.6260 C   0  0  0  0  0  0  0  0  0  0  0  0
   49.7320   32.6670   41.4850 C   0  0  0  0  0  0  0  0  0  0  0  0
   50.1350   33.7060   42.4560 C   0  0  0  0  0  0  0  0  0  0  0  0
   43.0044   34.1018   42.0734 H   0  0  0  0  0  0  0  0  0  0  0  0
   42.4461   34.5376   39.2040 H   0  0  0  0  0  0  0  0  0  0  0  0
   43.1504   35.9194   39.1883 H   0  0  0  0  0  0  0  0  0  0  0  0
   41.0603   36.5228   41.2646 H   0  0  0  0  0  0  0  0  0  0  0  0
   39.7015   35.7993   40.8018 H   0  0  0  0  0  0  0  0  0  0  0  0
   40.8543   33.4237   42.5698 H   0  0  0  0  0  0  0  0  0  0  0  0
   39.3017   33.3622   42.5177 H   0  0  0  0  0  0  0  0  0  0  0  0
   41.1081   32.9439   39.7740 H   0  0  0  0  0  0  0  0  0  0  0  0
   38.6436   34.8255   38.7769 H   0  0  0  0  0  0  0  0  0  0  0  0
   39.9300   34.1024   37.7405 H   0  0  0  0  0  0  0  0  0  0  0  0
   37.0772   33.0963   38.1009 H   0  0  0  0  0  0  0  0  0  0  0  0
   37.7780   33.8508   36.6363 H   0  0  0  0  0  0  0  0  0  0  0  0
   38.1566   30.1301   38.1887 H   0  0  0  0  0  0  0  0  0  0  0  0
   39.0427   31.1401   40.4132 H   0  0  0  0  0  0  0  0  0  0  0  0
   44.1365   36.6347   41.4796 H   0  0  0  0  0  0  0  0  0  0  0  0
   43.6161   35.9341   43.1066 H   0  0  0  0  0  0  0  0  0  0  0  0
   45.4349   35.4116   44.3069 H   0  0  0  0  0  0  0  0  0  0  0  0
   45.2806   34.4336   40.1090 H   0  0  0  0  0  0  0  0  0  0  0  0
   48.3934   32.3029   43.4024 H   0  0  0  0  0  0  0  0  0  0  0  0
   49.4183   32.9594   40.4721 H   0  0  0  0  0  0  0  0  0  0  0  0
   50.2138   31.7639   41.0822 H   0  0  0  0  0  0  0  0  0  0  0  0
   50.9805   33.5287   43.1370 H   0  0  0  0  0  0  0  0  0  0  0  0
   50.4105   34.7694   42.3982 H   0  0  0  0  0  0  0  0  0  0  0  0
  1 13  1  0
  2  3  1  0
  2  1  1  0
  3  1  1  0
  4  3  1  0
  4  5  1  0
  6  4  1  0
  6  5  1  0
  7 12  1  0
  7  6  1  0
  8  7  1  0
  9  8  1  0
 10  9  1  0
 10 11  1  0
 11 12  2  0
 13 15  1  0
 14 19  2  0
 15 14  1  0
 16 17  1  0
 16 15  2  0
 17 18  2  0
 18 20  1  0
 18 19  1  0
 21 22  1  0
 21 20  1  0
 22 20  1  0
  1 23  1  6
  2 24  1  0
  2 25  1  0
  3 26  1  1
  4 27  1  6
  5 28  1  0
  5 29  1  0
  6 30  1  1
  8 31  1  0
  8 32  1  0
  9 33  1  0
  9 34  1  0
 11 35  1  0
 12 36  1  0
 13 37  1  0
 13 38  1  0
 14 39  1  0
 16 40  1  0
 20 41  1  0
 21 42  1  0
 21 43  1  0
 22 44  1  0
 22 45  1  0
M  ISO  8  23  13  24  13  25  13  26  13  27  13  28  13  29  13  30  13
M  ISO  8  31  13  32  13  33  13  34  13  35  13  36  13  37   8  38   8
M  ISO  7  39  14  40  14  41  13  42  13  43  13  44  13  45  13
M  END
>  <minimizedAffinity>  (1) 
-5.2716465

>  <minimizedRMSD>  (1) 
1.55822563

$$$$
