
     RDKit          3D

 54 58  0  0  1  0  0  0  0  0999 V2000
   43.7770   35.1600   42.1830 C   0  0  2  0  0  0  0  0  0  0  0  0
   43.8720   34.6130   40.7430 C   0  0  0  0  0  0  0  0  0  0  0  0
   43.0320   35.7580   41.0730 C   0  0  1  0  0  0  0  0  0  0  0  0
   41.5410   35.6540   40.9900 C   0  0  2  0  0  0  0  0  0  0  0  0
   40.7730   34.9610   42.0610 C   0  0  0  0  0  0  0  0  0  0  0  0
   41.0440   34.2680   40.7510 C   0  0  1  0  0  0  0  0  0  0  0  0
   40.0650   33.9720   39.7890 N   0  0  0  0  0  0  0  0  0  0  0  0
   40.1140   34.6390   38.5520 C   0  0  0  0  0  0  0  0  0  0  0  0
   38.9540   34.2290   37.6850 C   0  0  0  0  0  0  0  0  0  0  0  0
   38.9410   32.8350   37.5880 O   0  0  0  0  0  0  0  0  0  0  0  0
   38.5760   32.3510   38.8350 C   0  0  0  0  0  0  0  0  0  0  0  0
   39.1550   32.9460   40.0230 C   0  0  0  0  0  0  0  0  0  0  0  0
   45.0600   35.7080   42.7140 C   0  0  0  0  0  0  0  0  0  0  0  0
   46.2140   33.6470   43.4270 C   0  0  0  0  0  0  0  0  0  0  0  0
   46.2040   34.8230   42.6760 C   0  0  0  0  0  0  0  0  0  0  0  0
   47.3180   35.1200   41.8940 C   0  0  0  0  0  0  0  0  0  0  0  0
   48.3870   34.2530   41.8840 N   0  0  0  0  0  0  0  0  0  0  0  0
   48.3320   33.1070   42.6480 C   0  0  0  0  0  0  0  0  0  0  0  0
   47.2600   32.8020   43.4140 N   0  0  0  0  0  0  0  0  0  0  0  0
   49.5190   32.1940   42.6000 C   0  0  0  0  0  0  0  0  0  0  0  0
   49.2210   30.8880   41.9230 C   0  0  0  0  0  0  0  0  0  0  0  0
   49.3260   31.0930   40.4340 C   0  0  0  0  0  0  0  0  0  0  0  0
   50.7770   31.2480   40.0730 C   0  0  0  0  0  0  0  0  0  0  0  0
   51.5630   31.9810   41.1270 C   0  0  0  0  0  0  0  0  0  0  0  0
   50.7010   32.8640   41.9870 C   0  0  0  0  0  0  0  0  0  0  0  0
   43.4662   34.8427   43.1894 H   0  0  0  0  0  0  0  0  0  0  0  0
   43.4153   33.6459   40.4859 H   0  0  0  0  0  0  0  0  0  0  0  0
   44.6842   34.4120   40.0290 H   0  0  0  0  0  0  0  0  0  0  0  0
   42.9598   36.7851   40.6858 H   0  0  0  0  0  0  0  0  0  0  0  0
   41.4308   36.6469   40.5296 H   0  0  0  0  0  0  0  0  0  0  0  0
   41.2832   34.6272   42.9766 H   0  0  0  0  0  0  0  0  0  0  0  0
   39.8724   35.1925   42.6486 H   0  0  0  0  0  0  0  0  0  0  0  0
   41.4896   33.3027   40.4687 H   0  0  0  0  0  0  0  0  0  0  0  0
   40.0711   35.7246   38.7243 H   0  0  0  0  0  0  0  0  0  0  0  0
   41.0511   34.3725   38.0413 H   0  0  0  0  0  0  0  0  0  0  0  0
   38.0131   34.5780   38.1355 H   0  0  0  0  0  0  0  0  0  0  0  0
   39.0566   34.6745   36.6845 H   0  0  0  0  0  0  0  0  0  0  0  0
   37.8551   31.5247   38.9217 H   0  0  0  0  0  0  0  0  0  0  0  0
   38.8936   32.6103   41.0374 H   0  0  0  0  0  0  0  0  0  0  0  0
   45.3101   36.6032   42.1257 H   0  0  0  0  0  0  0  0  0  0  0  0
   44.8754   35.9000   43.7813 H   0  0  0  0  0  0  0  0  0  0  0  0
   45.3397   33.4038   44.0486 H   0  0  0  0  0  0  0  0  0  0  0  0
   47.3431   36.0390   41.2900 H   0  0  0  0  0  0  0  0  0  0  0  0
   49.7679   31.9565   43.6448 H   0  0  0  0  0  0  0  0  0  0  0  0
   49.9470   30.1273   42.2460 H   0  0  0  0  0  0  0  0  0  0  0  0
   48.2100   30.5453   42.1883 H   0  0  0  0  0  0  0  0  0  0  0  0
   48.9044   30.2229   39.9094 H   0  0  0  0  0  0  0  0  0  0  0  0
   48.7666   31.9927   40.1379 H   0  0  0  0  0  0  0  0  0  0  0  0
   51.2151   30.2479   39.9393 H   0  0  0  0  0  0  0  0  0  0  0  0
   50.8276   31.8414   39.1482 H   0  0  0  0  0  0  0  0  0  0  0  0
   52.0620   31.2419   41.7710 H   0  0  0  0  0  0  0  0  0  0  0  0
   52.2881   32.6271   40.6105 H   0  0  0  0  0  0  0  0  0  0  0  0
   51.3260   33.2622   42.7999 H   0  0  0  0  0  0  0  0  0  0  0  0
   50.2996   33.6414   41.3203 H   0  0  0  0  0  0  0  0  0  0  0  0
  1 13  1  0
  2  3  1  0
  2  1  1  0
  3  1  1  0
  4  3  1  0
  4  5  1  0
  6  4  1  0
  6  5  1  0
  7 12  1  0
  7  6  1  0
  8  7  1  0
  9  8  1  0
 10  9  1  0
 10 11  1  0
 11 12  2  0
 15 13  1  0
 15 14  2  0
 16 15  1  0
 17 16  2  0
 17 18  1  0
 18 19  2  0
 19 14  1  0
 20 18  1  0
 21 20  1  0
 22 21  1  0
 23 22  1  0
 23 24  1  0
 24 25  1  0
 25 20  1  0
  1 26  1  1
  2 27  1  0
  2 28  1  0
  3 29  1  6
  4 30  1  6
  5 31  1  0
  5 32  1  0
  6 33  1  1
  8 34  1  0
  8 35  1  0
  9 36  1  0
  9 37  1  0
 11 38  1  0
 12 39  1  0
 13 40  1  0
 13 41  1  0
 14 42  1  0
 16 43  1  0
 20 44  1  0
 21 45  1  0
 21 46  1  0
 22 47  1  0
 22 48  1  0
 23 49  1  0
 23 50  1  0
 24 51  1  0
 24 52  1  0
 25 53  1  0
 25 54  1  0
M  ISO  8  26  13  27  13  28  13  29  13  30  13  31  13  32  13  33  13
M  ISO  8  34  13  35  13  36  13  37  13  38  13  39  13  40   8  41   8
M  ISO  8  42  14  43  14  44  13  45  13  46  13  47  13  48  13  49  13
M  ISO  5  50  13  51  13  52  13  53  13  54  13
M  END
>  <minimizedAffinity>  (1) 
-5.39388227

>  <minimizedRMSD>  (1) 
0.750641823

$$$$
