
     RDKit          3D

 41 44  0  0  1  0  0  0  0  0999 V2000
   44.4260   34.9260   41.4960 C   0  0  2  0  0  0  0  0  0  0  0  0
   43.3340   36.0050   41.3540 C   0  0  0  0  0  0  0  0  0  0  0  0
   43.0310   34.6780   41.8770 C   0  0  1  0  0  0  0  0  0  0  0  0
   42.1660   33.7380   41.0980 C   0  0  2  0  0  0  0  0  0  0  0  0
   42.6840   33.0810   39.8680 C   0  0  0  0  0  0  0  0  0  0  0  0
   41.7430   34.2530   39.7680 C   0  0  1  0  0  0  0  0  0  0  0  0
   40.4190   34.1750   39.3060 N   0  0  0  0  0  0  0  0  0  0  0  0
   40.1950   34.0170   37.9290 C   0  0  0  0  0  0  0  0  0  0  0  0
   38.7200   34.0180   37.6290 C   0  0  0  0  0  0  0  0  0  0  0  0
   38.1040   33.0520   38.4270 O   0  0  0  0  0  0  0  0  0  0  0  0
   38.1500   33.5170   39.7330 C   0  0  0  0  0  0  0  0  0  0  0  0
   39.3740   34.1270   40.2180 C   0  0  0  0  0  0  0  0  0  0  0  0
   45.4940   35.2670   42.4900 C   0  0  0  0  0  0  0  0  0  0  0  0
   47.5290   34.1210   43.3230 C   0  0  0  0  0  0  0  0  0  0  0  0
   46.7790   34.6450   42.2670 C   0  0  0  0  0  0  0  0  0  0  0  0
   47.3170   34.5460   40.9840 C   0  0  0  0  0  0  0  0  0  0  0  0
   48.5370   33.9530   40.7870 N   0  0  0  0  0  0  0  0  0  0  0  0
   49.2160   33.4610   41.8690 C   0  0  0  0  0  0  0  0  0  0  0  0
   48.7240   33.5400   43.1310 N   0  0  0  0  0  0  0  0  0  0  0  0
   50.5180   32.8180   41.7370 C   0  0  0  0  0  0  0  0  0  0  0  0
   50.8190   32.0070   40.8220 O   0  0  0  0  0  0  0  0  0  0  0  0
   51.5730   33.0300   42.6140 O   0  0  0  0  0  0  0  0  0  0  0  0
   45.1341   34.3585   40.8742 H   0  0  0  0  0  0  0  0  0  0  0  0
   43.3280   36.8787   42.0223 H   0  0  0  0  0  0  0  0  0  0  0  0
   42.9518   36.6347   40.5370 H   0  0  0  0  0  0  0  0  0  0  0  0
   42.5600   34.3122   42.8013 H   0  0  0  0  0  0  0  0  0  0  0  0
   41.6829   33.3371   42.0012 H   0  0  0  0  0  0  0  0  0  0  0  0
   43.7405   33.1967   39.5846 H   0  0  0  0  0  0  0  0  0  0  0  0
   42.6936   32.0526   39.4777 H   0  0  0  0  0  0  0  0  0  0  0  0
   41.7707   35.2225   39.2491 H   0  0  0  0  0  0  0  0  0  0  0  0
   40.6747   34.8455   37.3872 H   0  0  0  0  0  0  0  0  0  0  0  0
   40.6216   33.0552   37.6082 H   0  0  0  0  0  0  0  0  0  0  0  0
   38.2968   35.0084   37.8524 H   0  0  0  0  0  0  0  0  0  0  0  0
   38.5519   33.7911   36.5659 H   0  0  0  0  0  0  0  0  0  0  0  0
   37.2728   33.4248   40.3904 H   0  0  0  0  0  0  0  0  0  0  0  0
   39.4673   34.5245   41.2394 H   0  0  0  0  0  0  0  0  0  0  0  0
   45.6383   36.3573   42.4704 H   0  0  0  0  0  0  0  0  0  0  0  0
   45.1380   34.8816   43.4568 H   0  0  0  0  0  0  0  0  0  0  0  0
   47.1273   34.1866   44.3449 H   0  0  0  0  0  0  0  0  0  0  0  0
   46.7588   34.9463   40.1249 H   0  0  0  0  0  0  0  0  0  0  0  0
   52.4352   32.5643   42.4730 H   0  0  0  0  0  0  0  0  0  0  0  0
  1  3  1  0
  1 13  1  0
  2  1  1  0
  2  3  1  0
  4  3  1  0
  5  4  1  0
  6  5  1  0
  6  4  1  0
  7  6  1  0
  7 12  1  0
  8  7  1  0
  9  8  1  0
  9 10  1  0
 10 11  1  0
 11 12  2  0
 15 13  1  0
 15 14  2  0
 16 15  1  0
 17 16  2  0
 17 18  1  0
 18 19  2  0
 19 14  1  0
 20 18  1  0
 20 22  1  0
 21 20  2  0
  1 23  1  6
  2 24  1  0
  2 25  1  0
  3 26  1  1
  4 27  1  1
  5 28  1  0
  5 29  1  0
  6 30  1  6
  8 31  1  0
  8 32  1  0
  9 33  1  0
  9 34  1  0
 11 35  1  0
 12 36  1  0
 13 37  1  0
 13 38  1  0
 14 39  1  0
 16 40  1  0
 22 41  1  0
M  ISO  8  23  13  24  13  25  13  26  13  27  13  28  13  29  13  30  13
M  ISO  8  31  13  32  13  33  13  34  13  35  13  36  13  37   8  38   8
M  ISO  3  39  14  40  14  41   3
M  END
>  <minimizedAffinity>  (1) 
-5.18989992

>  <minimizedRMSD>  (1) 
1.54424191

$$$$
