
     RDKit          3D

 51 55  0  0  1  0  0  0  0  0999 V2000
   44.3020   35.3730   42.4740 C   0  0  2  0  0  0  0  0  0  0  0  0
   43.9070   33.9610   42.0010 C   0  0  0  0  0  0  0  0  0  0  0  0
   43.6910   35.1370   41.1680 C   0  0  1  0  0  0  0  0  0  0  0  0
   42.3020   35.6090   40.8600 C   0  0  2  0  0  0  0  0  0  0  0  0
   41.2460   35.5800   41.9080 C   0  0  0  0  0  0  0  0  0  0  0  0
   41.2850   34.5150   40.8440 C   0  0  1  0  0  0  0  0  0  0  0  0
   40.3390   34.3830   39.8140 N   0  0  0  0  0  0  0  0  0  0  0  0
   40.7380   34.6450   38.4930 C   0  0  0  0  0  0  0  0  0  0  0  0
   39.5700   34.5080   37.5530 C   0  0  0  0  0  0  0  0  0  0  0  0
   38.9950   33.2490   37.7420 O   0  0  0  0  0  0  0  0  0  0  0  0
   38.3820   33.2680   38.9860 C   0  0  0  0  0  0  0  0  0  0  0  0
   39.0760   33.8760   40.1050 C   0  0  0  0  0  0  0  0  0  0  0  0
   45.7670   35.5650   42.6860 C   0  0  0  0  0  0  0  0  0  0  0  0
   46.8420   33.3970   43.1760 C   0  0  0  0  0  0  0  0  0  0  0  0
   46.6180   34.4600   42.3030 C   0  0  0  0  0  0  0  0  0  0  0  0
   47.2360   34.4320   41.0520 C   0  0  0  0  0  0  0  0  0  0  0  0
   48.0400   33.3720   40.7160 N   0  0  0  0  0  0  0  0  0  0  0  0
   48.2230   32.3510   41.6230 C   0  0  0  0  0  0  0  0  0  0  0  0
   47.6320   32.3590   42.8390 N   0  0  0  0  0  0  0  0  0  0  0  0
   49.0960   31.1990   41.2580 C   0  0  0  0  0  0  0  0  0  0  0  0
   50.1980   31.5960   40.2910 C   0  0  0  0  0  0  0  0  0  0  0  0
   51.3540   32.0400   41.1380 C   0  0  0  0  0  0  0  0  0  0  0  0
   51.0420   31.6100   42.5340 C   0  0  0  0  0  0  0  0  0  0  0  0
   49.8860   30.6760   42.4370 C   0  0  0  0  0  0  0  0  0  0  0  0
   44.0700   36.0908   43.2746 H   0  0  0  0  0  0  0  0  0  0  0  0
   44.6827   33.2277   41.7352 H   0  0  0  0  0  0  0  0  0  0  0  0
   43.2798   33.1460   42.3914 H   0  0  0  0  0  0  0  0  0  0  0  0
   43.9842   35.4061   40.1425 H   0  0  0  0  0  0  0  0  0  0  0  0
   42.6491   36.4072   40.1873 H   0  0  0  0  0  0  0  0  0  0  0  0
   41.5081   35.3302   42.9467 H   0  0  0  0  0  0  0  0  0  0  0  0
   40.4891   36.2911   42.2706 H   0  0  0  0  0  0  0  0  0  0  0  0
   41.3001   33.4152   40.8571 H   0  0  0  0  0  0  0  0  0  0  0  0
   41.1346   35.6691   38.4309 H   0  0  0  0  0  0  0  0  0  0  0  0
   41.5137   33.9202   38.2050 H   0  0  0  0  0  0  0  0  0  0  0  0
   39.9166   34.6055   36.5136 H   0  0  0  0  0  0  0  0  0  0  0  0
   38.8289   35.2953   37.7551 H   0  0  0  0  0  0  0  0  0  0  0  0
   37.3831   32.8279   39.1221 H   0  0  0  0  0  0  0  0  0  0  0  0
   38.6357   33.9324   41.1115 H   0  0  0  0  0  0  0  0  0  0  0  0
   46.0778   36.4452   42.1041 H   0  0  0  0  0  0  0  0  0  0  0  0
   45.8955   35.6723   43.7732 H   0  0  0  0  0  0  0  0  0  0  0  0
   46.3615   33.4057   44.1655 H   0  0  0  0  0  0  0  0  0  0  0  0
   47.0795   35.2551   40.3393 H   0  0  0  0  0  0  0  0  0  0  0  0
   48.3893   30.4645   40.8443 H   0  0  0  0  0  0  0  0  0  0  0  0
   49.8602   32.4191   39.6442 H   0  0  0  0  0  0  0  0  0  0  0  0
   50.4783   30.7586   39.6351 H   0  0  0  0  0  0  0  0  0  0  0  0
   52.2839   31.5649   40.7922 H   0  0  0  0  0  0  0  0  0  0  0  0
   51.4977   33.1289   41.0783 H   0  0  0  0  0  0  0  0  0  0  0  0
   51.9088   31.0980   42.9772 H   0  0  0  0  0  0  0  0  0  0  0  0
   50.8053   32.4728   43.1739 H   0  0  0  0  0  0  0  0  0  0  0  0
   49.2822   30.7033   43.3561 H   0  0  0  0  0  0  0  0  0  0  0  0
   50.1958   29.6282   42.3097 H   0  0  0  0  0  0  0  0  0  0  0  0
  1 13  1  0
  2  1  1  0
  3  2  1  0
  3  1  1  0
  4  3  1  0
  4  5  1  0
  6  4  1  0
  6  5  1  0
  7 12  1  0
  7  6  1  0
  8  7  1  0
  9 10  1  0
  9  8  1  0
 10 11  1  0
 11 12  2  0
 15 13  1  0
 15 14  2  0
 16 15  1  0
 17 16  2  0
 17 18  1  0
 18 19  2  0
 19 14  1  0
 20 18  1  0
 20 24  1  0
 21 22  1  0
 21 20  1  0
 22 23  1  0
 24 23  1  0
  1 25  1  1
  2 26  1  0
  2 27  1  0
  3 28  1  6
  4 29  1  6
  5 30  1  0
  5 31  1  0
  6 32  1  1
  8 33  1  0
  8 34  1  0
  9 35  1  0
  9 36  1  0
 11 37  1  0
 12 38  1  0
 13 39  1  0
 13 40  1  0
 14 41  1  0
 16 42  1  0
 20 43  1  0
 21 44  1  0
 21 45  1  0
 22 46  1  0
 22 47  1  0
 23 48  1  0
 23 49  1  0
 24 50  1  0
 24 51  1  0
M  ISO  8  25  13  26  13  27  13  28  13  29  13  30  13  31  13  32  13
M  ISO  8  33  13  34  13  35  13  36  13  37  13  38  13  39   8  40   8
M  ISO  8  41  14  42  14  43  13  44  13  45  13  46  13  47  13  48  13
M  ISO  3  49  13  50  13  51  13
M  END
>  <minimizedAffinity>  (1) 
-5.21044779

>  <minimizedRMSD>  (1) 
1.33369136

$$$$
