
     RDKit          3D

 39 42  0  0  1  0  0  0  0  0999 V2000
   43.7630   35.1170   42.1420 C   0  0  2  0  0  0  0  0  0  0  0  0
   43.8590   34.5910   40.6930 C   0  0  0  0  0  0  0  0  0  0  0  0
   43.0300   35.7390   41.0400 C   0  0  1  0  0  0  0  0  0  0  0  0
   41.5380   35.6510   40.9470 C   0  0  2  0  0  0  0  0  0  0  0  0
   40.7520   34.9960   42.0280 C   0  0  0  0  0  0  0  0  0  0  0  0
   41.0200   34.2660   40.7400 C   0  0  1  0  0  0  0  0  0  0  0  0
   40.0440   33.9640   39.7760 N   0  0  0  0  0  0  0  0  0  0  0  0
   40.0860   34.6260   38.5380 C   0  0  0  0  0  0  0  0  0  0  0  0
   38.9230   34.2090   37.6780 C   0  0  0  0  0  0  0  0  0  0  0  0
   38.9170   32.8140   37.5850 O   0  0  0  0  0  0  0  0  0  0  0  0
   38.5600   32.3290   38.8340 C   0  0  0  0  0  0  0  0  0  0  0  0
   39.1410   32.9320   40.0170 C   0  0  0  0  0  0  0  0  0  0  0  0
   45.0470   35.6550   42.6860 C   0  0  0  0  0  0  0  0  0  0  0  0
   46.2180   33.5880   43.3920 C   0  0  0  0  0  0  0  0  0  0  0  0
   46.1800   34.7550   42.6290 C   0  0  0  0  0  0  0  0  0  0  0  0
   47.2770   35.0300   41.8030 C   0  0  0  0  0  0  0  0  0  0  0  0
   48.3380   34.1700   41.7620 N   0  0  0  0  0  0  0  0  0  0  0  0
   48.3080   33.0370   42.5400 C   0  0  0  0  0  0  0  0  0  0  0  0
   47.2610   32.7420   43.3510 N   0  0  0  0  0  0  0  0  0  0  0  0
   49.6330   31.8430   42.5690 S   0  0  0  0  0  0  0  0  0  0  0  0
   43.4470   34.7824   43.1411 H   0  0  0  0  0  0  0  0  0  0  0  0
   43.3933   33.6330   40.4184 H   0  0  0  0  0  0  0  0  0  0  0  0
   44.6717   34.3928   39.9787 H   0  0  0  0  0  0  0  0  0  0  0  0
   42.9702   36.7736   40.6711 H   0  0  0  0  0  0  0  0  0  0  0  0
   41.4470   36.6329   40.4596 H   0  0  0  0  0  0  0  0  0  0  0  0
   41.2506   34.6773   42.9553 H   0  0  0  0  0  0  0  0  0  0  0  0
   39.8508   35.2562   42.6026 H   0  0  0  0  0  0  0  0  0  0  0  0
   41.4505   33.2857   40.4876 H   0  0  0  0  0  0  0  0  0  0  0  0
   40.0407   35.7121   38.7064 H   0  0  0  0  0  0  0  0  0  0  0  0
   41.0218   34.3609   38.0241 H   0  0  0  0  0  0  0  0  0  0  0  0
   37.9828   34.5545   38.1326 H   0  0  0  0  0  0  0  0  0  0  0  0
   39.0173   34.6529   36.6760 H   0  0  0  0  0  0  0  0  0  0  0  0
   37.8454   31.4978   38.9258 H   0  0  0  0  0  0  0  0  0  0  0  0
   38.8865   32.5978   41.0336 H   0  0  0  0  0  0  0  0  0  0  0  0
   45.3041   36.5585   42.1137 H   0  0  0  0  0  0  0  0  0  0  0  0
   44.8651   35.8403   43.7549 H   0  0  0  0  0  0  0  0  0  0  0  0
   45.3670   33.3528   44.0481 H   0  0  0  0  0  0  0  0  0  0  0  0
   47.2845   35.9405   41.1858 H   0  0  0  0  0  0  0  0  0  0  0  0
   49.9566   31.5514   43.8679 H   0  0  0  0  0  0  0  0  0  0  0  0
  1 13  1  0
  2  3  1  0
  2  1  1  0
  3  1  1  0
  4  3  1  0
  4  5  1  0
  6  4  1  0
  6  5  1  0
  7 12  1  0
  7  6  1  0
  8  7  1  0
  9  8  1  0
 10  9  1  0
 10 11  1  0
 11 12  2  0
 15 13  1  0
 15 14  2  0
 16 15  1  0
 17 16  2  0
 17 18  1  0
 18 20  1  0
 18 19  2  0
 19 14  1  0
  1 21  1  1
  2 22  1  0
  2 23  1  0
  3 24  1  6
  4 25  1  6
  5 26  1  0
  5 27  1  0
  6 28  1  1
  8 29  1  0
  8 30  1  0
  9 31  1  0
  9 32  1  0
 11 33  1  0
 12 34  1  0
 13 35  1  0
 13 36  1  0
 14 37  1  0
 16 38  1  0
 20 39  1  0
M  ISO  8  21  13  22  13  23  13  24  13  25  13  26  13  27  13  28  13
M  ISO  8  29  13  30  13  31  13  32  13  33  13  34  13  35   8  36   8
M  ISO  3  37  14  38  14  39  11
M  END
>  <minimizedAffinity>  (1) 
-4.5972538

>  <minimizedRMSD>  (1) 
0.596112311

$$$$
