
     RDKit          3D

 30 32  0  0  1  0  0  0  0  0999 V2000
   45.8450   34.1630   42.7800 C   0  0  1  0  0  0  0  0  0  0  0  0
   45.6210   34.0760   44.2510 C   0  0  0  0  0  0  0  0  0  0  0  0
   44.9040   34.9470   45.0690 C   0  0  0  0  0  0  0  0  0  0  0  0
   44.9380   34.5140   46.3510 N   0  0  0  0  0  0  0  0  0  0  0  0
   45.6690   33.3770   46.3560 C   0  0  0  0  0  0  0  0  0  0  0  0
   46.0450   32.4940   47.3750 C   0  0  0  0  0  0  0  0  0  0  0  0
   46.8160   31.3630   47.1540 C   0  0  0  0  0  0  0  0  0  0  0  0
   47.2390   31.0910   45.8640 C   0  0  0  0  0  0  0  0  0  0  0  0
   46.8750   31.9600   44.8280 C   0  0  0  0  0  0  0  0  0  0  0  0
   46.1070   33.0790   45.0670 C   0  0  0  0  0  0  0  0  0  0  0  0
   44.5300   34.3260   42.1450 C   0  0  0  0  0  0  0  0  0  0  0  0
   43.8740   33.0960   41.9800 C   0  0  0  0  0  0  0  0  0  0  0  0
   42.6120   33.0700   41.4020 C   0  0  0  0  0  0  0  0  0  0  0  0
   42.0650   34.2490   41.0190 N   0  0  0  0  0  0  0  0  0  0  0  0
   42.7100   35.4250   41.1830 C   0  0  0  0  0  0  0  0  0  0  0  0
   43.9310   35.4470   41.7430 N   0  0  0  0  0  0  0  0  0  0  0  0
   46.7440   35.3400   42.5340 C   0  0  0  0  0  0  0  0  0  0  0  0
   46.3238   33.2658   42.3607 H   0  0  0  0  0  0  0  0  0  0  0  0
   44.3861   35.8538   44.7234 H   0  0  0  0  0  0  0  0  0  0  0  0
   44.4935   34.9633   47.1643 H   0  0  0  0  0  0  0  0  0  0  0  0
   45.7125   32.7079   48.4015 H   0  0  0  0  0  0  0  0  0  0  0  0
   47.0859   30.6959   47.9860 H   0  0  0  0  0  0  0  0  0  0  0  0
   47.8536   30.2029   45.6554 H   0  0  0  0  0  0  0  0  0  0  0  0
   47.2090   31.7450   43.8022 H   0  0  0  0  0  0  0  0  0  0  0  0
   44.3551   32.1619   42.3055 H   0  0  0  0  0  0  0  0  0  0  0  0
   42.0729   32.1218   41.2594 H   0  0  0  0  0  0  0  0  0  0  0  0
   42.2360   36.3631   40.8584 H   0  0  0  0  0  0  0  0  0  0  0  0
   47.0667   35.7625   43.4970 H   0  0  0  0  0  0  0  0  0  0  0  0
   47.6257   35.0148   41.9624 H   0  0  0  0  0  0  0  0  0  0  0  0
   46.1982   36.1051   41.9624 H   0  0  0  0  0  0  0  0  0  0  0  0
  1  2  1  0
  2 10  1  0
  2  3  2  0
  3  4  1  0
  4  5  1  0
  5  6  2  0
  7  6  1  0
  8  7  2  0
  9 10  2  0
  9  8  1  0
 10  5  1  0
 11  1  1  0
 12 11  2  0
 13 12  1  0
 14 15  1  0
 14 13  2  0
 15 16  2  0
 16 11  1  0
 17  1  1  0
  1 18  1  6
  3 19  1  0
  4 20  1  0
  6 21  1  0
  7 22  1  0
  8 23  1  0
  9 24  1  0
 12 25  1  0
 13 26  1  0
 15 27  1  0
 17 28  1  0
 17 29  1  0
 17 30  1  0
M  ISO  8  18   8  19  14  20   9  21  14  22  14  23  14  24  14  25  14
M  ISO  5  26  14  27  14  28   8  29   8  30   8
M  END
>  <minimizedAffinity>  (1) 
-4.87268877

>  <minimizedRMSD>  (1) 
6.24607801

$$$$
