
     RDKit          3D

 29 31  0  0  1  0  0  0  0  0999 V2000
   47.5410   34.6630   42.0700 C   0  0  2  0  0  0  0  0  0  0  0  0
   46.5750   34.7270   43.1840 C   0  0  0  0  0  0  0  0  0  0  0  0
   45.6980   35.8170   43.0540 C   0  0  0  0  0  0  0  0  0  0  0  0
   44.7180   36.0520   44.0070 C   0  0  0  0  0  0  0  0  0  0  0  0
   44.6650   35.1850   45.0390 N   0  0  0  0  0  0  0  0  0  0  0  0
   45.5130   34.1390   45.1540 C   0  0  0  0  0  0  0  0  0  0  0  0
   46.4460   33.9160   44.2450 N   0  0  0  0  0  0  0  0  0  0  0  0
   46.9170   33.9480   40.9760 N   0  0  0  0  0  0  0  0  0  0  0  0
   45.8550   33.1230   41.0710 C   0  0  0  0  0  0  0  0  0  0  0  0
   45.5660   32.6480   39.8480 N   0  0  0  0  0  0  0  0  0  0  0  0
   46.4230   33.1540   38.9710 C   0  0  0  0  0  0  0  0  0  0  0  0
   46.5560   32.9880   37.6050 C   0  0  0  0  0  0  0  0  0  0  0  0
   47.5460   33.6470   36.9700 N   0  0  0  0  0  0  0  0  0  0  0  0
   48.3850   34.4550   37.6780 C   0  0  0  0  0  0  0  0  0  0  0  0
   48.2630   34.6260   39.0140 N   0  0  0  0  0  0  0  0  0  0  0  0
   47.2950   33.9880   39.6750 C   0  0  0  0  0  0  0  0  0  0  0  0
   45.6880   32.1440   36.8390 N   0  0  0  0  0  0  0  0  0  0  0  0
   48.8250   34.0130   42.5020 C   0  0  0  0  0  0  0  0  0  0  0  0
   47.8065   35.6782   41.7401 H   0  0  0  0  0  0  0  0  0  0  0  0
   45.7894   36.4900   42.1887 H   0  0  0  0  0  0  0  0  0  0  0  0
   44.0216   36.8996   43.9256 H   0  0  0  0  0  0  0  0  0  0  0  0
   45.4253   33.4630   46.0173 H   0  0  0  0  0  0  0  0  0  0  0  0
   45.3142   32.8790   41.9973 H   0  0  0  0  0  0  0  0  0  0  0  0
   49.1878   34.9855   37.1451 H   0  0  0  0  0  0  0  0  0  0  0  0
   45.8254   32.0511   35.8224 H   0  0  0  0  0  0  0  0  0  0  0  0
   44.9265   31.6301   37.3048 H   0  0  0  0  0  0  0  0  0  0  0  0
   48.8723   33.9891   43.6007 H   0  0  0  0  0  0  0  0  0  0  0  0
   48.8657   32.9857   42.1108 H   0  0  0  0  0  0  0  0  0  0  0  0
   49.6770   34.5884   42.1108 H   0  0  0  0  0  0  0  0  0  0  0  0
  1 18  1  0
  1  2  1  0
  2  7  1  0
  3  2  2  0
  3  4  1  0
  4  5  2  0
  5  6  1  0
  7  6  2  0
  8  9  1  0
  8  1  1  0
 10  9  2  0
 11 16  2  0
 11 10  1  0
 12 11  1  0
 13 12  2  0
 13 14  1  0
 14 15  2  0
 15 16  1  0
 16  8  1  0
 17 12  1  0
  1 19  1  6
  3 20  1  0
  4 21  1  0
  6 22  1  0
  9 23  1  0
 14 24  1  0
 17 25  1  0
 17 26  1  0
 18 27  1  0
 18 28  1  0
 18 29  1  0
M  ISO  8  19   8  20  14  21  14  22  14  23  14  24  14  27   8  28   8
M  ISO  1  29   8
M  END
>  <minimizedAffinity>  (1) 
-4.8368268

>  <minimizedRMSD>  (1) 
1.87208664

$$$$
