
     RDKit          3D

 29 30  0  0  1  0  0  0  0  0999 V2000
   46.0630   35.3570   42.2880 C   0  0  1  0  0  0  0  0  0  0  0  0
   45.1750   34.6260   41.4010 N   0  0  0  0  0  0  0  0  0  0  0  0
   43.9760   35.2600   41.2390 C   0  0  0  0  0  0  0  0  0  0  0  0
   42.9950   34.7010   40.4190 C   0  0  0  0  0  0  0  0  0  0  0  0
   41.6830   35.3760   40.2300 C   0  0  0  0  0  0  0  0  0  0  0  0
   43.3050   33.5190   39.8120 C   0  0  0  0  0  0  0  0  0  0  0  0
   42.4400   32.9950   39.0680 O   0  0  0  0  0  0  0  0  0  0  0  0
   44.5000   32.9240   39.9960 N   0  0  0  0  0  0  0  0  0  0  0  0
   45.4390   33.4730   40.7900 C   0  0  0  0  0  0  0  0  0  0  0  0
   46.5770   32.9770   41.0110 O   0  0  0  0  0  0  0  0  0  0  0  0
   45.8230   34.8450   43.6530 C   0  0  0  0  0  0  0  0  0  0  0  0
   44.8910   35.6260   44.3530 C   0  0  0  0  0  0  0  0  0  0  0  0
   44.5550   35.2600   45.6470 C   0  0  0  0  0  0  0  0  0  0  0  0
   45.1420   34.1590   46.1900 N   0  0  0  0  0  0  0  0  0  0  0  0
   46.0390   33.4230   45.4910 C   0  0  0  0  0  0  0  0  0  0  0  0
   46.3450   33.7930   44.2530 N   0  0  0  0  0  0  0  0  0  0  0  0
   47.4770   35.1060   41.8440 C   0  0  0  0  0  0  0  0  0  0  0  0
   45.8849   36.4423   42.2690 H   0  0  0  0  0  0  0  0  0  0  0  0
   43.7836   36.2120   41.7554 H   0  0  0  0  0  0  0  0  0  0  0  0
   41.2424   35.6027   41.2121 H   0  0  0  0  0  0  0  0  0  0  0  0
   41.8291   36.3109   39.6691 H   0  0  0  0  0  0  0  0  0  0  0  0
   41.0073   34.7136   39.6691 H   0  0  0  0  0  0  0  0  0  0  0  0
   44.6990   32.0324   39.5203 H   0  0  0  0  0  0  0  0  0  0  0  0
   44.4361   36.5111   43.8843 H   0  0  0  0  0  0  0  0  0  0  0  0
   43.8271   35.8488   46.2244 H   0  0  0  0  0  0  0  0  0  0  0  0
   46.5057   32.5344   45.9411 H   0  0  0  0  0  0  0  0  0  0  0  0
   48.1235   34.9912   42.7265 H   0  0  0  0  0  0  0  0  0  0  0  0
   47.5141   34.1872   41.2403 H   0  0  0  0  0  0  0  0  0  0  0  0
   47.8281   35.9559   41.2403 H   0  0  0  0  0  0  0  0  0  0  0  0
  1 11  1  0
  2  1  1  0
  3  2  1  0
  4  3  2  0
  5  4  1  0
  6  8  1  0
  6  4  1  0
  7  6  2  0
  8  9  1  0
  9 10  2  0
  9  2  1  0
 11 16  1  0
 11 12  2  0
 12 13  1  0
 13 14  2  0
 15 14  1  0
 16 15  2  0
 17  1  1  0
  1 18  1  1
  3 19  1  0
  5 20  1  0
  5 21  1  0
  5 22  1  0
  8 23  1  0
 12 24  1  0
 13 25  1  0
 15 26  1  0
 17 27  1  0
 17 28  1  0
 17 29  1  0
M  ISO  8  18   8  19  14  20   8  21   8  22   8  23   9  24  14  25  14
M  ISO  4  26  14  27   8  28   8  29   8
M  END
>  <minimizedAffinity>  (1) 
-4.61440516

>  <minimizedRMSD>  (1) 
3.88096476

$$$$
