
     RDKit          3D

 32 34  0  0  1  0  0  0  0  0999 V2000
   47.6960   35.3160   41.5920 C   0  0  1  0  0  0  0  0  0  0  0  0
   47.9160   34.0630   40.8030 C   0  0  0  0  0  0  0  0  0  0  0  0
   47.0240   33.6500   39.8480 C   0  0  0  0  0  0  0  0  0  0  0  0
   47.1340   32.5240   39.0570 C   0  0  0  0  0  0  0  0  0  0  0  0
   48.2710   31.7290   39.2560 C   0  0  0  0  0  0  0  0  0  0  0  0
   49.1940   32.0920   40.1930 C   0  0  0  0  0  0  0  0  0  0  0  0
   50.3120   31.3150   40.3950 C   0  0  0  0  0  0  0  0  0  0  0  0
   51.2790   31.6290   41.3340 C   0  0  0  0  0  0  0  0  0  0  0  0
   51.0940   32.7870   42.0960 C   0  0  0  0  0  0  0  0  0  0  0  0
   49.9700   33.5400   41.8700 C   0  0  0  0  0  0  0  0  0  0  0  0
   49.0070   33.2310   40.9380 C   0  0  0  0  0  0  0  0  0  0  0  0
   46.9190   34.9000   42.7710 C   0  0  0  0  0  0  0  0  0  0  0  0
   45.6890   35.6010   42.8990 C   0  0  0  0  0  0  0  0  0  0  0  0
   44.8230   35.3280   43.9440 C   0  0  0  0  0  0  0  0  0  0  0  0
   45.2010   34.3740   44.8220 N   0  0  0  0  0  0  0  0  0  0  0  0
   46.3700   33.7050   44.7010 C   0  0  0  0  0  0  0  0  0  0  0  0
   47.1840   33.9840   43.6920 N   0  0  0  0  0  0  0  0  0  0  0  0
   49.0580   35.8080   42.0040 C   0  0  0  0  0  0  0  0  0  0  0  0
   47.1707   36.1113   41.0428 H   0  0  0  0  0  0  0  0  0  0  0  0
   46.1331   34.2772   39.6970 H   0  0  0  0  0  0  0  0  0  0  0  0
   46.3696   32.2644   38.3099 H   0  0  0  0  0  0  0  0  0  0  0  0
   48.4186   30.8166   38.6595 H   0  0  0  0  0  0  0  0  0  0  0  0
   50.4421   30.4084   39.7859 H   0  0  0  0  0  0  0  0  0  0  0  0
   52.1628   30.9897   41.4761 H   0  0  0  0  0  0  0  0  0  0  0  0
   51.8304   33.0860   42.8565 H   0  0  0  0  0  0  0  0  0  0  0  0
   49.8298   34.4493   42.4729 H   0  0  0  0  0  0  0  0  0  0  0  0
   45.4221   36.3697   42.1588 H   0  0  0  0  0  0  0  0  0  0  0  0
   43.8691   35.8645   44.0543 H   0  0  0  0  0  0  0  0  0  0  0  0
   46.6442   32.9335   45.4356 H   0  0  0  0  0  0  0  0  0  0  0  0
   49.1228   35.8314   43.1018 H   0  0  0  0  0  0  0  0  0  0  0  0
   49.8283   35.1313   41.6056 H   0  0  0  0  0  0  0  0  0  0  0  0
   49.2180   36.8207   41.6056 H   0  0  0  0  0  0  0  0  0  0  0  0
  1 18  1  0
  1 12  1  0
  2 11  1  0
  2  1  1  0
  3  2  2  0
  4  5  2  0
  4  3  1  0
  5  6  1  0
  6  7  1  0
  6 11  2  0
  7  8  2  0
  8  9  1  0
 10  9  2  0
 11 10  1  0
 12 13  2  0
 12 17  1  0
 13 14  1  0
 14 15  2  0
 16 15  1  0
 17 16  2  0
  1 19  1  6
  3 20  1  0
  4 21  1  0
  5 22  1  0
  7 23  1  0
  8 24  1  0
  9 25  1  0
 10 26  1  0
 13 27  1  0
 14 28  1  0
 16 29  1  0
 18 30  1  0
 18 31  1  0
 18 32  1  0
M  ISO  8  19   8  20  14  21  14  22  14  23  14  24  14  25  14  26  14
M  ISO  6  27  14  28  14  29  14  30   8  31   8  32   8
M  END
>  <minimizedAffinity>  (1) 
-5.15632868

>  <minimizedRMSD>  (1) 
0.69240433

$$$$
