
     RDKit          3D

 30 32  0  0  1  0  0  0  0  0999 V2000
   48.1500   35.0470   41.4930 C   0  0  1  0  0  0  0  0  0  0  0  0
   48.6440   33.8410   40.8580 N   0  0  0  0  0  0  0  0  0  0  0  0
   49.5600   32.9070   41.1710 C   0  0  0  0  0  0  0  0  0  0  0  0
   49.6470   31.9720   40.2340 N   0  0  0  0  0  0  0  0  0  0  0  0
   48.7680   32.2830   39.2650 C   0  0  0  0  0  0  0  0  0  0  0  0
   48.5210   31.6010   38.1110 C   0  0  0  0  0  0  0  0  0  0  0  0
   49.1390   30.5370   37.8250 O   0  0  0  0  0  0  0  0  0  0  0  0
   47.5910   32.0930   37.2700 N   0  0  0  0  0  0  0  0  0  0  0  0
   46.9590   33.2380   37.6290 C   0  0  0  0  0  0  0  0  0  0  0  0
   45.9770   33.7320   36.7130 N   0  0  0  0  0  0  0  0  0  0  0  0
   47.2170   33.8990   38.7740 N   0  0  0  0  0  0  0  0  0  0  0  0
   48.1380   33.4540   39.6520 C   0  0  0  0  0  0  0  0  0  0  0  0
   47.2710   34.6200   42.6090 C   0  0  0  0  0  0  0  0  0  0  0  0
   45.9780   35.1950   42.5120 C   0  0  0  0  0  0  0  0  0  0  0  0
   45.0760   34.8560   43.5130 C   0  0  0  0  0  0  0  0  0  0  0  0
   45.4400   34.0210   44.5100 N   0  0  0  0  0  0  0  0  0  0  0  0
   46.6930   33.4870   44.5690 C   0  0  0  0  0  0  0  0  0  0  0  0
   47.5590   33.8070   43.6190 N   0  0  0  0  0  0  0  0  0  0  0  0
   49.3150   35.8500   41.9900 C   0  0  0  0  0  0  0  0  0  0  0  0
   47.5821   35.6791   40.7945 H   0  0  0  0  0  0  0  0  0  0  0  0
   50.1629   32.9173   42.0910 H   0  0  0  0  0  0  0  0  0  0  0  0
   47.3675   31.6161   36.3848 H   0  0  0  0  0  0  0  0  0  0  0  0
   45.4617   34.5976   36.9278 H   0  0  0  0  0  0  0  0  0  0  0  0
   45.7854   33.2220   35.8389 H   0  0  0  0  0  0  0  0  0  0  0  0
   45.7044   35.8721   41.6894 H   0  0  0  0  0  0  0  0  0  0  0  0
   44.0575   35.2710   43.4932 H   0  0  0  0  0  0  0  0  0  0  0  0
   46.9779   32.8071   45.3854 H   0  0  0  0  0  0  0  0  0  0  0  0
   49.3168   35.8513   43.0900 H   0  0  0  0  0  0  0  0  0  0  0  0
   50.2510   35.4044   41.6223 H   0  0  0  0  0  0  0  0  0  0  0  0
   49.2316   36.8834   41.6223 H   0  0  0  0  0  0  0  0  0  0  0  0
  1 19  1  0
  1 13  1  0
  2  3  1  0
  2  1  1  0
  4  3  2  0
  5 12  2  0
  5  4  1  0
  6  5  1  0
  7  6  2  0
  8  9  1  0
  8  6  1  0
  9 11  2  0
 10  9  1  0
 11 12  1  0
 12  2  1  0
 13 18  1  0
 14 13  2  0
 14 15  1  0
 15 16  2  0
 16 17  1  0
 18 17  2  0
  1 20  1  6
  3 21  1  0
  8 22  1  0
 10 23  1  0
 10 24  1  0
 14 25  1  0
 15 26  1  0
 17 27  1  0
 19 28  1  0
 19 29  1  0
 19 30  1  0
M  ISO  8  20   8  21  14  22   9  25  14  26  14  27  14  28   8  29   8
M  ISO  1  30   8
M  END
>  <minimizedAffinity>  (1) 
-5.00644159

>  <minimizedRMSD>  (1) 
0.521747708

$$$$
