
     RDKit          3D

 30 31  0  0  1  0  0  0  0  0999 V2000
   47.5770   34.6610   41.7380 C   0  0  2  0  0  0  0  0  0  0  0  0
   46.6680   34.7010   42.8880 C   0  0  0  0  0  0  0  0  0  0  0  0
   45.7650   35.7980   42.8660 C   0  0  0  0  0  0  0  0  0  0  0  0
   44.8410   35.9420   43.8950 C   0  0  0  0  0  0  0  0  0  0  0  0
   44.8420   35.0260   44.8840 N   0  0  0  0  0  0  0  0  0  0  0  0
   45.7140   33.9790   44.8940 C   0  0  0  0  0  0  0  0  0  0  0  0
   46.6040   33.8460   43.8950 N   0  0  0  0  0  0  0  0  0  0  0  0
   48.1600   33.3480   41.7720 N   0  0  0  0  0  0  0  0  0  0  0  0
   49.1500   33.1290   42.7620 C   0  0  0  0  0  0  0  0  0  0  0  0
   50.5090   33.4160   42.1700 C   0  0  0  0  0  0  0  0  0  0  0  0
   50.7690   32.4900   41.1090 N   0  0  0  0  0  0  0  0  0  0  0  0
   49.6080   31.8420   40.5860 C   0  0  0  0  0  0  0  0  0  0  0  0
   48.3850   32.7570   40.5080 C   0  0  0  0  0  0  0  0  0  0  0  0
   48.5910   35.7710   41.8040 C   0  0  0  0  0  0  0  0  0  0  0  0
   47.0607   34.8282   40.7812 H   0  0  0  0  0  0  0  0  0  0  0  0
   45.7967   36.5266   42.0425 H   0  0  0  0  0  0  0  0  0  0  0  0
   44.1288   36.7803   43.9018 H   0  0  0  0  0  0  0  0  0  0  0  0
   45.6900   33.2469   45.7146 H   0  0  0  0  0  0  0  0  0  0  0  0
   48.9713   33.7980   43.6167 H   0  0  0  0  0  0  0  0  0  0  0  0
   49.1073   32.0850   43.1058 H   0  0  0  0  0  0  0  0  0  0  0  0
   50.5281   34.4423   41.7747 H   0  0  0  0  0  0  0  0  0  0  0  0
   51.2793   33.3102   42.9481 H   0  0  0  0  0  0  0  0  0  0  0  0
   51.2246   33.0022   40.3402 H   0  0  0  0  0  0  0  0  0  0  0  0
   49.8375   31.4796   39.5731 H   0  0  0  0  0  0  0  0  0  0  0  0
   49.3563   31.0215   41.2741 H   0  0  0  0  0  0  0  0  0  0  0  0
   48.5629   33.5446   39.7610 H   0  0  0  0  0  0  0  0  0  0  0  0
   47.5033   32.1680   40.2154 H   0  0  0  0  0  0  0  0  0  0  0  0
   48.8074   36.0079   42.8562 H   0  0  0  0  0  0  0  0  0  0  0  0
   49.5165   35.4525   41.3020 H   0  0  0  0  0  0  0  0  0  0  0  0
   48.1903   36.6640   41.3020 H   0  0  0  0  0  0  0  0  0  0  0  0
  1  8  1  0
  1 14  1  0
  1  2  1  0
  2  7  1  0
  3  2  2  0
  3  4  1  0
  4  5  2  0
  5  6  1  0
  7  6  2  0
  8  9  1  0
 10  9  1  0
 11 10  1  0
 12 11  1  0
 13 12  1  0
 13  8  1  0
  1 15  1  6
  3 16  1  0
  4 17  1  0
  6 18  1  0
  9 19  1  0
  9 20  1  0
 10 21  1  0
 10 22  1  0
 11 23  1  0
 12 24  1  0
 12 25  1  0
 13 26  1  0
 13 27  1  0
 14 28  1  0
 14 29  1  0
 14 30  1  0
M  ISO  8  15   8  16  14  17  14  18  14  19  13  20  13  21  13  22  13
M  ISO  8  23   5  24  13  25  13  26  13  27  13  28   8  29   8  30   8
M  END
>  <minimizedAffinity>  (1) 
-4.34037161

>  <minimizedRMSD>  (1) 
1.13238215

$$$$
