
     RDKit          3D

 29 30  0  0  1  0  0  0  0  0999 V2000
   47.5210   35.1810   41.4560 C   0  0  2  0  0  0  0  0  0  0  0  0
   46.9120   34.7390   42.7160 C   0  0  0  0  0  0  0  0  0  0  0  0
   45.7470   35.5020   42.9990 C   0  0  0  0  0  0  0  0  0  0  0  0
   45.0040   35.2390   44.1510 C   0  0  0  0  0  0  0  0  0  0  0  0
   45.4480   34.2450   44.9570 N   0  0  0  0  0  0  0  0  0  0  0  0
   46.5600   33.5290   44.6690 C   0  0  0  0  0  0  0  0  0  0  0  0
   47.2590   33.7900   43.5680 N   0  0  0  0  0  0  0  0  0  0  0  0
   47.5220   34.0290   40.5020 C   0  0  0  0  0  0  0  0  0  0  0  0
   48.1980   34.3420   39.1920 C   0  0  0  0  0  0  0  0  0  0  0  0
   47.4340   33.5860   38.1260 C   0  0  0  0  0  0  0  0  0  0  0  0
   46.5080   32.6910   38.9160 C   0  0  0  0  0  0  0  0  0  0  0  0
   46.1290   33.6270   40.0710 C   0  0  0  0  0  0  0  0  0  0  0  0
   48.9410   35.6850   41.7100 C   0  0  0  0  0  0  0  0  0  0  0  0
   46.9443   36.0114   41.0227 H   0  0  0  0  0  0  0  0  0  0  0  0
   45.4309   36.2995   42.3105 H   0  0  0  0  0  0  0  0  0  0  0  0
   44.0979   35.8136   44.3936 H   0  0  0  0  0  0  0  0  0  0  0  0
   46.8869   32.7280   45.3483 H   0  0  0  0  0  0  0  0  0  0  0  0
   48.0430   33.2447   41.0707 H   0  0  0  0  0  0  0  0  0  0  0  0
   48.1599   35.4232   38.9929 H   0  0  0  0  0  0  0  0  0  0  0  0
   49.2574   34.0463   39.2090 H   0  0  0  0  0  0  0  0  0  0  0  0
   48.1167   32.9908   37.5017 H   0  0  0  0  0  0  0  0  0  0  0  0
   46.8965   34.2511   37.4341 H   0  0  0  0  0  0  0  0  0  0  0  0
   45.6272   32.3969   38.3263 H   0  0  0  0  0  0  0  0  0  0  0  0
   46.9527   31.7348   39.2290 H   0  0  0  0  0  0  0  0  0  0  0  0
   45.5365   34.4883   39.7288 H   0  0  0  0  0  0  0  0  0  0  0  0
   45.4958   33.1856   40.8547 H   0  0  0  0  0  0  0  0  0  0  0  0
   49.1193   35.7483   42.7936 H   0  0  0  0  0  0  0  0  0  0  0  0
   49.6634   34.9884   41.2596 H   0  0  0  0  0  0  0  0  0  0  0  0
   49.0626   36.6812   41.2596 H   0  0  0  0  0  0  0  0  0  0  0  0
  1 13  1  0
  1  2  1  0
  2  3  2  0
  2  7  1  0
  3  4  1  0
  4  5  2  0
  6  5  1  0
  7  6  2  0
  8  1  1  0
  9  8  1  0
 10 11  1  0
 10  9  1  0
 11 12  1  0
 12  8  1  0
  1 14  1  6
  3 15  1  0
  4 16  1  0
  6 17  1  0
  8 18  1  0
  9 19  1  0
  9 20  1  0
 10 21  1  0
 10 22  1  0
 11 23  1  0
 11 24  1  0
 12 25  1  0
 12 26  1  0
 13 27  1  0
 13 28  1  0
 13 29  1  0
M  ISO  8  14   8  15  14  16  14  17  14  18  13  19  13  20  13  21  13
M  ISO  8  22  13  23  13  24  13  25  13  26  13  27   8  28   8  29   8
M  END
>  <minimizedAffinity>  (1) 
-4.33202219

>  <minimizedRMSD>  (1) 
0.777122915

$$$$
