
     RDKit          3D

 22 23  0  0  1  0  0  0  0  0999 V2000
   47.8050   35.2150   41.7600 C   0  0  2  0  0  0  0  0  0  0  0  0
   46.9890   34.7730   42.9080 C   0  0  0  0  0  0  0  0  0  0  0  0
   45.8290   35.5410   43.0610 C   0  0  0  0  0  0  0  0  0  0  0  0
   44.9280   35.2640   44.0960 C   0  0  0  0  0  0  0  0  0  0  0  0
   45.2360   34.2370   44.9170 N   0  0  0  0  0  0  0  0  0  0  0  0
   46.3760   33.4990   44.7500 C   0  0  0  0  0  0  0  0  0  0  0  0
   47.2150   33.7870   43.7540 N   0  0  0  0  0  0  0  0  0  0  0  0
   47.4750   34.4840   40.5470 N   0  0  0  0  0  0  0  0  0  0  0  0
   46.4050   33.7140   40.2960 C   0  0  0  0  0  0  0  0  0  0  0  0
   46.4770   33.2200   39.0580 N   0  0  0  0  0  0  0  0  0  0  0  0
   47.6150   33.6840   38.5110 C   0  0  0  0  0  0  0  0  0  0  0  0
   48.2060   34.4640   39.4630 N   0  0  0  0  0  0  0  0  0  0  0  0
   49.2700   35.1830   42.1000 C   0  0  0  0  0  0  0  0  0  0  0  0
   47.5574   36.2648   41.5438 H   0  0  0  0  0  0  0  0  0  0  0  0
   45.6241   36.3670   42.3640 H   0  0  0  0  0  0  0  0  0  0  0  0
   44.0111   35.8558   44.2342 H   0  0  0  0  0  0  0  0  0  0  0  0
   46.6003   32.6692   45.4364 H   0  0  0  0  0  0  0  0  0  0  0  0
   45.5882   33.5185   41.0064 H   0  0  0  0  0  0  0  0  0  0  0  0
   47.9936   33.4765   37.4993 H   0  0  0  0  0  0  0  0  0  0  0  0
   49.3927   35.1803   43.1931 H   0  0  0  0  0  0  0  0  0  0  0  0
   49.7247   34.2747   41.6777 H   0  0  0  0  0  0  0  0  0  0  0  0
   49.7639   36.0706   41.6777 H   0  0  0  0  0  0  0  0  0  0  0  0
  1 13  1  0
  1  2  1  0
  2  3  2  0
  2  7  1  0
  3  4  1  0
  4  5  2  0
  6  5  1  0
  7  6  2  0
  8  1  1  0
  9  8  1  0
 10  9  2  0
 11 10  1  0
 11 12  2  0
 12  8  1  0
  1 14  1  6
  3 15  1  0
  4 16  1  0
  6 17  1  0
  9 18  1  0
 11 19  1  0
 13 20  1  0
 13 21  1  0
 13 22  1  0
M  ISO  8  14   8  15  14  16  14  17  14  18  14  19  14  20   8  21   8
M  ISO  1  22   8
M  END
>  <minimizedAffinity>  (1) 
-4.00191069

>  <minimizedRMSD>  (1) 
1.01336586

$$$$
