
     RDKit          3D

 31 32  0  0  1  0  0  0  0  0999 V2000
   48.3300   34.9110   41.8670 C   0  0  2  0  0  0  0  0  0  0  0  0
   47.2980   34.6130   42.8700 C   0  0  0  0  0  0  0  0  0  0  0  0
   46.1050   35.3550   42.6910 C   0  0  0  0  0  0  0  0  0  0  0  0
   45.0370   35.1690   43.5610 C   0  0  0  0  0  0  0  0  0  0  0  0
   45.2030   34.2690   44.5540 N   0  0  0  0  0  0  0  0  0  0  0  0
   46.3450   33.5620   44.7210 C   0  0  0  0  0  0  0  0  0  0  0  0
   47.3710   33.7510   43.8720 N   0  0  0  0  0  0  0  0  0  0  0  0
   48.2410   33.8110   40.9240 N   0  0  0  0  0  0  0  0  0  0  0  0
   47.9120   34.2990   39.6290 C   0  0  0  0  0  0  0  0  0  0  0  0
   48.3960   33.4180   38.5060 C   0  0  0  0  0  0  0  0  0  0  0  0
   48.4000   31.9480   38.8330 C   0  0  0  0  0  0  0  0  0  0  0  0
   48.7220   31.6240   40.2560 C   0  0  0  0  0  0  0  0  0  0  0  0
   49.2780   32.8480   41.0000 C   0  0  0  0  0  0  0  0  0  0  0  0
   49.6940   35.0320   42.4910 C   0  0  0  0  0  0  0  0  0  0  0  0
   48.1725   35.8814   41.3736 H   0  0  0  0  0  0  0  0  0  0  0  0
   46.0238   36.0770   41.8651 H   0  0  0  0  0  0  0  0  0  0  0  0
   44.0980   35.7302   43.4457 H   0  0  0  0  0  0  0  0  0  0  0  0
   46.4334   32.8384   45.5447 H   0  0  0  0  0  0  0  0  0  0  0  0
   46.8175   34.3822   39.5575 H   0  0  0  0  0  0  0  0  0  0  0  0
   48.4164   35.2699   39.5148 H   0  0  0  0  0  0  0  0  0  0  0  0
   49.4232   33.7175   38.2507 H   0  0  0  0  0  0  0  0  0  0  0  0
   47.6926   33.5544   37.6714 H   0  0  0  0  0  0  0  0  0  0  0  0
   47.4019   31.5444   38.6074 H   0  0  0  0  0  0  0  0  0  0  0  0
   49.1977   31.4973   38.2243 H   0  0  0  0  0  0  0  0  0  0  0  0
   47.8060   31.2842   40.7614 H   0  0  0  0  0  0  0  0  0  0  0  0
   49.4896   30.8361   40.2655 H   0  0  0  0  0  0  0  0  0  0  0  0
   50.1902   33.2195   40.5101 H   0  0  0  0  0  0  0  0  0  0  0  0
   49.5571   32.6151   42.0382 H   0  0  0  0  0  0  0  0  0  0  0  0
   49.5980   35.0235   43.5868 H   0  0  0  0  0  0  0  0  0  0  0  0
   50.3199   34.1859   42.1712 H   0  0  0  0  0  0  0  0  0  0  0  0
   50.1612   35.9751   42.1712 H   0  0  0  0  0  0  0  0  0  0  0  0
  1 14  1  0
  1  2  1  0
  2  7  1  0
  3  2  2  0
  3  4  1  0
  4  5  2  0
  5  6  1  0
  7  6  2  0
  8 13  1  0
  8  1  1  0
  9  8  1  0
 10 11  1  0
 10  9  1  0
 11 12  1  0
 12 13  1  0
  1 15  1  6
  3 16  1  0
  4 17  1  0
  6 18  1  0
  9 19  1  0
  9 20  1  0
 10 21  1  0
 10 22  1  0
 11 23  1  0
 11 24  1  0
 12 25  1  0
 12 26  1  0
 13 27  1  0
 13 28  1  0
 14 29  1  0
 14 30  1  0
 14 31  1  0
M  ISO  8  15   8  16  14  17  14  18  14  19  13  20  13  21  13  22  13
M  ISO  8  23  13  24  13  25  13  26  13  27  13  28  13  29   8  30   8
M  ISO  1  31   8
M  END
>  <minimizedAffinity>  (1) 
-3.94542027

>  <minimizedRMSD>  (1) 
0.988423526

$$$$
