
     RDKit          3D

 17 17  0  0  1  0  0  0  0  0999 V2000
   47.1160   34.5740   42.6240 C   0  0  0  0  0  0  0  0  0  0  0  0
   45.9400   35.3510   42.7700 C   0  0  0  0  0  0  0  0  0  0  0  0
   45.1500   35.1550   43.9000 C   0  0  0  0  0  0  0  0  0  0  0  0
   45.5380   34.2300   44.8170 N   0  0  0  0  0  0  0  0  0  0  0  0
   46.6690   33.5030   44.6460 C   0  0  0  0  0  0  0  0  0  0  0  0
   47.4350   33.6920   43.5500 N   0  0  0  0  0  0  0  0  0  0  0  0
   47.8150   34.9050   41.3780 C   0  0  1  0  0  0  0  0  0  0  0  0
   49.0150   35.8090   41.6580 C   0  0  0  0  0  0  0  0  0  0  0  0
   48.3820   33.3940   40.5600 S   0  0  0  0  0  0  0  0  0  0  0  0
   45.6575   36.0923   42.0080 H   0  0  0  0  0  0  0  0  0  0  0  0
   44.2290   35.7381   44.0476 H   0  0  0  0  0  0  0  0  0  0  0  0
   46.9632   32.7585   45.4005 H   0  0  0  0  0  0  0  0  0  0  0  0
   47.1110   35.4362   40.7206 H   0  0  0  0  0  0  0  0  0  0  0  0
   49.1511   35.9116   42.7447 H   0  0  0  0  0  0  0  0  0  0  0  0
   49.9192   35.3657   41.2154 H   0  0  0  0  0  0  0  0  0  0  0  0
   48.8384   36.8004   41.2154 H   0  0  0  0  0  0  0  0  0  0  0  0
   48.7303   32.4659   41.5057 H   0  0  0  0  0  0  0  0  0  0  0  0
  1  2  2  0
  1  6  1  0
  2  3  1  0
  3  4  2  0
  5  4  1  0
  6  5  2  0
  7  8  1  0
  7  1  1  0
  9  7  1  0
  2 10  1  0
  3 11  1  0
  5 12  1  0
  7 13  1  6
  8 14  1  0
  8 15  1  0
  8 16  1  0
  9 17  1  0
M  ISO  8  10  14  11  14  12  14  13   8  14   8  15   8  16   8  17  11
M  END
>  <minimizedAffinity>  (1) 
-3.30290794

>  <minimizedRMSD>  (1) 
0.125733837

$$$$
