
     RDKit          3D

 32 33  0  0  1  0  0  0  0  0999 V2000
   47.7090   34.7540   41.3870 C   0  0  1  0  0  0  0  0  0  0  0  0
   46.9740   34.5560   42.6390 C   0  0  0  0  0  0  0  0  0  0  0  0
   45.8520   35.4150   42.7210 C   0  0  0  0  0  0  0  0  0  0  0  0
   45.0350   35.3600   43.8330 C   0  0  0  0  0  0  0  0  0  0  0  0
   45.3510   34.4670   44.8150 N   0  0  0  0  0  0  0  0  0  0  0  0
   46.4310   33.6560   44.7110 C   0  0  0  0  0  0  0  0  0  0  0  0
   47.2290   33.7190   43.6110 N   0  0  0  0  0  0  0  0  0  0  0  0
   48.9040   35.7040   41.6220 C   0  0  0  0  0  0  0  0  0  0  0  0
   48.3500   33.1940   40.7770 S   0  0  0  0  0  0  0  0  0  0  0  0
   47.2650   33.7330   36.4500 N   0  0  0  0  0  0  0  0  0  0  0  0
   46.2620   33.0950   37.2710 C   0  0  0  0  0  0  0  0  0  0  0  0
   46.4580   33.3420   38.7500 C   0  0  0  0  0  0  0  0  0  0  0  0
   47.7880   32.7810   39.1330 C   0  0  0  0  0  0  0  0  0  0  0  0
   48.8540   33.2840   38.1550 C   0  0  0  0  0  0  0  0  0  0  0  0
   48.2290   34.4050   37.3280 C   0  0  0  0  0  0  0  0  0  0  0  0
   47.0140   35.1845   40.6511 H   0  0  0  0  0  0  0  0  0  0  0  0
   45.6327   36.1204   41.9059 H   0  0  0  0  0  0  0  0  0  0  0  0
   44.1566   36.0158   43.9242 H   0  0  0  0  0  0  0  0  0  0  0  0
   46.6632   32.9450   45.5176 H   0  0  0  0  0  0  0  0  0  0  0  0
   49.0642   35.8313   42.7028 H   0  0  0  0  0  0  0  0  0  0  0  0
   49.8083   35.2756   41.1653 H   0  0  0  0  0  0  0  0  0  0  0  0
   48.6905   36.6817   41.1653 H   0  0  0  0  0  0  0  0  0  0  0  0
   47.7494   33.0246   35.8804 H   0  0  0  0  0  0  0  0  0  0  0  0
   45.2742   33.4815   36.9798 H   0  0  0  0  0  0  0  0  0  0  0  0
   46.3461   32.0106   37.1066 H   0  0  0  0  0  0  0  0  0  0  0  0
   46.4341   34.4224   38.9556 H   0  0  0  0  0  0  0  0  0  0  0  0
   45.6563   32.8614   39.3299 H   0  0  0  0  0  0  0  0  0  0  0  0
   47.6479   31.6904   39.1032 H   0  0  0  0  0  0  0  0  0  0  0  0
   49.7223   33.6673   38.7110 H   0  0  0  0  0  0  0  0  0  0  0  0
   49.1962   32.4671   37.5026 H   0  0  0  0  0  0  0  0  0  0  0  0
   48.9971   34.9230   36.7350 H   0  0  0  0  0  0  0  0  0  0  0  0
   47.7519   35.1691   37.9593 H   0  0  0  0  0  0  0  0  0  0  0  0
  1  8  1  0
  1  2  1  0
  2  3  2  0
  2  7  1  0
  3  4  1  0
  4  5  2  0
  6  5  1  0
  7  6  2  0
  9  1  1  0
 10 11  1  0
 10 15  1  0
 11 12  1  0
 12 13  1  0
 13  9  1  0
 14 13  1  0
 15 14  1  0
  1 16  1  6
  3 17  1  0
  4 18  1  0
  6 19  1  0
  8 20  1  0
  8 21  1  0
  8 22  1  0
 10 23  1  0
 11 24  1  0
 11 25  1  0
 12 26  1  0
 12 27  1  0
 13 28  1  0
 14 29  1  0
 14 30  1  0
 15 31  1  0
 15 32  1  0
M  ISO  8  16   8  17  14  18  14  19  14  20   8  21   8  22   8  23   5
M  ISO  8  24  13  25  13  26  13  27  13  28  13  29  13  30  13  31  13
M  ISO  1  32  13
M  END
>  <minimizedAffinity>  (1) 
-4.37462997

>  <minimizedRMSD>  (1) 
1.78664935

$$$$
