
     RDKit          3D

 33 34  0  0  1  0  0  0  0  0999 V2000
   47.4980   34.6760   42.0110 C   0  0  1  0  0  0  0  0  0  0  0  0
   46.5960   34.7030   43.1620 C   0  0  0  0  0  0  0  0  0  0  0  0
   45.6670   35.7750   43.0600 C   0  0  0  0  0  0  0  0  0  0  0  0
   44.7280   35.9350   44.0730 C   0  0  0  0  0  0  0  0  0  0  0  0
   44.7440   35.0520   45.1190 N   0  0  0  0  0  0  0  0  0  0  0  0
   45.6430   34.0470   45.1780 C   0  0  0  0  0  0  0  0  0  0  0  0
   46.5630   33.8890   44.1860 N   0  0  0  0  0  0  0  0  0  0  0  0
   48.9580   34.8770   42.4740 C   0  0  0  0  0  0  0  0  0  0  0  0
   47.3720   33.1120   41.1370 S   0  0  0  0  0  0  0  0  0  0  0  0
   48.3590   33.1130   39.6080 C   0  0  0  0  0  0  0  0  0  0  0  0
   48.1480   34.4480   38.9590 C   0  0  0  0  0  0  0  0  0  0  0  0
   48.4510   34.4920   37.4960 C   0  0  0  0  0  0  0  0  0  0  0  0
   47.6620   33.3880   36.8140 C   0  0  0  0  0  0  0  0  0  0  0  0
   48.2520   32.0740   37.3160 C   0  0  0  0  0  0  0  0  0  0  0  0
   47.8760   31.9610   38.7700 C   0  0  0  0  0  0  0  0  0  0  0  0
   47.2063   35.4918   41.3332 H   0  0  0  0  0  0  0  0  0  0  0  0
   45.6907   36.4610   42.2005 H   0  0  0  0  0  0  0  0  0  0  0  0
   43.9909   36.7506   44.0348 H   0  0  0  0  0  0  0  0  0  0  0  0
   45.6327   33.3525   46.0309 H   0  0  0  0  0  0  0  0  0  0  0  0
   48.9966   34.8823   43.5733 H   0  0  0  0  0  0  0  0  0  0  0  0
   49.5810   34.0562   42.0892 H   0  0  0  0  0  0  0  0  0  0  0  0
   49.3360   35.8357   42.0892 H   0  0  0  0  0  0  0  0  0  0  0  0
   49.4389   32.9796   39.7691 H   0  0  0  0  0  0  0  0  0  0  0  0
   47.0947   34.7330   39.0984 H   0  0  0  0  0  0  0  0  0  0  0  0
   48.8541   35.1401   39.4410 H   0  0  0  0  0  0  0  0  0  0  0  0
   48.1569   35.4687   37.0841 H   0  0  0  0  0  0  0  0  0  0  0  0
   49.5284   34.3488   37.3269 H   0  0  0  0  0  0  0  0  0  0  0  0
   47.7685   33.4616   35.7216 H   0  0  0  0  0  0  0  0  0  0  0  0
   46.5887   33.4603   37.0439 H   0  0  0  0  0  0  0  0  0  0  0  0
   47.8339   31.2291   36.7491 H   0  0  0  0  0  0  0  0  0  0  0  0
   49.3441   32.0543   37.1860 H   0  0  0  0  0  0  0  0  0  0  0  0
   46.7795   31.9135   38.8430 H   0  0  0  0  0  0  0  0  0  0  0  0
   48.3608   31.0534   39.1590 H   0  0  0  0  0  0  0  0  0  0  0  0
  1  8  1  0
  1  2  1  0
  2  7  1  0
  3  2  2  0
  3  4  1  0
  4  5  2  0
  5  6  1  0
  7  6  2  0
  9  1  1  0
 10  9  1  0
 11 10  1  0
 12 11  1  0
 13 14  1  0
 13 12  1  0
 14 15  1  0
 15 10  1  0
  1 16  1  6
  3 17  1  0
  4 18  1  0
  6 19  1  0
  8 20  1  0
  8 21  1  0
  8 22  1  0
 10 23  1  0
 11 24  1  0
 11 25  1  0
 12 26  1  0
 12 27  1  0
 13 28  1  0
 13 29  1  0
 14 30  1  0
 14 31  1  0
 15 32  1  0
 15 33  1  0
M  ISO  8  16   8  17  14  18  14  19  14  20   8  21   8  22   8  23  13
M  ISO  8  24  13  25  13  26  13  27  13  28  13  29  13  30  13  31  13
M  ISO  2  32  13  33  13
M  END
>  <minimizedAffinity>  (1) 
-4.35030127

>  <minimizedRMSD>  (1) 
1.14739442

$$$$
