
     RDKit          3D

 25 26  0  0  1  0  0  0  0  0999 V2000
   46.7430   34.8200   41.8480 C   0  0  1  0  0  0  0  0  0  0  0  0
   46.1090   34.8130   43.1730 C   0  0  0  0  0  0  0  0  0  0  0  0
   45.2210   35.9060   43.3230 C   0  0  0  0  0  0  0  0  0  0  0  0
   44.5360   36.0270   44.5290 C   0  0  0  0  0  0  0  0  0  0  0  0
   44.7470   35.1000   45.5010 N   0  0  0  0  0  0  0  0  0  0  0  0
   45.6110   34.0620   45.3160 C   0  0  0  0  0  0  0  0  0  0  0  0
   46.2770   33.9440   44.1440 N   0  0  0  0  0  0  0  0  0  0  0  0
   48.2090   35.2810   41.9620 C   0  0  0  0  0  0  0  0  0  0  0  0
   46.7150   33.1770   41.1220 S   0  0  0  0  0  0  0  0  0  0  0  0
   46.4310   33.2220   39.3600 C   0  0  0  0  0  0  0  0  0  0  0  0
   47.3240   33.4080   38.3250 C   0  0  0  0  0  0  0  0  0  0  0  0
   46.8410   33.4000   37.0340 C   0  0  0  0  0  0  0  0  0  0  0  0
   45.5500   33.2190   36.7690 N   0  0  0  0  0  0  0  0  0  0  0  0
   44.6790   33.0370   37.7690 C   0  0  0  0  0  0  0  0  0  0  0  0
   45.1130   33.0380   39.0520 N   0  0  0  0  0  0  0  0  0  0  0  0
   46.1787   35.5142   41.2079 H   0  0  0  0  0  0  0  0  0  0  0  0
   45.0771   36.6359   42.5127 H   0  0  0  0  0  0  0  0  0  0  0  0
   43.8354   36.8591   44.6928 H   0  0  0  0  0  0  0  0  0  0  0  0
   45.7662   33.3233   46.1162 H   0  0  0  0  0  0  0  0  0  0  0  0
   48.4846   35.3677   43.0234 H   0  0  0  0  0  0  0  0  0  0  0  0
   48.8638   34.5454   41.4720 H   0  0  0  0  0  0  0  0  0  0  0  0
   48.3250   36.2590   41.4720 H   0  0  0  0  0  0  0  0  0  0  0  0
   48.3951   33.5590   38.5251 H   0  0  0  0  0  0  0  0  0  0  0  0
   47.5426   33.5474   36.1997 H   0  0  0  0  0  0  0  0  0  0  0  0
   43.6118   32.8868   37.5490 H   0  0  0  0  0  0  0  0  0  0  0  0
  1  8  1  0
  1  2  1  0
  2  3  2  0
  2  7  1  0
  3  4  1  0
  4  5  2  0
  6  5  1  0
  7  6  2  0
  9  1  1  0
 10  9  1  0
 11 10  2  0
 12 11  1  0
 13 12  2  0
 13 14  1  0
 14 15  2  0
 15 10  1  0
  1 16  1  6
  3 17  1  0
  4 18  1  0
  6 19  1  0
  8 20  1  0
  8 21  1  0
  8 22  1  0
 11 23  1  0
 12 24  1  0
 14 25  1  0
M  ISO  8  16   8  17  14  18  14  19  14  20   8  21   8  22   8  23  14
M  ISO  2  24  14  25  14
M  END
>  <minimizedAffinity>  (1) 
-4.23872852

>  <minimizedRMSD>  (1) 
1.89948738

$$$$
