
     RDKit          3D

 30 31  0  0  1  0  0  0  0  0999 V2000
   47.8340   34.8890   41.4350 C   0  0  1  0  0  0  0  0  0  0  0  0
   47.0720   34.6390   42.6530 C   0  0  0  0  0  0  0  0  0  0  0  0
   45.9170   35.4600   42.7200 C   0  0  0  0  0  0  0  0  0  0  0  0
   45.0740   35.3380   43.8170 C   0  0  0  0  0  0  0  0  0  0  0  0
   45.3920   34.4350   44.7830 N   0  0  0  0  0  0  0  0  0  0  0  0
   46.5130   33.6610   44.6850 C   0  0  0  0  0  0  0  0  0  0  0  0
   47.3360   33.7830   43.6090 N   0  0  0  0  0  0  0  0  0  0  0  0
   49.0210   35.8320   41.7220 C   0  0  0  0  0  0  0  0  0  0  0  0
   48.4810   33.3780   40.7330 S   0  0  0  0  0  0  0  0  0  0  0  0
   48.1100   33.1340   39.0120 C   0  0  0  0  0  0  0  0  0  0  0  0
   49.1570   32.1830   38.4410 C   0  0  0  0  0  0  0  0  0  0  0  0
   49.3870   32.6060   37.0130 C   0  0  0  0  0  0  0  0  0  0  0  0
   48.3700   33.6900   36.7500 C   0  0  0  0  0  0  0  0  0  0  0  0
   48.2520   34.3370   38.1350 C   0  0  0  0  0  0  0  0  0  0  0  0
   47.1396   35.3517   40.7182 H   0  0  0  0  0  0  0  0  0  0  0  0
   45.6934   36.1794   41.9185 H   0  0  0  0  0  0  0  0  0  0  0  0
   44.1693   35.9579   43.9026 H   0  0  0  0  0  0  0  0  0  0  0  0
   46.7509   32.9371   45.4783 H   0  0  0  0  0  0  0  0  0  0  0  0
   49.1520   35.9361   42.8092 H   0  0  0  0  0  0  0  0  0  0  0  0
   49.9373   35.4129   41.2807 H   0  0  0  0  0  0  0  0  0  0  0  0
   48.8199   36.8193   41.2807 H   0  0  0  0  0  0  0  0  0  0  0  0
   47.0628   32.7974   39.0040 H   0  0  0  0  0  0  0  0  0  0  0  0
   50.0923   32.2588   39.0150 H   0  0  0  0  0  0  0  0  0  0  0  0
   48.8172   31.1383   38.4962 H   0  0  0  0  0  0  0  0  0  0  0  0
   50.4076   32.9963   36.8864 H   0  0  0  0  0  0  0  0  0  0  0  0
   49.2792   31.7640   36.3134 H   0  0  0  0  0  0  0  0  0  0  0  0
   48.7325   34.4083   36.0000 H   0  0  0  0  0  0  0  0  0  0  0  0
   47.4165   33.3226   36.3427 H   0  0  0  0  0  0  0  0  0  0  0  0
   49.1535   34.9146   38.3873 H   0  0  0  0  0  0  0  0  0  0  0  0
   47.4269   35.0589   38.2251 H   0  0  0  0  0  0  0  0  0  0  0  0
  1  8  1  0
  1  2  1  0
  2  3  2  0
  2  7  1  0
  3  4  1  0
  4  5  2  0
  6  5  1  0
  7  6  2  0
  9  1  1  0
 10  9  1  0
 11 10  1  0
 12 11  1  0
 13 12  1  0
 13 14  1  0
 14 10  1  0
  1 15  1  6
  3 16  1  0
  4 17  1  0
  6 18  1  0
  8 19  1  0
  8 20  1  0
  8 21  1  0
 10 22  1  0
 11 23  1  0
 11 24  1  0
 12 25  1  0
 12 26  1  0
 13 27  1  0
 13 28  1  0
 14 29  1  0
 14 30  1  0
M  ISO  8  15   8  16  14  17  14  18  14  19   8  20   8  21   8  22  13
M  ISO  8  23  13  24  13  25  13  26  13  27  13  28  13  29  13  30  13
M  END
>  <minimizedAffinity>  (1) 
-4.12990618

>  <minimizedRMSD>  (1) 
2.25733709

$$$$
