
     RDKit          3D

 24 25  0  0  1  0  0  0  0  0999 V2000
   46.8520   34.6990   41.7050 C   0  0  1  0  0  0  0  0  0  0  0  0
   46.2130   34.7300   43.0260 C   0  0  0  0  0  0  0  0  0  0  0  0
   45.3320   35.8370   43.1580 C   0  0  0  0  0  0  0  0  0  0  0  0
   44.6310   36.0110   44.3390 C   0  0  0  0  0  0  0  0  0  0  0  0
   44.8200   35.1000   45.3350 N   0  0  0  0  0  0  0  0  0  0  0  0
   45.6720   34.0490   45.1810 C   0  0  0  0  0  0  0  0  0  0  0  0
   46.3500   33.8960   44.0190 N   0  0  0  0  0  0  0  0  0  0  0  0
   48.2010   35.4480   41.7640 C   0  0  0  0  0  0  0  0  0  0  0  0
   47.1240   33.0030   41.1820 S   0  0  0  0  0  0  0  0  0  0  0  0
   48.8920   32.6620   41.3380 C   0  0  0  0  0  0  0  0  0  0  0  0
   49.8920   32.5620   42.3050 C   0  0  0  0  0  0  0  0  0  0  0  0
   51.0580   32.2580   41.6350 C   0  0  0  0  0  0  0  0  0  0  0  0
   50.7550   32.1830   40.3400 N   0  0  0  0  0  0  0  0  0  0  0  0
   49.4800   32.4180   40.1320 N   0  0  0  0  0  0  0  0  0  0  0  0
   46.1894   35.1915   40.9781 H   0  0  0  0  0  0  0  0  0  0  0  0
   45.2081   36.5494   42.3291 H   0  0  0  0  0  0  0  0  0  0  0  0
   43.9424   36.8588   44.4696 H   0  0  0  0  0  0  0  0  0  0  0  0
   45.8091   33.3260   45.9986 H   0  0  0  0  0  0  0  0  0  0  0  0
   48.4867   35.6066   42.8143 H   0  0  0  0  0  0  0  0  0  0  0  0
   48.9746   34.8502   41.2598 H   0  0  0  0  0  0  0  0  0  0  0  0
   48.1027   36.4207   41.2598 H   0  0  0  0  0  0  0  0  0  0  0  0
   49.7736   32.6989   43.3900 H   0  0  0  0  0  0  0  0  0  0  0  0
   52.0504   32.1062   42.0846 H   0  0  0  0  0  0  0  0  0  0  0  0
   51.4345   31.9680   39.5964 H   0  0  0  0  0  0  0  0  0  0  0  0
  1  8  1  0
  1  2  1  0
  2  3  2  0
  2  7  1  0
  3  4  1  0
  4  5  2  0
  6  5  1  0
  7  6  2  0
  9 10  1  0
  9  1  1  0
 10 11  1  0
 12 11  2  0
 13 12  1  0
 14 13  1  0
 14 10  2  0
  1 15  1  6
  3 16  1  0
  4 17  1  0
  6 18  1  0
  8 19  1  0
  8 20  1  0
  8 21  1  0
 11 22  1  0
 12 23  1  0
 13 24  1  0
M  ISO  8  15   8  16  14  17  14  18  14  19   8  20   8  21   8  22  14
M  ISO  2  23  14  24   9
M  END
>  <minimizedAffinity>  (1) 
-4.29054785

>  <minimizedRMSD>  (1) 
1.18994999

$$$$
