
     RDKit          3D

 27 28  0  0  1  0  0  0  0  0999 V2000
   46.8720   34.7130   41.6900 C   0  0  1  0  0  0  0  0  0  0  0  0
   46.2290   34.7310   43.0160 C   0  0  0  0  0  0  0  0  0  0  0  0
   45.3440   35.8290   43.1520 C   0  0  0  0  0  0  0  0  0  0  0  0
   44.6330   36.0050   44.3230 C   0  0  0  0  0  0  0  0  0  0  0  0
   44.8200   35.0900   45.3230 N   0  0  0  0  0  0  0  0  0  0  0  0
   45.6730   34.0490   45.1680 C   0  0  0  0  0  0  0  0  0  0  0  0
   46.3520   33.9030   44.0130 N   0  0  0  0  0  0  0  0  0  0  0  0
   48.2040   35.4880   41.7650 C   0  0  0  0  0  0  0  0  0  0  0  0
   47.2050   33.0270   41.1900 S   0  0  0  0  0  0  0  0  0  0  0  0
   48.9030   32.5480   41.2640 C   0  0  0  0  0  0  0  0  0  0  0  0
   49.3390   32.0910   40.0120 C   0  0  0  0  0  0  0  0  0  0  0  0
   50.6550   31.6660   39.8300 C   0  0  0  0  0  0  0  0  0  0  0  0
   51.5730   31.6760   40.8560 C   0  0  0  0  0  0  0  0  0  0  0  0
   51.1190   32.1330   42.0860 C   0  0  0  0  0  0  0  0  0  0  0  0
   49.8240   32.5570   42.2890 C   0  0  0  0  0  0  0  0  0  0  0  0
   46.1997   35.1818   40.9564 H   0  0  0  0  0  0  0  0  0  0  0  0
   45.2229   36.5425   42.3236 H   0  0  0  0  0  0  0  0  0  0  0  0
   43.9409   36.8509   44.4473 H   0  0  0  0  0  0  0  0  0  0  0  0
   45.8112   33.3240   45.9836 H   0  0  0  0  0  0  0  0  0  0  0  0
   48.4770   35.6468   42.8187 H   0  0  0  0  0  0  0  0  0  0  0  0
   48.9940   34.9086   41.2649 H   0  0  0  0  0  0  0  0  0  0  0  0
   48.0907   36.4612   41.2649 H   0  0  0  0  0  0  0  0  0  0  0  0
   48.6367   32.0675   39.1657 H   0  0  0  0  0  0  0  0  0  0  0  0
   50.9688   31.3122   38.8368 H   0  0  0  0  0  0  0  0  0  0  0  0
   52.6101   31.3401   40.7092 H   0  0  0  0  0  0  0  0  0  0  0  0
   51.8214   32.1575   42.9322 H   0  0  0  0  0  0  0  0  0  0  0  0
   49.5201   32.9086   43.2860 H   0  0  0  0  0  0  0  0  0  0  0  0
  1  8  1  0
  1  2  1  0
  2  3  2  0
  2  7  1  0
  3  4  1  0
  4  5  2  0
  6  5  1  0
  7  6  2  0
  9 10  1  0
  9  1  1  0
 10 15  1  0
 11 10  2  0
 12 11  1  0
 12 13  2  0
 13 14  1  0
 14 15  2  0
  1 16  1  6
  3 17  1  0
  4 18  1  0
  6 19  1  0
  8 20  1  0
  8 21  1  0
  8 22  1  0
 11 23  1  0
 12 24  1  0
 13 25  1  0
 14 26  1  0
 15 27  1  0
M  ISO  8  16   8  17  14  18  14  19  14  20   8  21   8  22   8  23  14
M  ISO  4  24  14  25  14  26  14  27  14
M  END
>  <minimizedAffinity>  (1) 
-4.27984238

>  <minimizedRMSD>  (1) 
1.67378676

$$$$
