
     RDKit          3D

 23 24  0  0  1  0  0  0  0  0999 V2000
   46.7210   34.7920   41.7730 C   0  0  1  0  0  0  0  0  0  0  0  0
   46.1190   34.7840   43.0990 C   0  0  0  0  0  0  0  0  0  0  0  0
   45.2300   35.8800   43.2750 C   0  0  0  0  0  0  0  0  0  0  0  0
   44.5630   36.0160   44.4820 C   0  0  0  0  0  0  0  0  0  0  0  0
   44.7810   35.0900   45.4650 N   0  0  0  0  0  0  0  0  0  0  0  0
   45.6390   34.0580   45.2530 C   0  0  0  0  0  0  0  0  0  0  0  0
   46.2860   33.9320   44.0730 N   0  0  0  0  0  0  0  0  0  0  0  0
   48.1560   35.3570   41.8470 C   0  0  0  0  0  0  0  0  0  0  0  0
   46.7910   33.1330   41.0880 S   0  0  0  0  0  0  0  0  0  0  0  0
   48.4740   32.4740   41.1460 C   0  0  0  0  0  0  0  0  0  0  0  0
   49.2750   32.3440   40.0070 C   0  0  0  0  0  0  0  0  0  0  0  0
   50.8490   31.6050   40.7670 S   0  0  0  0  0  0  0  0  0  0  0  0
   50.0410   31.6450   42.4860 C   0  0  0  0  0  0  0  0  0  0  0  0
   49.0130   32.0770   42.2990 N   0  0  0  0  0  0  0  0  0  0  0  0
   46.0973   35.4248   41.1245 H   0  0  0  0  0  0  0  0  0  0  0  0
   45.0743   36.6084   42.4656 H   0  0  0  0  0  0  0  0  0  0  0  0
   43.8701   36.8543   44.6469 H   0  0  0  0  0  0  0  0  0  0  0  0
   45.8087   33.3181   46.0491 H   0  0  0  0  0  0  0  0  0  0  0  0
   48.4505   35.4730   42.9005 H   0  0  0  0  0  0  0  0  0  0  0  0
   48.8489   34.6646   41.3466 H   0  0  0  0  0  0  0  0  0  0  0  0
   48.1909   36.3360   41.3466 H   0  0  0  0  0  0  0  0  0  0  0  0
   49.0538   32.5994   38.9602 H   0  0  0  0  0  0  0  0  0  0  0  0
   50.4742   31.3218   43.4441 H   0  0  0  0  0  0  0  0  0  0  0  0
  1  8  1  0
  1  2  1  0
  2  3  2  0
  2  7  1  0
  3  4  1  0
  4  5  2  0
  6  5  1  0
  7  6  2  0
  9 10  1  0
  9  1  1  0
 10 14  1  0
 11 12  1  0
 11 10  2  0
 12 13  1  0
 14 13  2  0
  1 15  1  6
  3 16  1  0
  4 17  1  0
  6 18  1  0
  8 19  1  0
  8 20  1  0
  8 21  1  0
 11 22  1  0
 13 23  1  0
M  ISO  8  15   8  16  14  17  14  18  14  19   8  20   8  21   8  22  14
M  ISO  1  23  14
M  END
>  <minimizedAffinity>  (1) 
-3.90795302

>  <minimizedRMSD>  (1) 
1.37134612

$$$$
