
     RDKit          3D

 43 46  0  0  1  0  0  0  0  0999 V2000
   49.6300   33.1420   37.1710 N   0  0  0  0  0  0  0  0  0  0  0  0
   48.5950   33.9700   36.9170 C   0  0  0  0  0  0  0  0  0  0  0  0
   47.7800   33.9800   37.9940 N   0  0  0  0  0  0  0  0  0  0  0  0
   48.2940   33.1580   38.9350 C   0  0  0  0  0  0  0  0  0  0  0  0
   47.8710   32.8050   40.2030 C   0  0  0  0  0  0  0  0  0  0  0  0
   48.6820   31.9350   40.8430 N   0  0  0  0  0  0  0  0  0  0  0  0
   49.7960   31.4300   40.3500 C   0  0  0  0  0  0  0  0  0  0  0  0
   50.2200   31.7650   39.1130 N   0  0  0  0  0  0  0  0  0  0  0  0
   49.4610   32.6400   38.3970 C   0  0  0  0  0  0  0  0  0  0  0  0
   50.5810   30.5140   41.1120 N   0  0  0  0  0  0  0  0  0  0  0  0
   51.6140   29.7070   40.4990 C   0  0  0  0  0  0  0  0  0  0  0  0
   52.8950   29.6730   41.3040 C   0  0  0  0  0  0  0  0  0  0  0  0
   52.5530   29.2710   42.7200 C   0  0  0  0  0  0  0  0  0  0  0  0
   51.6660   30.3530   43.2970 C   0  0  0  0  0  0  0  0  0  0  0  0
   50.3670   30.3670   42.5290 C   0  0  0  0  0  0  0  0  0  0  0  0
   46.3680   33.4820   40.8810 S   0  0  0  0  0  0  0  0  0  0  0  0
   46.6370   34.9730   41.8250 C   0  0  1  0  0  0  0  0  0  0  0  0
   46.0610   34.8700   43.1700 C   0  0  0  0  0  0  0  0  0  0  0  0
   45.1380   35.9120   43.4360 C   0  0  0  0  0  0  0  0  0  0  0  0
   44.5190   35.9180   44.6930 C   0  0  0  0  0  0  0  0  0  0  0  0
   44.8290   34.9300   45.5940 N   0  0  0  0  0  0  0  0  0  0  0  0
   45.7110   33.9640   45.2890 C   0  0  0  0  0  0  0  0  0  0  0  0
   46.3140   33.9600   44.0650 N   0  0  0  0  0  0  0  0  0  0  0  0
   48.1580   35.2740   41.9250 C   0  0  0  0  0  0  0  0  0  0  0  0
   50.4113   32.9342   36.5328 H   0  0  0  0  0  0  0  0  0  0  0  0
   48.4411   34.5406   35.9892 H   0  0  0  0  0  0  0  0  0  0  0  0
   51.2388   28.6783   40.3940 H   0  0  0  0  0  0  0  0  0  0  0  0
   51.8501   30.1600   39.5248 H   0  0  0  0  0  0  0  0  0  0  0  0
   53.5901   28.9411   40.8668 H   0  0  0  0  0  0  0  0  0  0  0  0
   53.3751   30.6627   41.2957 H   0  0  0  0  0  0  0  0  0  0  0  0
   52.0199   28.3088   42.7191 H   0  0  0  0  0  0  0  0  0  0  0  0
   53.4664   29.1561   43.3220 H   0  0  0  0  0  0  0  0  0  0  0  0
   51.4674   30.1432   44.3584 H   0  0  0  0  0  0  0  0  0  0  0  0
   52.1628   31.3311   43.2155 H   0  0  0  0  0  0  0  0  0  0  0  0
   49.7528   31.2074   42.8848 H   0  0  0  0  0  0  0  0  0  0  0  0
   49.8608   29.4053   42.6988 H   0  0  0  0  0  0  0  0  0  0  0  0
   46.1323   35.7978   41.3006 H   0  0  0  0  0  0  0  0  0  0  0  0
   44.9164   36.6852   42.6856 H   0  0  0  0  0  0  0  0  0  0  0  0
   43.7947   36.7036   44.9541 H   0  0  0  0  0  0  0  0  0  0  0  0
   45.9463   33.1792   46.0230 H   0  0  0  0  0  0  0  0  0  0  0  0
   48.4515   35.3321   42.9835 H   0  0  0  0  0  0  0  0  0  0  0  0
   48.7240   34.4705   41.4311 H   0  0  0  0  0  0  0  0  0  0  0  0
   48.3753   36.2326   41.4311 H   0  0  0  0  0  0  0  0  0  0  0  0
  1  9  1  0
  2  1  1  0
  2  3  2  0
  3  4  1  0
  4  5  1  0
  5  6  2  0
  5 16  1  0
  7  6  1  0
  7 10  1  0
  8  7  2  0
  9  4  2  0
  9  8  1  0
 10 15  1  0
 11 10  1  0
 11 12  1  0
 12 13  1  0
 13 14  1  0
 15 14  1  0
 16 17  1  0
 17 24  1  0
 17 18  1  0
 18 19  2  0
 18 23  1  0
 19 20  1  0
 20 21  2  0
 22 21  1  0
 23 22  2  0
  1 25  1  0
  2 26  1  0
 11 27  1  0
 11 28  1  0
 12 29  1  0
 12 30  1  0
 13 31  1  0
 13 32  1  0
 14 33  1  0
 14 34  1  0
 15 35  1  0
 15 36  1  0
 17 37  1  6
 19 38  1  0
 20 39  1  0
 22 40  1  0
 24 41  1  0
 24 42  1  0
 24 43  1  0
M  ISO  8  25   9  26  14  27  13  28  13  29  13  30  13  31  13  32  13
M  ISO  8  33  13  34  13  35  13  36  13  37   8  38  14  39  14  40  14
M  ISO  3  41   8  42   8  43   8
M  END
>  <minimizedAffinity>  (1) 
-5.51703501

>  <minimizedRMSD>  (1) 
0.410916805

$$$$
