
     RDKit          3D

 38 41  0  0  1  0  0  0  0  0999 V2000
   49.6630   33.0230   37.0770 N   0  0  0  0  0  0  0  0  0  0  0  0
   48.5080   33.6560   36.8520 C   0  0  0  0  0  0  0  0  0  0  0  0
   47.7840   33.6340   37.9830 N   0  0  0  0  0  0  0  0  0  0  0  0
   48.4760   32.9800   38.9460 C   0  0  0  0  0  0  0  0  0  0  0  0
   48.2000   32.6790   40.2620 C   0  0  0  0  0  0  0  0  0  0  0  0
   49.1710   32.0030   40.8890 N   0  0  0  0  0  0  0  0  0  0  0  0
   50.3290   31.6210   40.3460 C   0  0  0  0  0  0  0  0  0  0  0  0
   50.5880   31.9180   39.0680 N   0  0  0  0  0  0  0  0  0  0  0  0
   49.6700   32.6020   38.3420 C   0  0  0  0  0  0  0  0  0  0  0  0
   51.3110   30.8980   41.0990 N   0  0  0  0  0  0  0  0  0  0  0  0
   50.9240   30.2300   42.2190 C   0  0  0  0  0  0  0  0  0  0  0  0
   51.8580   29.5140   42.9770 C   0  0  0  0  0  0  0  0  0  0  0  0
   53.1390   29.5740   42.4650 C   0  0  0  0  0  0  0  0  0  0  0  0
   54.0180   28.9340   43.1280 O   0  0  0  0  0  0  0  0  0  0  0  0
   53.5570   30.2220   41.3630 N   0  0  0  0  0  0  0  0  0  0  0  0
   52.5890   30.8970   40.6800 C   0  0  0  0  0  0  0  0  0  0  0  0
   52.9340   31.5100   39.6540 O   0  0  0  0  0  0  0  0  0  0  0  0
   46.6550   33.1810   41.0060 S   0  0  0  0  0  0  0  0  0  0  0  0
   46.7360   34.8030   41.7490 C   0  0  1  0  0  0  0  0  0  0  0  0
   46.1040   34.8090   43.0810 C   0  0  0  0  0  0  0  0  0  0  0  0
   45.2250   35.9050   43.2540 C   0  0  0  0  0  0  0  0  0  0  0  0
   44.5570   36.0380   44.4640 C   0  0  0  0  0  0  0  0  0  0  0  0
   44.7830   35.0920   45.4370 N   0  0  0  0  0  0  0  0  0  0  0  0
   45.6260   34.0650   45.2340 C   0  0  0  0  0  0  0  0  0  0  0  0
   46.2800   33.9450   44.0370 N   0  0  0  0  0  0  0  0  0  0  0  0
   48.2110   35.2770   41.8730 C   0  0  0  0  0  0  0  0  0  0  0  0
   50.4185   32.8841   36.3908 H   0  0  0  0  0  0  0  0  0  0  0  0
   48.2019   34.1171   35.9014 H   0  0  0  0  0  0  0  0  0  0  0  0
   49.8695   30.2526   42.5313 H   0  0  0  0  0  0  0  0  0  0  0  0
   51.5973   28.9586   43.8900 H   0  0  0  0  0  0  0  0  0  0  0  0
   54.5402   30.2092   41.0563 H   0  0  0  0  0  0  0  0  0  0  0  0
   46.1872   35.4953   41.0936 H   0  0  0  0  0  0  0  0  0  0  0  0
   45.0742   36.6364   42.4463 H   0  0  0  0  0  0  0  0  0  0  0  0
   43.8666   36.8761   44.6396 H   0  0  0  0  0  0  0  0  0  0  0  0
   45.7903   33.3220   46.0283 H   0  0  0  0  0  0  0  0  0  0  0  0
   48.4802   35.3635   42.9360 H   0  0  0  0  0  0  0  0  0  0  0  0
   48.8731   34.5464   41.3854 H   0  0  0  0  0  0  0  0  0  0  0  0
   48.3236   36.2566   41.3854 H   0  0  0  0  0  0  0  0  0  0  0  0
  1  9  1  0
  2  1  1  0
  2  3  2  0
  3  4  1  0
  4  5  1  0
  5  6  2  0
  5 18  1  0
  7  6  1  0
  7 10  1  0
  8  7  2  0
  9  4  2  0
  9  8  1  0
 10 11  1  0
 11 12  2  0
 13 12  1  0
 13 14  2  0
 15 13  1  0
 16 10  1  0
 16 15  1  0
 17 16  2  0
 18 19  1  0
 19 26  1  0
 19 20  1  0
 20 21  2  0
 20 25  1  0
 21 22  1  0
 22 23  2  0
 24 23  1  0
 25 24  2  0
  1 27  1  0
  2 28  1  0
 11 29  1  0
 12 30  1  0
 15 31  1  0
 19 32  1  6
 21 33  1  0
 22 34  1  0
 24 35  1  0
 26 36  1  0
 26 37  1  0
 26 38  1  0
M  ISO  8  27   9  28  14  29  14  30  14  31   9  32   8  33  14  34  14
M  ISO  4  35  14  36   8  37   8  38   8
M  END
>  <minimizedAffinity>  (1) 
-5.86063099

>  <minimizedRMSD>  (1) 
0.906255305

$$$$
