
     RDKit          3D

 41 45  0  0  1  0  0  0  0  0999 V2000
   46.4710   32.2320   37.7250 C   0  0  2  0  0  0  0  0  0  0  0  0
   46.8830   30.7470   37.6640 C   0  0  0  0  0  0  0  0  0  0  0  0
   47.3210   31.6310   38.8170 C   0  0  1  0  0  0  0  0  0  0  0  0
   43.2510   33.3960   38.9090 N   0  0  0  0  0  0  0  0  0  0  0  0
   42.8470   32.4510   37.9960 C   0  0  0  0  0  0  0  0  0  0  0  0
   43.9160   31.8840   37.4300 N   0  0  0  0  0  0  0  0  0  0  0  0
   45.0190   32.4850   37.9990 C   0  0  0  0  0  0  0  0  0  0  0  0
   44.5440   33.3610   38.8580 N   0  0  0  0  0  0  0  0  0  0  0  0
   41.4240   34.9590   39.1180 C   0  0  0  0  0  0  0  0  0  0  0  0
   42.5030   34.2530   39.7480 C   0  0  0  0  0  0  0  0  0  0  0  0
   42.7190   34.4580   41.0720 C   0  0  0  0  0  0  0  0  0  0  0  0
   41.8870   35.3280   41.7140 N   0  0  0  0  0  0  0  0  0  0  0  0
   40.8860   35.9780   41.1120 C   0  0  0  0  0  0  0  0  0  0  0  0
   40.6660   35.7800   39.8000 N   0  0  0  0  0  0  0  0  0  0  0  0
   48.6840   32.1160   38.9390 C   0  0  0  0  0  0  0  0  0  0  0  0
   49.5800   31.5210   38.2570 O   0  0  0  0  0  0  0  0  0  0  0  0
   49.0150   33.1760   39.7440 O   0  0  0  0  0  0  0  0  0  0  0  0
   48.1610   32.7900   43.1040 N   0  0  0  0  0  0  0  0  0  0  0  0
   48.8870   32.4900   42.0170 N   0  0  0  0  0  0  0  0  0  0  0  0
   48.4500   33.2680   40.9970 C   0  0  0  0  0  0  0  0  0  0  0  0
   47.4340   34.0770   41.4300 C   0  0  0  0  0  0  0  0  0  0  0  0
   47.2760   33.7460   42.7800 C   0  0  0  0  0  0  0  0  0  0  0  0
   46.3210   34.3260   43.6970 C   0  0  0  0  0  0  0  0  0  0  0  0
   46.0680   33.7790   44.9390 C   0  0  0  0  0  0  0  0  0  0  0  0
   45.1400   34.4310   45.7030 C   0  0  0  0  0  0  0  0  0  0  0  0
   44.4970   35.5280   45.3100 N   0  0  0  0  0  0  0  0  0  0  0  0
   44.7540   36.0560   44.0870 C   0  0  0  0  0  0  0  0  0  0  0  0
   45.6530   35.4300   43.3390 N   0  0  0  0  0  0  0  0  0  0  0  0
   46.5735   33.1178   37.0809 H   0  0  0  0  0  0  0  0  0  0  0  0
   46.1333   29.9585   37.8261 H   0  0  0  0  0  0  0  0  0  0  0  0
   47.3940   30.1055   36.9310 H   0  0  0  0  0  0  0  0  0  0  0  0
   47.2533   31.5141   39.9087 H   0  0  0  0  0  0  0  0  0  0  0  0
   41.8011   32.1996   37.7661 H   0  0  0  0  0  0  0  0  0  0  0  0
   41.2309   34.8080   38.0457 H   0  0  0  0  0  0  0  0  0  0  0  0
   43.5317   33.9437   41.6058 H   0  0  0  0  0  0  0  0  0  0  0  0
   40.2484   36.6681   41.6841 H   0  0  0  0  0  0  0  0  0  0  0  0
   48.2652   32.3584   44.0334 H   0  0  0  0  0  0  0  0  0  0  0  0
   46.8692   34.8199   40.8476 H   0  0  0  0  0  0  0  0  0  0  0  0
   46.5820   32.8731   45.2928 H   0  0  0  0  0  0  0  0  0  0  0  0
   44.9118   34.0255   46.6997 H   0  0  0  0  0  0  0  0  0  0  0  0
   44.2404   36.9617   43.7320 H   0  0  0  0  0  0  0  0  0  0  0  0
  1  7  1  0
  1  3  1  0
  2  1  1  0
  2  3  1  0
  3 15  1  0
  4 10  1  0
  5  4  1  0
  6  5  2  0
  6  7  1  0
  7  8  2  0
  8  4  1  0
  9 10  2  0
  9 14  1  0
 10 11  1  0
 11 12  2  0
 13 12  1  0
 14 13  2  0
 15 17  1  0
 16 15  2  0
 17 20  1  0
 19 18  1  0
 20 21  1  0
 20 19  2  0
 21 22  2  0
 22 18  1  0
 22 23  1  0
 23 24  2  0
 24 25  1  0
 26 25  2  0
 27 26  1  0
 28 23  1  0
 28 27  2  0
  1 29  1  6
  2 30  1  0
  2 31  1  0
  3 32  1  1
  5 33  1  0
  9 34  1  0
 11 35  1  0
 13 36  1  0
 18 37  1  0
 21 38  1  0
 24 39  1  0
 25 40  1  0
 27 41  1  0
M  ISO  8  29  13  30  13  31  13  32  13  33  14  34  14  35  14  36  14
M  ISO  5  37   9  38  14  39  14  40  14  41  14
M  END
>  <minimizedAffinity>  (1) 
-5.24957895

>  <minimizedRMSD>  (1) 
5.9068718

$$$$
