
     RDKit          3D

 36 39  0  0  1  0  0  0  0  0999 V2000
   49.6100   33.0830   37.1470 N   0  0  0  0  0  0  0  0  0  0  0  0
   48.5490   33.8740   36.8700 C   0  0  0  0  0  0  0  0  0  0  0  0
   47.7550   33.9050   37.9550 N   0  0  0  0  0  0  0  0  0  0  0  0
   48.2980   33.1430   38.9190 C   0  0  0  0  0  0  0  0  0  0  0  0
   47.8970   32.8330   40.2160 C   0  0  0  0  0  0  0  0  0  0  0  0
   48.7380   32.0160   40.8750 N   0  0  0  0  0  0  0  0  0  0  0  0
   49.8640   31.5130   40.3940 C   0  0  0  0  0  0  0  0  0  0  0  0
   50.2490   31.8150   39.1380 N   0  0  0  0  0  0  0  0  0  0  0  0
   49.4750   32.6300   38.3890 C   0  0  0  0  0  0  0  0  0  0  0  0
   50.6980   30.6330   41.2090 C   0  0  0  0  0  0  0  0  0  0  0  0
   50.9540   30.9460   42.5330 C   0  0  0  0  0  0  0  0  0  0  0  0
   51.7430   30.0780   43.2400 C   0  0  0  0  0  0  0  0  0  0  0  0
   52.2480   28.9690   42.6800 N   0  0  0  0  0  0  0  0  0  0  0  0
   51.9960   28.6620   41.3800 C   0  0  0  0  0  0  0  0  0  0  0  0
   51.2130   29.5130   40.6570 N   0  0  0  0  0  0  0  0  0  0  0  0
   46.3810   33.5050   40.8770 S   0  0  0  0  0  0  0  0  0  0  0  0
   46.6360   34.9970   41.8240 C   0  0  1  0  0  0  0  0  0  0  0  0
   46.0610   34.8760   43.1770 C   0  0  0  0  0  0  0  0  0  0  0  0
   45.1340   35.9120   43.4560 C   0  0  0  0  0  0  0  0  0  0  0  0
   44.5180   35.9060   44.7080 C   0  0  0  0  0  0  0  0  0  0  0  0
   44.8310   34.9170   45.5990 N   0  0  0  0  0  0  0  0  0  0  0  0
   45.7230   33.9480   45.2870 C   0  0  0  0  0  0  0  0  0  0  0  0
   46.3250   33.9570   44.0590 N   0  0  0  0  0  0  0  0  0  0  0  0
   48.1520   35.3230   41.9340 C   0  0  0  0  0  0  0  0  0  0  0  0
   50.3878   32.8688   36.5066 H   0  0  0  0  0  0  0  0  0  0  0  0
   48.3668   34.4008   35.9217 H   0  0  0  0  0  0  0  0  0  0  0  0
   50.5411   31.8536   42.9976 H   0  0  0  0  0  0  0  0  0  0  0  0
   51.9683   30.2961   44.2944 H   0  0  0  0  0  0  0  0  0  0  0  0
   52.4123   27.7519   40.9235 H   0  0  0  0  0  0  0  0  0  0  0  0
   46.1247   35.8149   41.2953 H   0  0  0  0  0  0  0  0  0  0  0  0
   44.9088   36.6914   42.7131 H   0  0  0  0  0  0  0  0  0  0  0  0
   43.7902   36.6865   44.9747 H   0  0  0  0  0  0  0  0  0  0  0  0
   45.9619   33.1593   46.0156 H   0  0  0  0  0  0  0  0  0  0  0  0
   48.4378   35.3845   42.9944 H   0  0  0  0  0  0  0  0  0  0  0  0
   48.7343   34.5295   41.4427 H   0  0  0  0  0  0  0  0  0  0  0  0
   48.3566   36.2857   41.4427 H   0  0  0  0  0  0  0  0  0  0  0  0
  1  9  1  0
  2  1  1  0
  2  3  2  0
  3  4  1  0
  4  5  1  0
  5  6  2  0
  5 16  1  0
  7  6  1  0
  7 10  1  0
  8  7  2  0
  9  4  2  0
  9  8  1  0
 10 11  2  0
 11 12  1  0
 13 12  2  0
 14 13  1  0
 15 10  1  0
 15 14  2  0
 16 17  1  0
 17 24  1  0
 17 18  1  0
 18 19  2  0
 18 23  1  0
 19 20  1  0
 20 21  2  0
 22 21  1  0
 23 22  2  0
  1 25  1  0
  2 26  1  0
 11 27  1  0
 12 28  1  0
 14 29  1  0
 17 30  1  6
 19 31  1  0
 20 32  1  0
 22 33  1  0
 24 34  1  0
 24 35  1  0
 24 36  1  0
M  ISO  8  25   9  26  14  27  14  28  14  29  14  30   8  31  14  32  14
M  ISO  4  33  14  34   8  35   8  36   8
M  END
>  <minimizedAffinity>  (1) 
-5.18520641

>  <minimizedRMSD>  (1) 
0.603563905

$$$$
