
     RDKit          3D

 35 38  0  0  1  0  0  0  0  0999 V2000
   49.7530   33.0420   37.1990 N   0  0  0  0  0  0  0  0  0  0  0  0
   48.6550   33.7770   36.9520 C   0  0  0  0  0  0  0  0  0  0  0  0
   47.8690   33.7510   38.0470 N   0  0  0  0  0  0  0  0  0  0  0  0
   48.4580   33.0030   38.9930 C   0  0  0  0  0  0  0  0  0  0  0  0
   48.1000   32.6490   40.2830 C   0  0  0  0  0  0  0  0  0  0  0  0
   48.9880   31.8700   40.9070 N   0  0  0  0  0  0  0  0  0  0  0  0
   50.1310   31.4290   40.4170 C   0  0  0  0  0  0  0  0  0  0  0  0
   50.4930   31.7620   39.1740 N   0  0  0  0  0  0  0  0  0  0  0  0
   49.6610   32.5550   38.4420 C   0  0  0  0  0  0  0  0  0  0  0  0
   51.0020   30.5800   41.2250 C   0  0  0  0  0  0  0  0  0  0  0  0
   51.2130   29.2220   41.0430 C   0  0  0  0  0  0  0  0  0  0  0  0
   52.0810   28.7860   41.9830 N   0  0  0  0  0  0  0  0  0  0  0  0
   52.3920   29.8650   42.7240 C   0  0  0  0  0  0  0  0  0  0  0  0
   51.7500   30.9710   42.2870 N   0  0  0  0  0  0  0  0  0  0  0  0
   46.5580   33.2250   40.9860 S   0  0  0  0  0  0  0  0  0  0  0  0
   46.7130   34.8240   41.7680 C   0  0  1  0  0  0  0  0  0  0  0  0
   46.0770   34.8380   43.0970 C   0  0  0  0  0  0  0  0  0  0  0  0
   45.2030   35.9400   43.2600 C   0  0  0  0  0  0  0  0  0  0  0  0
   44.5430   36.0430   44.4980 C   0  0  0  0  0  0  0  0  0  0  0  0
   44.7670   35.1020   45.4640 N   0  0  0  0  0  0  0  0  0  0  0  0
   45.6070   34.0800   45.2490 C   0  0  0  0  0  0  0  0  0  0  0  0
   46.2550   33.9690   44.0500 N   0  0  0  0  0  0  0  0  0  0  0  0
   48.2060   35.2290   41.8990 C   0  0  0  0  0  0  0  0  0  0  0  0
   50.5315   32.8813   36.5440 H   0  0  0  0  0  0  0  0  0  0  0  0
   48.4350   34.3096   36.0150 H   0  0  0  0  0  0  0  0  0  0  0  0
   50.7500   28.6012   40.2618 H   0  0  0  0  0  0  0  0  0  0  0  0
   53.0832   29.8490   43.5796 H   0  0  0  0  0  0  0  0  0  0  0  0
   51.8155   31.9203   42.6812 H   0  0  0  0  0  0  0  0  0  0  0  0
   46.1955   35.5532   41.1274 H   0  0  0  0  0  0  0  0  0  0  0  0
   45.0480   36.6781   42.4592 H   0  0  0  0  0  0  0  0  0  0  0  0
   43.8504   36.8762   44.6878 H   0  0  0  0  0  0  0  0  0  0  0  0
   45.7751   33.3308   46.0367 H   0  0  0  0  0  0  0  0  0  0  0  0
   48.4742   35.3017   42.9633 H   0  0  0  0  0  0  0  0  0  0  0  0
   48.8360   34.4693   41.4132 H   0  0  0  0  0  0  0  0  0  0  0  0
   48.3657   36.2029   41.4132 H   0  0  0  0  0  0  0  0  0  0  0  0
  1  9  1  0
  2  1  1  0
  2  3  2  0
  3  4  1  0
  4  5  1  0
  5  6  2  0
  5 15  1  0
  7  6  1  0
  7 10  1  0
  8  7  2  0
  9  4  2  0
  9  8  1  0
 10 14  1  0
 11 10  2  0
 11 12  1  0
 12 13  2  0
 14 13  1  0
 15 16  1  0
 16 23  1  0
 16 17  1  0
 17 18  2  0
 17 22  1  0
 18 19  1  0
 19 20  2  0
 21 20  1  0
 22 21  2  0
  1 24  1  0
  2 25  1  0
 11 26  1  0
 13 27  1  0
 14 28  1  0
 16 29  1  6
 18 30  1  0
 19 31  1  0
 21 32  1  0
 23 33  1  0
 23 34  1  0
 23 35  1  0
M  ISO  8  24   9  25  14  26  14  27  14  28   9  29   8  30  14  31  14
M  ISO  4  32  14  33   8  34   8  35   8
M  END
>  <minimizedAffinity>  (1) 
-5.1865592

>  <minimizedRMSD>  (1) 
0.561848819

$$$$
