
     RDKit          3D

 41 44  0  0  1  0  0  0  0  0999 V2000
   46.2630   33.6400   40.8300 S   0  0  0  0  0  0  0  0  0  0  0  0
   49.7050   33.0940   37.3160 N   0  0  0  0  0  0  0  0  0  0  0  0
   48.7730   34.0240   37.0290 C   0  0  0  0  0  0  0  0  0  0  0  0
   47.9000   34.0790   38.0530 N   0  0  0  0  0  0  0  0  0  0  0  0
   48.2720   33.1900   38.9840 C   0  0  0  0  0  0  0  0  0  0  0  0
   47.7370   32.8360   40.2200 C   0  0  0  0  0  0  0  0  0  0  0  0
   48.4200   31.8720   40.8760 N   0  0  0  0  0  0  0  0  0  0  0  0
   49.5100   31.2760   40.4320 C   0  0  0  0  0  0  0  0  0  0  0  0
   50.0380   31.6070   39.2390 N   0  0  0  0  0  0  0  0  0  0  0  0
   49.4200   32.5680   38.5070 C   0  0  0  0  0  0  0  0  0  0  0  0
   50.1480   30.2260   41.2800 C   0  0  0  0  0  0  0  0  0  0  0  0
   50.5490   30.7360   42.6430 C   0  0  0  0  0  0  0  0  0  0  0  0
   51.9070   30.0750   42.8930 C   0  0  0  0  0  0  0  0  0  0  0  0
   52.5160   30.1210   41.4910 C   0  0  0  0  0  0  0  0  0  0  0  0
   51.3640   29.6100   40.6520 C   0  0  0  0  0  0  0  0  0  0  0  0
   46.6240   35.0570   41.8590 C   0  0  1  0  0  0  0  0  0  0  0  0
   46.0410   34.9240   43.1950 C   0  0  0  0  0  0  0  0  0  0  0  0
   45.1210   35.9530   43.4900 C   0  0  0  0  0  0  0  0  0  0  0  0
   44.4950   35.9320   44.7420 C   0  0  0  0  0  0  0  0  0  0  0  0
   44.8060   34.9160   45.6160 N   0  0  0  0  0  0  0  0  0  0  0  0
   45.6900   33.9600   45.2870 C   0  0  0  0  0  0  0  0  0  0  0  0
   46.2980   33.9880   44.0600 N   0  0  0  0  0  0  0  0  0  0  0  0
   48.1570   35.2780   41.9620 C   0  0  0  0  0  0  0  0  0  0  0  0
   50.5017   32.8340   36.7172 H   0  0  0  0  0  0  0  0  0  0  0  0
   48.7322   34.6340   36.1146 H   0  0  0  0  0  0  0  0  0  0  0  0
   49.3628   29.4623   41.3811 H   0  0  0  0  0  0  0  0  0  0  0  0
   50.6409   31.8321   42.6402 H   0  0  0  0  0  0  0  0  0  0  0  0
   49.8094   30.4980   43.4217 H   0  0  0  0  0  0  0  0  0  0  0  0
   52.5087   30.6480   43.6139 H   0  0  0  0  0  0  0  0  0  0  0  0
   51.8474   29.0668   43.3288 H   0  0  0  0  0  0  0  0  0  0  0  0
   52.7975   31.1458   41.2074 H   0  0  0  0  0  0  0  0  0  0  0  0
   53.4445   29.5411   41.3833 H   0  0  0  0  0  0  0  0  0  0  0  0
   51.3096   28.5121   40.6918 H   0  0  0  0  0  0  0  0  0  0  0  0
   51.4681   29.8736   39.5891 H   0  0  0  0  0  0  0  0  0  0  0  0
   46.1650   35.9349   41.3808 H   0  0  0  0  0  0  0  0  0  0  0  0
   44.9029   36.7460   42.7596 H   0  0  0  0  0  0  0  0  0  0  0  0
   43.7702   36.7110   45.0209 H   0  0  0  0  0  0  0  0  0  0  0  0
   45.9251   33.1568   46.0009 H   0  0  0  0  0  0  0  0  0  0  0  0
   48.4510   35.3204   43.0211 H   0  0  0  0  0  0  0  0  0  0  0  0
   48.6813   34.4462   41.4689 H   0  0  0  0  0  0  0  0  0  0  0  0
   48.4250   36.2241   41.4689 H   0  0  0  0  0  0  0  0  0  0  0  0
  1 16  1  0
  2 10  1  0
  3  2  1  0
  3  4  2  0
  4  5  1  0
  5  6  1  0
  6  1  1  0
  6  7  2  0
  8  7  1  0
  8 11  1  0
  9  8  2  0
 10  5  2  0
 10  9  1  0
 11 12  1  0
 12 13  1  0
 14 13  1  0
 15 11  1  0
 15 14  1  0
 16 23  1  0
 16 17  1  0
 17 18  2  0
 17 22  1  0
 18 19  1  0
 19 20  2  0
 21 20  1  0
 22 21  2  0
  2 24  1  0
  3 25  1  0
 11 26  1  0
 12 27  1  0
 12 28  1  0
 13 29  1  0
 13 30  1  0
 14 31  1  0
 14 32  1  0
 15 33  1  0
 15 34  1  0
 16 35  1  6
 18 36  1  0
 19 37  1  0
 21 38  1  0
 23 39  1  0
 23 40  1  0
 23 41  1  0
M  ISO  8  24   9  25  14  26  13  27  13  28  13  29  13  30  13  31  13
M  ISO  8  32  13  33  13  34  13  35   8  36  14  37  14  38  14  39   8
M  ISO  2  40   8  41   8
M  END
>  <minimizedAffinity>  (1) 
-5.20249796

>  <minimizedRMSD>  (1) 
0.395039678

$$$$
