
     RDKit          3D

 43 47  0  0  1  0  0  0  0  0999 V2000
   47.8560   33.2930   38.9400 C   0  0  2  0  0  0  0  0  0  0  0  0
   48.1180   34.3020   37.8020 C   0  0  0  0  0  0  0  0  0  0  0  0
   47.6370   32.8960   37.4990 C   0  0  1  0  0  0  0  0  0  0  0  0
   45.5230   34.0840   41.5960 N   0  0  0  0  0  0  0  0  0  0  0  0
   44.6530   33.9460   40.5430 C   0  0  0  0  0  0  0  0  0  0  0  0
   45.3320   33.6450   39.4360 N   0  0  0  0  0  0  0  0  0  0  0  0
   46.6600   33.5890   39.7950 C   0  0  0  0  0  0  0  0  0  0  0  0
   46.6920   33.8590   41.0840 N   0  0  0  0  0  0  0  0  0  0  0  0
   44.7300   35.6920   43.2110 C   0  0  0  0  0  0  0  0  0  0  0  0
   45.2940   34.3970   42.9560 C   0  0  0  0  0  0  0  0  0  0  0  0
   45.5580   33.5930   44.0170 C   0  0  0  0  0  0  0  0  0  0  0  0
   45.2680   34.0710   45.2600 N   0  0  0  0  0  0  0  0  0  0  0  0
   44.7410   35.2860   45.4760 C   0  0  0  0  0  0  0  0  0  0  0  0
   44.4750   36.0900   44.4390 N   0  0  0  0  0  0  0  0  0  0  0  0
   48.5180   31.8850   36.9510 C   0  0  0  0  0  0  0  0  0  0  0  0
   47.9990   30.7670   36.6270 O   0  0  0  0  0  0  0  0  0  0  0  0
   49.8660   32.1040   36.7710 O   0  0  0  0  0  0  0  0  0  0  0  0
   52.6350   31.7460   38.8570 N   0  0  0  0  0  0  0  0  0  0  0  0
   52.0440   32.1280   37.7090 N   0  0  0  0  0  0  0  0  0  0  0  0
   50.7290   31.8250   37.8050 C   0  0  0  0  0  0  0  0  0  0  0  0
   50.4720   31.2470   39.0180 C   0  0  0  0  0  0  0  0  0  0  0  0
   51.7070   31.2100   39.6660 C   0  0  0  0  0  0  0  0  0  0  0  0
   51.9790   30.7040   40.9530 N   0  0  0  0  0  0  0  0  0  0  0  0
   52.6220   29.5320   41.1170 C   0  0  0  0  0  0  0  0  0  0  0  0
   52.9020   29.0100   42.3590 C   0  0  0  0  0  0  0  0  0  0  0  0
   52.5320   29.6720   43.5160 C   0  0  0  0  0  0  0  0  0  0  0  0
   52.7480   29.2690   44.6730 O   0  0  0  0  0  0  0  0  0  0  0  0
   51.8910   30.8400   43.3230 N   0  0  0  0  0  0  0  0  0  0  0  0
   51.6340   31.3190   42.0950 C   0  0  0  0  0  0  0  0  0  0  0  0
   51.0330   32.4130   42.0430 O   0  0  0  0  0  0  0  0  0  0  0  0
   48.4290   32.8567   39.7714 H   0  0  0  0  0  0  0  0  0  0  0  0
   47.4441   35.1594   37.6580 H   0  0  0  0  0  0  0  0  0  0  0  0
   48.9697   34.9228   37.4870 H   0  0  0  0  0  0  0  0  0  0  0  0
   46.8022   32.5122   36.8942 H   0  0  0  0  0  0  0  0  0  0  0  0
   43.5612   34.0657   40.6036 H   0  0  0  0  0  0  0  0  0  0  0  0
   44.5076   36.3618   42.3672 H   0  0  0  0  0  0  0  0  0  0  0  0
   45.9907   32.5912   43.8787 H   0  0  0  0  0  0  0  0  0  0  0  0
   44.5282   35.6205   46.5021 H   0  0  0  0  0  0  0  0  0  0  0  0
   53.6357   31.8483   39.0785 H   0  0  0  0  0  0  0  0  0  0  0  0
   49.5039   30.8897   39.3989 H   0  0  0  0  0  0  0  0  0  0  0  0
   52.9352   28.9708   40.2243 H   0  0  0  0  0  0  0  0  0  0  0  0
   53.4301   28.0479   42.4333 H   0  0  0  0  0  0  0  0  0  0  0  0
   51.5879   31.3838   44.1436 H   0  0  0  0  0  0  0  0  0  0  0  0
  1  7  1  0
  2  1  1  0
  3  2  1  0
  3  1  1  0
  4 10  1  0
  5  4  1  0
  6  7  1  0
  6  5  2  0
  7  8  2  0
  8  4  1  0
  9 14  2  0
 10  9  1  0
 10 11  2  0
 11 12  1  0
 12 13  2  0
 14 13  1  0
 15  3  1  0
 16 15  2  0
 17 15  1  0
 17 20  1  0
 18 22  1  0
 19 20  2  0
 19 18  1  0
 20 21  1  0
 21 22  2  0
 22 23  1  0
 23 24  1  0
 23 29  1  0
 24 25  2  0
 25 26  1  0
 26 27  2  0
 28 26  1  0
 29 28  1  0
 30 29  2  0
  1 31  1  1
  2 32  1  0
  2 33  1  0
  3 34  1  1
  5 35  1  0
  9 36  1  0
 11 37  1  0
 13 38  1  0
 18 39  1  0
 21 40  1  0
 24 41  1  0
 25 42  1  0
 28 43  1  0
M  ISO  8  31  13  32  13  33  13  34  13  35  14  36  14  37  14  38  14
M  ISO  5  39   9  40  14  41  14  42  14  43   9
M  END
>  <minimizedAffinity>  (1) 
-5.18088579

>  <minimizedRMSD>  (1) 
1.02777159

$$$$
