
     RDKit          3D

 37 39  0  0  1  0  0  0  0  0999 V2000
   46.7290   34.7730   41.7870 C   0  0  1  0  0  0  0  0  0  0  0  0
   46.0870   34.8080   43.1090 C   0  0  0  0  0  0  0  0  0  0  0  0
   45.2210   35.9160   43.2540 C   0  0  0  0  0  0  0  0  0  0  0  0
   44.5500   36.0520   44.4770 C   0  0  0  0  0  0  0  0  0  0  0  0
   44.7650   35.1140   45.4600 N   0  0  0  0  0  0  0  0  0  0  0  0
   45.6030   34.0780   45.2670 C   0  0  0  0  0  0  0  0  0  0  0  0
   46.2540   33.9500   44.0740 N   0  0  0  0  0  0  0  0  0  0  0  0
   48.2070   35.2360   41.9090 C   0  0  0  0  0  0  0  0  0  0  0  0
   46.6460   33.1460   41.0540 S   0  0  0  0  0  0  0  0  0  0  0  0
   49.5100   33.2440   37.0200 N   0  0  0  0  0  0  0  0  0  0  0  0
   48.3640   33.9150   36.8890 C   0  0  0  0  0  0  0  0  0  0  0  0
   47.6750   33.8190   38.0380 N   0  0  0  0  0  0  0  0  0  0  0  0
   48.3880   33.0800   38.9120 C   0  0  0  0  0  0  0  0  0  0  0  0
   48.1580   32.6700   40.2240 C   0  0  0  0  0  0  0  0  0  0  0  0
   49.1350   31.9330   40.7450 N   0  0  0  0  0  0  0  0  0  0  0  0
   50.2560   31.5710   40.1520 C   0  0  0  0  0  0  0  0  0  0  0  0
   50.4860   31.9640   38.8780 N   0  0  0  0  0  0  0  0  0  0  0  0
   49.5540   32.7180   38.2570 C   0  0  0  0  0  0  0  0  0  0  0  0
   51.2340   30.7360   40.9110 C   0  0  0  0  0  0  0  0  0  0  0  0
   52.6190   31.1830   40.4320 C   0  0  0  0  0  0  0  0  0  0  0  0
   51.1330   31.0420   42.3900 C   0  0  0  0  0  0  0  0  0  0  0  0
   46.1825   35.4604   41.1246 H   0  0  0  0  0  0  0  0  0  0  0  0
   45.0795   36.6421   42.4399 H   0  0  0  0  0  0  0  0  0  0  0  0
   43.8633   36.8942   44.6478 H   0  0  0  0  0  0  0  0  0  0  0  0
   45.7621   33.3390   46.0661 H   0  0  0  0  0  0  0  0  0  0  0  0
   48.4781   35.3209   42.9717 H   0  0  0  0  0  0  0  0  0  0  0  0
   48.8632   34.5004   41.4208 H   0  0  0  0  0  0  0  0  0  0  0  0
   48.3262   36.2145   41.4208 H   0  0  0  0  0  0  0  0  0  0  0  0
   50.2370   33.1457   36.2970 H   0  0  0  0  0  0  0  0  0  0  0  0
   48.0377   34.4570   35.9891 H   0  0  0  0  0  0  0  0  0  0  0  0
   51.0484   29.6635   40.7520 H   0  0  0  0  0  0  0  0  0  0  0  0
   53.2590   31.3896   41.3025 H   0  0  0  0  0  0  0  0  0  0  0  0
   53.0720   30.3855   39.8248 H   0  0  0  0  0  0  0  0  0  0  0  0
   52.5203   32.0949   39.8248 H   0  0  0  0  0  0  0  0  0  0  0  0
   51.4261   30.1539   42.9690 H   0  0  0  0  0  0  0  0  0  0  0  0
   51.8026   31.8788   42.6379 H   0  0  0  0  0  0  0  0  0  0  0  0
   50.0968   31.3157   42.6379 H   0  0  0  0  0  0  0  0  0  0  0  0
  1  8  1  0
  1  2  1  0
  2  3  2  0
  2  7  1  0
  3  4  1  0
  4  5  2  0
  6  5  1  0
  7  6  2  0
  9  1  1  0
 10 18  1  0
 11 10  1  0
 11 12  2  0
 12 13  1  0
 13 14  2  0
 14 15  1  0
 14  9  1  0
 16 15  2  0
 16 19  1  0
 17 16  1  0
 18 17  2  0
 18 13  1  0
 19 21  1  0
 20 19  1  0
  1 22  1  6
  3 23  1  0
  4 24  1  0
  6 25  1  0
  8 26  1  0
  8 27  1  0
  8 28  1  0
 10 29  1  0
 11 30  1  0
 19 31  1  0
 20 32  1  0
 20 33  1  0
 20 34  1  0
 21 35  1  0
 21 36  1  0
 21 37  1  0
M  ISO  8  22   8  23  14  24  14  25  14  26   8  27   8  28   8  29   9
M  ISO  8  30  14  31   8  32   8  33   8  34   8  35   8  36   8  37   8
M  END
>  <minimizedAffinity>  (1) 
-5.0295229

>  <minimizedRMSD>  (1) 
0.447587609

$$$$
