
     RDKit          3D

 35 38  0  0  1  0  0  0  0  0999 V2000
   46.6080   35.0780   41.8360 C   0  0  1  0  0  0  0  0  0  0  0  0
   46.0330   34.9350   43.1750 C   0  0  0  0  0  0  0  0  0  0  0  0
   45.1130   35.9580   43.4890 C   0  0  0  0  0  0  0  0  0  0  0  0
   44.4960   35.9340   44.7340 C   0  0  0  0  0  0  0  0  0  0  0  0
   44.8080   34.9190   45.5970 N   0  0  0  0  0  0  0  0  0  0  0  0
   45.6960   33.9540   45.2600 C   0  0  0  0  0  0  0  0  0  0  0  0
   46.2950   33.9900   44.0350 N   0  0  0  0  0  0  0  0  0  0  0  0
   48.1350   35.3420   41.9350 C   0  0  0  0  0  0  0  0  0  0  0  0
   46.3020   33.6380   40.8250 S   0  0  0  0  0  0  0  0  0  0  0  0
   49.6660   33.0550   37.2460 N   0  0  0  0  0  0  0  0  0  0  0  0
   48.6810   33.9200   36.9340 C   0  0  0  0  0  0  0  0  0  0  0  0
   47.8350   33.9950   37.9750 N   0  0  0  0  0  0  0  0  0  0  0  0
   48.2780   33.1740   38.9560 C   0  0  0  0  0  0  0  0  0  0  0  0
   47.7910   32.8780   40.2180 C   0  0  0  0  0  0  0  0  0  0  0  0
   48.5390   31.9910   40.9080 N   0  0  0  0  0  0  0  0  0  0  0  0
   49.6440   31.4220   40.4700 C   0  0  0  0  0  0  0  0  0  0  0  0
   50.1280   31.7050   39.2370 N   0  0  0  0  0  0  0  0  0  0  0  0
   49.4330   32.5930   38.4730 C   0  0  0  0  0  0  0  0  0  0  0  0
   50.4250   30.4470   41.2840 C   0  0  0  0  0  0  0  0  0  0  0  0
   50.1250   30.1840   42.7030 C   0  0  0  0  0  0  0  0  0  0  0  0
   51.2470   31.1070   42.3880 C   0  0  0  0  0  0  0  0  0  0  0  0
   46.1175   35.9365   41.3540 H   0  0  0  0  0  0  0  0  0  0  0  0
   44.8895   36.7557   42.7653 H   0  0  0  0  0  0  0  0  0  0  0  0
   43.7735   36.7129   45.0191 H   0  0  0  0  0  0  0  0  0  0  0  0
   45.9327   33.1469   45.9689 H   0  0  0  0  0  0  0  0  0  0  0  0
   48.4304   35.3931   42.9934 H   0  0  0  0  0  0  0  0  0  0  0  0
   48.6812   34.5250   41.4409 H   0  0  0  0  0  0  0  0  0  0  0  0
   48.3751   36.2950   41.4409 H   0  0  0  0  0  0  0  0  0  0  0  0
   50.4593   32.7967   36.6419 H   0  0  0  0  0  0  0  0  0  0  0  0
   48.5857   34.4715   35.9870 H   0  0  0  0  0  0  0  0  0  0  0  0
   50.5663   29.7674   40.4307 H   0  0  0  0  0  0  0  0  0  0  0  0
   49.2007   30.5825   43.1467 H   0  0  0  0  0  0  0  0  0  0  0  0
   50.0322   29.2708   43.3092 H   0  0  0  0  0  0  0  0  0  0  0  0
   52.2870   30.7957   42.5657 H   0  0  0  0  0  0  0  0  0  0  0  0
   51.5156   32.1389   42.6581 H   0  0  0  0  0  0  0  0  0  0  0  0
  1  8  1  0
  1  2  1  0
  2  3  2  0
  2  7  1  0
  3  4  1  0
  4  5  2  0
  6  5  1  0
  7  6  2  0
  9  1  1  0
 10 18  1  0
 11 10  1  0
 11 12  2  0
 12 13  1  0
 13 14  1  0
 14  9  1  0
 14 15  2  0
 16 15  1  0
 16 19  1  0
 17 16  2  0
 18 13  2  0
 18 17  1  0
 19 21  1  0
 19 20  1  0
 21 20  1  0
  1 22  1  6
  3 23  1  0
  4 24  1  0
  6 25  1  0
  8 26  1  0
  8 27  1  0
  8 28  1  0
 10 29  1  0
 11 30  1  0
 19 31  1  0
 20 32  1  0
 20 33  1  0
 21 34  1  0
 21 35  1  0
M  ISO  8  22   8  23  14  24  14  25  14  26   8  27   8  28   8  29   9
M  ISO  6  30  14  31  13  32  13  33  13  34  13  35  13
M  END
>  <minimizedAffinity>  (1) 
-5.01817608

>  <minimizedRMSD>  (1) 
0.673641145

$$$$
