
     RDKit          3D

 40 42  0  0  1  0  0  0  0  0999 V2000
   46.6350   33.1480   41.0470 S   0  0  0  0  0  0  0  0  0  0  0  0
   49.5230   33.2300   37.0270 N   0  0  0  0  0  0  0  0  0  0  0  0
   48.3760   33.9000   36.8890 C   0  0  0  0  0  0  0  0  0  0  0  0
   47.6840   33.8070   38.0360 N   0  0  0  0  0  0  0  0  0  0  0  0
   48.3900   33.0700   38.9190 C   0  0  0  0  0  0  0  0  0  0  0  0
   48.1540   32.6680   40.2260 C   0  0  0  0  0  0  0  0  0  0  0  0
   49.1310   31.9260   40.7660 N   0  0  0  0  0  0  0  0  0  0  0  0
   50.2530   31.5680   40.1650 C   0  0  0  0  0  0  0  0  0  0  0  0
   50.4910   31.9530   38.9000 N   0  0  0  0  0  0  0  0  0  0  0  0
   49.5550   32.7150   38.2560 C   0  0  0  0  0  0  0  0  0  0  0  0
   51.2430   30.7400   40.9020 C   0  0  0  0  0  0  0  0  0  0  0  0
   51.0630   29.2640   40.5480 C   0  0  0  0  0  0  0  0  0  0  0  0
   51.1460   30.9420   42.3840 C   0  0  0  0  0  0  0  0  0  0  0  0
   52.6160   31.1860   40.4290 C   0  0  0  0  0  0  0  0  0  0  0  0
   46.7310   34.7750   41.7810 C   0  0  1  0  0  0  0  0  0  0  0  0
   46.0870   34.8090   43.1090 C   0  0  0  0  0  0  0  0  0  0  0  0
   45.2210   35.9190   43.2480 C   0  0  0  0  0  0  0  0  0  0  0  0
   44.5500   36.0480   44.4790 C   0  0  0  0  0  0  0  0  0  0  0  0
   44.7650   35.1180   45.4550 N   0  0  0  0  0  0  0  0  0  0  0  0
   45.6030   34.0800   45.2650 C   0  0  0  0  0  0  0  0  0  0  0  0
   46.2580   33.9490   44.0700 N   0  0  0  0  0  0  0  0  0  0  0  0
   48.2090   35.2290   41.9070 C   0  0  0  0  0  0  0  0  0  0  0  0
   50.2548   33.1289   36.3093 H   0  0  0  0  0  0  0  0  0  0  0  0
   48.0521   34.4384   35.9861 H   0  0  0  0  0  0  0  0  0  0  0  0
   50.9907   28.6715   41.4720 H   0  0  0  0  0  0  0  0  0  0  0  0
   50.1428   29.1379   39.9586 H   0  0  0  0  0  0  0  0  0  0  0  0
   51.9259   28.9204   39.9586 H   0  0  0  0  0  0  0  0  0  0  0  0
   51.5662   30.0670   42.9016 H   0  0  0  0  0  0  0  0  0  0  0  0
   51.7100   31.8424   42.6690 H   0  0  0  0  0  0  0  0  0  0  0  0
   50.0907   31.0648   42.6690 H   0  0  0  0  0  0  0  0  0  0  0  0
   53.2545   31.3934   41.3004 H   0  0  0  0  0  0  0  0  0  0  0  0
   53.0713   30.3896   39.8221 H   0  0  0  0  0  0  0  0  0  0  0  0
   52.5164   32.0980   39.8221 H   0  0  0  0  0  0  0  0  0  0  0  0
   46.1922   35.4672   41.1172 H   0  0  0  0  0  0  0  0  0  0  0  0
   45.0789   36.6455   42.4344 H   0  0  0  0  0  0  0  0  0  0  0  0
   43.8610   36.8878   44.6522 H   0  0  0  0  0  0  0  0  0  0  0  0
   45.7599   33.3421   46.0655 H   0  0  0  0  0  0  0  0  0  0  0  0
   48.4778   35.3116   42.9704 H   0  0  0  0  0  0  0  0  0  0  0  0
   48.8623   34.4901   41.4199 H   0  0  0  0  0  0  0  0  0  0  0  0
   48.3349   36.2072   41.4199 H   0  0  0  0  0  0  0  0  0  0  0  0
  1 15  1  0
  2 10  1  0
  3  2  1  0
  3  4  2  0
  4  5  1  0
  5  6  2  0
  6  7  1  0
  6  1  1  0
  8  7  2  0
  8 11  1  0
  9  8  1  0
 10  9  2  0
 10  5  1  0
 11 13  1  0
 12 11  1  0
 14 11  1  0
 15 22  1  0
 15 16  1  0
 16 17  2  0
 16 21  1  0
 17 18  1  0
 18 19  2  0
 20 19  1  0
 21 20  2  0
  2 23  1  0
  3 24  1  0
 12 25  1  0
 12 26  1  0
 12 27  1  0
 13 28  1  0
 13 29  1  0
 13 30  1  0
 14 31  1  0
 14 32  1  0
 14 33  1  0
 15 34  1  6
 17 35  1  0
 18 36  1  0
 20 37  1  0
 22 38  1  0
 22 39  1  0
 22 40  1  0
M  ISO  8  23   9  24  14  25   8  26   8  27   8  28   8  29   8  30   8
M  ISO  8  31   8  32   8  33   8  34   8  35  14  36  14  37  14  38   8
M  ISO  2  39   8  40   8
M  END
>  <minimizedAffinity>  (1) 
-5.09283113

>  <minimizedRMSD>  (1) 
0.540624559

$$$$
