
     RDKit          3D

 39 43  0  0  1  0  0  0  0  0999 V2000
   47.0270   32.3620   38.2980 C   0  0  2  0  0  0  0  0  0  0  0  0
   47.5050   30.8980   38.2180 C   0  0  0  0  0  0  0  0  0  0  0  0
   47.7420   31.7250   39.4650 C   0  0  1  0  0  0  0  0  0  0  0  0
   43.6210   33.2600   39.1520 N   0  0  0  0  0  0  0  0  0  0  0  0
   43.3950   32.4920   38.0520 C   0  0  0  0  0  0  0  0  0  0  0  0
   44.5540   32.0410   37.5620 N   0  0  0  0  0  0  0  0  0  0  0  0
   45.5380   32.5450   38.3830 C   0  0  0  0  0  0  0  0  0  0  0  0
   44.9100   33.2540   39.2980 N   0  0  0  0  0  0  0  0  0  0  0  0
   41.4800   33.2980   40.2580 C   0  0  0  0  0  0  0  0  0  0  0  0
   42.7310   33.9530   40.0070 C   0  0  0  0  0  0  0  0  0  0  0  0
   42.9450   35.1550   40.5960 C   0  0  0  0  0  0  0  0  0  0  0  0
   41.9580   35.6590   41.3870 N   0  0  0  0  0  0  0  0  0  0  0  0
   40.7980   35.0280   41.6050 C   0  0  0  0  0  0  0  0  0  0  0  0
   40.5630   33.8350   41.0320 N   0  0  0  0  0  0  0  0  0  0  0  0
   49.0490   32.2500   39.8060 C   0  0  0  0  0  0  0  0  0  0  0  0
   50.0680   31.5860   39.4340 O   0  0  0  0  0  0  0  0  0  0  0  0
   49.2130   33.4230   40.4950 O   0  0  0  0  0  0  0  0  0  0  0  0
   47.9460   33.4720   43.7460 N   0  0  0  0  0  0  0  0  0  0  0  0
   48.8370   33.0730   42.8180 N   0  0  0  0  0  0  0  0  0  0  0  0
   48.4850   33.6450   41.6420 C   0  0  0  0  0  0  0  0  0  0  0  0
   47.3640   34.4130   41.8170 C   0  0  0  0  0  0  0  0  0  0  0  0
   47.0450   34.2820   43.1660 C   0  0  0  0  0  0  0  0  0  0  0  0
   45.9620   34.8820   43.8690 N   0  0  0  0  0  0  0  0  0  0  0  0
   45.0890   35.8750   43.6220 C   0  0  0  0  0  0  0  0  0  0  0  0
   44.2610   36.0100   44.6750 N   0  0  0  0  0  0  0  0  0  0  0  0
   44.6340   35.0770   45.5960 C   0  0  0  0  0  0  0  0  0  0  0  0
   45.6670   34.4110   45.0740 N   0  0  0  0  0  0  0  0  0  0  0  0
   47.1805   33.2867   37.7224 H   0  0  0  0  0  0  0  0  0  0  0  0
   46.7734   30.0767   38.2308 H   0  0  0  0  0  0  0  0  0  0  0  0
   48.1391   30.3182   37.5312 H   0  0  0  0  0  0  0  0  0  0  0  0
   47.5297   31.5388   40.5281 H   0  0  0  0  0  0  0  0  0  0  0  0
   42.4037   32.2741   37.6279 H   0  0  0  0  0  0  0  0  0  0  0  0
   41.2828   32.3217   39.7911 H   0  0  0  0  0  0  0  0  0  0  0  0
   43.8848   35.7049   40.4401 H   0  0  0  0  0  0  0  0  0  0  0  0
   40.0365   35.4859   42.2534 H   0  0  0  0  0  0  0  0  0  0  0  0
   47.9542   33.2001   44.7394 H   0  0  0  0  0  0  0  0  0  0  0  0
   46.8319   35.0043   41.0573 H   0  0  0  0  0  0  0  0  0  0  0  0
   45.0567   36.4811   42.7046 H   0  0  0  0  0  0  0  0  0  0  0  0
   44.1729   34.9057   46.5799 H   0  0  0  0  0  0  0  0  0  0  0  0
  1  7  1  0
  1  3  1  0
  2  1  1  0
  2  3  1  0
  3 15  1  0
  4  8  1  0
  4 10  1  0
  5  4  1  0
  6  5  2  0
  6  7  1  0
  7  8  2  0
  9 14  2  0
 10  9  1  0
 10 11  2  0
 11 12  1  0
 12 13  2  0
 14 13  1  0
 15 17  1  0
 16 15  2  0
 17 20  1  0
 19 18  1  0
 20 21  1  0
 20 19  2  0
 21 22  2  0
 22 18  1  0
 22 23  1  0
 23 27  1  0
 24 23  1  0
 24 25  2  0
 25 26  1  0
 27 26  2  0
  1 28  1  6
  2 29  1  0
  2 30  1  0
  3 31  1  1
  5 32  1  0
  9 33  1  0
 11 34  1  0
 13 35  1  0
 18 36  1  0
 21 37  1  0
 24 38  1  0
 26 39  1  0
M  ISO  8  28  13  29  13  30  13  31  13  32  14  33  14  34  14  35  14
M  ISO  4  36   9  37  14  38  14  39  14
M  END
>  <minimizedAffinity>  (1) 
-5.1093049

>  <minimizedRMSD>  (1) 
5.90586042

$$$$
