
     RDKit          3D

 34 36  0  0  1  0  0  0  0  0999 V2000
   46.7210   34.8720   41.8630 C   0  0  1  0  0  0  0  0  0  0  0  0
   46.0720   34.8600   43.1890 C   0  0  0  0  0  0  0  0  0  0  0  0
   45.1850   35.9550   43.3540 C   0  0  0  0  0  0  0  0  0  0  0  0
   44.5100   36.0360   44.5860 C   0  0  0  0  0  0  0  0  0  0  0  0
   44.7340   35.0790   45.5470 N   0  0  0  0  0  0  0  0  0  0  0  0
   45.5880   34.0700   45.3250 C   0  0  0  0  0  0  0  0  0  0  0  0
   46.2490   33.9800   44.1320 N   0  0  0  0  0  0  0  0  0  0  0  0
   48.2340   35.1640   42.0220 C   0  0  0  0  0  0  0  0  0  0  0  0
   46.4640   33.3240   41.0060 S   0  0  0  0  0  0  0  0  0  0  0  0
   49.6130   33.2370   37.1950 N   0  0  0  0  0  0  0  0  0  0  0  0
   48.5840   34.0740   37.0170 C   0  0  0  0  0  0  0  0  0  0  0  0
   47.8070   34.0070   38.1140 N   0  0  0  0  0  0  0  0  0  0  0  0
   48.3350   33.1310   38.9920 C   0  0  0  0  0  0  0  0  0  0  0  0
   47.9540   32.6900   40.2470 C   0  0  0  0  0  0  0  0  0  0  0  0
   48.7730   31.7890   40.8020 N   0  0  0  0  0  0  0  0  0  0  0  0
   49.8850   31.3070   40.2500 C   0  0  0  0  0  0  0  0  0  0  0  0
   50.2530   31.7350   39.0320 N   0  0  0  0  0  0  0  0  0  0  0  0
   49.4870   32.6530   38.3820 C   0  0  0  0  0  0  0  0  0  0  0  0
   50.7020   30.3030   40.9890 C   0  0  0  0  0  0  0  0  0  0  0  0
   51.1170   30.8450   42.3580 C   0  0  0  0  0  0  0  0  0  0  0  0
   46.2640   35.6683   41.2572 H   0  0  0  0  0  0  0  0  0  0  0  0
   45.0330   36.7015   42.5605 H   0  0  0  0  0  0  0  0  0  0  0  0
   43.8074   36.8601   44.7789 H   0  0  0  0  0  0  0  0  0  0  0  0
   45.7573   33.3127   46.1047 H   0  0  0  0  0  0  0  0  0  0  0  0
   48.4876   35.2129   43.0912 H   0  0  0  0  0  0  0  0  0  0  0  0
   48.8146   34.3613   41.5438 H   0  0  0  0  0  0  0  0  0  0  0  0
   48.4742   36.1251   41.5438 H   0  0  0  0  0  0  0  0  0  0  0  0
   50.3763   33.0727   36.5232 H   0  0  0  0  0  0  0  0  0  0  0  0
   48.4053   34.7037   36.1329 H   0  0  0  0  0  0  0  0  0  0  0  0
   50.1091   29.3869   41.1280 H   0  0  0  0  0  0  0  0  0  0  0  0
   51.6086   30.0862   40.4050 H   0  0  0  0  0  0  0  0  0  0  0  0
   50.6522   30.2380   43.1489 H   0  0  0  0  0  0  0  0  0  0  0  0
   52.2117   30.7973   42.4547 H   0  0  0  0  0  0  0  0  0  0  0  0
   50.7855   31.8894   42.4547 H   0  0  0  0  0  0  0  0  0  0  0  0
  1  8  1  0
  1  2  1  0
  2  3  2  0
  2  7  1  0
  3  4  1  0
  4  5  2  0
  6  5  1  0
  7  6  2  0
  9  1  1  0
 10 18  1  0
 11 10  1  0
 11 12  2  0
 12 13  1  0
 13 14  1  0
 14 15  2  0
 14  9  1  0
 16 15  1  0
 16 19  1  0
 17 16  2  0
 18 13  2  0
 18 17  1  0
 19 20  1  0
  1 21  1  6
  3 22  1  0
  4 23  1  0
  6 24  1  0
  8 25  1  0
  8 26  1  0
  8 27  1  0
 10 28  1  0
 11 29  1  0
 19 30  1  0
 19 31  1  0
 20 32  1  0
 20 33  1  0
 20 34  1  0
M  ISO  8  21   8  22  14  23  14  24  14  25   8  26   8  27   8  28   9
M  ISO  6  29  14  30   8  31   8  32   8  33   8  34   8
M  END
>  <minimizedAffinity>  (1) 
-4.9271636

>  <minimizedRMSD>  (1) 
0.149868086

$$$$
