
     RDKit          3D

 43 47  0  0  1  0  0  0  0  0999 V2000
   48.0890   33.3980   39.0670 C   0  0  2  0  0  0  0  0  0  0  0  0
   48.2610   34.3450   37.8630 C   0  0  0  0  0  0  0  0  0  0  0  0
   47.9290   32.8820   37.6560 C   0  0  1  0  0  0  0  0  0  0  0  0
   45.6430   34.0760   41.6530 N   0  0  0  0  0  0  0  0  0  0  0  0
   44.8160   33.8680   40.5920 C   0  0  0  0  0  0  0  0  0  0  0  0
   45.5330   33.5920   39.5030 N   0  0  0  0  0  0  0  0  0  0  0  0
   46.8560   33.6270   39.8900 C   0  0  0  0  0  0  0  0  0  0  0  0
   46.8370   33.9190   41.1740 N   0  0  0  0  0  0  0  0  0  0  0  0
   44.7580   35.6750   43.2290 C   0  0  0  0  0  0  0  0  0  0  0  0
   45.3700   34.3970   43.0060 C   0  0  0  0  0  0  0  0  0  0  0  0
   45.6300   33.6170   44.0860 C   0  0  0  0  0  0  0  0  0  0  0  0
   45.2920   34.1010   45.3130 N   0  0  0  0  0  0  0  0  0  0  0  0
   44.7220   35.3000   45.5010 C   0  0  0  0  0  0  0  0  0  0  0  0
   44.4560   36.0870   44.4430 N   0  0  0  0  0  0  0  0  0  0  0  0
   48.9100   31.9270   37.1860 C   0  0  0  0  0  0  0  0  0  0  0  0
   48.5030   30.7600   36.8820 O   0  0  0  0  0  0  0  0  0  0  0  0
   50.2400   32.2460   37.0550 O   0  0  0  0  0  0  0  0  0  0  0  0
   53.0670   31.5110   38.9650 N   0  0  0  0  0  0  0  0  0  0  0  0
   52.4560   31.9650   37.8540 N   0  0  0  0  0  0  0  0  0  0  0  0
   51.1240   31.8540   38.0370 C   0  0  0  0  0  0  0  0  0  0  0  0
   50.8700   31.3250   39.2740 C   0  0  0  0  0  0  0  0  0  0  0  0
   52.1260   31.1180   39.8400 C   0  0  0  0  0  0  0  0  0  0  0  0
   52.3730   30.5630   41.1670 C   0  0  0  0  0  0  0  0  0  0  0  0
   51.4690   30.8230   42.1760 C   0  0  0  0  0  0  0  0  0  0  0  0
   51.7570   30.2760   43.3970 C   0  0  0  0  0  0  0  0  0  0  0  0
   52.8750   29.4990   43.6600 C   0  0  0  0  0  0  0  0  0  0  0  0
   53.7740   29.2490   42.6350 C   0  0  0  0  0  0  0  0  0  0  0  0
   53.4940   29.7950   41.4000 C   0  0  0  0  0  0  0  0  0  0  0  0
   48.6933   33.0830   39.9305 H   0  0  0  0  0  0  0  0  0  0  0  0
   47.5056   35.1172   37.6557 H   0  0  0  0  0  0  0  0  0  0  0  0
   49.0496   35.0257   37.5097 H   0  0  0  0  0  0  0  0  0  0  0  0
   47.1454   32.3758   37.0732 H   0  0  0  0  0  0  0  0  0  0  0  0
   43.7178   33.9200   40.6281 H   0  0  0  0  0  0  0  0  0  0  0  0
   44.5365   36.3240   42.3689 H   0  0  0  0  0  0  0  0  0  0  0  0
   46.0978   32.6277   43.9738 H   0  0  0  0  0  0  0  0  0  0  0  0
   44.4727   35.6390   46.5173 H   0  0  0  0  0  0  0  0  0  0  0  0
   54.0848   31.4716   39.1183 H   0  0  0  0  0  0  0  0  0  0  0  0
   49.8889   31.1104   39.7227 H   0  0  0  0  0  0  0  0  0  0  0  0
   50.5697   31.4340   42.0090 H   0  0  0  0  0  0  0  0  0  0  0  0
   51.0561   30.4650   44.2234 H   0  0  0  0  0  0  0  0  0  0  0  0
   53.0457   29.0877   44.6658 H   0  0  0  0  0  0  0  0  0  0  0  0
   54.6747   28.6395   42.8001 H   0  0  0  0  0  0  0  0  0  0  0  0
   54.1914   29.6108   40.5695 H   0  0  0  0  0  0  0  0  0  0  0  0
  1  7  1  0
  2  1  1  0
  3  2  1  0
  3  1  1  0
  4 10  1  0
  5  4  1  0
  6  7  1  0
  6  5  2  0
  7  8  2  0
  8  4  1  0
  9 14  2  0
 10  9  1  0
 10 11  2  0
 11 12  1  0
 12 13  2  0
 14 13  1  0
 15  3  1  0
 16 15  2  0
 17 15  1  0
 17 20  1  0
 18 22  1  0
 19 20  2  0
 19 18  1  0
 20 21  1  0
 21 22  2  0
 22 23  1  0
 23 28  1  0
 23 24  2  0
 24 25  1  0
 25 26  2  0
 27 26  1  0
 28 27  2  0
  1 29  1  1
  2 30  1  0
  2 31  1  0
  3 32  1  1
  5 33  1  0
  9 34  1  0
 11 35  1  0
 13 36  1  0
 18 37  1  0
 21 38  1  0
 24 39  1  0
 25 40  1  0
 26 41  1  0
 27 42  1  0
 28 43  1  0
M  ISO  8  29  13  30  13  31  13  32  13  33  14  34  14  35  14  36  14
M  ISO  7  37   9  38  14  39  14  40  14  41  14  42  14  43  14
M  END
>  <minimizedAffinity>  (1) 
-5.03732157

>  <minimizedRMSD>  (1) 
0.574077249

$$$$
