
     RDKit          3D

 48 51  0  0  1  0  0  0  0  0999 V2000
   49.5540   33.4260   37.1260 N   0  0  0  0  0  0  0  0  0  0  0  0
   48.5270   34.2850   37.1330 C   0  0  0  0  0  0  0  0  0  0  0  0
   47.8370   34.0840   38.2680 N   0  0  0  0  0  0  0  0  0  0  0  0
   48.4140   33.1060   38.9880 C   0  0  0  0  0  0  0  0  0  0  0  0
   48.1300   32.5040   40.2100 C   0  0  0  0  0  0  0  0  0  0  0  0
   48.9720   31.5450   40.5770 N   0  0  0  0  0  0  0  0  0  0  0  0
   50.0330   31.1350   39.8750 C   0  0  0  0  0  0  0  0  0  0  0  0
   50.3100   31.7070   38.7040 N   0  0  0  0  0  0  0  0  0  0  0  0
   49.5110   32.6980   38.2390 C   0  0  0  0  0  0  0  0  0  0  0  0
   50.8780   30.0320   40.4400 C   0  0  0  0  0  0  0  0  0  0  0  0
   50.8760   30.0610   41.9570 C   0  0  0  0  0  0  0  0  0  0  0  0
   51.9470   29.2180   42.4040 N   0  0  0  0  0  0  0  0  0  0  0  0
   51.9650   28.8790   43.7820 C   0  0  0  0  0  0  0  0  0  0  0  0
   52.6960   30.0130   44.4990 C   0  0  0  0  0  0  0  0  0  0  0  0
   54.0810   29.9400   44.1150 N   0  0  0  0  0  0  0  0  0  0  0  0
   54.3030   29.2620   42.8750 C   0  0  0  0  0  0  0  0  0  0  0  0
   53.2280   29.5320   41.8600 C   0  0  0  0  0  0  0  0  0  0  0  0
   46.7060   33.0570   41.1400 S   0  0  0  0  0  0  0  0  0  0  0  0
   46.9550   34.6370   41.9170 C   0  0  1  0  0  0  0  0  0  0  0  0
   46.2080   34.7510   43.1850 C   0  0  0  0  0  0  0  0  0  0  0  0
   45.3500   35.8750   43.2270 C   0  0  0  0  0  0  0  0  0  0  0  0
   44.5960   36.0650   44.3890 C   0  0  0  0  0  0  0  0  0  0  0  0
   44.7200   35.1680   45.4220 N   0  0  0  0  0  0  0  0  0  0  0  0
   45.5520   34.1230   45.3220 C   0  0  0  0  0  0  0  0  0  0  0  0
   46.2870   33.9390   44.1840 N   0  0  0  0  0  0  0  0  0  0  0  0
   48.4720   34.9010   42.1780 C   0  0  0  0  0  0  0  0  0  0  0  0
   50.2610   33.3425   36.3816 H   0  0  0  0  0  0  0  0  0  0  0  0
   48.2910   35.0218   36.3511 H   0  0  0  0  0  0  0  0  0  0  0  0
   50.4802   29.0648   40.0991 H   0  0  0  0  0  0  0  0  0  0  0  0
   51.9116   30.1713   40.0904 H   0  0  0  0  0  0  0  0  0  0  0  0
   51.0334   31.0896   42.3135 H   0  0  0  0  0  0  0  0  0  0  0  0
   49.9122   29.7059   42.3508 H   0  0  0  0  0  0  0  0  0  0  0  0
   50.9376   28.7878   44.1642 H   0  0  0  0  0  0  0  0  0  0  0  0
   52.4677   27.9147   43.9476 H   0  0  0  0  0  0  0  0  0  0  0  0
   52.2728   30.9829   44.1986 H   0  0  0  0  0  0  0  0  0  0  0  0
   52.5888   29.9171   45.5896 H   0  0  0  0  0  0  0  0  0  0  0  0
   54.4451   30.8997   44.0297 H   0  0  0  0  0  0  0  0  0  0  0  0
   55.2671   29.5931   42.4617 H   0  0  0  0  0  0  0  0  0  0  0  0
   54.2962   28.1820   43.0836 H   0  0  0  0  0  0  0  0  0  0  0  0
   53.4060   28.9126   40.9686 H   0  0  0  0  0  0  0  0  0  0  0  0
   53.2510   30.5975   41.5875 H   0  0  0  0  0  0  0  0  0  0  0  0
   46.5704   35.3964   41.2203 H   0  0  0  0  0  0  0  0  0  0  0  0
   45.2789   36.5720   42.3790 H   0  0  0  0  0  0  0  0  0  0  0  0
   43.9120   36.9222   44.4750 H   0  0  0  0  0  0  0  0  0  0  0  0
   45.6440   33.4121   46.1564 H   0  0  0  0  0  0  0  0  0  0  0  0
   48.6574   34.9333   43.2618 H   0  0  0  0  0  0  0  0  0  0  0  0
   49.0675   34.0930   41.7280 H   0  0  0  0  0  0  0  0  0  0  0  0
   48.7595   35.8627   41.7280 H   0  0  0  0  0  0  0  0  0  0  0  0
  1  2  1  0
  1  9  1  0
  2  3  2  0
  3  4  1  0
  4  5  2  0
  5  6  1  0
  5 18  1  0
  7 10  1  0
  7  6  2  0
  8  7  1  0
  9  8  2  0
  9  4  1  0
 10 11  1  0
 11 12  1  0
 12 13  1  0
 13 14  1  0
 15 14  1  0
 16 15  1  0
 17 12  1  0
 17 16  1  0
 18 19  1  0
 19 26  1  0
 19 20  1  0
 20 21  2  0
 20 25  1  0
 21 22  1  0
 22 23  2  0
 24 23  1  0
 25 24  2  0
  1 27  1  0
  2 28  1  0
 10 29  1  0
 10 30  1  0
 11 31  1  0
 11 32  1  0
 13 33  1  0
 13 34  1  0
 14 35  1  0
 14 36  1  0
 15 37  1  0
 16 38  1  0
 16 39  1  0
 17 40  1  0
 17 41  1  0
 19 42  1  6
 21 43  1  0
 22 44  1  0
 24 45  1  0
 26 46  1  0
 26 47  1  0
 26 48  1  0
M  ISO  8  27   9  28  14  29   8  30   8  31   8  32   8  33  13  34  13
M  ISO  8  35  13  36  13  37   5  38  13  39  13  40  13  41  13  42   8
M  ISO  6  43  14  44  14  45  14  46   8  47   8  48   8
M  END
>  <minimizedAffinity>  (1) 
-5.06327868

>  <minimizedRMSD>  (1) 
0.48984769

$$$$
