
     RDKit          3D

 41 44  0  0  1  0  0  0  0  0999 V2000
   49.6020   33.2670   37.2220 N   0  0  0  0  0  0  0  0  0  0  0  0
   48.5770   34.1130   37.0570 C   0  0  0  0  0  0  0  0  0  0  0  0
   47.8030   34.0300   38.1550 N   0  0  0  0  0  0  0  0  0  0  0  0
   48.3240   33.1420   39.0170 C   0  0  0  0  0  0  0  0  0  0  0  0
   47.9450   32.6840   40.2630 C   0  0  0  0  0  0  0  0  0  0  0  0
   48.7550   31.7710   40.8130 N   0  0  0  0  0  0  0  0  0  0  0  0
   49.8620   31.2910   40.2590 C   0  0  0  0  0  0  0  0  0  0  0  0
   50.2360   31.7320   39.0460 N   0  0  0  0  0  0  0  0  0  0  0  0
   49.4750   32.6660   38.4010 C   0  0  0  0  0  0  0  0  0  0  0  0
   50.6800   30.2770   40.9670 C   0  0  0  0  0  0  0  0  0  0  0  0
   51.1410   30.8110   42.3330 C   0  0  0  0  0  0  0  0  0  0  0  0
   51.8040   29.6880   43.0720 C   0  0  0  0  0  0  0  0  0  0  0  0
   52.5250   29.9970   44.3610 C   0  0  0  0  0  0  0  0  0  0  0  0
   51.2050   29.2900   44.3770 C   0  0  0  0  0  0  0  0  0  0  0  0
   46.4580   33.3130   41.0360 S   0  0  0  0  0  0  0  0  0  0  0  0
   46.7210   34.8430   41.9070 C   0  0  1  0  0  0  0  0  0  0  0  0
   46.0790   34.8140   43.2450 C   0  0  0  0  0  0  0  0  0  0  0  0
   45.1780   35.8780   43.4420 C   0  0  0  0  0  0  0  0  0  0  0  0
   44.5210   35.9340   44.6780 C   0  0  0  0  0  0  0  0  0  0  0  0
   44.7810   34.9660   45.6260 N   0  0  0  0  0  0  0  0  0  0  0  0
   45.6530   33.9730   45.3790 C   0  0  0  0  0  0  0  0  0  0  0  0
   46.2870   33.9350   44.1630 N   0  0  0  0  0  0  0  0  0  0  0  0
   48.2470   35.1280   42.0720 C   0  0  0  0  0  0  0  0  0  0  0  0
   50.3633   33.1081   36.5467 H   0  0  0  0  0  0  0  0  0  0  0  0
   48.4000   34.7579   36.1836 H   0  0  0  0  0  0  0  0  0  0  0  0
   50.0783   29.3687   41.1183 H   0  0  0  0  0  0  0  0  0  0  0  0
   51.5671   30.0489   40.3578 H   0  0  0  0  0  0  0  0  0  0  0  0
   51.8547   31.6356   42.1895 H   0  0  0  0  0  0  0  0  0  0  0  0
   50.2805   31.1882   42.9050 H   0  0  0  0  0  0  0  0  0  0  0  0
   52.0798   29.1711   42.1410 H   0  0  0  0  0  0  0  0  0  0  0  0
   53.4450   29.4536   44.6224 H   0  0  0  0  0  0  0  0  0  0  0  0
   52.9306   30.9051   44.8310 H   0  0  0  0  0  0  0  0  0  0  0  0
   50.3098   29.8089   44.7502 H   0  0  0  0  0  0  0  0  0  0  0  0
   50.8385   28.3449   44.8041 H   0  0  0  0  0  0  0  0  0  0  0  0
   46.2632   35.6457   41.3102 H   0  0  0  0  0  0  0  0  0  0  0  0
   44.9982   36.6312   42.6607 H   0  0  0  0  0  0  0  0  0  0  0  0
   43.8050   36.7416   44.8905 H   0  0  0  0  0  0  0  0  0  0  0  0
   45.8547   33.2039   46.1391 H   0  0  0  0  0  0  0  0  0  0  0  0
   48.4977   35.1748   43.1420 H   0  0  0  0  0  0  0  0  0  0  0  0
   48.8242   34.3221   41.5951 H   0  0  0  0  0  0  0  0  0  0  0  0
   48.4944   36.0879   41.5951 H   0  0  0  0  0  0  0  0  0  0  0  0
  1  9  1  0
  2  1  1  0
  2  3  2  0
  3  4  1  0
  4  5  1  0
  5  6  2  0
  5 15  1  0
  7  6  1  0
  7 10  1  0
  8  7  2  0
  9  4  2  0
  9  8  1  0
 10 11  1  0
 11 12  1  0
 12 13  1  0
 12 14  1  0
 13 14  1  0
 15 16  1  0
 16 23  1  0
 16 17  1  0
 17 18  2  0
 17 22  1  0
 18 19  1  0
 19 20  2  0
 21 20  1  0
 22 21  2  0
  1 24  1  0
  2 25  1  0
 10 26  1  0
 10 27  1  0
 11 28  1  0
 11 29  1  0
 12 30  1  0
 13 31  1  0
 13 32  1  0
 14 33  1  0
 14 34  1  0
 16 35  1  6
 18 36  1  0
 19 37  1  0
 21 38  1  0
 23 39  1  0
 23 40  1  0
 23 41  1  0
M  ISO  8  24   9  25  14  26   8  27   8  28   8  29   8  30  13  31  13
M  ISO  8  32  13  33  13  34  13  35   8  36  14  37  14  38  14  39   8
M  ISO  2  40   8  41   8
M  END
>  <minimizedAffinity>  (1) 
-4.84733725

>  <minimizedRMSD>  (1) 
0.293364704

$$$$
