
     RDKit          3D

 40 43  0  0  1  0  0  0  0  0999 V2000
   49.5820   33.3050   37.2160 N   0  0  0  0  0  0  0  0  0  0  0  0
   48.5780   34.1840   37.0770 C   0  0  0  0  0  0  0  0  0  0  0  0
   47.7990   34.0840   38.1700 N   0  0  0  0  0  0  0  0  0  0  0  0
   48.2950   33.1470   39.0090 C   0  0  0  0  0  0  0  0  0  0  0  0
   47.8960   32.6640   40.2330 C   0  0  0  0  0  0  0  0  0  0  0  0
   48.6860   31.7100   40.7470 N   0  0  0  0  0  0  0  0  0  0  0  0
   49.7780   31.2270   40.1730 C   0  0  0  0  0  0  0  0  0  0  0  0
   50.1680   31.7000   38.9760 N   0  0  0  0  0  0  0  0  0  0  0  0
   49.4330   32.6700   38.3730 C   0  0  0  0  0  0  0  0  0  0  0  0
   50.5680   30.1570   40.8660 C   0  0  0  0  0  0  0  0  0  0  0  0
   50.7350   30.4770   42.3400 C   0  0  0  0  0  0  0  0  0  0  0  0
   52.0590   30.0270   42.8620 C   0  0  0  0  0  0  0  0  0  0  0  0
   53.0750   29.5350   41.9730 C   0  0  0  0  0  0  0  0  0  0  0  0
   54.4250   29.1460   43.1080 S   0  0  0  0  0  0  0  0  0  0  0  0
   53.4100   29.7080   44.6160 C   0  0  0  0  0  0  0  0  0  0  0  0
   52.2460   30.1050   44.1720 N   0  0  0  0  0  0  0  0  0  0  0  0
   46.4280   33.3060   41.0160 S   0  0  0  0  0  0  0  0  0  0  0  0
   46.7130   34.8200   41.9060 C   0  0  1  0  0  0  0  0  0  0  0  0
   46.0780   34.7970   43.2460 C   0  0  0  0  0  0  0  0  0  0  0  0
   45.1770   35.8600   43.4380 C   0  0  0  0  0  0  0  0  0  0  0  0
   44.5220   35.9280   44.6690 C   0  0  0  0  0  0  0  0  0  0  0  0
   44.7850   34.9660   45.6260 N   0  0  0  0  0  0  0  0  0  0  0  0
   45.6590   33.9750   45.3780 C   0  0  0  0  0  0  0  0  0  0  0  0
   46.2920   33.9210   44.1660 N   0  0  0  0  0  0  0  0  0  0  0  0
   48.2440   35.0790   42.0660 C   0  0  0  0  0  0  0  0  0  0  0  0
   50.3418   33.1487   36.5384 H   0  0  0  0  0  0  0  0  0  0  0  0
   48.4203   34.8623   36.2255 H   0  0  0  0  0  0  0  0  0  0  0  0
   50.0415   29.1967   40.7632 H   0  0  0  0  0  0  0  0  0  0  0  0
   51.5643   30.0999   40.4033 H   0  0  0  0  0  0  0  0  0  0  0  0
   50.6491   31.5647   42.4795 H   0  0  0  0  0  0  0  0  0  0  0  0
   49.9505   29.9421   42.8954 H   0  0  0  0  0  0  0  0  0  0  0  0
   53.0396   29.4236   40.8792 H   0  0  0  0  0  0  0  0  0  0  0  0
   53.7406   29.7004   45.6651 H   0  0  0  0  0  0  0  0  0  0  0  0
   46.2581   35.6320   41.3197 H   0  0  0  0  0  0  0  0  0  0  0  0
   44.9960   36.6067   42.6508 H   0  0  0  0  0  0  0  0  0  0  0  0
   43.8056   36.7370   44.8747 H   0  0  0  0  0  0  0  0  0  0  0  0
   45.8639   33.2127   46.1442 H   0  0  0  0  0  0  0  0  0  0  0  0
   48.4988   35.1221   43.1352 H   0  0  0  0  0  0  0  0  0  0  0  0
   48.8058   34.2631   41.5878 H   0  0  0  0  0  0  0  0  0  0  0  0
   48.5062   36.0343   41.5878 H   0  0  0  0  0  0  0  0  0  0  0  0
  1  9  1  0
  2  1  1  0
  2  3  2  0
  3  4  1  0
  4  5  2  0
  5  6  1  0
  5 17  1  0
  7  6  2  0
  7 10  1  0
  8  7  1  0
  9  8  2  0
  9  4  1  0
 10 11  1  0
 11 12  1  0
 12 16  1  0
 13 12  2  0
 13 14  1  0
 14 15  1  0
 16 15  2  0
 17 18  1  0
 18 25  1  0
 18 19  1  0
 19 20  2  0
 19 24  1  0
 20 21  1  0
 21 22  2  0
 23 22  1  0
 24 23  2  0
  1 26  1  0
  2 27  1  0
 10 28  1  0
 10 29  1  0
 11 30  1  0
 11 31  1  0
 13 32  1  0
 15 33  1  0
 18 34  1  6
 20 35  1  0
 21 36  1  0
 23 37  1  0
 25 38  1  0
 25 39  1  0
 25 40  1  0
M  ISO  8  26   9  27  14  28   8  29   8  30   8  31   8  32  14  33  14
M  ISO  7  34   8  35  14  36  14  37  14  38   8  39   8  40   8
M  END
>  <minimizedAffinity>  (1) 
-4.93352079

>  <minimizedRMSD>  (1) 
0.519597411

$$$$
