
     RDKit          3D

 47 50  0  0  1  0  0  0  0  0999 V2000
   49.5500   33.4210   37.1050 N   0  0  0  0  0  0  0  0  0  0  0  0
   48.4960   34.2480   37.1020 C   0  0  0  0  0  0  0  0  0  0  0  0
   47.8200   34.0550   38.2450 N   0  0  0  0  0  0  0  0  0  0  0  0
   48.4310   33.1110   38.9830 C   0  0  0  0  0  0  0  0  0  0  0  0
   48.1620   32.5460   40.2130 C   0  0  0  0  0  0  0  0  0  0  0  0
   49.0370   31.6130   40.6050 N   0  0  0  0  0  0  0  0  0  0  0  0
   50.0990   31.2110   39.9250 C   0  0  0  0  0  0  0  0  0  0  0  0
   50.3690   31.7590   38.7220 N   0  0  0  0  0  0  0  0  0  0  0  0
   49.5270   32.7220   38.2370 C   0  0  0  0  0  0  0  0  0  0  0  0
   50.9960   30.1670   40.4850 C   0  0  0  0  0  0  0  0  0  0  0  0
   51.2210   30.3820   41.9630 C   0  0  0  0  0  0  0  0  0  0  0  0
   51.4040   29.1400   42.6930 N   0  0  0  0  0  0  0  0  0  0  0  0
   51.4620   29.5040   44.0940 C   0  0  0  0  0  0  0  0  0  0  0  0
   52.7710   30.0510   44.5490 C   0  0  0  0  0  0  0  0  0  0  0  0
   53.8520   29.2600   44.1650 O   0  0  0  0  0  0  0  0  0  0  0  0
   53.8620   29.2190   42.7870 C   0  0  0  0  0  0  0  0  0  0  0  0
   52.6280   28.4650   42.3230 C   0  0  0  0  0  0  0  0  0  0  0  0
   46.7340   33.0660   41.1590 S   0  0  0  0  0  0  0  0  0  0  0  0
   46.9640   34.6660   41.9360 C   0  0  1  0  0  0  0  0  0  0  0  0
   46.2120   34.7630   43.2000 C   0  0  0  0  0  0  0  0  0  0  0  0
   45.3520   35.8830   43.2320 C   0  0  0  0  0  0  0  0  0  0  0  0
   44.5940   36.0610   44.3910 C   0  0  0  0  0  0  0  0  0  0  0  0
   44.7210   35.1500   45.4290 N   0  0  0  0  0  0  0  0  0  0  0  0
   45.5560   34.1130   45.3300 C   0  0  0  0  0  0  0  0  0  0  0  0
   46.2970   33.9420   44.1910 N   0  0  0  0  0  0  0  0  0  0  0  0
   48.4710   34.9360   42.1900 C   0  0  0  0  0  0  0  0  0  0  0  0
   50.2563   33.3402   36.3597 H   0  0  0  0  0  0  0  0  0  0  0  0
   48.2319   34.9585   36.3048 H   0  0  0  0  0  0  0  0  0  0  0  0
   50.5379   29.1789   40.3310 H   0  0  0  0  0  0  0  0  0  0  0  0
   51.9665   30.2265   39.9707 H   0  0  0  0  0  0  0  0  0  0  0  0
   52.1198   31.0023   42.0947 H   0  0  0  0  0  0  0  0  0  0  0  0
   50.3227   30.8726   42.3659 H   0  0  0  0  0  0  0  0  0  0  0  0
   50.6905   30.2655   44.2809 H   0  0  0  0  0  0  0  0  0  0  0  0
   51.3041   28.5740   44.6599 H   0  0  0  0  0  0  0  0  0  0  0  0
   52.9005   31.0551   44.1188 H   0  0  0  0  0  0  0  0  0  0  0  0
   52.7542   30.0759   45.6486 H   0  0  0  0  0  0  0  0  0  0  0  0
   53.8457   30.2425   42.3844 H   0  0  0  0  0  0  0  0  0  0  0  0
   54.7714   28.7137   42.4296 H   0  0  0  0  0  0  0  0  0  0  0  0
   52.6322   27.4640   42.7790 H   0  0  0  0  0  0  0  0  0  0  0  0
   52.6619   28.4051   41.2252 H   0  0  0  0  0  0  0  0  0  0  0  0
   46.5744   35.4301   41.2473 H   0  0  0  0  0  0  0  0  0  0  0  0
   45.2828   36.5812   42.3848 H   0  0  0  0  0  0  0  0  0  0  0  0
   43.9045   36.9134   44.4797 H   0  0  0  0  0  0  0  0  0  0  0  0
   45.6485   33.3980   46.1608 H   0  0  0  0  0  0  0  0  0  0  0  0
   48.6600   34.9699   43.2731 H   0  0  0  0  0  0  0  0  0  0  0  0
   49.0690   34.1307   41.7385 H   0  0  0  0  0  0  0  0  0  0  0  0
   48.7522   35.8988   41.7385 H   0  0  0  0  0  0  0  0  0  0  0  0
  1  9  1  0
  2  1  1  0
  2  3  2  0
  3  4  1  0
  4  5  2  0
  5  6  1  0
  5 18  1  0
  7 10  1  0
  7  6  2  0
  8  7  1  0
  9  8  2  0
  9  4  1  0
 10 11  1  0
 11 12  1  0
 12 13  1  0
 13 14  1  0
 15 14  1  0
 16 15  1  0
 17 12  1  0
 17 16  1  0
 18 19  1  0
 19 26  1  0
 19 20  1  0
 20 21  2  0
 20 25  1  0
 21 22  1  0
 22 23  2  0
 24 23  1  0
 25 24  2  0
  1 27  1  0
  2 28  1  0
 10 29  1  0
 10 30  1  0
 11 31  1  0
 11 32  1  0
 13 33  1  0
 13 34  1  0
 14 35  1  0
 14 36  1  0
 16 37  1  0
 16 38  1  0
 17 39  1  0
 17 40  1  0
 19 41  1  6
 21 42  1  0
 22 43  1  0
 24 44  1  0
 26 45  1  0
 26 46  1  0
 26 47  1  0
M  ISO  8  27   9  28  14  29   8  30   8  31   8  32   8  33  13  34  13
M  ISO  8  35  13  36  13  37  13  38  13  39  13  40  13  41   8  42  14
M  ISO  5  43  14  44  14  45   8  46   8  47   8
M  END
>  <minimizedAffinity>  (1) 
-4.87544298

>  <minimizedRMSD>  (1) 
1.23448193

$$$$
