
     RDKit          3D

 40 43  0  0  1  0  0  0  0  0999 V2000
   49.5940   33.3020   37.1920 N   0  0  0  0  0  0  0  0  0  0  0  0
   48.5790   34.1720   37.0620 C   0  0  0  0  0  0  0  0  0  0  0  0
   47.8030   34.0710   38.1590 N   0  0  0  0  0  0  0  0  0  0  0  0
   48.3150   33.1430   38.9890 C   0  0  0  0  0  0  0  0  0  0  0  0
   47.9310   32.6480   40.2250 C   0  0  0  0  0  0  0  0  0  0  0  0
   48.7300   31.7060   40.7280 N   0  0  0  0  0  0  0  0  0  0  0  0
   49.8300   31.2250   40.1470 C   0  0  0  0  0  0  0  0  0  0  0  0
   50.1990   31.7060   38.9510 N   0  0  0  0  0  0  0  0  0  0  0  0
   49.4530   32.6660   38.3550 C   0  0  0  0  0  0  0  0  0  0  0  0
   50.6240   30.1640   40.8420 C   0  0  0  0  0  0  0  0  0  0  0  0
   50.7640   30.4990   42.3300 C   0  0  0  0  0  0  0  0  0  0  0  0
   52.0140   30.0610   42.8850 N   0  0  0  0  0  0  0  0  0  0  0  0
   53.0900   29.5640   42.2440 C   0  0  0  0  0  0  0  0  0  0  0  0
   54.0370   29.2860   43.1580 N   0  0  0  0  0  0  0  0  0  0  0  0
   53.5700   29.6030   44.3750 C   0  0  0  0  0  0  0  0  0  0  0  0
   52.3080   30.0840   44.1860 N   0  0  0  0  0  0  0  0  0  0  0  0
   46.4640   33.2800   41.0160 S   0  0  0  0  0  0  0  0  0  0  0  0
   46.7260   34.8310   41.8500 C   0  0  1  0  0  0  0  0  0  0  0  0
   46.0650   34.8470   43.1820 C   0  0  0  0  0  0  0  0  0  0  0  0
   45.1930   35.9300   43.3430 C   0  0  0  0  0  0  0  0  0  0  0  0
   44.5220   36.0270   44.5720 C   0  0  0  0  0  0  0  0  0  0  0  0
   44.7440   35.0820   45.5360 N   0  0  0  0  0  0  0  0  0  0  0  0
   45.5970   34.0600   45.3220 C   0  0  0  0  0  0  0  0  0  0  0  0
   46.2410   33.9810   44.1210 N   0  0  0  0  0  0  0  0  0  0  0  0
   48.2480   35.1030   42.0230 C   0  0  0  0  0  0  0  0  0  0  0  0
   50.3513   33.1520   36.5101 H   0  0  0  0  0  0  0  0  0  0  0  0
   48.4109   34.8477   36.2104 H   0  0  0  0  0  0  0  0  0  0  0  0
   50.1114   29.1968   40.7338 H   0  0  0  0  0  0  0  0  0  0  0  0
   51.6254   30.1104   40.3899 H   0  0  0  0  0  0  0  0  0  0  0  0
   50.6879   31.5894   42.4532 H   0  0  0  0  0  0  0  0  0  0  0  0
   49.9613   29.9702   42.8649 H   0  0  0  0  0  0  0  0  0  0  0  0
   53.1789   29.4116   41.1582 H   0  0  0  0  0  0  0  0  0  0  0  0
   54.0991   29.4963   45.3335 H   0  0  0  0  0  0  0  0  0  0  0  0
   46.2800   35.6218   41.2289 H   0  0  0  0  0  0  0  0  0  0  0  0
   45.0407   36.6704   42.5438 H   0  0  0  0  0  0  0  0  0  0  0  0
   43.8234   36.8560   44.7585 H   0  0  0  0  0  0  0  0  0  0  0  0
   45.7709   33.3034   46.1013 H   0  0  0  0  0  0  0  0  0  0  0  0
   48.4932   35.1468   43.0944 H   0  0  0  0  0  0  0  0  0  0  0  0
   48.8215   34.2931   41.5484 H   0  0  0  0  0  0  0  0  0  0  0  0
   48.5055   36.0614   41.5484 H   0  0  0  0  0  0  0  0  0  0  0  0
  1  9  1  0
  2  1  1  0
  2  3  2  0
  3  4  1  0
  4  5  2  0
  5  6  1  0
  5 17  1  0
  7  6  2  0
  7 10  1  0
  8  7  1  0
  9  8  2  0
  9  4  1  0
 10 11  1  0
 11 12  1  0
 12 16  1  0
 13 12  1  0
 13 14  2  0
 14 15  1  0
 16 15  2  0
 17 18  1  0
 18 25  1  0
 18 19  1  0
 19 20  2  0
 19 24  1  0
 20 21  1  0
 21 22  2  0
 23 22  1  0
 24 23  2  0
  1 26  1  0
  2 27  1  0
 10 28  1  0
 10 29  1  0
 11 30  1  0
 11 31  1  0
 13 32  1  0
 15 33  1  0
 18 34  1  6
 20 35  1  0
 21 36  1  0
 23 37  1  0
 25 38  1  0
 25 39  1  0
 25 40  1  0
M  ISO  8  26   9  27  14  28   8  29   8  30   8  31   8  32  14  33  14
M  ISO  7  34   8  35  14  36  14  37  14  38   8  39   8  40   8
M  END
>  <minimizedAffinity>  (1) 
-4.91234827

>  <minimizedRMSD>  (1) 
0.441618562

$$$$
