
     RDKit          3D

 35 37  0  0  1  0  0  0  0  0999 V2000
   49.5970   33.1300   37.2980 N   0  0  0  0  0  0  0  0  0  0  0  0
   48.8140   34.1970   37.1560 C   0  0  0  0  0  0  0  0  0  0  0  0
   47.9480   34.2110   38.1960 N   0  0  0  0  0  0  0  0  0  0  0  0
   48.1840   33.1590   38.9900 C   0  0  0  0  0  0  0  0  0  0  0  0
   47.6140   32.6910   40.1670 C   0  0  0  0  0  0  0  0  0  0  0  0
   48.1600   31.5650   40.6590 N   0  0  0  0  0  0  0  0  0  0  0  0
   49.1650   30.8940   40.1230 C   0  0  0  0  0  0  0  0  0  0  0  0
   49.7220   31.3400   38.9860 N   0  0  0  0  0  0  0  0  0  0  0  0
   49.2430   32.4750   38.4030 C   0  0  0  0  0  0  0  0  0  0  0  0
   49.6680   29.6620   40.7780 C   0  0  0  0  0  0  0  0  0  0  0  0
   49.7710   29.8590   42.2950 C   0  0  0  0  0  0  0  0  0  0  0  0
   51.2330   30.8150   42.7500 S   0  0  0  0  0  0  0  0  0  0  0  0
   46.2490   33.5860   40.9090 S   0  0  0  0  0  0  0  0  0  0  0  0
   46.7890   34.9070   41.9750 C   0  0  1  0  0  0  0  0  0  0  0  0
   46.1210   34.8370   43.3000 C   0  0  0  0  0  0  0  0  0  0  0  0
   45.1950   35.9030   43.4770 C   0  0  0  0  0  0  0  0  0  0  0  0
   44.5070   35.9210   44.7070 C   0  0  0  0  0  0  0  0  0  0  0  0
   44.7550   34.9440   45.6400 N   0  0  0  0  0  0  0  0  0  0  0  0
   45.6500   33.9640   45.3980 C   0  0  0  0  0  0  0  0  0  0  0  0
   46.3210   33.9400   44.2050 N   0  0  0  0  0  0  0  0  0  0  0  0
   48.3340   34.8650   42.1760 C   0  0  0  0  0  0  0  0  0  0  0  0
   50.3547   32.8549   36.6568 H   0  0  0  0  0  0  0  0  0  0  0  0
   48.8621   34.9340   36.3409 H   0  0  0  0  0  0  0  0  0  0  0  0
   48.9764   28.8329   40.5676 H   0  0  0  0  0  0  0  0  0  0  0  0
   50.6685   29.4338   40.3820 H   0  0  0  0  0  0  0  0  0  0  0  0
   48.8745   30.3907   42.6465 H   0  0  0  0  0  0  0  0  0  0  0  0
   49.8520   28.8671   42.7635 H   0  0  0  0  0  0  0  0  0  0  0  0
   51.3304   30.8787   44.1151 H   0  0  0  0  0  0  0  0  0  0  0  0
   46.5126   35.8524   41.4853 H   0  0  0  0  0  0  0  0  0  0  0  0
   45.0267   36.6654   42.7022 H   0  0  0  0  0  0  0  0  0  0  0  0
   43.7747   36.7140   44.9188 H   0  0  0  0  0  0  0  0  0  0  0  0
   45.8395   33.1887   46.1549 H   0  0  0  0  0  0  0  0  0  0  0  0
   48.5638   34.8588   43.2517 H   0  0  0  0  0  0  0  0  0  0  0  0
   48.7399   33.9555   41.7091 H   0  0  0  0  0  0  0  0  0  0  0  0
   48.7887   35.7511   41.7091 H   0  0  0  0  0  0  0  0  0  0  0  0
  1  9  1  0
  2  1  1  0
  2  3  2  0
  3  4  1  0
  4  5  2  0
  5  6  1  0
  5 13  1  0
  7  6  2  0
  7 10  1  0
  8  7  1  0
  9  8  2  0
  9  4  1  0
 10 11  1  0
 11 12  1  0
 13 14  1  0
 14 21  1  0
 14 15  1  0
 15 16  2  0
 15 20  1  0
 16 17  1  0
 17 18  2  0
 19 18  1  0
 20 19  2  0
  1 22  1  0
  2 23  1  0
 10 24  1  0
 10 25  1  0
 11 26  1  0
 11 27  1  0
 12 28  1  0
 14 29  1  6
 16 30  1  0
 17 31  1  0
 19 32  1  0
 21 33  1  0
 21 34  1  0
 21 35  1  0
M  ISO  8  22   9  23  14  24   8  25   8  26   8  27   8  28  11  29   8
M  ISO  6  30  14  31  14  32  14  33   8  34   8  35   8
M  END
>  <minimizedAffinity>  (1) 
-4.66991234

>  <minimizedRMSD>  (1) 
0.691400766

$$$$
