
     RDKit          3D

 31 34  0  0  0  0  0  0  0  0999 V2000
   46.6550   34.7210   42.0400 C   0  0  0  0  0  0  0  0  0  0  0  0
   47.9130   35.2650   41.9280 C   0  0  0  0  0  0  0  0  0  0  0  0
   48.6730   35.1720   40.7580 C   0  0  0  0  0  0  0  0  0  0  0  0
   48.1210   34.4920   39.6560 C   0  0  0  0  0  0  0  0  0  0  0  0
   46.8440   33.9340   39.7560 C   0  0  0  0  0  0  0  0  0  0  0  0
   46.1470   34.0670   40.9510 C   0  0  0  0  0  0  0  0  0  0  0  0
   46.3240   33.2580   38.6250 N   0  0  0  0  0  0  0  0  0  0  0  0
   45.0970   32.6980   38.4570 C   0  0  0  0  0  0  0  0  0  0  0  0
   44.9660   32.1410   37.2390 N   0  0  0  0  0  0  0  0  0  0  0  0
   46.1380   32.3520   36.6160 C   0  0  0  0  0  0  0  0  0  0  0  0
   46.5270   31.9780   35.3400 C   0  0  0  0  0  0  0  0  0  0  0  0
   47.7660   32.3000   34.9250 N   0  0  0  0  0  0  0  0  0  0  0  0
   48.5890   32.9700   35.7490 C   0  0  0  0  0  0  0  0  0  0  0  0
   48.2050   33.3320   36.9900 N   0  0  0  0  0  0  0  0  0  0  0  0
   46.9740   33.0380   37.4680 C   0  0  0  0  0  0  0  0  0  0  0  0
   44.4690   35.9630   44.8260 C   0  0  0  0  0  0  0  0  0  0  0  0
   45.0860   35.9240   43.5710 C   0  0  0  0  0  0  0  0  0  0  0  0
   45.9530   34.8760   43.3010 C   0  0  0  0  0  0  0  0  0  0  0  0
   46.1770   33.9260   44.2510 N   0  0  0  0  0  0  0  0  0  0  0  0
   45.5510   34.0010   45.4690 C   0  0  0  0  0  0  0  0  0  0  0  0
   44.7110   35.0110   45.7420 N   0  0  0  0  0  0  0  0  0  0  0  0
   48.3384   35.7944   42.7933 H   0  0  0  0  0  0  0  0  0  0  0  0
   49.6765   35.6188   40.7002 H   0  0  0  0  0  0  0  0  0  0  0  0
   48.6924   34.4004   38.7205 H   0  0  0  0  0  0  0  0  0  0  0  0
   45.1417   33.6266   41.0245 H   0  0  0  0  0  0  0  0  0  0  0  0
   44.3076   32.6999   39.2230 H   0  0  0  0  0  0  0  0  0  0  0  0
   45.8381   31.4298   34.6805 H   0  0  0  0  0  0  0  0  0  0  0  0
   49.6004   33.2295   35.4030 H   0  0  0  0  0  0  0  0  0  0  0  0
   43.7769   36.7837   45.0656 H   0  0  0  0  0  0  0  0  0  0  0  0
   44.8889   36.7028   42.8195 H   0  0  0  0  0  0  0  0  0  0  0  0
   45.7390   33.2272   46.2279 H   0  0  0  0  0  0  0  0  0  0  0  0
  1 18  1  0
  2  1  2  0
  3  2  1  0
  4  5  1  0
  4  3  2  0
  5  6  2  0
  6  1  1  0
  7  5  1  0
  8  7  1  0
  9  8  2  0
 10  9  1  0
 10 15  2  0
 11 10  1  0
 12 11  2  0
 12 13  1  0
 13 14  2  0
 14 15  1  0
 15  7  1  0
 16 21  2  0
 17 16  1  0
 18 17  2  0
 18 19  1  0
 19 20  2  0
 20 21  1  0
  2 22  1  0
  3 23  1  0
  4 24  1  0
  6 25  1  0
  8 26  1  0
 11 27  1  0
 13 28  1  0
 16 29  1  0
 17 30  1  0
 20 31  1  0
M  ISO  8  22  14  23  14  24  14  25  14  26  14  27  14  28  14  29  14
M  ISO  2  30  14  31  14
M  END
>  <minimizedAffinity>  (1) 
-6.27864885

>  <minimizedRMSD>  (1) 
0.310165823

$$$$
