
     RDKit          3D

 36 39  0  0  0  0  0  0  0  0999 V2000
   46.7730   34.7910   42.0180 C   0  0  0  0  0  0  0  0  0  0  0  0
   48.0310   35.3800   41.9680 C   0  0  0  0  0  0  0  0  0  0  0  0
   48.7880   35.2910   40.7880 C   0  0  0  0  0  0  0  0  0  0  0  0
   48.2890   34.6210   39.6780 C   0  0  0  0  0  0  0  0  0  0  0  0
   47.0370   34.0380   39.7400 C   0  0  0  0  0  0  0  0  0  0  0  0
   46.3050   34.1360   40.9130 C   0  0  0  0  0  0  0  0  0  0  0  0
   46.3390   33.2820   38.7080 C   0  0  0  0  0  0  0  0  0  0  0  0
   45.0370   32.8840   39.0440 C   0  0  0  0  0  0  0  0  0  0  0  0
   44.1990   32.1900   38.2150 C   0  0  0  0  0  0  0  0  0  0  0  0
   44.6370   31.8410   36.9570 C   0  0  0  0  0  0  0  0  0  0  0  0
   45.9160   32.2200   36.6030 C   0  0  0  0  0  0  0  0  0  0  0  0
   46.4260   31.9020   35.3620 C   0  0  0  0  0  0  0  0  0  0  0  0
   47.7260   32.2890   35.0270 C   0  0  0  0  0  0  0  0  0  0  0  0
   48.5460   32.9940   35.9000 C   0  0  0  0  0  0  0  0  0  0  0  0
   48.0370   33.3140   37.1420 C   0  0  0  0  0  0  0  0  0  0  0  0
   46.7520   32.9200   37.4440 C   0  0  0  0  0  0  0  0  0  0  0  0
   44.4730   35.9550   44.7590 C   0  0  0  0  0  0  0  0  0  0  0  0
   45.1300   35.9390   43.5260 C   0  0  0  0  0  0  0  0  0  0  0  0
   46.0240   34.9130   43.2750 C   0  0  0  0  0  0  0  0  0  0  0  0
   46.2400   33.9610   44.2160 N   0  0  0  0  0  0  0  0  0  0  0  0
   45.5860   34.0000   45.4120 C   0  0  0  0  0  0  0  0  0  0  0  0
   44.7160   34.9850   45.6740 N   0  0  0  0  0  0  0  0  0  0  0  0
   48.4303   35.9111   42.8447 H   0  0  0  0  0  0  0  0  0  0  0  0
   49.7840   35.7556   40.7425 H   0  0  0  0  0  0  0  0  0  0  0  0
   48.8858   34.5548   38.7564 H   0  0  0  0  0  0  0  0  0  0  0  0
   45.3099   33.6691   40.9564 H   0  0  0  0  0  0  0  0  0  0  0  0
   44.6634   33.1484   40.0443 H   0  0  0  0  0  0  0  0  0  0  0  0
   43.1879   31.9142   38.5491 H   0  0  0  0  0  0  0  0  0  0  0  0
   43.9931   31.2823   36.2618 H   0  0  0  0  0  0  0  0  0  0  0  0
   45.8117   31.3458   34.6386 H   0  0  0  0  0  0  0  0  0  0  0  0
   48.1160   32.0252   34.0328 H   0  0  0  0  0  0  0  0  0  0  0  0
   49.5661   33.2869   35.6107 H   0  0  0  0  0  0  0  0  0  0  0  0
   48.6424   33.8700   37.8730 H   0  0  0  0  0  0  0  0  0  0  0  0
   43.7562   36.7574   44.9879 H   0  0  0  0  0  0  0  0  0  0  0  0
   44.9417   36.7207   42.7753 H   0  0  0  0  0  0  0  0  0  0  0  0
   45.7733   33.2199   46.1646 H   0  0  0  0  0  0  0  0  0  0  0  0
  1 19  1  0
  2  1  2  0
  3  2  1  0
  4  5  1  0
  4  3  2  0
  5  6  2  0
  6  1  1  0
  7  8  2  0
  7  5  1  0
  9  8  1  0
 10  9  2  0
 11 10  1  0
 11 16  2  0
 12 11  1  0
 13 12  2  0
 13 14  1  0
 14 15  2  0
 15 16  1  0
 16  7  1  0
 17 22  2  0
 18 17  1  0
 19 18  2  0
 19 20  1  0
 20 21  2  0
 21 22  1  0
  2 23  1  0
  3 24  1  0
  4 25  1  0
  6 26  1  0
  8 27  1  0
  9 28  1  0
 10 29  1  0
 12 30  1  0
 13 31  1  0
 14 32  1  0
 15 33  1  0
 17 34  1  0
 18 35  1  0
 21 36  1  0
M  ISO  8  23  14  24  14  25  14  26  14  27  14  28  14  29  14  30  14
M  ISO  6  31  14  32  14  33  14  34  14  35  14  36  14
M  END
>  <minimizedAffinity>  (1) 
-6.46466017

>  <minimizedRMSD>  (1) 
0.579712927

$$$$
