
     RDKit          3D

 36 38  0  0  1  0  0  0  0  0999 V2000
   49.5950   33.3050   37.1830 N   0  0  0  0  0  0  0  0  0  0  0  0
   48.5670   34.1500   37.0440 C   0  0  0  0  0  0  0  0  0  0  0  0
   47.8010   34.0470   38.1450 N   0  0  0  0  0  0  0  0  0  0  0  0
   48.3350   33.1410   38.9870 C   0  0  0  0  0  0  0  0  0  0  0  0
   47.9630   32.6640   40.2230 C   0  0  0  0  0  0  0  0  0  0  0  0
   48.7840   31.7410   40.7410 N   0  0  0  0  0  0  0  0  0  0  0  0
   49.8850   31.2690   40.1790 C   0  0  0  0  0  0  0  0  0  0  0  0
   50.2450   31.7410   38.9650 N   0  0  0  0  0  0  0  0  0  0  0  0
   49.4760   32.6830   38.3510 C   0  0  0  0  0  0  0  0  0  0  0  0
   50.7110   30.2460   40.8590 C   0  0  0  0  0  0  0  0  0  0  0  0
   51.0680   30.7040   42.2740 C   0  0  0  0  0  0  0  0  0  0  0  0
   50.0590   30.3340   43.2280 N   0  0  0  0  0  0  0  0  0  0  0  0
   46.4800   33.2760   41.0210 S   0  0  0  0  0  0  0  0  0  0  0  0
   46.7270   34.8270   41.8550 C   0  0  1  0  0  0  0  0  0  0  0  0
   46.0680   34.8480   43.1770 C   0  0  0  0  0  0  0  0  0  0  0  0
   45.1910   35.9550   43.3190 C   0  0  0  0  0  0  0  0  0  0  0  0
   44.5190   36.0440   44.5570 C   0  0  0  0  0  0  0  0  0  0  0  0
   44.7340   35.0990   45.5250 N   0  0  0  0  0  0  0  0  0  0  0  0
   45.5800   34.0790   45.3140 C   0  0  0  0  0  0  0  0  0  0  0  0
   46.2390   33.9800   44.1150 N   0  0  0  0  0  0  0  0  0  0  0  0
   48.2490   35.1270   42.0250 C   0  0  0  0  0  0  0  0  0  0  0  0
   50.3517   33.1609   36.4992 H   0  0  0  0  0  0  0  0  0  0  0  0
   48.3815   34.8103   36.1840 H   0  0  0  0  0  0  0  0  0  0  0  0
   50.1472   29.3031   40.9146 H   0  0  0  0  0  0  0  0  0  0  0  0
   51.6388   30.0982   40.2868 H   0  0  0  0  0  0  0  0  0  0  0  0
   52.0217   30.2411   42.5676 H   0  0  0  0  0  0  0  0  0  0  0  0
   51.1449   31.8013   42.2677 H   0  0  0  0  0  0  0  0  0  0  0  0
   50.4232   30.4676   44.1822 H   0  0  0  0  0  0  0  0  0  0  0  0
   49.2258   30.9242   43.0928 H   0  0  0  0  0  0  0  0  0  0  0  0
   46.2697   35.6070   41.2284 H   0  0  0  0  0  0  0  0  0  0  0  0
   45.0448   36.6942   42.5176 H   0  0  0  0  0  0  0  0  0  0  0  0
   43.8215   36.8736   44.7448 H   0  0  0  0  0  0  0  0  0  0  0  0
   45.7443   33.3259   46.0987 H   0  0  0  0  0  0  0  0  0  0  0  0
   48.4958   35.1756   43.0959 H   0  0  0  0  0  0  0  0  0  0  0  0
   48.8357   34.3272   41.5495 H   0  0  0  0  0  0  0  0  0  0  0  0
   48.4883   36.0896   41.5495 H   0  0  0  0  0  0  0  0  0  0  0  0
  1  9  1  0
  2  1  1  0
  2  3  2  0
  3  4  1  0
  4  5  2  0
  5  6  1  0
  5 13  1  0
  7  6  2  0
  7 10  1  0
  8  7  1  0
  9  8  2  0
  9  4  1  0
 10 11  1  0
 11 12  1  0
 13 14  1  0
 14 21  1  0
 14 15  1  0
 15 16  2  0
 15 20  1  0
 16 17  1  0
 17 18  2  0
 19 18  1  0
 20 19  2  0
  1 22  1  0
  2 23  1  0
 10 24  1  0
 10 25  1  0
 11 26  1  0
 11 27  1  0
 12 28  1  0
 12 29  1  0
 14 30  1  6
 16 31  1  0
 17 32  1  0
 19 33  1  0
 21 34  1  0
 21 35  1  0
 21 36  1  0
M  ISO  8  22   9  23  14  24   8  25   8  26   8  27   8  28   5  29   5
M  ISO  7  30   8  31  14  32  14  33  14  34   8  35   8  36   8
M  END
>  <minimizedAffinity>  (1) 
-4.76042986

>  <minimizedRMSD>  (1) 
0.19127889

$$$$
