
     RDKit          3D

 33 35  0  0  0  0  0  0  0  0999 V2000
   46.7430   34.7780   42.0090 C   0  0  0  0  0  0  0  0  0  0  0  0
   47.9950   35.3430   41.9520 C   0  0  0  0  0  0  0  0  0  0  0  0
   48.7680   35.2330   40.7830 C   0  0  0  0  0  0  0  0  0  0  0  0
   48.2730   34.5510   39.6770 C   0  0  0  0  0  0  0  0  0  0  0  0
   47.0100   33.9850   39.7480 C   0  0  0  0  0  0  0  0  0  0  0  0
   46.2490   34.1000   40.9100 C   0  0  0  0  0  0  0  0  0  0  0  0
   46.3370   33.2550   38.7270 N   0  0  0  0  0  0  0  0  0  0  0  0
   45.3410   32.4670   39.2030 C   0  0  0  0  0  0  0  0  0  0  0  0
   44.6020   31.6980   38.3130 C   0  0  0  0  0  0  0  0  0  0  0  0
   43.4930   30.8090   38.7570 C   0  0  0  0  0  0  0  0  0  0  0  0
   44.8690   31.7280   36.9550 C   0  0  0  0  0  0  0  0  0  0  0  0
   44.2400   31.0570   36.0940 O   0  0  0  0  0  0  0  0  0  0  0  0
   45.8740   32.5340   36.5560 N   0  0  0  0  0  0  0  0  0  0  0  0
   46.5910   33.2770   37.3990 C   0  0  0  0  0  0  0  0  0  0  0  0
   47.5320   34.0410   37.0870 O   0  0  0  0  0  0  0  0  0  0  0  0
   44.4650   35.9840   44.7570 C   0  0  0  0  0  0  0  0  0  0  0  0
   45.1150   35.9700   43.5070 C   0  0  0  0  0  0  0  0  0  0  0  0
   45.9930   34.9310   43.2580 C   0  0  0  0  0  0  0  0  0  0  0  0
   46.1970   33.9740   44.2120 N   0  0  0  0  0  0  0  0  0  0  0  0
   45.5540   34.0160   45.4110 C   0  0  0  0  0  0  0  0  0  0  0  0
   44.6950   35.0190   45.6730 N   0  0  0  0  0  0  0  0  0  0  0  0
   48.3931   35.8828   42.8238 H   0  0  0  0  0  0  0  0  0  0  0  0
   49.7685   35.6883   40.7431 H   0  0  0  0  0  0  0  0  0  0  0  0
   48.8744   34.4621   38.7602 H   0  0  0  0  0  0  0  0  0  0  0  0
   45.2472   33.6477   40.9531 H   0  0  0  0  0  0  0  0  0  0  0  0
   45.1212   32.4372   40.2804 H   0  0  0  0  0  0  0  0  0  0  0  0
   43.4612   30.7835   39.8562 H   0  0  0  0  0  0  0  0  0  0  0  0
   42.5375   31.1942   38.3714 H   0  0  0  0  0  0  0  0  0  0  0  0
   43.6610   29.7926   38.3714 H   0  0  0  0  0  0  0  0  0  0  0  0
   46.0983   32.5775   35.5517 H   0  0  0  0  0  0  0  0  0  0  0  0
   43.7587   36.7943   44.9905 H   0  0  0  0  0  0  0  0  0  0  0  0
   44.9313   36.7548   42.7585 H   0  0  0  0  0  0  0  0  0  0  0  0
   45.7355   33.2337   46.1627 H   0  0  0  0  0  0  0  0  0  0  0  0
  1 18  1  0
  2  1  2  0
  3  2  1  0
  4  5  1  0
  4  3  2  0
  5  6  2  0
  6  1  1  0
  7  8  1  0
  7  5  1  0
  9 10  1  0
  9  8  2  0
 11  9  1  0
 12 11  2  0
 13 11  1  0
 13 14  1  0
 14  7  1  0
 15 14  2  0
 16 21  2  0
 17 16  1  0
 18 17  2  0
 18 19  1  0
 19 20  2  0
 20 21  1  0
  2 22  1  0
  3 23  1  0
  4 24  1  0
  6 25  1  0
  8 26  1  0
 10 27  1  0
 10 28  1  0
 10 29  1  0
 13 30  1  0
 16 31  1  0
 17 32  1  0
 20 33  1  0
M  ISO  8  22  14  23  14  24  14  25  14  26  14  27   8  28   8  29   8
M  ISO  4  30   9  31  14  32  14  33  14
M  END
>  <minimizedAffinity>  (1) 
-5.9707222

>  <minimizedRMSD>  (1) 
0.292904645

$$$$
