
     RDKit          3D

 27 29  0  0  0  0  0  0  0  0999 V2000
   46.7350   34.7660   42.1020 C   0  0  0  0  0  0  0  0  0  0  0  0
   47.9740   35.3820   42.0230 C   0  0  0  0  0  0  0  0  0  0  0  0
   48.7470   35.3100   40.8570 C   0  0  0  0  0  0  0  0  0  0  0  0
   48.2510   34.5980   39.7470 C   0  0  0  0  0  0  0  0  0  0  0  0
   47.0180   33.9880   39.8310 C   0  0  0  0  0  0  0  0  0  0  0  0
   46.2840   34.0800   40.9970 C   0  0  0  0  0  0  0  0  0  0  0  0
   44.4610   35.9390   44.8480 C   0  0  0  0  0  0  0  0  0  0  0  0
   45.1120   35.9160   43.6090 C   0  0  0  0  0  0  0  0  0  0  0  0
   46.0030   34.8920   43.3490 C   0  0  0  0  0  0  0  0  0  0  0  0
   46.2190   33.9420   44.2970 N   0  0  0  0  0  0  0  0  0  0  0  0
   45.5670   33.9950   45.4940 C   0  0  0  0  0  0  0  0  0  0  0  0
   44.7040   34.9720   45.7640 N   0  0  0  0  0  0  0  0  0  0  0  0
   46.4880   33.2460   38.6930 C   0  0  0  0  0  0  0  0  0  0  0  0
   45.9920   31.9620   38.7230 C   0  0  0  0  0  0  0  0  0  0  0  0
   45.6060   31.6560   37.4600 N   0  0  0  0  0  0  0  0  0  0  0  0
   45.8570   32.7210   36.6730 C   0  0  0  0  0  0  0  0  0  0  0  0
   46.3980   33.6960   37.4290 N   0  0  0  0  0  0  0  0  0  0  0  0
   48.3573   35.9375   42.8916 H   0  0  0  0  0  0  0  0  0  0  0  0
   49.7290   35.8032   40.8086 H   0  0  0  0  0  0  0  0  0  0  0  0
   48.8423   34.5296   38.8220 H   0  0  0  0  0  0  0  0  0  0  0  0
   45.3020   33.5866   41.0447 H   0  0  0  0  0  0  0  0  0  0  0  0
   43.7494   36.7456   45.0783 H   0  0  0  0  0  0  0  0  0  0  0  0
   44.9185   36.6964   42.8583 H   0  0  0  0  0  0  0  0  0  0  0  0
   45.7575   33.2176   46.2486 H   0  0  0  0  0  0  0  0  0  0  0  0
   45.9221   31.3082   39.6049 H   0  0  0  0  0  0  0  0  0  0  0  0
   45.6540   32.7836   35.5937 H   0  0  0  0  0  0  0  0  0  0  0  0
   46.6919   34.6255   37.0964 H   0  0  0  0  0  0  0  0  0  0  0  0
  1  9  1  0
  2  1  2  0
  3  2  1  0
  4  5  1  0
  4  3  2  0
  5  6  2  0
  6  1  1  0
  7 12  2  0
  8  7  1  0
  9  8  2  0
  9 10  1  0
 10 11  2  0
 11 12  1  0
 13 14  2  0
 13  5  1  0
 15 14  1  0
 16 17  1  0
 16 15  2  0
 17 13  1  0
  2 18  1  0
  3 19  1  0
  4 20  1  0
  6 21  1  0
  7 22  1  0
  8 23  1  0
 11 24  1  0
 14 25  1  0
 16 26  1  0
 17 27  1  0
M  ISO  8  18  14  19  14  20  14  21  14  22  14  23  14  24  14  25  14
M  ISO  2  26  14  27   9
M  END
>  <minimizedAffinity>  (1) 
-5.69473553

>  <minimizedRMSD>  (1) 
0.19656457

$$$$
