
     RDKit          3D

 40 44  0  0  1  0  0  0  0  0999 V2000
   48.0730   33.3710   39.0800 C   0  0  2  0  0  0  0  0  0  0  0  0
   48.2400   34.3020   37.8610 C   0  0  0  0  0  0  0  0  0  0  0  0
   47.9110   32.8330   37.6800 C   0  0  1  0  0  0  0  0  0  0  0  0
   45.6360   34.0710   41.6690 N   0  0  0  0  0  0  0  0  0  0  0  0
   44.8060   33.8690   40.6110 C   0  0  0  0  0  0  0  0  0  0  0  0
   45.5200   33.5860   39.5180 N   0  0  0  0  0  0  0  0  0  0  0  0
   46.8420   33.6120   39.9050 C   0  0  0  0  0  0  0  0  0  0  0  0
   46.8280   33.9040   41.1900 N   0  0  0  0  0  0  0  0  0  0  0  0
   44.7570   35.6730   43.2430 C   0  0  0  0  0  0  0  0  0  0  0  0
   45.3640   34.3940   43.0220 C   0  0  0  0  0  0  0  0  0  0  0  0
   45.6230   33.6130   44.1030 C   0  0  0  0  0  0  0  0  0  0  0  0
   45.2860   34.1050   45.3300 N   0  0  0  0  0  0  0  0  0  0  0  0
   44.7210   35.3010   45.5130 C   0  0  0  0  0  0  0  0  0  0  0  0
   44.4570   36.0870   44.4570 N   0  0  0  0  0  0  0  0  0  0  0  0
   48.8980   31.8750   37.2210 C   0  0  0  0  0  0  0  0  0  0  0  0
   48.4960   30.6980   36.9540 O   0  0  0  0  0  0  0  0  0  0  0  0
   50.2230   32.2080   37.0650 O   0  0  0  0  0  0  0  0  0  0  0  0
   53.0740   31.5280   38.9570 N   0  0  0  0  0  0  0  0  0  0  0  0
   52.4580   31.9500   37.8420 N   0  0  0  0  0  0  0  0  0  0  0  0
   51.1210   31.8450   38.0420 C   0  0  0  0  0  0  0  0  0  0  0  0
   50.8780   31.3530   39.2970 C   0  0  0  0  0  0  0  0  0  0  0  0
   52.1470   31.1600   39.8550 C   0  0  0  0  0  0  0  0  0  0  0  0
   52.3380   30.6370   41.2050 C   0  0  0  0  0  0  0  0  0  0  0  0
   51.4870   30.7280   42.2690 C   0  0  0  0  0  0  0  0  0  0  0  0
   52.0200   30.1090   43.3790 C   0  0  0  0  0  0  0  0  0  0  0  0
   53.2040   29.6460   42.9660 N   0  0  0  0  0  0  0  0  0  0  0  0
   53.3840   29.9530   41.7060 N   0  0  0  0  0  0  0  0  0  0  0  0
   48.6801   33.0691   39.9462 H   0  0  0  0  0  0  0  0  0  0  0  0
   47.4820   35.0689   37.6435 H   0  0  0  0  0  0  0  0  0  0  0  0
   49.0254   34.9796   37.4948 H   0  0  0  0  0  0  0  0  0  0  0  0
   47.1266   32.3141   37.1095 H   0  0  0  0  0  0  0  0  0  0  0  0
   43.7083   33.9297   40.6495 H   0  0  0  0  0  0  0  0  0  0  0  0
   44.5373   36.3217   42.3822 H   0  0  0  0  0  0  0  0  0  0  0  0
   46.0868   32.6216   43.9931 H   0  0  0  0  0  0  0  0  0  0  0  0
   44.4719   35.6422   46.5287 H   0  0  0  0  0  0  0  0  0  0  0  0
   54.0933   31.4923   39.1004 H   0  0  0  0  0  0  0  0  0  0  0  0
   49.9018   31.1537   39.7631 H   0  0  0  0  0  0  0  0  0  0  0  0
   50.5076   31.2282   42.2436 H   0  0  0  0  0  0  0  0  0  0  0  0
   51.5720   30.0167   44.3794 H   0  0  0  0  0  0  0  0  0  0  0  0
   53.8738   29.1261   43.5508 H   0  0  0  0  0  0  0  0  0  0  0  0
  1  7  1  0
  2  1  1  0
  3  2  1  0
  3  1  1  0
  4 10  1  0
  5  4  1  0
  6  7  1  0
  6  5  2  0
  7  8  2  0
  8  4  1  0
  9 14  2  0
 10  9  1  0
 10 11  2  0
 11 12  1  0
 12 13  2  0
 14 13  1  0
 15  3  1  0
 16 15  2  0
 17 15  1  0
 17 20  1  0
 18 22  1  0
 19 20  2  0
 19 18  1  0
 20 21  1  0
 21 22  2  0
 22 23  1  0
 23 27  2  0
 23 24  1  0
 24 25  2  0
 26 25  1  0
 27 26  1  0
  1 28  1  1
  2 29  1  0
  2 30  1  0
  3 31  1  1
  5 32  1  0
  9 33  1  0
 11 34  1  0
 13 35  1  0
 18 36  1  0
 21 37  1  0
 24 38  1  0
 25 39  1  0
 26 40  1  0
M  ISO  8  28  13  29  13  30  13  31  13  32  14  33  14  34  14  35  14
M  ISO  5  36   9  37  14  38  14  39  14  40   9
M  END
>  <minimizedAffinity>  (1) 
-4.96300507

>  <minimizedRMSD>  (1) 
0.592941344

$$$$
