
     RDKit          3D

 28 30  0  0  0  0  0  0  0  0999 V2000
   46.7040   34.7390   41.9890 C   0  0  0  0  0  0  0  0  0  0  0  0
   47.9440   35.3560   41.8890 C   0  0  0  0  0  0  0  0  0  0  0  0
   48.7120   35.2580   40.7160 C   0  0  0  0  0  0  0  0  0  0  0  0
   48.2060   34.5190   39.6270 C   0  0  0  0  0  0  0  0  0  0  0  0
   46.9720   33.9080   39.7330 C   0  0  0  0  0  0  0  0  0  0  0  0
   46.2580   34.0350   40.9080 C   0  0  0  0  0  0  0  0  0  0  0  0
   44.4840   35.9670   44.7490 C   0  0  0  0  0  0  0  0  0  0  0  0
   45.1160   35.9330   43.5040 C   0  0  0  0  0  0  0  0  0  0  0  0
   45.9840   34.8890   43.2370 C   0  0  0  0  0  0  0  0  0  0  0  0
   46.1960   33.9330   44.1880 N   0  0  0  0  0  0  0  0  0  0  0  0
   45.5640   33.9930   45.3990 C   0  0  0  0  0  0  0  0  0  0  0  0
   44.7170   35.0060   45.6670 N   0  0  0  0  0  0  0  0  0  0  0  0
   46.3640   33.1240   38.6640 C   0  0  0  0  0  0  0  0  0  0  0  0
   46.6520   33.2970   37.3290 C   0  0  0  0  0  0  0  0  0  0  0  0
   46.0850   32.5620   36.3090 C   0  0  0  0  0  0  0  0  0  0  0  0
   45.1830   31.6070   36.6430 N   0  0  0  0  0  0  0  0  0  0  0  0
   44.8900   31.4230   37.9290 C   0  0  0  0  0  0  0  0  0  0  0  0
   45.4520   32.1480   38.9080 N   0  0  0  0  0  0  0  0  0  0  0  0
   48.3319   35.9314   42.7425 H   0  0  0  0  0  0  0  0  0  0  0  0
   49.6933   35.7505   40.6485 H   0  0  0  0  0  0  0  0  0  0  0  0
   48.7902   34.4297   38.6992 H   0  0  0  0  0  0  0  0  0  0  0  0
   45.2769   33.5423   40.9766 H   0  0  0  0  0  0  0  0  0  0  0  0
   43.7886   36.7863   44.9838 H   0  0  0  0  0  0  0  0  0  0  0  0
   44.9285   36.7162   42.7547 H   0  0  0  0  0  0  0  0  0  0  0  0
   45.7470   33.2145   46.1542 H   0  0  0  0  0  0  0  0  0  0  0  0
   47.3829   34.0730   37.0578 H   0  0  0  0  0  0  0  0  0  0  0  0
   46.3559   32.7448   35.2587 H   0  0  0  0  0  0  0  0  0  0  0  0
   44.1590   30.6466   38.1989 H   0  0  0  0  0  0  0  0  0  0  0  0
  1  9  1  0
  2  1  2  0
  3  2  1  0
  4  5  1  0
  4  3  2  0
  5  6  2  0
  6  1  1  0
  7 12  2  0
  8  7  1  0
  9  8  2  0
  9 10  1  0
 10 11  2  0
 11 12  1  0
 13 18  1  0
 13  5  1  0
 14 13  2  0
 15 16  2  0
 15 14  1  0
 16 17  1  0
 17 18  2  0
  2 19  1  0
  3 20  1  0
  4 21  1  0
  6 22  1  0
  7 23  1  0
  8 24  1  0
 11 25  1  0
 14 26  1  0
 15 27  1  0
 17 28  1  0
M  ISO  8  19  14  20  14  21  14  22  14  23  14  24  14  25  14  26  14
M  ISO  2  27  14  28  14
M  END
>  <minimizedAffinity>  (1) 
-5.6450839

>  <minimizedRMSD>  (1) 
0.474212676

$$$$
