
     RDKit          3D

 27 29  0  0  0  0  0  0  0  0999 V2000
   46.7650   34.7460   42.0290 C   0  0  0  0  0  0  0  0  0  0  0  0
   47.9780   35.3750   41.9300 C   0  0  0  0  0  0  0  0  0  0  0  0
   48.7300   35.2900   40.7540 C   0  0  0  0  0  0  0  0  0  0  0  0
   48.2500   34.5640   39.6700 C   0  0  0  0  0  0  0  0  0  0  0  0
   47.0260   33.9300   39.7700 C   0  0  0  0  0  0  0  0  0  0  0  0
   46.2820   34.0190   40.9490 C   0  0  0  0  0  0  0  0  0  0  0  0
   44.4730   35.9580   44.7680 C   0  0  0  0  0  0  0  0  0  0  0  0
   45.1300   35.9210   43.5340 C   0  0  0  0  0  0  0  0  0  0  0  0
   46.0310   34.8750   43.2810 C   0  0  0  0  0  0  0  0  0  0  0  0
   46.2310   33.9440   44.2340 N   0  0  0  0  0  0  0  0  0  0  0  0
   45.5750   34.0060   45.4280 C   0  0  0  0  0  0  0  0  0  0  0  0
   44.7190   34.9850   45.6900 N   0  0  0  0  0  0  0  0  0  0  0  0
   46.5080   33.1650   38.6430 C   0  0  0  0  0  0  0  0  0  0  0  0
   46.8270   33.3670   37.3170 C   0  0  0  0  0  0  0  0  0  0  0  0
   46.1280   32.4370   36.5740 C   0  0  0  0  0  0  0  0  0  0  0  0
   45.4150   31.7070   37.4510 N   0  0  0  0  0  0  0  0  0  0  0  0
   45.6520   32.1550   38.6930 N   0  0  0  0  0  0  0  0  0  0  0  0
   48.3639   35.9521   42.7832 H   0  0  0  0  0  0  0  0  0  0  0  0
   49.7031   35.7985   40.6866 H   0  0  0  0  0  0  0  0  0  0  0  0
   48.8379   34.4949   38.7429 H   0  0  0  0  0  0  0  0  0  0  0  0
   45.3091   33.5109   41.0222 H   0  0  0  0  0  0  0  0  0  0  0  0
   43.7624   36.7670   44.9929 H   0  0  0  0  0  0  0  0  0  0  0  0
   44.9442   36.6966   42.7764 H   0  0  0  0  0  0  0  0  0  0  0  0
   45.7588   33.2310   46.1867 H   0  0  0  0  0  0  0  0  0  0  0  0
   47.5137   34.1305   36.9228 H   0  0  0  0  0  0  0  0  0  0  0  0
   46.1496   32.3165   35.4808 H   0  0  0  0  0  0  0  0  0  0  0  0
   44.7869   30.9279   37.2074 H   0  0  0  0  0  0  0  0  0  0  0  0
  1  9  1  0
  2  1  2  0
  3  2  1  0
  4  5  1  0
  4  3  2  0
  5  6  2  0
  6  1  1  0
  7 12  2  0
  8  7  1  0
  9  8  2  0
  9 10  1  0
 10 11  2  0
 11 12  1  0
 13 17  2  0
 13  5  1  0
 14 13  1  0
 15 14  2  0
 15 16  1  0
 16 17  1  0
  2 18  1  0
  3 19  1  0
  4 20  1  0
  6 21  1  0
  7 22  1  0
  8 23  1  0
 11 24  1  0
 14 25  1  0
 15 26  1  0
 16 27  1  0
M  ISO  8  18  14  19  14  20  14  21  14  22  14  23  14  24  14  25  14
M  ISO  2  26  14  27   9
M  END
>  <minimizedAffinity>  (1) 
-5.50758171

>  <minimizedRMSD>  (1) 
0.151773885

$$$$
