
     RDKit          3D

 33 35  0  0  0  0  0  0  0  0999 V2000
   46.6750   34.7050   42.0520 C   0  0  0  0  0  0  0  0  0  0  0  0
   47.8900   35.3600   41.9190 C   0  0  0  0  0  0  0  0  0  0  0  0
   48.6340   35.2470   40.7350 C   0  0  0  0  0  0  0  0  0  0  0  0
   48.1540   34.4660   39.6680 C   0  0  0  0  0  0  0  0  0  0  0  0
   46.9410   33.8230   39.8240 C   0  0  0  0  0  0  0  0  0  0  0  0
   46.2340   33.9540   40.9980 C   0  0  0  0  0  0  0  0  0  0  0  0
   44.4710   35.9950   44.8120 C   0  0  0  0  0  0  0  0  0  0  0  0
   45.1030   35.9370   43.5630 C   0  0  0  0  0  0  0  0  0  0  0  0
   45.9650   34.8720   43.3060 C   0  0  0  0  0  0  0  0  0  0  0  0
   46.1590   33.9370   44.2690 N   0  0  0  0  0  0  0  0  0  0  0  0
   45.5290   34.0230   45.4730 C   0  0  0  0  0  0  0  0  0  0  0  0
   44.6980   35.0380   45.7370 N   0  0  0  0  0  0  0  0  0  0  0  0
   46.5010   33.0480   38.7180 N   0  0  0  0  0  0  0  0  0  0  0  0
   45.6940   31.8930   38.9450 C   0  0  0  0  0  0  0  0  0  0  0  0
   45.2630   31.1810   37.7190 C   0  0  0  0  0  0  0  0  0  0  0  0
   44.9780   31.9450   36.6300 O   0  0  0  0  0  0  0  0  0  0  0  0
   45.4660   33.2200   36.6000 C   0  0  0  0  0  0  0  0  0  0  0  0
   46.8020   33.3230   37.3260 C   0  0  0  0  0  0  0  0  0  0  0  0
   48.2733   35.9728   42.7481 H   0  0  0  0  0  0  0  0  0  0  0  0
   49.5965   35.7712   40.6406 H   0  0  0  0  0  0  0  0  0  0  0  0
   48.7286   34.3698   38.7350 H   0  0  0  0  0  0  0  0  0  0  0  0
   45.2709   33.4309   41.0923 H   0  0  0  0  0  0  0  0  0  0  0  0
   43.7860   36.8249   45.0403 H   0  0  0  0  0  0  0  0  0  0  0  0
   44.9235   36.7126   42.8039 H   0  0  0  0  0  0  0  0  0  0  0  0
   45.7049   33.2505   46.2361 H   0  0  0  0  0  0  0  0  0  0  0  0
   46.2708   31.1896   39.5635 H   0  0  0  0  0  0  0  0  0  0  0  0
   44.7751   32.2503   39.4328 H   0  0  0  0  0  0  0  0  0  0  0  0
   46.0693   30.4881   37.4366 H   0  0  0  0  0  0  0  0  0  0  0  0
   44.3112   30.6993   37.9876 H   0  0  0  0  0  0  0  0  0  0  0  0
   45.6038   33.5256   35.5523 H   0  0  0  0  0  0  0  0  0  0  0  0
   44.7453   33.8778   37.1077 H   0  0  0  0  0  0  0  0  0  0  0  0
   47.5133   32.5824   36.9316 H   0  0  0  0  0  0  0  0  0  0  0  0
   47.2666   34.3112   37.1935 H   0  0  0  0  0  0  0  0  0  0  0  0
  1  9  1  0
  2  1  2  0
  3  2  1  0
  4  5  1  0
  4  3  2  0
  5  6  2  0
  6  1  1  0
  7 12  2  0
  8  7  1  0
  9  8  2  0
  9 10  1  0
 10 11  2  0
 11 12  1  0
 13 14  1  0
 13  5  1  0
 15 14  1  0
 16 15  1  0
 17 16  1  0
 17 18  1  0
 18 13  1  0
  2 19  1  0
  3 20  1  0
  4 21  1  0
  6 22  1  0
  7 23  1  0
  8 24  1  0
 11 25  1  0
 14 26  1  0
 14 27  1  0
 15 28  1  0
 15 29  1  0
 17 30  1  0
 17 31  1  0
 18 32  1  0
 18 33  1  0
M  ISO  8  19  14  20  14  21  14  22  14  23  14  24  14  25  14  26  13
M  ISO  7  27  13  28  13  29  13  30  13  31  13  32  13  33  13
M  END
>  <minimizedAffinity>  (1) 
-5.62120008

>  <minimizedRMSD>  (1) 
0.150026247

$$$$
