
     RDKit          3D

 35 37  0  0  0  0  0  0  0  0999 V2000
   46.7620   34.7740   42.0320 C   0  0  0  0  0  0  0  0  0  0  0  0
   48.0040   35.3780   41.9630 C   0  0  0  0  0  0  0  0  0  0  0  0
   48.7530   35.2830   40.7810 C   0  0  0  0  0  0  0  0  0  0  0  0
   48.2560   34.5830   39.6800 C   0  0  0  0  0  0  0  0  0  0  0  0
   47.0130   33.9840   39.7640 C   0  0  0  0  0  0  0  0  0  0  0  0
   46.2800   34.0830   40.9280 C   0  0  0  0  0  0  0  0  0  0  0  0
   44.4740   35.9540   44.7810 C   0  0  0  0  0  0  0  0  0  0  0  0
   45.1240   35.9420   43.5400 C   0  0  0  0  0  0  0  0  0  0  0  0
   46.0210   34.9030   43.2820 C   0  0  0  0  0  0  0  0  0  0  0  0
   46.2160   33.9690   44.2300 N   0  0  0  0  0  0  0  0  0  0  0  0
   45.5720   34.0020   45.4290 C   0  0  0  0  0  0  0  0  0  0  0  0
   44.7120   34.9880   45.6910 N   0  0  0  0  0  0  0  0  0  0  0  0
   46.4860   33.2700   38.6620 N   0  0  0  0  0  0  0  0  0  0  0  0
   45.3880   32.3510   38.7580 C   0  0  0  0  0  0  0  0  0  0  0  0
   44.5280   32.3340   37.4880 C   0  0  0  0  0  0  0  0  0  0  0  0
   45.2980   32.0010   36.2590 C   0  0  0  0  0  0  0  0  0  0  0  0
   46.7590   32.2700   36.4310 C   0  0  0  0  0  0  0  0  0  0  0  0
   47.0480   33.4390   37.3370 C   0  0  0  0  0  0  0  0  0  0  0  0
   48.4014   35.9287   42.8283 H   0  0  0  0  0  0  0  0  0  0  0  0
   49.7404   35.7641   40.7209 H   0  0  0  0  0  0  0  0  0  0  0  0
   48.8473   34.5089   38.7554 H   0  0  0  0  0  0  0  0  0  0  0  0
   45.2914   33.6039   40.9832 H   0  0  0  0  0  0  0  0  0  0  0  0
   43.7624   36.7595   45.0153 H   0  0  0  0  0  0  0  0  0  0  0  0
   44.9339   36.7262   42.7924 H   0  0  0  0  0  0  0  0  0  0  0  0
   45.7598   33.2192   46.1786 H   0  0  0  0  0  0  0  0  0  0  0  0
   45.7870   31.3402   38.9281 H   0  0  0  0  0  0  0  0  0  0  0  0
   44.7490   32.6773   39.5918 H   0  0  0  0  0  0  0  0  0  0  0  0
   43.7326   31.5849   37.6152 H   0  0  0  0  0  0  0  0  0  0  0  0
   44.1249   33.3487   37.3544 H   0  0  0  0  0  0  0  0  0  0  0  0
   44.9192   32.6103   35.4251 H   0  0  0  0  0  0  0  0  0  0  0  0
   45.1690   30.9280   36.0541 H   0  0  0  0  0  0  0  0  0  0  0  0
   47.2312   31.3728   36.8576 H   0  0  0  0  0  0  0  0  0  0  0  0
   47.1630   32.5195   35.4388 H   0  0  0  0  0  0  0  0  0  0  0  0
   48.1383   33.5524   37.4287 H   0  0  0  0  0  0  0  0  0  0  0  0
   46.5834   34.3300   36.8894 H   0  0  0  0  0  0  0  0  0  0  0  0
  1  9  1  0
  2  1  2  0
  3  2  1  0
  4  5  1  0
  4  3  2  0
  5  6  2  0
  6  1  1  0
  7 12  2  0
  8  7  1  0
  9  8  2  0
  9 10  1  0
 10 11  2  0
 11 12  1  0
 13 14  1  0
 13  5  1  0
 15 14  1  0
 16 17  1  0
 16 15  1  0
 17 18  1  0
 18 13  1  0
  2 19  1  0
  3 20  1  0
  4 21  1  0
  6 22  1  0
  7 23  1  0
  8 24  1  0
 11 25  1  0
 14 26  1  0
 14 27  1  0
 15 28  1  0
 15 29  1  0
 16 30  1  0
 16 31  1  0
 17 32  1  0
 17 33  1  0
 18 34  1  0
 18 35  1  0
M  ISO  8  19  14  20  14  21  14  22  14  23  14  24  14  25  14  26  13
M  ISO  8  27  13  28  13  29  13  30  13  31  13  32  13  33  13  34  13
M  ISO  1  35  13
M  END
>  <minimizedAffinity>  (1) 
-5.61233234

>  <minimizedRMSD>  (1) 
0.629402399

$$$$
