
     RDKit          3D

 25 27  0  0  0  0  0  0  0  0999 V2000
   46.7100   34.7470   42.0210 C   0  0  0  0  0  0  0  0  0  0  0  0
   47.9510   35.3620   41.9230 C   0  0  0  0  0  0  0  0  0  0  0  0
   48.7140   35.2640   40.7550 C   0  0  0  0  0  0  0  0  0  0  0  0
   48.2120   34.5280   39.6630 C   0  0  0  0  0  0  0  0  0  0  0  0
   46.9760   33.9130   39.7580 C   0  0  0  0  0  0  0  0  0  0  0  0
   46.2580   34.0430   40.9400 C   0  0  0  0  0  0  0  0  0  0  0  0
   44.4740   35.9740   44.7720 C   0  0  0  0  0  0  0  0  0  0  0  0
   45.1120   35.9390   43.5300 C   0  0  0  0  0  0  0  0  0  0  0  0
   45.9860   34.9000   43.2670 C   0  0  0  0  0  0  0  0  0  0  0  0
   46.1960   33.9490   44.2220 N   0  0  0  0  0  0  0  0  0  0  0  0
   45.5610   34.0070   45.4260 C   0  0  0  0  0  0  0  0  0  0  0  0
   44.7140   35.0020   45.6980 N   0  0  0  0  0  0  0  0  0  0  0  0
   46.4240   33.1430   38.6480 C   0  0  0  0  0  0  0  0  0  0  0  0
   45.5950   32.0840   38.7020 N   0  0  0  0  0  0  0  0  0  0  0  0
   45.3410   31.6890   37.4780 O   0  0  0  0  0  0  0  0  0  0  0  0
   45.9690   32.4430   36.6050 C   0  0  0  0  0  0  0  0  0  0  0  0
   46.6600   33.3700   37.3330 N   0  0  0  0  0  0  0  0  0  0  0  0
   48.3401   35.9353   42.7774 H   0  0  0  0  0  0  0  0  0  0  0  0
   49.6956   35.7562   40.6894 H   0  0  0  0  0  0  0  0  0  0  0  0
   48.8009   34.4427   38.7379 H   0  0  0  0  0  0  0  0  0  0  0  0
   45.2750   33.5542   41.0097 H   0  0  0  0  0  0  0  0  0  0  0  0
   43.7741   36.7901   45.0045 H   0  0  0  0  0  0  0  0  0  0  0  0
   44.9236   36.7198   42.7784 H   0  0  0  0  0  0  0  0  0  0  0  0
   45.7478   33.2278   46.1797 H   0  0  0  0  0  0  0  0  0  0  0  0
   45.9438   32.3475   35.5094 H   0  0  0  0  0  0  0  0  0  0  0  0
  1  9  1  0
  2  1  2  0
  3  2  1  0
  4  5  1  0
  4  3  2  0
  5  6  2  0
  6  1  1  0
  7 12  2  0
  8  7  1  0
  9  8  2  0
  9 10  1  0
 10 11  2  0
 11 12  1  0
 13 14  2  0
 13  5  1  0
 15 14  1  0
 16 17  2  0
 16 15  1  0
 17 13  1  0
  2 18  1  0
  3 19  1  0
  4 20  1  0
  6 21  1  0
  7 22  1  0
  8 23  1  0
 11 24  1  0
 16 25  1  0
M  ISO  8  18  14  19  14  20  14  21  14  22  14  23  14  24  14  25  14
M  END
>  <minimizedAffinity>  (1) 
-5.49734354

>  <minimizedRMSD>  (1) 
0.731105208

$$$$
