
     RDKit          3D

 26 27  0  0  0  0  0  0  0  0999 V2000
   46.7780   34.7950   42.1090 C   0  0  0  0  0  0  0  0  0  0  0  0
   47.9860   35.4420   42.0180 C   0  0  0  0  0  0  0  0  0  0  0  0
   48.7720   35.3810   40.8720 C   0  0  0  0  0  0  0  0  0  0  0  0
   48.3160   34.6320   39.7700 C   0  0  0  0  0  0  0  0  0  0  0  0
   47.0990   33.9750   39.8490 C   0  0  0  0  0  0  0  0  0  0  0  0
   46.3680   34.0760   41.0170 C   0  0  0  0  0  0  0  0  0  0  0  0
   44.4650   35.9290   44.8330 C   0  0  0  0  0  0  0  0  0  0  0  0
   45.1220   35.9410   43.5890 C   0  0  0  0  0  0  0  0  0  0  0  0
   46.0220   34.9130   43.3530 C   0  0  0  0  0  0  0  0  0  0  0  0
   46.2420   33.9480   44.2960 N   0  0  0  0  0  0  0  0  0  0  0  0
   45.5730   33.9940   45.4810 C   0  0  0  0  0  0  0  0  0  0  0  0
   44.7000   34.9680   45.7420 N   0  0  0  0  0  0  0  0  0  0  0  0
   46.5500   33.1710   38.7410 C   0  0  0  0  0  0  0  0  0  0  0  0
   47.2360   33.5720   37.4390 C   0  0  0  0  0  0  0  0  0  0  0  0
   48.3432   36.0268   42.8784 H   0  0  0  0  0  0  0  0  0  0  0  0
   49.7354   35.9099   40.8271 H   0  0  0  0  0  0  0  0  0  0  0  0
   48.9214   34.5692   38.8538 H   0  0  0  0  0  0  0  0  0  0  0  0
   45.4035   33.5501   41.0734 H   0  0  0  0  0  0  0  0  0  0  0  0
   43.7423   36.7247   45.0668 H   0  0  0  0  0  0  0  0  0  0  0  0
   44.9315   36.7256   42.8420 H   0  0  0  0  0  0  0  0  0  0  0  0
   45.7556   33.2148   46.2357 H   0  0  0  0  0  0  0  0  0  0  0  0
   46.7296   32.1037   38.9374 H   0  0  0  0  0  0  0  0  0  0  0  0
   45.4678   33.3493   38.6574 H   0  0  0  0  0  0  0  0  0  0  0  0
   48.1652   34.1151   37.6663 H   0  0  0  0  0  0  0  0  0  0  0  0
   47.4720   32.6696   36.8559 H   0  0  0  0  0  0  0  0  0  0  0  0
   46.5655   34.2204   36.8559 H   0  0  0  0  0  0  0  0  0  0  0  0
  1  9  1  0
  2  1  2  0
  3  2  1  0
  4  5  1  0
  4  3  2  0
  5  6  2  0
  6  1  1  0
  7 12  2  0
  8  7  1  0
  9  8  2  0
  9 10  1  0
 10 11  2  0
 11 12  1  0
 13  5  1  0
 14 13  1  0
  2 15  1  0
  3 16  1  0
  4 17  1  0
  6 18  1  0
  7 19  1  0
  8 20  1  0
 11 21  1  0
 13 22  1  0
 13 23  1  0
 14 24  1  0
 14 25  1  0
 14 26  1  0
M  ISO  8  15  14  16  14  17  14  18  14  19  14  20  14  21  14  22   8
M  ISO  4  23   8  24   8  25   8  26   8
M  END
>  <minimizedAffinity>  (1) 
-5.1692338

>  <minimizedRMSD>  (1) 
0.231565014

$$$$
