
     RDKit          3D

 29 30  0  0  0  0  0  0  0  0999 V2000
   46.7590   34.7600   42.0120 C   0  0  0  0  0  0  0  0  0  0  0  0
   47.9590   35.4110   41.9060 C   0  0  0  0  0  0  0  0  0  0  0  0
   48.7240   35.3130   40.7300 C   0  0  0  0  0  0  0  0  0  0  0  0
   48.2600   34.5440   39.6610 C   0  0  0  0  0  0  0  0  0  0  0  0
   47.0330   33.8790   39.7710 C   0  0  0  0  0  0  0  0  0  0  0  0
   46.3110   34.0030   40.9450 C   0  0  0  0  0  0  0  0  0  0  0  0
   44.4760   35.9660   44.7600 C   0  0  0  0  0  0  0  0  0  0  0  0
   45.1310   35.9450   43.5070 C   0  0  0  0  0  0  0  0  0  0  0  0
   46.0110   34.9060   43.2680 C   0  0  0  0  0  0  0  0  0  0  0  0
   46.2190   33.9550   44.2210 N   0  0  0  0  0  0  0  0  0  0  0  0
   45.5670   34.0130   45.4190 C   0  0  0  0  0  0  0  0  0  0  0  0
   44.7110   35.0050   45.6750 N   0  0  0  0  0  0  0  0  0  0  0  0
   46.5370   33.0660   38.6440 C   0  0  0  0  0  0  0  0  0  0  0  0
   47.1610   33.5880   37.3460 C   0  0  0  0  0  0  0  0  0  0  0  0
   45.0570   32.9900   38.5260 C   0  0  0  0  0  0  0  0  0  0  0  0
   48.3277   36.0157   42.7477 H   0  0  0  0  0  0  0  0  0  0  0  0
   49.6858   35.8411   40.6525 H   0  0  0  0  0  0  0  0  0  0  0  0
   48.8542   34.4613   38.7390 H   0  0  0  0  0  0  0  0  0  0  0  0
   45.3467   33.4810   41.0325 H   0  0  0  0  0  0  0  0  0  0  0  0
   43.7673   36.7752   44.9902 H   0  0  0  0  0  0  0  0  0  0  0  0
   44.9476   36.7243   42.7526 H   0  0  0  0  0  0  0  0  0  0  0  0
   45.7480   33.2377   46.1780 H   0  0  0  0  0  0  0  0  0  0  0  0
   46.8476   32.0300   38.8447 H   0  0  0  0  0  0  0  0  0  0  0  0
   47.9844   34.2768   37.5861 H   0  0  0  0  0  0  0  0  0  0  0  0
   47.5496   32.7421   36.7599 H   0  0  0  0  0  0  0  0  0  0  0  0
   46.3971   34.1199   36.7599 H   0  0  0  0  0  0  0  0  0  0  0  0
   44.6098   32.9670   39.5307 H   0  0  0  0  0  0  0  0  0  0  0  0
   44.6870   33.8703   37.9800 H   0  0  0  0  0  0  0  0  0  0  0  0
   44.7791   32.0764   37.9800 H   0  0  0  0  0  0  0  0  0  0  0  0
  1  9  1  0
  2  1  2  0
  3  2  1  0
  4  5  1  0
  4  3  2  0
  5  6  2  0
  6  1  1  0
  7 12  2  0
  8  7  1  0
  9  8  2  0
  9 10  1  0
 10 11  2  0
 11 12  1  0
 13  5  1  0
 14 13  1  0
 15 13  1  0
  2 16  1  0
  3 17  1  0
  4 18  1  0
  6 19  1  0
  7 20  1  0
  8 21  1  0
 11 22  1  0
 13 23  1  0
 14 24  1  0
 14 25  1  0
 14 26  1  0
 15 27  1  0
 15 28  1  0
 15 29  1  0
M  ISO  8  16  14  17  14  18  14  19  14  20  14  21  14  22  14  23   8
M  ISO  6  24   8  25   8  26   8  27   8  28   8  29   8
M  END
>  <minimizedAffinity>  (1) 
-5.30992508

>  <minimizedRMSD>  (1) 
0.536034167

$$$$
