
     RDKit          3D

 23 24  0  0  0  0  0  0  0  0999 V2000
   46.7000   34.7430   42.0400 C   0  0  0  0  0  0  0  0  0  0  0  0
   47.9180   35.3580   41.9110 C   0  0  0  0  0  0  0  0  0  0  0  0
   48.6700   35.2480   40.7390 C   0  0  0  0  0  0  0  0  0  0  0  0
   48.1780   34.4950   39.6640 C   0  0  0  0  0  0  0  0  0  0  0  0
   46.9360   33.8640   39.7870 C   0  0  0  0  0  0  0  0  0  0  0  0
   46.2320   34.0060   40.9720 C   0  0  0  0  0  0  0  0  0  0  0  0
   44.4710   35.9810   44.8020 C   0  0  0  0  0  0  0  0  0  0  0  0
   45.1060   35.9570   43.5410 C   0  0  0  0  0  0  0  0  0  0  0  0
   45.9750   34.9030   43.2910 C   0  0  0  0  0  0  0  0  0  0  0  0
   46.1820   33.9530   44.2450 N   0  0  0  0  0  0  0  0  0  0  0  0
   45.5440   34.0220   45.4480 C   0  0  0  0  0  0  0  0  0  0  0  0
   44.7010   35.0240   45.7170 N   0  0  0  0  0  0  0  0  0  0  0  0
   46.3180   33.0420   38.7120 C   0  0  0  0  0  0  0  0  0  0  0  0
   48.3122   35.9515   42.7491 H   0  0  0  0  0  0  0  0  0  0  0  0
   49.6452   35.7507   40.6599 H   0  0  0  0  0  0  0  0  0  0  0  0
   48.7611   34.4016   38.7359 H   0  0  0  0  0  0  0  0  0  0  0  0
   45.2555   33.5084   41.0653 H   0  0  0  0  0  0  0  0  0  0  0  0
   43.7747   36.7987   45.0399 H   0  0  0  0  0  0  0  0  0  0  0  0
   44.9205   36.7388   42.7897 H   0  0  0  0  0  0  0  0  0  0  0  0
   45.7249   33.2449   46.2052 H   0  0  0  0  0  0  0  0  0  0  0  0
   45.7153   32.2404   39.1640 H   0  0  0  0  0  0  0  0  0  0  0  0
   45.6730   33.6786   38.0886 H   0  0  0  0  0  0  0  0  0  0  0  0
   47.1087   32.5992   38.0886 H   0  0  0  0  0  0  0  0  0  0  0  0
  1  9  1  0
  2  1  2  0
  3  2  1  0
  4  5  1  0
  4  3  2  0
  5  6  2  0
  6  1  1  0
  7 12  2  0
  8  7  1  0
  9  8  2  0
  9 10  1  0
 10 11  2  0
 11 12  1  0
 13  5  1  0
  2 14  1  0
  3 15  1  0
  4 16  1  0
  6 17  1  0
  7 18  1  0
  8 19  1  0
 11 20  1  0
 13 21  1  0
 13 22  1  0
 13 23  1  0
M  ISO  8  14  14  15  14  16  14  17  14  18  14  19  14  20  14  21   8
M  ISO  2  22   8  23   8
M  END
>  <minimizedAffinity>  (1) 
-5.16204071

>  <minimizedRMSD>  (1) 
0.0315483846

$$$$
