
     RDKit          3D

 22 23  0  0  0  0  0  0  0  0999 V2000
   46.6920   34.7170   41.9970 C   0  0  0  0  0  0  0  0  0  0  0  0
   47.9090   35.3450   41.8720 C   0  0  0  0  0  0  0  0  0  0  0  0
   48.6640   35.2370   40.6950 C   0  0  0  0  0  0  0  0  0  0  0  0
   48.1570   34.4700   39.6260 C   0  0  0  0  0  0  0  0  0  0  0  0
   46.9330   33.8460   39.7660 C   0  0  0  0  0  0  0  0  0  0  0  0
   46.2240   33.9780   40.9430 C   0  0  0  0  0  0  0  0  0  0  0  0
   44.4760   35.9780   44.7730 C   0  0  0  0  0  0  0  0  0  0  0  0
   45.1080   35.9240   43.5310 C   0  0  0  0  0  0  0  0  0  0  0  0
   45.9750   34.8820   43.2550 C   0  0  0  0  0  0  0  0  0  0  0  0
   46.1790   33.9410   44.2160 N   0  0  0  0  0  0  0  0  0  0  0  0
   45.5450   34.0230   45.4270 C   0  0  0  0  0  0  0  0  0  0  0  0
   44.7120   35.0250   45.6890 N   0  0  0  0  0  0  0  0  0  0  0  0
   46.4540   33.0650   38.6320 C   0  0  0  0  0  0  0  0  0  0  0  0
   46.7760   33.4500   37.4850 O   0  0  0  0  0  0  0  0  0  0  0  0
   48.2972   35.9426   42.7100 H   0  0  0  0  0  0  0  0  0  0  0  0
   49.6368   35.7429   40.6072 H   0  0  0  0  0  0  0  0  0  0  0  0
   48.7294   34.3699   38.6920 H   0  0  0  0  0  0  0  0  0  0  0  0
   45.2513   33.4732   41.0376 H   0  0  0  0  0  0  0  0  0  0  0  0
   43.7839   36.8016   45.0023 H   0  0  0  0  0  0  0  0  0  0  0  0
   44.9188   36.7029   42.7777 H   0  0  0  0  0  0  0  0  0  0  0  0
   45.7269   33.2521   46.1903 H   0  0  0  0  0  0  0  0  0  0  0  0
   45.8321   32.1697   38.7788 H   0  0  0  0  0  0  0  0  0  0  0  0
  1  9  1  0
  2  1  2  0
  3  2  1  0
  4  5  1  0
  4  3  2  0
  5  6  2  0
  6  1  1  0
  7 12  2  0
  8  7  1  0
  9  8  2  0
  9 10  1  0
 10 11  2  0
 11 12  1  0
 13  5  1  0
 14 13  2  0
  2 15  1  0
  3 16  1  0
  4 17  1  0
  6 18  1  0
  7 19  1  0
  8 20  1  0
 11 21  1  0
 13 22  1  0
M  ISO  8  15  14  16  14  17  14  18  14  19  14  20  14  21  14  22   6
M  END
>  <minimizedAffinity>  (1) 
-5.08831549

>  <minimizedRMSD>  (1) 
0.219652742

$$$$
