
     RDKit          3D

 34 37  0  0  1  0  0  0  0  0999 V2000
   48.1900   33.2860   39.2060 C   0  0  2  0  0  0  0  0  0  0  0  0
   48.3080   34.0680   37.8830 C   0  0  0  0  0  0  0  0  0  0  0  0
   48.0720   32.5730   37.8820 C   0  0  1  0  0  0  0  0  0  0  0  0
   45.6900   34.0400   41.7200 N   0  0  0  0  0  0  0  0  0  0  0  0
   44.8880   33.8420   40.6410 C   0  0  0  0  0  0  0  0  0  0  0  0
   45.6270   33.5400   39.5720 N   0  0  0  0  0  0  0  0  0  0  0  0
   46.9390   33.5500   39.9940 C   0  0  0  0  0  0  0  0  0  0  0  0
   46.8990   33.8530   41.2760 N   0  0  0  0  0  0  0  0  0  0  0  0
   44.7850   35.6650   43.2570 C   0  0  0  0  0  0  0  0  0  0  0  0
   45.3900   34.3790   43.0650 C   0  0  0  0  0  0  0  0  0  0  0  0
   45.6220   33.6120   44.1590 C   0  0  0  0  0  0  0  0  0  0  0  0
   45.2610   34.1210   45.3720 N   0  0  0  0  0  0  0  0  0  0  0  0
   44.6990   35.3200   45.5300 C   0  0  0  0  0  0  0  0  0  0  0  0
   44.4620   36.0950   44.4590 N   0  0  0  0  0  0  0  0  0  0  0  0
   49.1150   31.6250   37.5470 C   0  0  0  0  0  0  0  0  0  0  0  0
   48.8120   30.3880   37.5410 O   0  0  0  0  0  0  0  0  0  0  0  0
   50.3910   32.0190   37.2370 O   0  0  0  0  0  0  0  0  0  0  0  0
   53.4660   31.6110   38.8330 N   0  0  0  0  0  0  0  0  0  0  0  0
   52.7070   31.9010   37.7610 N   0  0  0  0  0  0  0  0  0  0  0  0
   51.4090   31.7830   38.1330 C   0  0  0  0  0  0  0  0  0  0  0  0
   51.3360   31.4160   39.4500 C   0  0  0  0  0  0  0  0  0  0  0  0
   52.6620   31.3150   39.8660 C   0  0  0  0  0  0  0  0  0  0  0  0
   53.0590   30.9630   41.1540 O   0  0  0  0  0  0  0  0  0  0  0  0
   48.8078   33.1302   40.1027 H   0  0  0  0  0  0  0  0  0  0  0  0
   47.5057   34.7540   37.5735 H   0  0  0  0  0  0  0  0  0  0  0  0
   49.0530   34.7431   37.4366 H   0  0  0  0  0  0  0  0  0  0  0  0
   47.3259   31.9427   37.3759 H   0  0  0  0  0  0  0  0  0  0  0  0
   43.7907   33.9193   40.6479 H   0  0  0  0  0  0  0  0  0  0  0  0
   44.5871   36.3041   42.3839 H   0  0  0  0  0  0  0  0  0  0  0  0
   46.0837   32.6174   44.0716 H   0  0  0  0  0  0  0  0  0  0  0  0
   44.4299   35.6738   46.5362 H   0  0  0  0  0  0  0  0  0  0  0  0
   54.4957   31.6154   38.8571 H   0  0  0  0  0  0  0  0  0  0  0  0
   50.4298   31.2397   40.0482 H   0  0  0  0  0  0  0  0  0  0  0  0
   52.3783   30.7634   41.8446 H   0  0  0  0  0  0  0  0  0  0  0  0
  1  7  1  0
  2  1  1  0
  3  2  1  0
  3  1  1  0
  4 10  1  0
  5  4  1  0
  6  7  1  0
  6  5  2  0
  7  8  2  0
  8  4  1  0
  9 14  2  0
 10  9  1  0
 10 11  2  0
 11 12  1  0
 12 13  2  0
 14 13  1  0
 15  3  1  0
 16 15  2  0
 17 15  1  0
 17 20  1  0
 18 22  1  0
 19 20  2  0
 19 18  1  0
 20 21  1  0
 21 22  2  0
 22 23  1  0
  1 24  1  1
  2 25  1  0
  2 26  1  0
  3 27  1  1
  5 28  1  0
  9 29  1  0
 11 30  1  0
 13 31  1  0
 18 32  1  0
 21 33  1  0
 23 34  1  0
M  ISO  8  24  13  25  13  26  13  27  13  28  14  29  14  30  14  31  14
M  ISO  3  32   9  33  14  34   3
M  END
>  <minimizedAffinity>  (1) 
-4.94284391

>  <minimizedRMSD>  (1) 
0.0367857963

$$$$
