
     RDKit          3D

 45 47  0  0  0  0  0  0  0  0999 V2000
   46.4850   33.0080   38.5830 C   0  0  0  0  0  0  0  0  0  0  0  0
   46.7530   34.7040   41.9510 C   0  0  0  0  0  0  0  0  0  0  0  0
   47.9560   35.3540   41.8200 C   0  0  0  0  0  0  0  0  0  0  0  0
   48.6900   35.2400   40.6310 C   0  0  0  0  0  0  0  0  0  0  0  0
   48.1930   34.4690   39.5890 C   0  0  0  0  0  0  0  0  0  0  0  0
   46.9750   33.8090   39.7180 C   0  0  0  0  0  0  0  0  0  0  0  0
   46.3050   33.9580   40.9000 C   0  0  0  0  0  0  0  0  0  0  0  0
   44.4980   35.9530   44.7070 C   0  0  0  0  0  0  0  0  0  0  0  0
   45.1370   35.9190   43.4530 C   0  0  0  0  0  0  0  0  0  0  0  0
   46.0260   34.8540   43.2130 C   0  0  0  0  0  0  0  0  0  0  0  0
   46.2190   33.9350   44.1750 N   0  0  0  0  0  0  0  0  0  0  0  0
   45.5750   34.0110   45.3760 C   0  0  0  0  0  0  0  0  0  0  0  0
   44.7310   35.0030   45.6330 N   0  0  0  0  0  0  0  0  0  0  0  0
   44.9840   32.7320   38.6900 C   0  0  0  0  0  0  0  0  0  0  0  0
   47.1970   31.6470   38.7130 C   0  0  0  0  0  0  0  0  0  0  0  0
   46.7360   33.6240   37.2500 C   0  0  0  0  0  0  0  0  0  0  0  0
   46.5630   32.6890   36.1360 N   0  0  0  0  0  0  0  0  0  0  0  0
   45.3610   32.1580   35.7860 C   0  0  0  0  0  0  0  0  0  0  0  0
   45.2230   31.2810   34.7320 C   0  0  0  0  0  0  0  0  0  0  0  0
   43.9090   30.7090   34.3620 C   0  0  0  0  0  0  0  0  0  0  0  0
   46.3230   30.9110   33.9860 C   0  0  0  0  0  0  0  0  0  0  0  0
   46.1910   30.1090   33.0210 O   0  0  0  0  0  0  0  0  0  0  0  0
   47.5090   31.4410   34.3370 N   0  0  0  0  0  0  0  0  0  0  0  0
   47.5900   32.2900   35.3720 C   0  0  0  0  0  0  0  0  0  0  0  0
   48.7540   32.7040   35.5840 O   0  0  0  0  0  0  0  0  0  0  0  0
   48.3438   35.9645   42.6488 H   0  0  0  0  0  0  0  0  0  0  0  0
   49.6542   35.7585   40.5243 H   0  0  0  0  0  0  0  0  0  0  0  0
   48.7663   34.3792   38.6545 H   0  0  0  0  0  0  0  0  0  0  0  0
   45.3400   33.4419   41.0114 H   0  0  0  0  0  0  0  0  0  0  0  0
   43.7965   36.7692   44.9344 H   0  0  0  0  0  0  0  0  0  0  0  0
   44.9496   36.6918   42.6929 H   0  0  0  0  0  0  0  0  0  0  0  0
   45.7575   33.2411   46.1401 H   0  0  0  0  0  0  0  0  0  0  0  0
   44.6956   32.6790   39.7502 H   0  0  0  0  0  0  0  0  0  0  0  0
   44.4262   33.5426   38.1984 H   0  0  0  0  0  0  0  0  0  0  0  0
   44.7510   31.7760   38.1984 H   0  0  0  0  0  0  0  0  0  0  0  0
   47.3258   31.4008   39.7773 H   0  0  0  0  0  0  0  0  0  0  0  0
   46.5908   30.8682   38.2272 H   0  0  0  0  0  0  0  0  0  0  0  0
   48.1825   31.7008   38.2272 H   0  0  0  0  0  0  0  0  0  0  0  0
   46.0351   34.4610   37.1150 H   0  0  0  0  0  0  0  0  0  0  0  0
   47.7851   33.9545   37.2370 H   0  0  0  0  0  0  0  0  0  0  0  0
   44.4681   32.4382   36.3641 H   0  0  0  0  0  0  0  0  0  0  0  0
   43.3458   30.4638   35.2745 H   0  0  0  0  0  0  0  0  0  0  0  0
   43.3439   31.4425   33.7683 H   0  0  0  0  0  0  0  0  0  0  0  0
   44.0608   29.7955   33.7683 H   0  0  0  0  0  0  0  0  0  0  0  0
   48.3579   31.1937   33.8087 H   0  0  0  0  0  0  0  0  0  0  0  0
  1 14  1  0
  1 15  1  0
  1  6  1  0
  2 10  1  0
  3  2  2  0
  4  3  1  0
  5  6  1  0
  5  4  2  0
  6  7  2  0
  7  2  1  0
  8 13  2  0
  9  8  1  0
 10  9  2  0
 10 11  1  0
 11 12  2  0
 12 13  1  0
 16  1  1  0
 17 16  1  0
 18 17  1  0
 19 18  2  0
 20 19  1  0
 21 23  1  0
 21 19  1  0
 22 21  2  0
 23 24  1  0
 24 25  2  0
 24 17  1  0
  3 26  1  0
  4 27  1  0
  5 28  1  0
  7 29  1  0
  8 30  1  0
  9 31  1  0
 12 32  1  0
 14 33  1  0
 14 34  1  0
 14 35  1  0
 15 36  1  0
 15 37  1  0
 15 38  1  0
 16 39  1  0
 16 40  1  0
 18 41  1  0
 20 42  1  0
 20 43  1  0
 20 44  1  0
 23 45  1  0
M  ISO  8  26  14  27  14  28  14  29  14  30  14  31  14  32  14  33   8
M  ISO  8  34   8  35   8  36   8  37   8  38   8  39   8  40   8  41  14
M  ISO  4  42   8  43   8  44   8  45   9
M  END
>  <minimizedAffinity>  (1) 
-6.39885235

>  <minimizedRMSD>  (1) 
0.334976494

$$$$
