
     RDKit          3D

 46 49  0  0  0  0  0  0  0  0999 V2000
   46.6590   33.1310   38.6090 C   0  0  0  0  0  0  0  0  0  0  0  0
   46.8170   34.7800   42.0210 C   0  0  0  0  0  0  0  0  0  0  0  0
   48.0140   35.4480   41.9300 C   0  0  0  0  0  0  0  0  0  0  0  0
   48.7810   35.3650   40.7620 C   0  0  0  0  0  0  0  0  0  0  0  0
   48.3290   34.6070   39.6930 C   0  0  0  0  0  0  0  0  0  0  0  0
   47.1180   33.9310   39.7800 C   0  0  0  0  0  0  0  0  0  0  0  0
   46.3990   34.0430   40.9500 C   0  0  0  0  0  0  0  0  0  0  0  0
   44.4830   35.9350   44.7480 C   0  0  0  0  0  0  0  0  0  0  0  0
   45.1550   35.9200   43.5190 C   0  0  0  0  0  0  0  0  0  0  0  0
   46.0590   34.9010   43.2650 C   0  0  0  0  0  0  0  0  0  0  0  0
   46.2600   33.9550   44.2220 N   0  0  0  0  0  0  0  0  0  0  0  0
   45.5940   33.9990   45.4010 C   0  0  0  0  0  0  0  0  0  0  0  0
   44.7190   34.9690   45.6670 N   0  0  0  0  0  0  0  0  0  0  0  0
   45.1260   33.0160   38.5980 C   0  0  0  0  0  0  0  0  0  0  0  0
   47.2090   31.7280   38.8470 C   0  0  0  0  0  0  0  0  0  0  0  0
   47.0940   33.6790   37.3110 C   0  0  0  0  0  0  0  0  0  0  0  0
   47.3870   32.7470   36.2290 C   0  0  0  0  0  0  0  0  0  0  0  0
   48.7210   32.4870   35.8780 C   0  0  0  0  0  0  0  0  0  0  0  0
   48.7910   31.6280   34.8590 N   0  0  0  0  0  0  0  0  0  0  0  0
   47.5440   31.2760   34.4840 C   0  0  0  0  0  0  0  0  0  0  0  0
   46.9700   30.4450   33.5290 C   0  0  0  0  0  0  0  0  0  0  0  0
   45.5820   30.3190   33.4360 C   0  0  0  0  0  0  0  0  0  0  0  0
   44.7730   31.0270   34.3020 C   0  0  0  0  0  0  0  0  0  0  0  0
   45.3300   31.8440   35.2410 C   0  0  0  0  0  0  0  0  0  0  0  0
   46.7000   31.9660   35.3280 C   0  0  0  0  0  0  0  0  0  0  0  0
   48.3711   36.0504   42.7783 H   0  0  0  0  0  0  0  0  0  0  0  0
   49.7397   35.8998   40.6926 H   0  0  0  0  0  0  0  0  0  0  0  0
   48.9301   34.5405   38.7741 H   0  0  0  0  0  0  0  0  0  0  0  0
   45.4389   33.5114   41.0253 H   0  0  0  0  0  0  0  0  0  0  0  0
   43.7605   36.7349   44.9674 H   0  0  0  0  0  0  0  0  0  0  0  0
   44.9685   36.7029   42.7692 H   0  0  0  0  0  0  0  0  0  0  0  0
   45.7790   33.2187   46.1539 H   0  0  0  0  0  0  0  0  0  0  0  0
   44.7530   32.9880   39.6324 H   0  0  0  0  0  0  0  0  0  0  0  0
   44.6969   33.8845   38.0768 H   0  0  0  0  0  0  0  0  0  0  0  0
   44.8313   32.0932   38.0768 H   0  0  0  0  0  0  0  0  0  0  0  0
   47.2821   31.5414   39.9286 H   0  0  0  0  0  0  0  0  0  0  0  0
   46.5345   30.9877   38.3920 H   0  0  0  0  0  0  0  0  0  0  0  0
   48.2069   31.6433   38.3920 H   0  0  0  0  0  0  0  0  0  0  0  0
   46.2963   34.3485   36.9567 H   0  0  0  0  0  0  0  0  0  0  0  0
   48.0619   34.1544   37.5284 H   0  0  0  0  0  0  0  0  0  0  0  0
   49.5940   32.9327   36.3772 H   0  0  0  0  0  0  0  0  0  0  0  0
   49.6614   31.2870   34.4264 H   0  0  0  0  0  0  0  0  0  0  0  0
   47.6153   29.8809   32.8395 H   0  0  0  0  0  0  0  0  0  0  0  0
   45.1361   29.6594   32.6770 H   0  0  0  0  0  0  0  0  0  0  0  0
   43.6792   30.9321   34.2346 H   0  0  0  0  0  0  0  0  0  0  0  0
   44.6842   32.4071   35.9308 H   0  0  0  0  0  0  0  0  0  0  0  0
  1 15  1  0
  1  6  1  0
  2 10  1  0
  3  2  2  0
  4  3  1  0
  5  6  1  0
  5  4  2  0
  6  7  2  0
  7  2  1  0
  8 13  2  0
  9  8  1  0
 10  9  2  0
 10 11  1  0
 11 12  2  0
 12 13  1  0
 14  1  1  0
 16  1  1  0
 17 16  1  0
 18 17  2  0
 19 18  1  0
 20 19  1  0
 20 25  2  0
 21 20  1  0
 22 21  2  0
 22 23  1  0
 23 24  2  0
 24 25  1  0
 25 17  1  0
  3 26  1  0
  4 27  1  0
  5 28  1  0
  7 29  1  0
  8 30  1  0
  9 31  1  0
 12 32  1  0
 14 33  1  0
 14 34  1  0
 14 35  1  0
 15 36  1  0
 15 37  1  0
 15 38  1  0
 16 39  1  0
 16 40  1  0
 18 41  1  0
 19 42  1  0
 21 43  1  0
 22 44  1  0
 23 45  1  0
 24 46  1  0
M  ISO  8  26  14  27  14  28  14  29  14  30  14  31  14  32  14  33   8
M  ISO  8  34   8  35   8  36   8  37   8  38   8  39   8  40   8  41  14
M  ISO  5  42   9  43  14  44  14  45  14  46  14
M  END
>  <minimizedAffinity>  (1) 
-6.47142315

>  <minimizedRMSD>  (1) 
1.0123682

$$$$
