
     RDKit          3D

 42 44  0  0  0  0  0  0  0  0999 V2000
   46.5980   33.0950   38.5680 C   0  0  0  0  0  0  0  0  0  0  0  0
   46.8110   34.7290   41.9790 C   0  0  0  0  0  0  0  0  0  0  0  0
   48.0080   35.3910   41.8840 C   0  0  0  0  0  0  0  0  0  0  0  0
   48.7570   35.3080   40.7030 C   0  0  0  0  0  0  0  0  0  0  0  0
   48.2850   34.5550   39.6310 C   0  0  0  0  0  0  0  0  0  0  0  0
   47.0720   33.8840   39.7280 C   0  0  0  0  0  0  0  0  0  0  0  0
   46.3820   34.0010   40.9080 C   0  0  0  0  0  0  0  0  0  0  0  0
   44.4960   35.9190   44.7100 C   0  0  0  0  0  0  0  0  0  0  0  0
   45.1580   35.8950   43.4720 C   0  0  0  0  0  0  0  0  0  0  0  0
   46.0690   34.8500   43.2350 C   0  0  0  0  0  0  0  0  0  0  0  0
   46.2660   33.9300   44.1920 N   0  0  0  0  0  0  0  0  0  0  0  0
   45.6040   33.9900   45.3820 C   0  0  0  0  0  0  0  0  0  0  0  0
   44.7390   34.9640   45.6340 N   0  0  0  0  0  0  0  0  0  0  0  0
   45.0740   32.9540   38.5750 C   0  0  0  0  0  0  0  0  0  0  0  0
   47.1770   31.6890   38.7840 C   0  0  0  0  0  0  0  0  0  0  0  0
   47.0060   33.6620   37.2550 C   0  0  0  0  0  0  0  0  0  0  0  0
   46.8100   32.7420   36.1560 N   0  0  0  0  0  0  0  0  0  0  0  0
   45.5760   32.4280   35.6680 C   0  0  0  0  0  0  0  0  0  0  0  0
   45.3100   31.5650   34.6280 C   0  0  0  0  0  0  0  0  0  0  0  0
   46.3850   30.9570   34.0170 C   0  0  0  0  0  0  0  0  0  0  0  0
   46.2170   30.1600   33.0640 O   0  0  0  0  0  0  0  0  0  0  0  0
   47.6140   31.2450   34.4730 N   0  0  0  0  0  0  0  0  0  0  0  0
   47.7890   32.1000   35.4950 C   0  0  0  0  0  0  0  0  0  0  0  0
   48.9850   32.2910   35.8310 O   0  0  0  0  0  0  0  0  0  0  0  0
   48.3789   35.9852   42.7322 H   0  0  0  0  0  0  0  0  0  0  0  0
   49.7178   35.8376   40.6226 H   0  0  0  0  0  0  0  0  0  0  0  0
   48.8743   34.4911   38.7043 H   0  0  0  0  0  0  0  0  0  0  0  0
   45.4207   33.4737   40.9962 H   0  0  0  0  0  0  0  0  0  0  0  0
   43.7750   36.7204   44.9288 H   0  0  0  0  0  0  0  0  0  0  0  0
   44.9703   36.6681   42.7124 H   0  0  0  0  0  0  0  0  0  0  0  0
   45.7897   33.2195   46.1448 H   0  0  0  0  0  0  0  0  0  0  0  0
   44.7136   32.9207   39.6138 H   0  0  0  0  0  0  0  0  0  0  0  0
   44.6238   33.8143   38.0581 H   0  0  0  0  0  0  0  0  0  0  0  0
   44.7893   32.0257   38.0581 H   0  0  0  0  0  0  0  0  0  0  0  0
   47.2597   31.4882   39.8624 H   0  0  0  0  0  0  0  0  0  0  0  0
   46.5125   30.9439   38.3222 H   0  0  0  0  0  0  0  0  0  0  0  0
   48.1735   31.6279   38.3222 H   0  0  0  0  0  0  0  0  0  0  0  0
   46.4113   34.5675   37.0643 H   0  0  0  0  0  0  0  0  0  0  0  0
   48.0823   33.8817   37.3119 H   0  0  0  0  0  0  0  0  0  0  0  0
   44.7121   32.9090   36.1501 H   0  0  0  0  0  0  0  0  0  0  0  0
   44.2792   31.3687   34.2979 H   0  0  0  0  0  0  0  0  0  0  0  0
   48.4347   30.8045   34.0334 H   0  0  0  0  0  0  0  0  0  0  0  0
  1 14  1  0
  1 15  1  0
  1  6  1  0
  2 10  1  0
  3  2  2  0
  4  3  1  0
  5  6  1  0
  5  4  2  0
  6  7  2  0
  7  2  1  0
  8 13  2  0
  9  8  1  0
 10  9  2  0
 10 11  1  0
 11 12  2  0
 12 13  1  0
 16  1  1  0
 17 16  1  0
 18 17  1  0
 19 18  2  0
 20 22  1  0
 20 19  1  0
 21 20  2  0
 22 23  1  0
 23 24  2  0
 23 17  1  0
  3 25  1  0
  4 26  1  0
  5 27  1  0
  7 28  1  0
  8 29  1  0
  9 30  1  0
 12 31  1  0
 14 32  1  0
 14 33  1  0
 14 34  1  0
 15 35  1  0
 15 36  1  0
 15 37  1  0
 16 38  1  0
 16 39  1  0
 18 40  1  0
 19 41  1  0
 22 42  1  0
M  ISO  8  25  14  26  14  27  14  28  14  29  14  30  14  31  14  32   8
M  ISO  8  33   8  34   8  35   8  36   8  37   8  38   8  39   8  40  14
M  ISO  2  41  14  42   9
M  END
>  <minimizedAffinity>  (1) 
-6.20042181

>  <minimizedRMSD>  (1) 
0.358200133

$$$$
