
     RDKit          3D

 35 38  0  0  1  0  0  0  0  0999 V2000
   48.1850   33.2930   39.1940 C   0  0  2  0  0  0  0  0  0  0  0  0
   48.3020   34.0810   37.8740 C   0  0  0  0  0  0  0  0  0  0  0  0
   48.0620   32.5850   37.8670 C   0  0  1  0  0  0  0  0  0  0  0  0
   45.6960   34.0440   41.7180 N   0  0  0  0  0  0  0  0  0  0  0  0
   44.8880   33.8420   40.6390 C   0  0  0  0  0  0  0  0  0  0  0  0
   45.6260   33.5420   39.5680 N   0  0  0  0  0  0  0  0  0  0  0  0
   46.9390   33.5560   39.9880 C   0  0  0  0  0  0  0  0  0  0  0  0
   46.9000   33.8600   41.2690 N   0  0  0  0  0  0  0  0  0  0  0  0
   44.7900   35.6680   43.2550 C   0  0  0  0  0  0  0  0  0  0  0  0
   45.3950   34.3830   43.0600 C   0  0  0  0  0  0  0  0  0  0  0  0
   45.6260   33.6130   44.1550 C   0  0  0  0  0  0  0  0  0  0  0  0
   45.2620   34.1220   45.3670 N   0  0  0  0  0  0  0  0  0  0  0  0
   44.6990   35.3210   45.5260 C   0  0  0  0  0  0  0  0  0  0  0  0
   44.4640   36.0970   44.4560 N   0  0  0  0  0  0  0  0  0  0  0  0
   49.1060   31.6390   37.5240 C   0  0  0  0  0  0  0  0  0  0  0  0
   48.7970   30.4030   37.5080 O   0  0  0  0  0  0  0  0  0  0  0  0
   50.3830   32.0360   37.2160 O   0  0  0  0  0  0  0  0  0  0  0  0
   53.4530   31.6110   38.8210 N   0  0  0  0  0  0  0  0  0  0  0  0
   52.6970   31.9130   37.7480 N   0  0  0  0  0  0  0  0  0  0  0  0
   51.3980   31.7870   38.1150 C   0  0  0  0  0  0  0  0  0  0  0  0
   51.3200   31.4040   39.4270 C   0  0  0  0  0  0  0  0  0  0  0  0
   52.6450   31.3000   39.8460 C   0  0  0  0  0  0  0  0  0  0  0  0
   53.0560   30.9220   41.1620 N   0  0  0  0  0  0  0  0  0  0  0  0
   48.8047   33.1320   40.0884 H   0  0  0  0  0  0  0  0  0  0  0  0
   47.5008   34.7704   37.5694 H   0  0  0  0  0  0  0  0  0  0  0  0
   49.0476   34.7562   37.4289 H   0  0  0  0  0  0  0  0  0  0  0  0
   47.3130   31.9575   37.3618 H   0  0  0  0  0  0  0  0  0  0  0  0
   43.7905   33.9153   40.6493 H   0  0  0  0  0  0  0  0  0  0  0  0
   44.5941   36.3089   42.3827 H   0  0  0  0  0  0  0  0  0  0  0  0
   46.0882   32.6186   44.0678 H   0  0  0  0  0  0  0  0  0  0  0  0
   44.4278   35.6732   46.5322 H   0  0  0  0  0  0  0  0  0  0  0  0
   54.4826   31.6177   38.8499 H   0  0  0  0  0  0  0  0  0  0  0  0
   50.4119   31.2192   40.0196 H   0  0  0  0  0  0  0  0  0  0  0  0
   52.3498   30.7024   41.8789 H   0  0  0  0  0  0  0  0  0  0  0  0
   54.0583   30.8692   41.3933 H   0  0  0  0  0  0  0  0  0  0  0  0
  1  7  1  0
  2  1  1  0
  3  2  1  0
  3  1  1  0
  4 10  1  0
  5  4  1  0
  6  7  1  0
  6  5  2  0
  7  8  2  0
  8  4  1  0
  9 14  2  0
 10  9  1  0
 10 11  2  0
 11 12  1  0
 12 13  2  0
 14 13  1  0
 15  3  1  0
 16 15  2  0
 17 15  1  0
 17 20  1  0
 18 22  1  0
 19 20  2  0
 19 18  1  0
 20 21  1  0
 21 22  2  0
 22 23  1  0
  1 24  1  1
  2 25  1  0
  2 26  1  0
  3 27  1  1
  5 28  1  0
  9 29  1  0
 11 30  1  0
 13 31  1  0
 18 32  1  0
 21 33  1  0
 23 34  1  0
 23 35  1  0
M  ISO  8  24  13  25  13  26  13  27  13  28  14  29  14  30  14  31  14
M  ISO  2  32   9  33  14
M  END
>  <minimizedAffinity>  (1) 
-4.94178581

>  <minimizedRMSD>  (1) 
0.030035194

$$$$
