
     RDKit          3D

 39 41  0  0  0  0  0  0  0  0999 V2000
   46.8090   34.7500   42.0390 C   0  0  0  0  0  0  0  0  0  0  0  0
   47.9930   35.4220   41.9310 C   0  0  0  0  0  0  0  0  0  0  0  0
   48.7420   35.3410   40.7530 C   0  0  0  0  0  0  0  0  0  0  0  0
   48.2920   34.5790   39.6830 C   0  0  0  0  0  0  0  0  0  0  0  0
   47.0730   33.8900   39.8010 C   0  0  0  0  0  0  0  0  0  0  0  0
   46.3800   34.0030   40.9750 C   0  0  0  0  0  0  0  0  0  0  0  0
   44.4780   35.9450   44.7530 C   0  0  0  0  0  0  0  0  0  0  0  0
   45.1510   35.9080   43.5300 C   0  0  0  0  0  0  0  0  0  0  0  0
   46.0630   34.8660   43.2880 C   0  0  0  0  0  0  0  0  0  0  0  0
   46.2570   33.9410   44.2410 N   0  0  0  0  0  0  0  0  0  0  0  0
   45.5830   34.0040   45.4280 C   0  0  0  0  0  0  0  0  0  0  0  0
   44.7120   34.9820   45.6840 N   0  0  0  0  0  0  0  0  0  0  0  0
   46.6140   33.0820   38.6340 C   0  0  0  0  0  0  0  0  0  0  0  0
   45.0800   33.0570   38.5740 C   0  0  0  0  0  0  0  0  0  0  0  0
   47.1200   31.6720   38.8960 C   0  0  0  0  0  0  0  0  0  0  0  0
   47.1330   33.5830   37.3230 C   0  0  0  0  0  0  0  0  0  0  0  0
   46.5560   32.7330   36.2320 C   0  0  0  0  0  0  0  0  0  0  0  0
   47.2730   31.7420   35.5500 C   0  0  0  0  0  0  0  0  0  0  0  0
   46.4910   31.1230   34.5990 C   0  0  0  0  0  0  0  0  0  0  0  0
   45.2900   31.7810   34.7440 C   0  0  0  0  0  0  0  0  0  0  0  0
   45.3870   32.6750   35.6760 O   0  0  0  0  0  0  0  0  0  0  0  0
   48.3584   36.0285   42.7728 H   0  0  0  0  0  0  0  0  0  0  0  0
   49.6948   35.8850   40.6734 H   0  0  0  0  0  0  0  0  0  0  0  0
   48.8813   34.5156   38.7563 H   0  0  0  0  0  0  0  0  0  0  0  0
   45.4257   33.4641   41.0693 H   0  0  0  0  0  0  0  0  0  0  0  0
   43.7600   36.7515   44.9628 H   0  0  0  0  0  0  0  0  0  0  0  0
   44.9705   36.6813   42.7688 H   0  0  0  0  0  0  0  0  0  0  0  0
   45.7625   33.2310   46.1898 H   0  0  0  0  0  0  0  0  0  0  0  0
   44.6731   33.0504   39.5960 H   0  0  0  0  0  0  0  0  0  0  0  0
   44.7193   33.9494   38.0415 H   0  0  0  0  0  0  0  0  0  0  0  0
   44.7486   32.1533   38.0415 H   0  0  0  0  0  0  0  0  0  0  0  0
   47.1816   31.5002   39.9808 H   0  0  0  0  0  0  0  0  0  0  0  0
   46.4268   30.9446   38.4484 H   0  0  0  0  0  0  0  0  0  0  0  0
   48.1175   31.5513   38.4484 H   0  0  0  0  0  0  0  0  0  0  0  0
   46.8291   34.6303   37.1785 H   0  0  0  0  0  0  0  0  0  0  0  0
   48.2315   33.5285   37.3047 H   0  0  0  0  0  0  0  0  0  0  0  0
   48.3253   31.4901   35.7480 H   0  0  0  0  0  0  0  0  0  0  0  0
   46.7572   30.3130   33.9040 H   0  0  0  0  0  0  0  0  0  0  0  0
   44.3831   31.5775   34.1557 H   0  0  0  0  0  0  0  0  0  0  0  0
  1  9  1  0
  2  1  2  0
  3  2  1  0
  4  5  1  0
  4  3  2  0
  5  6  2  0
  6  1  1  0
  7 12  2  0
  8  7  1  0
  9  8  2  0
  9 10  1  0
 10 11  2  0
 11 12  1  0
 13 15  1  0
 13  5  1  0
 14 13  1  0
 16 13  1  0
 17 16  1  0
 18 17  2  0
 19 20  2  0
 19 18  1  0
 20 21  1  0
 21 17  1  0
  2 22  1  0
  3 23  1  0
  4 24  1  0
  6 25  1  0
  7 26  1  0
  8 27  1  0
 11 28  1  0
 14 29  1  0
 14 30  1  0
 14 31  1  0
 15 32  1  0
 15 33  1  0
 15 34  1  0
 16 35  1  0
 16 36  1  0
 18 37  1  0
 19 38  1  0
 20 39  1  0
M  ISO  8  22  14  23  14  24  14  25  14  26  14  27  14  28  14  29   8
M  ISO  8  30   8  31   8  32   8  33   8  34   8  35   8  36   8  37  14
M  ISO  2  38  14  39  14
M  END
>  <minimizedAffinity>  (1) 
-5.68839407

>  <minimizedRMSD>  (1) 
0.216097504

$$$$
