
     RDKit          3D

 38 40  0  0  0  0  0  0  0  0999 V2000
   46.9010   34.8320   42.0410 C   0  0  0  0  0  0  0  0  0  0  0  0
   48.0850   35.5490   41.9870 C   0  0  0  0  0  0  0  0  0  0  0  0
   48.8920   35.5100   40.8380 C   0  0  0  0  0  0  0  0  0  0  0  0
   48.4990   34.7470   39.7450 C   0  0  0  0  0  0  0  0  0  0  0  0
   47.2960   34.0200   39.8050 C   0  0  0  0  0  0  0  0  0  0  0  0
   46.5340   34.0820   40.9420 C   0  0  0  0  0  0  0  0  0  0  0  0
   44.4900   35.9060   44.7120 C   0  0  0  0  0  0  0  0  0  0  0  0
   45.1930   35.9160   43.4980 C   0  0  0  0  0  0  0  0  0  0  0  0
   46.1220   34.9170   43.2550 C   0  0  0  0  0  0  0  0  0  0  0  0
   46.3200   33.9620   44.2040 N   0  0  0  0  0  0  0  0  0  0  0  0
   45.6210   33.9760   45.3780 C   0  0  0  0  0  0  0  0  0  0  0  0
   44.7230   34.9290   45.6270 N   0  0  0  0  0  0  0  0  0  0  0  0
   46.9130   33.2230   38.6240 C   0  0  0  0  0  0  0  0  0  0  0  0
   45.4000   32.9950   38.5680 C   0  0  0  0  0  0  0  0  0  0  0  0
   47.5890   31.8710   38.7910 C   0  0  0  0  0  0  0  0  0  0  0  0
   47.3100   33.8390   37.3120 C   0  0  0  0  0  0  0  0  0  0  0  0
   47.5630   32.8400   36.2960 N   0  0  0  0  0  0  0  0  0  0  0  0
   48.7930   32.4820   35.8350 C   0  0  0  0  0  0  0  0  0  0  0  0
   48.6980   31.5190   34.8850 N   0  0  0  0  0  0  0  0  0  0  0  0
   47.3850   31.2710   34.7520 C   0  0  0  0  0  0  0  0  0  0  0  0
   46.7440   32.0720   35.6030 N   0  0  0  0  0  0  0  0  0  0  0  0
   48.3959   36.1541   42.8514 H   0  0  0  0  0  0  0  0  0  0  0  0
   49.8314   36.0812   40.8035 H   0  0  0  0  0  0  0  0  0  0  0  0
   49.1235   34.7118   38.8402 H   0  0  0  0  0  0  0  0  0  0  0  0
   45.5938   33.5123   40.9804 H   0  0  0  0  0  0  0  0  0  0  0  0
   43.7487   36.6907   44.9235 H   0  0  0  0  0  0  0  0  0  0  0  0
   45.0099   36.7033   42.7519 H   0  0  0  0  0  0  0  0  0  0  0  0
   45.8016   33.1909   46.1270 H   0  0  0  0  0  0  0  0  0  0  0  0
   45.0002   32.9347   39.5910 H   0  0  0  0  0  0  0  0  0  0  0  0
   44.9226   33.8313   38.0364 H   0  0  0  0  0  0  0  0  0  0  0  0
   45.1903   32.0551   38.0364 H   0  0  0  0  0  0  0  0  0  0  0  0
   47.7011   31.6469   39.8621 H   0  0  0  0  0  0  0  0  0  0  0  0
   46.9741   31.0924   38.3159 H   0  0  0  0  0  0  0  0  0  0  0  0
   48.5808   31.8958   38.3159 H   0  0  0  0  0  0  0  0  0  0  0  0
   46.4977   34.4964   36.9686 H   0  0  0  0  0  0  0  0  0  0  0  0
   48.2404   34.4039   37.4708 H   0  0  0  0  0  0  0  0  0  0  0  0
   49.7400   32.9170   36.1871 H   0  0  0  0  0  0  0  0  0  0  0  0
   46.9244   30.5427   34.0683 H   0  0  0  0  0  0  0  0  0  0  0  0
  1  9  1  0
  2  1  2  0
  3  2  1  0
  4  5  1  0
  4  3  2  0
  5  6  2  0
  6  1  1  0
  7 12  2  0
  8  7  1  0
  9  8  2  0
  9 10  1  0
 10 11  2  0
 11 12  1  0
 13 15  1  0
 13  5  1  0
 14 13  1  0
 16 13  1  0
 17 16  1  0
 18 17  1  0
 19 18  2  0
 20 19  1  0
 20 21  2  0
 21 17  1  0
  2 22  1  0
  3 23  1  0
  4 24  1  0
  6 25  1  0
  7 26  1  0
  8 27  1  0
 11 28  1  0
 14 29  1  0
 14 30  1  0
 14 31  1  0
 15 32  1  0
 15 33  1  0
 15 34  1  0
 16 35  1  0
 16 36  1  0
 18 37  1  0
 20 38  1  0
M  ISO  8  22  14  23  14  24  14  25  14  26  14  27  14  28  14  29   8
M  ISO  8  30   8  31   8  32   8  33   8  34   8  35   8  36   8  37  14
M  ISO  1  38  14
M  END
>  <minimizedAffinity>  (1) 
-5.65264034

>  <minimizedRMSD>  (1) 
2.4194665

$$$$
