
     RDKit          3D

 42 44  0  0  0  0  0  0  0  0999 V2000
   46.5590   33.0740   38.5770 C   0  0  0  0  0  0  0  0  0  0  0  0
   46.7820   34.7230   41.9840 C   0  0  0  0  0  0  0  0  0  0  0  0
   47.9930   35.3900   41.8710 C   0  0  0  0  0  0  0  0  0  0  0  0
   48.7360   35.3030   40.6880 C   0  0  0  0  0  0  0  0  0  0  0  0
   48.2610   34.5450   39.6200 C   0  0  0  0  0  0  0  0  0  0  0  0
   47.0440   33.8720   39.7270 C   0  0  0  0  0  0  0  0  0  0  0  0
   46.3630   33.9950   40.9070 C   0  0  0  0  0  0  0  0  0  0  0  0
   44.4940   35.9300   44.7150 C   0  0  0  0  0  0  0  0  0  0  0  0
   45.1520   35.8820   43.4880 C   0  0  0  0  0  0  0  0  0  0  0  0
   46.0530   34.8490   43.2330 C   0  0  0  0  0  0  0  0  0  0  0  0
   46.2590   33.9220   44.1900 N   0  0  0  0  0  0  0  0  0  0  0  0
   45.6010   33.9910   45.3870 C   0  0  0  0  0  0  0  0  0  0  0  0
   44.7420   34.9700   45.6390 N   0  0  0  0  0  0  0  0  0  0  0  0
   45.0470   32.9680   38.5670 C   0  0  0  0  0  0  0  0  0  0  0  0
   47.1180   31.6570   38.8170 C   0  0  0  0  0  0  0  0  0  0  0  0
   47.0500   33.5800   37.2710 C   0  0  0  0  0  0  0  0  0  0  0  0
   46.7230   32.6470   36.1780 C   0  0  0  0  0  0  0  0  0  0  0  0
   45.4630   32.4220   35.6100 C   0  0  0  0  0  0  0  0  0  0  0  0
   45.2740   31.5200   34.5860 C   0  0  0  0  0  0  0  0  0  0  0  0
   46.3270   30.7920   34.0720 C   0  0  0  0  0  0  0  0  0  0  0  0
   47.5980   30.9550   34.5760 C   0  0  0  0  0  0  0  0  0  0  0  0
   47.7320   31.8690   35.5990 C   0  0  0  0  0  0  0  0  0  0  0  0
   48.3703   35.9887   42.7131 H   0  0  0  0  0  0  0  0  0  0  0  0
   49.6957   35.8335   40.6015 H   0  0  0  0  0  0  0  0  0  0  0  0
   48.8464   34.4772   38.6912 H   0  0  0  0  0  0  0  0  0  0  0  0
   45.4026   33.4661   40.9954 H   0  0  0  0  0  0  0  0  0  0  0  0
   43.7805   36.7387   44.9317 H   0  0  0  0  0  0  0  0  0  0  0  0
   44.9622   36.6528   42.7265 H   0  0  0  0  0  0  0  0  0  0  0  0
   45.7869   33.2231   46.1524 H   0  0  0  0  0  0  0  0  0  0  0  0
   44.6744   32.9419   39.6016 H   0  0  0  0  0  0  0  0  0  0  0  0
   44.6218   33.8385   38.0460 H   0  0  0  0  0  0  0  0  0  0  0  0
   44.7475   32.0467   38.0460 H   0  0  0  0  0  0  0  0  0  0  0  0
   47.1917   31.4702   39.8985 H   0  0  0  0  0  0  0  0  0  0  0  0
   46.4451   30.9154   38.3618 H   0  0  0  0  0  0  0  0  0  0  0  0
   48.1160   31.5746   38.3618 H   0  0  0  0  0  0  0  0  0  0  0  0
   46.5803   34.5529   37.0642 H   0  0  0  0  0  0  0  0  0  0  0  0
   48.1440   33.6800   37.3265 H   0  0  0  0  0  0  0  0  0  0  0  0
   44.5976   32.9826   35.9932 H   0  0  0  0  0  0  0  0  0  0  0  0
   44.2654   31.3777   34.1708 H   0  0  0  0  0  0  0  0  0  0  0  0
   46.1503   30.0772   33.2548 H   0  0  0  0  0  0  0  0  0  0  0  0
   48.4563   30.3889   34.1851 H   0  0  0  0  0  0  0  0  0  0  0  0
   48.7453   32.0018   36.0058 H   0  0  0  0  0  0  0  0  0  0  0  0
  1 15  1  0
  1  6  1  0
  2 10  1  0
  3  2  2  0
  4  3  1  0
  5  6  1  0
  5  4  2  0
  6  7  2  0
  7  2  1  0
  8 13  2  0
  9  8  1  0
 10  9  2  0
 10 11  1  0
 11 12  2  0
 12 13  1  0
 14  1  1  0
 16  1  1  0
 17 16  1  0
 18 17  2  0
 19 18  1  0
 20 21  1  0
 20 19  2  0
 21 22  2  0
 22 17  1  0
  3 23  1  0
  4 24  1  0
  5 25  1  0
  7 26  1  0
  8 27  1  0
  9 28  1  0
 12 29  1  0
 14 30  1  0
 14 31  1  0
 14 32  1  0
 15 33  1  0
 15 34  1  0
 15 35  1  0
 16 36  1  0
 16 37  1  0
 18 38  1  0
 19 39  1  0
 20 40  1  0
 21 41  1  0
 22 42  1  0
M  ISO  8  23  14  24  14  25  14  26  14  27  14  28  14  29  14  30   8
M  ISO  8  31   8  32   8  33   8  34   8  35   8  36   8  37   8  38  14
M  ISO  4  39  14  40  14  41  14  42  14
M  END
>  <minimizedAffinity>  (1) 
-5.82698917

>  <minimizedRMSD>  (1) 
0.266902626

$$$$
