
     RDKit          3D

 39 41  0  0  0  0  0  0  0  0999 V2000
   46.7270   34.6880   41.8880 C   0  0  0  0  0  0  0  0  0  0  0  0
   47.8920   35.3910   41.7070 C   0  0  0  0  0  0  0  0  0  0  0  0
   48.6450   35.2300   40.5270 C   0  0  0  0  0  0  0  0  0  0  0  0
   48.1930   34.3500   39.5490 C   0  0  0  0  0  0  0  0  0  0  0  0
   46.9980   33.6350   39.7440 C   0  0  0  0  0  0  0  0  0  0  0  0
   46.3020   33.8250   40.9050 C   0  0  0  0  0  0  0  0  0  0  0  0
   44.5140   36.0650   44.6040 C   0  0  0  0  0  0  0  0  0  0  0  0
   45.1590   35.9820   43.3530 C   0  0  0  0  0  0  0  0  0  0  0  0
   45.9980   34.8990   43.1330 C   0  0  0  0  0  0  0  0  0  0  0  0
   46.1530   33.9830   44.1280 N   0  0  0  0  0  0  0  0  0  0  0  0
   45.5150   34.0980   45.3180 C   0  0  0  0  0  0  0  0  0  0  0  0
   44.7050   35.1240   45.5550 N   0  0  0  0  0  0  0  0  0  0  0  0
   46.5830   32.7230   38.6680 C   0  0  0  0  0  0  0  0  0  0  0  0
   45.8520   33.4980   37.5570 C   0  0  0  0  0  0  0  0  0  0  0  0
   45.5570   31.7760   39.2860 C   0  0  0  0  0  0  0  0  0  0  0  0
   47.6670   31.9430   38.0320 C   0  0  0  0  0  0  0  0  0  0  0  0
   47.7670   31.9620   36.6230 N   0  0  0  0  0  0  0  0  0  0  0  0
   48.6930   32.7580   36.0020 C   0  0  0  0  0  0  0  0  0  0  0  0
   48.6350   32.6510   34.6280 C   0  0  0  0  0  0  0  0  0  0  0  0
   47.6550   31.7700   34.3740 N   0  0  0  0  0  0  0  0  0  0  0  0
   47.1670   31.3870   35.5650 C   0  0  0  0  0  0  0  0  0  0  0  0
   48.2396   36.0839   42.4874 H   0  0  0  0  0  0  0  0  0  0  0  0
   49.5786   35.7931   40.3810 H   0  0  0  0  0  0  0  0  0  0  0  0
   48.7706   34.2134   38.6228 H   0  0  0  0  0  0  0  0  0  0  0  0
   45.3668   33.2667   41.0589 H   0  0  0  0  0  0  0  0  0  0  0  0
   43.8426   36.9117   44.8098 H   0  0  0  0  0  0  0  0  0  0  0  0
   45.0027   36.7482   42.5793 H   0  0  0  0  0  0  0  0  0  0  0  0
   45.6692   33.3347   46.0949 H   0  0  0  0  0  0  0  0  0  0  0  0
   45.1642   34.2271   38.0101 H   0  0  0  0  0  0  0  0  0  0  0  0
   46.5880   34.0266   36.9334 H   0  0  0  0  0  0  0  0  0  0  0  0
   45.2813   32.7941   36.9334 H   0  0  0  0  0  0  0  0  0  0  0  0
   45.6191   31.8333   40.3828 H   0  0  0  0  0  0  0  0  0  0  0  0
   44.5472   32.0662   38.9602 H   0  0  0  0  0  0  0  0  0  0  0  0
   45.7656   30.7463   38.9602 H   0  0  0  0  0  0  0  0  0  0  0  0
   48.6191   32.3226   38.4313 H   0  0  0  0  0  0  0  0  0  0  0  0
   47.4268   30.8970   38.2733 H   0  0  0  0  0  0  0  0  0  0  0  0
   49.4011   33.4076   36.5373 H   0  0  0  0  0  0  0  0  0  0  0  0
   49.2616   33.1781   33.8934 H   0  0  0  0  0  0  0  0  0  0  0  0
   46.3450   30.6632   35.6671 H   0  0  0  0  0  0  0  0  0  0  0  0
  1  9  1  0
  2  1  2  0
  3  2  1  0
  4  5  1  0
  4  3  2  0
  5  6  2  0
  6  1  1  0
  7 12  2  0
  8  7  1  0
  9  8  2  0
  9 10  1  0
 10 11  2  0
 11 12  1  0
 13 15  1  0
 13  5  1  0
 14 13  1  0
 16 13  1  0
 17 16  1  0
 18 17  1  0
 19 18  2  0
 20 19  1  0
 20 21  2  0
 21 17  1  0
  2 22  1  0
  3 23  1  0
  4 24  1  0
  6 25  1  0
  7 26  1  0
  8 27  1  0
 11 28  1  0
 14 29  1  0
 14 30  1  0
 14 31  1  0
 15 32  1  0
 15 33  1  0
 15 34  1  0
 16 35  1  0
 16 36  1  0
 18 37  1  0
 19 38  1  0
 21 39  1  0
M  ISO  8  22  14  23  14  24  14  25  14  26  14  27  14  28  14  29   8
M  ISO  8  30   8  31   8  32   8  33   8  34   8  35   8  36   8  37  14
M  ISO  2  38  14  39  14
M  END
>  <minimizedAffinity>  (1) 
-5.44294691

>  <minimizedRMSD>  (1) 
2.23756623

$$$$
