
     RDKit          3D

 33 34  0  0  0  0  0  0  0  0999 V2000
   46.7650   34.7520   42.1370 C   0  0  0  0  0  0  0  0  0  0  0  0
   47.9440   35.4640   42.0160 C   0  0  0  0  0  0  0  0  0  0  0  0
   48.7140   35.3910   40.8530 C   0  0  0  0  0  0  0  0  0  0  0  0
   48.2890   34.5860   39.7930 C   0  0  0  0  0  0  0  0  0  0  0  0
   47.1030   33.8670   39.9100 C   0  0  0  0  0  0  0  0  0  0  0  0
   46.3830   33.9770   41.0800 C   0  0  0  0  0  0  0  0  0  0  0  0
   44.4560   35.9500   44.8490 C   0  0  0  0  0  0  0  0  0  0  0  0
   45.1210   35.9240   43.6130 C   0  0  0  0  0  0  0  0  0  0  0  0
   46.0250   34.8800   43.3700 C   0  0  0  0  0  0  0  0  0  0  0  0
   46.2120   33.9540   44.3290 N   0  0  0  0  0  0  0  0  0  0  0  0
   45.5510   34.0050   45.5190 C   0  0  0  0  0  0  0  0  0  0  0  0
   44.6880   34.9880   45.7710 N   0  0  0  0  0  0  0  0  0  0  0  0
   46.6790   33.0250   38.7740 C   0  0  0  0  0  0  0  0  0  0  0  0
   45.1590   32.9870   38.6410 C   0  0  0  0  0  0  0  0  0  0  0  0
   47.1390   31.6050   39.1130 C   0  0  0  0  0  0  0  0  0  0  0  0
   47.2470   33.4670   37.4590 C   0  0  0  0  0  0  0  0  0  0  0  0
   46.2590   34.0840   36.7290 O   0  0  0  0  0  0  0  0  0  0  0  0
   48.2810   36.0982   42.8492 H   0  0  0  0  0  0  0  0  0  0  0  0
   49.6495   35.9639   40.7720 H   0  0  0  0  0  0  0  0  0  0  0  0
   48.8876   34.5209   38.8724 H   0  0  0  0  0  0  0  0  0  0  0  0
   45.4461   33.4072   41.1672 H   0  0  0  0  0  0  0  0  0  0  0  0
   43.7421   36.7574   45.0690 H   0  0  0  0  0  0  0  0  0  0  0  0
   44.9380   36.7010   42.8562 H   0  0  0  0  0  0  0  0  0  0  0  0
   45.7312   33.2288   46.2774 H   0  0  0  0  0  0  0  0  0  0  0  0
   44.7035   32.9756   39.6422 H   0  0  0  0  0  0  0  0  0  0  0  0
   44.8166   33.8769   38.0925 H   0  0  0  0  0  0  0  0  0  0  0  0
   44.8615   32.0811   38.0925 H   0  0  0  0  0  0  0  0  0  0  0  0
   47.1784   31.4834   40.2055 H   0  0  0  0  0  0  0  0  0  0  0  0
   46.4302   30.8788   38.6885 H   0  0  0  0  0  0  0  0  0  0  0  0
   48.1390   31.4324   38.6885 H   0  0  0  0  0  0  0  0  0  0  0  0
   48.0726   34.1729   37.6325 H   0  0  0  0  0  0  0  0  0  0  0  0
   47.6273   32.5950   36.9067 H   0  0  0  0  0  0  0  0  0  0  0  0
   45.6014   34.4947   37.3447 H   0  0  0  0  0  0  0  0  0  0  0  0
  1  9  1  0
  2  1  2  0
  3  2  1  0
  4  5  1  0
  4  3  2  0
  5  6  2  0
  6  1  1  0
  7 12  2  0
  8  7  1  0
  9  8  2  0
  9 10  1  0
 10 11  2  0
 11 12  1  0
 13 15  1  0
 13  5  1  0
 14 13  1  0
 16 13  1  0
 17 16  1  0
  2 18  1  0
  3 19  1  0
  4 20  1  0
  6 21  1  0
  7 22  1  0
  8 23  1  0
 11 24  1  0
 14 25  1  0
 14 26  1  0
 14 27  1  0
 15 28  1  0
 15 29  1  0
 15 30  1  0
 16 31  1  0
 16 32  1  0
 17 33  1  0
M  ISO  8  18  14  19  14  20  14  21  14  22  14  23  14  24  14  25   8
M  ISO  8  26   8  27   8  28   8  29   8  30   8  31   8  32   8  33   3
M  END
>  <minimizedAffinity>  (1) 
-5.62976551

>  <minimizedRMSD>  (1) 
0.270792633

$$$$
