
     RDKit          3D

 40 44  0  0  1  0  0  0  0  0999 V2000
   48.1240   33.3910   39.1070 C   0  0  2  0  0  0  0  0  0  0  0  0
   48.2670   34.3020   37.8720 C   0  0  0  0  0  0  0  0  0  0  0  0
   47.9770   32.8210   37.7190 C   0  0  1  0  0  0  0  0  0  0  0  0
   45.6680   34.0650   41.6850 N   0  0  0  0  0  0  0  0  0  0  0  0
   44.8430   33.8390   40.6260 C   0  0  0  0  0  0  0  0  0  0  0  0
   45.5690   33.5620   39.5370 N   0  0  0  0  0  0  0  0  0  0  0  0
   46.8880   33.6170   39.9290 C   0  0  0  0  0  0  0  0  0  0  0  0
   46.8640   33.9180   41.2100 N   0  0  0  0  0  0  0  0  0  0  0  0
   44.7700   35.6730   43.2460 C   0  0  0  0  0  0  0  0  0  0  0  0
   45.3820   34.3920   43.0320 C   0  0  0  0  0  0  0  0  0  0  0  0
   45.6320   33.6190   44.1190 C   0  0  0  0  0  0  0  0  0  0  0  0
   45.2850   34.1110   45.3400 N   0  0  0  0  0  0  0  0  0  0  0  0
   44.7130   35.3120   45.5120 C   0  0  0  0  0  0  0  0  0  0  0  0
   44.4600   36.0850   44.4550 N   0  0  0  0  0  0  0  0  0  0  0  0
   48.9940   31.8820   37.2780 C   0  0  0  0  0  0  0  0  0  0  0  0
   48.6170   30.6920   37.0200 O   0  0  0  0  0  0  0  0  0  0  0  0
   50.3100   32.2450   37.1330 O   0  0  0  0  0  0  0  0  0  0  0  0
   53.1870   31.4900   38.9540 N   0  0  0  0  0  0  0  0  0  0  0  0
   52.5560   31.9650   37.8690 N   0  0  0  0  0  0  0  0  0  0  0  0
   51.2220   31.8390   38.0800 C   0  0  0  0  0  0  0  0  0  0  0  0
   50.9950   31.2780   39.3080 C   0  0  0  0  0  0  0  0  0  0  0  0
   52.2730   31.0650   39.8430 C   0  0  0  0  0  0  0  0  0  0  0  0
   52.5210   30.4760   41.1560 C   0  0  0  0  0  0  0  0  0  0  0  0
   51.5610   30.3020   42.1310 C   0  0  0  0  0  0  0  0  0  0  0  0
   52.1790   29.7330   43.1850 N   0  0  0  0  0  0  0  0  0  0  0  0
   53.4720   29.5750   42.8430 C   0  0  0  0  0  0  0  0  0  0  0  0
   53.7180   30.0310   41.5800 N   0  0  0  0  0  0  0  0  0  0  0  0
   48.7384   33.1212   39.9786 H   0  0  0  0  0  0  0  0  0  0  0  0
   47.4891   35.0443   37.6398 H   0  0  0  0  0  0  0  0  0  0  0  0
   49.0344   34.9931   37.4931 H   0  0  0  0  0  0  0  0  0  0  0  0
   47.2069   32.2695   37.1598 H   0  0  0  0  0  0  0  0  0  0  0  0
   43.7442   33.8783   40.6605 H   0  0  0  0  0  0  0  0  0  0  0  0
   44.5568   36.3210   42.3830 H   0  0  0  0  0  0  0  0  0  0  0  0
   46.0992   32.6284   44.0170 H   0  0  0  0  0  0  0  0  0  0  0  0
   44.4530   35.6588   46.5230 H   0  0  0  0  0  0  0  0  0  0  0  0
   54.2081   31.4565   39.0845 H   0  0  0  0  0  0  0  0  0  0  0  0
   50.0250   31.0459   39.7719 H   0  0  0  0  0  0  0  0  0  0  0  0
   50.4976   30.5747   42.0618 H   0  0  0  0  0  0  0  0  0  0  0  0
   54.2355   29.1331   43.5001 H   0  0  0  0  0  0  0  0  0  0  0  0
   54.6127   30.0338   41.0698 H   0  0  0  0  0  0  0  0  0  0  0  0
  1  7  1  0
  2  1  1  0
  3  2  1  0
  3  1  1  0
  4 10  1  0
  5  4  1  0
  6  7  1  0
  6  5  2  0
  7  8  2  0
  8  4  1  0
  9 14  2  0
 10  9  1  0
 10 11  2  0
 11 12  1  0
 12 13  2  0
 14 13  1  0
 15  3  1  0
 16 15  2  0
 17 15  1  0
 17 20  1  0
 18 22  1  0
 19 20  2  0
 19 18  1  0
 20 21  1  0
 21 22  2  0
 22 23  1  0
 23 27  1  0
 23 24  2  0
 24 25  1  0
 26 25  2  0
 27 26  1  0
  1 28  1  1
  2 29  1  0
  2 30  1  0
  3 31  1  1
  5 32  1  0
  9 33  1  0
 11 34  1  0
 13 35  1  0
 18 36  1  0
 21 37  1  0
 24 38  1  0
 26 39  1  0
 27 40  1  0
M  ISO  8  28  13  29  13  30  13  31  13  32  14  33  14  34  14  35  14
M  ISO  5  36   9  37  14  38  14  39  14  40   9
M  END
>  <minimizedAffinity>  (1) 
-4.92131901

>  <minimizedRMSD>  (1) 
0.432271987

$$$$
