
     RDKit          3D

 39 41  0  0  0  0  0  0  0  0999 V2000
   46.7740   34.7630   42.0080 C   0  0  0  0  0  0  0  0  0  0  0  0
   47.9730   35.4180   41.8970 C   0  0  0  0  0  0  0  0  0  0  0  0
   48.7320   35.3210   40.7250 C   0  0  0  0  0  0  0  0  0  0  0  0
   48.2730   34.5550   39.6590 C   0  0  0  0  0  0  0  0  0  0  0  0
   47.0480   33.8810   39.7620 C   0  0  0  0  0  0  0  0  0  0  0  0
   46.3560   34.0170   40.9350 C   0  0  0  0  0  0  0  0  0  0  0  0
   44.4810   35.9460   44.7390 C   0  0  0  0  0  0  0  0  0  0  0  0
   45.1360   35.9320   43.4950 C   0  0  0  0  0  0  0  0  0  0  0  0
   46.0280   34.8990   43.2490 C   0  0  0  0  0  0  0  0  0  0  0  0
   46.2280   33.9570   44.2110 N   0  0  0  0  0  0  0  0  0  0  0  0
   45.5700   34.0100   45.4050 C   0  0  0  0  0  0  0  0  0  0  0  0
   44.7130   34.9920   45.6550 N   0  0  0  0  0  0  0  0  0  0  0  0
   46.5890   33.0780   38.6130 C   0  0  0  0  0  0  0  0  0  0  0  0
   45.0630   33.0300   38.5480 C   0  0  0  0  0  0  0  0  0  0  0  0
   47.0830   31.6540   38.8820 C   0  0  0  0  0  0  0  0  0  0  0  0
   47.1040   33.5630   37.3020 C   0  0  0  0  0  0  0  0  0  0  0  0
   46.4880   32.7570   36.1980 C   0  0  0  0  0  0  0  0  0  0  0  0
   47.0040   31.5650   35.6920 C   0  0  0  0  0  0  0  0  0  0  0  0
   46.1850   31.1140   34.7010 N   0  0  0  0  0  0  0  0  0  0  0  0
   45.1760   31.9950   34.5800 C   0  0  0  0  0  0  0  0  0  0  0  0
   45.3620   32.9780   35.4780 N   0  0  0  0  0  0  0  0  0  0  0  0
   48.3420   36.0254   42.7366 H   0  0  0  0  0  0  0  0  0  0  0  0
   49.6926   35.8513   40.6471 H   0  0  0  0  0  0  0  0  0  0  0  0
   48.8692   34.4781   38.7378 H   0  0  0  0  0  0  0  0  0  0  0  0
   45.3947   33.4898   41.0240 H   0  0  0  0  0  0  0  0  0  0  0  0
   43.7670   36.7515   44.9655 H   0  0  0  0  0  0  0  0  0  0  0  0
   44.9476   36.7128   42.7434 H   0  0  0  0  0  0  0  0  0  0  0  0
   45.7507   33.2349   46.1643 H   0  0  0  0  0  0  0  0  0  0  0  0
   44.6528   33.0171   39.5686 H   0  0  0  0  0  0  0  0  0  0  0  0
   44.6907   33.9169   38.0143 H   0  0  0  0  0  0  0  0  0  0  0  0
   44.7471   32.1215   38.0143 H   0  0  0  0  0  0  0  0  0  0  0  0
   47.1416   31.4851   39.9674 H   0  0  0  0  0  0  0  0  0  0  0  0
   46.3826   30.9325   38.4359 H   0  0  0  0  0  0  0  0  0  0  0  0
   48.0797   31.5213   38.4359 H   0  0  0  0  0  0  0  0  0  0  0  0
   46.8409   34.6233   37.1735 H   0  0  0  0  0  0  0  0  0  0  0  0
   48.1980   33.4523   37.2724 H   0  0  0  0  0  0  0  0  0  0  0  0
   47.9233   31.0690   36.0369 H   0  0  0  0  0  0  0  0  0  0  0  0
   44.3409   31.9234   33.8676 H   0  0  0  0  0  0  0  0  0  0  0  0
   44.7357   33.7864   35.6014 H   0  0  0  0  0  0  0  0  0  0  0  0
  1  9  1  0
  2  1  2  0
  3  2  1  0
  4  5  1  0
  4  3  2  0
  5  6  2  0
  6  1  1  0
  7 12  2  0
  8  7  1  0
  9  8  2  0
  9 10  1  0
 10 11  2  0
 11 12  1  0
 13 15  1  0
 13  5  1  0
 14 13  1  0
 16 13  1  0
 17 16  1  0
 18 17  2  0
 19 18  1  0
 20 19  2  0
 20 21  1  0
 21 17  1  0
  2 22  1  0
  3 23  1  0
  4 24  1  0
  6 25  1  0
  7 26  1  0
  8 27  1  0
 11 28  1  0
 14 29  1  0
 14 30  1  0
 14 31  1  0
 15 32  1  0
 15 33  1  0
 15 34  1  0
 16 35  1  0
 16 36  1  0
 18 37  1  0
 20 38  1  0
 21 39  1  0
M  ISO  8  22  14  23  14  24  14  25  14  26  14  27  14  28  14  29   8
M  ISO  8  30   8  31   8  32   8  33   8  34   8  35   8  36   8  37  14
M  ISO  2  38  14  39   9
M  END
>  <minimizedAffinity>  (1) 
-6.07266998

>  <minimizedRMSD>  (1) 
0.55377692

$$$$
