
     RDKit          3D

 48 52  0  0  1  0  0  0  0  0999 V2000
   48.0960   33.4160   38.9760 C   0  0  2  0  0  0  0  0  0  0  0  0
   48.2380   34.3230   37.7390 C   0  0  0  0  0  0  0  0  0  0  0  0
   47.9580   32.8410   37.5880 C   0  0  1  0  0  0  0  0  0  0  0  0
   45.6270   34.1200   41.5320 N   0  0  0  0  0  0  0  0  0  0  0  0
   44.8050   33.8230   40.4810 C   0  0  0  0  0  0  0  0  0  0  0  0
   45.5380   33.5230   39.4080 N   0  0  0  0  0  0  0  0  0  0  0  0
   46.8570   33.6360   39.7920 C   0  0  0  0  0  0  0  0  0  0  0  0
   46.8350   33.9910   41.0600 N   0  0  0  0  0  0  0  0  0  0  0  0
   44.8730   35.8430   43.0450 C   0  0  0  0  0  0  0  0  0  0  0  0
   45.3380   34.4980   42.8650 C   0  0  0  0  0  0  0  0  0  0  0  0
   45.4590   33.7160   43.9670 C   0  0  0  0  0  0  0  0  0  0  0  0
   45.1320   34.2530   45.1710 N   0  0  0  0  0  0  0  0  0  0  0  0
   44.6970   35.5200   45.3170 C   0  0  0  0  0  0  0  0  0  0  0  0
   44.5710   36.3130   44.2370 N   0  0  0  0  0  0  0  0  0  0  0  0
   48.9800   31.9050   37.1560 C   0  0  0  0  0  0  0  0  0  0  0  0
   48.6040   30.7270   36.8500 O   0  0  0  0  0  0  0  0  0  0  0  0
   50.3050   32.2550   37.0670 O   0  0  0  0  0  0  0  0  0  0  0  0
   53.0940   31.4920   39.0150 N   0  0  0  0  0  0  0  0  0  0  0  0
   52.5090   31.9370   37.8880 N   0  0  0  0  0  0  0  0  0  0  0  0
   51.1680   31.8620   38.0660 C   0  0  0  0  0  0  0  0  0  0  0  0
   50.8890   31.3690   39.3120 C   0  0  0  0  0  0  0  0  0  0  0  0
   52.1380   31.1430   39.8900 C   0  0  0  0  0  0  0  0  0  0  0  0
   52.3350   30.6240   41.2000 N   0  0  0  0  0  0  0  0  0  0  0  0
   51.4240   30.9530   42.2620 C   0  0  0  0  0  0  0  0  0  0  0  0
   51.0360   29.7360   43.0750 C   0  0  0  0  0  0  0  0  0  0  0  0
   52.2850   28.9840   43.5060 C   0  0  0  0  0  0  0  0  0  0  0  0
   52.9870   28.5200   42.2650 C   0  0  0  0  0  0  0  0  0  0  0  0
   53.4380   29.7630   41.5090 C   0  0  0  0  0  0  0  0  0  0  0  0
   48.7086   33.1530   39.8510 H   0  0  0  0  0  0  0  0  0  0  0  0
   47.4564   35.0598   37.5017 H   0  0  0  0  0  0  0  0  0  0  0  0
   49.0028   35.0176   37.3613 H   0  0  0  0  0  0  0  0  0  0  0  0
   47.1940   32.2845   37.0253 H   0  0  0  0  0  0  0  0  0  0  0  0
   43.7056   33.8303   40.5151 H   0  0  0  0  0  0  0  0  0  0  0  0
   44.7663   36.4967   42.1668 H   0  0  0  0  0  0  0  0  0  0  0  0
   45.8117   32.6771   43.8877 H   0  0  0  0  0  0  0  0  0  0  0  0
   44.4456   35.9051   46.3163 H   0  0  0  0  0  0  0  0  0  0  0  0
   54.1089   31.4294   39.1793 H   0  0  0  0  0  0  0  0  0  0  0  0
   49.8996   31.1907   39.7583 H   0  0  0  0  0  0  0  0  0  0  0  0
   51.9040   31.6859   42.9271 H   0  0  0  0  0  0  0  0  0  0  0  0
   50.5097   31.3645   41.8096 H   0  0  0  0  0  0  0  0  0  0  0  0
   50.4766   30.0558   43.9665 H   0  0  0  0  0  0  0  0  0  0  0  0
   50.4080   29.0742   42.4605 H   0  0  0  0  0  0  0  0  0  0  0  0
   52.9436   29.6503   44.0824 H   0  0  0  0  0  0  0  0  0  0  0  0
   52.0191   28.1270   44.1422 H   0  0  0  0  0  0  0  0  0  0  0  0
   53.8589   27.9053   42.5331 H   0  0  0  0  0  0  0  0  0  0  0  0
   52.3166   27.9078   41.6438 H   0  0  0  0  0  0  0  0  0  0  0  0
   53.9226   29.4537   40.5712 H   0  0  0  0  0  0  0  0  0  0  0  0
   54.1384   30.3190   42.1496 H   0  0  0  0  0  0  0  0  0  0  0  0
  1  7  1  0
  2  1  1  0
  3  2  1  0
  3  1  1  0
  4 10  1  0
  5  4  1  0
  6  7  1  0
  6  5  2  0
  7  8  2  0
  8  4  1  0
  9 14  2  0
 10  9  1  0
 10 11  2  0
 11 12  1  0
 12 13  2  0
 14 13  1  0
 15  3  1  0
 16 15  2  0
 17 15  1  0
 17 20  1  0
 18 22  1  0
 19 20  2  0
 19 18  1  0
 20 21  1  0
 21 22  2  0
 22 23  1  0
 23 28  1  0
 23 24  1  0
 24 25  1  0
 25 26  1  0
 27 26  1  0
 28 27  1  0
  1 29  1  1
  2 30  1  0
  2 31  1  0
  3 32  1  1
  5 33  1  0
  9 34  1  0
 11 35  1  0
 13 36  1  0
 18 37  1  0
 21 38  1  0
 24 39  1  0
 24 40  1  0
 25 41  1  0
 25 42  1  0
 26 43  1  0
 26 44  1  0
 27 45  1  0
 27 46  1  0
 28 47  1  0
 28 48  1  0
M  ISO  8  29  13  30  13  31  13  32  13  33  14  34  14  35  14  36  14
M  ISO  8  37   9  38  14  39  13  40  13  41  13  42  13  43  13  44  13
M  ISO  4  45  13  46  13  47  13  48  13
M  END
>  <minimizedAffinity>  (1) 
-4.9016099

>  <minimizedRMSD>  (1) 
1.13157856

$$$$
