
     RDKit          3D

 40 44  0  0  1  0  0  0  0  0999 V2000
   48.0920   33.3990   39.0770 C   0  0  2  0  0  0  0  0  0  0  0  0
   48.2740   34.3550   37.8810 C   0  0  0  0  0  0  0  0  0  0  0  0
   47.9400   32.8910   37.6670 C   0  0  1  0  0  0  0  0  0  0  0  0
   45.6440   34.0700   41.6630 N   0  0  0  0  0  0  0  0  0  0  0  0
   44.8180   33.8580   40.6030 C   0  0  0  0  0  0  0  0  0  0  0  0
   45.5390   33.5840   39.5110 N   0  0  0  0  0  0  0  0  0  0  0  0
   46.8590   33.6260   39.9030 C   0  0  0  0  0  0  0  0  0  0  0  0
   46.8450   33.9180   41.1860 N   0  0  0  0  0  0  0  0  0  0  0  0
   44.7590   35.6700   43.2380 C   0  0  0  0  0  0  0  0  0  0  0  0
   45.3700   34.3910   43.0180 C   0  0  0  0  0  0  0  0  0  0  0  0
   45.6320   33.6120   44.0980 C   0  0  0  0  0  0  0  0  0  0  0  0
   45.2910   34.1070   45.3220 N   0  0  0  0  0  0  0  0  0  0  0  0
   44.7220   35.3010   45.5060 C   0  0  0  0  0  0  0  0  0  0  0  0
   44.4570   36.0850   44.4450 N   0  0  0  0  0  0  0  0  0  0  0  0
   48.9310   31.9400   37.1920 C   0  0  0  0  0  0  0  0  0  0  0  0
   48.5180   30.7730   36.8930 O   0  0  0  0  0  0  0  0  0  0  0  0
   50.2590   32.2720   37.0620 O   0  0  0  0  0  0  0  0  0  0  0  0
   53.0820   31.4850   38.9590 N   0  0  0  0  0  0  0  0  0  0  0  0
   52.4710   31.9690   37.8580 N   0  0  0  0  0  0  0  0  0  0  0  0
   51.1430   31.8540   38.0350 C   0  0  0  0  0  0  0  0  0  0  0  0
   50.8910   31.2930   39.2560 C   0  0  0  0  0  0  0  0  0  0  0  0
   52.1560   31.0780   39.8030 C   0  0  0  0  0  0  0  0  0  0  0  0
   52.4380   30.5050   41.0830 C   0  0  0  0  0  0  0  0  0  0  0  0
   51.8490   30.3640   42.2710 C   0  0  0  0  0  0  0  0  0  0  0  0
   52.4720   29.7190   43.3040 C   0  0  0  0  0  0  0  0  0  0  0  0
   53.7750   29.2090   43.0510 C   0  0  0  0  0  0  0  0  0  0  0  0
   54.1110   29.6480   41.3380 S   0  0  0  0  0  0  0  0  0  0  0  0
   48.6905   33.0760   39.9415 H   0  0  0  0  0  0  0  0  0  0  0  0
   47.5213   35.1298   37.6732 H   0  0  0  0  0  0  0  0  0  0  0  0
   49.0654   35.0368   37.5361 H   0  0  0  0  0  0  0  0  0  0  0  0
   47.1577   32.3855   37.0818 H   0  0  0  0  0  0  0  0  0  0  0  0
   43.7196   33.9051   40.6391 H   0  0  0  0  0  0  0  0  0  0  0  0
   44.5390   36.3167   42.3758 H   0  0  0  0  0  0  0  0  0  0  0  0
   46.1000   32.6224   43.9905 H   0  0  0  0  0  0  0  0  0  0  0  0
   44.4709   35.6423   46.5211 H   0  0  0  0  0  0  0  0  0  0  0  0
   54.0994   31.4411   39.1135 H   0  0  0  0  0  0  0  0  0  0  0  0
   49.9133   31.0634   39.7048 H   0  0  0  0  0  0  0  0  0  0  0  0
   50.8403   30.7753   42.4236 H   0  0  0  0  0  0  0  0  0  0  0  0
   51.9877   29.6004   44.2845 H   0  0  0  0  0  0  0  0  0  0  0  0
   54.4316   28.6668   43.7473 H   0  0  0  0  0  0  0  0  0  0  0  0
  1  7  1  0
  2  1  1  0
  3  2  1  0
  3  1  1  0
  4 10  1  0
  5  4  1  0
  6  7  1  0
  6  5  2  0
  7  8  2  0
  8  4  1  0
  9 14  2  0
 10  9  1  0
 10 11  2  0
 11 12  1  0
 12 13  2  0
 14 13  1  0
 15  3  1  0
 16 15  2  0
 17 15  1  0
 17 20  1  0
 18 22  1  0
 19 20  2  0
 19 18  1  0
 20 21  1  0
 21 22  2  0
 22 23  1  0
 23 27  1  0
 23 24  2  0
 24 25  1  0
 26 25  2  0
 27 26  1  0
  1 28  1  1
  2 29  1  0
  2 30  1  0
  3 31  1  1
  5 32  1  0
  9 33  1  0
 11 34  1  0
 13 35  1  0
 18 36  1  0
 21 37  1  0
 24 38  1  0
 25 39  1  0
 26 40  1  0
M  ISO  8  28  13  29  13  30  13  31  13  32  14  33  14  34  14  35  14
M  ISO  5  36   9  37  14  38  14  39  14  40  14
M  END
>  <minimizedAffinity>  (1) 
-4.87711763

>  <minimizedRMSD>  (1) 
0.517197728

$$$$
