
     RDKit          3D

 46 49  0  0  0  0  0  0  0  0999 V2000
   46.4270   32.6560   38.8550 C   0  0  0  0  0  0  0  0  0  0  0  0
   46.6390   34.6480   42.0710 C   0  0  0  0  0  0  0  0  0  0  0  0
   47.8020   35.3500   41.8420 C   0  0  0  0  0  0  0  0  0  0  0  0
   48.5150   35.1840   40.6570 C   0  0  0  0  0  0  0  0  0  0  0  0
   48.0600   34.3010   39.6830 C   0  0  0  0  0  0  0  0  0  0  0  0
   46.8760   33.5770   39.9010 C   0  0  0  0  0  0  0  0  0  0  0  0
   46.2300   33.7880   41.0810 C   0  0  0  0  0  0  0  0  0  0  0  0
   44.4730   35.9980   44.8220 C   0  0  0  0  0  0  0  0  0  0  0  0
   45.0940   35.9180   43.5630 C   0  0  0  0  0  0  0  0  0  0  0  0
   45.9350   34.8560   43.3200 C   0  0  0  0  0  0  0  0  0  0  0  0
   46.1190   33.9460   44.3080 N   0  0  0  0  0  0  0  0  0  0  0  0
   45.5020   34.0500   45.5210 C   0  0  0  0  0  0  0  0  0  0  0  0
   44.6920   35.0720   45.7550 N   0  0  0  0  0  0  0  0  0  0  0  0
   45.6940   31.4460   39.4320 C   0  0  0  0  0  0  0  0  0  0  0  0
   47.7140   32.1060   38.2140 C   0  0  0  0  0  0  0  0  0  0  0  0
   45.5500   33.2760   37.8270 C   0  0  0  0  0  0  0  0  0  0  0  0
   44.3730   32.3840   37.5550 C   0  0  0  0  0  0  0  0  0  0  0  0
   44.3770   31.1770   36.8400 C   0  0  0  0  0  0  0  0  0  0  0  0
   43.1140   30.6790   36.8220 N   0  0  0  0  0  0  0  0  0  0  0  0
   42.3260   31.5420   37.5040 C   0  0  0  0  0  0  0  0  0  0  0  0
   43.0940   32.5700   37.9430 N   0  0  0  0  0  0  0  0  0  0  0  0
   42.3230   35.2340   40.1630 N   0  0  0  0  0  0  0  0  0  0  0  0
   43.1340   34.2780   39.7070 N   0  0  0  0  0  0  0  0  0  0  0  0
   42.5540   33.6340   38.6810 C   0  0  0  0  0  0  0  0  0  0  0  0
   41.3110   34.2020   38.4670 C   0  0  0  0  0  0  0  0  0  0  0  0
   41.1910   35.2110   39.4170 C   0  0  0  0  0  0  0  0  0  0  0  0
   48.1723   36.0507   42.6048 H   0  0  0  0  0  0  0  0  0  0  0  0
   49.4414   35.7533   40.4907 H   0  0  0  0  0  0  0  0  0  0  0  0
   48.6240   34.1705   38.7477 H   0  0  0  0  0  0  0  0  0  0  0  0
   45.3030   33.2224   41.2561 H   0  0  0  0  0  0  0  0  0  0  0  0
   43.7964   36.8374   45.0400 H   0  0  0  0  0  0  0  0  0  0  0  0
   44.9127   36.6830   42.7936 H   0  0  0  0  0  0  0  0  0  0  0  0
   45.6759   33.2913   46.2982 H   0  0  0  0  0  0  0  0  0  0  0  0
   45.7210   31.4906   40.5308 H   0  0  0  0  0  0  0  0  0  0  0  0
   44.6484   31.4535   39.0903 H   0  0  0  0  0  0  0  0  0  0  0  0
   46.1848   30.5228   39.0903 H   0  0  0  0  0  0  0  0  0  0  0  0
   48.4176   31.8053   39.0042 H   0  0  0  0  0  0  0  0  0  0  0  0
   47.4691   31.2340   37.5899 H   0  0  0  0  0  0  0  0  0  0  0  0
   48.1749   32.8857   37.5899 H   0  0  0  0  0  0  0  0  0  0  0  0
   45.1928   34.2504   38.1917 H   0  0  0  0  0  0  0  0  0  0  0  0
   46.1224   33.4142   36.8979 H   0  0  0  0  0  0  0  0  0  0  0  0
   45.2569   30.7115   36.3719 H   0  0  0  0  0  0  0  0  0  0  0  0
   41.2451   31.4289   37.6737 H   0  0  0  0  0  0  0  0  0  0  0  0
   42.5216   35.8760   40.9436 H   0  0  0  0  0  0  0  0  0  0  0  0
   40.5716   33.9155   37.7046 H   0  0  0  0  0  0  0  0  0  0  0  0
   40.3247   35.8772   39.5419 H   0  0  0  0  0  0  0  0  0  0  0  0
  1 14  1  0
  1  6  1  0
  2 10  1  0
  3  2  2  0
  4  3  1  0
  5  6  1  0
  5  4  2  0
  6  7  2  0
  7  2  1  0
  8 13  2  0
  9  8  1  0
 10  9  2  0
 10 11  1  0
 11 12  2  0
 12 13  1  0
 15  1  1  0
 16  1  1  0
 17 16  1  0
 17 21  1  0
 18 17  2  0
 19 18  1  0
 19 20  2  0
 20 21  1  0
 21 24  1  0
 23 22  1  0
 24 23  2  0
 25 24  1  0
 25 26  2  0
 26 22  1  0
  3 27  1  0
  4 28  1  0
  5 29  1  0
  7 30  1  0
  8 31  1  0
  9 32  1  0
 12 33  1  0
 14 34  1  0
 14 35  1  0
 14 36  1  0
 15 37  1  0
 15 38  1  0
 15 39  1  0
 16 40  1  0
 16 41  1  0
 18 42  1  0
 20 43  1  0
 22 44  1  0
 25 45  1  0
 26 46  1  0
M  ISO  8  27  14  28  14  29  14  30  14  31  14  32  14  33  14  34   8
M  ISO  8  35   8  36   8  37   8  38   8  39   8  40   8  41   8  42  14
M  ISO  4  43  14  44   9  45  14  46  14
M  END
>  <minimizedAffinity>  (1) 
-6.32237625

>  <minimizedRMSD>  (1) 
2.41017604

$$$$
