
     RDKit          3D

 46 49  0  0  0  0  0  0  0  0999 V2000
   46.4010   32.6880   38.8180 C   0  0  0  0  0  0  0  0  0  0  0  0
   46.6320   34.6530   42.0440 C   0  0  0  0  0  0  0  0  0  0  0  0
   47.8060   35.3470   41.8350 C   0  0  0  0  0  0  0  0  0  0  0  0
   48.5210   35.1790   40.6490 C   0  0  0  0  0  0  0  0  0  0  0  0
   48.0570   34.3080   39.6680 C   0  0  0  0  0  0  0  0  0  0  0  0
   46.8570   33.5950   39.8750 C   0  0  0  0  0  0  0  0  0  0  0  0
   46.2140   33.8100   41.0550 C   0  0  0  0  0  0  0  0  0  0  0  0
   44.4750   36.0190   44.8040 C   0  0  0  0  0  0  0  0  0  0  0  0
   45.0950   35.9320   43.5470 C   0  0  0  0  0  0  0  0  0  0  0  0
   45.9280   34.8660   43.2970 C   0  0  0  0  0  0  0  0  0  0  0  0
   46.1180   33.9360   44.2860 N   0  0  0  0  0  0  0  0  0  0  0  0
   45.4990   34.0530   45.4950 C   0  0  0  0  0  0  0  0  0  0  0  0
   44.6980   35.0730   45.7440 N   0  0  0  0  0  0  0  0  0  0  0  0
   45.6870   31.4710   39.3830 C   0  0  0  0  0  0  0  0  0  0  0  0
   47.6870   32.1650   38.1480 C   0  0  0  0  0  0  0  0  0  0  0  0
   45.5110   33.3270   37.8080 C   0  0  0  0  0  0  0  0  0  0  0  0
   44.3100   32.4570   37.5680 C   0  0  0  0  0  0  0  0  0  0  0  0
   44.2680   31.2650   36.8280 C   0  0  0  0  0  0  0  0  0  0  0  0
   42.9930   30.7920   36.8570 N   0  0  0  0  0  0  0  0  0  0  0  0
   42.2510   31.6550   37.5920 C   0  0  0  0  0  0  0  0  0  0  0  0
   43.0560   32.6570   38.0150 N   0  0  0  0  0  0  0  0  0  0  0  0
   42.5650   33.7090   38.7980 C   0  0  0  0  0  0  0  0  0  0  0  0
   41.4260   34.4340   38.4300 C   0  0  0  0  0  0  0  0  0  0  0  0
   41.2440   35.3770   39.4240 C   0  0  0  0  0  0  0  0  0  0  0  0
   42.2250   35.2210   40.3340 N   0  0  0  0  0  0  0  0  0  0  0  0
   42.9960   34.2240   39.9370 N   0  0  0  0  0  0  0  0  0  0  0  0
   48.1798   36.0358   42.6069 H   0  0  0  0  0  0  0  0  0  0  0  0
   49.4552   35.7372   40.4887 H   0  0  0  0  0  0  0  0  0  0  0  0
   48.6236   34.1757   38.7345 H   0  0  0  0  0  0  0  0  0  0  0  0
   45.2782   33.2577   41.2263 H   0  0  0  0  0  0  0  0  0  0  0  0
   43.8038   36.8619   45.0253 H   0  0  0  0  0  0  0  0  0  0  0  0
   44.9185   36.6995   42.7790 H   0  0  0  0  0  0  0  0  0  0  0  0
   45.6682   33.2910   46.2700 H   0  0  0  0  0  0  0  0  0  0  0  0
   45.7098   31.5099   40.4821 H   0  0  0  0  0  0  0  0  0  0  0  0
   44.6425   31.4656   39.0379 H   0  0  0  0  0  0  0  0  0  0  0  0
   46.1919   30.5567   39.0379 H   0  0  0  0  0  0  0  0  0  0  0  0
   48.4104   31.8708   38.9226 H   0  0  0  0  0  0  0  0  0  0  0  0
   47.4458   31.2935   37.5216 H   0  0  0  0  0  0  0  0  0  0  0  0
   48.1225   32.9575   37.5216 H   0  0  0  0  0  0  0  0  0  0  0  0
   45.1827   34.3090   38.1793 H   0  0  0  0  0  0  0  0  0  0  0  0
   46.0628   33.4540   36.8649 H   0  0  0  0  0  0  0  0  0  0  0  0
   45.1190   30.7947   36.3136 H   0  0  0  0  0  0  0  0  0  0  0  0
   41.1768   31.5577   37.8081 H   0  0  0  0  0  0  0  0  0  0  0  0
   40.8043   34.2844   37.5350 H   0  0  0  0  0  0  0  0  0  0  0  0
   40.4383   36.1248   39.4649 H   0  0  0  0  0  0  0  0  0  0  0  0
   42.3518   35.7807   41.1893 H   0  0  0  0  0  0  0  0  0  0  0  0
  1 14  1  0
  1  6  1  0
  2 10  1  0
  3  2  2  0
  4  3  1  0
  5  6  1  0
  5  4  2  0
  6  7  2  0
  7  2  1  0
  8 13  2  0
  9  8  1  0
 10  9  2  0
 10 11  1  0
 11 12  2  0
 12 13  1  0
 15  1  1  0
 16  1  1  0
 17 16  1  0
 17 21  1  0
 18 19  1  0
 18 17  2  0
 19 20  2  0
 20 21  1  0
 21 22  1  0
 22 26  2  0
 23 22  1  0
 23 24  2  0
 24 25  1  0
 26 25  1  0
  3 27  1  0
  4 28  1  0
  5 29  1  0
  7 30  1  0
  8 31  1  0
  9 32  1  0
 12 33  1  0
 14 34  1  0
 14 35  1  0
 14 36  1  0
 15 37  1  0
 15 38  1  0
 15 39  1  0
 16 40  1  0
 16 41  1  0
 18 42  1  0
 20 43  1  0
 23 44  1  0
 24 45  1  0
 25 46  1  0
M  ISO  8  27  14  28  14  29  14  30  14  31  14  32  14  33  14  34   8
M  ISO  8  35   8  36   8  37   8  38   8  39   8  40   8  41   8  42  14
M  ISO  4  43  14  44  14  45  14  46   9
M  END
>  <minimizedAffinity>  (1) 
-6.35427427

>  <minimizedRMSD>  (1) 
2.49514794

$$$$
