
     RDKit          3D

 49 52  0  0  0  0  0  0  0  0999 V2000
   46.2910   32.7770   38.7330 C   0  0  0  0  0  0  0  0  0  0  0  0
   46.6080   34.6660   41.9980 C   0  0  0  0  0  0  0  0  0  0  0  0
   47.8140   35.3040   41.8030 C   0  0  0  0  0  0  0  0  0  0  0  0
   48.5230   35.1260   40.6200 C   0  0  0  0  0  0  0  0  0  0  0  0
   48.0230   34.3000   39.6210 C   0  0  0  0  0  0  0  0  0  0  0  0
   46.8010   33.6460   39.8030 C   0  0  0  0  0  0  0  0  0  0  0  0
   46.1520   33.8630   40.9880 C   0  0  0  0  0  0  0  0  0  0  0  0
   44.4600   36.0610   44.7470 C   0  0  0  0  0  0  0  0  0  0  0  0
   45.0790   35.9610   43.4920 C   0  0  0  0  0  0  0  0  0  0  0  0
   45.9070   34.8870   43.2520 C   0  0  0  0  0  0  0  0  0  0  0  0
   46.0870   33.9730   44.2400 N   0  0  0  0  0  0  0  0  0  0  0  0
   45.4650   34.1030   45.4510 C   0  0  0  0  0  0  0  0  0  0  0  0
   44.6680   35.1360   45.6830 N   0  0  0  0  0  0  0  0  0  0  0  0
   45.6810   31.4950   39.2640 C   0  0  0  0  0  0  0  0  0  0  0  0
   47.5320   32.3670   37.9170 C   0  0  0  0  0  0  0  0  0  0  0  0
   45.2900   33.4450   37.8530 C   0  0  0  0  0  0  0  0  0  0  0  0
   44.1500   32.5110   37.5840 C   0  0  0  0  0  0  0  0  0  0  0  0
   44.1370   31.3940   36.7540 C   0  0  0  0  0  0  0  0  0  0  0  0
   42.9060   30.8300   36.7960 N   0  0  0  0  0  0  0  0  0  0  0  0
   42.1440   31.5650   37.6350 C   0  0  0  0  0  0  0  0  0  0  0  0
   42.8980   32.5850   38.1130 N   0  0  0  0  0  0  0  0  0  0  0  0
   42.3940   33.5500   39.0220 C   0  0  0  0  0  0  0  0  0  0  0  0
   42.6330   33.4450   40.3810 C   0  0  0  0  0  0  0  0  0  0  0  0
   42.1400   34.3910   41.2830 C   0  0  0  0  0  0  0  0  0  0  0  0
   41.3930   35.4660   40.8360 C   0  0  0  0  0  0  0  0  0  0  0  0
   41.1440   35.5840   39.4690 C   0  0  0  0  0  0  0  0  0  0  0  0
   41.6480   34.6330   38.6330 C   0  0  0  0  0  0  0  0  0  0  0  0
   48.2187   35.9588   42.5888 H   0  0  0  0  0  0  0  0  0  0  0  0
   49.4838   35.6414   40.4746 H   0  0  0  0  0  0  0  0  0  0  0  0
   48.5882   34.1608   38.6877 H   0  0  0  0  0  0  0  0  0  0  0  0
   45.1896   33.3526   41.1405 H   0  0  0  0  0  0  0  0  0  0  0  0
   43.7962   36.9118   44.9604 H   0  0  0  0  0  0  0  0  0  0  0  0
   44.9070   36.7229   42.7175 H   0  0  0  0  0  0  0  0  0  0  0  0
   45.6267   33.3481   46.2346 H   0  0  0  0  0  0  0  0  0  0  0  0
   45.6895   31.5130   40.3638 H   0  0  0  0  0  0  0  0  0  0  0  0
   44.6444   31.4067   38.9068 H   0  0  0  0  0  0  0  0  0  0  0  0
   46.2664   30.6350   38.9068 H   0  0  0  0  0  0  0  0  0  0  0  0
   48.3488   32.0971   38.6025 H   0  0  0  0  0  0  0  0  0  0  0  0
   47.2848   31.5028   37.2830 H   0  0  0  0  0  0  0  0  0  0  0  0
   47.8483   33.2084   37.2830 H   0  0  0  0  0  0  0  0  0  0  0  0
   44.9115   34.3498   38.3511 H   0  0  0  0  0  0  0  0  0  0  0  0
   45.7680   33.7195   36.9011 H   0  0  0  0  0  0  0  0  0  0  0  0
   44.9879   31.0285   36.1604 H   0  0  0  0  0  0  0  0  0  0  0  0
   41.0914   31.3692   37.8872 H   0  0  0  0  0  0  0  0  0  0  0  0
   43.2242   32.5980   40.7593 H   0  0  0  0  0  0  0  0  0  0  0  0
   42.3475   34.2801   42.3575 H   0  0  0  0  0  0  0  0  0  0  0  0
   41.0035   36.2122   41.5441 H   0  0  0  0  0  0  0  0  0  0  0  0
   40.5546   36.4249   39.0747 H   0  0  0  0  0  0  0  0  0  0  0  0
   41.4394   34.7431   37.5586 H   0  0  0  0  0  0  0  0  0  0  0  0
  1 14  1  0
  1  6  1  0
  2 10  1  0
  3  2  2  0
  4  3  1  0
  5  6  1  0
  5  4  2  0
  6  7  2  0
  7  2  1  0
  8 13  2  0
  9  8  1  0
 10  9  2  0
 10 11  1  0
 11 12  2  0
 12 13  1  0
 15  1  1  0
 16  1  1  0
 17 16  1  0
 17 21  1  0
 18 19  1  0
 18 17  2  0
 19 20  2  0
 20 21  1  0
 21 22  1  0
 22 23  2  0
 23 24  1  0
 25 24  2  0
 26 25  1  0
 27 22  1  0
 27 26  2  0
  3 28  1  0
  4 29  1  0
  5 30  1  0
  7 31  1  0
  8 32  1  0
  9 33  1  0
 12 34  1  0
 14 35  1  0
 14 36  1  0
 14 37  1  0
 15 38  1  0
 15 39  1  0
 15 40  1  0
 16 41  1  0
 16 42  1  0
 18 43  1  0
 20 44  1  0
 23 45  1  0
 24 46  1  0
 25 47  1  0
 26 48  1  0
 27 49  1  0
M  ISO  8  28  14  29  14  30  14  31  14  32  14  33  14  34  14  35   8
M  ISO  8  36   8  37   8  38   8  39   8  40   8  41   8  42   8  43  14
M  ISO  6  44  14  45  14  46  14  47  14  48  14  49  14
M  END
>  <minimizedAffinity>  (1) 
-6.38598299

>  <minimizedRMSD>  (1) 
2.76833296

$$$$
