
     RDKit          3D

 52 55  0  0  0  0  0  0  0  0999 V2000
   46.4820   32.6800   38.8180 C   0  0  0  0  0  0  0  0  0  0  0  0
   46.6820   34.6540   42.0440 C   0  0  0  0  0  0  0  0  0  0  0  0
   47.8350   35.3670   41.8330 C   0  0  0  0  0  0  0  0  0  0  0  0
   48.5550   35.2160   40.6480 C   0  0  0  0  0  0  0  0  0  0  0  0
   48.1050   34.3370   39.6700 C   0  0  0  0  0  0  0  0  0  0  0  0
   46.9270   33.6020   39.8750 C   0  0  0  0  0  0  0  0  0  0  0  0
   46.2800   33.8010   41.0520 C   0  0  0  0  0  0  0  0  0  0  0  0
   44.4720   36.0050   44.7720 C   0  0  0  0  0  0  0  0  0  0  0  0
   45.1110   35.9230   43.5220 C   0  0  0  0  0  0  0  0  0  0  0  0
   45.9670   34.8460   43.2950 C   0  0  0  0  0  0  0  0  0  0  0  0
   46.1400   33.9390   44.2800 N   0  0  0  0  0  0  0  0  0  0  0  0
   45.4980   34.0620   45.4760 C   0  0  0  0  0  0  0  0  0  0  0  0
   44.6850   35.0710   45.7140 N   0  0  0  0  0  0  0  0  0  0  0  0
   45.7330   31.4850   39.3720 C   0  0  0  0  0  0  0  0  0  0  0  0
   47.7820   32.1230   38.2000 C   0  0  0  0  0  0  0  0  0  0  0  0
   45.6430   33.3220   37.7680 C   0  0  0  0  0  0  0  0  0  0  0  0
   44.3040   32.6410   37.7040 C   0  0  0  0  0  0  0  0  0  0  0  0
   43.9830   31.5070   36.9400 C   0  0  0  0  0  0  0  0  0  0  0  0
   42.6770   31.2010   37.1550 N   0  0  0  0  0  0  0  0  0  0  0  0
   42.1860   32.1110   38.0260 C   0  0  0  0  0  0  0  0  0  0  0  0
   43.1740   32.9780   38.3530 N   0  0  0  0  0  0  0  0  0  0  0  0
   42.9780   34.0830   39.2640 C   0  0  0  0  0  0  0  0  0  0  0  0
   41.6310   34.7580   39.0410 C   0  0  0  0  0  0  0  0  0  0  0  0
   41.5110   35.5710   40.3150 C   0  0  0  0  0  0  0  0  0  0  0  0
   42.2720   34.8150   41.3690 C   0  0  0  0  0  0  0  0  0  0  0  0
   42.7720   33.5480   40.6650 C   0  0  0  0  0  0  0  0  0  0  0  0
   48.1946   36.0635   42.6048 H   0  0  0  0  0  0  0  0  0  0  0  0
   49.4782   35.7921   40.4876 H   0  0  0  0  0  0  0  0  0  0  0  0
   48.6722   34.2173   38.7351 H   0  0  0  0  0  0  0  0  0  0  0  0
   45.3559   33.2291   41.2225 H   0  0  0  0  0  0  0  0  0  0  0  0
   43.7905   36.8428   44.9808 H   0  0  0  0  0  0  0  0  0  0  0  0
   44.9408   36.6850   42.7472 H   0  0  0  0  0  0  0  0  0  0  0  0
   45.6617   33.3048   46.2570 H   0  0  0  0  0  0  0  0  0  0  0  0
   45.7531   31.5171   40.4713 H   0  0  0  0  0  0  0  0  0  0  0  0
   44.6900   31.5122   39.0234 H   0  0  0  0  0  0  0  0  0  0  0  0
   46.2121   30.5582   39.0234 H   0  0  0  0  0  0  0  0  0  0  0  0
   48.4725   31.8271   39.0035 H   0  0  0  0  0  0  0  0  0  0  0  0
   47.5463   31.2469   37.5780 H   0  0  0  0  0  0  0  0  0  0  0  0
   48.2537   32.8980   37.5780 H   0  0  0  0  0  0  0  0  0  0  0  0
   45.5014   34.3852   38.0122 H   0  0  0  0  0  0  0  0  0  0  0  0
   46.1454   33.2310   36.7936 H   0  0  0  0  0  0  0  0  0  0  0  0
   44.6719   30.9597   36.2798 H   0  0  0  0  0  0  0  0  0  0  0  0
   41.1543   32.1422   38.4064 H   0  0  0  0  0  0  0  0  0  0  0  0
   43.8450   34.7441   39.1182 H   0  0  0  0  0  0  0  0  0  0  0  0
   41.6426   35.4015   38.1489 H   0  0  0  0  0  0  0  0  0  0  0  0
   40.7964   34.0644   38.8612 H   0  0  0  0  0  0  0  0  0  0  0  0
   41.9481   36.5703   40.1722 H   0  0  0  0  0  0  0  0  0  0  0  0
   40.4587   35.7108   40.6034 H   0  0  0  0  0  0  0  0  0  0  0  0
   43.1189   35.4123   41.7376 H   0  0  0  0  0  0  0  0  0  0  0  0
   41.6465   34.5824   42.2435 H   0  0  0  0  0  0  0  0  0  0  0  0
   42.0200   32.7455   40.6881 H   0  0  0  0  0  0  0  0  0  0  0  0
   43.6626   33.0890   41.1190 H   0  0  0  0  0  0  0  0  0  0  0  0
  1 14  1  0
  1  6  1  0
  2 10  1  0
  3  2  2  0
  4  3  1  0
  5  6  1  0
  5  4  2  0
  6  7  2  0
  7  2  1  0
  8 13  2  0
  9  8  1  0
 10  9  2  0
 10 11  1  0
 11 12  2  0
 12 13  1  0
 15  1  1  0
 16  1  1  0
 17 16  1  0
 17 21  1  0
 18 19  1  0
 18 17  2  0
 19 20  2  0
 20 21  1  0
 21 22  1  0
 22 26  1  0
 23 22  1  0
 23 24  1  0
 24 25  1  0
 26 25  1  0
  3 27  1  0
  4 28  1  0
  5 29  1  0
  7 30  1  0
  8 31  1  0
  9 32  1  0
 12 33  1  0
 14 34  1  0
 14 35  1  0
 14 36  1  0
 15 37  1  0
 15 38  1  0
 15 39  1  0
 16 40  1  0
 16 41  1  0
 18 42  1  0
 20 43  1  0
 22 44  1  0
 23 45  1  0
 23 46  1  0
 24 47  1  0
 24 48  1  0
 25 49  1  0
 25 50  1  0
 26 51  1  0
 26 52  1  0
M  ISO  8  27  14  28  14  29  14  30  14  31  14  32  14  33  14  34   8
M  ISO  8  35   8  36   8  37   8  38   8  39   8  40   8  41   8  42  14
M  ISO  8  43  14  44  13  45  13  46  13  47  13  48  13  49  13  50  13
M  ISO  2  51  13  52  13
M  END
>  <minimizedAffinity>  (1) 
-6.14083242

>  <minimizedRMSD>  (1) 
3.03019094

$$$$
