
     RDKit          3D

 45 48  0  0  0  0  0  0  0  0999 V2000
   48.0270   34.0840   42.1430 C   0  0  0  0  0  0  0  0  0  0  0  0
   46.1710   33.5230   45.3920 C   0  0  0  0  0  0  0  0  0  0  0  0
   45.1530   34.4270   45.2660 C   0  0  0  0  0  0  0  0  0  0  0  0
   45.0560   35.2250   44.1290 C   0  0  0  0  0  0  0  0  0  0  0  0
   45.9960   35.1140   43.1100 C   0  0  0  0  0  0  0  0  0  0  0  0
   47.0430   34.1880   43.2350 C   0  0  0  0  0  0  0  0  0  0  0  0
   47.0800   33.4380   44.3690 C   0  0  0  0  0  0  0  0  0  0  0  0
   45.5170   31.9650   48.7530 C   0  0  0  0  0  0  0  0  0  0  0  0
   45.3400   32.8170   47.6470 C   0  0  0  0  0  0  0  0  0  0  0  0
   46.2260   32.7130   46.6000 C   0  0  0  0  0  0  0  0  0  0  0  0
   47.2310   31.7870   46.6960 N   0  0  0  0  0  0  0  0  0  0  0  0
   47.3710   30.9830   47.7790 C   0  0  0  0  0  0  0  0  0  0  0  0
   46.5260   31.0740   48.7890 N   0  0  0  0  0  0  0  0  0  0  0  0
   48.3100   32.6450   41.7570 C   0  0  0  0  0  0  0  0  0  0  0  0
   49.3330   34.6600   42.7100 C   0  0  0  0  0  0  0  0  0  0  0  0
   47.6300   34.8320   40.9070 C   0  0  0  0  0  0  0  0  0  0  0  0
   47.4020   33.8610   39.7870 C   0  0  0  0  0  0  0  0  0  0  0  0
   48.3210   33.4270   38.8380 C   0  0  0  0  0  0  0  0  0  0  0  0
   47.7190   32.5470   37.9990 N   0  0  0  0  0  0  0  0  0  0  0  0
   46.4310   32.4230   38.4070 C   0  0  0  0  0  0  0  0  0  0  0  0
   46.2450   33.2200   39.4900 N   0  0  0  0  0  0  0  0  0  0  0  0
   44.9750   33.3280   40.1700 C   0  0  0  0  0  0  0  0  0  0  0  0
   44.6640   32.2680   40.9340 C   0  0  0  0  0  0  0  0  0  0  0  0
   43.0280   32.6670   41.6680 S   0  0  0  0  0  0  0  0  0  0  0  0
   43.0580   34.3430   40.7290 C   0  0  0  0  0  0  0  0  0  0  0  0
   44.0440   34.2490   40.2050 N   0  0  0  0  0  0  0  0  0  0  0  0
   44.4061   34.5245   46.0677 H   0  0  0  0  0  0  0  0  0  0  0  0
   44.2314   35.9471   44.0363 H   0  0  0  0  0  0  0  0  0  0  0  0
   45.9194   35.7468   42.2135 H   0  0  0  0  0  0  0  0  0  0  0  0
   47.8985   32.7105   44.4730 H   0  0  0  0  0  0  0  0  0  0  0  0
   44.8200   32.0279   49.6016 H   0  0  0  0  0  0  0  0  0  0  0  0
   44.5163   33.5456   47.6205 H   0  0  0  0  0  0  0  0  0  0  0  0
   48.1921   30.2520   47.8160 H   0  0  0  0  0  0  0  0  0  0  0  0
   48.4294   32.0381   42.6666 H   0  0  0  0  0  0  0  0  0  0  0  0
   47.4717   32.2533   41.1622 H   0  0  0  0  0  0  0  0  0  0  0  0
   49.2342   32.5999   41.1622 H   0  0  0  0  0  0  0  0  0  0  0  0
   49.2945   34.6430   43.8092 H   0  0  0  0  0  0  0  0  0  0  0  0
   50.1824   34.0530   42.3634 H   0  0  0  0  0  0  0  0  0  0  0  0
   49.4575   35.6965   42.3634 H   0  0  0  0  0  0  0  0  0  0  0  0
   46.7040   35.3936   41.0997 H   0  0  0  0  0  0  0  0  0  0  0  0
   48.4317   35.5317   40.6283 H   0  0  0  0  0  0  0  0  0  0  0  0
   49.3716   33.7471   38.7770 H   0  0  0  0  0  0  0  0  0  0  0  0
   45.6669   31.7847   37.9394 H   0  0  0  0  0  0  0  0  0  0  0  0
   45.2607   31.3567   41.0872 H   0  0  0  0  0  0  0  0  0  0  0  0
   42.3205   35.1589   40.7110 H   0  0  0  0  0  0  0  0  0  0  0  0
  1 15  1  0
  1  6  1  0
  2 10  1  0
  3  2  2  0
  4  3  1  0
  5  6  1  0
  5  4  2  0
  6  7  2  0
  7  2  1  0
  8 13  2  0
  9  8  1  0
 10 11  1  0
 10  9  2  0
 11 12  2  0
 12 13  1  0
 14  1  1  0
 16  1  1  0
 17 16  1  0
 18 17  2  0
 19 20  2  0
 19 18  1  0
 20 21  1  0
 21 17  1  0
 21 22  1  0
 22 26  1  0
 22 23  2  0
 23 24  1  0
 25 24  1  0
 26 25  2  0
  3 27  1  0
  4 28  1  0
  5 29  1  0
  7 30  1  0
  8 31  1  0
  9 32  1  0
 12 33  1  0
 14 34  1  0
 14 35  1  0
 14 36  1  0
 15 37  1  0
 15 38  1  0
 15 39  1  0
 16 40  1  0
 16 41  1  0
 18 42  1  0
 20 43  1  0
 23 44  1  0
 25 45  1  0
M  ISO  8  27  14  28  14  29  14  30  14  31  14  32  14  33  14  34   8
M  ISO  8  35   8  36   8  37   8  38   8  39   8  40   8  41   8  42  14
M  ISO  3  43  14  44  14  45  14
M  END
>  <minimizedAffinity>  (1) 
-6.05635977

>  <minimizedRMSD>  (1) 
4.5634408

$$$$
