
     RDKit          3D

 42 44  0  0  0  0  0  0  0  0999 V2000
   46.4390   33.0300   38.5830 C   0  0  0  0  0  0  0  0  0  0  0  0
   46.7290   34.7150   41.9590 C   0  0  0  0  0  0  0  0  0  0  0  0
   47.9410   35.3430   41.8240 C   0  0  0  0  0  0  0  0  0  0  0  0
   48.6730   35.2270   40.6450 C   0  0  0  0  0  0  0  0  0  0  0  0
   48.1730   34.4680   39.5890 C   0  0  0  0  0  0  0  0  0  0  0  0
   46.9420   33.8230   39.7070 C   0  0  0  0  0  0  0  0  0  0  0  0
   46.2720   33.9790   40.8990 C   0  0  0  0  0  0  0  0  0  0  0  0
   44.4920   35.9670   44.7140 C   0  0  0  0  0  0  0  0  0  0  0  0
   45.1310   35.9260   43.4650 C   0  0  0  0  0  0  0  0  0  0  0  0
   46.0080   34.8700   43.2100 C   0  0  0  0  0  0  0  0  0  0  0  0
   46.1950   33.9460   44.1760 N   0  0  0  0  0  0  0  0  0  0  0  0
   45.5540   34.0260   45.3720 C   0  0  0  0  0  0  0  0  0  0  0  0
   44.7170   35.0250   45.6300 N   0  0  0  0  0  0  0  0  0  0  0  0
   44.9500   32.7490   38.6830 C   0  0  0  0  0  0  0  0  0  0  0  0
   47.1300   31.6610   38.7030 C   0  0  0  0  0  0  0  0  0  0  0  0
   46.7110   33.6430   37.2520 C   0  0  0  0  0  0  0  0  0  0  0  0
   47.5490   32.7260   36.4250 C   0  0  0  0  0  0  0  0  0  0  0  0
   48.9480   32.6100   36.4720 C   0  0  0  0  0  0  0  0  0  0  0  0
   49.3240   31.6610   35.5640 N   0  0  0  0  0  0  0  0  0  0  0  0
   48.2200   31.2020   34.9730 C   0  0  0  0  0  0  0  0  0  0  0  0
   47.1440   31.8430   35.4920 N   0  0  0  0  0  0  0  0  0  0  0  0
   45.8270   31.5620   35.0420 C   0  0  0  0  0  0  0  0  0  0  0  0
   45.2330   32.7850   34.6730 F   0  0  0  0  0  0  0  0  0  0  0  0
   45.7530   30.8290   33.8710 F   0  0  0  0  0  0  0  0  0  0  0  0
   44.9600   31.0680   35.9840 F   0  0  0  0  0  0  0  0  0  0  0  0
   48.3386   35.9441   42.6551 H   0  0  0  0  0  0  0  0  0  0  0  0
   49.6444   35.7338   40.5476 H   0  0  0  0  0  0  0  0  0  0  0  0
   48.7517   34.3770   38.6580 H   0  0  0  0  0  0  0  0  0  0  0  0
   45.2997   33.4763   41.0078 H   0  0  0  0  0  0  0  0  0  0  0  0
   43.7957   36.7880   44.9402 H   0  0  0  0  0  0  0  0  0  0  0  0
   44.9462   36.7033   42.7090 H   0  0  0  0  0  0  0  0  0  0  0  0
   45.7304   33.2541   46.1356 H   0  0  0  0  0  0  0  0  0  0  0  0
   44.6576   32.6938   39.7420 H   0  0  0  0  0  0  0  0  0  0  0  0
   44.3904   33.5574   38.1897 H   0  0  0  0  0  0  0  0  0  0  0  0
   44.7235   31.7923   38.1897 H   0  0  0  0  0  0  0  0  0  0  0  0
   47.2583   31.4069   39.7655 H   0  0  0  0  0  0  0  0  0  0  0  0
   46.5111   30.8938   38.2146 H   0  0  0  0  0  0  0  0  0  0  0  0
   48.1147   31.7033   38.2146 H   0  0  0  0  0  0  0  0  0  0  0  0
   45.7576   33.8290   36.7357 H   0  0  0  0  0  0  0  0  0  0  0  0
   47.2505   34.5907   37.3963 H   0  0  0  0  0  0  0  0  0  0  0  0
   49.6226   33.1828   37.1253 H   0  0  0  0  0  0  0  0  0  0  0  0
   48.1877   30.4288   34.1913 H   0  0  0  0  0  0  0  0  0  0  0  0
  1 14  1  0
  1 15  1  0
  1  6  1  0
  2 10  1  0
  3  2  2  0
  4  3  1  0
  5  6  1  0
  5  4  2  0
  6  7  2  0
  7  2  1  0
  8 13  2  0
  9  8  1  0
 10  9  2  0
 10 11  1  0
 11 12  2  0
 12 13  1  0
 16  1  1  0
 17 18  2  0
 17 16  1  0
 19 18  1  0
 20 21  1  0
 20 19  2  0
 21 17  1  0
 22 21  1  0
 22 25  1  0
 23 22  1  0
 24 22  1  0
  3 26  1  0
  4 27  1  0
  5 28  1  0
  7 29  1  0
  8 30  1  0
  9 31  1  0
 12 32  1  0
 14 33  1  0
 14 34  1  0
 14 35  1  0
 15 36  1  0
 15 37  1  0
 15 38  1  0
 16 39  1  0
 16 40  1  0
 18 41  1  0
 20 42  1  0
M  ISO  8  26  14  27  14  28  14  29  14  30  14  31  14  32  14  33   8
M  ISO  8  34   8  35   8  36   8  37   8  38   8  39   8  40   8  41  14
M  ISO  1  42  14
M  END
>  <minimizedAffinity>  (1) 
-5.93340969

>  <minimizedRMSD>  (1) 
1.74705136

$$$$
