
     RDKit          3D

 13 13  0  0  0  0  0  0  0  0999 V2000
   44.6010   35.9480   44.3720 C   0  0  0  0  0  0  0  0  0  0  0  0
   45.3960   35.8680   43.1950 C   0  0  0  0  0  0  0  0  0  0  0  0
   46.3280   34.8290   43.1120 C   0  0  0  0  0  0  0  0  0  0  0  0
   46.4230   33.9590   44.1510 N   0  0  0  0  0  0  0  0  0  0  0  0
   45.6510   34.0620   45.2590 C   0  0  0  0  0  0  0  0  0  0  0  0
   44.7540   35.0530   45.3520 N   0  0  0  0  0  0  0  0  0  0  0  0
   47.1740   34.7200   41.8930 C   0  0  0  0  0  0  0  0  0  0  0  0
   47.9540   35.8600   41.8780 F   0  0  0  0  0  0  0  0  0  0  0  0
   48.0130   33.6260   41.9470 F   0  0  0  0  0  0  0  0  0  0  0  0
   46.4150   34.6510   40.7450 F   0  0  0  0  0  0  0  0  0  0  0  0
   43.8564   36.7510   44.4757 H   0  0  0  0  0  0  0  0  0  0  0  0
   45.2816   36.5973   42.3795 H   0  0  0  0  0  0  0  0  0  0  0  0
   45.7598   33.3360   46.0782 H   0  0  0  0  0  0  0  0  0  0  0  0
  1  6  2  0
  2  1  1  0
  3  2  2  0
  3  4  1  0
  4  5  2  0
  5  6  1  0
  7  9  1  0
  7  3  1  0
  8  7  1  0
 10  7  1  0
  1 11  1  0
  2 12  1  0
  5 13  1  0
M  ISO  3  11  14  12  14  13  14
M  END
>  <minimizedAffinity>  (1) 
-3.80395865

>  <minimizedRMSD>  (1) 
0.675944448

$$$$
