
     RDKit          3D

 43 45  0  0  0  0  0  0  0  0999 V2000
   47.2360   30.7040   46.8690 C   0  0  0  0  0  0  0  0  0  0  0  0
   45.6200   33.8600   45.8420 C   0  0  0  0  0  0  0  0  0  0  0  0
   45.2320   33.6530   44.5090 C   0  0  0  0  0  0  0  0  0  0  0  0
   45.5550   32.3920   44.0120 C   0  0  0  0  0  0  0  0  0  0  0  0
   46.1870   31.4790   44.7790 N   0  0  0  0  0  0  0  0  0  0  0  0
   46.5390   31.7320   46.0610 C   0  0  0  0  0  0  0  0  0  0  0  0
   46.2370   32.9210   46.5390 N   0  0  0  0  0  0  0  0  0  0  0  0
   44.5670   34.6130   43.6980 N   0  0  0  0  0  0  0  0  0  0  0  0
   45.1200   35.1770   42.5070 C   0  0  0  0  0  0  0  0  0  0  0  0
   46.4140   35.4240   42.5320 N   0  0  0  0  0  0  0  0  0  0  0  0
   44.1810   35.3960   41.4410 N   0  0  0  0  0  0  0  0  0  0  0  0
   46.8910   35.8210   41.7070 H   0  0  0  0  0  0  0  0  0  0  0  0
   46.1370   29.8490   47.5570 C   0  0  0  0  0  0  0  0  0  0  0  0
   47.9470   29.8020   45.9010 C   0  0  0  0  0  0  0  0  0  0  0  0
   48.0830   31.2360   47.9660 C   0  0  0  0  0  0  0  0  0  0  0  0
   48.8830   30.3110   48.7520 C   0  0  0  0  0  0  0  0  0  0  0  0
   48.8990   28.9180   48.5590 C   0  0  0  0  0  0  0  0  0  0  0  0
   49.7180   28.3060   49.4320 N   0  0  0  0  0  0  0  0  0  0  0  0
   50.2780   29.2290   50.2330 C   0  0  0  0  0  0  0  0  0  0  0  0
   51.1800   29.1860   51.2820 C   0  0  0  0  0  0  0  0  0  0  0  0
   51.5810   30.3420   51.9200 C   0  0  0  0  0  0  0  0  0  0  0  0
   51.0730   31.5560   51.5020 C   0  0  0  0  0  0  0  0  0  0  0  0
   50.1770   31.5800   50.4580 C   0  0  0  0  0  0  0  0  0  0  0  0
   49.7650   30.4350   49.8110 C   0  0  0  0  0  0  0  0  0  0  0  0
   45.4053   34.8278   46.3188 H   0  0  0  0  0  0  0  0  0  0  0  0
   45.2900   32.1360   42.9755 H   0  0  0  0  0  0  0  0  0  0  0  0
   43.6277   34.9213   43.9870 H   0  0  0  0  0  0  0  0  0  0  0  0
   43.1891   35.1504   41.5699 H   0  0  0  0  0  0  0  0  0  0  0  0
   44.5001   35.7985   40.5482 H   0  0  0  0  0  0  0  0  0  0  0  0
   46.2401   29.9292   48.6492 H   0  0  0  0  0  0  0  0  0  0  0  0
   45.1447   30.2150   47.2545 H   0  0  0  0  0  0  0  0  0  0  0  0
   46.2477   28.7972   47.2545 H   0  0  0  0  0  0  0  0  0  0  0  0
   48.5343   29.0569   46.4577 H   0  0  0  0  0  0  0  0  0  0  0  0
   47.2083   29.2883   45.2682 H   0  0  0  0  0  0  0  0  0  0  0  0
   48.6190   30.4003   45.2682 H   0  0  0  0  0  0  0  0  0  0  0  0
   48.7778   31.9596   47.5146 H   0  0  0  0  0  0  0  0  0  0  0  0
   47.3569   31.6361   48.6889 H   0  0  0  0  0  0  0  0  0  0  0  0
   48.3138   28.3940   47.7890 H   0  0  0  0  0  0  0  0  0  0  0  0
   49.8891   27.2914   49.4795 H   0  0  0  0  0  0  0  0  0  0  0  0
   51.5828   28.2169   51.6116 H   0  0  0  0  0  0  0  0  0  0  0  0
   52.2980   30.2968   52.7530 H   0  0  0  0  0  0  0  0  0  0  0  0
   51.3799   32.4897   51.9961 H   0  0  0  0  0  0  0  0  0  0  0  0
   49.7746   32.5490   50.1276 H   0  0  0  0  0  0  0  0  0  0  0  0
  1 13  1  0
  1 15  1  0
  2  7  2  0
  3  2  1  0
  4  3  2  0
  4  5  1  0
  5  6  2  0
  6  7  1  0
  6  1  1  0
  8  3  1  0
  9 10  2  0
  9  8  1  0
 11  9  1  0
 12 10  1  0
 14  1  1  0
 15 16  1  0
 16 24  1  0
 17 16  2  0
 17 18  1  0
 18 19  1  0
 19 20  2  0
 20 21  1  0
 22 21  2  0
 23 22  1  0
 24 19  1  0
 24 23  2  0
  2 25  1  0
  4 26  1  0
  8 27  1  0
 11 28  1  0
 11 29  1  0
 13 30  1  0
 13 31  1  0
 13 32  1  0
 14 33  1  0
 14 34  1  0
 14 35  1  0
 15 36  1  0
 15 37  1  0
 17 38  1  0
 18 39  1  0
 20 40  1  0
 21 41  1  0
 22 42  1  0
 23 43  1  0
M  ISO  8  25  14  26  14  30   8  31   8  32   8  33   8  34   8  35   8
M  ISO  8  36   8  37   8  38  14  39   9  40  14  41  14  42  14  43  14
M  END
>  <minimizedAffinity>  (1) 
-5.30986834

>  <minimizedRMSD>  (1) 
2.78158355

$$$$
