
     RDKit          3D

 36 37  0  0  0  0  0  0  0  0999 V2000
   45.3570   33.9880   46.3380 C   0  0  0  0  0  0  0  0  0  0  0  0
   45.1780   34.0250   44.9400 C   0  0  0  0  0  0  0  0  0  0  0  0
   45.5760   32.8630   44.2740 C   0  0  0  0  0  0  0  0  0  0  0  0
   46.0870   31.8170   44.9590 N   0  0  0  0  0  0  0  0  0  0  0  0
   46.2380   31.8350   46.3020 C   0  0  0  0  0  0  0  0  0  0  0  0
   45.8680   32.9210   46.9530 N   0  0  0  0  0  0  0  0  0  0  0  0
   44.6370   35.1420   44.2520 N   0  0  0  0  0  0  0  0  0  0  0  0
   45.0380   35.5450   42.9440 C   0  0  0  0  0  0  0  0  0  0  0  0
   46.3330   35.4420   42.6850 N   0  0  0  0  0  0  0  0  0  0  0  0
   43.9830   36.0070   42.0840 N   0  0  0  0  0  0  0  0  0  0  0  0
   46.7060   35.7060   41.7590 H   0  0  0  0  0  0  0  0  0  0  0  0
   46.8020   30.6590   46.9830 C   0  0  0  0  0  0  0  0  0  0  0  0
   45.6890   29.6150   47.1680 C   0  0  0  0  0  0  0  0  0  0  0  0
   47.8630   30.0670   46.0930 C   0  0  0  0  0  0  0  0  0  0  0  0
   47.3380   30.9280   48.3650 C   0  0  0  0  0  0  0  0  0  0  0  0
   48.8080   30.8390   48.5260 C   0  0  0  0  0  0  0  0  0  0  0  0
   49.2300   30.3810   49.9410 C   0  0  0  0  0  0  0  0  0  0  0  0
   49.6000   31.7170   49.4230 C   0  0  0  0  0  0  0  0  0  0  0  0
   45.0672   34.8634   46.9378 H   0  0  0  0  0  0  0  0  0  0  0  0
   45.4721   32.7994   43.1808 H   0  0  0  0  0  0  0  0  0  0  0  0
   43.9098   35.6959   44.7266 H   0  0  0  0  0  0  0  0  0  0  0  0
   44.1979   36.3144   41.1247 H   0  0  0  0  0  0  0  0  0  0  0  0
   43.0121   36.0307   42.4270 H   0  0  0  0  0  0  0  0  0  0  0  0
   45.5146   29.4514   48.2417 H   0  0  0  0  0  0  0  0  0  0  0  0
   44.7635   29.9783   46.6974 H   0  0  0  0  0  0  0  0  0  0  0  0
   45.9925   28.6682   46.6974 H   0  0  0  0  0  0  0  0  0  0  0  0
   48.6565   29.6243   46.7130 H   0  0  0  0  0  0  0  0  0  0  0  0
   47.4161   29.2879   45.4580 H   0  0  0  0  0  0  0  0  0  0  0  0
   48.2913   30.8565   45.4580 H   0  0  0  0  0  0  0  0  0  0  0  0
   47.0300   31.9441   48.6524 H   0  0  0  0  0  0  0  0  0  0  0  0
   46.9238   30.1319   49.0011 H   0  0  0  0  0  0  0  0  0  0  0  0
   48.9472   30.5725   47.4679 H   0  0  0  0  0  0  0  0  0  0  0  0
   48.4788   30.2852   50.7388 H   0  0  0  0  0  0  0  0  0  0  0  0
   49.7755   29.5217   50.3583 H   0  0  0  0  0  0  0  0  0  0  0  0
   50.6512   31.9322   49.1808 H   0  0  0  0  0  0  0  0  0  0  0  0
   49.4642   32.7423   49.7976 H   0  0  0  0  0  0  0  0  0  0  0  0
  1  6  2  0
  2  1  1  0
  3  2  2  0
  3  4  1  0
  4  5  2  0
  5  6  1  0
  5 12  1  0
  7  2  1  0
  8  7  1  0
  9  8  2  0
 10  8  1  0
 11  9  1  0
 12 13  1  0
 12 15  1  0
 14 12  1  0
 15 16  1  0
 16 18  1  0
 16 17  1  0
 18 17  1  0
  1 19  1  0
  3 20  1  0
  7 21  1  0
 10 22  1  0
 10 23  1  0
 13 24  1  0
 13 25  1  0
 13 26  1  0
 14 27  1  0
 14 28  1  0
 14 29  1  0
 15 30  1  0
 15 31  1  0
 16 32  1  0
 17 33  1  0
 17 34  1  0
 18 35  1  0
 18 36  1  0
M  ISO  8  19  14  20  14  24   8  25   8  26   8  27   8  28   8  29   8
M  ISO  7  30   8  31   8  32  13  33  13  34  13  35  13  36  13
M  END
>  <minimizedAffinity>  (1) 
-4.41166878

>  <minimizedRMSD>  (1) 
1.26005828

$$$$
