
     RDKit          3D

 43 44  0  0  0  0  0  0  0  0999 V2000
   47.4540   30.2310   45.1880 C   0  0  0  0  0  0  0  0  0  0  0  0
   47.3330   33.6360   43.7810 C   0  0  0  0  0  0  0  0  0  0  0  0
   45.9730   33.8950   43.5760 C   0  0  0  0  0  0  0  0  0  0  0  0
   45.1320   32.8530   43.9400 C   0  0  0  0  0  0  0  0  0  0  0  0
   45.6390   31.7130   44.4440 N   0  0  0  0  0  0  0  0  0  0  0  0
   46.9560   31.5070   44.6250 C   0  0  0  0  0  0  0  0  0  0  0  0
   47.7830   32.4880   44.2840 N   0  0  0  0  0  0  0  0  0  0  0  0
   45.4800   35.1210   43.0380 N   0  0  0  0  0  0  0  0  0  0  0  0
   44.8020   35.2300   41.7950 C   0  0  0  0  0  0  0  0  0  0  0  0
   45.2730   34.4720   40.8140 N   0  0  0  0  0  0  0  0  0  0  0  0
   43.6890   36.1560   41.7790 N   0  0  0  0  0  0  0  0  0  0  0  0
   44.8350   34.4870   39.8820 H   0  0  0  0  0  0  0  0  0  0  0  0
   46.3310   29.2110   45.1740 C   0  0  0  0  0  0  0  0  0  0  0  0
   48.5300   29.7330   44.2120 C   0  0  0  0  0  0  0  0  0  0  0  0
   48.0360   30.3320   46.5540 C   0  0  0  0  0  0  0  0  0  0  0  0
   47.2500   30.8340   47.6040 N   0  0  0  0  0  0  0  0  0  0  0  0
   46.9440   32.2440   47.5900 C   0  0  0  0  0  0  0  0  0  0  0  0
   45.7640   32.5360   48.5370 C   0  0  0  0  0  0  0  0  0  0  0  0
   45.7330   31.4830   49.5680 N   0  0  0  0  0  0  0  0  0  0  0  0
   45.2410   30.2940   48.9030 C   0  0  0  0  0  0  0  0  0  0  0  0
   45.9720   30.1450   47.5880 C   0  0  0  0  0  0  0  0  0  0  0  0
   48.0625   34.4151   43.5149 H   0  0  0  0  0  0  0  0  0  0  0  0
   44.0442   32.9596   43.8158 H   0  0  0  0  0  0  0  0  0  0  0  0
   45.6250   35.9812   43.5857 H   0  0  0  0  0  0  0  0  0  0  0  0
   43.1451   36.2926   40.9151 H   0  0  0  0  0  0  0  0  0  0  0  0
   43.4412   36.6781   42.6316 H   0  0  0  0  0  0  0  0  0  0  0  0
   46.0525   28.9581   46.2077 H   0  0  0  0  0  0  0  0  0  0  0  0
   45.4593   29.6325   44.6521 H   0  0  0  0  0  0  0  0  0  0  0  0
   46.6670   28.3029   44.6521 H   0  0  0  0  0  0  0  0  0  0  0  0
   49.3851   29.3373   44.7797 H   0  0  0  0  0  0  0  0  0  0  0  0
   48.1106   28.9374   43.5786 H   0  0  0  0  0  0  0  0  0  0  0  0
   48.8651   30.5676   43.5786 H   0  0  0  0  0  0  0  0  0  0  0  0
   48.3488   29.3182   46.8445 H   0  0  0  0  0  0  0  0  0  0  0  0
   48.8300   31.0850   46.4421 H   0  0  0  0  0  0  0  0  0  0  0  0
   47.8261   32.8116   47.9212 H   0  0  0  0  0  0  0  0  0  0  0  0
   46.6698   32.5441   46.5679 H   0  0  0  0  0  0  0  0  0  0  0  0
   45.9013   33.5187   49.0117 H   0  0  0  0  0  0  0  0  0  0  0  0
   44.8183   32.5474   47.9753 H   0  0  0  0  0  0  0  0  0  0  0  0
   46.6786   31.3194   49.9421 H   0  0  0  0  0  0  0  0  0  0  0  0
   45.4271   29.4120   49.5334 H   0  0  0  0  0  0  0  0  0  0  0  0
   44.1588   30.3807   48.7259 H   0  0  0  0  0  0  0  0  0  0  0  0
   45.3499   30.5660   46.7844 H   0  0  0  0  0  0  0  0  0  0  0  0
   46.1612   29.0745   47.4197 H   0  0  0  0  0  0  0  0  0  0  0  0
  1 15  1  0
  2  7  2  0
  3  2  1  0
  3  4  2  0
  4  5  1  0
  5  6  2  0
  6  1  1  0
  7  6  1  0
  8  3  1  0
  9  8  1  0
 10  9  2  0
 11  9  1  0
 12 10  1  0
 13  1  1  0
 14  1  1  0
 15 16  1  0
 17 16  1  0
 17 18  1  0
 18 19  1  0
 20 19  1  0
 21 16  1  0
 21 20  1  0
  2 22  1  0
  4 23  1  0
  8 24  1  0
 11 25  1  0
 11 26  1  0
 13 27  1  0
 13 28  1  0
 13 29  1  0
 14 30  1  0
 14 31  1  0
 14 32  1  0
 15 33  1  0
 15 34  1  0
 17 35  1  0
 17 36  1  0
 18 37  1  0
 18 38  1  0
 19 39  1  0
 20 40  1  0
 20 41  1  0
 21 42  1  0
 21 43  1  0
M  ISO  8  22  14  23  14  27   8  28   8  29   8  30   8  31   8  32   8
M  ISO  8  33   8  34   8  35  13  36  13  37  13  38  13  39   5  40  13
M  ISO  3  41  13  42  13  43  13
M  END
>  <minimizedAffinity>  (1) 
-4.4060812

>  <minimizedRMSD>  (1) 
1.42945898

$$$$
