
     RDKit          3D

 42 43  0  0  0  0  0  0  0  0999 V2000
   47.0540   30.2290   46.4910 C   0  0  0  0  0  0  0  0  0  0  0  0
   45.7450   33.6820   46.1670 C   0  0  0  0  0  0  0  0  0  0  0  0
   45.2940   33.7490   44.8250 C   0  0  0  0  0  0  0  0  0  0  0  0
   45.4660   32.5870   44.0960 C   0  0  0  0  0  0  0  0  0  0  0  0
   46.0220   31.4950   44.6560 N   0  0  0  0  0  0  0  0  0  0  0  0
   46.4360   31.4710   45.9310 C   0  0  0  0  0  0  0  0  0  0  0  0
   46.2870   32.5790   46.6690 N   0  0  0  0  0  0  0  0  0  0  0  0
   44.7100   34.9400   44.2970 N   0  0  0  0  0  0  0  0  0  0  0  0
   45.0490   35.4850   43.0350 C   0  0  0  0  0  0  0  0  0  0  0  0
   46.3410   35.4380   42.7260 N   0  0  0  0  0  0  0  0  0  0  0  0
   43.9660   36.0100   42.2480 N   0  0  0  0  0  0  0  0  0  0  0  0
   46.6920   35.8390   41.8480 H   0  0  0  0  0  0  0  0  0  0  0  0
   46.0110   29.0900   46.3510 C   0  0  0  0  0  0  0  0  0  0  0  0
   48.2250   29.8930   45.6260 C   0  0  0  0  0  0  0  0  0  0  0  0
   47.3590   30.3370   47.9590 C   0  0  0  0  0  0  0  0  0  0  0  0
   48.6890   30.3500   48.3460 N   0  0  0  0  0  0  0  0  0  0  0  0
   49.3100   29.1280   48.5830 C   0  0  0  0  0  0  0  0  0  0  0  0
   50.2050   29.1050   49.8080 C   0  0  0  0  0  0  0  0  0  0  0  0
   49.6730   30.0030   50.7290 O   0  0  0  0  0  0  0  0  0  0  0  0
   49.9220   31.2870   50.2380 C   0  0  0  0  0  0  0  0  0  0  0  0
   49.1950   31.5180   48.9320 C   0  0  0  0  0  0  0  0  0  0  0  0
   45.6431   34.5684   46.8103 H   0  0  0  0  0  0  0  0  0  0  0  0
   45.1446   32.5535   43.0445 H   0  0  0  0  0  0  0  0  0  0  0  0
   44.0037   35.4293   44.8650 H   0  0  0  0  0  0  0  0  0  0  0  0
   44.1537   36.4189   41.3215 H   0  0  0  0  0  0  0  0  0  0  0  0
   43.0026   35.9772   42.6108 H   0  0  0  0  0  0  0  0  0  0  0  0
   45.7012   28.7516   47.3508 H   0  0  0  0  0  0  0  0  0  0  0  0
   45.1336   29.4618   45.8015 H   0  0  0  0  0  0  0  0  0  0  0  0
   46.4584   28.2487   45.8015 H   0  0  0  0  0  0  0  0  0  0  0  0
   49.0895   29.6449   46.2593 H   0  0  0  0  0  0  0  0  0  0  0  0
   47.9761   29.0300   44.9909 H   0  0  0  0  0  0  0  0  0  0  0  0
   48.4715   30.7567   44.9909 H   0  0  0  0  0  0  0  0  0  0  0  0
   46.9037   31.2710   48.3202 H   0  0  0  0  0  0  0  0  0  0  0  0
   46.9547   29.4108   48.3933 H   0  0  0  0  0  0  0  0  0  0  0  0
   48.5285   28.3650   48.7139 H   0  0  0  0  0  0  0  0  0  0  0  0
   49.9596   28.9336   47.7168 H   0  0  0  0  0  0  0  0  0  0  0  0
   50.2267   28.0931   50.2389 H   0  0  0  0  0  0  0  0  0  0  0  0
   51.2348   29.3857   49.5420 H   0  0  0  0  0  0  0  0  0  0  0  0
   49.5795   32.0271   50.9762 H   0  0  0  0  0  0  0  0  0  0  0  0
   51.0026   31.3911   50.0609 H   0  0  0  0  0  0  0  0  0  0  0  0
   49.8959   31.9844   48.2240 H   0  0  0  0  0  0  0  0  0  0  0  0
   48.3310   32.1600   49.1585 H   0  0  0  0  0  0  0  0  0  0  0  0
  1 15  1  0
  2  7  2  0
  3  2  1  0
  4  5  1  0
  4  3  2  0
  5  6  2  0
  6  1  1  0
  6  7  1  0
  8  3  1  0
  9  8  1  0
 10  9  2  0
 11  9  1  0
 12 10  1  0
 13  1  1  0
 14  1  1  0
 15 16  1  0
 16 17  1  0
 16 21  1  0
 17 18  1  0
 18 19  1  0
 20 19  1  0
 21 20  1  0
  2 22  1  0
  4 23  1  0
  8 24  1  0
 11 25  1  0
 11 26  1  0
 13 27  1  0
 13 28  1  0
 13 29  1  0
 14 30  1  0
 14 31  1  0
 14 32  1  0
 15 33  1  0
 15 34  1  0
 17 35  1  0
 17 36  1  0
 18 37  1  0
 18 38  1  0
 20 39  1  0
 20 40  1  0
 21 41  1  0
 21 42  1  0
M  ISO  8  22  14  23  14  27   8  28   8  29   8  30   8  31   8  32   8
M  ISO  8  33   8  34   8  35  13  36  13  37  13  38  13  39  13  40  13
M  ISO  2  41  13  42  13
M  END
>  <minimizedAffinity>  (1) 
-4.57655239

>  <minimizedRMSD>  (1) 
1.42588377

$$$$
