
     RDKit          3D

 30 30  0  0  0  0  0  0  0  0999 V2000
   45.7270   33.7070   45.9570 C   0  0  0  0  0  0  0  0  0  0  0  0
   45.2270   33.8050   44.6390 C   0  0  0  0  0  0  0  0  0  0  0  0
   45.3200   32.6290   43.8990 C   0  0  0  0  0  0  0  0  0  0  0  0
   45.8520   31.5100   44.4410 N   0  0  0  0  0  0  0  0  0  0  0  0
   46.3170   31.4700   45.7110 C   0  0  0  0  0  0  0  0  0  0  0  0
   46.2450   32.5800   46.4530 N   0  0  0  0  0  0  0  0  0  0  0  0
   44.6780   35.0070   44.1160 N   0  0  0  0  0  0  0  0  0  0  0  0
   45.0530   35.5650   42.8600 C   0  0  0  0  0  0  0  0  0  0  0  0
   46.3380   35.4980   42.5670 N   0  0  0  0  0  0  0  0  0  0  0  0
   43.9660   36.1260   42.0860 N   0  0  0  0  0  0  0  0  0  0  0  0
   46.6910   35.8800   41.6800 H   0  0  0  0  0  0  0  0  0  0  0  0
   46.8810   30.2050   46.2180 C   0  0  0  0  0  0  0  0  0  0  0  0
   45.8960   29.0680   45.9520 C   0  0  0  0  0  0  0  0  0  0  0  0
   48.1650   29.9430   45.4800 C   0  0  0  0  0  0  0  0  0  0  0  0
   47.1140   30.2270   47.7210 C   0  0  0  0  0  0  0  0  0  0  0  0
   48.2000   31.0790   47.9460 O   0  0  0  0  0  0  0  0  0  0  0  0
   45.6880   34.5970   46.6023 H   0  0  0  0  0  0  0  0  0  0  0  0
   44.9563   32.6100   42.8610 H   0  0  0  0  0  0  0  0  0  0  0  0
   43.9696   35.5022   44.6762 H   0  0  0  0  0  0  0  0  0  0  0  0
   44.1537   36.5491   41.1659 H   0  0  0  0  0  0  0  0  0  0  0  0
   43.0048   36.1021   42.4554 H   0  0  0  0  0  0  0  0  0  0  0  0
   45.5413   28.6586   46.9094 H   0  0  0  0  0  0  0  0  0  0  0  0
   45.0399   29.4514   45.3775 H   0  0  0  0  0  0  0  0  0  0  0  0
   46.3975   28.2753   45.3775 H   0  0  0  0  0  0  0  0  0  0  0  0
   48.9767   29.7774   46.2037 H   0  0  0  0  0  0  0  0  0  0  0  0
   48.0492   29.0500   44.8483 H   0  0  0  0  0  0  0  0  0  0  0  0
   48.4083   30.8100   44.8483 H   0  0  0  0  0  0  0  0  0  0  0  0
   46.2204   30.6070   48.2378 H   0  0  0  0  0  0  0  0  0  0  0  0
   47.3172   29.2165   48.1051 H   0  0  0  0  0  0  0  0  0  0  0  0
   48.3381   31.1873   48.9203 H   0  0  0  0  0  0  0  0  0  0  0  0
  1  6  2  0
  2  1  1  0
  3  4  1  0
  3  2  2  0
  4  5  2  0
  5 12  1  0
  5  6  1  0
  7  2  1  0
  8  7  1  0
  9  8  2  0
 10  8  1  0
 11  9  1  0
 12 15  1  0
 13 12  1  0
 14 12  1  0
 15 16  1  0
  1 17  1  0
  3 18  1  0
  7 19  1  0
 10 20  1  0
 10 21  1  0
 13 22  1  0
 13 23  1  0
 13 24  1  0
 14 25  1  0
 14 26  1  0
 14 27  1  0
 15 28  1  0
 15 29  1  0
 16 30  1  0
M  ISO  8  17  14  18  14  22   8  23   8  24   8  25   8  26   8  27   8
M  ISO  3  28   8  29   8  30   3
M  END
>  <minimizedAffinity>  (1) 
-3.63838458

>  <minimizedRMSD>  (1) 
0.424806416

$$$$
