
     RDKit          3D

 44 45  0  0  0  0  0  0  0  0999 V2000
   47.1550   30.1920   46.3440 C   0  0  0  0  0  0  0  0  0  0  0  0
   45.8220   33.6310   46.0670 C   0  0  0  0  0  0  0  0  0  0  0  0
   45.3040   33.7070   44.7660 C   0  0  0  0  0  0  0  0  0  0  0  0
   45.4410   32.5310   44.0130 C   0  0  0  0  0  0  0  0  0  0  0  0
   46.0300   31.4460   44.5470 N   0  0  0  0  0  0  0  0  0  0  0  0
   46.5160   31.4230   45.8150 C   0  0  0  0  0  0  0  0  0  0  0  0
   46.3980   32.5350   46.5520 N   0  0  0  0  0  0  0  0  0  0  0  0
   44.6860   34.8790   44.2320 N   0  0  0  0  0  0  0  0  0  0  0  0
   45.0710   35.4780   42.9900 C   0  0  0  0  0  0  0  0  0  0  0  0
   46.3470   35.4810   42.7220 N   0  0  0  0  0  0  0  0  0  0  0  0
   43.9590   35.9900   42.2210 N   0  0  0  0  0  0  0  0  0  0  0  0
   46.7070   35.8960   41.8450 H   0  0  0  0  0  0  0  0  0  0  0  0
   46.1570   29.0160   46.1370 C   0  0  0  0  0  0  0  0  0  0  0  0
   48.3490   29.9120   45.4750 C   0  0  0  0  0  0  0  0  0  0  0  0
   47.4240   30.2310   47.8100 C   0  0  0  0  0  0  0  0  0  0  0  0
   48.7230   30.5200   48.2500 N   0  0  0  0  0  0  0  0  0  0  0  0
   49.5920   29.4670   48.6140 C   0  0  0  0  0  0  0  0  0  0  0  0
   49.9120   29.4600   50.1070 C   0  0  0  0  0  0  0  0  0  0  0  0
   50.2930   30.7970   50.6510 C   0  0  0  0  0  0  0  0  0  0  0  0
   50.1430   31.9280   49.6610 C   0  0  0  0  0  0  0  0  0  0  0  0
   48.7960   31.7290   48.9880 C   0  0  0  0  0  0  0  0  0  0  0  0
   45.7486   34.5170   46.7148 H   0  0  0  0  0  0  0  0  0  0  0  0
   45.0646   32.4961   42.9800 H   0  0  0  0  0  0  0  0  0  0  0  0
   43.9233   35.3161   44.7688 H   0  0  0  0  0  0  0  0  0  0  0  0
   44.1269   36.4411   41.3104 H   0  0  0  0  0  0  0  0  0  0  0  0
   42.9989   35.9037   42.5837 H   0  0  0  0  0  0  0  0  0  0  0  0
   45.8326   28.6337   47.1161 H   0  0  0  0  0  0  0  0  0  0  0  0
   45.2817   29.3726   45.5743 H   0  0  0  0  0  0  0  0  0  0  0  0
   46.6513   28.2104   45.5743 H   0  0  0  0  0  0  0  0  0  0  0  0
   49.2240   29.7068   46.1092 H   0  0  0  0  0  0  0  0  0  0  0  0
   48.1433   29.0377   44.8399 H   0  0  0  0  0  0  0  0  0  0  0  0
   48.5535   30.7866   44.8399 H   0  0  0  0  0  0  0  0  0  0  0  0
   46.7593   30.9944   48.2406 H   0  0  0  0  0  0  0  0  0  0  0  0
   47.2556   29.1951   48.1393 H   0  0  0  0  0  0  0  0  0  0  0  0
   49.1163   28.5107   48.3511 H   0  0  0  0  0  0  0  0  0  0  0  0
   50.5376   29.6123   48.0710 H   0  0  0  0  0  0  0  0  0  0  0  0
   49.0233   29.1058   50.6499 H   0  0  0  0  0  0  0  0  0  0  0  0
   50.7816   28.8004   50.2437 H   0  0  0  0  0  0  0  0  0  0  0  0
   49.6545   31.0114   51.5207 H   0  0  0  0  0  0  0  0  0  0  0  0
   51.3600   30.7421   50.9126 H   0  0  0  0  0  0  0  0  0  0  0  0
   50.1691   32.8964   50.1821 H   0  0  0  0  0  0  0  0  0  0  0  0
   50.9614   31.9274   48.9260 H   0  0  0  0  0  0  0  0  0  0  0  0
   48.6181   32.5705   48.3023 H   0  0  0  0  0  0  0  0  0  0  0  0
   48.0344   31.6797   49.7801 H   0  0  0  0  0  0  0  0  0  0  0  0
  1 15  1  0
  2  7  2  0
  3  2  1  0
  4  5  1  0
  4  3  2  0
  5  6  2  0
  6  1  1  0
  6  7  1  0
  8  3  1  0
  9  8  1  0
 10  9  2  0
 11  9  1  0
 12 10  1  0
 13  1  1  0
 14  1  1  0
 15 16  1  0
 16 17  1  0
 16 21  1  0
 17 18  1  0
 18 19  1  0
 20 19  1  0
 21 20  1  0
  2 22  1  0
  4 23  1  0
  8 24  1  0
 11 25  1  0
 11 26  1  0
 13 27  1  0
 13 28  1  0
 13 29  1  0
 14 30  1  0
 14 31  1  0
 14 32  1  0
 15 33  1  0
 15 34  1  0
 17 35  1  0
 17 36  1  0
 18 37  1  0
 18 38  1  0
 19 39  1  0
 19 40  1  0
 20 41  1  0
 20 42  1  0
 21 43  1  0
 21 44  1  0
M  ISO  8  22  14  23  14  27   8  28   8  29   8  30   8  31   8  32   8
M  ISO  8  33   8  34   8  35  13  36  13  37  13  38  13  39  13  40  13
M  ISO  4  41  13  42  13  43  13  44  13
M  END
>  <minimizedAffinity>  (1) 
-4.69543886

>  <minimizedRMSD>  (1) 
1.06308627

$$$$
