
     RDKit          3D

 51 53  0  0  1  0  0  0  0  0999 V2000
   47.5320   30.0290   45.0580 C   0  0  0  0  0  0  0  0  0  0  0  0
   46.1950   33.4730   45.2270 C   0  0  0  0  0  0  0  0  0  0  0  0
   45.2530   33.5520   44.1960 C   0  0  0  0  0  0  0  0  0  0  0  0
   45.1140   32.3640   43.4540 C   0  0  0  0  0  0  0  0  0  0  0  0
   45.8480   31.2820   43.7580 N   0  0  0  0  0  0  0  0  0  0  0  0
   46.7480   31.2590   44.7710 C   0  0  0  0  0  0  0  0  0  0  0  0
   46.9010   32.3830   45.4950 N   0  0  0  0  0  0  0  0  0  0  0  0
   44.4870   34.7150   43.8960 N   0  0  0  0  0  0  0  0  0  0  0  0
   44.7700   35.5990   42.8190 C   0  0  0  0  0  0  0  0  0  0  0  0
   46.0330   35.8180   42.5750 N   0  0  0  0  0  0  0  0  0  0  0  0
   43.6170   36.1290   42.1470 N   0  0  0  0  0  0  0  0  0  0  0  0
   46.3450   36.4680   41.8360 H   0  0  0  0  0  0  0  0  0  0  0  0
   46.8370   28.8520   44.3250 C   0  0  0  0  0  0  0  0  0  0  0  0
   48.8770   30.2240   44.4070 C   0  0  0  0  0  0  0  0  0  0  0  0
   47.5740   29.6520   46.4940 C   0  0  0  0  0  0  0  0  0  0  0  0
   48.6620   30.0860   47.2740 N   0  0  0  0  0  0  0  0  0  0  0  0
   49.6060   29.1610   47.7440 C   0  0  0  0  0  0  0  0  0  0  0  0
   49.5390   28.9600   49.2580 C   0  0  0  0  0  0  0  0  0  0  0  0
   49.4930   30.2380   50.0310 C   0  0  0  0  0  0  0  0  0  0  0  0
   49.3500   31.4670   49.1780 C   0  0  0  0  0  0  0  0  0  0  0  0
   48.3330   31.1860   48.1110 C   0  0  2  0  0  0  0  0  0  0  0  0
   46.9670   31.1680   48.5930 N   0  0  0  0  0  0  0  0  0  0  0  0
   46.3610   29.9910   48.4370 N   0  0  0  0  0  0  0  0  0  0  0  0
   45.0980   30.0420   48.9050 C   0  0  0  0  0  0  0  0  0  0  0  0
   44.8930   31.3020   49.3770 C   0  0  0  0  0  0  0  0  0  0  0  0
   46.0610   31.9880   49.1770 C   0  0  0  0  0  0  0  0  0  0  0  0
   46.3592   34.3645   45.8500 H   0  0  0  0  0  0  0  0  0  0  0  0
   44.3989   32.3219   42.6192 H   0  0  0  0  0  0  0  0  0  0  0  0
   43.6780   34.9287   44.4966 H   0  0  0  0  0  0  0  0  0  0  0  0
   43.7350   36.7773   41.3554 H   0  0  0  0  0  0  0  0  0  0  0  0
   42.6719   35.8609   42.4566 H   0  0  0  0  0  0  0  0  0  0  0  0
   46.4235   28.1517   45.0657 H   0  0  0  0  0  0  0  0  0  0  0  0
   46.0239   29.2414   43.6947 H   0  0  0  0  0  0  0  0  0  0  0  0
   47.5707   28.3281   43.6947 H   0  0  0  0  0  0  0  0  0  0  0  0
   49.6477   30.3357   45.1839 H   0  0  0  0  0  0  0  0  0  0  0  0
   49.1114   29.3505   43.7809 H   0  0  0  0  0  0  0  0  0  0  0  0
   48.8537   31.1282   43.7809 H   0  0  0  0  0  0  0  0  0  0  0  0
   46.6613   30.0510   46.9606 H   0  0  0  0  0  0  0  0  0  0  0  0
   47.6746   28.5567   46.4803 H   0  0  0  0  0  0  0  0  0  0  0  0
   49.4241   28.1936   47.2531 H   0  0  0  0  0  0  0  0  0  0  0  0
   50.6040   29.5587   47.5076 H   0  0  0  0  0  0  0  0  0  0  0  0
   48.6342   28.3797   49.4918 H   0  0  0  0  0  0  0  0  0  0  0  0
   50.4604   28.4373   49.5545 H   0  0  0  0  0  0  0  0  0  0  0  0
   48.6366   30.1942   50.7199 H   0  0  0  0  0  0  0  0  0  0  0  0
   50.4561   30.3263   50.5550 H   0  0  0  0  0  0  0  0  0  0  0  0
   49.0152   32.3123   49.7972 H   0  0  0  0  0  0  0  0  0  0  0  0
   50.3167   31.7249   48.7208 H   0  0  0  0  0  0  0  0  0  0  0  0
   48.3822   32.0615   47.4468 H   0  0  0  0  0  0  0  0  0  0  0  0
   44.3687   29.2185   48.9054 H   0  0  0  0  0  0  0  0  0  0  0  0
   43.9700   31.6926   49.8303 H   0  0  0  0  0  0  0  0  0  0  0  0
   46.2360   33.0396   49.4480 H   0  0  0  0  0  0  0  0  0  0  0  0
  1 15  1  0
  2  7  2  0
  3  2  1  0
  4  5  1  0
  4  3  2  0
  5  6  2  0
  6  1  1  0
  6  7  1  0
  8  3  1  0
  9  8  1  0
 10  9  2  0
 11  9  1  0
 12 10  1  0
 13  1  1  0
 14  1  1  0
 15 16  1  0
 16 17  1  0
 16 21  1  0
 17 18  1  0
 18 19  1  0
 20 19  1  0
 21 22  1  0
 21 20  1  0
 22 26  1  0
 23 22  1  0
 23 24  2  0
 24 25  1  0
 26 25  2  0
  2 27  1  0
  4 28  1  0
  8 29  1  0
 11 30  1  0
 11 31  1  0
 13 32  1  0
 13 33  1  0
 13 34  1  0
 14 35  1  0
 14 36  1  0
 14 37  1  0
 15 38  1  0
 15 39  1  0
 17 40  1  0
 17 41  1  0
 18 42  1  0
 18 43  1  0
 19 44  1  0
 19 45  1  0
 20 46  1  0
 20 47  1  0
 21 48  1  6
 24 49  1  0
 25 50  1  0
 26 51  1  0
M  ISO  8  27  14  28  14  32   8  33   8  34   8  35   8  36   8  37   8
M  ISO  8  38   8  39   8  40  13  41  13  42  13  43  13  44  13  45  13
M  ISO  6  46  13  47  13  48  13  49  14  50  14  51  14
M  END
>  <minimizedAffinity>  (1) 
-5.06397057

>  <minimizedRMSD>  (1) 
1.31649828

$$$$
