
     RDKit          3D

 54 56  0  0  1  0  0  0  0  0999 V2000
   47.4780   29.2690   45.4800 C   0  0  0  0  0  0  0  0  0  0  0  0
   48.6170   29.1940   46.2780 N   0  0  0  0  0  0  0  0  0  0  0  0
   49.2450   27.9530   46.5110 C   0  0  0  0  0  0  0  0  0  0  0  0
   49.2150   27.5400   47.9630 C   0  0  0  0  0  0  0  0  0  0  0  0
   49.5190   28.6190   48.9420 C   0  0  0  0  0  0  0  0  0  0  0  0
   49.7790   29.9470   48.2990 C   0  0  0  0  0  0  0  0  0  0  0  0
   48.6880   30.1850   47.2710 C   0  0  2  0  0  0  0  0  0  0  0  0
   47.4160   30.6130   47.8830 C   0  0  0  0  0  0  0  0  0  0  0  0
   47.1590   31.8750   48.3780 C   0  0  0  0  0  0  0  0  0  0  0  0
   45.9600   32.2510   48.9470 C   0  0  0  0  0  0  0  0  0  0  0  0
   44.9310   31.3430   49.0470 C   0  0  0  0  0  0  0  0  0  0  0  0
   45.1110   30.0630   48.5760 C   0  0  0  0  0  0  0  0  0  0  0  0
   46.3280   29.7440   48.0180 C   0  0  0  0  0  0  0  0  0  0  0  0
   47.5630   29.9380   44.1390 C   0  0  0  0  0  0  0  0  0  0  0  0
   44.9290   32.4620   43.4700 C   0  0  0  0  0  0  0  0  0  0  0  0
   45.4180   33.6460   44.0200 C   0  0  0  0  0  0  0  0  0  0  0  0
   46.6700   33.5290   44.6180 C   0  0  0  0  0  0  0  0  0  0  0  0
   47.3110   32.3390   44.6320 N   0  0  0  0  0  0  0  0  0  0  0  0
   46.7950   31.2180   44.0840 C   0  0  0  0  0  0  0  0  0  0  0  0
   45.5870   31.3080   43.5020 N   0  0  0  0  0  0  0  0  0  0  0  0
   44.7110   34.8860   43.9860 N   0  0  0  0  0  0  0  0  0  0  0  0
   44.5280   35.7210   45.1410 C   0  0  0  0  0  0  0  0  0  0  0  0
   44.3170   35.1070   46.2800 N   0  0  0  0  0  0  0  0  0  0  0  0
   44.6080   37.1300   44.8460 N   0  0  0  0  0  0  0  0  0  0  0  0
   44.1870   35.6470   47.1440 H   0  0  0  0  0  0  0  0  0  0  0  0
   46.9130   28.9610   43.1310 C   0  0  0  0  0  0  0  0  0  0  0  0
   48.9420   30.2460   43.6540 C   0  0  0  0  0  0  0  0  0  0  0  0
   47.1418   28.2367   45.3028 H   0  0  0  0  0  0  0  0  0  0  0  0
   46.8010   29.9196   46.0531 H   0  0  0  0  0  0  0  0  0  0  0  0
   48.7310   27.1830   45.9169 H   0  0  0  0  0  0  0  0  0  0  0  0
   50.3007   28.0589   46.2208 H   0  0  0  0  0  0  0  0  0  0  0  0
   48.2090   27.1544   48.1850 H   0  0  0  0  0  0  0  0  0  0  0  0
   50.0125   26.7916   48.0808 H   0  0  0  0  0  0  0  0  0  0  0  0
   48.6622   28.7231   49.6240 H   0  0  0  0  0  0  0  0  0  0  0  0
   50.4380   28.3283   49.4721 H   0  0  0  0  0  0  0  0  0  0  0  0
   49.7570   30.7418   49.0592 H   0  0  0  0  0  0  0  0  0  0  0  0
   50.7685   29.9547   47.8186 H   0  0  0  0  0  0  0  0  0  0  0  0
   48.9860   31.0633   46.6795 H   0  0  0  0  0  0  0  0  0  0  0  0
   47.9591   32.6272   48.3150 H   0  0  0  0  0  0  0  0  0  0  0  0
   45.8265   33.2769   49.3209 H   0  0  0  0  0  0  0  0  0  0  0  0
   43.9728   31.6380   49.4996 H   0  0  0  0  0  0  0  0  0  0  0  0
   44.3059   29.3165   48.6434 H   0  0  0  0  0  0  0  0  0  0  0  0
   46.4563   28.7168   47.6460 H   0  0  0  0  0  0  0  0  0  0  0  0
   43.9433   32.4843   42.9822 H   0  0  0  0  0  0  0  0  0  0  0  0
   47.1397   34.4092   45.0813 H   0  0  0  0  0  0  0  0  0  0  0  0
   44.3123   35.1975   43.0888 H   0  0  0  0  0  0  0  0  0  0  0  0
   44.4915   37.8215   45.6004 H   0  0  0  0  0  0  0  0  0  0  0  0
   44.7817   37.4450   43.8809 H   0  0  0  0  0  0  0  0  0  0  0  0
   46.3846   28.1668   43.6788 H   0  0  0  0  0  0  0  0  0  0  0  0
   46.1983   29.5082   42.4987 H   0  0  0  0  0  0  0  0  0  0  0  0
   47.6939   28.5132   42.4987 H   0  0  0  0  0  0  0  0  0  0  0  0
   49.6091   30.3950   44.5159 H   0  0  0  0  0  0  0  0  0  0  0  0
   49.3119   29.4084   43.0445 H   0  0  0  0  0  0  0  0  0  0  0  0
   48.9204   31.1614   43.0445 H   0  0  0  0  0  0  0  0  0  0  0  0
  1  2  1  0
  2  3  1  0
  2  7  1  0
  3  4  1  0
  4  5  1  0
  6  5  1  0
  7  8  1  0
  7  6  1  0
  8 13  1  0
  8  9  2  0
  9 10  1  0
 10 11  2  0
 12 11  1  0
 13 12  2  0
 14  1  1  0
 15 20  2  0
 15 16  1  0
 16 17  2  0
 17 18  1  0
 19 14  1  0
 19 18  2  0
 20 19  1  0
 21 16  1  0
 21 22  1  0
 22 23  2  0
 23 25  1  0
 24 22  1  0
 26 14  1  0
 27 14  1  0
  1 28  1  0
  1 29  1  0
  3 30  1  0
  3 31  1  0
  4 32  1  0
  4 33  1  0
  5 34  1  0
  5 35  1  0
  6 36  1  0
  6 37  1  0
  7 38  1  6
  9 39  1  0
 10 40  1  0
 11 41  1  0
 12 42  1  0
 13 43  1  0
 15 44  1  0
 17 45  1  0
 21 46  1  0
 24 47  1  0
 24 48  1  0
 26 49  1  0
 26 50  1  0
 26 51  1  0
 27 52  1  0
 27 53  1  0
 27 54  1  0
M  ISO  8  28   8  29   8  30  13  31  13  32  13  33  13  34  13  35  13
M  ISO  8  36  13  37  13  38  13  39  14  40  14  41  14  42  14  43  14
M  ISO  8  44  14  45  14  49   8  50   8  51   8  52   8  53   8  54   8
M  END
>  <minimizedAffinity>  (1) 
-5.73413181

>  <minimizedRMSD>  (1) 
2.55343747

$$$$
