
     RDKit          3D

 51 53  0  0  1  0  0  0  0  0999 V2000
   47.6470   30.0270   44.7960 C   0  0  0  0  0  0  0  0  0  0  0  0
   46.3280   33.4750   45.0100 C   0  0  0  0  0  0  0  0  0  0  0  0
   45.2780   33.5260   44.0960 C   0  0  0  0  0  0  0  0  0  0  0  0
   45.0610   32.3220   43.4180 C   0  0  0  0  0  0  0  0  0  0  0  0
   45.8250   31.2380   43.6620 N   0  0  0  0  0  0  0  0  0  0  0  0
   46.8330   31.2490   44.5630 C   0  0  0  0  0  0  0  0  0  0  0  0
   47.0630   32.3920   45.2270 N   0  0  0  0  0  0  0  0  0  0  0  0
   44.4840   34.6830   43.8540 N   0  0  0  0  0  0  0  0  0  0  0  0
   44.7470   35.6060   42.7840 C   0  0  0  0  0  0  0  0  0  0  0  0
   45.9990   35.8670   42.5500 N   0  0  0  0  0  0  0  0  0  0  0  0
   43.5470   36.0980   42.1380 N   0  0  0  0  0  0  0  0  0  0  0  0
   46.2670   36.5170   41.7920 H   0  0  0  0  0  0  0  0  0  0  0  0
   47.0000   28.8780   43.9690 C   0  0  0  0  0  0  0  0  0  0  0  0
   48.9990   30.2940   44.2030 C   0  0  0  0  0  0  0  0  0  0  0  0
   47.6450   29.5600   46.2180 C   0  0  0  0  0  0  0  0  0  0  0  0
   48.6850   29.9690   47.0530 N   0  0  0  0  0  0  0  0  0  0  0  0
   49.6370   29.0460   47.5180 C   0  0  0  0  0  0  0  0  0  0  0  0
   49.5360   28.7900   49.0220 C   0  0  0  0  0  0  0  0  0  0  0  0
   49.4680   30.0430   49.8270 C   0  0  0  0  0  0  0  0  0  0  0  0
   49.3030   31.2990   49.0240 C   0  0  0  0  0  0  0  0  0  0  0  0
   48.3050   31.0270   47.9280 C   0  0  2  0  0  0  0  0  0  0  0  0
   46.9310   30.9450   48.4480 C   0  0  0  0  0  0  0  0  0  0  0  0
   46.1610   31.9220   49.0530 C   0  0  0  0  0  0  0  0  0  0  0  0
   44.9480   31.2870   49.3400 C   0  0  0  0  0  0  0  0  0  0  0  0
   45.0630   29.9660   48.8900 C   0  0  0  0  0  0  0  0  0  0  0  0
   46.2470   29.8260   48.3780 O   0  0  0  0  0  0  0  0  0  0  0  0
   46.5609   34.3839   45.5842 H   0  0  0  0  0  0  0  0  0  0  0  0
   44.2538   32.2584   42.6735 H   0  0  0  0  0  0  0  0  0  0  0  0
   43.6833   34.8672   44.4751 H   0  0  0  0  0  0  0  0  0  0  0  0
   43.6193   36.7658   41.3572 H   0  0  0  0  0  0  0  0  0  0  0  0
   42.6216   35.7799   42.4596 H   0  0  0  0  0  0  0  0  0  0  0  0
   46.5772   28.1272   44.6528 H   0  0  0  0  0  0  0  0  0  0  0  0
   46.2002   29.2881   43.3349 H   0  0  0  0  0  0  0  0  0  0  0  0
   47.7654   28.4067   43.3349 H   0  0  0  0  0  0  0  0  0  0  0  0
   49.7316   30.4387   45.0107 H   0  0  0  0  0  0  0  0  0  0  0  0
   49.3024   29.4384   43.5818 H   0  0  0  0  0  0  0  0  0  0  0  0
   48.9543   31.2007   43.5818 H   0  0  0  0  0  0  0  0  0  0  0  0
   46.7063   29.9087   46.6733 H   0  0  0  0  0  0  0  0  0  0  0  0
   47.7709   28.4697   46.1442 H   0  0  0  0  0  0  0  0  0  0  0  0
   49.4884   28.0928   46.9894 H   0  0  0  0  0  0  0  0  0  0  0  0
   50.6318   29.4730   47.3230 H   0  0  0  0  0  0  0  0  0  0  0  0
   48.6282   28.1999   49.2161 H   0  0  0  0  0  0  0  0  0  0  0  0
   50.4485   28.2555   49.3250 H   0  0  0  0  0  0  0  0  0  0  0  0
   48.6133   29.9619   50.5146 H   0  0  0  0  0  0  0  0  0  0  0  0
   50.4348   30.1313   50.3443 H   0  0  0  0  0  0  0  0  0  0  0  0
   48.9349   32.1092   49.6706 H   0  0  0  0  0  0  0  0  0  0  0  0
   50.2677   31.6051   48.5932 H   0  0  0  0  0  0  0  0  0  0  0  0
   48.3119   31.9049   47.2653 H   0  0  0  0  0  0  0  0  0  0  0  0
   46.4402   32.9653   49.2618 H   0  0  0  0  0  0  0  0  0  0  0  0
   44.0711   31.7392   49.8264 H   0  0  0  0  0  0  0  0  0  0  0  0
   44.2891   29.1873   48.9583 H   0  0  0  0  0  0  0  0  0  0  0  0
  1 15  1  0
  2  7  2  0
  3  2  1  0
  4  5  1  0
  4  3  2  0
  5  6  2  0
  6  1  1  0
  6  7  1  0
  8  3  1  0
  9  8  1  0
 10  9  2  0
 11  9  1  0
 12 10  1  0
 13  1  1  0
 14  1  1  0
 15 16  1  0
 16 17  1  0
 16 21  1  0
 17 18  1  0
 18 19  1  0
 20 19  1  0
 21 22  1  0
 21 20  1  0
 22 23  2  0
 23 24  1  0
 25 24  2  0
 26 22  1  0
 26 25  1  0
  2 27  1  0
  4 28  1  0
  8 29  1  0
 11 30  1  0
 11 31  1  0
 13 32  1  0
 13 33  1  0
 13 34  1  0
 14 35  1  0
 14 36  1  0
 14 37  1  0
 15 38  1  0
 15 39  1  0
 17 40  1  0
 17 41  1  0
 18 42  1  0
 18 43  1  0
 19 44  1  0
 19 45  1  0
 20 46  1  0
 20 47  1  0
 21 48  1  6
 23 49  1  0
 24 50  1  0
 25 51  1  0
M  ISO  8  27  14  28  14  32   8  33   8  34   8  35   8  36   8  37   8
M  ISO  8  38   8  39   8  40  13  41  13  42  13  43  13  44  13  45  13
M  ISO  6  46  13  47  13  48  13  49  14  50  14  51  14
M  END
>  <minimizedAffinity>  (1) 
-4.93636227

>  <minimizedRMSD>  (1) 
1.57486677

$$$$
