
     RDKit          3D

 51 53  0  0  1  0  0  0  0  0999 V2000
   47.2620   30.2220   44.5100 C   0  0  0  0  0  0  0  0  0  0  0  0
   46.2530   33.7650   44.1510 C   0  0  0  0  0  0  0  0  0  0  0  0
   45.0210   33.7180   43.4880 C   0  0  0  0  0  0  0  0  0  0  0  0
   44.5780   32.4310   43.1850 C   0  0  0  0  0  0  0  0  0  0  0  0
   45.3090   31.3550   43.5220 N   0  0  0  0  0  0  0  0  0  0  0  0
   46.4940   31.4410   44.1610 C   0  0  0  0  0  0  0  0  0  0  0  0
   46.9360   32.6570   44.4600 N   0  0  0  0  0  0  0  0  0  0  0  0
   44.2620   34.8740   43.1410 N   0  0  0  0  0  0  0  0  0  0  0  0
   43.8170   35.1590   41.8100 C   0  0  0  0  0  0  0  0  0  0  0  0
   44.6410   34.8510   40.8450 N   0  0  0  0  0  0  0  0  0  0  0  0
   42.5050   35.7540   41.7470 N   0  0  0  0  0  0  0  0  0  0  0  0
   44.3930   35.0240   39.8570 H   0  0  0  0  0  0  0  0  0  0  0  0
   46.6020   29.0290   43.7410 C   0  0  0  0  0  0  0  0  0  0  0  0
   48.6310   30.3840   43.9400 C   0  0  0  0  0  0  0  0  0  0  0  0
   47.1970   29.8480   45.9550 C   0  0  0  0  0  0  0  0  0  0  0  0
   48.1300   30.4230   46.8270 N   0  0  0  0  0  0  0  0  0  0  0  0
   49.2210   29.6330   47.2830 C   0  0  0  0  0  0  0  0  0  0  0  0
   49.1570   29.3300   48.7750 C   0  0  0  0  0  0  0  0  0  0  0  0
   48.8340   30.5230   49.6210 C   0  0  0  0  0  0  0  0  0  0  0  0
   48.5520   31.7780   48.8110 C   0  0  0  0  0  0  0  0  0  0  0  0
   47.5580   31.3340   47.7360 C   0  0  2  0  0  0  0  0  0  0  0  0
   46.3320   30.7200   48.4180 C   0  0  0  0  0  0  0  0  0  0  0  0
   45.5720   31.4310   49.4440 C   0  0  0  0  0  0  0  0  0  0  0  0
   44.9800   31.4230   48.0850 C   0  0  0  0  0  0  0  0  0  0  0  0
   46.6727   34.7437   44.4266 H   0  0  0  0  0  0  0  0  0  0  0  0
   43.6188   32.2949   42.6640 H   0  0  0  0  0  0  0  0  0  0  0  0
   44.0206   35.5404   43.8883 H   0  0  0  0  0  0  0  0  0  0  0  0
   42.0932   35.9974   40.8348 H   0  0  0  0  0  0  0  0  0  0  0  0
   41.9797   35.9356   42.6142 H   0  0  0  0  0  0  0  0  0  0  0  0
   46.2008   28.3037   44.4642 H   0  0  0  0  0  0  0  0  0  0  0  0
   45.7848   29.4072   43.1092 H   0  0  0  0  0  0  0  0  0  0  0  0
   47.3566   28.5377   43.1092 H   0  0  0  0  0  0  0  0  0  0  0  0
   49.3610   30.4704   44.7583 H   0  0  0  0  0  0  0  0  0  0  0  0
   48.8763   29.5086   43.3207 H   0  0  0  0  0  0  0  0  0  0  0  0
   48.6652   31.2925   43.3207 H   0  0  0  0  0  0  0  0  0  0  0  0
   46.1963   30.1235   46.3192 H   0  0  0  0  0  0  0  0  0  0  0  0
   47.4328   28.7737   45.9709 H   0  0  0  0  0  0  0  0  0  0  0  0
   49.2183   28.6810   46.7320 H   0  0  0  0  0  0  0  0  0  0  0  0
   50.1407   30.2095   47.1045 H   0  0  0  0  0  0  0  0  0  0  0  0
   48.3821   28.5671   48.9410 H   0  0  0  0  0  0  0  0  0  0  0  0
   50.1578   28.9860   49.0752 H   0  0  0  0  0  0  0  0  0  0  0  0
   47.9450   30.2912   50.2260 H   0  0  0  0  0  0  0  0  0  0  0  0
   49.7175   30.7292   50.2430 H   0  0  0  0  0  0  0  0  0  0  0  0
   48.1110   32.5592   49.4476 H   0  0  0  0  0  0  0  0  0  0  0  0
   49.4676   32.2073   48.3781 H   0  0  0  0  0  0  0  0  0  0  0  0
   47.2606   32.2165   47.1506 H   0  0  0  0  0  0  0  0  0  0  0  0
   46.7732   29.7129   48.3855 H   0  0  0  0  0  0  0  0  0  0  0  0
   45.0849   30.8585   50.2471 H   0  0  0  0  0  0  0  0  0  0  0  0
   45.8279   32.2350   50.1498 H   0  0  0  0  0  0  0  0  0  0  0  0
   44.9637   32.3408   47.4789 H   0  0  0  0  0  0  0  0  0  0  0  0
   44.0193   31.1243   47.6402 H   0  0  0  0  0  0  0  0  0  0  0  0
  1 15  1  0
  2  7  2  0
  3  2  1  0
  4  3  2  0
  4  5  1  0
  5  6  2  0
  6  7  1  0
  6  1  1  0
  8  3  1  0
  9  8  1  0
 10  9  2  0
 11  9  1  0
 12 10  1  0
 13  1  1  0
 14  1  1  0
 15 16  1  0
 16 17  1  0
 16 21  1  0
 17 18  1  0
 18 19  1  0
 20 19  1  0
 21 22  1  0
 21 20  1  0
 22 23  1  0
 24 22  1  0
 24 23  1  0
  2 25  1  0
  4 26  1  0
  8 27  1  0
 11 28  1  0
 11 29  1  0
 13 30  1  0
 13 31  1  0
 13 32  1  0
 14 33  1  0
 14 34  1  0
 14 35  1  0
 15 36  1  0
 15 37  1  0
 17 38  1  0
 17 39  1  0
 18 40  1  0
 18 41  1  0
 19 42  1  0
 19 43  1  0
 20 44  1  0
 20 45  1  0
 21 46  1  6
 22 47  1  0
 23 48  1  0
 23 49  1  0
 24 50  1  0
 24 51  1  0
M  ISO  8  25  14  26  14  30   8  31   8  32   8  33   8  34   8  35   8
M  ISO  8  36   8  37   8  38  13  39  13  40  13  41  13  42  13  43  13
M  ISO  8  44  13  45  13  46  13  47  13  48  13  49  13  50  13  51  13
M  END
>  <minimizedAffinity>  (1) 
-4.94131899

>  <minimizedRMSD>  (1) 
1.83954692

$$$$
