
     RDKit          3D

 52 54  0  0  1  0  0  0  0  0999 V2000
   47.7810   29.7570   44.3570 C   0  0  0  0  0  0  0  0  0  0  0  0
   46.4940   33.1790   44.8950 C   0  0  0  0  0  0  0  0  0  0  0  0
   45.3910   33.2880   44.0230 C   0  0  0  0  0  0  0  0  0  0  0  0
   45.1370   32.1440   43.2680 C   0  0  0  0  0  0  0  0  0  0  0  0
   45.9140   31.0490   43.4020 N   0  0  0  0  0  0  0  0  0  0  0  0
   46.9650   30.9970   44.2580 C   0  0  0  0  0  0  0  0  0  0  0  0
   47.2220   32.0820   44.9880 N   0  0  0  0  0  0  0  0  0  0  0  0
   44.5910   34.4570   43.9040 N   0  0  0  0  0  0  0  0  0  0  0  0
   44.7850   35.4510   42.8920 C   0  0  0  0  0  0  0  0  0  0  0  0
   46.0210   35.7160   42.5610 N   0  0  0  0  0  0  0  0  0  0  0  0
   43.5470   36.0170   42.3860 N   0  0  0  0  0  0  0  0  0  0  0  0
   46.2410   36.4220   41.8360 H   0  0  0  0  0  0  0  0  0  0  0  0
   47.2070   28.7360   43.3310 C   0  0  0  0  0  0  0  0  0  0  0  0
   49.1650   30.1020   43.8700 C   0  0  0  0  0  0  0  0  0  0  0  0
   47.7000   29.0940   45.6900 C   0  0  0  0  0  0  0  0  0  0  0  0
   48.8050   29.1680   46.5370 N   0  0  0  0  0  0  0  0  0  0  0  0
   49.5230   27.9990   46.8820 C   0  0  0  0  0  0  0  0  0  0  0  0
   49.3620   27.6460   48.3630 C   0  0  0  0  0  0  0  0  0  0  0  0
   49.6280   28.8050   49.2690 C   0  0  0  0  0  0  0  0  0  0  0  0
   49.7850   30.1280   48.5780 C   0  0  0  0  0  0  0  0  0  0  0  0
   48.7480   30.2110   47.4900 C   0  0  2  0  0  0  0  0  0  0  0  0
   47.4120   30.5050   48.0480 C   0  0  0  0  0  0  0  0  0  0  0  0
   47.1060   31.6970   48.7160 C   0  0  0  0  0  0  0  0  0  0  0  0
   45.8400   31.9170   49.2170 C   0  0  0  0  0  0  0  0  0  0  0  0
   44.9100   30.9800   49.0600 N   0  0  0  0  0  0  0  0  0  0  0  0
   45.2430   29.8310   48.4040 C   0  0  0  0  0  0  0  0  0  0  0  0
   46.4680   29.5860   47.9030 N   0  0  0  0  0  0  0  0  0  0  0  0
   46.7582   34.0428   45.5228 H   0  0  0  0  0  0  0  0  0  0  0  0
   44.2970   32.1339   42.5578 H   0  0  0  0  0  0  0  0  0  0  0  0
   43.8296   34.5967   44.5835 H   0  0  0  0  0  0  0  0  0  0  0  0
   43.5732   36.7415   41.6544 H   0  0  0  0  0  0  0  0  0  0  0  0
   42.6428   35.6939   42.7588 H   0  0  0  0  0  0  0  0  0  0  0  0
   46.7370   27.8999   43.8695 H   0  0  0  0  0  0  0  0  0  0  0  0
   46.4564   29.2336   42.6993 H   0  0  0  0  0  0  0  0  0  0  0  0
   48.0222   28.3533   42.6993 H   0  0  0  0  0  0  0  0  0  0  0  0
   49.8268   30.2670   44.7330 H   0  0  0  0  0  0  0  0  0  0  0  0
   49.5564   29.2739   43.2608 H   0  0  0  0  0  0  0  0  0  0  0  0
   49.1219   31.0169   43.2608 H   0  0  0  0  0  0  0  0  0  0  0  0
   46.8499   29.5426   46.2249 H   0  0  0  0  0  0  0  0  0  0  0  0
   47.6124   28.0232   45.4538 H   0  0  0  0  0  0  0  0  0  0  0  0
   49.1511   27.1609   46.2743 H   0  0  0  0  0  0  0  0  0  0  0  0
   50.5900   28.1853   46.6901 H   0  0  0  0  0  0  0  0  0  0  0  0
   48.3321   27.2982   48.5311 H   0  0  0  0  0  0  0  0  0  0  0  0
   50.1008   26.8660   48.5989 H   0  0  0  0  0  0  0  0  0  0  0  0
   48.7880   28.8862   49.9746 H   0  0  0  0  0  0  0  0  0  0  0  0
   50.5912   28.5977   49.7582 H   0  0  0  0  0  0  0  0  0  0  0  0
   49.6360   30.9455   49.2988 H   0  0  0  0  0  0  0  0  0  0  0  0
   50.7947   30.2184   48.1510 H   0  0  0  0  0  0  0  0  0  0  0  0
   49.0042   31.0799   46.8660 H   0  0  0  0  0  0  0  0  0  0  0  0
   47.8829   32.4654   48.8424 H   0  0  0  0  0  0  0  0  0  0  0  0
   45.6029   32.8554   49.7396 H   0  0  0  0  0  0  0  0  0  0  0  0
   44.4669   29.0618   48.2775 H   0  0  0  0  0  0  0  0  0  0  0  0
  1 15  1  0
  2  7  2  0
  3  2  1  0
  4  5  1  0
  4  3  2  0
  5  6  2  0
  6  1  1  0
  6  7  1  0
  8  3  1  0
  9  8  1  0
 10  9  2  0
 11  9  1  0
 12 10  1  0
 13  1  1  0
 14  1  1  0
 15 16  1  0
 16 17  1  0
 16 21  1  0
 17 18  1  0
 18 19  1  0
 20 19  1  0
 21 22  1  0
 21 20  1  0
 22 23  2  0
 23 24  1  0
 25 24  2  0
 26 25  1  0
 27 22  1  0
 27 26  2  0
  2 28  1  0
  4 29  1  0
  8 30  1  0
 11 31  1  0
 11 32  1  0
 13 33  1  0
 13 34  1  0
 13 35  1  0
 14 36  1  0
 14 37  1  0
 14 38  1  0
 15 39  1  0
 15 40  1  0
 17 41  1  0
 17 42  1  0
 18 43  1  0
 18 44  1  0
 19 45  1  0
 19 46  1  0
 20 47  1  0
 20 48  1  0
 21 49  1  6
 23 50  1  0
 24 51  1  0
 26 52  1  0
M  ISO  8  28  14  29  14  33   8  34   8  35   8  36   8  37   8  38   8
M  ISO  8  39   8  40   8  41  13  42  13  43  13  44  13  45  13  46  13
M  ISO  6  47  13  48  13  49  13  50  14  51  14  52  14
M  END
>  <minimizedAffinity>  (1) 
-4.75764656

>  <minimizedRMSD>  (1) 
2.09642029

$$$$
