
     RDKit          3D

 53 55  0  0  1  0  0  0  0  0999 V2000
   47.6800   29.7950   44.3830 C   0  0  0  0  0  0  0  0  0  0  0  0
   46.3540   33.2170   44.9070 C   0  0  0  0  0  0  0  0  0  0  0  0
   45.3100   33.3390   43.9850 C   0  0  0  0  0  0  0  0  0  0  0  0
   45.0970   32.1910   43.1900 C   0  0  0  0  0  0  0  0  0  0  0  0
   45.8630   31.1070   43.3510 N   0  0  0  0  0  0  0  0  0  0  0  0
   46.8620   31.0310   44.2530 C   0  0  0  0  0  0  0  0  0  0  0  0
   47.0840   32.1100   45.0210 N   0  0  0  0  0  0  0  0  0  0  0  0
   44.5170   34.5210   43.8490 N   0  0  0  0  0  0  0  0  0  0  0  0
   44.7610   35.5190   42.8430 C   0  0  0  0  0  0  0  0  0  0  0  0
   46.0100   35.7850   42.5970 N   0  0  0  0  0  0  0  0  0  0  0  0
   43.5750   36.0800   42.2530 N   0  0  0  0  0  0  0  0  0  0  0  0
   46.2820   36.4900   41.8780 H   0  0  0  0  0  0  0  0  0  0  0  0
   47.0790   28.7460   43.4100 C   0  0  0  0  0  0  0  0  0  0  0  0
   49.0500   30.1300   43.8930 C   0  0  0  0  0  0  0  0  0  0  0  0
   47.6050   29.1780   45.7490 C   0  0  0  0  0  0  0  0  0  0  0  0
   48.7530   29.1750   46.5400 N   0  0  0  0  0  0  0  0  0  0  0  0
   49.4160   27.9780   46.8520 C   0  0  0  0  0  0  0  0  0  0  0  0
   49.3270   27.6280   48.3340 C   0  0  0  0  0  0  0  0  0  0  0  0
   49.6440   28.7560   49.2420 C   0  0  0  0  0  0  0  0  0  0  0  0
   49.8320   30.0770   48.5570 C   0  0  0  0  0  0  0  0  0  0  0  0
   48.7660   30.2210   47.5050 C   0  0  2  0  0  0  0  0  0  0  0  0
   47.4200   30.5210   48.0690 C   0  0  0  0  0  0  0  0  0  0  0  0
   47.1570   31.7400   48.7090 C   0  0  0  0  0  0  0  0  0  0  0  0
   45.8820   31.9390   49.2040 C   0  0  0  0  0  0  0  0  0  0  0  0
   44.9510   30.9440   49.0450 C   0  0  0  0  0  0  0  0  0  0  0  0
   45.2240   29.7650   48.4210 C   0  0  0  0  0  0  0  0  0  0  0  0
   46.4550   29.5750   47.9430 N   0  0  0  0  0  0  0  0  0  0  0  0
   46.5810   34.0695   45.5640 H   0  0  0  0  0  0  0  0  0  0  0  0
   44.2971   32.1888   42.4349 H   0  0  0  0  0  0  0  0  0  0  0  0
   43.7339   34.6644   44.5026 H   0  0  0  0  0  0  0  0  0  0  0  0
   43.6551   36.8023   41.5231 H   0  0  0  0  0  0  0  0  0  0  0  0
   42.6457   35.7594   42.5605 H   0  0  0  0  0  0  0  0  0  0  0  0
   46.6138   27.9340   43.9880 H   0  0  0  0  0  0  0  0  0  0  0  0
   46.3193   29.2267   42.7761 H   0  0  0  0  0  0  0  0  0  0  0  0
   47.8779   28.3338   42.7761 H   0  0  0  0  0  0  0  0  0  0  0  0
   49.7171   30.2931   44.7523 H   0  0  0  0  0  0  0  0  0  0  0  0
   49.4345   29.2994   43.2828 H   0  0  0  0  0  0  0  0  0  0  0  0
   49.0078   31.0443   43.2828 H   0  0  0  0  0  0  0  0  0  0  0  0
   46.8268   29.7187   46.3076 H   0  0  0  0  0  0  0  0  0  0  0  0
   47.4088   28.1134   45.5539 H   0  0  0  0  0  0  0  0  0  0  0  0
   48.9633   27.1622   46.2694 H   0  0  0  0  0  0  0  0  0  0  0  0
   50.4794   28.1114   46.6042 H   0  0  0  0  0  0  0  0  0  0  0  0
   48.3025   27.2895   48.5481 H   0  0  0  0  0  0  0  0  0  0  0  0
   50.0799   26.8483   48.5217 H   0  0  0  0  0  0  0  0  0  0  0  0
   48.8194   28.8579   49.9629 H   0  0  0  0  0  0  0  0  0  0  0  0
   50.6058   28.5122   49.7170 H   0  0  0  0  0  0  0  0  0  0  0  0
   49.7430   30.8920   49.2904 H   0  0  0  0  0  0  0  0  0  0  0  0
   50.8290   30.1251   48.0947 H   0  0  0  0  0  0  0  0  0  0  0  0
   49.0564   31.1166   46.9362 H   0  0  0  0  0  0  0  0  0  0  0  0
   47.9362   32.5094   48.8134 H   0  0  0  0  0  0  0  0  0  0  0  0
   45.6189   32.8767   49.7154 H   0  0  0  0  0  0  0  0  0  0  0  0
   43.9372   31.1062   49.4398 H   0  0  0  0  0  0  0  0  0  0  0  0
   44.4506   28.9902   48.3139 H   0  0  0  0  0  0  0  0  0  0  0  0
  1 15  1  0
  2  7  2  0
  3  2  1  0
  4  5  1  0
  4  3  2  0
  5  6  2  0
  6  1  1  0
  6  7  1  0
  8  3  1  0
  9  8  1  0
 10  9  2  0
 11  9  1  0
 12 10  1  0
 13  1  1  0
 14  1  1  0
 15 16  1  0
 16 17  1  0
 16 21  1  0
 17 18  1  0
 18 19  1  0
 20 19  1  0
 21 22  1  0
 21 20  1  0
 22 23  2  0
 23 24  1  0
 25 24  2  0
 26 25  1  0
 27 22  1  0
 27 26  2  0
  2 28  1  0
  4 29  1  0
  8 30  1  0
 11 31  1  0
 11 32  1  0
 13 33  1  0
 13 34  1  0
 13 35  1  0
 14 36  1  0
 14 37  1  0
 14 38  1  0
 15 39  1  0
 15 40  1  0
 17 41  1  0
 17 42  1  0
 18 43  1  0
 18 44  1  0
 19 45  1  0
 19 46  1  0
 20 47  1  0
 20 48  1  0
 21 49  1  6
 23 50  1  0
 24 51  1  0
 25 52  1  0
 26 53  1  0
M  ISO  8  28  14  29  14  33   8  34   8  35   8  36   8  37   8  38   8
M  ISO  8  39   8  40   8  41  13  42  13  43  13  44  13  45  13  46  13
M  ISO  7  47  13  48  13  49  13  50  14  51  14  52  14  53  14
M  END
>  <minimizedAffinity>  (1) 
-4.92081499

>  <minimizedRMSD>  (1) 
2.03449035

$$$$
