
     RDKit          3D

 50 52  0  0  1  0  0  0  0  0999 V2000
   47.6210   29.8050   44.2430 C   0  0  0  0  0  0  0  0  0  0  0  0
   46.1590   33.1490   44.8460 C   0  0  0  0  0  0  0  0  0  0  0  0
   45.2110   33.3100   43.8310 C   0  0  0  0  0  0  0  0  0  0  0  0
   45.1070   32.2340   42.9520 C   0  0  0  0  0  0  0  0  0  0  0  0
   45.8820   31.1440   43.1110 N   0  0  0  0  0  0  0  0  0  0  0  0
   46.7900   31.0400   44.1180 C   0  0  0  0  0  0  0  0  0  0  0  0
   46.9060   32.0570   44.9690 N   0  0  0  0  0  0  0  0  0  0  0  0
   44.4010   34.4900   43.6940 N   0  0  0  0  0  0  0  0  0  0  0  0
   44.7090   35.5470   42.7730 C   0  0  0  0  0  0  0  0  0  0  0  0
   45.9670   35.8470   42.6410 N   0  0  0  0  0  0  0  0  0  0  0  0
   43.5490   36.1130   42.1280 N   0  0  0  0  0  0  0  0  0  0  0  0
   46.2820   36.5970   41.9890 H   0  0  0  0  0  0  0  0  0  0  0  0
   47.0760   28.7650   43.2270 C   0  0  0  0  0  0  0  0  0  0  0  0
   49.0080   30.1690   43.7790 C   0  0  0  0  0  0  0  0  0  0  0  0
   47.5350   29.1500   45.5840 C   0  0  0  0  0  0  0  0  0  0  0  0
   48.6720   29.1330   46.3900 N   0  0  0  0  0  0  0  0  0  0  0  0
   49.3130   27.9000   46.6840 C   0  0  0  0  0  0  0  0  0  0  0  0
   49.2420   27.5350   48.1540 C   0  0  0  0  0  0  0  0  0  0  0  0
   49.5250   28.6470   49.0950 C   0  0  0  0  0  0  0  0  0  0  0  0
   49.7600   29.9700   48.4250 C   0  0  0  0  0  0  0  0  0  0  0  0
   48.6910   30.1440   47.3680 C   0  0  2  0  0  0  0  0  0  0  0  0
   47.3590   30.4050   48.0210 C   0  0  0  0  0  0  0  0  0  0  0  0
   47.0610   31.5600   48.8810 C   0  0  0  0  0  0  0  0  0  0  0  0
   45.3500   31.2190   49.2830 S   0  0  0  0  0  0  0  0  0  0  0  0
   45.2870   29.6080   48.2580 C   0  0  0  0  0  0  0  0  0  0  0  0
   46.4300   29.4920   47.7670 N   0  0  0  0  0  0  0  0  0  0  0  0
   46.2923   33.9621   45.5748 H   0  0  0  0  0  0  0  0  0  0  0  0
   44.3865   32.2750   42.1219 H   0  0  0  0  0  0  0  0  0  0  0  0
   43.5614   34.5810   44.2837 H   0  0  0  0  0  0  0  0  0  0  0  0
   43.6601   36.8786   41.4480 H   0  0  0  0  0  0  0  0  0  0  0  0
   42.6099   35.7514   42.3475 H   0  0  0  0  0  0  0  0  0  0  0  0
   46.6323   27.9183   43.7713 H   0  0  0  0  0  0  0  0  0  0  0  0
   46.3093   29.2368   42.5949 H   0  0  0  0  0  0  0  0  0  0  0  0
   47.9003   28.4031   42.5949 H   0  0  0  0  0  0  0  0  0  0  0  0
   49.6543   30.3386   44.6528 H   0  0  0  0  0  0  0  0  0  0  0  0
   49.4190   29.3483   43.1728 H   0  0  0  0  0  0  0  0  0  0  0  0
   48.9630   31.0858   43.1728 H   0  0  0  0  0  0  0  0  0  0  0  0
   46.7449   29.6673   46.1480 H   0  0  0  0  0  0  0  0  0  0  0  0
   47.3517   28.0899   45.3546 H   0  0  0  0  0  0  0  0  0  0  0  0
   48.8273   27.1039   46.1006 H   0  0  0  0  0  0  0  0  0  0  0  0
   50.3756   28.0090   46.4215 H   0  0  0  0  0  0  0  0  0  0  0  0
   48.2288   27.1614   48.3634 H   0  0  0  0  0  0  0  0  0  0  0  0
   50.0296   26.7855   48.3210 H   0  0  0  0  0  0  0  0  0  0  0  0
   48.6667   28.7514   49.7750 H   0  0  0  0  0  0  0  0  0  0  0  0
   50.4549   28.3882   49.6226 H   0  0  0  0  0  0  0  0  0  0  0  0
   49.6924   30.7819   49.1640 H   0  0  0  0  0  0  0  0  0  0  0  0
   50.7612   30.0004   47.9705 H   0  0  0  0  0  0  0  0  0  0  0  0
   48.9495   31.0358   46.7782 H   0  0  0  0  0  0  0  0  0  0  0  0
   47.7060   32.3959   49.1896 H   0  0  0  0  0  0  0  0  0  0  0  0
   44.4306   28.9300   48.1283 H   0  0  0  0  0  0  0  0  0  0  0  0
  1 15  1  0
  2  7  2  0
  3  2  1  0
  4  5  1  0
  4  3  2  0
  5  6  2  0
  6  1  1  0
  6  7  1  0
  8  3  1  0
  9  8  1  0
 10  9  2  0
 11  9  1  0
 12 10  1  0
 13  1  1  0
 14  1  1  0
 15 16  1  0
 16 17  1  0
 16 21  1  0
 17 18  1  0
 18 19  1  0
 20 19  1  0
 21 22  1  0
 21 20  1  0
 22 23  2  0
 23 24  1  0
 25 24  1  0
 26 22  1  0
 26 25  2  0
  2 27  1  0
  4 28  1  0
  8 29  1  0
 11 30  1  0
 11 31  1  0
 13 32  1  0
 13 33  1  0
 13 34  1  0
 14 35  1  0
 14 36  1  0
 14 37  1  0
 15 38  1  0
 15 39  1  0
 17 40  1  0
 17 41  1  0
 18 42  1  0
 18 43  1  0
 19 44  1  0
 19 45  1  0
 20 46  1  0
 20 47  1  0
 21 48  1  6
 23 49  1  0
 25 50  1  0
M  ISO  8  27  14  28  14  32   8  33   8  34   8  35   8  36   8  37   8
M  ISO  8  38   8  39   8  40  13  41  13  42  13  43  13  44  13  45  13
M  ISO  5  46  13  47  13  48  13  49  14  50  14
M  END
>  <minimizedAffinity>  (1) 
-4.35676146

>  <minimizedRMSD>  (1) 
2.14382434

$$$$
