
     RDKit          3D

 59 61  0  0  1  0  0  0  0  0999 V2000
   47.4380   29.7810   45.4430 C   0  0  0  0  0  0  0  0  0  0  0  0
   46.7190   33.2750   44.4270 C   0  0  0  0  0  0  0  0  0  0  0  0
   45.6310   33.1730   43.5560 C   0  0  0  0  0  0  0  0  0  0  0  0
   45.1750   31.8610   43.3460 C   0  0  0  0  0  0  0  0  0  0  0  0
   45.7660   30.8250   43.9550 N   0  0  0  0  0  0  0  0  0  0  0  0
   46.8230   30.9790   44.7950 C   0  0  0  0  0  0  0  0  0  0  0  0
   47.2840   32.2270   45.0160 N   0  0  0  0  0  0  0  0  0  0  0  0
   45.0260   34.3050   42.9260 N   0  0  0  0  0  0  0  0  0  0  0  0
   45.2300   34.6480   41.5590 C   0  0  0  0  0  0  0  0  0  0  0  0
   46.4350   34.4760   41.1050 N   0  0  0  0  0  0  0  0  0  0  0  0
   44.0420   35.1390   40.8930 N   0  0  0  0  0  0  0  0  0  0  0  0
   46.6710   34.6860   40.1150 H   0  0  0  0  0  0  0  0  0  0  0  0
   46.5840   28.5490   45.0590 C   0  0  0  0  0  0  0  0  0  0  0  0
   48.7810   29.6040   44.8200 C   0  0  0  0  0  0  0  0  0  0  0  0
   47.4020   29.8590   46.9460 C   0  0  0  0  0  0  0  0  0  0  0  0
   48.5210   30.3110   47.6230 N   0  0  0  0  0  0  0  0  0  0  0  0
   49.6300   29.4630   47.8620 C   0  0  0  0  0  0  0  0  0  0  0  0
   49.8670   29.2340   49.3420 C   0  0  0  0  0  0  0  0  0  0  0  0
   49.8090   30.4410   50.1910 C   0  0  0  0  0  0  0  0  0  0  0  0
   49.4490   31.6940   49.4340 C   0  0  0  0  0  0  0  0  0  0  0  0
   48.2960   31.3680   48.5210 C   0  0  2  0  0  0  0  0  0  0  0  0
   46.9960   31.5410   49.0700 N   0  0  0  0  0  0  0  0  0  0  0  0
   46.2930   30.3570   49.3840 C   0  0  0  0  0  0  0  0  0  0  0  0
   44.9960   30.1300   48.6950 C   0  0  0  0  0  0  0  0  0  0  0  0
   44.7720   30.9940   47.4850 C   0  0  0  0  0  0  0  0  0  0  0  0
   45.0780   32.4230   47.7710 C   0  0  0  0  0  0  0  0  0  0  0  0
   46.2050   32.6430   48.7540 C   0  0  0  0  0  0  0  0  0  0  0  0
   47.1285   34.2744   44.6356 H   0  0  0  0  0  0  0  0  0  0  0  0
   44.3228   31.6826   42.6737 H   0  0  0  0  0  0  0  0  0  0  0  0
   44.4090   34.9051   43.4917 H   0  0  0  0  0  0  0  0  0  0  0  0
   44.0841   35.4144   39.9014 H   0  0  0  0  0  0  0  0  0  0  0  0
   43.1547   35.2129   41.4108 H   0  0  0  0  0  0  0  0  0  0  0  0
   46.2350   28.0456   45.9727 H   0  0  0  0  0  0  0  0  0  0  0  0
   45.7168   28.8745   44.4657 H   0  0  0  0  0  0  0  0  0  0  0  0
   47.1931   27.8512   44.4657 H   0  0  0  0  0  0  0  0  0  0  0  0
   49.5409   29.5039   45.6090 H   0  0  0  0  0  0  0  0  0  0  0  0
   48.7791   28.6983   44.1957 H   0  0  0  0  0  0  0  0  0  0  0  0
   49.0138   30.4792   44.1957 H   0  0  0  0  0  0  0  0  0  0  0  0
   46.5714   30.5286   47.2138 H   0  0  0  0  0  0  0  0  0  0  0  0
   47.3100   28.8093   47.2616 H   0  0  0  0  0  0  0  0  0  0  0  0
   49.4446   28.4925   47.3785 H   0  0  0  0  0  0  0  0  0  0  0  0
   50.5244   29.9518   47.4483 H   0  0  0  0  0  0  0  0  0  0  0  0
   49.1028   28.5296   49.7023 H   0  0  0  0  0  0  0  0  0  0  0  0
   50.8961   28.8549   49.4272 H   0  0  0  0  0  0  0  0  0  0  0  0
   49.0543   30.2791   50.9747 H   0  0  0  0  0  0  0  0  0  0  0  0
   50.8165   30.5926   50.6057 H   0  0  0  0  0  0  0  0  0  0  0  0
   49.1551   32.4854   50.1393 H   0  0  0  0  0  0  0  0  0  0  0  0
   50.3109   32.0503   48.8507 H   0  0  0  0  0  0  0  0  0  0  0  0
   48.2735   32.2049   47.8075 H   0  0  0  0  0  0  0  0  0  0  0  0
   46.9494   29.5087   49.1400 H   0  0  0  0  0  0  0  0  0  0  0  0
   46.0331   30.4573   50.4481 H   0  0  0  0  0  0  0  0  0  0  0  0
   44.9553   29.0775   48.3777 H   0  0  0  0  0  0  0  0  0  0  0  0
   44.2086   30.3930   49.4167 H   0  0  0  0  0  0  0  0  0  0  0  0
   43.7201   30.9088   47.1747 H   0  0  0  0  0  0  0  0  0  0  0  0
   45.4450   30.6500   46.6858 H   0  0  0  0  0  0  0  0  0  0  0  0
   45.3494   32.9116   46.8236 H   0  0  0  0  0  0  0  0  0  0  0  0
   44.1748   32.8476   48.2336 H   0  0  0  0  0  0  0  0  0  0  0  0
   46.8657   33.4152   48.3331 H   0  0  0  0  0  0  0  0  0  0  0  0
   45.7101   32.9176   49.6972 H   0  0  0  0  0  0  0  0  0  0  0  0
  1 15  1  0
  2  7  2  0
  3  2  1  0
  4  3  2  0
  4  5  1  0
  5  6  2  0
  6  7  1  0
  6  1  1  0
  8  3  1  0
  9  8  1  0
 10  9  2  0
 11  9  1  0
 12 10  1  0
 13  1  1  0
 14  1  1  0
 15 16  1  0
 16 17  1  0
 16 21  1  0
 17 18  1  0
 18 19  1  0
 20 19  1  0
 21 22  1  0
 21 20  1  0
 22 23  1  0
 24 23  1  0
 25 26  1  0
 25 24  1  0
 26 27  1  0
 27 22  1  0
  2 28  1  0
  4 29  1  0
  8 30  1  0
 11 31  1  0
 11 32  1  0
 13 33  1  0
 13 34  1  0
 13 35  1  0
 14 36  1  0
 14 37  1  0
 14 38  1  0
 15 39  1  0
 15 40  1  0
 17 41  1  0
 17 42  1  0
 18 43  1  0
 18 44  1  0
 19 45  1  0
 19 46  1  0
 20 47  1  0
 20 48  1  0
 21 49  1  6
 23 50  1  0
 23 51  1  0
 24 52  1  0
 24 53  1  0
 25 54  1  0
 25 55  1  0
 26 56  1  0
 26 57  1  0
 27 58  1  0
 27 59  1  0
M  ISO  8  28  14  29  14  33   8  34   8  35   8  36   8  37   8  38   8
M  ISO  8  39   8  40   8  41  13  42  13  43  13  44  13  45  13  46  13
M  ISO  8  47  13  48  13  49  13  50  13  51  13  52  13  53  13  54  13
M  ISO  5  55  13  56  13  57  13  58  13  59  13
M  END
>  <minimizedAffinity>  (1) 
-4.57675362

>  <minimizedRMSD>  (1) 
1.27799678

$$$$
