
     RDKit          3D

 30 33  0  0  0  0  0  0  0  0999 V2000
   45.5600   32.5460   43.7860 C   0  0  0  0  0  0  0  0  0  0  0  0
   46.0160   33.4090   42.7910 C   0  0  0  0  0  0  0  0  0  0  0  0
   47.3460   33.3260   42.4250 C   0  0  0  0  0  0  0  0  0  0  0  0
   48.1590   32.4170   43.0330 N   0  0  0  0  0  0  0  0  0  0  0  0
   47.6830   31.5940   43.9950 C   0  0  0  0  0  0  0  0  0  0  0  0
   46.3820   31.6700   44.3600 N   0  0  0  0  0  0  0  0  0  0  0  0
   47.9120   34.1700   41.3830 C   0  0  0  0  0  0  0  0  0  0  0  0
   48.6300   35.3470   41.3010 C   0  0  0  0  0  0  0  0  0  0  0  0
   48.8880   35.5910   39.9970 N   0  0  0  0  0  0  0  0  0  0  0  0
   48.3830   34.6430   39.1960 C   0  0  0  0  0  0  0  0  0  0  0  0
   48.4260   34.5310   37.8250 C   0  0  0  0  0  0  0  0  0  0  0  0
   47.8100   33.4370   37.2520 C   0  0  0  0  0  0  0  0  0  0  0  0
   47.1770   32.5020   38.0450 C   0  0  0  0  0  0  0  0  0  0  0  0
   47.1670   32.6690   39.4110 C   0  0  0  0  0  0  0  0  0  0  0  0
   47.7740   33.7550   40.0530 C   0  0  0  0  0  0  0  0  0  0  0  0
   45.0910   34.2950   42.2000 N   0  0  0  0  0  0  0  0  0  0  0  0
   44.7390   35.5760   42.5360 C   0  0  0  0  0  0  0  0  0  0  0  0
   43.8050   36.0520   41.7070 N   0  0  0  0  0  0  0  0  0  0  0  0
   43.5550   35.0410   40.8140 C   0  0  0  0  0  0  0  0  0  0  0  0
   44.3510   34.0190   41.1580 N   0  0  0  0  0  0  0  0  0  0  0  0
   44.5070   32.5893   44.1012 H   0  0  0  0  0  0  0  0  0  0  0  0
   48.3506   30.8658   44.4788 H   0  0  0  0  0  0  0  0  0  0  0  0
   48.9381   35.9761   42.1491 H   0  0  0  0  0  0  0  0  0  0  0  0
   49.4120   36.4105   39.6583 H   0  0  0  0  0  0  0  0  0  0  0  0
   48.9335   35.2869   37.2076 H   0  0  0  0  0  0  0  0  0  0  0  0
   47.8237   33.3100   36.1594 H   0  0  0  0  0  0  0  0  0  0  0  0
   46.6845   31.6304   37.5892 H   0  0  0  0  0  0  0  0  0  0  0  0
   46.6580   31.9135   40.0276 H   0  0  0  0  0  0  0  0  0  0  0  0
   45.1688   36.1388   43.3777 H   0  0  0  0  0  0  0  0  0  0  0  0
   42.8403   35.0645   39.9782 H   0  0  0  0  0  0  0  0  0  0  0  0
  1  6  2  0
  2  1  1  0
  3  2  2  0
  3  4  1  0
  4  5  2  0
  5  6  1  0
  7  3  1  0
  8  7  2  0
  9  8  1  0
 10  9  1  0
 10 15  2  0
 11 10  1  0
 12 11  2  0
 12 13  1  0
 13 14  2  0
 14 15  1  0
 15  7  1  0
 16 17  1  0
 16  2  1  0
 18 17  2  0
 19 20  2  0
 19 18  1  0
 20 16  1  0
  1 21  1  0
  5 22  1  0
  8 23  1  0
  9 24  1  0
 11 25  1  0
 12 26  1  0
 13 27  1  0
 14 28  1  0
 17 29  1  0
 19 30  1  0
M  ISO  8  21  14  22  14  23  14  24   9  25  14  26  14  27  14  28  14
M  ISO  2  29  14  30  14
M  END
>  <minimizedAffinity>  (1) 
-4.83395004

>  <minimizedRMSD>  (1) 
4.6776619

$$$$
