
     RDKit          3D

 52 54  0  0  1  0  0  0  0  0999 V2000
   47.6050   29.8610   44.2070 C   0  0  0  0  0  0  0  0  0  0  0  0
   46.1480   33.2220   44.7420 C   0  0  0  0  0  0  0  0  0  0  0  0
   45.1500   33.3380   43.7600 C   0  0  0  0  0  0  0  0  0  0  0  0
   45.0160   32.2120   42.9230 C   0  0  0  0  0  0  0  0  0  0  0  0
   45.8090   31.1390   43.0990 N   0  0  0  0  0  0  0  0  0  0  0  0
   46.7620   31.0860   44.0730 C   0  0  0  0  0  0  0  0  0  0  0  0
   46.9070   32.1410   44.8770 N   0  0  0  0  0  0  0  0  0  0  0  0
   44.3240   34.4920   43.6000 N   0  0  0  0  0  0  0  0  0  0  0  0
   44.6220   35.5680   42.7120 C   0  0  0  0  0  0  0  0  0  0  0  0
   45.8800   35.9030   42.6310 N   0  0  0  0  0  0  0  0  0  0  0  0
   43.4750   36.1240   42.0400 N   0  0  0  0  0  0  0  0  0  0  0  0
   46.1860   36.6750   42.0140 H   0  0  0  0  0  0  0  0  0  0  0  0
   47.0960   28.8170   43.1840 C   0  0  0  0  0  0  0  0  0  0  0  0
   48.9920   30.2510   43.7540 C   0  0  0  0  0  0  0  0  0  0  0  0
   47.5150   29.2130   45.5480 C   0  0  0  0  0  0  0  0  0  0  0  0
   48.6380   29.2020   46.3670 N   0  0  0  0  0  0  0  0  0  0  0  0
   49.3360   27.9930   46.6200 C   0  0  0  0  0  0  0  0  0  0  0  0
   49.2850   27.5750   48.0680 C   0  0  0  0  0  0  0  0  0  0  0  0
   49.5000   28.6690   49.0530 C   0  0  0  0  0  0  0  0  0  0  0  0
   49.7590   29.9980   48.3990 C   0  0  0  0  0  0  0  0  0  0  0  0
   48.6640   30.1920   47.3640 C   0  0  2  0  0  0  0  0  0  0  0  0
   47.3810   30.5820   47.9670 C   0  0  0  0  0  0  0  0  0  0  0  0
   47.1200   31.8520   48.4450 C   0  0  0  0  0  0  0  0  0  0  0  0
   45.9200   32.2300   49.0140 C   0  0  0  0  0  0  0  0  0  0  0  0
   44.9480   31.2820   49.1020 N   0  0  0  0  0  0  0  0  0  0  0  0
   45.1640   30.0510   48.6540 C   0  0  0  0  0  0  0  0  0  0  0  0
   46.3290   29.7280   48.1140 N   0  0  0  0  0  0  0  0  0  0  0  0
   46.3078   34.0650   45.4303 H   0  0  0  0  0  0  0  0  0  0  0  0
   44.2608   32.2102   42.1232 H   0  0  0  0  0  0  0  0  0  0  0  0
   43.4612   34.5510   44.1594 H   0  0  0  0  0  0  0  0  0  0  0  0
   43.5938   36.9052   41.3793 H   0  0  0  0  0  0  0  0  0  0  0  0
   42.5363   35.7402   42.2203 H   0  0  0  0  0  0  0  0  0  0  0  0
   46.6750   27.9535   43.7199 H   0  0  0  0  0  0  0  0  0  0  0  0
   46.3183   29.2713   42.5525 H   0  0  0  0  0  0  0  0  0  0  0  0
   47.9329   28.4841   42.5525 H   0  0  0  0  0  0  0  0  0  0  0  0
   49.6282   30.4299   44.6334 H   0  0  0  0  0  0  0  0  0  0  0  0
   49.4221   29.4390   43.1494 H   0  0  0  0  0  0  0  0  0  0  0  0
   48.9359   31.1682   43.1494 H   0  0  0  0  0  0  0  0  0  0  0  0
   46.7167   29.7283   46.1022 H   0  0  0  0  0  0  0  0  0  0  0  0
   47.3458   28.1508   45.3173 H   0  0  0  0  0  0  0  0  0  0  0  0
   48.8884   27.1954   46.0089 H   0  0  0  0  0  0  0  0  0  0  0  0
   50.3921   28.1630   46.3637 H   0  0  0  0  0  0  0  0  0  0  0  0
   48.2956   27.1344   48.2600 H   0  0  0  0  0  0  0  0  0  0  0  0
   50.1166   26.8693   48.2106 H   0  0  0  0  0  0  0  0  0  0  0  0
   48.6026   28.7561   49.6832 H   0  0  0  0  0  0  0  0  0  0  0  0
   50.3905   28.4117   49.6453 H   0  0  0  0  0  0  0  0  0  0  0  0
   49.7211   30.8033   49.1474 H   0  0  0  0  0  0  0  0  0  0  0  0
   50.7550   30.0238   47.9329 H   0  0  0  0  0  0  0  0  0  0  0  0
   48.9299   31.0772   46.7676 H   0  0  0  0  0  0  0  0  0  0  0  0
   47.9160   32.6072   48.3676 H   0  0  0  0  0  0  0  0  0  0  0  0
   45.7568   33.2542   49.3806 H   0  0  0  0  0  0  0  0  0  0  0  0
   44.3696   29.2942   48.7320 H   0  0  0  0  0  0  0  0  0  0  0  0
  1 15  1  0
  2  7  2  0
  3  2  1  0
  4  5  1  0
  4  3  2  0
  5  6  2  0
  6  1  1  0
  6  7  1  0
  8  3  1  0
  9  8  1  0
 10  9  2  0
 11  9  1  0
 12 10  1  0
 13  1  1  0
 14  1  1  0
 15 16  1  0
 16 17  1  0
 16 21  1  0
 17 18  1  0
 18 19  1  0
 20 19  1  0
 21 22  1  0
 21 20  1  0
 22 27  1  0
 22 23  2  0
 23 24  1  0
 24 25  2  0
 26 25  1  0
 27 26  2  0
  2 28  1  0
  4 29  1  0
  8 30  1  0
 11 31  1  0
 11 32  1  0
 13 33  1  0
 13 34  1  0
 13 35  1  0
 14 36  1  0
 14 37  1  0
 14 38  1  0
 15 39  1  0
 15 40  1  0
 17 41  1  0
 17 42  1  0
 18 43  1  0
 18 44  1  0
 19 45  1  0
 19 46  1  0
 20 47  1  0
 20 48  1  0
 21 49  1  6
 23 50  1  0
 24 51  1  0
 26 52  1  0
M  ISO  8  28  14  29  14  33   8  34   8  35   8  36   8  37   8  38   8
M  ISO  8  39   8  40   8  41  13  42  13  43  13  44  13  45  13  46  13
M  ISO  6  47  13  48  13  49  13  50  14  51  14  52  14
M  END
>  <minimizedAffinity>  (1) 
-4.66010237

>  <minimizedRMSD>  (1) 
2.15008116

$$$$
