
     RDKit          3D

 29 31  0  0  0  0  0  0  0  0999 V2000
   45.3580   36.1490   43.1340 C   0  0  0  0  0  0  0  0  0  0  0  0
   45.8070   34.8450   42.9260 C   0  0  0  0  0  0  0  0  0  0  0  0
   45.6120   33.9350   43.9500 C   0  0  0  0  0  0  0  0  0  0  0  0
   45.0090   34.3140   45.1000 N   0  0  0  0  0  0  0  0  0  0  0  0
   44.5810   35.5930   45.2760 C   0  0  0  0  0  0  0  0  0  0  0  0
   44.7670   36.4690   44.2930 N   0  0  0  0  0  0  0  0  0  0  0  0
   46.4190   34.5340   41.6960 N   0  0  0  0  0  0  0  0  0  0  0  0
   45.8840   33.9670   40.5640 C   0  0  0  0  0  0  0  0  0  0  0  0
   46.8310   33.8530   39.6240 N   0  0  0  0  0  0  0  0  0  0  0  0
   47.9690   34.3540   40.1720 C   0  0  0  0  0  0  0  0  0  0  0  0
   47.6790   34.7550   41.4200 N   0  0  0  0  0  0  0  0  0  0  0  0
   46.0350   32.5910   43.8590 N   0  0  0  0  0  0  0  0  0  0  0  0
   45.7170   31.3350   43.2230 C   0  0  0  0  0  0  0  0  0  0  0  0
   46.9660   30.9530   42.4200 C   0  0  0  0  0  0  0  0  0  0  0  0
   48.0000   30.5780   43.2780 O   0  0  0  0  0  0  0  0  0  0  0  0
   47.7770   31.0010   44.5820 C   0  0  0  0  0  0  0  0  0  0  0  0
   47.2170   32.3830   44.7040 C   0  0  0  0  0  0  0  0  0  0  0  0
   45.4884   36.9104   42.3509 H   0  0  0  0  0  0  0  0  0  0  0  0
   44.0908   35.8967   46.2128 H   0  0  0  0  0  0  0  0  0  0  0  0
   44.8359   33.6540   40.4477 H   0  0  0  0  0  0  0  0  0  0  0  0
   48.9513   34.4193   39.6813 H   0  0  0  0  0  0  0  0  0  0  0  0
   45.4963   30.5667   43.9787 H   0  0  0  0  0  0  0  0  0  0  0  0
   44.8284   31.4174   42.5798 H   0  0  0  0  0  0  0  0  0  0  0  0
   46.7251   30.1118   41.7534 H   0  0  0  0  0  0  0  0  0  0  0  0
   47.2901   31.8225   41.8294 H   0  0  0  0  0  0  0  0  0  0  0  0
   47.0700   30.3021   45.0527 H   0  0  0  0  0  0  0  0  0  0  0  0
   48.7602   31.0196   45.0749 H   0  0  0  0  0  0  0  0  0  0  0  0
   47.9927   33.1046   44.4081 H   0  0  0  0  0  0  0  0  0  0  0  0
   46.9074   32.5253   45.7499 H   0  0  0  0  0  0  0  0  0  0  0  0
  1  6  2  0
  2  1  1  0
  2  3  2  0
  3  4  1  0
  4  5  2  0
  6  5  1  0
  7  2  1  0
  8  7  1  0
  9 10  1  0
  9  8  2  0
 10 11  2  0
 11  7  1  0
 12  3  1  0
 12 17  1  0
 13 12  1  0
 14 13  1  0
 14 15  1  0
 15 16  1  0
 16 17  1  0
  1 18  1  0
  5 19  1  0
  8 20  1  0
 10 21  1  0
 13 22  1  0
 13 23  1  0
 14 24  1  0
 14 25  1  0
 16 26  1  0
 16 27  1  0
 17 28  1  0
 17 29  1  0
M  ISO  8  18  14  19  14  20  14  21  14  22  13  23  13  24  13  25  13
M  ISO  4  26  13  27  13  28  13  29  13
M  END
>  <minimizedAffinity>  (1) 
-4.09824038

>  <minimizedRMSD>  (1) 
2.99497223

$$$$
