
     RDKit          3D

 22 24  0  0  0  0  0  0  0  0999 V2000
   45.4380   36.2530   43.1960 C   0  0  0  0  0  0  0  0  0  0  0  0
   45.9770   34.9810   42.9940 C   0  0  0  0  0  0  0  0  0  0  0  0
   45.7700   34.0090   43.9740 C   0  0  0  0  0  0  0  0  0  0  0  0
   45.0540   34.3470   45.0730 N   0  0  0  0  0  0  0  0  0  0  0  0
   44.5440   35.5790   45.2470 C   0  0  0  0  0  0  0  0  0  0  0  0
   44.7450   36.5200   44.2990 N   0  0  0  0  0  0  0  0  0  0  0  0
   46.7130   34.7340   41.7990 N   0  0  0  0  0  0  0  0  0  0  0  0
   48.0160   35.0460   41.5100 C   0  0  0  0  0  0  0  0  0  0  0  0
   48.3200   34.6380   40.2720 N   0  0  0  0  0  0  0  0  0  0  0  0
   47.1950   34.0620   39.7760 C   0  0  0  0  0  0  0  0  0  0  0  0
   46.2280   34.1350   40.7330 N   0  0  0  0  0  0  0  0  0  0  0  0
   46.3180   32.7110   43.7700 N   0  0  0  0  0  0  0  0  0  0  0  0
   45.9650   31.5320   43.2550 C   0  0  0  0  0  0  0  0  0  0  0  0
   46.9780   30.6550   43.3660 N   0  0  0  0  0  0  0  0  0  0  0  0
   47.9810   31.3220   43.9680 C   0  0  0  0  0  0  0  0  0  0  0  0
   47.5630   32.5910   44.2120 N   0  0  0  0  0  0  0  0  0  0  0  0
   45.5872   37.0376   42.4396 H   0  0  0  0  0  0  0  0  0  0  0  0
   43.9683   35.8184   46.1532 H   0  0  0  0  0  0  0  0  0  0  0  0
   48.7095   35.5564   42.1945 H   0  0  0  0  0  0  0  0  0  0  0  0
   47.0838   33.6150   38.7771 H   0  0  0  0  0  0  0  0  0  0  0  0
   44.9864   31.3095   42.8046 H   0  0  0  0  0  0  0  0  0  0  0  0
   48.9694   30.9097   44.2191 H   0  0  0  0  0  0  0  0  0  0  0  0
  1  6  2  0
  2  1  1  0
  2  3  2  0
  3  4  1  0
  4  5  2  0
  6  5  1  0
  7  2  1  0
  8  7  1  0
  9  8  2  0
 10  9  1  0
 10 11  2  0
 11  7  1  0
 12  3  1  0
 12 16  1  0
 13 14  2  0
 13 12  1  0
 14 15  1  0
 15 16  2  0
  1 17  1  0
  5 18  1  0
  8 19  1  0
 10 20  1  0
 13 21  1  0
 15 22  1  0
M  ISO  6  17  14  18  14  19  14  20  14  21  14  22  14
M  END
>  <minimizedAffinity>  (1) 
-4.09484959

>  <minimizedRMSD>  (1) 
2.87837577

$$$$
