
     RDKit          3D

 29 31  0  0  0  0  0  0  0  0999 V2000
   44.0570   35.5410   42.1800 C   0  0  0  0  0  0  0  0  0  0  0  0
   43.1610   34.6150   41.5920 C   0  0  0  0  0  0  0  0  0  0  0  0
   43.3830   33.2530   41.7600 C   0  0  0  0  0  0  0  0  0  0  0  0
   44.4620   32.8760   42.4910 N   0  0  0  0  0  0  0  0  0  0  0  0
   45.3020   33.7660   43.0430 C   0  0  0  0  0  0  0  0  0  0  0  0
   45.0920   35.0950   42.8830 N   0  0  0  0  0  0  0  0  0  0  0  0
   42.4590   32.3570   41.1520 N   0  0  0  0  0  0  0  0  0  0  0  0
   41.2800   31.9700   41.6710 C   0  0  0  0  0  0  0  0  0  0  0  0
   40.4550   31.0940   40.9970 C   0  0  0  0  0  0  0  0  0  0  0  0
   39.1660   30.6630   41.5490 C   0  0  0  0  0  0  0  0  0  0  0  0
   40.8510   30.6070   39.7670 C   0  0  0  0  0  0  0  0  0  0  0  0
   40.1720   29.8050   39.0730 O   0  0  0  0  0  0  0  0  0  0  0  0
   42.0400   31.0300   39.3000 N   0  0  0  0  0  0  0  0  0  0  0  0
   42.8690   31.8860   39.9370 C   0  0  0  0  0  0  0  0  0  0  0  0
   43.9650   32.2100   39.3920 O   0  0  0  0  0  0  0  0  0  0  0  0
   42.0750   35.1760   40.8530 N   0  0  0  0  0  0  0  0  0  0  0  0
   40.8760   35.6910   41.2610 C   0  0  0  0  0  0  0  0  0  0  0  0
   40.1940   36.0960   40.1830 N   0  0  0  0  0  0  0  0  0  0  0  0
   40.9710   35.8320   39.0880 C   0  0  0  0  0  0  0  0  0  0  0  0
   42.1130   35.2710   39.5240 N   0  0  0  0  0  0  0  0  0  0  0  0
   43.8969   36.6221   42.0553 H   0  0  0  0  0  0  0  0  0  0  0  0
   46.1648   33.4146   43.6279 H   0  0  0  0  0  0  0  0  0  0  0  0
   40.9680   32.3594   42.6513 H   0  0  0  0  0  0  0  0  0  0  0  0
   39.2139   30.6790   42.6478 H   0  0  0  0  0  0  0  0  0  0  0  0
   38.3740   31.3452   41.2065 H   0  0  0  0  0  0  0  0  0  0  0  0
   38.9436   29.6416   41.2065 H   0  0  0  0  0  0  0  0  0  0  0  0
   42.3427   30.6723   38.3827 H   0  0  0  0  0  0  0  0  0  0  0  0
   40.5293   35.7609   42.3026 H   0  0  0  0  0  0  0  0  0  0  0  0
   40.7089   36.0409   38.0403 H   0  0  0  0  0  0  0  0  0  0  0  0
  1  6  2  0
  2  3  2  0
  2  1  1  0
  3  4  1  0
  4  5  2  0
  6  5  1  0
  7  8  1  0
  7  3  1  0
  9 10  1  0
  9  8  2  0
 11  9  1  0
 12 11  2  0
 13 11  1  0
 13 14  1  0
 14  7  1  0
 15 14  2  0
 16 17  1  0
 16  2  1  0
 18 17  2  0
 19 20  2  0
 19 18  1  0
 20 16  1  0
  1 21  1  0
  5 22  1  0
  8 23  1  0
 10 24  1  0
 10 25  1  0
 10 26  1  0
 13 27  1  0
 17 28  1  0
 19 29  1  0
M  ISO  8  21  14  22  14  23  14  24   8  25   8  26   8  27   9  28  14
M  ISO  1  29  14
M  END
>  <minimizedAffinity>  (1) 
-4.0937624

>  <minimizedRMSD>  (1) 
3.51643467

$$$$
