
     RDKit          3D

 24 26  0  0  0  0  0  0  0  0999 V2000
   44.0220   34.9790   42.0860 C   0  0  0  0  0  0  0  0  0  0  0  0
   42.9660   34.2140   41.5250 C   0  0  0  0  0  0  0  0  0  0  0  0
   42.9190   32.8360   41.7150 C   0  0  0  0  0  0  0  0  0  0  0  0
   43.9360   32.2860   42.4560 N   0  0  0  0  0  0  0  0  0  0  0  0
   44.9260   33.0130   42.9770 C   0  0  0  0  0  0  0  0  0  0  0  0
   44.9630   34.3320   42.7950 N   0  0  0  0  0  0  0  0  0  0  0  0
   41.9920   34.9130   40.7520 N   0  0  0  0  0  0  0  0  0  0  0  0
   40.8750   35.6020   41.1920 C   0  0  0  0  0  0  0  0  0  0  0  0
   40.2430   36.1190   40.1190 N   0  0  0  0  0  0  0  0  0  0  0  0
   40.9620   35.7530   39.0160 C   0  0  0  0  0  0  0  0  0  0  0  0
   42.0040   35.0300   39.4540 N   0  0  0  0  0  0  0  0  0  0  0  0
   41.8730   31.9810   41.2140 C   0  0  0  0  0  0  0  0  0  0  0  0
   40.8460   31.6950   42.0860 C   0  0  0  0  0  0  0  0  0  0  0  0
   39.7530   30.9080   41.8280 C   0  0  0  0  0  0  0  0  0  0  0  0
   39.6160   30.3330   40.6250 N   0  0  0  0  0  0  0  0  0  0  0  0
   40.5940   30.5830   39.7430 C   0  0  0  0  0  0  0  0  0  0  0  0
   41.6110   31.3550   40.0820 N   0  0  0  0  0  0  0  0  0  0  0  0
   44.0688   36.0689   41.9447 H   0  0  0  0  0  0  0  0  0  0  0  0
   45.7171   32.5198   43.5608 H   0  0  0  0  0  0  0  0  0  0  0  0
   40.5569   35.7095   42.2395 H   0  0  0  0  0  0  0  0  0  0  0  0
   40.7309   36.0031   37.9700 H   0  0  0  0  0  0  0  0  0  0  0  0
   40.9087   32.1423   43.0890 H   0  0  0  0  0  0  0  0  0  0  0  0
   38.9914   30.7492   42.6056 H   0  0  0  0  0  0  0  0  0  0  0  0
   40.5496   30.1445   38.7351 H   0  0  0  0  0  0  0  0  0  0  0  0
  1  6  2  0
  2  3  2  0
  2  1  1  0
  3  4  1  0
  4  5  2  0
  6  5  1  0
  7  8  1  0
  7  2  1  0
  9  8  2  0
 10 11  2  0
 10  9  1  0
 11  7  1  0
 12  3  1  0
 12 13  2  0
 14 13  1  0
 15 14  2  0
 16 17  2  0
 16 15  1  0
 17 12  1  0
  1 18  1  0
  5 19  1  0
  8 20  1  0
 10 21  1  0
 13 22  1  0
 14 23  1  0
 16 24  1  0
M  ISO  7  18  14  19  14  20  14  21  14  22  14  23  14  24  14
M  END
>  <minimizedAffinity>  (1) 
-3.79728055

>  <minimizedRMSD>  (1) 
3.44668484

$$$$
