
     RDKit          3D

 21 23  0  0  0  0  0  0  0  0999 V2000
   44.1380   35.4970   41.9950 C   0  0  0  0  0  0  0  0  0  0  0  0
   43.1920   34.5260   41.5710 C   0  0  0  0  0  0  0  0  0  0  0  0
   43.4140   33.1610   41.7870 C   0  0  0  0  0  0  0  0  0  0  0  0
   44.5920   32.8580   42.4220 N   0  0  0  0  0  0  0  0  0  0  0  0
   45.4840   33.7680   42.8220 C   0  0  0  0  0  0  0  0  0  0  0  0
   45.2540   35.0630   42.6100 N   0  0  0  0  0  0  0  0  0  0  0  0
   42.0350   35.0300   40.9000 N   0  0  0  0  0  0  0  0  0  0  0  0
   40.8310   35.4530   41.4240 C   0  0  0  0  0  0  0  0  0  0  0  0
   40.0440   35.8580   40.4020 N   0  0  0  0  0  0  0  0  0  0  0  0
   40.7620   35.6830   39.2560 C   0  0  0  0  0  0  0  0  0  0  0  0
   41.9620   35.1800   39.5980 N   0  0  0  0  0  0  0  0  0  0  0  0
   42.4800   32.1290   41.4020 C   0  0  0  0  0  0  0  0  0  0  0  0
   41.8510   31.6600   40.3300 N   0  0  0  0  0  0  0  0  0  0  0  0
   41.0820   30.6590   40.5670 O   0  0  0  0  0  0  0  0  0  0  0  0
   41.1690   30.4140   41.8480 C   0  0  0  0  0  0  0  0  0  0  0  0
   42.0110   31.3020   42.3450 N   0  0  0  0  0  0  0  0  0  0  0  0
   43.9641   36.5700   41.8261 H   0  0  0  0  0  0  0  0  0  0  0  0
   46.4080   33.4484   43.3262 H   0  0  0  0  0  0  0  0  0  0  0  0
   40.5583   35.4596   42.4896 H   0  0  0  0  0  0  0  0  0  0  0  0
   40.4213   35.9119   38.2355 H   0  0  0  0  0  0  0  0  0  0  0  0
   40.6438   29.6230   42.4034 H   0  0  0  0  0  0  0  0  0  0  0  0
  1  6  2  0
  2  3  2  0
  2  1  1  0
  3  4  1  0
  4  5  2  0
  6  5  1  0
  7  8  1  0
  7  2  1  0
  9  8  2  0
 10 11  2  0
 10  9  1  0
 11  7  1  0
 12  3  1  0
 12 16  1  0
 13 14  1  0
 13 12  2  0
 14 15  1  0
 15 16  2  0
  1 17  1  0
  5 18  1  0
  8 19  1  0
 10 20  1  0
 15 21  1  0
M  ISO  5  17  14  18  14  19  14  20  14  21  14
M  END
>  <minimizedAffinity>  (1) 
-3.6323092

>  <minimizedRMSD>  (1) 
2.91846275

$$$$
