
     RDKit          3D

 23 25  0  0  0  0  0  0  0  0999 V2000
   44.1480   35.6840   42.1120 C   0  0  0  0  0  0  0  0  0  0  0  0
   43.2800   34.6660   41.6110 C   0  0  0  0  0  0  0  0  0  0  0  0
   43.6350   33.3480   41.7540 C   0  0  0  0  0  0  0  0  0  0  0  0
   44.8290   33.1020   42.3780 N   0  0  0  0  0  0  0  0  0  0  0  0
   45.6360   34.0600   42.8440 C   0  0  0  0  0  0  0  0  0  0  0  0
   45.2950   35.3680   42.7120 N   0  0  0  0  0  0  0  0  0  0  0  0
   42.1040   35.1150   40.9310 N   0  0  0  0  0  0  0  0  0  0  0  0
   40.8730   35.4700   41.4510 C   0  0  0  0  0  0  0  0  0  0  0  0
   40.0730   35.8510   40.4250 N   0  0  0  0  0  0  0  0  0  0  0  0
   40.8120   35.7330   39.2800 C   0  0  0  0  0  0  0  0  0  0  0  0
   42.0500   35.2810   39.6200 N   0  0  0  0  0  0  0  0  0  0  0  0
   42.7900   32.2650   41.3850 C   0  0  0  0  0  0  0  0  0  0  0  0
   42.3480   31.4130   42.3140 C   0  0  0  0  0  0  0  0  0  0  0  0
   41.5810   30.3360   42.1640 C   0  0  0  0  0  0  0  0  0  0  0  0
   41.2230   30.1440   40.7290 C   0  0  0  0  0  0  0  0  0  0  0  0
   42.0870   31.5810   39.9180 S   0  0  0  0  0  0  0  0  0  0  0  0
   43.8661   36.7415   42.0011 H   0  0  0  0  0  0  0  0  0  0  0  0
   46.5810   33.7878   43.3369 H   0  0  0  0  0  0  0  0  0  0  0  0
   40.5913   35.4472   42.5141 H   0  0  0  0  0  0  0  0  0  0  0  0
   40.4659   35.9633   38.2616 H   0  0  0  0  0  0  0  0  0  0  0  0
   42.6613   31.6319   43.3455 H   0  0  0  0  0  0  0  0  0  0  0  0
   41.2562   29.6788   42.9842 H   0  0  0  0  0  0  0  0  0  0  0  0
   40.6077   29.3570   40.2685 H   0  0  0  0  0  0  0  0  0  0  0  0
  1  6  2  0
  2  3  2  0
  2  1  1  0
  3  4  1  0
  4  5  2  0
  6  5  1  0
  7  8  1  0
  7  2  1  0
  9  8  2  0
 10 11  2  0
 10  9  1  0
 11  7  1  0
 12  3  1  0
 12 13  2  0
 14 13  1  0
 15 14  2  0
 16 15  1  0
 16 12  1  0
  1 17  1  0
  5 18  1  0
  8 19  1  0
 10 20  1  0
 13 21  1  0
 14 22  1  0
 15 23  1  0
M  ISO  7  17  14  18  14  19  14  20  14  21  14  22  14  23  14
M  END
>  <minimizedAffinity>  (1) 
-3.60097814

>  <minimizedRMSD>  (1) 
2.80877447

$$$$
