
     RDKit          3D

 25 26  0  0  0  0  0  0  0  0999 V2000
   44.1680   35.7550   42.0940 C   0  0  0  0  0  0  0  0  0  0  0  0
   43.3180   34.7210   41.6280 C   0  0  0  0  0  0  0  0  0  0  0  0
   43.6660   33.3960   41.8310 C   0  0  0  0  0  0  0  0  0  0  0  0
   44.8290   33.1430   42.4800 N   0  0  0  0  0  0  0  0  0  0  0  0
   45.6430   34.1370   42.9260 C   0  0  0  0  0  0  0  0  0  0  0  0
   45.3030   35.4320   42.7270 N   0  0  0  0  0  0  0  0  0  0  0  0
   42.1300   35.1450   40.9590 N   0  0  0  0  0  0  0  0  0  0  0  0
   40.9030   35.5040   41.4620 C   0  0  0  0  0  0  0  0  0  0  0  0
   40.0910   35.8350   40.4430 N   0  0  0  0  0  0  0  0  0  0  0  0
   40.8160   35.6810   39.2940 C   0  0  0  0  0  0  0  0  0  0  0  0
   42.0550   35.2600   39.6400 N   0  0  0  0  0  0  0  0  0  0  0  0
   42.7840   32.3170   41.3530 C   0  0  0  0  0  0  0  0  0  0  0  0
   43.2140   31.7970   40.0130 C   0  0  0  0  0  0  0  0  0  0  0  0
   42.9520   31.1480   42.3430 C   0  0  0  0  0  0  0  0  0  0  0  0
   43.8986   36.8100   41.9376 H   0  0  0  0  0  0  0  0  0  0  0  0
   46.5783   33.8884   43.4488 H   0  0  0  0  0  0  0  0  0  0  0  0
   40.6290   35.5183   42.5272 H   0  0  0  0  0  0  0  0  0  0  0  0
   40.4565   35.8662   38.2710 H   0  0  0  0  0  0  0  0  0  0  0  0
   41.7565   32.7023   41.2768 H   0  0  0  0  0  0  0  0  0  0  0  0
   43.9094   30.9561   40.1519 H   0  0  0  0  0  0  0  0  0  0  0  0
   42.3318   31.4545   39.4523 H   0  0  0  0  0  0  0  0  0  0  0  0
   43.7161   32.5992   39.4523 H   0  0  0  0  0  0  0  0  0  0  0  0
   42.8972   31.5293   43.3733 H   0  0  0  0  0  0  0  0  0  0  0  0
   42.1503   30.4124   42.1812 H   0  0  0  0  0  0  0  0  0  0  0  0
   43.9284   30.6679   42.1812 H   0  0  0  0  0  0  0  0  0  0  0  0
  1  6  2  0
  2  3  2  0
  2  1  1  0
  3  4  1  0
  4  5  2  0
  6  5  1  0
  7  8  1  0
  7  2  1  0
  9  8  2  0
 10 11  2  0
 10  9  1  0
 11  7  1  0
 12  3  1  0
 12 14  1  0
 13 12  1  0
  1 15  1  0
  5 16  1  0
  8 17  1  0
 10 18  1  0
 12 19  1  0
 13 20  1  0
 13 21  1  0
 13 22  1  0
 14 23  1  0
 14 24  1  0
 14 25  1  0
M  ISO  8  15  14  16  14  17  14  18  14  19   8  20   8  21   8  22   8
M  ISO  3  23   8  24   8  25   8
M  END
>  <minimizedAffinity>  (1) 
-3.36606956

>  <minimizedRMSD>  (1) 
2.6904006

$$$$
