
     RDKit          3D

 18 19  0  0  0  0  0  0  0  0999 V2000
   44.1920   35.4530   43.7120 C   0  0  0  0  0  0  0  0  0  0  0  0
   44.1990   34.3240   42.8650 C   0  0  0  0  0  0  0  0  0  0  0  0
   44.8940   33.2040   43.2880 C   0  0  0  0  0  0  0  0  0  0  0  0
   45.5320   33.2410   44.4920 N   0  0  0  0  0  0  0  0  0  0  0  0
   45.5030   34.3340   45.2720 C   0  0  0  0  0  0  0  0  0  0  0  0
   44.8360   35.4270   44.8790 N   0  0  0  0  0  0  0  0  0  0  0  0
   43.4880   34.4250   41.6320 N   0  0  0  0  0  0  0  0  0  0  0  0
   43.5250   35.3830   40.6670 C   0  0  0  0  0  0  0  0  0  0  0  0
   42.6740   35.0460   39.6810 N   0  0  0  0  0  0  0  0  0  0  0  0
   42.1030   33.8670   40.0390 C   0  0  0  0  0  0  0  0  0  0  0  0
   42.6160   33.5010   41.2410 N   0  0  0  0  0  0  0  0  0  0  0  0
   44.8990   32.0690   42.4340 N   0  0  0  0  0  0  0  0  0  0  0  0
   43.6512   36.3610   43.4070 H   0  0  0  0  0  0  0  0  0  0  0  0
   46.0294   34.3315   46.2379 H   0  0  0  0  0  0  0  0  0  0  0  0
   44.1502   36.2878   40.6893 H   0  0  0  0  0  0  0  0  0  0  0  0
   41.3561   33.3071   39.4571 H   0  0  0  0  0  0  0  0  0  0  0  0
   45.4049   31.2164   42.7135 H   0  0  0  0  0  0  0  0  0  0  0  0
   44.3968   32.0985   41.5352 H   0  0  0  0  0  0  0  0  0  0  0  0
  1  6  2  0
  2  3  2  0
  2  1  1  0
  3  4  1  0
  4  5  2  0
  6  5  1  0
  7  2  1  0
  8  7  1  0
  9 10  1  0
  9  8  2  0
 10 11  2  0
 11  7  1  0
 12  3  1  0
  1 13  1  0
  5 14  1  0
  8 15  1  0
 10 16  1  0
 12 17  1  0
 12 18  1  0
M  ISO  4  13  14  14  14  15  14  16  14
M  END
>  <minimizedAffinity>  (1) 
-3.04991937

>  <minimizedRMSD>  (1) 
0.774826765

$$$$
