
     RDKit          3D

 19 20  0  0  0  0  0  0  0  0999 V2000
   44.3990   35.9220   42.4400 C   0  0  0  0  0  0  0  0  0  0  0  0
   43.6480   34.8070   41.9920 C   0  0  0  0  0  0  0  0  0  0  0  0
   44.0910   33.5070   42.2790 C   0  0  0  0  0  0  0  0  0  0  0  0
   45.2390   33.4030   42.9840 N   0  0  0  0  0  0  0  0  0  0  0  0
   45.9380   34.4710   43.4010 C   0  0  0  0  0  0  0  0  0  0  0  0
   45.5190   35.7270   43.1290 N   0  0  0  0  0  0  0  0  0  0  0  0
   42.4570   35.1140   41.2570 N   0  0  0  0  0  0  0  0  0  0  0  0
   41.1990   35.3900   41.6630 C   0  0  0  0  0  0  0  0  0  0  0  0
   40.4110   35.6180   40.5940 N   0  0  0  0  0  0  0  0  0  0  0  0
   41.2040   35.4780   39.5050 C   0  0  0  0  0  0  0  0  0  0  0  0
   42.4400   35.1730   39.9450 N   0  0  0  0  0  0  0  0  0  0  0  0
   43.2720   32.3960   41.7890 C   0  0  0  0  0  0  0  0  0  0  0  0
   44.0569   36.9438   42.2188 H   0  0  0  0  0  0  0  0  0  0  0  0
   46.8658   34.3215   43.9727 H   0  0  0  0  0  0  0  0  0  0  0  0
   40.8668   35.4237   42.7111 H   0  0  0  0  0  0  0  0  0  0  0  0
   40.8957   35.5923   38.4553 H   0  0  0  0  0  0  0  0  0  0  0  0
   42.8611   31.8386   42.6437 H   0  0  0  0  0  0  0  0  0  0  0  0
   42.4470   32.7904   41.1777 H   0  0  0  0  0  0  0  0  0  0  0  0
   43.8928   31.7246   41.1777 H   0  0  0  0  0  0  0  0  0  0  0  0
  1  6  2  0
  2  3  2  0
  2  1  1  0
  3  4  1  0
  4  5  2  0
  6  5  1  0
  7  8  1  0
  7  2  1  0
  9  8  2  0
 10 11  2  0
 10  9  1  0
 11  7  1  0
 12  3  1  0
  1 13  1  0
  5 14  1  0
  8 15  1  0
 10 16  1  0
 12 17  1  0
 12 18  1  0
 12 19  1  0
M  ISO  7  13  14  14  14  15  14  16  14  17   8  18   8  19   8
M  END
>  <minimizedAffinity>  (1) 
-3.31266069

>  <minimizedRMSD>  (1) 
2.21623349

$$$$
