
     RDKit          3D

 40 44  0  0  0  0  0  0  0  0999 V2000
   45.1850   32.6060   43.8860 C   0  0  0  0  0  0  0  0  0  0  0  0
   45.5800   33.0790   42.6230 C   0  0  0  0  0  0  0  0  0  0  0  0
   46.7310   32.5680   42.0550 C   0  0  0  0  0  0  0  0  0  0  0  0
   47.4280   31.6320   42.7420 N   0  0  0  0  0  0  0  0  0  0  0  0
   47.0260   31.1910   43.9600 C   0  0  0  0  0  0  0  0  0  0  0  0
   45.9000   31.6890   44.5180 N   0  0  0  0  0  0  0  0  0  0  0  0
   47.1200   33.0560   40.7770 N   0  0  0  0  0  0  0  0  0  0  0  0
   47.8900   34.1750   40.8610 C   0  0  0  0  0  0  0  0  0  0  0  0
   48.3270   34.7390   39.6560 C   0  0  0  0  0  0  0  0  0  0  0  0
   48.0150   34.2160   38.4410 C   0  0  0  0  0  0  0  0  0  0  0  0
   48.4190   34.7400   37.3760 O   0  0  0  0  0  0  0  0  0  0  0  0
   47.2380   33.0910   38.4370 N   0  0  0  0  0  0  0  0  0  0  0  0
   46.8050   32.5300   39.5790 C   0  0  0  0  0  0  0  0  0  0  0  0
   46.0900   31.4980   39.6140 O   0  0  0  0  0  0  0  0  0  0  0  0
   44.7520   34.0680   42.0110 N   0  0  0  0  0  0  0  0  0  0  0  0
   44.6470   35.4050   42.2480 C   0  0  0  0  0  0  0  0  0  0  0  0
   43.7260   35.9500   41.4240 N   0  0  0  0  0  0  0  0  0  0  0  0
   43.2540   34.9320   40.6670 C   0  0  0  0  0  0  0  0  0  0  0  0
   43.8920   33.8080   41.0450 N   0  0  0  0  0  0  0  0  0  0  0  0
   42.2560   34.9030   39.6150 C   0  0  0  0  0  0  0  0  0  0  0  0
   42.2840   35.2970   38.3090 C   0  0  0  0  0  0  0  0  0  0  0  0
   41.1040   35.0750   37.7080 N   0  0  0  0  0  0  0  0  0  0  0  0
   40.2910   34.5250   38.6450 C   0  0  0  0  0  0  0  0  0  0  0  0
   38.9910   34.1290   38.5010 C   0  0  0  0  0  0  0  0  0  0  0  0
   38.3440   33.5860   39.6070 C   0  0  0  0  0  0  0  0  0  0  0  0
   38.9850   33.4420   40.8360 C   0  0  0  0  0  0  0  0  0  0  0  0
   40.2930   33.8700   40.8810 C   0  0  0  0  0  0  0  0  0  0  0  0
   40.9860   34.4150   39.8230 C   0  0  0  0  0  0  0  0  0  0  0  0
   44.2719   33.0021   44.3543 H   0  0  0  0  0  0  0  0  0  0  0  0
   47.6150   30.4298   44.4926 H   0  0  0  0  0  0  0  0  0  0  0  0
   48.1572   34.6168   41.8323 H   0  0  0  0  0  0  0  0  0  0  0  0
   48.9499   35.6448   39.6945 H   0  0  0  0  0  0  0  0  0  0  0  0
   46.9782   32.6630   37.5369 H   0  0  0  0  0  0  0  0  0  0  0  0
   45.2272   35.9597   43.0002 H   0  0  0  0  0  0  0  0  0  0  0  0
   43.1602   35.7394   37.8125 H   0  0  0  0  0  0  0  0  0  0  0  0
   40.8632   35.2816   36.7281 H   0  0  0  0  0  0  0  0  0  0  0  0
   38.4706   34.2364   37.5379 H   0  0  0  0  0  0  0  0  0  0  0  0
   37.2976   33.2615   39.5084 H   0  0  0  0  0  0  0  0  0  0  0  0
   38.4786   33.0140   41.7137 H   0  0  0  0  0  0  0  0  0  0  0  0
   40.8265   33.7686   41.8376 H   0  0  0  0  0  0  0  0  0  0  0  0
  1  6  2  0
  2  1  1  0
  3  2  2  0
  3  4  1  0
  4  5  2  0
  5  6  1  0
  7  8  1  0
  7  3  1  0
  9  8  2  0
 10  9  1  0
 11 10  2  0
 12 10  1  0
 12 13  1  0
 13 14  2  0
 13  7  1  0
 15 16  1  0
 15  2  1  0
 17 16  2  0
 18 19  2  0
 18 17  1  0
 19 15  1  0
 20 28  1  0
 20 18  1  0
 21 20  2  0
 22 21  1  0
 22 23  1  0
 23 28  2  0
 24 23  1  0
 24 25  2  0
 25 26  1  0
 26 27  2  0
 28 27  1  0
  1 29  1  0
  5 30  1  0
  8 31  1  0
  9 32  1  0
 12 33  1  0
 16 34  1  0
 21 35  1  0
 22 36  1  0
 24 37  1  0
 25 38  1  0
 26 39  1  0
 27 40  1  0
M  ISO  8  29  14  30  14  31  14  32  14  33   9  34  14  35  14  36   9
M  ISO  4  37  14  38  14  39  14  40  14
M  END
>  <minimizedAffinity>  (1) 
-6.77501678

>  <minimizedRMSD>  (1) 
1.77017713

$$$$
