
     RDKit          3D

 39 43  0  0  0  0  0  0  0  0999 V2000
   45.3120   33.4300   44.6330 C   0  0  0  0  0  0  0  0  0  0  0  0
   45.6780   33.6980   43.3120 C   0  0  0  0  0  0  0  0  0  0  0  0
   46.8830   33.1920   42.8560 C   0  0  0  0  0  0  0  0  0  0  0  0
   47.6510   32.4650   43.7040 N   0  0  0  0  0  0  0  0  0  0  0  0
   47.2710   32.2230   44.9740 C   0  0  0  0  0  0  0  0  0  0  0  0
   46.1090   32.7060   45.4260 N   0  0  0  0  0  0  0  0  0  0  0  0
   44.7880   34.4660   42.5390 N   0  0  0  0  0  0  0  0  0  0  0  0
   44.6410   35.8340   42.4410 C   0  0  0  0  0  0  0  0  0  0  0  0
   43.6500   36.1240   41.5650 N   0  0  0  0  0  0  0  0  0  0  0  0
   43.1810   34.9300   41.1190 C   0  0  0  0  0  0  0  0  0  0  0  0
   43.8890   33.9640   41.7260 N   0  0  0  0  0  0  0  0  0  0  0  0
   42.1300   34.7090   40.1780 N   0  0  0  0  0  0  0  0  0  0  0  0
   42.1580   35.1630   38.9010 C   0  0  0  0  0  0  0  0  0  0  0  0
   41.0070   34.7810   38.2820 N   0  0  0  0  0  0  0  0  0  0  0  0
   40.2830   34.0950   39.1850 C   0  0  0  0  0  0  0  0  0  0  0  0
   39.0670   33.4570   39.2100 C   0  0  0  0  0  0  0  0  0  0  0  0
   38.5380   32.8220   40.2590 N   0  0  0  0  0  0  0  0  0  0  0  0
   39.2520   32.7940   41.4170 C   0  0  0  0  0  0  0  0  0  0  0  0
   40.4510   33.4040   41.4460 N   0  0  0  0  0  0  0  0  0  0  0  0
   40.9800   34.0430   40.3860 C   0  0  0  0  0  0  0  0  0  0  0  0
   38.2710   33.4460   38.0460 N   0  0  0  0  0  0  0  0  0  0  0  0
   47.2490   33.4710   41.5060 N   0  0  0  0  0  0  0  0  0  0  0  0
   47.9780   34.6220   41.3950 C   0  0  0  0  0  0  0  0  0  0  0  0
   48.3920   34.9970   40.1180 C   0  0  0  0  0  0  0  0  0  0  0  0
   48.1020   34.2690   39.0100 C   0  0  0  0  0  0  0  0  0  0  0  0
   48.4860   34.6240   37.8600 O   0  0  0  0  0  0  0  0  0  0  0  0
   47.3780   33.1420   39.1970 N   0  0  0  0  0  0  0  0  0  0  0  0
   46.9570   32.7430   40.4130 C   0  0  0  0  0  0  0  0  0  0  0  0
   46.2850   31.7060   40.6250 O   0  0  0  0  0  0  0  0  0  0  0  0
   44.3600   33.8178   45.0244 H   0  0  0  0  0  0  0  0  0  0  0  0
   47.9160   31.6288   45.6381 H   0  0  0  0  0  0  0  0  0  0  0  0
   45.2380   36.5764   42.9909 H   0  0  0  0  0  0  0  0  0  0  0  0
   42.9730   35.7422   38.4423 H   0  0  0  0  0  0  0  0  0  0  0  0
   38.8581   32.2845   42.3088 H   0  0  0  0  0  0  0  0  0  0  0  0
   37.3571   32.9710   38.0516 H   0  0  0  0  0  0  0  0  0  0  0  0
   38.6035   33.9129   37.1903 H   0  0  0  0  0  0  0  0  0  0  0  0
   48.2279   35.2281   42.2783 H   0  0  0  0  0  0  0  0  0  0  0  0
   48.9778   35.9210   40.0036 H   0  0  0  0  0  0  0  0  0  0  0  0
   47.1390   32.5659   38.3773 H   0  0  0  0  0  0  0  0  0  0  0  0
  1  6  2  0
  2  1  1  0
  3  2  2  0
  3  4  1  0
  4  5  2  0
  5  6  1  0
  7  2  1  0
  8  7  1  0
  9  8  2  0
 10  9  1  0
 10 11  2  0
 11  7  1  0
 12 20  1  0
 12 10  1  0
 13 12  1  0
 14 13  2  0
 14 15  1  0
 15 16  2  0
 15 20  1  0
 16 17  1  0
 17 18  2  0
 18 19  1  0
 20 19  2  0
 21 16  1  0
 22  3  1  0
 23 22  1  0
 24 23  2  0
 25 27  1  0
 25 24  1  0
 26 25  2  0
 27 28  1  0
 28 29  2  0
 28 22  1  0
  1 30  1  0
  5 31  1  0
  8 32  1  0
 13 33  1  0
 18 34  1  0
 21 35  1  0
 21 36  1  0
 23 37  1  0
 24 38  1  0
 27 39  1  0
M  ISO  8  30  14  31  14  32  14  33  14  34  14  37  14  38  14  39   9
M  END
>  <minimizedAffinity>  (1) 
-6.68183851

>  <minimizedRMSD>  (1) 
0.508573234

$$$$
