
     RDKit          3D

 37 41  0  0  0  0  0  0  0  0999 V2000
   45.3740   33.2370   44.5390 C   0  0  0  0  0  0  0  0  0  0  0  0
   45.7350   33.5460   43.2120 C   0  0  0  0  0  0  0  0  0  0  0  0
   46.9340   33.0740   42.7300 C   0  0  0  0  0  0  0  0  0  0  0  0
   47.7240   32.3300   43.5440 N   0  0  0  0  0  0  0  0  0  0  0  0
   47.3510   32.0460   44.8170 C   0  0  0  0  0  0  0  0  0  0  0  0
   46.1850   32.5010   45.3010 N   0  0  0  0  0  0  0  0  0  0  0  0
   44.8160   34.3350   42.4660 N   0  0  0  0  0  0  0  0  0  0  0  0
   44.6300   35.6870   42.4180 C   0  0  0  0  0  0  0  0  0  0  0  0
   43.6360   35.9960   41.5650 N   0  0  0  0  0  0  0  0  0  0  0  0
   43.1960   34.8080   41.0730 C   0  0  0  0  0  0  0  0  0  0  0  0
   43.9260   33.8330   41.6360 N   0  0  0  0  0  0  0  0  0  0  0  0
   42.1370   34.7120   40.1260 N   0  0  0  0  0  0  0  0  0  0  0  0
   42.2980   35.1630   38.8470 C   0  0  0  0  0  0  0  0  0  0  0  0
   41.1970   34.9940   38.0900 N   0  0  0  0  0  0  0  0  0  0  0  0
   40.2910   34.4140   38.9060 C   0  0  0  0  0  0  0  0  0  0  0  0
   38.9770   33.9690   38.7990 C   0  0  0  0  0  0  0  0  0  0  0  0
   38.3400   33.4160   39.8450 N   0  0  0  0  0  0  0  0  0  0  0  0
   38.9710   33.2800   41.0410 C   0  0  0  0  0  0  0  0  0  0  0  0
   40.2580   33.6970   41.2100 N   0  0  0  0  0  0  0  0  0  0  0  0
   40.8770   34.2490   40.1430 C   0  0  0  0  0  0  0  0  0  0  0  0
   47.2860   33.3980   41.3790 N   0  0  0  0  0  0  0  0  0  0  0  0
   47.9910   34.5630   41.3010 C   0  0  0  0  0  0  0  0  0  0  0  0
   48.3910   34.9830   40.0300 C   0  0  0  0  0  0  0  0  0  0  0  0
   48.0960   34.2710   38.9030 C   0  0  0  0  0  0  0  0  0  0  0  0
   48.4720   34.6780   37.7620 O   0  0  0  0  0  0  0  0  0  0  0  0
   47.3940   33.1280   39.0670 N   0  0  0  0  0  0  0  0  0  0  0  0
   46.9960   32.6990   40.2770 C   0  0  0  0  0  0  0  0  0  0  0  0
   46.3410   31.6390   40.4640 O   0  0  0  0  0  0  0  0  0  0  0  0
   44.4208   33.6037   44.9476 H   0  0  0  0  0  0  0  0  0  0  0  0
   48.0085   31.4389   45.4566 H   0  0  0  0  0  0  0  0  0  0  0  0
   45.2113   36.4208   42.9957 H   0  0  0  0  0  0  0  0  0  0  0  0
   43.2285   35.6163   38.4745 H   0  0  0  0  0  0  0  0  0  0  0  0
   38.4493   34.0719   37.8393 H   0  0  0  0  0  0  0  0  0  0  0  0
   38.4343   32.8258   41.8870 H   0  0  0  0  0  0  0  0  0  0  0  0
   48.2343   35.1472   42.2008 H   0  0  0  0  0  0  0  0  0  0  0  0
   48.9624   35.9181   39.9341 H   0  0  0  0  0  0  0  0  0  0  0  0
   47.1559   32.5667   38.2368 H   0  0  0  0  0  0  0  0  0  0  0  0
  1  6  2  0
  2  1  1  0
  3  2  2  0
  3  4  1  0
  4  5  2  0
  5  6  1  0
  7  2  1  0
  8  7  1  0
  9  8  2  0
 10  9  1  0
 10 11  2  0
 11  7  1  0
 12 20  1  0
 12 10  1  0
 13 12  1  0
 14 13  2  0
 14 15  1  0
 15 20  2  0
 16 15  1  0
 16 17  2  0
 17 18  1  0
 18 19  2  0
 20 19  1  0
 21  3  1  0
 22 21  1  0
 23 22  2  0
 24 26  1  0
 24 23  1  0
 25 24  2  0
 26 27  1  0
 27 28  2  0
 27 21  1  0
  1 29  1  0
  5 30  1  0
  8 31  1  0
 13 32  1  0
 16 33  1  0
 18 34  1  0
 22 35  1  0
 23 36  1  0
 26 37  1  0
M  ISO  8  29  14  30  14  31  14  32  14  33  14  34  14  35  14  36  14
M  ISO  1  37   9
M  END
>  <minimizedAffinity>  (1) 
-6.51764011

>  <minimizedRMSD>  (1) 
0.504110634

$$$$
