
     RDKit          3D

 42 45  0  0  0  0  0  0  0  0999 V2000
   45.2370   33.4420   44.6340 C   0  0  0  0  0  0  0  0  0  0  0  0
   45.6170   33.6800   43.3110 C   0  0  0  0  0  0  0  0  0  0  0  0
   46.8700   33.2490   42.8970 C   0  0  0  0  0  0  0  0  0  0  0  0
   47.6800   32.6150   43.7850 N   0  0  0  0  0  0  0  0  0  0  0  0
   47.2780   32.4010   45.0660 C   0  0  0  0  0  0  0  0  0  0  0  0
   46.0660   32.8140   45.4760 N   0  0  0  0  0  0  0  0  0  0  0  0
   47.2520   33.4960   41.5390 N   0  0  0  0  0  0  0  0  0  0  0  0
   47.9210   34.6830   41.4090 C   0  0  0  0  0  0  0  0  0  0  0  0
   48.3420   35.0270   40.1240 C   0  0  0  0  0  0  0  0  0  0  0  0
   48.1110   34.2390   39.0380 C   0  0  0  0  0  0  0  0  0  0  0  0
   48.5040   34.5720   37.8780 O   0  0  0  0  0  0  0  0  0  0  0  0
   47.4400   33.0760   39.2550 N   0  0  0  0  0  0  0  0  0  0  0  0
   47.0210   32.7160   40.4780 C   0  0  0  0  0  0  0  0  0  0  0  0
   46.3980   31.6530   40.7190 O   0  0  0  0  0  0  0  0  0  0  0  0
   44.6910   34.3500   42.4750 N   0  0  0  0  0  0  0  0  0  0  0  0
   44.4560   35.6950   42.3120 C   0  0  0  0  0  0  0  0  0  0  0  0
   43.4760   35.8760   41.4040 N   0  0  0  0  0  0  0  0  0  0  0  0
   43.1010   34.6300   41.0020 C   0  0  0  0  0  0  0  0  0  0  0  0
   43.8520   33.7410   41.6660 N   0  0  0  0  0  0  0  0  0  0  0  0
   42.0510   34.2100   40.0050 C   0  0  0  0  0  0  0  0  0  0  0  0
   41.0050   33.3220   40.6150 C   0  0  0  0  0  0  0  0  0  0  0  0
   39.6270   33.5120   40.0380 C   0  0  0  0  0  0  0  0  0  0  0  0
   39.1540   34.9210   40.1690 C   0  0  0  0  0  0  0  0  0  0  0  0
   40.2570   35.9520   40.1070 C   0  0  0  0  0  0  0  0  0  0  0  0
   41.4470   35.4350   39.3340 C   0  0  0  0  0  0  0  0  0  0  0  0
   44.2490   33.7733   44.9862 H   0  0  0  0  0  0  0  0  0  0  0  0
   47.9481   31.8871   45.7709 H   0  0  0  0  0  0  0  0  0  0  0  0
   48.1169   35.3332   42.2743 H   0  0  0  0  0  0  0  0  0  0  0  0
   48.8830   35.9742   39.9825 H   0  0  0  0  0  0  0  0  0  0  0  0
   47.2478   32.4534   38.4573 H   0  0  0  0  0  0  0  0  0  0  0  0
   44.9865   36.5001   42.8415 H   0  0  0  0  0  0  0  0  0  0  0  0
   42.5416   33.6018   39.2308 H   0  0  0  0  0  0  0  0  0  0  0  0
   41.3048   32.2755   40.4569 H   0  0  0  0  0  0  0  0  0  0  0  0
   40.9432   33.5889   41.6803 H   0  0  0  0  0  0  0  0  0  0  0  0
   38.9258   32.8515   40.5690 H   0  0  0  0  0  0  0  0  0  0  0  0
   39.6713   33.2674   38.9665 H   0  0  0  0  0  0  0  0  0  0  0  0
   38.4452   35.1244   39.3528 H   0  0  0  0  0  0  0  0  0  0  0  0
   38.6939   35.0092   41.1643 H   0  0  0  0  0  0  0  0  0  0  0  0
   39.8743   36.8572   39.6129 H   0  0  0  0  0  0  0  0  0  0  0  0
   40.5806   36.1771   41.1339 H   0  0  0  0  0  0  0  0  0  0  0  0
   42.2095   36.2259   39.2784 H   0  0  0  0  0  0  0  0  0  0  0  0
   41.1097   35.1489   38.3268 H   0  0  0  0  0  0  0  0  0  0  0  0
  1  6  2  0
  2  1  1  0
  3  2  2  0
  3  4  1  0
  4  5  2  0
  5  6  1  0
  7  3  1  0
  8  7  1  0
  9  8  2  0
 10 12  1  0
 10  9  1  0
 11 10  2  0
 12 13  1  0
 13 14  2  0
 13  7  1  0
 15  2  1  0
 16 15  1  0
 17 16  2  0
 18 17  1  0
 18 19  2  0
 19 15  1  0
 20 21  1  0
 20 18  1  0
 22 23  1  0
 22 21  1  0
 24 23  1  0
 25 20  1  0
 25 24  1  0
  1 26  1  0
  5 27  1  0
  8 28  1  0
  9 29  1  0
 12 30  1  0
 16 31  1  0
 20 32  1  0
 21 33  1  0
 21 34  1  0
 22 35  1  0
 22 36  1  0
 23 37  1  0
 23 38  1  0
 24 39  1  0
 24 40  1  0
 25 41  1  0
 25 42  1  0
M  ISO  8  26  14  27  14  28  14  29  14  30   9  31  14  32  13  33  13
M  ISO  8  34  13  35  13  36  13  37  13  38  13  39  13  40  13  41  13
M  ISO  1  42  13
M  END
>  <minimizedAffinity>  (1) 
-5.90432692

>  <minimizedRMSD>  (1) 
0.199287742

$$$$
