
     RDKit          3D

 22 22  0  0  0  0  0  0  0  0999 V2000
   45.2100   34.5130   45.0730 C   0  0  0  0  0  0  0  0  0  0  0  0
   46.0800   34.1710   44.0090 C   0  0  0  0  0  0  0  0  0  0  0  0
   47.0080   33.1560   44.2400 C   0  0  0  0  0  0  0  0  0  0  0  0
   47.0340   32.5500   45.4550 N   0  0  0  0  0  0  0  0  0  0  0  0
   46.1790   32.9080   46.4510 C   0  0  0  0  0  0  0  0  0  0  0  0
   45.2780   33.8790   46.2590 N   0  0  0  0  0  0  0  0  0  0  0  0
   45.9280   34.9280   42.7360 C   0  0  0  0  0  0  0  0  0  0  0  0
   47.2980   35.1930   42.1520 C   0  0  0  0  0  0  0  0  0  0  0  0
   45.2360   36.2420   43.0430 C   0  0  0  0  0  0  0  0  0  0  0  0
   45.0520   34.1550   41.7900 C   0  0  0  0  0  0  0  0  0  0  0  0
   44.4660   35.3102   44.9280 H   0  0  0  0  0  0  0  0  0  0  0  0
   47.7090   32.8506   43.4492 H   0  0  0  0  0  0  0  0  0  0  0  0
   46.2287   32.3949   47.4227 H   0  0  0  0  0  0  0  0  0  0  0  0
   48.0232   35.3333   42.9671 H   0  0  0  0  0  0  0  0  0  0  0  0
   47.6041   34.3374   41.5321 H   0  0  0  0  0  0  0  0  0  0  0  0
   47.2630   36.1010   41.5321 H   0  0  0  0  0  0  0  0  0  0  0  0
   45.1665   36.3739   44.1328 H   0  0  0  0  0  0  0  0  0  0  0  0
   45.8144   37.0711   42.6094 H   0  0  0  0  0  0  0  0  0  0  0  0
   44.2251   36.2341   42.6094 H   0  0  0  0  0  0  0  0  0  0  0  0
   44.3490   33.5346   42.3653 H   0  0  0  0  0  0  0  0  0  0  0  0
   44.4888   34.8558   41.1563 H   0  0  0  0  0  0  0  0  0  0  0  0
   45.6773   33.5089   41.1563 H   0  0  0  0  0  0  0  0  0  0  0  0
  1  6  2  0
  2  3  2  0
  2  1  1  0
  3  4  1  0
  4  5  2  0
  6  5  1  0
  7  9  1  0
  7  2  1  0
  8  7  1  0
 10  7  1  0
  1 11  1  0
  3 12  1  0
  5 13  1  0
  8 14  1  0
  8 15  1  0
  8 16  1  0
  9 17  1  0
  9 18  1  0
  9 19  1  0
 10 20  1  0
 10 21  1  0
 10 22  1  0
M  ISO  8  11  14  12  14  13  14  14   8  15   8  16   8  17   8  18   8
M  ISO  4  19   8  20   8  21   8  22   8
M  END
>  <minimizedAffinity>  (1) 
-3.4625001

>  <minimizedRMSD>  (1) 
1.81000435

$$$$
