
     RDKit          3D

 36 39  0  0  0  0  0  0  0  0999 V2000
   45.4970   33.6340   45.2440 C   0  0  0  0  0  0  0  0  0  0  0  0
   45.8200   33.8860   43.9050 C   0  0  0  0  0  0  0  0  0  0  0  0
   46.9540   33.2730   43.3810 C   0  0  0  0  0  0  0  0  0  0  0  0
   47.6890   32.4670   44.1810 N   0  0  0  0  0  0  0  0  0  0  0  0
   47.3430   32.2490   45.4690 C   0  0  0  0  0  0  0  0  0  0  0  0
   46.2580   32.8300   45.9860 N   0  0  0  0  0  0  0  0  0  0  0  0
   47.2810   33.5300   42.0180 N   0  0  0  0  0  0  0  0  0  0  0  0
   48.0630   34.6350   41.8740 C   0  0  0  0  0  0  0  0  0  0  0  0
   48.4470   34.9840   40.5810 C   0  0  0  0  0  0  0  0  0  0  0  0
   48.0700   34.2660   39.4750 C   0  0  0  0  0  0  0  0  0  0  0  0
   48.4320   34.6050   38.3140 O   0  0  0  0  0  0  0  0  0  0  0  0
   47.2910   33.1790   39.7000 N   0  0  0  0  0  0  0  0  0  0  0  0
   46.9100   32.8230   40.9330 C   0  0  0  0  0  0  0  0  0  0  0  0
   46.1840   31.8150   41.1820 O   0  0  0  0  0  0  0  0  0  0  0  0
   44.9690   34.7500   43.1730 N   0  0  0  0  0  0  0  0  0  0  0  0
   44.9520   36.1260   43.1020 C   0  0  0  0  0  0  0  0  0  0  0  0
   43.9670   36.5230   42.2810 N   0  0  0  0  0  0  0  0  0  0  0  0
   43.3620   35.3860   41.8350 C   0  0  0  0  0  0  0  0  0  0  0  0
   43.9960   34.3430   42.3960 N   0  0  0  0  0  0  0  0  0  0  0  0
   42.2330   35.3980   40.9120 C   0  0  0  0  0  0  0  0  0  0  0  0
   42.5110   35.0570   39.5890 C   0  0  0  0  0  0  0  0  0  0  0  0
   41.5330   35.0270   38.6090 C   0  0  0  0  0  0  0  0  0  0  0  0
   40.2260   35.3420   38.9220 C   0  0  0  0  0  0  0  0  0  0  0  0
   39.9420   35.6850   40.2460 C   0  0  0  0  0  0  0  0  0  0  0  0
   40.9160   35.7150   41.2240 C   0  0  0  0  0  0  0  0  0  0  0  0
   44.6069   34.1040   45.6876 H   0  0  0  0  0  0  0  0  0  0  0  0
   47.9597   31.5882   46.0958 H   0  0  0  0  0  0  0  0  0  0  0  0
   48.3792   35.2289   42.7442 H   0  0  0  0  0  0  0  0  0  0  0  0
   49.0794   35.8731   40.4413 H   0  0  0  0  0  0  0  0  0  0  0  0
   46.9833   32.6103   38.8983 H   0  0  0  0  0  0  0  0  0  0  0  0
   45.6406   36.7968   43.6366 H   0  0  0  0  0  0  0  0  0  0  0  0
   43.5451   34.8025   39.3135 H   0  0  0  0  0  0  0  0  0  0  0  0
   41.7986   34.7512   37.5778 H   0  0  0  0  0  0  0  0  0  0  0  0
   39.4365   35.3236   38.1563 H   0  0  0  0  0  0  0  0  0  0  0  0
   38.9072   35.9398   40.5186 H   0  0  0  0  0  0  0  0  0  0  0  0
   40.6487   35.9910   42.2547 H   0  0  0  0  0  0  0  0  0  0  0  0
  1  6  2  0
  2  1  1  0
  3  2  2  0
  3  4  1  0
  4  5  2  0
  5  6  1  0
  7  3  1  0
  8  7  1  0
  9  8  2  0
 10 12  1  0
 10  9  1  0
 11 10  2  0
 12 13  1  0
 13 14  2  0
 13  7  1  0
 15  2  1  0
 16 15  1  0
 17 16  2  0
 18 17  1  0
 18 19  2  0
 19 15  1  0
 20 25  1  0
 20 18  1  0
 21 20  2  0
 22 23  2  0
 22 21  1  0
 23 24  1  0
 24 25  2  0
  1 26  1  0
  5 27  1  0
  8 28  1  0
  9 29  1  0
 12 30  1  0
 16 31  1  0
 21 32  1  0
 22 33  1  0
 23 34  1  0
 24 35  1  0
 25 36  1  0
M  ISO  8  26  14  27  14  28  14  29  14  30   9  31  14  32  14  33  14
M  ISO  3  34  14  35  14  36  14
M  END
>  <minimizedAffinity>  (1) 
-6.1265378

>  <minimizedRMSD>  (1) 
1.00072753

$$$$
