
     RDKit          3D

 40 43  0  0  0  0  0  0  0  0999 V2000
   45.2500   33.5240   44.7900 C   0  0  0  0  0  0  0  0  0  0  0  0
   45.6250   33.7390   43.4560 C   0  0  0  0  0  0  0  0  0  0  0  0
   46.8720   33.3110   43.0360 C   0  0  0  0  0  0  0  0  0  0  0  0
   47.6840   32.6990   43.9320 N   0  0  0  0  0  0  0  0  0  0  0  0
   47.2940   32.5050   45.2130 C   0  0  0  0  0  0  0  0  0  0  0  0
   46.0940   32.9120   45.6300 N   0  0  0  0  0  0  0  0  0  0  0  0
   44.6810   34.3930   42.6230 N   0  0  0  0  0  0  0  0  0  0  0  0
   44.5220   35.7240   42.3310 C   0  0  0  0  0  0  0  0  0  0  0  0
   43.4820   35.8900   41.4810 N   0  0  0  0  0  0  0  0  0  0  0  0
   42.9990   34.6480   41.2480 C   0  0  0  0  0  0  0  0  0  0  0  0
   43.7370   33.7820   41.9450 N   0  0  0  0  0  0  0  0  0  0  0  0
   41.8950   34.4110   40.3940 N   0  0  0  0  0  0  0  0  0  0  0  0
   41.6320   33.0610   39.9300 C   0  0  0  0  0  0  0  0  0  0  0  0
   41.7240   33.0410   38.4090 C   0  0  0  0  0  0  0  0  0  0  0  0
   41.4750   34.3400   37.8310 N   0  0  0  0  0  0  0  0  0  0  0  0
   40.4910   35.0930   38.5660 C   0  0  0  0  0  0  0  0  0  0  0  0
   41.0040   35.4720   39.9610 C   0  0  0  0  0  0  0  0  0  0  0  0
   47.2350   33.5410   41.6750 N   0  0  0  0  0  0  0  0  0  0  0  0
   47.9400   34.6900   41.5120 C   0  0  0  0  0  0  0  0  0  0  0  0
   48.3550   35.0270   40.2250 C   0  0  0  0  0  0  0  0  0  0  0  0
   48.0710   34.2370   39.1390 C   0  0  0  0  0  0  0  0  0  0  0  0
   48.4510   34.5490   37.9760 O   0  0  0  0  0  0  0  0  0  0  0  0
   47.3570   33.0960   39.3850 N   0  0  0  0  0  0  0  0  0  0  0  0
   46.9480   32.7510   40.6140 C   0  0  0  0  0  0  0  0  0  0  0  0
   46.2930   31.7160   40.8760 O   0  0  0  0  0  0  0  0  0  0  0  0
   44.2640   33.8576   45.1457 H   0  0  0  0  0  0  0  0  0  0  0  0
   47.9743   32.0059   45.9187 H   0  0  0  0  0  0  0  0  0  0  0  0
   45.1476   36.5365   42.7291 H   0  0  0  0  0  0  0  0  0  0  0  0
   42.3765   32.3718   40.3550 H   0  0  0  0  0  0  0  0  0  0  0  0
   40.6283   32.7437   40.2492 H   0  0  0  0  0  0  0  0  0  0  0  0
   42.7328   32.7118   38.1193 H   0  0  0  0  0  0  0  0  0  0  0  0
   40.9545   32.3507   38.0330 H   0  0  0  0  0  0  0  0  0  0  0  0
   42.3573   34.8714   37.8209 H   0  0  0  0  0  0  0  0  0  0  0  0
   40.2547   36.0120   38.0096 H   0  0  0  0  0  0  0  0  0  0  0  0
   39.5941   34.4674   38.6850 H   0  0  0  0  0  0  0  0  0  0  0  0
   41.5488   36.4265   39.9156 H   0  0  0  0  0  0  0  0  0  0  0  0
   40.1676   35.5911   40.6654 H   0  0  0  0  0  0  0  0  0  0  0  0
   48.1766   35.3358   42.3705 H   0  0  0  0  0  0  0  0  0  0  0  0
   48.9275   35.9542   40.0749 H   0  0  0  0  0  0  0  0  0  0  0  0
   47.1246   32.4778   38.5946 H   0  0  0  0  0  0  0  0  0  0  0  0
  1  6  2  0
  2  1  1  0
  3  2  2  0
  3  4  1  0
  4  5  2  0
  5  6  1  0
  7  2  1  0
  8  7  1  0
  9  8  2  0
 10  9  1  0
 10 11  2  0
 11  7  1  0
 12 10  1  0
 13 12  1  0
 14 13  1  0
 15 14  1  0
 15 16  1  0
 16 17  1  0
 17 12  1  0
 18  3  1  0
 19 18  1  0
 20 19  2  0
 21 23  1  0
 21 20  1  0
 22 21  2  0
 23 24  1  0
 24 25  2  0
 24 18  1  0
  1 26  1  0
  5 27  1  0
  8 28  1  0
 13 29  1  0
 13 30  1  0
 14 31  1  0
 14 32  1  0
 15 33  1  0
 16 34  1  0
 16 35  1  0
 17 36  1  0
 17 37  1  0
 19 38  1  0
 20 39  1  0
 23 40  1  0
M  ISO  8  26  14  27  14  28  14  29  13  30  13  31  13  32  13  33   5
M  ISO  7  34  13  35  13  36  13  37  13  38  14  39  14  40   9
M  END
>  <minimizedAffinity>  (1) 
-5.83904314

>  <minimizedRMSD>  (1) 
0.149934545

$$$$
