
     RDKit          3D

 35 38  0  0  0  0  0  0  0  0999 V2000
   45.4940   33.6340   45.1760 C   0  0  0  0  0  0  0  0  0  0  0  0
   45.8250   33.8840   43.8470 C   0  0  0  0  0  0  0  0  0  0  0  0
   46.9420   33.2550   43.3180 C   0  0  0  0  0  0  0  0  0  0  0  0
   47.6690   32.4260   44.1010 N   0  0  0  0  0  0  0  0  0  0  0  0
   47.3180   32.2030   45.3980 C   0  0  0  0  0  0  0  0  0  0  0  0
   46.2350   32.8100   45.9180 N   0  0  0  0  0  0  0  0  0  0  0  0
   47.2740   33.5180   41.9540 N   0  0  0  0  0  0  0  0  0  0  0  0
   48.0610   34.6360   41.8170 C   0  0  0  0  0  0  0  0  0  0  0  0
   48.4480   34.9890   40.5300 C   0  0  0  0  0  0  0  0  0  0  0  0
   48.0800   34.2820   39.4280 C   0  0  0  0  0  0  0  0  0  0  0  0
   48.4410   34.6180   38.2660 O   0  0  0  0  0  0  0  0  0  0  0  0
   47.3000   33.1860   39.6370 N   0  0  0  0  0  0  0  0  0  0  0  0
   46.9050   32.8120   40.8690 C   0  0  0  0  0  0  0  0  0  0  0  0
   46.1900   31.8150   41.1070 O   0  0  0  0  0  0  0  0  0  0  0  0
   44.9880   34.7740   43.1170 N   0  0  0  0  0  0  0  0  0  0  0  0
   44.9650   36.1440   43.0810 C   0  0  0  0  0  0  0  0  0  0  0  0
   43.9960   36.5670   42.2410 N   0  0  0  0  0  0  0  0  0  0  0  0
   43.4150   35.4450   41.7550 C   0  0  0  0  0  0  0  0  0  0  0  0
   44.0400   34.3840   42.3040 N   0  0  0  0  0  0  0  0  0  0  0  0
   42.3120   35.3580   40.8050 C   0  0  0  0  0  0  0  0  0  0  0  0
   41.0580   35.7480   41.2190 C   0  0  0  0  0  0  0  0  0  0  0  0
   39.9870   35.6830   40.3540 C   0  0  0  0  0  0  0  0  0  0  0  0
   40.2360   35.2140   39.0760 C   0  0  0  0  0  0  0  0  0  0  0  0
   41.4980   34.8200   38.6550 C   0  0  0  0  0  0  0  0  0  0  0  0
   42.5040   34.9140   39.5670 N   0  0  0  0  0  0  0  0  0  0  0  0
   44.6125   34.1210   45.6185 H   0  0  0  0  0  0  0  0  0  0  0  0
   47.9204   31.5259   46.0214 H   0  0  0  0  0  0  0  0  0  0  0  0
   48.3720   35.2275   42.6907 H   0  0  0  0  0  0  0  0  0  0  0  0
   49.0798   35.8795   40.3966 H   0  0  0  0  0  0  0  0  0  0  0  0
   47.0022   32.6245   38.8265 H   0  0  0  0  0  0  0  0  0  0  0  0
   45.6367   36.8018   43.6521 H   0  0  0  0  0  0  0  0  0  0  0  0
   40.9102   36.1135   42.2459 H   0  0  0  0  0  0  0  0  0  0  0  0
   38.9780   35.9906   40.6659 H   0  0  0  0  0  0  0  0  0  0  0  0
   39.3992   35.1510   38.3649 H   0  0  0  0  0  0  0  0  0  0  0  0
   41.6767   34.4500   37.6346 H   0  0  0  0  0  0  0  0  0  0  0  0
  1  6  2  0
  2  1  1  0
  3  2  2  0
  3  4  1  0
  4  5  2  0
  5  6  1  0
  7  3  1  0
  8  7  1  0
  9  8  2  0
 10 12  1  0
 10  9  1  0
 11 10  2  0
 12 13  1  0
 13 14  2  0
 13  7  1  0
 15  2  1  0
 16 15  1  0
 17 16  2  0
 18 17  1  0
 18 19  2  0
 19 15  1  0
 20 21  2  0
 20 18  1  0
 22 21  1  0
 23 22  2  0
 24 23  1  0
 24 25  2  0
 25 20  1  0
  1 26  1  0
  5 27  1  0
  8 28  1  0
  9 29  1  0
 12 30  1  0
 16 31  1  0
 21 32  1  0
 22 33  1  0
 23 34  1  0
 24 35  1  0
M  ISO  8  26  14  27  14  28  14  29  14  30   9  31  14  32  14  33  14
M  ISO  2  34  14  35  14
M  END
>  <minimizedAffinity>  (1) 
-5.97045279

>  <minimizedRMSD>  (1) 
0.987637877

$$$$
