
     RDKit          3D

 32 35  0  0  0  0  0  0  0  0999 V2000
   45.3010   33.3900   44.6610 C   0  0  0  0  0  0  0  0  0  0  0  0
   45.6660   33.6520   43.3300 C   0  0  0  0  0  0  0  0  0  0  0  0
   46.8900   33.1940   42.8860 C   0  0  0  0  0  0  0  0  0  0  0  0
   47.6880   32.5130   43.7410 N   0  0  0  0  0  0  0  0  0  0  0  0
   47.3020   32.2750   45.0270 C   0  0  0  0  0  0  0  0  0  0  0  0
   46.1180   32.7160   45.4680 N   0  0  0  0  0  0  0  0  0  0  0  0
   47.2530   33.4660   41.5260 N   0  0  0  0  0  0  0  0  0  0  0  0
   47.9560   34.6360   41.4160 C   0  0  0  0  0  0  0  0  0  0  0  0
   48.3660   35.0080   40.1330 C   0  0  0  0  0  0  0  0  0  0  0  0
   48.0910   34.2580   39.0270 C   0  0  0  0  0  0  0  0  0  0  0  0
   48.4700   34.6120   37.8780 O   0  0  0  0  0  0  0  0  0  0  0  0
   47.3920   33.1210   39.2350 N   0  0  0  0  0  0  0  0  0  0  0  0
   46.9790   32.7250   40.4460 C   0  0  0  0  0  0  0  0  0  0  0  0
   46.3310   31.6750   40.6690 O   0  0  0  0  0  0  0  0  0  0  0  0
   44.7450   34.3720   42.5400 N   0  0  0  0  0  0  0  0  0  0  0  0
   44.5540   35.7310   42.4030 C   0  0  0  0  0  0  0  0  0  0  0  0
   43.5490   35.9720   41.5290 N   0  0  0  0  0  0  0  0  0  0  0  0
   43.1220   34.7520   41.1280 C   0  0  0  0  0  0  0  0  0  0  0  0
   43.8470   33.8100   41.7400 N   0  0  0  0  0  0  0  0  0  0  0  0
   42.0670   34.5220   40.1980 N   0  0  0  0  0  0  0  0  0  0  0  0
   42.0430   34.8660   38.8980 C   0  0  0  0  0  0  0  0  0  0  0  0
   40.8660   34.4840   38.3230 N   0  0  0  0  0  0  0  0  0  0  0  0
   40.1630   33.8920   39.3180 C   0  0  0  0  0  0  0  0  0  0  0  0
   40.9160   33.9250   40.4580 N   0  0  0  0  0  0  0  0  0  0  0  0
   44.3313   33.7449   45.0401 H   0  0  0  0  0  0  0  0  0  0  0  0
   47.9663   31.7184   45.7044 H   0  0  0  0  0  0  0  0  0  0  0  0
   48.1871   35.2539   42.2962 H   0  0  0  0  0  0  0  0  0  0  0  0
   48.9329   35.9426   40.0099 H   0  0  0  0  0  0  0  0  0  0  0  0
   47.1655   32.5297   38.4226 H   0  0  0  0  0  0  0  0  0  0  0  0
   45.1334   36.5054   42.9271 H   0  0  0  0  0  0  0  0  0  0  0  0
   42.8587   35.3833   38.3716 H   0  0  0  0  0  0  0  0  0  0  0  0
   39.1565   33.4582   39.2243 H   0  0  0  0  0  0  0  0  0  0  0  0
  1  6  2  0
  2  1  1  0
  3  2  2  0
  3  4  1  0
  4  5  2  0
  5  6  1  0
  7  3  1  0
  8  7  1  0
  9  8  2  0
 10 12  1  0
 10  9  1  0
 11 10  2  0
 12 13  1  0
 13 14  2  0
 13  7  1  0
 15  2  1  0
 16 15  1  0
 17 16  2  0
 18 17  1  0
 18 19  2  0
 19 15  1  0
 20 24  1  0
 20 18  1  0
 21 20  1  0
 22 21  2  0
 22 23  1  0
 23 24  2  0
  1 25  1  0
  5 26  1  0
  8 27  1  0
  9 28  1  0
 12 29  1  0
 16 30  1  0
 21 31  1  0
 23 32  1  0
M  ISO  8  25  14  26  14  27  14  28  14  29   9  30  14  31  14  32  14
M  END
>  <minimizedAffinity>  (1) 
-5.398633

>  <minimizedRMSD>  (1) 
0.280138016

$$$$
