
     RDKit          3D

 33 36  0  0  0  0  0  0  0  0999 V2000
   45.4660   33.6460   45.1640 C   0  0  0  0  0  0  0  0  0  0  0  0
   45.8060   33.8960   43.8320 C   0  0  0  0  0  0  0  0  0  0  0  0
   46.9050   33.2650   43.2960 C   0  0  0  0  0  0  0  0  0  0  0  0
   47.6230   32.4170   44.0880 N   0  0  0  0  0  0  0  0  0  0  0  0
   47.2750   32.1920   45.3680 C   0  0  0  0  0  0  0  0  0  0  0  0
   46.2030   32.8020   45.9050 N   0  0  0  0  0  0  0  0  0  0  0  0
   47.2410   33.5290   41.9360 N   0  0  0  0  0  0  0  0  0  0  0  0
   48.0490   34.6050   41.8010 C   0  0  0  0  0  0  0  0  0  0  0  0
   48.4430   34.9600   40.5160 C   0  0  0  0  0  0  0  0  0  0  0  0
   48.0520   34.2740   39.4080 C   0  0  0  0  0  0  0  0  0  0  0  0
   48.4150   34.6030   38.2470 O   0  0  0  0  0  0  0  0  0  0  0  0
   47.2350   33.1950   39.6140 N   0  0  0  0  0  0  0  0  0  0  0  0
   46.8370   32.8300   40.8490 C   0  0  0  0  0  0  0  0  0  0  0  0
   46.0900   31.8490   41.0830 O   0  0  0  0  0  0  0  0  0  0  0  0
   44.9750   34.8040   43.1110 N   0  0  0  0  0  0  0  0  0  0  0  0
   45.0040   36.1640   43.0300 C   0  0  0  0  0  0  0  0  0  0  0  0
   44.0210   36.6080   42.2260 N   0  0  0  0  0  0  0  0  0  0  0  0
   43.3680   35.4860   41.8010 C   0  0  0  0  0  0  0  0  0  0  0  0
   43.9660   34.4250   42.3510 N   0  0  0  0  0  0  0  0  0  0  0  0
   42.2190   35.3440   40.9140 C   0  0  0  0  0  0  0  0  0  0  0  0
   40.9640   35.7270   41.3770 C   0  0  0  0  0  0  0  0  0  0  0  0
   40.0810   35.4890   40.3550 C   0  0  0  0  0  0  0  0  0  0  0  0
   40.7830   34.9760   39.3020 N   0  0  0  0  0  0  0  0  0  0  0  0
   42.0640   34.8910   39.6440 N   0  0  0  0  0  0  0  0  0  0  0  0
   44.5907   34.1427   45.6080 H   0  0  0  0  0  0  0  0  0  0  0  0
   47.8731   31.5023   45.9816 H   0  0  0  0  0  0  0  0  0  0  0  0
   48.3829   35.1794   42.6777 H   0  0  0  0  0  0  0  0  0  0  0  0
   49.0994   35.8335   40.3895 H   0  0  0  0  0  0  0  0  0  0  0  0
   46.9155   32.6468   38.8026 H   0  0  0  0  0  0  0  0  0  0  0  0
   45.7291   36.8081   43.5490 H   0  0  0  0  0  0  0  0  0  0  0  0
   40.7266   36.1398   42.3686 H   0  0  0  0  0  0  0  0  0  0  0  0
   38.9976   35.6781   40.3792 H   0  0  0  0  0  0  0  0  0  0  0  0
   40.3851   34.7005   38.3928 H   0  0  0  0  0  0  0  0  0  0  0  0
  1  6  2  0
  2  1  1  0
  3  2  2  0
  3  4  1  0
  4  5  2  0
  5  6  1  0
  7  3  1  0
  8  7  1  0
  9  8  2  0
 10 12  1  0
 10  9  1  0
 11 10  2  0
 12 13  1  0
 13 14  2  0
 13  7  1  0
 15  2  1  0
 16 15  1  0
 17 16  2  0
 18 17  1  0
 18 19  2  0
 19 15  1  0
 20 21  1  0
 20 18  1  0
 22 21  2  0
 23 24  1  0
 23 22  1  0
 24 20  2  0
  1 25  1  0
  5 26  1  0
  8 27  1  0
  9 28  1  0
 12 29  1  0
 16 30  1  0
 21 31  1  0
 22 32  1  0
 23 33  1  0
M  ISO  8  25  14  26  14  27  14  28  14  29   9  30  14  31  14  32  14
M  ISO  1  33   9
M  END
>  <minimizedAffinity>  (1) 
-5.39678812

>  <minimizedRMSD>  (1) 
0.966813743

$$$$
