
     RDKit          3D

 32 35  0  0  0  0  0  0  0  0999 V2000
   45.5140   33.6170   45.2010 C   0  0  0  0  0  0  0  0  0  0  0  0
   45.8340   33.8720   43.8650 C   0  0  0  0  0  0  0  0  0  0  0  0
   46.9370   33.2400   43.3150 C   0  0  0  0  0  0  0  0  0  0  0  0
   47.6610   32.4000   44.0980 N   0  0  0  0  0  0  0  0  0  0  0  0
   47.3230   32.1760   45.3930 C   0  0  0  0  0  0  0  0  0  0  0  0
   46.2610   32.7810   45.9270 N   0  0  0  0  0  0  0  0  0  0  0  0
   47.2580   33.5030   41.9520 N   0  0  0  0  0  0  0  0  0  0  0  0
   48.0690   34.6000   41.8220 C   0  0  0  0  0  0  0  0  0  0  0  0
   48.4530   34.9590   40.5290 C   0  0  0  0  0  0  0  0  0  0  0  0
   48.0450   34.2580   39.4210 C   0  0  0  0  0  0  0  0  0  0  0  0
   48.4130   34.6120   38.2630 O   0  0  0  0  0  0  0  0  0  0  0  0
   47.2400   33.1810   39.6430 N   0  0  0  0  0  0  0  0  0  0  0  0
   46.8580   32.8150   40.8710 C   0  0  0  0  0  0  0  0  0  0  0  0
   46.1180   31.8330   41.1120 O   0  0  0  0  0  0  0  0  0  0  0  0
   44.9990   34.7700   43.1530 N   0  0  0  0  0  0  0  0  0  0  0  0
   45.0240   36.1450   43.0740 C   0  0  0  0  0  0  0  0  0  0  0  0
   44.0270   36.5700   42.2700 N   0  0  0  0  0  0  0  0  0  0  0  0
   43.3820   35.4520   41.8500 C   0  0  0  0  0  0  0  0  0  0  0  0
   43.9940   34.3990   42.4010 N   0  0  0  0  0  0  0  0  0  0  0  0
   42.2100   35.4660   40.9410 C   0  0  0  0  0  0  0  0  0  0  0  0
   42.4260   34.9860   39.5830 C   0  0  0  0  0  0  0  0  0  0  0  0
   40.8080   35.1570   38.8160 S   0  0  0  0  0  0  0  0  0  0  0  0
   40.0650   35.8530   40.4290 C   0  0  0  0  0  0  0  0  0  0  0  0
   40.9580   35.8420   41.1220 N   0  0  0  0  0  0  0  0  0  0  0  0
   44.6417   34.1076   45.6576 H   0  0  0  0  0  0  0  0  0  0  0  0
   47.9282   31.4917   46.0057 H   0  0  0  0  0  0  0  0  0  0  0  0
   48.4031   35.1732   42.6994 H   0  0  0  0  0  0  0  0  0  0  0  0
   49.1053   35.8342   40.3928 H   0  0  0  0  0  0  0  0  0  0  0  0
   46.9144   32.6295   38.8364 H   0  0  0  0  0  0  0  0  0  0  0  0
   45.7461   36.7968   43.5876 H   0  0  0  0  0  0  0  0  0  0  0  0
   43.3565   34.6089   39.1336 H   0  0  0  0  0  0  0  0  0  0  0  0
   39.0346   36.1802   40.6322 H   0  0  0  0  0  0  0  0  0  0  0  0
  1  6  2  0
  2  1  1  0
  3  2  2  0
  3  4  1  0
  4  5  2  0
  5  6  1  0
  7  3  1  0
  8  7  1  0
  9  8  2  0
 10 12  1  0
 10  9  1  0
 11 10  2  0
 12 13  1  0
 13 14  2  0
 13  7  1  0
 15  2  1  0
 16 15  1  0
 17 16  2  0
 18 17  1  0
 18 19  2  0
 19 15  1  0
 20 24  1  0
 20 18  1  0
 21 20  2  0
 22 21  1  0
 22 23  1  0
 23 24  2  0
  1 25  1  0
  5 26  1  0
  8 27  1  0
  9 28  1  0
 12 29  1  0
 16 30  1  0
 21 31  1  0
 23 32  1  0
M  ISO  8  25  14  26  14  27  14  28  14  29   9  30  14  31  14  32  14
M  END
>  <minimizedAffinity>  (1) 
-5.39336443

>  <minimizedRMSD>  (1) 
0.993919671

$$$$
