
     RDKit          3D

 31 34  0  0  0  0  0  0  0  0999 V2000
   45.2960   33.3840   44.6550 C   0  0  0  0  0  0  0  0  0  0  0  0
   45.6550   33.6530   43.3220 C   0  0  0  0  0  0  0  0  0  0  0  0
   46.8830   33.1890   42.8790 C   0  0  0  0  0  0  0  0  0  0  0  0
   47.6800   32.5050   43.7300 N   0  0  0  0  0  0  0  0  0  0  0  0
   47.3020   32.2650   45.0050 C   0  0  0  0  0  0  0  0  0  0  0  0
   46.1140   32.7070   45.4530 N   0  0  0  0  0  0  0  0  0  0  0  0
   47.2460   33.4650   41.5200 N   0  0  0  0  0  0  0  0  0  0  0  0
   47.9630   34.6330   41.4060 C   0  0  0  0  0  0  0  0  0  0  0  0
   48.3730   35.0040   40.1320 C   0  0  0  0  0  0  0  0  0  0  0  0
   48.0930   34.2680   39.0240 C   0  0  0  0  0  0  0  0  0  0  0  0
   48.4700   34.6180   37.8720 O   0  0  0  0  0  0  0  0  0  0  0  0
   47.3760   33.1220   39.2210 N   0  0  0  0  0  0  0  0  0  0  0  0
   46.9690   32.7370   40.4330 C   0  0  0  0  0  0  0  0  0  0  0  0
   46.3080   31.6900   40.6530 O   0  0  0  0  0  0  0  0  0  0  0  0
   44.7340   34.3800   42.5280 N   0  0  0  0  0  0  0  0  0  0  0  0
   44.5660   35.7380   42.3800 C   0  0  0  0  0  0  0  0  0  0  0  0
   43.5690   35.9760   41.5220 N   0  0  0  0  0  0  0  0  0  0  0  0
   43.1060   34.7600   41.1260 C   0  0  0  0  0  0  0  0  0  0  0  0
   43.8350   33.8290   41.7560 N   0  0  0  0  0  0  0  0  0  0  0  0
   42.0130   34.5280   40.1860 C   0  0  0  0  0  0  0  0  0  0  0  0
   40.8580   33.8860   40.4760 N   0  0  0  0  0  0  0  0  0  0  0  0
   40.1040   33.8520   39.4210 O   0  0  0  0  0  0  0  0  0  0  0  0
   40.7100   34.4570   38.4020 C   0  0  0  0  0  0  0  0  0  0  0  0
   41.9150   34.8860   38.8780 N   0  0  0  0  0  0  0  0  0  0  0  0
   44.3284   33.7377   45.0404 H   0  0  0  0  0  0  0  0  0  0  0  0
   47.9685   31.7062   45.6785 H   0  0  0  0  0  0  0  0  0  0  0  0
   48.2017   35.2474   42.2866 H   0  0  0  0  0  0  0  0  0  0  0  0
   48.9492   35.9336   40.0145 H   0  0  0  0  0  0  0  0  0  0  0  0
   47.1416   32.5354   38.4075 H   0  0  0  0  0  0  0  0  0  0  0  0
   45.1613   36.5097   42.8899 H   0  0  0  0  0  0  0  0  0  0  0  0
   40.3186   34.5853   37.3820 H   0  0  0  0  0  0  0  0  0  0  0  0
  1  6  2  0
  2  1  1  0
  3  2  2  0
  3  4  1  0
  4  5  2  0
  5  6  1  0
  7  3  1  0
  8  7  1  0
  9  8  2  0
 10 12  1  0
 10  9  1  0
 11 10  2  0
 12 13  1  0
 13 14  2  0
 13  7  1  0
 15  2  1  0
 16 15  1  0
 17 16  2  0
 18 17  1  0
 18 19  2  0
 19 15  1  0
 20 21  2  0
 20 18  1  0
 22 21  1  0
 23 24  2  0
 23 22  1  0
 24 20  1  0
  1 25  1  0
  5 26  1  0
  8 27  1  0
  9 28  1  0
 12 29  1  0
 16 30  1  0
 23 31  1  0
M  ISO  7  25  14  26  14  27  14  28  14  29   9  30  14  31  14
M  END
>  <minimizedAffinity>  (1) 
-5.12710285

>  <minimizedRMSD>  (1) 
0.283378035

$$$$
