
     RDKit          3D

 28 30  0  0  0  0  0  0  0  0999 V2000
   45.2240   33.5900   44.7090 C   0  0  0  0  0  0  0  0  0  0  0  0
   45.5990   33.7820   43.3720 C   0  0  0  0  0  0  0  0  0  0  0  0
   46.8540   33.3750   42.9780 C   0  0  0  0  0  0  0  0  0  0  0  0
   47.6810   32.8040   43.8910 N   0  0  0  0  0  0  0  0  0  0  0  0
   47.2920   32.6280   45.1870 C   0  0  0  0  0  0  0  0  0  0  0  0
   46.0690   33.0260   45.5700 N   0  0  0  0  0  0  0  0  0  0  0  0
   47.2280   33.5730   41.6210 N   0  0  0  0  0  0  0  0  0  0  0  0
   47.9180   34.7440   41.4380 C   0  0  0  0  0  0  0  0  0  0  0  0
   48.3370   35.0410   40.1360 C   0  0  0  0  0  0  0  0  0  0  0  0
   48.0830   34.2190   39.0810 C   0  0  0  0  0  0  0  0  0  0  0  0
   48.4740   34.5130   37.9160 O   0  0  0  0  0  0  0  0  0  0  0  0
   47.3950   33.0770   39.3410 N   0  0  0  0  0  0  0  0  0  0  0  0
   46.9780   32.7630   40.5830 C   0  0  0  0  0  0  0  0  0  0  0  0
   46.3410   31.7180   40.8540 O   0  0  0  0  0  0  0  0  0  0  0  0
   44.6510   34.3890   42.5110 N   0  0  0  0  0  0  0  0  0  0  0  0
   44.4560   35.7200   42.2050 C   0  0  0  0  0  0  0  0  0  0  0  0
   43.4320   35.8370   41.3320 N   0  0  0  0  0  0  0  0  0  0  0  0
   42.9910   34.5620   41.0990 C   0  0  0  0  0  0  0  0  0  0  0  0
   43.7510   33.7260   41.8270 N   0  0  0  0  0  0  0  0  0  0  0  0
   41.9090   34.1830   40.2320 N   0  0  0  0  0  0  0  0  0  0  0  0
   44.2268   33.9068   45.0486 H   0  0  0  0  0  0  0  0  0  0  0  0
   47.9759   32.1633   45.9125 H   0  0  0  0  0  0  0  0  0  0  0  0
   48.1329   35.4206   42.2782 H   0  0  0  0  0  0  0  0  0  0  0  0
   48.8924   35.9737   39.9585 H   0  0  0  0  0  0  0  0  0  0  0  0
   47.1859   32.4320   38.5656 H   0  0  0  0  0  0  0  0  0  0  0  0
   45.0439   36.5570   42.6096 H   0  0  0  0  0  0  0  0  0  0  0  0
   41.6568   33.1899   40.1271 H   0  0  0  0  0  0  0  0  0  0  0  0
   41.3859   34.9045   39.7156 H   0  0  0  0  0  0  0  0  0  0  0  0
  1  6  2  0
  2  1  1  0
  3  2  2  0
  3  4  1  0
  4  5  2  0
  5  6  1  0
  7  3  1  0
  8  7  1  0
  9  8  2  0
 10 12  1  0
 10  9  1  0
 11 10  2  0
 12 13  1  0
 13 14  2  0
 13  7  1  0
 15  2  1  0
 16 15  1  0
 17 16  2  0
 18 17  1  0
 18 19  2  0
 19 15  1  0
 20 18  1  0
  1 21  1  0
  5 22  1  0
  8 23  1  0
  9 24  1  0
 12 25  1  0
 16 26  1  0
 20 27  1  0
 20 28  1  0
M  ISO  6  21  14  22  14  23  14  24  14  25   9  26  14
M  END
>  <minimizedAffinity>  (1) 
-4.38165951

>  <minimizedRMSD>  (1) 
0.00581401726

$$$$
