
     RDKit          3D

 27 29  0  0  0  0  0  0  0  0999 V2000
   45.2330   33.5820   44.7180 C   0  0  0  0  0  0  0  0  0  0  0  0
   45.5930   33.7820   43.3830 C   0  0  0  0  0  0  0  0  0  0  0  0
   46.8490   33.3740   42.9870 C   0  0  0  0  0  0  0  0  0  0  0  0
   47.6800   32.8000   43.9000 N   0  0  0  0  0  0  0  0  0  0  0  0
   47.2890   32.6260   45.1860 C   0  0  0  0  0  0  0  0  0  0  0  0
   46.0660   33.0200   45.5810 N   0  0  0  0  0  0  0  0  0  0  0  0
   47.2260   33.5740   41.6210 N   0  0  0  0  0  0  0  0  0  0  0  0
   47.9170   34.7370   41.4500 C   0  0  0  0  0  0  0  0  0  0  0  0
   48.3400   35.0420   40.1530 C   0  0  0  0  0  0  0  0  0  0  0  0
   48.0780   34.2230   39.0900 C   0  0  0  0  0  0  0  0  0  0  0  0
   48.4680   34.5120   37.9200 O   0  0  0  0  0  0  0  0  0  0  0  0
   47.3880   33.0880   39.3420 N   0  0  0  0  0  0  0  0  0  0  0  0
   46.9640   32.7630   40.5840 C   0  0  0  0  0  0  0  0  0  0  0  0
   46.3230   31.7230   40.8600 O   0  0  0  0  0  0  0  0  0  0  0  0
   44.6480   34.3880   42.5260 N   0  0  0  0  0  0  0  0  0  0  0  0
   44.4550   35.7130   42.2000 C   0  0  0  0  0  0  0  0  0  0  0  0
   43.4340   35.8360   41.3410 N   0  0  0  0  0  0  0  0  0  0  0  0
   42.9740   34.5610   41.1210 C   0  0  0  0  0  0  0  0  0  0  0  0
   43.7370   33.7220   41.8570 N   0  0  0  0  0  0  0  0  0  0  0  0
   41.9090   34.2010   40.2860 O   0  0  0  0  0  0  0  0  0  0  0  0
   44.2364   33.8980   45.0598 H   0  0  0  0  0  0  0  0  0  0  0  0
   47.9750   32.1607   45.9091 H   0  0  0  0  0  0  0  0  0  0  0  0
   48.1323   35.4062   42.2960 H   0  0  0  0  0  0  0  0  0  0  0  0
   48.9023   35.9718   39.9819 H   0  0  0  0  0  0  0  0  0  0  0  0
   47.1783   32.4494   38.5615 H   0  0  0  0  0  0  0  0  0  0  0  0
   45.0535   36.5499   42.5892 H   0  0  0  0  0  0  0  0  0  0  0  0
   41.6524   33.2493   40.1935 H   0  0  0  0  0  0  0  0  0  0  0  0
  1  6  2  0
  2  1  1  0
  3  2  2  0
  3  4  1  0
  4  5  2  0
  5  6  1  0
  7  3  1  0
  8  7  1  0
  9  8  2  0
 10 12  1  0
 10  9  1  0
 11 10  2  0
 12 13  1  0
 13 14  2  0
 13  7  1  0
 15  2  1  0
 16 15  1  0
 17 16  2  0
 18 17  1  0
 18 19  2  0
 19 15  1  0
 20 18  1  0
  1 21  1  0
  5 22  1  0
  8 23  1  0
  9 24  1  0
 12 25  1  0
 16 26  1  0
 20 27  1  0
M  ISO  7  21  14  22  14  23  14  24  14  25   9  26  14  27   3
M  END
>  <minimizedAffinity>  (1) 
-4.40598583

>  <minimizedRMSD>  (1) 
0.0173303895

$$$$
