
     RDKit          3D

 48 52  0  0  1  0  0  0  0  0999 V2000
   45.1480   34.4960   43.6840 N   0  0  0  0  0  0  0  0  0  0  0  0
   45.2570   35.8500   43.3960 C   0  0  0  0  0  0  0  0  0  0  0  0
   44.4700   36.1460   42.3400 N   0  0  0  0  0  0  0  0  0  0  0  0
   43.8760   34.9710   41.9800 C   0  0  0  0  0  0  0  0  0  0  0  0
   44.2940   34.0090   42.7920 N   0  0  0  0  0  0  0  0  0  0  0  0
   45.2730   33.8640   45.9980 C   0  0  0  0  0  0  0  0  0  0  0  0
   45.7810   33.7330   44.6960 C   0  0  0  0  0  0  0  0  0  0  0  0
   46.8390   32.8890   44.4920 C   0  0  0  0  0  0  0  0  0  0  0  0
   47.3600   32.2120   45.5400 N   0  0  0  0  0  0  0  0  0  0  0  0
   46.8530   32.3540   46.7870 C   0  0  0  0  0  0  0  0  0  0  0  0
   45.8160   33.1790   46.9960 N   0  0  0  0  0  0  0  0  0  0  0  0
   47.3430   32.7690   43.1670 N   0  0  0  0  0  0  0  0  0  0  0  0
   48.2880   33.7170   42.8770 C   0  0  0  0  0  0  0  0  0  0  0  0
   48.8650   33.7140   41.6140 C   0  0  0  0  0  0  0  0  0  0  0  0
   48.5070   32.7890   40.6650 C   0  0  0  0  0  0  0  0  0  0  0  0
   49.0340   32.7890   39.5160 O   0  0  0  0  0  0  0  0  0  0  0  0
   47.5600   31.8660   41.0080 N   0  0  0  0  0  0  0  0  0  0  0  0
   47.0000   31.8630   42.2260 C   0  0  0  0  0  0  0  0  0  0  0  0
   46.1250   31.0380   42.5920 O   0  0  0  0  0  0  0  0  0  0  0  0
   42.9020   34.7410   40.8660 C   0  0  1  0  0  0  0  0  0  0  0  0
   42.0480   33.4740   40.9990 C   0  0  0  0  0  0  0  0  0  0  0  0
   41.4650   34.8830   41.0440 C   0  0  2  0  0  0  0  0  0  0  0  0
   40.5160   35.2790   40.0930 N   0  0  0  0  0  0  0  0  0  0  0  0
   39.1560   35.0470   40.2550 C   0  0  0  0  0  0  0  0  0  0  0  0
   38.7810   33.8280   39.4000 C   0  0  0  0  0  0  0  0  0  0  0  0
   38.9350   34.3390   37.9620 C   0  0  0  0  0  0  0  0  0  0  0  0
   40.3190   34.8390   37.6740 C   0  0  0  0  0  0  0  0  0  0  0  0
   40.9970   35.5680   38.7890 C   0  0  0  0  0  0  0  0  0  0  0  0
   45.8858   36.5684   43.9424 H   0  0  0  0  0  0  0  0  0  0  0  0
   44.4235   34.5356   46.1911 H   0  0  0  0  0  0  0  0  0  0  0  0
   47.2902   31.7943   47.6270 H   0  0  0  0  0  0  0  0  0  0  0  0
   48.5834   34.4644   43.6281 H   0  0  0  0  0  0  0  0  0  0  0  0
   49.6258   34.4696   41.3685 H   0  0  0  0  0  0  0  0  0  0  0  0
   47.2707   31.1587   40.3174 H   0  0  0  0  0  0  0  0  0  0  0  0
   43.5909   35.1840   40.1317 H   0  0  0  0  0  0  0  0  0  0  0  0
   41.8728   32.8244   40.1287 H   0  0  0  0  0  0  0  0  0  0  0  0
   42.0362   32.5864   41.6486 H   0  0  0  0  0  0  0  0  0  0  0  0
   40.8835   35.5033   41.7419 H   0  0  0  0  0  0  0  0  0  0  0  0
   38.9348   34.8438   41.3132 H   0  0  0  0  0  0  0  0  0  0  0  0
   38.5766   35.9280   39.9418 H   0  0  0  0  0  0  0  0  0  0  0  0
   39.4630   32.9870   39.5937 H   0  0  0  0  0  0  0  0  0  0  0  0
   37.7710   33.4485   39.6142 H   0  0  0  0  0  0  0  0  0  0  0  0
   38.7062   33.5159   37.2690 H   0  0  0  0  0  0  0  0  0  0  0  0
   38.2415   35.1829   37.8317 H   0  0  0  0  0  0  0  0  0  0  0  0
   40.9423   33.9717   37.4107 H   0  0  0  0  0  0  0  0  0  0  0  0
   40.2063   35.5744   36.8638 H   0  0  0  0  0  0  0  0  0  0  0  0
   42.0667   35.3133   38.7587 H   0  0  0  0  0  0  0  0  0  0  0  0
   40.7888   36.6350   38.6212 H   0  0  0  0  0  0  0  0  0  0  0  0
  1  7  1  0
  2  1  1  0
  3  2  2  0
  4  3  1  0
  4  5  2  0
  5  1  1  0
  6 11  2  0
  7  6  1  0
  8  7  2  0
  8  9  1  0
  9 10  2  0
 10 11  1  0
 12  8  1  0
 13 12  1  0
 14 13  2  0
 15 17  1  0
 15 14  1  0
 16 15  2  0
 17 18  1  0
 18 19  2  0
 18 12  1  0
 20 21  1  0
 20 22  1  0
 20  4  1  0
 21 22  1  0
 23 24  1  0
 23 22  1  0
 25 24  1  0
 26 25  1  0
 27 26  1  0
 27 28  1  0
 28 23  1  0
  2 29  1  0
  6 30  1  0
 10 31  1  0
 13 32  1  0
 14 33  1  0
 17 34  1  0
 20 35  1  6
 21 36  1  0
 21 37  1  0
 22 38  1  1
 24 39  1  0
 24 40  1  0
 25 41  1  0
 25 42  1  0
 26 43  1  0
 26 44  1  0
 27 45  1  0
 27 46  1  0
 28 47  1  0
 28 48  1  0
M  ISO  8  29  14  30  14  31  14  32  14  33  14  34   9  35  13  36  13
M  ISO  8  37  13  38  13  39  13  40  13  41  13  42  13  43  13  44  13
M  ISO  4  45  13  46  13  47  13  48  13
M  END
>  <minimizedAffinity>  (1) 
-6.37633562

>  <minimizedRMSD>  (1) 
1.73349535

$$$$
