
     RDKit          3D

 45 49  0  0  1  0  0  0  0  0999 V2000
   45.3300   33.1380   44.2750 C   0  0  0  0  0  0  0  0  0  0  0  0
   45.7250   33.4690   42.9700 C   0  0  0  0  0  0  0  0  0  0  0  0
   46.9260   32.9990   42.5080 C   0  0  0  0  0  0  0  0  0  0  0  0
   47.6850   32.2320   43.3250 N   0  0  0  0  0  0  0  0  0  0  0  0
   47.2830   31.9250   44.5820 C   0  0  0  0  0  0  0  0  0  0  0  0
   46.1050   32.3840   45.0410 N   0  0  0  0  0  0  0  0  0  0  0  0
   47.3120   33.3430   41.1850 N   0  0  0  0  0  0  0  0  0  0  0  0
   47.9660   34.5420   41.1280 C   0  0  0  0  0  0  0  0  0  0  0  0
   48.4010   35.0040   39.8930 C   0  0  0  0  0  0  0  0  0  0  0  0
   48.1860   34.2850   38.7440 C   0  0  0  0  0  0  0  0  0  0  0  0
   48.5820   34.7080   37.6210 O   0  0  0  0  0  0  0  0  0  0  0  0
   47.5260   33.0940   38.8600 N   0  0  0  0  0  0  0  0  0  0  0  0
   47.1030   32.6420   40.0530 C   0  0  0  0  0  0  0  0  0  0  0  0
   46.4950   31.5560   40.2090 O   0  0  0  0  0  0  0  0  0  0  0  0
   44.8300   34.2830   42.2170 N   0  0  0  0  0  0  0  0  0  0  0  0
   44.5170   35.6130   42.3600 C   0  0  0  0  0  0  0  0  0  0  0  0
   43.6170   35.9590   41.4200 N   0  0  0  0  0  0  0  0  0  0  0  0
   43.3770   34.8290   40.6940 C   0  0  0  0  0  0  0  0  0  0  0  0
   44.1110   33.8420   41.1880 N   0  0  0  0  0  0  0  0  0  0  0  0
   42.4500   34.6790   39.5370 C   0  0  1  0  0  0  0  0  0  0  0  0
   42.4130   33.2910   38.8940 C   0  0  0  0  0  0  0  0  0  0  0  0
   41.2190   33.9100   39.6060 C   0  0  2  0  0  0  0  0  0  0  0  0
   40.1490   34.4770   38.7860 N   0  0  0  0  0  0  0  0  0  0  0  0
   39.4690   33.4350   38.0390 C   0  0  0  0  0  0  0  0  0  0  0  0
   38.7750   32.5930   39.0920 C   0  0  0  0  0  0  0  0  0  0  0  0
   38.6390   33.5500   40.2490 C   0  0  0  0  0  0  0  0  0  0  0  0
   39.1190   34.8680   39.7360 C   0  0  0  0  0  0  0  0  0  0  0  0
   44.3700   33.5071   44.6651 H   0  0  0  0  0  0  0  0  0  0  0  0
   47.9195   31.3009   45.2265 H   0  0  0  0  0  0  0  0  0  0  0  0
   48.1439   35.1285   42.0414 H   0  0  0  0  0  0  0  0  0  0  0  0
   48.9293   35.9670   39.8343 H   0  0  0  0  0  0  0  0  0  0  0  0
   47.3491   32.5311   38.0158 H   0  0  0  0  0  0  0  0  0  0  0  0
   44.9351   36.2880   43.1213 H   0  0  0  0  0  0  0  0  0  0  0  0
   42.6434   35.7155   39.2237 H   0  0  0  0  0  0  0  0  0  0  0  0
   42.4157   33.1823   37.7994 H   0  0  0  0  0  0  0  0  0  0  0  0
   42.9936   32.3603   38.9760 H   0  0  0  0  0  0  0  0  0  0  0  0
   40.5557   33.5341   40.3989 H   0  0  0  0  0  0  0  0  0  0  0  0
   38.7346   33.8714   37.3460 H   0  0  0  0  0  0  0  0  0  0  0  0
   40.1642   32.8427   37.4259 H   0  0  0  0  0  0  0  0  0  0  0  0
   37.7895   32.2530   38.7411 H   0  0  0  0  0  0  0  0  0  0  0  0
   39.3253   31.6756   39.3481 H   0  0  0  0  0  0  0  0  0  0  0  0
   37.5885   33.6210   40.5676 H   0  0  0  0  0  0  0  0  0  0  0  0
   39.2176   33.2175   41.1235 H   0  0  0  0  0  0  0  0  0  0  0  0
   39.5379   35.4820   40.5469 H   0  0  0  0  0  0  0  0  0  0  0  0
   38.3225   35.4834   39.2923 H   0  0  0  0  0  0  0  0  0  0  0  0
  1  6  2  0
  2  1  1  0
  3  2  2  0
  3  4  1  0
  4  5  2  0
  5  6  1  0
  7  3  1  0
  8  7  1  0
  9  8  2  0
 10 12  1  0
 10  9  1  0
 11 10  2  0
 12 13  1  0
 13 14  2  0
 13  7  1  0
 15 16  1  0
 15  2  1  0
 17 16  2  0
 18 19  2  0
 18 17  1  0
 19 15  1  0
 20 22  1  0
 20 18  1  0
 21 20  1  0
 21 22  1  0
 23 24  1  0
 23 22  1  0
 23 27  1  0
 24 25  1  0
 25 26  1  0
 27 26  1  0
  1 28  1  0
  5 29  1  0
  8 30  1  0
  9 31  1  0
 12 32  1  0
 16 33  1  0
 20 34  1  6
 21 35  1  0
 21 36  1  0
 22 37  1  1
 24 38  1  0
 24 39  1  0
 25 40  1  0
 25 41  1  0
 26 42  1  0
 26 43  1  0
 27 44  1  0
 27 45  1  0
M  ISO  8  28  14  29  14  30  14  31  14  32   9  33  14  34  13  35  13
M  ISO  8  36  13  37  13  38  13  39  13  40  13  41  13  42  13  43  13
M  ISO  2  44  13  45  13
M  END
>  <minimizedAffinity>  (1) 
-5.85780001

>  <minimizedRMSD>  (1) 
1.43244529

$$$$
