
     RDKit          3D

 36 39  0  0  1  0  0  0  0  0999 V2000
   45.2460   33.3550   44.3280 C   0  0  0  0  0  0  0  0  0  0  0  0
   45.6590   33.6230   43.0110 C   0  0  0  0  0  0  0  0  0  0  0  0
   46.8700   33.1420   42.5950 C   0  0  0  0  0  0  0  0  0  0  0  0
   47.6310   32.4290   43.4510 N   0  0  0  0  0  0  0  0  0  0  0  0
   47.2110   32.1810   44.7210 C   0  0  0  0  0  0  0  0  0  0  0  0
   46.0200   32.6500   45.1400 N   0  0  0  0  0  0  0  0  0  0  0  0
   47.2720   33.4250   41.2550 N   0  0  0  0  0  0  0  0  0  0  0  0
   47.9130   34.6270   41.1490 C   0  0  0  0  0  0  0  0  0  0  0  0
   48.3580   35.0240   39.8940 C   0  0  0  0  0  0  0  0  0  0  0  0
   48.1700   34.2490   38.7850 C   0  0  0  0  0  0  0  0  0  0  0  0
   48.5810   34.6200   37.6460 O   0  0  0  0  0  0  0  0  0  0  0  0
   47.5250   33.0600   38.9520 N   0  0  0  0  0  0  0  0  0  0  0  0
   47.0900   32.6640   40.1600 C   0  0  0  0  0  0  0  0  0  0  0  0
   46.4910   31.5790   40.3640 O   0  0  0  0  0  0  0  0  0  0  0  0
   44.7680   34.3860   42.2050 N   0  0  0  0  0  0  0  0  0  0  0  0
   44.3690   35.6990   42.3250 C   0  0  0  0  0  0  0  0  0  0  0  0
   43.5080   35.9910   41.3320 N   0  0  0  0  0  0  0  0  0  0  0  0
   43.3770   34.8510   40.5990 C   0  0  0  0  0  0  0  0  0  0  0  0
   44.1360   33.9060   41.1360 N   0  0  0  0  0  0  0  0  0  0  0  0
   42.5270   34.6490   39.3890 C   0  0  1  0  0  0  0  0  0  0  0  0
   41.5820   33.4400   39.4440 C   0  0  0  0  0  0  0  0  0  0  0  0
   41.1060   34.8910   39.3480 C   0  0  1  0  0  0  0  0  0  0  0  0
   40.2740   35.3480   40.4960 C   0  0  0  0  0  0  0  0  0  0  0  0
   40.5630   36.7080   40.6790 F   0  0  0  0  0  0  0  0  0  0  0  0
   38.9220   35.3090   40.2370 F   0  0  0  0  0  0  0  0  0  0  0  0
   40.5180   34.7300   41.6860 F   0  0  0  0  0  0  0  0  0  0  0  0
   44.2765   33.7321   44.6856 H   0  0  0  0  0  0  0  0  0  0  0  0
   47.8441   31.5975   45.4056 H   0  0  0  0  0  0  0  0  0  0  0  0
   48.0723   35.2626   42.0325 H   0  0  0  0  0  0  0  0  0  0  0  0
   48.8759   35.9889   39.7907 H   0  0  0  0  0  0  0  0  0  0  0  0
   47.3678   32.4525   38.1353 H   0  0  0  0  0  0  0  0  0  0  0  0
   44.7009   36.3975   43.1073 H   0  0  0  0  0  0  0  0  0  0  0  0
   43.3358   35.0287   38.7474 H   0  0  0  0  0  0  0  0  0  0  0  0
   41.4892   32.7616   38.5831 H   0  0  0  0  0  0  0  0  0  0  0  0
   41.4141   32.5859   40.1166 H   0  0  0  0  0  0  0  0  0  0  0  0
   40.5235   35.5298   38.6678 H   0  0  0  0  0  0  0  0  0  0  0  0
  1  6  2  0
  2  1  1  0
  3  2  2  0
  3  4  1  0
  4  5  2  0
  5  6  1  0
  7  3  1  0
  8  7  1  0
  9  8  2  0
 10 12  1  0
 10  9  1  0
 11 10  2  0
 12 13  1  0
 13 14  2  0
 13  7  1  0
 15 16  1  0
 15  2  1  0
 17 16  2  0
 18 19  2  0
 18 17  1  0
 19 15  1  0
 20 21  1  0
 20 18  1  0
 22 20  1  0
 22 21  1  0
 22 23  1  0
 23 24  1  0
 23 26  1  0
 25 23  1  0
  1 27  1  0
  5 28  1  0
  8 29  1  0
  9 30  1  0
 12 31  1  0
 16 32  1  0
 20 33  1  6
 21 34  1  0
 21 35  1  0
 22 36  1  6
M  ISO  8  27  14  28  14  29  14  30  14  31   9  32  14  33  13  34  13
M  ISO  2  35  13  36  13
M  END
>  <minimizedAffinity>  (1) 
-5.92718649

>  <minimizedRMSD>  (1) 
1.44313276

$$$$
