
     RDKit          3D

 41 45  0  0  1  0  0  0  0  0999 V2000
   45.2080   34.5090   43.8850 N   0  0  0  0  0  0  0  0  0  0  0  0
   45.4230   35.8410   43.5820 C   0  0  0  0  0  0  0  0  0  0  0  0
   44.5770   36.2150   42.6030 N   0  0  0  0  0  0  0  0  0  0  0  0
   43.8380   35.1100   42.3030 C   0  0  0  0  0  0  0  0  0  0  0  0
   44.2300   34.1080   43.0770 N   0  0  0  0  0  0  0  0  0  0  0  0
   45.3790   33.7470   46.1570 C   0  0  0  0  0  0  0  0  0  0  0  0
   45.8490   33.6740   44.8400 C   0  0  0  0  0  0  0  0  0  0  0  0
   46.8760   32.8180   44.5580 C   0  0  0  0  0  0  0  0  0  0  0  0
   47.4090   32.0690   45.5540 N   0  0  0  0  0  0  0  0  0  0  0  0
   46.9490   32.1490   46.8160 C   0  0  0  0  0  0  0  0  0  0  0  0
   45.9270   32.9980   47.1040 N   0  0  0  0  0  0  0  0  0  0  0  0
   47.3420   32.7550   43.2100 N   0  0  0  0  0  0  0  0  0  0  0  0
   48.3270   33.6680   42.9490 C   0  0  0  0  0  0  0  0  0  0  0  0
   48.8610   33.7030   41.6690 C   0  0  0  0  0  0  0  0  0  0  0  0
   48.4340   32.8610   40.6840 C   0  0  0  0  0  0  0  0  0  0  0  0
   48.9330   32.9070   39.5190 O   0  0  0  0  0  0  0  0  0  0  0  0
   47.4490   31.9700   40.9980 N   0  0  0  0  0  0  0  0  0  0  0  0
   46.9220   31.9240   42.2330 C   0  0  0  0  0  0  0  0  0  0  0  0
   46.0160   31.1240   42.5730 O   0  0  0  0  0  0  0  0  0  0  0  0
   42.7470   34.9880   41.2880 C   0  0  1  0  0  0  0  0  0  0  0  0
   43.2030   34.5660   39.8850 C   0  0  0  0  0  0  0  0  0  0  0  0
   42.2890   33.7120   40.7660 C   0  0  2  0  0  0  0  0  0  0  0  0
   40.8240   33.7080   40.4140 C   0  0  0  0  0  0  0  0  0  0  0  0
   40.3200   34.5700   39.4560 C   0  0  0  0  0  0  0  0  0  0  0  0
   38.9680   34.5110   39.1850 C   0  0  0  0  0  0  0  0  0  0  0  0
   38.1500   33.6500   39.8210 N   0  0  0  0  0  0  0  0  0  0  0  0
   38.6610   32.8230   40.7480 C   0  0  0  0  0  0  0  0  0  0  0  0
   39.9930   32.8550   41.0410 N   0  0  0  0  0  0  0  0  0  0  0  0
   46.1671   36.4920   44.0642 H   0  0  0  0  0  0  0  0  0  0  0  0
   44.5522   34.4282   46.4069 H   0  0  0  0  0  0  0  0  0  0  0  0
   47.3967   31.5319   47.6089 H   0  0  0  0  0  0  0  0  0  0  0  0
   48.6849   34.3540   43.7309 H   0  0  0  0  0  0  0  0  0  0  0  0
   49.6528   34.4318   41.4413 H   0  0  0  0  0  0  0  0  0  0  0  0
   47.1038   31.3218   40.2758 H   0  0  0  0  0  0  0  0  0  0  0  0
   42.1947   35.8198   41.7496 H   0  0  0  0  0  0  0  0  0  0  0  0
   44.2451   34.2646   39.7028 H   0  0  0  0  0  0  0  0  0  0  0  0
   43.1626   34.9922   38.8717 H   0  0  0  0  0  0  0  0  0  0  0  0
   42.3326   32.6633   41.0952 H   0  0  0  0  0  0  0  0  0  0  0  0
   40.9751   35.2786   38.9281 H   0  0  0  0  0  0  0  0  0  0  0  0
   38.5457   35.1872   38.4271 H   0  0  0  0  0  0  0  0  0  0  0  0
   38.0020   32.1163   41.2736 H   0  0  0  0  0  0  0  0  0  0  0  0
  1  7  1  0
  2  1  1  0
  3  2  2  0
  4  3  1  0
  4  5  2  0
  5  1  1  0
  6 11  2  0
  7  6  1  0
  8  7  2  0
  8  9  1  0
  9 10  2  0
 10 11  1  0
 12  8  1  0
 13 12  1  0
 14 13  2  0
 15 17  1  0
 15 14  1  0
 16 15  2  0
 17 18  1  0
 18 19  2  0
 18 12  1  0
 20  4  1  0
 21 22  1  0
 21 20  1  0
 22 20  1  0
 23 22  1  0
 23 28  1  0
 24 23  2  0
 25 24  1  0
 25 26  2  0
 26 27  1  0
 27 28  2  0
  2 29  1  0
  6 30  1  0
 10 31  1  0
 13 32  1  0
 14 33  1  0
 17 34  1  0
 20 35  1  6
 21 36  1  0
 21 37  1  0
 22 38  1  1
 24 39  1  0
 25 40  1  0
 27 41  1  0
M  ISO  8  29  14  30  14  31  14  32  14  33  14  34   9  35  13  36  13
M  ISO  5  37  13  38  13  39  14  40  14  41  14
M  END
>  <minimizedAffinity>  (1) 
-5.91057634

>  <minimizedRMSD>  (1) 
2.25677538

$$$$
