
     RDKit          3D

 35 38  0  0  1  0  0  0  0  0999 V2000
   45.6270   33.3820   45.1580 C   0  0  0  0  0  0  0  0  0  0  0  0
   45.9440   33.6870   43.8250 C   0  0  0  0  0  0  0  0  0  0  0  0
   47.0270   33.0790   43.2410 C   0  0  0  0  0  0  0  0  0  0  0  0
   47.7560   32.2030   43.9730 N   0  0  0  0  0  0  0  0  0  0  0  0
   47.4380   31.9200   45.2570 C   0  0  0  0  0  0  0  0  0  0  0  0
   46.3760   32.5140   45.8330 N   0  0  0  0  0  0  0  0  0  0  0  0
   47.3290   33.4010   41.8970 N   0  0  0  0  0  0  0  0  0  0  0  0
   48.1150   34.5120   41.7890 C   0  0  0  0  0  0  0  0  0  0  0  0
   48.4870   34.9410   40.5200 C   0  0  0  0  0  0  0  0  0  0  0  0
   48.0850   34.2790   39.3930 C   0  0  0  0  0  0  0  0  0  0  0  0
   48.4260   34.6730   38.2420 O   0  0  0  0  0  0  0  0  0  0  0  0
   47.2980   33.1710   39.5610 N   0  0  0  0  0  0  0  0  0  0  0  0
   46.9360   32.7520   40.7800 C   0  0  0  0  0  0  0  0  0  0  0  0
   46.2160   31.7430   40.9840 O   0  0  0  0  0  0  0  0  0  0  0  0
   45.1010   34.6220   43.1700 N   0  0  0  0  0  0  0  0  0  0  0  0
   45.1200   36.0100   43.2050 C   0  0  0  0  0  0  0  0  0  0  0  0
   44.1280   36.4840   42.4280 N   0  0  0  0  0  0  0  0  0  0  0  0
   43.4980   35.3920   41.9130 C   0  0  0  0  0  0  0  0  0  0  0  0
   44.0930   34.2980   42.3680 N   0  0  0  0  0  0  0  0  0  0  0  0
   42.3230   35.3740   40.9870 C   0  0  1  0  0  0  0  0  0  0  0  0
   41.3270   34.2300   41.2190 C   0  0  0  0  0  0  0  0  0  0  0  0
   40.9750   35.7010   41.4150 C   0  0  2  0  0  0  0  0  0  0  0  0
   40.0760   36.3200   40.4660 N   0  0  0  0  0  0  0  0  0  0  0  0
   44.7624   33.8589   45.6428 H   0  0  0  0  0  0  0  0  0  0  0  0
   48.0467   31.2051   45.8300 H   0  0  0  0  0  0  0  0  0  0  0  0
   48.4466   35.0556   42.6860 H   0  0  0  0  0  0  0  0  0  0  0  0
   49.1202   35.8349   40.4200 H   0  0  0  0  0  0  0  0  0  0  0  0
   46.9780   32.6493   38.7326 H   0  0  0  0  0  0  0  0  0  0  0  0
   45.8318   36.6241   43.7762 H   0  0  0  0  0  0  0  0  0  0  0  0
   42.9362   35.7673   40.1628 H   0  0  0  0  0  0  0  0  0  0  0  0
   40.9163   33.6653   40.3690 H   0  0  0  0  0  0  0  0  0  0  0  0
   41.2926   33.3143   41.8276 H   0  0  0  0  0  0  0  0  0  0  0  0
   40.5603   36.2884   42.2474 H   0  0  0  0  0  0  0  0  0  0  0  0
   39.3378   36.8283   40.9736 H   0  0  0  0  0  0  0  0  0  0  0  0
   40.6019   36.9789   39.8743 H   0  0  0  0  0  0  0  0  0  0  0  0
  1  6  2  0
  2  1  1  0
  3  2  2  0
  3  4  1  0
  4  5  2  0
  5  6  1  0
  7  3  1  0
  8  7  1  0
  9  8  2  0
 10 12  1  0
 10  9  1  0
 11 10  2  0
 12 13  1  0
 13 14  2  0
 13  7  1  0
 15 16  1  0
 15  2  1  0
 17 16  2  0
 18 19  2  0
 18 17  1  0
 19 15  1  0
 20 21  1  0
 20 22  1  0
 20 18  1  0
 21 22  1  0
 23 22  1  0
  1 24  1  0
  5 25  1  0
  8 26  1  0
  9 27  1  0
 12 28  1  0
 16 29  1  0
 20 30  1  6
 21 31  1  0
 21 32  1  0
 22 33  1  1
 23 34  1  0
 23 35  1  0
M  ISO  8  24  14  25  14  26  14  27  14  28   9  29  14  30  13  31  13
M  ISO  4  32  13  33  13  34   5  35   5
M  END
>  <minimizedAffinity>  (1) 
-5.14404631

>  <minimizedRMSD>  (1) 
0.388931334

$$$$
