
     RDKit          3D

 36 38  0  0  0  0  0  0  0  0999 V2000
   45.1900   34.4700   43.3720 C   0  0  0  0  0  0  0  0  0  0  0  0
   45.4630   33.8820   45.7670 C   0  0  0  0  0  0  0  0  0  0  0  0
   45.8590   33.6420   44.4180 C   0  0  0  0  0  0  0  0  0  0  0  0
   46.8230   32.6700   44.1970 C   0  0  0  0  0  0  0  0  0  0  0  0
   47.3440   31.9960   45.2580 N   0  0  0  0  0  0  0  0  0  0  0  0
   46.9340   32.2580   46.5350 C   0  0  0  0  0  0  0  0  0  0  0  0
   46.0120   33.1820   46.7840 N   0  0  0  0  0  0  0  0  0  0  0  0
   46.2530   34.9590   42.4040 C   0  0  0  0  0  0  0  0  0  0  0  0
   44.5360   35.6610   44.0510 C   0  0  0  0  0  0  0  0  0  0  0  0
   44.1240   33.6650   42.7120 C   0  0  0  0  0  0  0  0  0  0  0  0
   43.3000   34.3660   41.7800 N   0  0  0  0  0  0  0  0  0  0  0  0
   42.3150   35.2420   42.1100 C   0  0  0  0  0  0  0  0  0  0  0  0
   41.6870   35.7660   41.0450 N   0  0  0  0  0  0  0  0  0  0  0  0
   42.2750   35.2210   39.9680 C   0  0  0  0  0  0  0  0  0  0  0  0
   42.1060   35.3330   38.5820 C   0  0  0  0  0  0  0  0  0  0  0  0
   41.2350   36.0870   38.1320 O   0  0  0  0  0  0  0  0  0  0  0  0
   42.8760   34.6330   37.7120 N   0  0  0  0  0  0  0  0  0  0  0  0
   43.8200   33.8140   38.2120 C   0  0  0  0  0  0  0  0  0  0  0  0
   44.6410   33.0690   37.3160 N   0  0  0  0  0  0  0  0  0  0  0  0
   44.0110   33.6810   39.5520 N   0  0  0  0  0  0  0  0  0  0  0  0
   43.2590   34.3670   40.4360 C   0  0  0  0  0  0  0  0  0  0  0  0
   44.7015   34.6461   45.9820 H   0  0  0  0  0  0  0  0  0  0  0  0
   47.1628   32.4463   43.1750 H   0  0  0  0  0  0  0  0  0  0  0  0
   47.3745   31.6946   47.3708 H   0  0  0  0  0  0  0  0  0  0  0  0
   47.1102   35.3533   42.9694 H   0  0  0  0  0  0  0  0  0  0  0  0
   46.5847   34.1230   41.7707 H   0  0  0  0  0  0  0  0  0  0  0  0
   45.8340   35.7549   41.7707 H   0  0  0  0  0  0  0  0  0  0  0  0
   44.6013   35.5421   45.1426 H   0  0  0  0  0  0  0  0  0  0  0  0
   45.0538   36.5840   43.7511 H   0  0  0  0  0  0  0  0  0  0  0  0
   43.4793   35.7194   43.7511 H   0  0  0  0  0  0  0  0  0  0  0  0
   44.6104   32.8370   42.1756 H   0  0  0  0  0  0  0  0  0  0  0  0
   43.4512   33.3423   43.5202 H   0  0  0  0  0  0  0  0  0  0  0  0
   42.0572   35.4971   43.1485 H   0  0  0  0  0  0  0  0  0  0  0  0
   42.7418   34.7257   36.6950 H   0  0  0  0  0  0  0  0  0  0  0  0
   45.3669   32.4388   37.6858 H   0  0  0  0  0  0  0  0  0  0  0  0
   44.5083   33.1609   36.2987 H   0  0  0  0  0  0  0  0  0  0  0  0
  1  9  1  0
  1  3  1  0
  2  7  2  0
  3  2  1  0
  4  3  2  0
  4  5  1  0
  5  6  2  0
  6  7  1  0
  8  1  1  0
 10  1  1  0
 11 12  1  0
 11 10  1  0
 13 12  2  0
 14 21  2  0
 14 13  1  0
 15 14  1  0
 16 15  2  0
 17 18  1  0
 17 15  1  0
 18 20  2  0
 19 18  1  0
 20 21  1  0
 21 11  1  0
  2 22  1  0
  4 23  1  0
  6 24  1  0
  8 25  1  0
  8 26  1  0
  8 27  1  0
  9 28  1  0
  9 29  1  0
  9 30  1  0
 10 31  1  0
 10 32  1  0
 12 33  1  0
 17 34  1  0
 19 35  1  0
 19 36  1  0
M  ISO  8  22  14  23  14  24  14  25   8  26   8  27   8  28   8  29   8
M  ISO  5  30   8  31   8  32   8  33  14  34   9
M  END
>  <minimizedAffinity>  (1) 
-5.10162306

>  <minimizedRMSD>  (1) 
2.07626534

$$$$
