
     RDKit          3D

 25 27  0  0  0  0  0  0  0  0999 V2000
   46.7290   34.7530   41.9860 C   0  0  0  0  0  0  0  0  0  0  0  0
   47.9700   35.2900   41.7710 C   0  0  0  0  0  0  0  0  0  0  0  0
   48.6780   35.1530   40.5950 C   0  0  0  0  0  0  0  0  0  0  0  0
   48.1020   34.4410   39.5930 N   0  0  0  0  0  0  0  0  0  0  0  0
   46.9010   33.9170   39.7860 C   0  0  0  0  0  0  0  0  0  0  0  0
   46.2120   34.0510   40.9340 N   0  0  0  0  0  0  0  0  0  0  0  0
   46.3430   33.1800   38.7030 N   0  0  0  0  0  0  0  0  0  0  0  0
   45.3760   32.2660   38.5890 N   0  0  0  0  0  0  0  0  0  0  0  0
   45.2520   31.8900   37.3090 C   0  0  0  0  0  0  0  0  0  0  0  0
   46.1930   32.6060   36.5710 C   0  0  0  0  0  0  0  0  0  0  0  0
   46.8630   33.4060   37.4700 C   0  0  0  0  0  0  0  0  0  0  0  0
   44.4750   35.9800   44.7550 C   0  0  0  0  0  0  0  0  0  0  0  0
   45.1190   35.9440   43.5100 C   0  0  0  0  0  0  0  0  0  0  0  0
   45.9960   34.9080   43.2370 C   0  0  0  0  0  0  0  0  0  0  0  0
   46.1890   33.9770   44.1900 N   0  0  0  0  0  0  0  0  0  0  0  0
   45.5720   34.0150   45.3810 C   0  0  0  0  0  0  0  0  0  0  0  0
   44.7170   35.0030   45.6760 N   0  0  0  0  0  0  0  0  0  0  0  0
   48.4311   35.8664   42.5866 H   0  0  0  0  0  0  0  0  0  0  0  0
   49.6737   35.6046   40.4736 H   0  0  0  0  0  0  0  0  0  0  0  0
   44.5387   31.1520   36.9133 H   0  0  0  0  0  0  0  0  0  0  0  0
   46.3661   32.5444   35.4865 H   0  0  0  0  0  0  0  0  0  0  0  0
   47.6772   34.1058   37.2305 H   0  0  0  0  0  0  0  0  0  0  0  0
   43.7750   36.7956   44.9890 H   0  0  0  0  0  0  0  0  0  0  0  0
   44.9302   36.7273   42.7612 H   0  0  0  0  0  0  0  0  0  0  0  0
   45.7703   33.2270   46.1224 H   0  0  0  0  0  0  0  0  0  0  0  0
  1 14  1  0
  2  1  2  0
  3  2  1  0
  4  5  1  0
  4  3  2  0
  5  6  2  0
  6  1  1  0
  7  5  1  0
  8  7  1  0
  9  8  2  0
 10  9  1  0
 10 11  2  0
 11  7  1  0
 12 17  2  0
 13 12  1  0
 14 13  2  0
 14 15  1  0
 15 16  2  0
 16 17  1  0
  2 18  1  0
  3 19  1  0
  9 20  1  0
 10 21  1  0
 11 22  1  0
 12 23  1  0
 13 24  1  0
 16 25  1  0
M  ISO  8  18  14  19  14  20  14  21  14  22  14  23  14  24  14  25  14
M  END
>  <minimizedAffinity>  (1) 
-5.21224356

>  <minimizedRMSD>  (1) 
0.153283074

$$$$
