
     RDKit          3D

 40 44  0  0  1  0  0  0  0  0999 V2000
   45.0970   33.9850   45.5220 C   0  0  0  0  0  0  0  0  0  0  0  0
   45.8730   33.6430   44.3910 C   0  0  0  0  0  0  0  0  0  0  0  0
   46.9770   32.8570   44.5640 C   0  0  0  0  0  0  0  0  0  0  0  0
   47.2960   32.4310   45.8100 N   0  0  0  0  0  0  0  0  0  0  0  0
   46.5480   32.7630   46.8850 C   0  0  0  0  0  0  0  0  0  0  0  0
   45.4630   33.5340   46.7210 N   0  0  0  0  0  0  0  0  0  0  0  0
   47.7400   32.5290   43.4090 N   0  0  0  0  0  0  0  0  0  0  0  0
   48.5890   33.5350   43.0310 C   0  0  0  0  0  0  0  0  0  0  0  0
   49.3900   33.3380   41.9150 C   0  0  0  0  0  0  0  0  0  0  0  0
   49.3550   32.1840   41.1930 C   0  0  0  0  0  0  0  0  0  0  0  0
   50.0850   32.0060   40.1790 O   0  0  0  0  0  0  0  0  0  0  0  0
   48.4870   31.2050   41.6130 N   0  0  0  0  0  0  0  0  0  0  0  0
   47.7060   31.3850   42.6930 C   0  0  0  0  0  0  0  0  0  0  0  0
   46.9000   30.5290   43.1170 O   0  0  0  0  0  0  0  0  0  0  0  0
   45.4280   34.1580   43.1470 N   0  0  0  0  0  0  0  0  0  0  0  0
   45.2470   35.4720   42.7420 C   0  0  0  0  0  0  0  0  0  0  0  0
   44.8060   35.4860   41.4710 N   0  0  0  0  0  0  0  0  0  0  0  0
   44.7160   34.1800   41.0920 C   0  0  0  0  0  0  0  0  0  0  0  0
   45.0910   33.4120   42.1060 N   0  0  0  0  0  0  0  0  0  0  0  0
   44.2700   33.6630   39.7720 C   0  0  1  0  0  0  0  0  0  0  0  0
   43.4590   32.3620   39.8030 C   0  0  0  0  0  0  0  0  0  0  0  0
   42.8910   33.7000   39.3160 C   0  0  1  0  0  0  0  0  0  0  0  0
   41.8310   34.2120   40.1960 N   0  0  0  0  0  0  0  0  0  0  0  0
   41.0830   33.5020   41.0850 C   0  0  0  0  0  0  0  0  0  0  0  0
   40.2010   34.3530   41.7100 C   0  0  0  0  0  0  0  0  0  0  0  0
   40.4110   35.5720   41.2080 N   0  0  0  0  0  0  0  0  0  0  0  0
   41.3990   35.4830   40.2900 C   0  0  0  0  0  0  0  0  0  0  0  0
   44.2022   34.6156   45.4135 H   0  0  0  0  0  0  0  0  0  0  0  0
   46.8267   32.4038   47.8867 H   0  0  0  0  0  0  0  0  0  0  0  0
   48.6349   34.4763   43.5983 H   0  0  0  0  0  0  0  0  0  0  0  0
   50.0754   34.1400   41.6036 H   0  0  0  0  0  0  0  0  0  0  0  0
   48.4336   30.3182   41.0918 H   0  0  0  0  0  0  0  0  0  0  0  0
   45.4343   36.3615   43.3615 H   0  0  0  0  0  0  0  0  0  0  0  0
   45.1939   34.0357   39.3056 H   0  0  0  0  0  0  0  0  0  0  0  0
   43.6730   31.5524   39.0897 H   0  0  0  0  0  0  0  0  0  0  0  0
   43.1891   31.6084   40.5574 H   0  0  0  0  0  0  0  0  0  0  0  0
   42.4446   34.1102   38.3982 H   0  0  0  0  0  0  0  0  0  0  0  0
   41.1699   32.4217   41.2732 H   0  0  0  0  0  0  0  0  0  0  0  0
   39.4624   34.0805   42.4782 H   0  0  0  0  0  0  0  0  0  0  0  0
   41.7928   36.3270   39.7047 H   0  0  0  0  0  0  0  0  0  0  0  0
  1  6  2  0
  2  3  2  0
  2  1  1  0
  3  4  1  0
  4  5  2  0
  6  5  1  0
  7  3  1  0
  8  7  1  0
  9  8  2  0
 10 12  1  0
 10  9  1  0
 11 10  2  0
 12 13  1  0
 13 14  2  0
 13  7  1  0
 15  2  1  0
 16 15  1  0
 17 16  2  0
 18 17  1  0
 18 19  2  0
 19 15  1  0
 20 21  1  0
 20 18  1  0
 22 20  1  0
 22 21  1  0
 22 23  1  0
 23 27  1  0
 23 24  1  0
 24 25  2  0
 26 25  1  0
 27 26  2  0
  1 28  1  0
  5 29  1  0
  8 30  1  0
  9 31  1  0
 12 32  1  0
 16 33  1  0
 20 34  1  6
 21 35  1  0
 21 36  1  0
 22 37  1  6
 24 38  1  0
 25 39  1  0
 27 40  1  0
M  ISO  8  28  14  29  14  30  14  31  14  32   9  33  14  34  13  35  13
M  ISO  5  36  13  37  13  38  14  39  14  40  14
M  END
>  <minimizedAffinity>  (1) 
-4.91688967

>  <minimizedRMSD>  (1) 
2.60609436

$$$$
