
     RDKit          3D

 34 37  0  0  0  0  0  0  0  0999 V2000
   46.7250   34.7480   42.1290 C   0  0  0  0  0  0  0  0  0  0  0  0
   47.9550   35.2790   41.9060 C   0  0  0  0  0  0  0  0  0  0  0  0
   48.6680   35.1450   40.7300 C   0  0  0  0  0  0  0  0  0  0  0  0
   48.0880   34.4310   39.7360 N   0  0  0  0  0  0  0  0  0  0  0  0
   46.8800   33.9000   39.9300 C   0  0  0  0  0  0  0  0  0  0  0  0
   46.2040   34.0390   41.0730 N   0  0  0  0  0  0  0  0  0  0  0  0
   46.3430   33.1660   38.8480 N   0  0  0  0  0  0  0  0  0  0  0  0
   45.3900   32.2470   38.7290 N   0  0  0  0  0  0  0  0  0  0  0  0
   45.2750   31.8560   37.4490 C   0  0  0  0  0  0  0  0  0  0  0  0
   46.2230   32.5800   36.7100 C   0  0  0  0  0  0  0  0  0  0  0  0
   46.8630   33.3800   37.6180 C   0  0  0  0  0  0  0  0  0  0  0  0
   44.4310   35.9130   44.8810 C   0  0  0  0  0  0  0  0  0  0  0  0
   45.0740   35.8890   43.6320 C   0  0  0  0  0  0  0  0  0  0  0  0
   45.9900   34.8980   43.3710 C   0  0  0  0  0  0  0  0  0  0  0  0
   46.2220   33.9910   44.3490 N   0  0  0  0  0  0  0  0  0  0  0  0
   45.6130   34.0170   45.5310 C   0  0  0  0  0  0  0  0  0  0  0  0
   44.7110   34.9740   45.8170 N   0  0  0  0  0  0  0  0  0  0  0  0
   45.9390   32.9870   46.5160 C   0  0  0  0  0  0  0  0  0  0  0  0
   45.2180   32.8330   47.6840 C   0  0  0  0  0  0  0  0  0  0  0  0
   45.5360   31.8570   48.6080 C   0  0  0  0  0  0  0  0  0  0  0  0
   46.6230   31.0510   48.2750 C   0  0  0  0  0  0  0  0  0  0  0  0
   47.3520   31.1920   47.1140 C   0  0  0  0  0  0  0  0  0  0  0  0
   46.9780   32.1680   46.2670 N   0  0  0  0  0  0  0  0  0  0  0  0
   48.4167   35.8572   42.7199 H   0  0  0  0  0  0  0  0  0  0  0  0
   49.6627   35.5982   40.6066 H   0  0  0  0  0  0  0  0  0  0  0  0
   44.5704   31.1090   37.0545 H   0  0  0  0  0  0  0  0  0  0  0  0
   46.4122   32.5178   35.6282 H   0  0  0  0  0  0  0  0  0  0  0  0
   47.6732   34.0862   37.3839 H   0  0  0  0  0  0  0  0  0  0  0  0
   43.6946   36.7001   45.1007 H   0  0  0  0  0  0  0  0  0  0  0  0
   44.8475   36.6528   42.8735 H   0  0  0  0  0  0  0  0  0  0  0  0
   44.3696   33.5042   47.8832 H   0  0  0  0  0  0  0  0  0  0  0  0
   44.9704   31.7250   49.5422 H   0  0  0  0  0  0  0  0  0  0  0  0
   46.9156   30.2576   48.9785 H   0  0  0  0  0  0  0  0  0  0  0  0
   48.2043   30.5339   46.8892 H   0  0  0  0  0  0  0  0  0  0  0  0
  1 14  1  0
  2  1  2  0
  3  2  1  0
  4  5  1  0
  4  3  2  0
  5  6  2  0
  6  1  1  0
  7  5  1  0
  8  7  1  0
  9  8  2  0
 10  9  1  0
 10 11  2  0
 11  7  1  0
 12 17  2  0
 13 12  1  0
 14 13  2  0
 14 15  1  0
 15 16  2  0
 16 17  1  0
 16 18  1  0
 18 19  2  0
 19 20  1  0
 21 20  2  0
 22 21  1  0
 23 18  1  0
 23 22  2  0
  2 24  1  0
  3 25  1  0
  9 26  1  0
 10 27  1  0
 11 28  1  0
 12 29  1  0
 13 30  1  0
 19 31  1  0
 20 32  1  0
 21 33  1  0
 22 34  1  0
M  ISO  8  24  14  25  14  26  14  27  14  28  14  29  14  30  14  31  14
M  ISO  3  32  14  33  14  34  14
M  END
>  <minimizedAffinity>  (1) 
-6.75918055

>  <minimizedRMSD>  (1) 
0.191089079

$$$$
