
     RDKit          3D

 39 42  0  0  0  0  0  0  0  0999 V2000
   46.7410   34.7560   42.1060 C   0  0  0  0  0  0  0  0  0  0  0  0
   47.9780   35.3130   41.8820 C   0  0  0  0  0  0  0  0  0  0  0  0
   48.6880   35.1950   40.7160 C   0  0  0  0  0  0  0  0  0  0  0  0
   48.1270   34.4790   39.7210 N   0  0  0  0  0  0  0  0  0  0  0  0
   46.9260   33.9250   39.9030 C   0  0  0  0  0  0  0  0  0  0  0  0
   46.2430   34.0480   41.0480 N   0  0  0  0  0  0  0  0  0  0  0  0
   46.4100   33.1900   38.8060 N   0  0  0  0  0  0  0  0  0  0  0  0
   45.4650   32.2570   38.6830 N   0  0  0  0  0  0  0  0  0  0  0  0
   45.3560   31.8730   37.4080 C   0  0  0  0  0  0  0  0  0  0  0  0
   46.2960   32.6130   36.6740 C   0  0  0  0  0  0  0  0  0  0  0  0
   46.9280   33.4190   37.5830 C   0  0  0  0  0  0  0  0  0  0  0  0
   44.4400   35.9050   44.8590 C   0  0  0  0  0  0  0  0  0  0  0  0
   45.0890   35.8850   43.6140 C   0  0  0  0  0  0  0  0  0  0  0  0
   46.0020   34.8930   43.3480 C   0  0  0  0  0  0  0  0  0  0  0  0
   46.2370   33.9690   44.3130 N   0  0  0  0  0  0  0  0  0  0  0  0
   45.6090   34.0000   45.4990 C   0  0  0  0  0  0  0  0  0  0  0  0
   44.7160   34.9540   45.7830 N   0  0  0  0  0  0  0  0  0  0  0  0
   45.9390   32.9750   46.4300 N   0  0  0  0  0  0  0  0  0  0  0  0
   45.2860   32.9680   47.7270 C   0  0  0  0  0  0  0  0  0  0  0  0
   45.8990   31.9970   48.6770 C   0  0  0  0  0  0  0  0  0  0  0  0
   46.1970   30.7120   48.1270 N   0  0  0  0  0  0  0  0  0  0  0  0
   46.2830   30.6500   46.7010 C   0  0  0  0  0  0  0  0  0  0  0  0
   46.9000   31.9230   46.1630 C   0  0  0  0  0  0  0  0  0  0  0  0
   48.4305   35.8956   42.6980 H   0  0  0  0  0  0  0  0  0  0  0  0
   49.6753   35.6652   40.5967 H   0  0  0  0  0  0  0  0  0  0  0  0
   44.6610   31.1195   37.0090 H   0  0  0  0  0  0  0  0  0  0  0  0
   46.4859   32.5571   35.5920 H   0  0  0  0  0  0  0  0  0  0  0  0
   47.7288   34.1370   37.3523 H   0  0  0  0  0  0  0  0  0  0  0  0
   43.7069   36.6936   45.0840 H   0  0  0  0  0  0  0  0  0  0  0  0
   44.8690   36.6550   42.8599 H   0  0  0  0  0  0  0  0  0  0  0  0
   45.3559   33.9763   48.1611 H   0  0  0  0  0  0  0  0  0  0  0  0
   44.2409   32.6629   47.5700 H   0  0  0  0  0  0  0  0  0  0  0  0
   46.8372   32.4329   49.0508 H   0  0  0  0  0  0  0  0  0  0  0  0
   45.1496   31.8256   49.4637 H   0  0  0  0  0  0  0  0  0  0  0  0
   47.1020   30.4058   48.5118 H   0  0  0  0  0  0  0  0  0  0  0  0
   46.9071   29.7919   46.4108 H   0  0  0  0  0  0  0  0  0  0  0  0
   45.2720   30.5346   46.2833 H   0  0  0  0  0  0  0  0  0  0  0  0
   47.0789   31.8339   45.0813 H   0  0  0  0  0  0  0  0  0  0  0  0
   47.8702   32.1329   46.6371 H   0  0  0  0  0  0  0  0  0  0  0  0
  1 14  1  0
  2  1  2  0
  3  2  1  0
  4  5  1  0
  4  3  2  0
  5  6  2  0
  6  1  1  0
  7  5  1  0
  8  7  1  0
  9  8  2  0
 10  9  1  0
 10 11  2  0
 11  7  1  0
 12 17  2  0
 13 12  1  0
 14 13  2  0
 14 15  1  0
 15 16  2  0
 16 17  1  0
 16 18  1  0
 18 19  1  0
 19 20  1  0
 21 20  1  0
 22 21  1  0
 23 18  1  0
 23 22  1  0
  2 24  1  0
  3 25  1  0
  9 26  1  0
 10 27  1  0
 11 28  1  0
 12 29  1  0
 13 30  1  0
 19 31  1  0
 19 32  1  0
 20 33  1  0
 20 34  1  0
 21 35  1  0
 22 36  1  0
 22 37  1  0
 23 38  1  0
 23 39  1  0
M  ISO  8  24  14  25  14  26  14  27  14  28  14  29  14  30  14  31  13
M  ISO  8  32  13  33  13  34  13  35   5  36  13  37  13  38  13  39  13
M  END
>  <minimizedAffinity>  (1) 
-6.87155771

>  <minimizedRMSD>  (1) 
0.147925273

$$$$
