
     RDKit          3D

 31 34  0  0  0  0  0  0  0  0999 V2000
   46.6800   34.7720   42.1100 C   0  0  0  0  0  0  0  0  0  0  0  0
   47.9430   35.2850   41.9030 C   0  0  0  0  0  0  0  0  0  0  0  0
   48.6710   35.1270   40.7480 C   0  0  0  0  0  0  0  0  0  0  0  0
   48.0980   34.4180   39.7500 N   0  0  0  0  0  0  0  0  0  0  0  0
   46.8870   33.9160   39.9250 C   0  0  0  0  0  0  0  0  0  0  0  0
   46.1790   34.0740   41.0600 N   0  0  0  0  0  0  0  0  0  0  0  0
   46.3150   33.1740   38.8470 N   0  0  0  0  0  0  0  0  0  0  0  0
   45.3240   32.3050   38.7150 N   0  0  0  0  0  0  0  0  0  0  0  0
   45.2170   31.9070   37.4420 C   0  0  0  0  0  0  0  0  0  0  0  0
   46.2130   32.5730   36.7190 C   0  0  0  0  0  0  0  0  0  0  0  0
   46.8790   33.3540   37.6260 C   0  0  0  0  0  0  0  0  0  0  0  0
   44.4030   36.0260   44.8390 C   0  0  0  0  0  0  0  0  0  0  0  0
   45.0480   35.9780   43.5860 C   0  0  0  0  0  0  0  0  0  0  0  0
   45.9380   34.9580   43.3480 C   0  0  0  0  0  0  0  0  0  0  0  0
   46.1420   34.0580   44.3370 N   0  0  0  0  0  0  0  0  0  0  0  0
   45.5320   34.1060   45.5210 C   0  0  0  0  0  0  0  0  0  0  0  0
   44.6580   35.0880   45.7820 N   0  0  0  0  0  0  0  0  0  0  0  0
   45.8450   33.0890   46.4680 N   0  0  0  0  0  0  0  0  0  0  0  0
   46.9530   32.3680   46.2170 C   0  0  0  0  0  0  0  0  0  0  0  0
   47.0870   31.4540   47.2220 N   0  0  0  0  0  0  0  0  0  0  0  0
   46.0440   31.6400   48.0760 C   0  0  0  0  0  0  0  0  0  0  0  0
   45.2890   32.6550   47.5920 N   0  0  0  0  0  0  0  0  0  0  0  0
   48.4005   35.8617   42.7204 H   0  0  0  0  0  0  0  0  0  0  0  0
   49.6769   35.5590   40.6404 H   0  0  0  0  0  0  0  0  0  0  0  0
   44.4846   31.1916   37.0398 H   0  0  0  0  0  0  0  0  0  0  0  0
   46.4190   32.4869   35.6419 H   0  0  0  0  0  0  0  0  0  0  0  0
   47.7285   34.0160   37.4022 H   0  0  0  0  0  0  0  0  0  0  0  0
   43.6862   36.8326   45.0525 H   0  0  0  0  0  0  0  0  0  0  0  0
   44.8439   36.7383   42.8177 H   0  0  0  0  0  0  0  0  0  0  0  0
   47.6284   32.4925   45.3577 H   0  0  0  0  0  0  0  0  0  0  0  0
   45.8489   31.0682   48.9952 H   0  0  0  0  0  0  0  0  0  0  0  0
  1 14  1  0
  2  1  2  0
  3  2  1  0
  4  5  1  0
  4  3  2  0
  5  6  2  0
  6  1  1  0
  7  5  1  0
  8  7  1  0
  9  8  2  0
 10  9  1  0
 10 11  2  0
 11  7  1  0
 12 17  2  0
 13 12  1  0
 14 13  2  0
 14 15  1  0
 15 16  2  0
 16 17  1  0
 16 18  1  0
 18 22  1  0
 19 18  1  0
 19 20  2  0
 20 21  1  0
 22 21  2  0
  2 23  1  0
  3 24  1  0
  9 25  1  0
 10 26  1  0
 11 27  1  0
 12 28  1  0
 13 29  1  0
 19 30  1  0
 21 31  1  0
M  ISO  8  23  14  24  14  25  14  26  14  27  14  28  14  29  14  30  14
M  ISO  1  31  14
M  END
>  <minimizedAffinity>  (1) 
-6.61518145

>  <minimizedRMSD>  (1) 
0.181709781

$$$$
