
     RDKit          3D

 31 33  0  0  0  0  0  0  0  0999 V2000
   46.9150   34.7530   42.0640 C   0  0  0  0  0  0  0  0  0  0  0  0
   48.0870   35.4150   41.8470 C   0  0  0  0  0  0  0  0  0  0  0  0
   48.7970   35.3900   40.6740 C   0  0  0  0  0  0  0  0  0  0  0  0
   48.2890   34.6510   39.6640 N   0  0  0  0  0  0  0  0  0  0  0  0
   47.1450   33.9900   39.8400 C   0  0  0  0  0  0  0  0  0  0  0  0
   46.4620   34.0240   40.9930 N   0  0  0  0  0  0  0  0  0  0  0  0
   46.6730   33.2350   38.7340 N   0  0  0  0  0  0  0  0  0  0  0  0
   45.8270   32.2240   38.5910 N   0  0  0  0  0  0  0  0  0  0  0  0
   45.7280   31.8700   37.3080 C   0  0  0  0  0  0  0  0  0  0  0  0
   46.5630   32.7090   36.5940 C   0  0  0  0  0  0  0  0  0  0  0  0
   47.1470   33.5590   37.5080 C   0  0  0  0  0  0  0  0  0  0  0  0
   44.5450   35.6000   44.8730 C   0  0  0  0  0  0  0  0  0  0  0  0
   45.1730   35.6840   43.6180 C   0  0  0  0  0  0  0  0  0  0  0  0
   46.1740   34.7920   43.3180 C   0  0  0  0  0  0  0  0  0  0  0  0
   46.5030   33.8740   44.2600 N   0  0  0  0  0  0  0  0  0  0  0  0
   45.8990   33.8020   45.4540 C   0  0  0  0  0  0  0  0  0  0  0  0
   44.9190   34.6590   45.7710 N   0  0  0  0  0  0  0  0  0  0  0  0
   46.2440   32.8050   46.4930 C   0  0  0  0  0  0  0  0  0  0  0  0
   45.2070   32.9170   47.6020 C   0  0  0  0  0  0  0  0  0  0  0  0
   48.4936   36.0142   42.6750 H   0  0  0  0  0  0  0  0  0  0  0  0
   49.7386   35.9472   40.5607 H   0  0  0  0  0  0  0  0  0  0  0  0
   45.1016   31.0645   36.8972 H   0  0  0  0  0  0  0  0  0  0  0  0
   46.7291   32.6999   35.5067 H   0  0  0  0  0  0  0  0  0  0  0  0
   47.8689   34.3576   37.2819 H   0  0  0  0  0  0  0  0  0  0  0  0
   43.7413   36.3065   45.1278 H   0  0  0  0  0  0  0  0  0  0  0  0
   44.8685   36.4499   42.8895 H   0  0  0  0  0  0  0  0  0  0  0  0
   46.2248   31.7929   46.0625 H   0  0  0  0  0  0  0  0  0  0  0  0
   47.2533   32.9927   46.8880 H   0  0  0  0  0  0  0  0  0  0  0  0
   45.7083   32.8629   48.5796 H   0  0  0  0  0  0  0  0  0  0  0  0
   44.6781   33.8775   47.5138 H   0  0  0  0  0  0  0  0  0  0  0  0
   44.4853   32.0916   47.5138 H   0  0  0  0  0  0  0  0  0  0  0  0
  1 14  1  0
  2  1  2  0
  3  2  1  0
  4  5  1  0
  4  3  2  0
  5  6  2  0
  6  1  1  0
  7  5  1  0
  8  7  1  0
  9  8  2  0
 10  9  1  0
 10 11  2  0
 11  7  1  0
 12 17  2  0
 13 12  1  0
 14 13  2  0
 14 15  1  0
 15 16  2  0
 16 17  1  0
 16 18  1  0
 18 19  1  0
  2 20  1  0
  3 21  1  0
  9 22  1  0
 10 23  1  0
 11 24  1  0
 12 25  1  0
 13 26  1  0
 18 27  1  0
 18 28  1  0
 19 29  1  0
 19 30  1  0
 19 31  1  0
M  ISO  8  20  14  21  14  22  14  23  14  24  14  25  14  26  14  27   8
M  ISO  4  28   8  29   8  30   8  31   8
M  END
>  <minimizedAffinity>  (1) 
-5.5796752

>  <minimizedRMSD>  (1) 
0.370263577

$$$$
