
     RDKit          3D

 37 39  0  0  0  0  0  0  0  0999 V2000
   46.7350   34.6380   42.2340 C   0  0  0  0  0  0  0  0  0  0  0  0
   47.9540   35.2180   42.0240 C   0  0  0  0  0  0  0  0  0  0  0  0
   48.6520   35.1460   40.8420 C   0  0  0  0  0  0  0  0  0  0  0  0
   48.0880   34.4540   39.8270 N   0  0  0  0  0  0  0  0  0  0  0  0
   46.9160   33.8890   40.0080 C   0  0  0  0  0  0  0  0  0  0  0  0
   46.2350   33.9620   41.1690 N   0  0  0  0  0  0  0  0  0  0  0  0
   46.3520   33.1690   38.9140 N   0  0  0  0  0  0  0  0  0  0  0  0
   45.4110   32.2460   38.7710 N   0  0  0  0  0  0  0  0  0  0  0  0
   45.2720   31.9030   37.4940 C   0  0  0  0  0  0  0  0  0  0  0  0
   46.1900   32.6590   36.7650 C   0  0  0  0  0  0  0  0  0  0  0  0
   46.8540   33.4450   37.6820 C   0  0  0  0  0  0  0  0  0  0  0  0
   44.4910   35.6930   45.0840 C   0  0  0  0  0  0  0  0  0  0  0  0
   45.1180   35.7100   43.8400 C   0  0  0  0  0  0  0  0  0  0  0  0
   46.0170   34.7300   43.4990 C   0  0  0  0  0  0  0  0  0  0  0  0
   46.2610   33.7620   44.4160 N   0  0  0  0  0  0  0  0  0  0  0  0
   45.6580   33.7450   45.6170 C   0  0  0  0  0  0  0  0  0  0  0  0
   44.7780   34.6900   45.9690 N   0  0  0  0  0  0  0  0  0  0  0  0
   46.0030   32.6400   46.5360 C   0  0  0  0  0  0  0  0  0  0  0  0
   45.8600   31.3130   45.8030 C   0  0  0  0  0  0  0  0  0  0  0  0
   44.9980   32.6270   47.6730 C   0  0  0  0  0  0  0  0  0  0  0  0
   47.3840   32.7150   47.1050 C   0  0  0  0  0  0  0  0  0  0  0  0
   48.4064   35.7792   42.8549 H   0  0  0  0  0  0  0  0  0  0  0  0
   49.6317   35.6327   40.7266 H   0  0  0  0  0  0  0  0  0  0  0  0
   44.5663   31.1628   37.0889 H   0  0  0  0  0  0  0  0  0  0  0  0
   46.3515   32.6331   35.6772 H   0  0  0  0  0  0  0  0  0  0  0  0
   47.6508   34.1689   37.4560 H   0  0  0  0  0  0  0  0  0  0  0  0
   43.7708   36.4799   45.3525 H   0  0  0  0  0  0  0  0  0  0  0  0
   44.8910   36.5149   43.1254 H   0  0  0  0  0  0  0  0  0  0  0  0
   45.7721   30.4971   46.5355 H   0  0  0  0  0  0  0  0  0  0  0  0
   44.9593   31.3379   45.1720 H   0  0  0  0  0  0  0  0  0  0  0  0
   46.7453   31.1454   45.1720 H   0  0  0  0  0  0  0  0  0  0  0  0
   45.5321   32.6339   48.6346 H   0  0  0  0  0  0  0  0  0  0  0  0
   44.3551   33.5169   47.6043 H   0  0  0  0  0  0  0  0  0  0  0  0
   44.3783   31.7208   47.6043 H   0  0  0  0  0  0  0  0  0  0  0  0
   47.3286   32.7120   48.2036 H   0  0  0  0  0  0  0  0  0  0  0  0
   47.9683   31.8473   46.7650 H   0  0  0  0  0  0  0  0  0  0  0  0
   47.8709   33.6409   46.7650 H   0  0  0  0  0  0  0  0  0  0  0  0
  1 14  1  0
  2  1  2  0
  3  2  1  0
  4  5  1  0
  4  3  2  0
  5  6  2  0
  6  1  1  0
  7  5  1  0
  8  7  1  0
  9  8  2  0
 10  9  1  0
 10 11  2  0
 11  7  1  0
 12 17  2  0
 13 12  1  0
 14 13  2  0
 14 15  1  0
 15 16  2  0
 16 17  1  0
 16 18  1  0
 18 21  1  0
 18 20  1  0
 19 18  1  0
  2 22  1  0
  3 23  1  0
  9 24  1  0
 10 25  1  0
 11 26  1  0
 12 27  1  0
 13 28  1  0
 19 29  1  0
 19 30  1  0
 19 31  1  0
 20 32  1  0
 20 33  1  0
 20 34  1  0
 21 35  1  0
 21 36  1  0
 21 37  1  0
M  ISO  8  22  14  23  14  24  14  25  14  26  14  27  14  28  14  29   8
M  ISO  8  30   8  31   8  32   8  33   8  34   8  35   8  36   8  37   8
M  END
>  <minimizedAffinity>  (1) 
-5.58147144

>  <minimizedRMSD>  (1) 
0.364348322

$$$$
