
     RDKit          3D

 26 28  0  0  0  0  0  0  0  0999 V2000
   46.7490   34.7610   41.9740 C   0  0  0  0  0  0  0  0  0  0  0  0
   47.9770   35.3000   41.7500 C   0  0  0  0  0  0  0  0  0  0  0  0
   48.6830   35.1660   40.5740 C   0  0  0  0  0  0  0  0  0  0  0  0
   48.1040   34.4470   39.5820 N   0  0  0  0  0  0  0  0  0  0  0  0
   46.9040   33.9090   39.7730 C   0  0  0  0  0  0  0  0  0  0  0  0
   46.2210   34.0470   40.9300 N   0  0  0  0  0  0  0  0  0  0  0  0
   46.3570   33.1690   38.7010 N   0  0  0  0  0  0  0  0  0  0  0  0
   45.4110   32.2340   38.5990 N   0  0  0  0  0  0  0  0  0  0  0  0
   45.2960   31.8600   37.3040 C   0  0  0  0  0  0  0  0  0  0  0  0
   46.2110   32.5950   36.5680 C   0  0  0  0  0  0  0  0  0  0  0  0
   46.8570   33.4020   37.4710 C   0  0  0  0  0  0  0  0  0  0  0  0
   44.4750   35.9300   44.7440 C   0  0  0  0  0  0  0  0  0  0  0  0
   45.1100   35.9090   43.4890 C   0  0  0  0  0  0  0  0  0  0  0  0
   46.0160   34.9120   43.2220 C   0  0  0  0  0  0  0  0  0  0  0  0
   46.2280   34.0190   44.1920 N   0  0  0  0  0  0  0  0  0  0  0  0
   45.6380   34.0200   45.3870 C   0  0  0  0  0  0  0  0  0  0  0  0
   44.7510   34.9820   45.6710 N   0  0  0  0  0  0  0  0  0  0  0  0
   46.0450   32.7400   46.5750 S   0  0  0  0  0  0  0  0  0  0  0  0
   48.4378   35.8820   42.5618 H   0  0  0  0  0  0  0  0  0  0  0  0
   49.6751   35.6236   40.4460 H   0  0  0  0  0  0  0  0  0  0  0  0
   44.6001   31.1066   36.9063 H   0  0  0  0  0  0  0  0  0  0  0  0
   46.3842   32.5426   35.4830 H   0  0  0  0  0  0  0  0  0  0  0  0
   47.6532   34.1218   37.2302 H   0  0  0  0  0  0  0  0  0  0  0  0
   43.7483   36.7229   44.9744 H   0  0  0  0  0  0  0  0  0  0  0  0
   44.8849   36.6775   42.7348 H   0  0  0  0  0  0  0  0  0  0  0  0
   45.8893   33.2295   47.8451 H   0  0  0  0  0  0  0  0  0  0  0  0
  1 14  1  0
  2  1  2  0
  3  2  1  0
  4  5  1  0
  4  3  2  0
  5  6  2  0
  6  1  1  0
  7  5  1  0
  8  7  1  0
  9  8  2  0
 10  9  1  0
 10 11  2  0
 11  7  1  0
 12 17  2  0
 13 12  1  0
 14 13  2  0
 14 15  1  0
 15 16  2  0
 16 17  1  0
 16 18  1  0
  2 19  1  0
  3 20  1  0
  9 21  1  0
 10 22  1  0
 11 23  1  0
 12 24  1  0
 13 25  1  0
 18 26  1  0
M  ISO  8  19  14  20  14  21  14  22  14  23  14  24  14  25  14  26  11
M  END
>  <minimizedAffinity>  (1) 
-5.53398085

>  <minimizedRMSD>  (1) 
0.0473773107

$$$$
