
     RDKit          3D

 42 46  0  0  0  0  0  0  0  0999 V2000
   44.6100   35.9120   44.8330 C   0  0  0  0  0  0  0  0  0  0  0  0
   45.3110   35.9790   43.6260 C   0  0  0  0  0  0  0  0  0  0  0  0
   46.1250   34.9240   43.2560 C   0  0  0  0  0  0  0  0  0  0  0  0
   46.1940   33.8730   44.1000 N   0  0  0  0  0  0  0  0  0  0  0  0
   45.5210   33.8110   45.2600 C   0  0  0  0  0  0  0  0  0  0  0  0
   44.7270   34.8170   45.6400 N   0  0  0  0  0  0  0  0  0  0  0  0
   46.9050   34.8580   42.0420 C   0  0  0  0  0  0  0  0  0  0  0  0
   48.1020   35.4920   41.8580 C   0  0  0  0  0  0  0  0  0  0  0  0
   48.8620   35.4490   40.7230 C   0  0  0  0  0  0  0  0  0  0  0  0
   48.3930   34.7200   39.7000 N   0  0  0  0  0  0  0  0  0  0  0  0
   47.2310   34.0840   39.8290 C   0  0  0  0  0  0  0  0  0  0  0  0
   46.5010   34.1430   40.9570 N   0  0  0  0  0  0  0  0  0  0  0  0
   46.7790   33.3220   38.7080 N   0  0  0  0  0  0  0  0  0  0  0  0
   45.9060   32.3420   38.5400 N   0  0  0  0  0  0  0  0  0  0  0  0
   45.8470   31.9660   37.2690 C   0  0  0  0  0  0  0  0  0  0  0  0
   46.7440   32.7630   36.5820 C   0  0  0  0  0  0  0  0  0  0  0  0
   47.3290   33.6160   37.5010 C   0  0  0  0  0  0  0  0  0  0  0  0
   45.6050   32.6710   46.1610 C   0  0  0  0  0  0  0  0  0  0  0  0
   45.3940   32.9180   47.5140 C   0  0  0  0  0  0  0  0  0  0  0  0
   45.5270   31.6880   48.1450 C   0  0  0  0  0  0  0  0  0  0  0  0
   45.8100   30.7690   47.1350 C   0  0  0  0  0  0  0  0  0  0  0  0
   45.8440   31.4000   45.9940 O   0  0  0  0  0  0  0  0  0  0  0  0
   46.0140   29.3870   47.4020 N   0  0  0  0  0  0  0  0  0  0  0  0
   45.0550   28.4340   47.5360 C   0  0  0  0  0  0  0  0  0  0  0  0
   45.4420   27.1360   47.7970 C   0  0  0  0  0  0  0  0  0  0  0  0
   46.7840   26.8060   47.9210 C   0  0  0  0  0  0  0  0  0  0  0  0
   47.1120   25.6050   48.1610 O   0  0  0  0  0  0  0  0  0  0  0  0
   47.6960   27.7870   47.7810 N   0  0  0  0  0  0  0  0  0  0  0  0
   47.3140   29.0460   47.5270 C   0  0  0  0  0  0  0  0  0  0  0  0
   48.2820   29.8630   47.4190 O   0  0  0  0  0  0  0  0  0  0  0  0
   43.9600   36.7465   45.1347 H   0  0  0  0  0  0  0  0  0  0  0  0
   45.2163   36.8619   42.9768 H   0  0  0  0  0  0  0  0  0  0  0  0
   48.4874   36.0894   42.6974 H   0  0  0  0  0  0  0  0  0  0  0  0
   49.8175   35.9893   40.6517 H   0  0  0  0  0  0  0  0  0  0  0  0
   45.2099   31.1758   36.8452 H   0  0  0  0  0  0  0  0  0  0  0  0
   46.9540   32.7257   35.5029 H   0  0  0  0  0  0  0  0  0  0  0  0
   48.0906   34.3824   37.2947 H   0  0  0  0  0  0  0  0  0  0  0  0
   45.1688   33.8859   47.9856 H   0  0  0  0  0  0  0  0  0  0  0  0
   45.4292   31.4811   49.2209 H   0  0  0  0  0  0  0  0  0  0  0  0
   43.9903   28.6926   47.4382 H   0  0  0  0  0  0  0  0  0  0  0  0
   44.6774   26.3530   47.9082 H   0  0  0  0  0  0  0  0  0  0  0  0
   48.6983   27.5671   47.8702 H   0  0  0  0  0  0  0  0  0  0  0  0
  1  6  2  0
  2  1  1  0
  3  2  2  0
  3  4  1  0
  4  5  2  0
  5  6  1  0
  5 18  1  0
  7  3  1  0
  8  7  2  0
  9  8  1  0
 10 11  1  0
 10  9  2  0
 11 12  2  0
 12  7  1  0
 13 11  1  0
 14 13  1  0
 15 14  2  0
 16 15  1  0
 16 17  2  0
 17 13  1  0
 18 19  2  0
 19 20  1  0
 21 23  1  0
 21 20  2  0
 22 18  1  0
 22 21  1  0
 23 29  1  0
 23 24  1  0
 24 25  2  0
 25 26  1  0
 26 27  2  0
 28 26  1  0
 29 28  1  0
 30 29  2  0
  1 31  1  0
  2 32  1  0
  8 33  1  0
  9 34  1  0
 15 35  1  0
 16 36  1  0
 17 37  1  0
 19 38  1  0
 20 39  1  0
 24 40  1  0
 25 41  1  0
 28 42  1  0
M  ISO  8  31  14  32  14  33  14  34  14  35  14  36  14  37  14  38  14
M  ISO  4  39  14  40  14  41  14  42   9
M  END
>  <minimizedAffinity>  (1) 
-6.99899483

>  <minimizedRMSD>  (1) 
2.41659093

$$$$
