
     RDKit          3D

 39 42  0  0  0  0  0  0  0  0999 V2000
   44.5020   35.6940   45.0430 C   0  0  0  0  0  0  0  0  0  0  0  0
   45.1210   35.7210   43.7900 C   0  0  0  0  0  0  0  0  0  0  0  0
   46.0250   34.7490   43.4530 C   0  0  0  0  0  0  0  0  0  0  0  0
   46.2850   33.7830   44.3700 N   0  0  0  0  0  0  0  0  0  0  0  0
   45.6890   33.7570   45.5790 C   0  0  0  0  0  0  0  0  0  0  0  0
   44.8100   34.6880   45.9240 N   0  0  0  0  0  0  0  0  0  0  0  0
   46.7370   34.6560   42.1950 C   0  0  0  0  0  0  0  0  0  0  0  0
   47.9500   35.2430   41.9540 C   0  0  0  0  0  0  0  0  0  0  0  0
   48.6490   35.1750   40.7790 C   0  0  0  0  0  0  0  0  0  0  0  0
   48.0960   34.4720   39.7800 N   0  0  0  0  0  0  0  0  0  0  0  0
   46.9180   33.8810   39.9640 C   0  0  0  0  0  0  0  0  0  0  0  0
   46.2550   33.9670   41.1320 N   0  0  0  0  0  0  0  0  0  0  0  0
   46.3780   33.1480   38.8700 N   0  0  0  0  0  0  0  0  0  0  0  0
   45.4560   32.2030   38.7440 N   0  0  0  0  0  0  0  0  0  0  0  0
   45.3130   31.8370   37.4770 C   0  0  0  0  0  0  0  0  0  0  0  0
   46.2040   32.6000   36.7460 C   0  0  0  0  0  0  0  0  0  0  0  0
   46.8770   33.4300   37.6340 C   0  0  0  0  0  0  0  0  0  0  0  0
   45.9680   32.7220   46.5620 C   0  0  0  0  0  0  0  0  0  0  0  0
   47.1550   32.7990   47.2640 C   0  0  0  0  0  0  0  0  0  0  0  0
   47.1860   31.7210   48.1210 C   0  0  0  0  0  0  0  0  0  0  0  0
   45.9910   31.0300   47.8920 C   0  0  0  0  0  0  0  0  0  0  0  0
   45.3300   31.6590   46.9780 O   0  0  0  0  0  0  0  0  0  0  0  0
   45.5990   29.8310   48.5720 N   0  0  0  0  0  0  0  0  0  0  0  0
   45.1490   28.6940   47.8250 C   0  0  0  0  0  0  0  0  0  0  0  0
   44.4840   28.9220   46.7290 N   0  0  0  0  0  0  0  0  0  0  0  0
   45.4700   27.3900   48.3470 N   0  0  0  0  0  0  0  0  0  0  0  0
   44.1150   28.1710   46.1150 H   0  0  0  0  0  0  0  0  0  0  0  0
   43.7750   36.4716   45.3201 H   0  0  0  0  0  0  0  0  0  0  0  0
   44.8822   36.5223   43.0752 H   0  0  0  0  0  0  0  0  0  0  0  0
   48.4018   35.8188   42.7751 H   0  0  0  0  0  0  0  0  0  0  0  0
   49.6215   35.6750   40.6596 H   0  0  0  0  0  0  0  0  0  0  0  0
   44.6217   31.0763   37.0854 H   0  0  0  0  0  0  0  0  0  0  0  0
   46.3534   32.5577   35.6570 H   0  0  0  0  0  0  0  0  0  0  0  0
   47.6561   34.1667   37.3885 H   0  0  0  0  0  0  0  0  0  0  0  0
   47.9286   33.5739   47.1587 H   0  0  0  0  0  0  0  0  0  0  0  0
   47.9815   31.4590   48.8341 H   0  0  0  0  0  0  0  0  0  0  0  0
   45.6408   29.7864   49.6002 H   0  0  0  0  0  0  0  0  0  0  0  0
   45.1666   26.5445   47.8430 H   0  0  0  0  0  0  0  0  0  0  0  0
   46.0029   27.3033   49.2242 H   0  0  0  0  0  0  0  0  0  0  0  0
  1  6  2  0
  2  1  1  0
  3  2  2  0
  3  4  1  0
  4  5  2  0
  5  6  1  0
  5 18  1  0
  7  3  1  0
  8  7  2  0
  9  8  1  0
 10 11  1  0
 10  9  2  0
 11 12  2  0
 12  7  1  0
 13 11  1  0
 14 13  1  0
 15 14  2  0
 16 15  1  0
 16 17  2  0
 17 13  1  0
 18 22  1  0
 18 19  2  0
 19 20  1  0
 21 20  2  0
 21 23  1  0
 22 21  1  0
 24 26  1  0
 24 23  1  0
 25 24  2  0
 27 25  1  0
  1 28  1  0
  2 29  1  0
  8 30  1  0
  9 31  1  0
 15 32  1  0
 16 33  1  0
 17 34  1  0
 19 35  1  0
 20 36  1  0
 23 37  1  0
 26 38  1  0
 26 39  1  0
M  ISO  8  28  14  29  14  30  14  31  14  32  14  33  14  34  14  35  14
M  ISO  1  36  14
M  END
>  <minimizedAffinity>  (1) 
-6.9658618

>  <minimizedRMSD>  (1) 
1.23282313

$$$$
