
     RDKit          3D

 46 51  0  0  0  0  0  0  0  0999 V2000
   44.6740   35.5960   44.8560 C   0  0  0  0  0  0  0  0  0  0  0  0
   45.3270   35.7210   43.6320 C   0  0  0  0  0  0  0  0  0  0  0  0
   46.2340   34.7810   43.2410 C   0  0  0  0  0  0  0  0  0  0  0  0
   46.4630   33.7360   44.0870 N   0  0  0  0  0  0  0  0  0  0  0  0
   45.8240   33.6280   45.2670 C   0  0  0  0  0  0  0  0  0  0  0  0
   44.9430   34.5260   45.6670 N   0  0  0  0  0  0  0  0  0  0  0  0
   46.9880   34.7830   41.9960 C   0  0  0  0  0  0  0  0  0  0  0  0
   48.1390   35.4780   41.7960 C   0  0  0  0  0  0  0  0  0  0  0  0
   48.8660   35.4970   40.6370 C   0  0  0  0  0  0  0  0  0  0  0  0
   48.4010   34.7690   39.6150 N   0  0  0  0  0  0  0  0  0  0  0  0
   47.2910   34.0780   39.7560 C   0  0  0  0  0  0  0  0  0  0  0  0
   46.5710   34.0590   40.9040 N   0  0  0  0  0  0  0  0  0  0  0  0
   46.8260   33.3110   38.6370 N   0  0  0  0  0  0  0  0  0  0  0  0
   45.9970   32.3000   38.4690 N   0  0  0  0  0  0  0  0  0  0  0  0
   45.9130   31.9510   37.1910 C   0  0  0  0  0  0  0  0  0  0  0  0
   46.7460   32.8000   36.5000 C   0  0  0  0  0  0  0  0  0  0  0  0
   47.3240   33.6620   37.4210 C   0  0  0  0  0  0  0  0  0  0  0  0
   46.0710   32.5050   46.1750 C   0  0  0  0  0  0  0  0  0  0  0  0
   46.7630   32.7660   47.3530 C   0  0  0  0  0  0  0  0  0  0  0  0
   46.8610   31.5640   48.0150 C   0  0  0  0  0  0  0  0  0  0  0  0
   46.2230   30.6280   47.2070 C   0  0  0  0  0  0  0  0  0  0  0  0
   45.7840   31.2360   46.1510 O   0  0  0  0  0  0  0  0  0  0  0  0
   46.0840   29.2160   47.5150 C   0  0  0  0  0  0  0  0  0  0  0  0
   45.0300   28.5430   48.0940 C   0  0  0  0  0  0  0  0  0  0  0  0
   45.2970   27.2230   48.2080 N   0  0  0  0  0  0  0  0  0  0  0  0
   46.5240   27.0430   47.7050 C   0  0  0  0  0  0  0  0  0  0  0  0
   47.3550   25.9500   47.5340 C   0  0  0  0  0  0  0  0  0  0  0  0
   48.6230   26.0070   46.9710 C   0  0  0  0  0  0  0  0  0  0  0  0
   49.0900   27.2500   46.5490 C   0  0  0  0  0  0  0  0  0  0  0  0
   48.2820   28.3610   46.7060 C   0  0  0  0  0  0  0  0  0  0  0  0
   47.0230   28.2350   47.2780 C   0  0  0  0  0  0  0  0  0  0  0  0
   43.9433   36.3557   45.1706 H   0  0  0  0  0  0  0  0  0  0  0  0
   45.1105   36.5797   42.9795 H   0  0  0  0  0  0  0  0  0  0  0  0
   48.5183   36.0761   42.6377 H   0  0  0  0  0  0  0  0  0  0  0  0
   49.7917   36.0847   40.5492 H   0  0  0  0  0  0  0  0  0  0  0  0
   45.2986   31.1425   36.7681 H   0  0  0  0  0  0  0  0  0  0  0  0
   46.9220   32.7963   35.4142 H   0  0  0  0  0  0  0  0  0  0  0  0
   48.0418   34.4683   37.2098 H   0  0  0  0  0  0  0  0  0  0  0  0
   47.1535   33.7383   47.6880 H   0  0  0  0  0  0  0  0  0  0  0  0
   47.3452   31.3803   48.9855 H   0  0  0  0  0  0  0  0  0  0  0  0
   44.0933   29.0182   48.4208 H   0  0  0  0  0  0  0  0  0  0  0  0
   44.6793   26.4998   48.6032 H   0  0  0  0  0  0  0  0  0  0  0  0
   46.9859   24.9687   47.8669 H   0  0  0  0  0  0  0  0  0  0  0  0
   49.2380   25.1015   46.8619 H   0  0  0  0  0  0  0  0  0  0  0  0
   50.0882   27.3462   46.0970 H   0  0  0  0  0  0  0  0  0  0  0  0
   48.6379   29.3483   46.3766 H   0  0  0  0  0  0  0  0  0  0  0  0
  1  6  2  0
  2  1  1  0
  3  2  2  0
  3  4  1  0
  4  5  2  0
  5  6  1  0
  5 18  1  0
  7  3  1  0
  8  7  2  0
  9  8  1  0
 10 11  1  0
 10  9  2  0
 11 12  2  0
 12  7  1  0
 13 11  1  0
 14 13  1  0
 15 14  2  0
 16 15  1  0
 16 17  2  0
 17 13  1  0
 18 19  2  0
 19 20  1  0
 21 23  1  0
 21 20  2  0
 22 18  1  0
 22 21  1  0
 23 24  2  0
 24 25  1  0
 26 25  1  0
 27 26  2  0
 28 27  1  0
 29 30  1  0
 29 28  2  0
 30 31  2  0
 31 23  1  0
 31 26  1  0
  1 32  1  0
  2 33  1  0
  8 34  1  0
  9 35  1  0
 15 36  1  0
 16 37  1  0
 17 38  1  0
 19 39  1  0
 20 40  1  0
 24 41  1  0
 25 42  1  0
 27 43  1  0
 28 44  1  0
 29 45  1  0
 30 46  1  0
M  ISO  8  32  14  33  14  34  14  35  14  36  14  37  14  38  14  39  14
M  ISO  7  40  14  41  14  42   9  43  14  44  14  45  14  46  14
M  END
>  <minimizedAffinity>  (1) 
-6.9148984

>  <minimizedRMSD>  (1) 
2.56813836

$$$$
