
     RDKit          3D

 46 51  0  0  0  0  0  0  0  0999 V2000
   44.5980   36.0160   44.7470 C   0  0  0  0  0  0  0  0  0  0  0  0
   45.2730   36.0200   43.5250 C   0  0  0  0  0  0  0  0  0  0  0  0
   46.0660   34.9510   43.1790 C   0  0  0  0  0  0  0  0  0  0  0  0
   46.1500   33.9340   44.0560 N   0  0  0  0  0  0  0  0  0  0  0  0
   45.4980   33.9360   45.2300 C   0  0  0  0  0  0  0  0  0  0  0  0
   44.7290   34.9480   45.5910 N   0  0  0  0  0  0  0  0  0  0  0  0
   46.8210   34.8310   41.9390 C   0  0  0  0  0  0  0  0  0  0  0  0
   48.0390   35.4130   41.7240 C   0  0  0  0  0  0  0  0  0  0  0  0
   48.7680   35.3170   40.5700 C   0  0  0  0  0  0  0  0  0  0  0  0
   48.2350   34.5900   39.5770 N   0  0  0  0  0  0  0  0  0  0  0  0
   47.0540   34.0090   39.7440 C   0  0  0  0  0  0  0  0  0  0  0  0
   46.3570   34.1150   40.8830 N   0  0  0  0  0  0  0  0  0  0  0  0
   46.5420   33.2510   38.6500 N   0  0  0  0  0  0  0  0  0  0  0  0
   45.6280   32.3130   38.5070 N   0  0  0  0  0  0  0  0  0  0  0  0
   45.5200   31.9160   37.2440 C   0  0  0  0  0  0  0  0  0  0  0  0
   46.4430   32.6630   36.5250 C   0  0  0  0  0  0  0  0  0  0  0  0
   47.0840   33.5030   37.4230 C   0  0  0  0  0  0  0  0  0  0  0  0
   45.6030   32.8180   46.1720 C   0  0  0  0  0  0  0  0  0  0  0  0
   45.2770   33.0490   47.4960 C   0  0  0  0  0  0  0  0  0  0  0  0
   45.4580   31.8490   48.1550 C   0  0  0  0  0  0  0  0  0  0  0  0
   45.8850   30.9410   47.1990 C   0  0  0  0  0  0  0  0  0  0  0  0
   45.9510   31.5680   46.0530 O   0  0  0  0  0  0  0  0  0  0  0  0
   46.2050   29.5670   47.3960 N   0  0  0  0  0  0  0  0  0  0  0  0
   45.3380   28.5410   47.4590 C   0  0  0  0  0  0  0  0  0  0  0  0
   46.0230   27.3870   47.6560 N   0  0  0  0  0  0  0  0  0  0  0  0
   47.3280   27.6830   47.7180 C   0  0  0  0  0  0  0  0  0  0  0  0
   48.4470   26.8910   47.9030 C   0  0  0  0  0  0  0  0  0  0  0  0
   48.3420   25.6270   48.0550 O   0  0  0  0  0  0  0  0  0  0  0  0
   49.6920   27.4120   47.9320 N   0  0  0  0  0  0  0  0  0  0  0  0
   49.7560   28.7380   47.7710 C   0  0  0  0  0  0  0  0  0  0  0  0
   51.0270   29.3780   47.7860 N   0  0  0  0  0  0  0  0  0  0  0  0
   48.6900   29.5710   47.5840 N   0  0  0  0  0  0  0  0  0  0  0  0
   47.4370   29.0480   47.5550 C   0  0  0  0  0  0  0  0  0  0  0  0
   43.9632   36.8686   45.0299 H   0  0  0  0  0  0  0  0  0  0  0  0
   45.1709   36.8755   42.8411 H   0  0  0  0  0  0  0  0  0  0  0  0
   48.4677   36.0065   42.5450 H   0  0  0  0  0  0  0  0  0  0  0  0
   49.7442   35.8123   40.4620 H   0  0  0  0  0  0  0  0  0  0  0  0
   44.8371   31.1500   36.8479 H   0  0  0  0  0  0  0  0  0  0  0  0
   46.6311   32.6002   35.4430 H   0  0  0  0  0  0  0  0  0  0  0  0
   47.8755   34.2310   37.1914 H   0  0  0  0  0  0  0  0  0  0  0  0
   44.9406   33.9992   47.9364 H   0  0  0  0  0  0  0  0  0  0  0  0
   45.2957   31.6530   49.2251 H   0  0  0  0  0  0  0  0  0  0  0  0
   44.2452   28.6245   47.3655 H   0  0  0  0  0  0  0  0  0  0  0  0
   50.5313   26.8307   48.0682 H   0  0  0  0  0  0  0  0  0  0  0  0
   51.0912   30.3986   47.6632 H   0  0  0  0  0  0  0  0  0  0  0  0
   51.8827   28.8206   47.9197 H   0  0  0  0  0  0  0  0  0  0  0  0
  1  6  2  0
  2  1  1  0
  3  2  2  0
  3  4  1  0
  4  5  2  0
  5  6  1  0
  5 18  1  0
  7  3  1  0
  8  7  2  0
  9  8  1  0
 10 11  1  0
 10  9  2  0
 11 12  2  0
 12  7  1  0
 13 11  1  0
 14 13  1  0
 15 14  2  0
 16 15  1  0
 16 17  2  0
 17 13  1  0
 18 19  2  0
 19 20  1  0
 21 23  1  0
 21 20  2  0
 22 18  1  0
 22 21  1  0
 23 24  1  0
 23 33  1  0
 24 25  2  0
 25 26  1  0
 26 27  1  0
 27 29  1  0
 27 28  2  0
 30 31  1  0
 30 29  1  0
 32 30  2  0
 33 32  1  0
 33 26  2  0
  1 34  1  0
  2 35  1  0
  8 36  1  0
  9 37  1  0
 15 38  1  0
 16 39  1  0
 17 40  1  0
 19 41  1  0
 20 42  1  0
 24 43  1  0
 29 44  1  0
 31 45  1  0
 31 46  1  0
M  ISO  8  34  14  35  14  36  14  37  14  38  14  39  14  40  14  41  14
M  ISO  3  42  14  43  14  44   9
M  END
>  <minimizedAffinity>  (1) 
-7.172369

>  <minimizedRMSD>  (1) 
3.0795567

$$$$
