
     RDKit          3D

 47 51  0  0  0  0  0  0  0  0999 V2000
   44.5120   36.0570   44.7150 C   0  0  0  0  0  0  0  0  0  0  0  0
   45.2260   36.0620   43.5180 C   0  0  0  0  0  0  0  0  0  0  0  0
   46.0740   35.0270   43.2200 C   0  0  0  0  0  0  0  0  0  0  0  0
   46.1700   34.0360   44.1380 N   0  0  0  0  0  0  0  0  0  0  0  0
   45.4870   34.0310   45.2860 C   0  0  0  0  0  0  0  0  0  0  0  0
   44.6650   35.0150   45.5920 N   0  0  0  0  0  0  0  0  0  0  0  0
   46.8710   34.9090   42.0170 C   0  0  0  0  0  0  0  0  0  0  0  0
   48.0860   35.4960   41.8500 C   0  0  0  0  0  0  0  0  0  0  0  0
   48.8700   35.4080   40.7260 C   0  0  0  0  0  0  0  0  0  0  0  0
   48.3880   34.6750   39.7070 N   0  0  0  0  0  0  0  0  0  0  0  0
   47.2040   34.0880   39.8340 C   0  0  0  0  0  0  0  0  0  0  0  0
   46.4440   34.1800   40.9350 N   0  0  0  0  0  0  0  0  0  0  0  0
   46.7390   33.3180   38.7120 N   0  0  0  0  0  0  0  0  0  0  0  0
   45.8400   32.3630   38.5460 N   0  0  0  0  0  0  0  0  0  0  0  0
   45.7880   31.9730   37.2750 C   0  0  0  0  0  0  0  0  0  0  0  0
   46.7160   32.7340   36.5950 C   0  0  0  0  0  0  0  0  0  0  0  0
   47.3160   33.5850   37.5100 C   0  0  0  0  0  0  0  0  0  0  0  0
   45.6030   32.9540   46.2600 C   0  0  0  0  0  0  0  0  0  0  0  0
   45.1940   33.2110   47.5750 C   0  0  0  0  0  0  0  0  0  0  0  0
   45.4060   32.0400   48.2830 C   0  0  0  0  0  0  0  0  0  0  0  0
   45.9280   31.1420   47.3680 C   0  0  0  0  0  0  0  0  0  0  0  0
   46.0260   31.7100   46.2110 O   0  0  0  0  0  0  0  0  0  0  0  0
   46.2850   29.8070   47.7100 N   0  0  0  0  0  0  0  0  0  0  0  0
   47.6760   29.4110   47.8220 C   0  0  0  0  0  0  0  0  0  0  0  0
   47.9810   28.4750   46.6760 C   0  0  0  0  0  0  0  0  0  0  0  0
   46.6920   27.9170   46.1190 C   0  0  0  0  0  0  0  0  0  0  0  0
   45.7050   27.5610   47.1880 C   0  0  0  0  0  0  0  0  0  0  0  0
   45.2800   28.7910   47.9590 C   0  0  0  0  0  0  0  0  0  0  0  0
   43.8290   36.8853   44.9546 H   0  0  0  0  0  0  0  0  0  0  0  0
   45.1089   36.8972   42.8118 H   0  0  0  0  0  0  0  0  0  0  0  0
   48.4747   36.0932   42.6880 H   0  0  0  0  0  0  0  0  0  0  0  0
   49.8453   35.9128   40.6623 H   0  0  0  0  0  0  0  0  0  0  0  0
   45.1341   31.1970   36.8504 H   0  0  0  0  0  0  0  0  0  0  0  0
   46.9398   32.6760   35.5196 H   0  0  0  0  0  0  0  0  0  0  0  0
   48.1014   34.3274   37.3049 H   0  0  0  0  0  0  0  0  0  0  0  0
   44.7860   34.1544   47.9668 H   0  0  0  0  0  0  0  0  0  0  0  0
   45.2023   31.8609   49.3490 H   0  0  0  0  0  0  0  0  0  0  0  0
   48.3239   30.2981   47.7638 H   0  0  0  0  0  0  0  0  0  0  0  0
   47.8582   28.9125   48.7855 H   0  0  0  0  0  0  0  0  0  0  0  0
   48.5131   29.0251   45.8860 H   0  0  0  0  0  0  0  0  0  0  0  0
   48.6102   27.6484   47.0377 H   0  0  0  0  0  0  0  0  0  0  0  0
   46.2386   28.6711   45.4588 H   0  0  0  0  0  0  0  0  0  0  0  0
   46.9383   26.9937   45.5742 H   0  0  0  0  0  0  0  0  0  0  0  0
   44.8195   27.1032   46.7230 H   0  0  0  0  0  0  0  0  0  0  0  0
   46.1801   26.8550   47.8851 H   0  0  0  0  0  0  0  0  0  0  0  0
   45.2276   28.5651   49.0343 H   0  0  0  0  0  0  0  0  0  0  0  0
   44.2842   29.1331   47.6406 H   0  0  0  0  0  0  0  0  0  0  0  0
  1  6  2  0
  2  1  1  0
  3  2  2  0
  3  4  1  0
  4  5  2  0
  5  6  1  0
  5 18  1  0
  7  3  1  0
  8  7  2  0
  9  8  1  0
 10 11  1  0
 10  9  2  0
 11 12  2  0
 12  7  1  0
 13 11  1  0
 14 13  1  0
 15 14  2  0
 16 15  1  0
 16 17  2  0
 17 13  1  0
 18 19  2  0
 19 20  1  0
 21 23  1  0
 21 20  2  0
 22 18  1  0
 22 21  1  0
 23 24  1  0
 23 28  1  0
 25 24  1  0
 26 25  1  0
 26 27  1  0
 27 28  1  0
  1 29  1  0
  2 30  1  0
  8 31  1  0
  9 32  1  0
 15 33  1  0
 16 34  1  0
 17 35  1  0
 19 36  1  0
 20 37  1  0
 24 38  1  0
 24 39  1  0
 25 40  1  0
 25 41  1  0
 26 42  1  0
 26 43  1  0
 27 44  1  0
 27 45  1  0
 28 46  1  0
 28 47  1  0
M  ISO  8  29  14  30  14  31  14  32  14  33  14  34  14  35  14  36  14
M  ISO  8  37  14  38  13  39  13  40  13  41  13  42  13  43  13  44  13
M  ISO  3  45  13  46  13  47  13
M  END
>  <minimizedAffinity>  (1) 
-6.79687929

>  <minimizedRMSD>  (1) 
2.36718154

$$$$
