
     RDKit          3D

 38 41  0  0  0  0  0  0  0  0999 V2000
   44.4140   36.0760   44.5600 C   0  0  0  0  0  0  0  0  0  0  0  0
   45.0580   35.9830   43.3210 C   0  0  0  0  0  0  0  0  0  0  0  0
   45.9660   34.9900   43.1060 C   0  0  0  0  0  0  0  0  0  0  0  0
   46.2070   34.1200   44.1260 N   0  0  0  0  0  0  0  0  0  0  0  0
   45.5840   34.2190   45.3070 C   0  0  0  0  0  0  0  0  0  0  0  0
   44.6970   35.1700   45.5480 N   0  0  0  0  0  0  0  0  0  0  0  0
   46.7020   34.7820   41.8740 C   0  0  0  0  0  0  0  0  0  0  0  0
   47.9800   35.2620   41.6630 C   0  0  0  0  0  0  0  0  0  0  0  0
   48.7020   35.0850   40.5140 C   0  0  0  0  0  0  0  0  0  0  0  0
   48.1170   34.3880   39.5190 N   0  0  0  0  0  0  0  0  0  0  0  0
   46.8860   33.9130   39.6930 C   0  0  0  0  0  0  0  0  0  0  0  0
   46.1840   34.0930   40.8260 N   0  0  0  0  0  0  0  0  0  0  0  0
   46.3420   33.1840   38.6010 N   0  0  0  0  0  0  0  0  0  0  0  0
   45.3510   32.3000   38.4900 N   0  0  0  0  0  0  0  0  0  0  0  0
   45.2200   31.8730   37.2420 C   0  0  0  0  0  0  0  0  0  0  0  0
   46.1920   32.5320   36.5110 C   0  0  0  0  0  0  0  0  0  0  0  0
   46.8970   33.3600   37.3840 C   0  0  0  0  0  0  0  0  0  0  0  0
   45.8400   33.2790   46.4070 C   0  0  0  0  0  0  0  0  0  0  0  0
   47.0330   32.5840   46.3850 C   0  0  0  0  0  0  0  0  0  0  0  0
   47.0630   31.7750   47.4900 C   0  0  0  0  0  0  0  0  0  0  0  0
   45.8520   32.0220   48.1520 C   0  0  0  0  0  0  0  0  0  0  0  0
   45.1740   32.9130   47.4720 O   0  0  0  0  0  0  0  0  0  0  0  0
   45.2930   31.4590   49.4040 C   0  0  0  0  0  0  0  0  0  0  0  0
   45.0320   29.9750   49.2360 C   0  0  0  0  0  0  0  0  0  0  0  0
   43.6810   36.8761   44.7405 H   0  0  0  0  0  0  0  0  0  0  0  0
   44.8324   36.7077   42.5248 H   0  0  0  0  0  0  0  0  0  0  0  0
   48.4524   35.8285   42.4791 H   0  0  0  0  0  0  0  0  0  0  0  0
   49.7173   35.4943   40.4066 H   0  0  0  0  0  0  0  0  0  0  0  0
   44.4880   31.1437   36.8648 H   0  0  0  0  0  0  0  0  0  0  0  0
   46.3762   32.4223   35.4321 H   0  0  0  0  0  0  0  0  0  0  0  0
   47.7371   34.0235   37.1311 H   0  0  0  0  0  0  0  0  0  0  0  0
   47.8177   32.6653   45.6184 H   0  0  0  0  0  0  0  0  0  0  0  0
   47.8627   31.0827   47.7920 H   0  0  0  0  0  0  0  0  0  0  0  0
   46.0102   31.6119   50.2239 H   0  0  0  0  0  0  0  0  0  0  0  0
   44.3456   31.9675   49.6363 H   0  0  0  0  0  0  0  0  0  0  0  0
   44.9490   29.5029   50.2261 H   0  0  0  0  0  0  0  0  0  0  0  0
   44.0943   29.8283   48.6800 H   0  0  0  0  0  0  0  0  0  0  0  0
   45.8634   29.5171   48.6800 H   0  0  0  0  0  0  0  0  0  0  0  0
  1  6  2  0
  2  1  1  0
  3  2  2  0
  3  4  1  0
  4  5  2  0
  5  6  1  0
  5 18  1  0
  7  3  1  0
  8  7  2  0
  9  8  1  0
 10 11  1  0
 10  9  2  0
 11 12  2  0
 12  7  1  0
 13 11  1  0
 14 13  1  0
 15 14  2  0
 16 15  1  0
 16 17  2  0
 17 13  1  0
 18 22  1  0
 19 18  2  0
 19 20  1  0
 20 21  2  0
 21 23  1  0
 22 21  1  0
 24 23  1  0
  1 25  1  0
  2 26  1  0
  8 27  1  0
  9 28  1  0
 15 29  1  0
 16 30  1  0
 17 31  1  0
 19 32  1  0
 20 33  1  0
 23 34  1  0
 23 35  1  0
 24 36  1  0
 24 37  1  0
 24 38  1  0
M  ISO  8  25  14  26  14  27  14  28  14  29  14  30  14  31  14  32  14
M  ISO  6  33  14  34   8  35   8  36   8  37   8  38   8
M  END
>  <minimizedAffinity>  (1) 
-6.78189802

>  <minimizedRMSD>  (1) 
0.249509215

$$$$
