
     RDKit          3D

 39 43  0  0  0  0  0  0  0  0999 V2000
   44.6030   35.3140   45.1350 C   0  0  0  0  0  0  0  0  0  0  0  0
   45.1660   35.4120   43.8670 C   0  0  0  0  0  0  0  0  0  0  0  0
   46.2070   34.5850   43.5120 C   0  0  0  0  0  0  0  0  0  0  0  0
   46.6420   33.6990   44.4370 N   0  0  0  0  0  0  0  0  0  0  0  0
   46.0970   33.6080   45.6570 C   0  0  0  0  0  0  0  0  0  0  0  0
   45.0860   34.3950   46.0310 N   0  0  0  0  0  0  0  0  0  0  0  0
   46.8820   34.5850   42.2250 C   0  0  0  0  0  0  0  0  0  0  0  0
   48.0210   35.2860   41.9610 C   0  0  0  0  0  0  0  0  0  0  0  0
   48.6730   35.3030   40.7650 C   0  0  0  0  0  0  0  0  0  0  0  0
   48.1560   34.5760   39.7680 N   0  0  0  0  0  0  0  0  0  0  0  0
   47.0470   33.8780   39.9830 C   0  0  0  0  0  0  0  0  0  0  0  0
   46.3990   33.8580   41.1640 N   0  0  0  0  0  0  0  0  0  0  0  0
   46.5270   33.1130   38.8830 N   0  0  0  0  0  0  0  0  0  0  0  0
   45.7010   32.0930   38.7690 N   0  0  0  0  0  0  0  0  0  0  0  0
   45.5430   31.7450   37.4980 C   0  0  0  0  0  0  0  0  0  0  0  0
   46.3240   32.6060   36.7570 C   0  0  0  0  0  0  0  0  0  0  0  0
   46.9440   33.4690   37.6420 C   0  0  0  0  0  0  0  0  0  0  0  0
   46.5660   32.6500   46.6580 C   0  0  0  0  0  0  0  0  0  0  0  0
   45.7910   31.5280   46.8770 C   0  0  0  0  0  0  0  0  0  0  0  0
   46.4290   30.7920   47.8460 C   0  0  0  0  0  0  0  0  0  0  0  0
   47.5730   31.5100   48.1710 C   0  0  0  0  0  0  0  0  0  0  0  0
   47.6110   32.5990   47.4450 O   0  0  0  0  0  0  0  0  0  0  0  0
   48.6150   31.2630   49.0910 N   0  0  0  0  0  0  0  0  0  0  0  0
   49.5360   32.1830   49.4030 C   0  0  0  0  0  0  0  0  0  0  0  0
   50.4080   31.6330   50.3250 C   0  0  0  0  0  0  0  0  0  0  0  0
   49.9970   30.3730   50.5600 N   0  0  0  0  0  0  0  0  0  0  0  0
   48.8920   30.1570   49.7950 C   0  0  0  0  0  0  0  0  0  0  0  0
   43.7700   35.9738   45.4192 H   0  0  0  0  0  0  0  0  0  0  0  0
   44.7795   36.1499   43.1486 H   0  0  0  0  0  0  0  0  0  0  0  0
   48.4475   35.8856   42.7787 H   0  0  0  0  0  0  0  0  0  0  0  0
   49.5908   35.8928   40.6242 H   0  0  0  0  0  0  0  0  0  0  0  0
   44.9130   30.9301   37.1119 H   0  0  0  0  0  0  0  0  0  0  0  0
   46.4339   32.6065   35.6625 H   0  0  0  0  0  0  0  0  0  0  0  0
   47.6386   34.2837   37.3895 H   0  0  0  0  0  0  0  0  0  0  0  0
   44.8467   31.2732   46.3736 H   0  0  0  0  0  0  0  0  0  0  0  0
   46.1019   29.8335   48.2752 H   0  0  0  0  0  0  0  0  0  0  0  0
   49.5901   33.2032   48.9953 H   0  0  0  0  0  0  0  0  0  0  0  0
   51.2756   32.1322   50.7812 H   0  0  0  0  0  0  0  0  0  0  0  0
   48.3161   29.2204   49.7601 H   0  0  0  0  0  0  0  0  0  0  0  0
  1  6  2  0
  2  1  1  0
  3  2  2  0
  3  4  1  0
  4  5  2  0
  5  6  1  0
  5 18  1  0
  7  3  1  0
  8  7  2  0
  9  8  1  0
 10 11  1  0
 10  9  2  0
 11 12  2  0
 12  7  1  0
 13 11  1  0
 14 13  1  0
 15 14  2  0
 16 15  1  0
 16 17  2  0
 17 13  1  0
 18 19  2  0
 18 22  1  0
 19 20  1  0
 20 21  2  0
 21 23  1  0
 22 21  1  0
 23 24  1  0
 23 27  1  0
 24 25  2  0
 25 26  1  0
 27 26  2  0
  1 28  1  0
  2 29  1  0
  8 30  1  0
  9 31  1  0
 15 32  1  0
 16 33  1  0
 17 34  1  0
 19 35  1  0
 20 36  1  0
 24 37  1  0
 25 38  1  0
 27 39  1  0
M  ISO  8  28  14  29  14  30  14  31  14  32  14  33  14  34  14  35  14
M  ISO  4  36  14  37  14  38  14  39  14
M  END
>  <minimizedAffinity>  (1) 
-6.72350121

>  <minimizedRMSD>  (1) 
2.2784462

$$$$
