
     RDKit          3D

 39 43  0  0  0  0  0  0  0  0999 V2000
   44.6880   35.5170   44.9830 C   0  0  0  0  0  0  0  0  0  0  0  0
   45.3310   35.6610   43.7520 C   0  0  0  0  0  0  0  0  0  0  0  0
   46.2300   34.7100   43.3390 C   0  0  0  0  0  0  0  0  0  0  0  0
   46.4620   33.6490   44.1600 N   0  0  0  0  0  0  0  0  0  0  0  0
   45.8330   33.5240   45.3460 C   0  0  0  0  0  0  0  0  0  0  0  0
   44.9550   34.4360   45.7670 N   0  0  0  0  0  0  0  0  0  0  0  0
   46.9680   34.7330   42.0870 C   0  0  0  0  0  0  0  0  0  0  0  0
   48.1220   35.4550   41.8900 C   0  0  0  0  0  0  0  0  0  0  0  0
   48.8400   35.4970   40.7250 C   0  0  0  0  0  0  0  0  0  0  0  0
   48.3720   34.7740   39.7000 N   0  0  0  0  0  0  0  0  0  0  0  0
   47.2640   34.0640   39.8430 C   0  0  0  0  0  0  0  0  0  0  0  0
   46.5630   34.0270   40.9920 N   0  0  0  0  0  0  0  0  0  0  0  0
   46.8150   33.3140   38.7130 N   0  0  0  0  0  0  0  0  0  0  0  0
   45.9840   32.2940   38.5440 N   0  0  0  0  0  0  0  0  0  0  0  0
   45.9070   31.9570   37.2600 C   0  0  0  0  0  0  0  0  0  0  0  0
   46.7420   32.8190   36.5720 C   0  0  0  0  0  0  0  0  0  0  0  0
   47.3130   33.6750   37.5020 C   0  0  0  0  0  0  0  0  0  0  0  0
   46.0770   32.3910   46.2270 C   0  0  0  0  0  0  0  0  0  0  0  0
   46.8280   32.6040   47.3700 C   0  0  0  0  0  0  0  0  0  0  0  0
   46.9030   31.3860   48.0110 C   0  0  0  0  0  0  0  0  0  0  0  0
   46.1930   30.4830   47.2290 C   0  0  0  0  0  0  0  0  0  0  0  0
   45.7370   31.1350   46.2040 O   0  0  0  0  0  0  0  0  0  0  0  0
   46.0090   29.0680   47.5280 C   0  0  0  0  0  0  0  0  0  0  0  0
   46.8180   28.0450   47.0780 C   0  0  0  0  0  0  0  0  0  0  0  0
   46.3460   26.8670   47.5510 N   0  0  0  0  0  0  0  0  0  0  0  0
   45.2470   27.1820   48.2890 C   0  0  0  0  0  0  0  0  0  0  0  0
   45.0330   28.5280   48.2800 N   0  0  0  0  0  0  0  0  0  0  0  0
   43.9664   36.2761   45.3192 H   0  0  0  0  0  0  0  0  0  0  0  0
   45.1179   36.5329   43.1161 H   0  0  0  0  0  0  0  0  0  0  0  0
   48.4987   36.0468   42.7373 H   0  0  0  0  0  0  0  0  0  0  0  0
   49.7580   36.0964   40.6354 H   0  0  0  0  0  0  0  0  0  0  0  0
   45.2975   31.1493   36.8285 H   0  0  0  0  0  0  0  0  0  0  0  0
   46.9204   32.8245   35.4866 H   0  0  0  0  0  0  0  0  0  0  0  0
   48.0279   34.4860   37.2990 H   0  0  0  0  0  0  0  0  0  0  0  0
   47.2747   33.5534   47.7001 H   0  0  0  0  0  0  0  0  0  0  0  0
   47.4229   31.1710   48.9562 H   0  0  0  0  0  0  0  0  0  0  0  0
   47.7042   28.1666   46.4378 H   0  0  0  0  0  0  0  0  0  0  0  0
   44.6184   26.4515   48.8194 H   0  0  0  0  0  0  0  0  0  0  0  0
   44.2722   29.0333   48.7562 H   0  0  0  0  0  0  0  0  0  0  0  0
  1  6  2  0
  2  1  1  0
  3  2  2  0
  3  4  1  0
  4  5  2  0
  5  6  1  0
  5 18  1  0
  7  3  1  0
  8  7  2  0
  9  8  1  0
 10 11  1  0
 10  9  2  0
 11 12  2  0
 12  7  1  0
 13 11  1  0
 14 13  1  0
 15 14  2  0
 16 15  1  0
 16 17  2  0
 17 13  1  0
 18 19  2  0
 19 20  1  0
 21 23  1  0
 21 20  2  0
 22 18  1  0
 22 21  1  0
 23 27  1  0
 24 23  2  0
 24 25  1  0
 25 26  2  0
 27 26  1  0
  1 28  1  0
  2 29  1  0
  8 30  1  0
  9 31  1  0
 15 32  1  0
 16 33  1  0
 17 34  1  0
 19 35  1  0
 20 36  1  0
 24 37  1  0
 26 38  1  0
 27 39  1  0
M  ISO  8  28  14  29  14  30  14  31  14  32  14  33  14  34  14  35  14
M  ISO  4  36  14  37  14  38  14  39   9
M  END
>  <minimizedAffinity>  (1) 
-6.54011345

>  <minimizedRMSD>  (1) 
2.00566435

$$$$
