
     RDKit          3D

 38 42  0  0  0  0  0  0  0  0999 V2000
   44.6850   35.5050   44.9640 C   0  0  0  0  0  0  0  0  0  0  0  0
   45.3310   35.6510   43.7360 C   0  0  0  0  0  0  0  0  0  0  0  0
   46.2440   34.7110   43.3300 C   0  0  0  0  0  0  0  0  0  0  0  0
   46.4820   33.6620   44.1580 N   0  0  0  0  0  0  0  0  0  0  0  0
   45.8540   33.5310   45.3400 C   0  0  0  0  0  0  0  0  0  0  0  0
   44.9620   34.4280   45.7580 N   0  0  0  0  0  0  0  0  0  0  0  0
   46.9890   34.7400   42.0750 C   0  0  0  0  0  0  0  0  0  0  0  0
   48.1270   35.4580   41.8740 C   0  0  0  0  0  0  0  0  0  0  0  0
   48.8380   35.4990   40.7080 C   0  0  0  0  0  0  0  0  0  0  0  0
   48.3720   34.7730   39.6830 N   0  0  0  0  0  0  0  0  0  0  0  0
   47.2620   34.0560   39.8370 C   0  0  0  0  0  0  0  0  0  0  0  0
   46.5650   34.0170   40.9850 N   0  0  0  0  0  0  0  0  0  0  0  0
   46.8290   33.3080   38.7030 N   0  0  0  0  0  0  0  0  0  0  0  0
   46.0240   32.2670   38.5320 N   0  0  0  0  0  0  0  0  0  0  0  0
   45.9350   31.9260   37.2550 C   0  0  0  0  0  0  0  0  0  0  0  0
   46.7430   32.8150   36.5610 C   0  0  0  0  0  0  0  0  0  0  0  0
   47.2980   33.6790   37.4910 C   0  0  0  0  0  0  0  0  0  0  0  0
   46.1090   32.4000   46.2340 C   0  0  0  0  0  0  0  0  0  0  0  0
   46.8040   32.6490   47.4020 C   0  0  0  0  0  0  0  0  0  0  0  0
   46.9110   31.4440   48.0560 C   0  0  0  0  0  0  0  0  0  0  0  0
   46.2720   30.5130   47.2500 C   0  0  0  0  0  0  0  0  0  0  0  0
   45.8190   31.1330   46.1920 O   0  0  0  0  0  0  0  0  0  0  0  0
   46.0990   29.1210   47.4670 N   0  0  0  0  0  0  0  0  0  0  0  0
   47.0420   28.1770   47.3030 C   0  0  0  0  0  0  0  0  0  0  0  0
   46.5610   26.9390   47.5930 N   0  0  0  0  0  0  0  0  0  0  0  0
   45.2700   27.1550   47.9470 C   0  0  0  0  0  0  0  0  0  0  0  0
   45.0070   28.4890   47.8640 N   0  0  0  0  0  0  0  0  0  0  0  0
   43.9527   36.2569   45.2930 H   0  0  0  0  0  0  0  0  0  0  0  0
   45.1089   36.5172   43.0953 H   0  0  0  0  0  0  0  0  0  0  0  0
   48.5051   36.0534   42.7181 H   0  0  0  0  0  0  0  0  0  0  0  0
   49.7533   36.1019   40.6149 H   0  0  0  0  0  0  0  0  0  0  0  0
   45.3403   31.1037   36.8305 H   0  0  0  0  0  0  0  0  0  0  0  0
   46.9117   32.8309   35.4741 H   0  0  0  0  0  0  0  0  0  0  0  0
   47.9890   34.5091   37.2826 H   0  0  0  0  0  0  0  0  0  0  0  0
   47.1946   33.6196   47.7417 H   0  0  0  0  0  0  0  0  0  0  0  0
   47.4031   31.2565   49.0217 H   0  0  0  0  0  0  0  0  0  0  0  0
   48.0722   28.3805   46.9756 H   0  0  0  0  0  0  0  0  0  0  0  0
   44.5520   26.3793   48.2516 H   0  0  0  0  0  0  0  0  0  0  0  0
  1  6  2  0
  2  1  1  0
  3  2  2  0
  3  4  1  0
  4  5  2  0
  5  6  1  0
  5 18  1  0
  7  3  1  0
  8  7  2  0
  9  8  1  0
 10 11  1  0
 10  9  2  0
 11 12  2  0
 12  7  1  0
 13 11  1  0
 14 13  1  0
 15 14  2  0
 16 15  1  0
 16 17  2  0
 17 13  1  0
 18 19  2  0
 19 20  1  0
 21 23  1  0
 21 20  2  0
 22 18  1  0
 22 21  1  0
 23 27  1  0
 24 23  1  0
 24 25  2  0
 25 26  1  0
 27 26  2  0
  1 28  1  0
  2 29  1  0
  8 30  1  0
  9 31  1  0
 15 32  1  0
 16 33  1  0
 17 34  1  0
 19 35  1  0
 20 36  1  0
 24 37  1  0
 26 38  1  0
M  ISO  8  28  14  29  14  30  14  31  14  32  14  33  14  34  14  35  14
M  ISO  3  36  14  37  14  38  14
M  END
>  <minimizedAffinity>  (1) 
-6.53286791

>  <minimizedRMSD>  (1) 
2.02186847

$$$$
