
     RDKit          3D

 30 32  0  0  0  0  0  0  0  0999 V2000
   45.4870   35.4980   43.4560 C   0  0  0  0  0  0  0  0  0  0  0  0
   46.1720   34.3000   43.7010 C   0  0  0  0  0  0  0  0  0  0  0  0
   45.9790   33.6990   44.9370 C   0  0  0  0  0  0  0  0  0  0  0  0
   45.1470   34.2860   45.8460 N   0  0  0  0  0  0  0  0  0  0  0  0
   44.4990   35.4470   45.5740 C   0  0  0  0  0  0  0  0  0  0  0  0
   44.6690   36.0430   44.3920 N   0  0  0  0  0  0  0  0  0  0  0  0
   46.6250   32.4820   45.2910 N   0  0  0  0  0  0  0  0  0  0  0  0
   47.3920   31.6180   44.5590 C   0  0  0  0  0  0  0  0  0  0  0  0
   47.7850   30.5910   45.3370 N   0  0  0  0  0  0  0  0  0  0  0  0
   47.2890   30.7730   46.5580 C   0  0  0  0  0  0  0  0  0  0  0  0
   47.4350   29.9730   47.6730 C   0  0  0  0  0  0  0  0  0  0  0  0
   48.0910   28.9030   47.7040 O   0  0  0  0  0  0  0  0  0  0  0  0
   46.8410   30.3430   48.8340 N   0  0  0  0  0  0  0  0  0  0  0  0
   46.1350   31.4870   48.8130 C   0  0  0  0  0  0  0  0  0  0  0  0
   45.4400   32.0420   49.9290 N   0  0  0  0  0  0  0  0  0  0  0  0
   45.9960   32.2630   47.7220 N   0  0  0  0  0  0  0  0  0  0  0  0
   46.5670   31.9430   46.5390 C   0  0  0  0  0  0  0  0  0  0  0  0
   47.0410   33.7220   42.7050 C   0  0  0  0  0  0  0  0  0  0  0  0
   47.5900   34.8090   41.8050 C   0  0  0  0  0  0  0  0  0  0  0  0
   45.6145   36.0053   42.4884 H   0  0  0  0  0  0  0  0  0  0  0  0
   43.8345   35.8962   46.3268 H   0  0  0  0  0  0  0  0  0  0  0  0
   47.6488   31.7428   43.4967 H   0  0  0  0  0  0  0  0  0  0  0  0
   46.9263   29.7760   49.6896 H   0  0  0  0  0  0  0  0  0  0  0  0
   44.9218   32.9261   49.8252 H   0  0  0  0  0  0  0  0  0  0  0  0
   45.4566   31.5585   50.8383 H   0  0  0  0  0  0  0  0  0  0  0  0
   47.8747   33.2061   43.2038 H   0  0  0  0  0  0  0  0  0  0  0  0
   46.4689   33.0048   42.0982 H   0  0  0  0  0  0  0  0  0  0  0  0
   48.0008   35.6224   42.4211 H   0  0  0  0  0  0  0  0  0  0  0  0
   48.3857   34.3922   41.1701 H   0  0  0  0  0  0  0  0  0  0  0  0
   46.7823   35.2020   41.1701 H   0  0  0  0  0  0  0  0  0  0  0  0
  1  2  2  0
  1  6  1  0
  2  3  1  0
  3  7  1  0
  3  4  2  0
  5  4  1  0
  6  5  2  0
  7 17  1  0
  8  7  1  0
  8  9  2  0
  9 10  1  0
 10 11  1  0
 11 12  2  0
 11 13  1  0
 14 13  1  0
 14 15  1  0
 16 14  2  0
 17 10  2  0
 17 16  1  0
 18  2  1  0
 19 18  1  0
  1 20  1  0
  5 21  1  0
  8 22  1  0
 13 23  1  0
 15 24  1  0
 15 25  1  0
 18 26  1  0
 18 27  1  0
 19 28  1  0
 19 29  1  0
 19 30  1  0
M  ISO  8  20  14  21  14  22  14  23   9  26   8  27   8  28   8  29   8
M  ISO  1  30   8
M  END
>  <minimizedAffinity>  (1) 
-5.84345579

>  <minimizedRMSD>  (1) 
3.47183537

$$$$
