
     RDKit          3D

 41 45  0  0  0  0  0  0  0  0999 V2000
   44.7180   35.7760   44.3320 C   0  0  0  0  0  0  0  0  0  0  0  0
   45.3170   35.7570   43.0740 C   0  0  0  0  0  0  0  0  0  0  0  0
   46.1610   34.7570   42.7180 C   0  0  0  0  0  0  0  0  0  0  0  0
   46.3950   33.7750   43.6380 N   0  0  0  0  0  0  0  0  0  0  0  0
   45.8180   33.7890   44.8550 C   0  0  0  0  0  0  0  0  0  0  0  0
   44.9910   34.7620   45.2180 N   0  0  0  0  0  0  0  0  0  0  0  0
   46.8420   34.6260   41.4450 C   0  0  0  0  0  0  0  0  0  0  0  0
   48.0510   35.2030   41.1550 C   0  0  0  0  0  0  0  0  0  0  0  0
   48.7220   35.1030   39.9750 C   0  0  0  0  0  0  0  0  0  0  0  0
   48.1390   34.3700   39.0080 N   0  0  0  0  0  0  0  0  0  0  0  0
   46.9610   33.7910   39.2470 C   0  0  0  0  0  0  0  0  0  0  0  0
   46.3280   33.9060   40.4160 N   0  0  0  0  0  0  0  0  0  0  0  0
   46.4030   33.0310   38.1790 N   0  0  0  0  0  0  0  0  0  0  0  0
   45.4920   32.0800   38.1030 N   0  0  0  0  0  0  0  0  0  0  0  0
   45.3030   31.6670   36.8540 C   0  0  0  0  0  0  0  0  0  0  0  0
   46.1630   32.4180   36.0740 C   0  0  0  0  0  0  0  0  0  0  0  0
   46.8600   33.2830   36.9200 C   0  0  0  0  0  0  0  0  0  0  0  0
   46.0630   32.7450   45.8440 C   0  0  0  0  0  0  0  0  0  0  0  0
   45.9950   31.4180   45.4050 C   0  0  0  0  0  0  0  0  0  0  0  0
   46.2580   30.6250   46.5040 C   0  0  0  0  0  0  0  0  0  0  0  0
   46.4750   31.5160   47.5650 C   0  0  0  0  0  0  0  0  0  0  0  0
   46.3440   32.7180   47.1000 O   0  0  0  0  0  0  0  0  0  0  0  0
   46.7900   31.1090   48.9240 C   0  0  0  0  0  0  0  0  0  0  0  0
   45.8600   30.7960   49.6980 O   0  0  0  0  0  0  0  0  0  0  0  0
   48.1710   31.0630   49.3890 C   0  0  0  0  0  0  0  0  0  0  0  0
   49.0660   32.1020   49.1110 C   0  0  0  0  0  0  0  0  0  0  0  0
   50.2450   31.6680   49.7210 C   0  0  0  0  0  0  0  0  0  0  0  0
   50.0230   30.4380   50.3170 C   0  0  0  0  0  0  0  0  0  0  0  0
   48.7580   30.1260   50.0840 O   0  0  0  0  0  0  0  0  0  0  0  0
   44.0356   36.5920   44.6120 H   0  0  0  0  0  0  0  0  0  0  0  0
   45.1021   36.5650   42.3592 H   0  0  0  0  0  0  0  0  0  0  0  0
   48.5221   35.8017   41.9485 H   0  0  0  0  0  0  0  0  0  0  0  0
   49.6926   35.5967   39.8192 H   0  0  0  0  0  0  0  0  0  0  0  0
   44.6059   30.8881   36.5113 H   0  0  0  0  0  0  0  0  0  0  0  0
   46.2776   32.3467   34.9823 H   0  0  0  0  0  0  0  0  0  0  0  0
   47.6238   34.0192   36.6290 H   0  0  0  0  0  0  0  0  0  0  0  0
   45.7749   31.0739   44.3836 H   0  0  0  0  0  0  0  0  0  0  0  0
   46.2905   29.5261   46.5399 H   0  0  0  0  0  0  0  0  0  0  0  0
   48.8856   33.0311   48.5505 H   0  0  0  0  0  0  0  0  0  0  0  0
   51.1986   32.2163   49.7270 H   0  0  0  0  0  0  0  0  0  0  0  0
   50.7556   29.8370   50.8756 H   0  0  0  0  0  0  0  0  0  0  0  0
  1  6  2  0
  2  1  1  0
  3  2  2  0
  3  4  1  0
  4  5  2  0
  5  6  1  0
  5 18  1  0
  7  3  1  0
  8  7  2  0
  9  8  1  0
 10 11  1  0
 10  9  2  0
 11 12  2  0
 12  7  1  0
 13 11  1  0
 14 13  1  0
 15 14  2  0
 16 15  1  0
 16 17  2  0
 17 13  1  0
 18 22  1  0
 19 18  2  0
 19 20  1  0
 20 21  2  0
 21 23  1  0
 22 21  1  0
 23 25  1  0
 23 24  2  0
 25 29  1  0
 26 25  2  0
 26 27  1  0
 27 28  2  0
 29 28  1  0
  1 30  1  0
  2 31  1  0
  8 32  1  0
  9 33  1  0
 15 34  1  0
 16 35  1  0
 17 36  1  0
 19 37  1  0
 20 38  1  0
 26 39  1  0
 27 40  1  0
 28 41  1  0
M  ISO  8  30  14  31  14  32  14  33  14  34  14  35  14  36  14  37  14
M  ISO  4  38  14  39  14  40  14  41  14
M  END
>  <minimizedAffinity>  (1) 
-6.61475754

>  <minimizedRMSD>  (1) 
2.0534935

$$$$
