
     RDKit          3D

 34 35  0  0  0  0  0  0  0  0999 V2000
   45.4000   34.9900   42.7890 C   0  0  0  0  0  0  0  0  0  0  0  0
   45.0740   34.5150   45.2180 C   0  0  0  0  0  0  0  0  0  0  0  0
   45.8030   34.2310   44.0210 C   0  0  0  0  0  0  0  0  0  0  0  0
   46.8060   33.2750   44.1050 C   0  0  0  0  0  0  0  0  0  0  0  0
   47.0400   32.6670   45.2900 N   0  0  0  0  0  0  0  0  0  0  0  0
   46.3260   32.9630   46.4020 C   0  0  0  0  0  0  0  0  0  0  0  0
   45.3490   33.8830   46.3640 N   0  0  0  0  0  0  0  0  0  0  0  0
   46.5350   34.8980   41.7940 C   0  0  0  0  0  0  0  0  0  0  0  0
   45.1830   36.4350   43.1760 C   0  0  0  0  0  0  0  0  0  0  0  0
   44.1090   34.4280   42.2850 C   0  0  0  0  0  0  0  0  0  0  0  0
   43.4500   35.1400   41.2480 N   0  0  0  0  0  0  0  0  0  0  0  0
   42.0590   35.3120   41.6870 C   0  0  0  0  0  0  0  0  0  0  0  0
   41.2290   35.4570   40.4370 C   0  0  0  0  0  0  0  0  0  0  0  0
   42.1750   35.2210   39.2630 C   0  0  0  0  0  0  0  0  0  0  0  0
   43.2910   34.4910   39.9930 C   0  0  0  0  0  0  0  0  0  0  0  0
   44.2719   35.2675   45.1957 H   0  0  0  0  0  0  0  0  0  0  0  0
   47.4031   33.0152   43.2185 H   0  0  0  0  0  0  0  0  0  0  0  0
   46.5488   32.4443   47.3461 H   0  0  0  0  0  0  0  0  0  0  0  0
   47.4904   34.8206   42.3337 H   0  0  0  0  0  0  0  0  0  0  0  0
   46.3976   34.0080   41.1623 H   0  0  0  0  0  0  0  0  0  0  0  0
   46.5427   35.7985   41.1623 H   0  0  0  0  0  0  0  0  0  0  0  0
   45.1698   36.5229   44.2724 H   0  0  0  0  0  0  0  0  0  0  0  0
   45.9988   37.0502   42.7686 H   0  0  0  0  0  0  0  0  0  0  0  0
   44.2225   36.7834   42.7686 H   0  0  0  0  0  0  0  0  0  0  0  0
   44.3135   33.4138   41.9113 H   0  0  0  0  0  0  0  0  0  0  0  0
   43.4235   34.4805   43.1437 H   0  0  0  0  0  0  0  0  0  0  0  0
   41.7305   34.4331   42.2611 H   0  0  0  0  0  0  0  0  0  0  0  0
   41.9539   36.1925   42.3379 H   0  0  0  0  0  0  0  0  0  0  0  0
   40.4195   34.7123   40.4291 H   0  0  0  0  0  0  0  0  0  0  0  0
   40.7631   36.4518   40.3804 H   0  0  0  0  0  0  0  0  0  0  0  0
   42.5227   36.1651   38.8184 H   0  0  0  0  0  0  0  0  0  0  0  0
   41.7399   34.6823   38.4083 H   0  0  0  0  0  0  0  0  0  0  0  0
   43.0190   33.4358   40.1435 H   0  0  0  0  0  0  0  0  0  0  0  0
   44.2256   34.5153   39.4134 H   0  0  0  0  0  0  0  0  0  0  0  0
  1  9  1  0
  1  3  1  0
  2  7  2  0
  3  4  2  0
  3  2  1  0
  4  5  1  0
  5  6  2  0
  7  6  1  0
  8  1  1  0
 10  1  1  0
 11 12  1  0
 11 10  1  0
 13 12  1  0
 14 15  1  0
 14 13  1  0
 15 11  1  0
  2 16  1  0
  4 17  1  0
  6 18  1  0
  8 19  1  0
  8 20  1  0
  8 21  1  0
  9 22  1  0
  9 23  1  0
  9 24  1  0
 10 25  1  0
 10 26  1  0
 12 27  1  0
 12 28  1  0
 13 29  1  0
 13 30  1  0
 14 31  1  0
 14 32  1  0
 15 33  1  0
 15 34  1  0
M  ISO  8  16  14  17  14  18  14  19   8  20   8  21   8  22   8  23   8
M  ISO  8  24   8  25   8  26   8  27  13  28  13  29  13  30  13  31  13
M  ISO  3  32  13  33  13  34  13
M  END
>  <minimizedAffinity>  (1) 
-4.38730669

>  <minimizedRMSD>  (1) 
1.10585713

$$$$
