
     RDKit          3D

 36 39  0  0  0  0  0  0  0  0999 V2000
   44.5420   36.0860   44.5530 C   0  0  0  0  0  0  0  0  0  0  0  0
   45.1940   36.0320   43.3190 C   0  0  0  0  0  0  0  0  0  0  0  0
   46.0450   35.0060   43.0410 C   0  0  0  0  0  0  0  0  0  0  0  0
   46.2280   34.0580   43.9970 N   0  0  0  0  0  0  0  0  0  0  0  0
   45.6030   34.1100   45.1830 C   0  0  0  0  0  0  0  0  0  0  0  0
   44.7660   35.1010   45.4800 N   0  0  0  0  0  0  0  0  0  0  0  0
   46.7860   34.8270   41.8040 C   0  0  0  0  0  0  0  0  0  0  0  0
   48.0390   35.3510   41.5670 C   0  0  0  0  0  0  0  0  0  0  0  0
   48.7630   35.2040   40.4210 C   0  0  0  0  0  0  0  0  0  0  0  0
   48.1990   34.4830   39.4450 N   0  0  0  0  0  0  0  0  0  0  0  0
   46.9940   33.9570   39.6250 C   0  0  0  0  0  0  0  0  0  0  0  0
   46.3030   34.1140   40.7530 N   0  0  0  0  0  0  0  0  0  0  0  0
   46.4490   33.1980   38.5420 N   0  0  0  0  0  0  0  0  0  0  0  0
   45.4960   32.2780   38.4300 N   0  0  0  0  0  0  0  0  0  0  0  0
   45.3690   31.8730   37.1780 C   0  0  0  0  0  0  0  0  0  0  0  0
   46.3020   32.5770   36.4370 C   0  0  0  0  0  0  0  0  0  0  0  0
   46.9720   33.4050   37.3080 C   0  0  0  0  0  0  0  0  0  0  0  0
   45.7810   33.1090   46.2220 C   0  0  0  0  0  0  0  0  0  0  0  0
   46.9520   32.3400   46.1630 C   0  0  0  0  0  0  0  0  0  0  0  0
   46.9150   31.4640   47.2320 C   0  0  0  0  0  0  0  0  0  0  0  0
   45.7130   31.7500   47.8900 C   0  0  0  0  0  0  0  0  0  0  0  0
   45.1170   32.7050   47.2530 O   0  0  0  0  0  0  0  0  0  0  0  0
   45.2980   31.0300   49.0880 C   0  0  0  0  0  0  0  0  0  0  0  0
   45.0040   29.8170   49.0170 O   0  0  0  0  0  0  0  0  0  0  0  0
   45.2790   31.8420   50.2620 N   0  0  0  0  0  0  0  0  0  0  0  0
   43.8534   36.9133   44.7796 H   0  0  0  0  0  0  0  0  0  0  0  0
   45.0198   36.8193   42.5708 H   0  0  0  0  0  0  0  0  0  0  0  0
   48.4958   35.9409   42.3753 H   0  0  0  0  0  0  0  0  0  0  0  0
   49.7596   35.6550   40.3048 H   0  0  0  0  0  0  0  0  0  0  0  0
   44.6597   31.1225   36.7990 H   0  0  0  0  0  0  0  0  0  0  0  0
   46.4755   32.4907   35.3542 H   0  0  0  0  0  0  0  0  0  0  0  0
   47.7811   34.1046   37.0512 H   0  0  0  0  0  0  0  0  0  0  0  0
   47.7491   32.4188   45.4090 H   0  0  0  0  0  0  0  0  0  0  0  0
   47.6657   30.7079   47.5055 H   0  0  0  0  0  0  0  0  0  0  0  0
   45.0005   31.4341   51.1658 H   0  0  0  0  0  0  0  0  0  0  0  0
   45.5438   32.8358   50.2052 H   0  0  0  0  0  0  0  0  0  0  0  0
  1  6  2  0
  2  1  1  0
  3  2  2  0
  3  4  1  0
  4  5  2  0
  5  6  1  0
  5 18  1  0
  7  3  1  0
  8  7  2  0
  9  8  1  0
 10 11  1  0
 10  9  2  0
 11 12  2  0
 12  7  1  0
 13 11  1  0
 14 13  1  0
 15 14  2  0
 16 15  1  0
 16 17  2  0
 17 13  1  0
 18 22  1  0
 19 18  2  0
 19 20  1  0
 20 21  2  0
 21 23  1  0
 22 21  1  0
 23 25  1  0
 24 23  2  0
  1 26  1  0
  2 27  1  0
  8 28  1  0
  9 29  1  0
 15 30  1  0
 16 31  1  0
 17 32  1  0
 19 33  1  0
 20 34  1  0
 25 35  1  0
 25 36  1  0
M  ISO  8  26  14  27  14  28  14  29  14  30  14  31  14  32  14  33  14
M  ISO  1  34  14
M  END
>  <minimizedAffinity>  (1) 
-6.99538898

>  <minimizedRMSD>  (1) 
0.240469337

$$$$
