
     RDKit          3D

 26 27  0  0  0  0  0  0  0  0999 V2000
   46.3850   33.2050   39.0560 C   0  0  0  0  0  0  0  0  0  0  0  0
   46.3100   33.8280   40.3100 C   0  0  0  0  0  0  0  0  0  0  0  0
   45.1270   33.6990   41.0300 C   0  0  0  0  0  0  0  0  0  0  0  0
   44.1010   32.9810   40.4910 N   0  0  0  0  0  0  0  0  0  0  0  0
   44.2260   32.3970   39.2720 C   0  0  0  0  0  0  0  0  0  0  0  0
   45.3630   32.5060   38.5510 N   0  0  0  0  0  0  0  0  0  0  0  0
   44.9010   34.2650   42.3130 N   0  0  0  0  0  0  0  0  0  0  0  0
   45.4520   33.5310   43.3240 C   0  0  0  0  0  0  0  0  0  0  0  0
   45.3230   33.9380   44.6360 C   0  0  0  0  0  0  0  0  0  0  0  0
   44.6310   35.0990   44.9360 C   0  0  0  0  0  0  0  0  0  0  0  0
   44.4710   35.5340   46.1100 O   0  0  0  0  0  0  0  0  0  0  0  0
   44.1130   35.7790   43.9140 N   0  0  0  0  0  0  0  0  0  0  0  0
   44.2260   35.4010   42.6280 C   0  0  0  0  0  0  0  0  0  0  0  0
   43.7570   36.0060   41.6290 O   0  0  0  0  0  0  0  0  0  0  0  0
   47.4260   34.5890   40.8530 C   0  0  0  0  0  0  0  0  0  0  0  0
   48.4370   34.8490   39.7540 C   0  0  0  0  0  0  0  0  0  0  0  0
   47.3119   33.2939   38.4704 H   0  0  0  0  0  0  0  0  0  0  0  0
   43.3825   31.8221   38.8622 H   0  0  0  0  0  0  0  0  0  0  0  0
   46.0030   32.6080   43.0906 H   0  0  0  0  0  0  0  0  0  0  0  0
   45.7700   33.3400   45.4438 H   0  0  0  0  0  0  0  0  0  0  0  0
   43.5955   36.6452   44.1208 H   0  0  0  0  0  0  0  0  0  0  0  0
   47.0591   35.5474   41.2490 H   0  0  0  0  0  0  0  0  0  0  0  0
   47.9018   34.0177   41.6637 H   0  0  0  0  0  0  0  0  0  0  0  0
   49.4098   35.0992   40.2024 H   0  0  0  0  0  0  0  0  0  0  0  0
   48.5411   33.9484   39.1310 H   0  0  0  0  0  0  0  0  0  0  0  0
   48.0937   35.6881   39.1310 H   0  0  0  0  0  0  0  0  0  0  0  0
  1  2  2  0
  2 15  1  0
  2  3  1  0
  3  7  1  0
  4  3  2  0
  5  4  1  0
  6  1  1  0
  6  5  2  0
  7 13  1  0
  7  8  1  0
  8  9  2  0
  9 10  1  0
 10 11  2  0
 12 10  1  0
 13 12  1  0
 14 13  2  0
 16 15  1  0
  1 17  1  0
  5 18  1  0
  8 19  1  0
  9 20  1  0
 12 21  1  0
 15 22  1  0
 15 23  1  0
 16 24  1  0
 16 25  1  0
 16 26  1  0
M  ISO  8  17  14  18  14  19  14  20  14  21   9  22   8  23   8  24   8
M  ISO  2  25   8  26   8
M  END
>  <minimizedAffinity>  (1) 
-4.47371912

>  <minimizedRMSD>  (1) 
5.41386223

$$$$
