
     RDKit          3D

 29 31  0  0  0  0  0  0  0  0999 V2000
   46.1000   35.4340   42.9700 C   0  0  0  0  0  0  0  0  0  0  0  0
   46.6460   34.2710   43.5480 C   0  0  0  0  0  0  0  0  0  0  0  0
   46.0600   33.8420   44.7330 C   0  0  0  0  0  0  0  0  0  0  0  0
   45.0250   34.5420   45.2550 N   0  0  0  0  0  0  0  0  0  0  0  0
   44.5310   35.6580   44.6620 C   0  0  0  0  0  0  0  0  0  0  0  0
   45.0740   36.1060   43.5100 N   0  0  0  0  0  0  0  0  0  0  0  0
   46.5060   32.6820   45.4170 N   0  0  0  0  0  0  0  0  0  0  0  0
   47.2060   31.7370   44.7220 C   0  0  0  0  0  0  0  0  0  0  0  0
   47.5300   30.7140   45.5670 N   0  0  0  0  0  0  0  0  0  0  0  0
   47.0550   30.9830   46.7830 C   0  0  0  0  0  0  0  0  0  0  0  0
   47.0110   30.4230   48.0630 C   0  0  0  0  0  0  0  0  0  0  0  0
   46.3980   31.0410   49.0950 N   0  0  0  0  0  0  0  0  0  0  0  0
   45.7930   32.2410   48.9320 C   0  0  0  0  0  0  0  0  0  0  0  0
   45.8140   32.8200   47.6990 N   0  0  0  0  0  0  0  0  0  0  0  0
   46.4250   32.2060   46.6700 C   0  0  0  0  0  0  0  0  0  0  0  0
   47.6640   29.1520   48.1940 N   0  0  0  0  0  0  0  0  0  0  0  0
   47.7430   33.5870   42.9210 C   0  0  0  0  0  0  0  0  0  0  0  0
   48.8380   34.5850   42.6000 C   0  0  0  0  0  0  0  0  0  0  0  0
   46.5361   35.8078   42.0319 H   0  0  0  0  0  0  0  0  0  0  0  0
   43.6886   36.1974   45.1196 H   0  0  0  0  0  0  0  0  0  0  0  0
   47.4665   31.7912   43.6547 H   0  0  0  0  0  0  0  0  0  0  0  0
   45.2949   32.7382   49.7774 H   0  0  0  0  0  0  0  0  0  0  0  0
   47.6772   28.6713   49.1048 H   0  0  0  0  0  0  0  0  0  0  0  0
   48.1195   28.7204   47.3772 H   0  0  0  0  0  0  0  0  0  0  0  0
   48.1349   32.8183   43.6033 H   0  0  0  0  0  0  0  0  0  0  0  0
   47.3969   33.1086   41.9929 H   0  0  0  0  0  0  0  0  0  0  0  0
   49.2652   34.9743   43.5359 H   0  0  0  0  0  0  0  0  0  0  0  0
   49.6267   34.0886   42.0156 H   0  0  0  0  0  0  0  0  0  0  0  0
   48.4167   35.4162   42.0156 H   0  0  0  0  0  0  0  0  0  0  0  0
  1  6  2  0
  1  2  1  0
  2  3  2  0
  3  4  1  0
  3  7  1  0
  5  4  2  0
  6  5  1  0
  7 15  1  0
  8  7  1  0
  8  9  2  0
  9 10  1  0
 10 11  2  0
 11 16  1  0
 11 12  1  0
 13 12  2  0
 14 13  1  0
 15 10  1  0
 15 14  2  0
 17  2  1  0
 18 17  1  0
  1 19  1  0
  5 20  1  0
  8 21  1  0
 13 22  1  0
 16 23  1  0
 16 24  1  0
 17 25  1  0
 17 26  1  0
 18 27  1  0
 18 28  1  0
 18 29  1  0
M  ISO  8  19  14  20  14  21  14  22  14  25   8  26   8  27   8  28   8
M  ISO  1  29   8
M  END
>  <minimizedAffinity>  (1) 
-5.4416585

>  <minimizedRMSD>  (1) 
3.89925814

$$$$
