
     RDKit          3D

 26 27  0  0  0  0  0  0  0  0999 V2000
   45.9320   35.5440   42.9640 C   0  0  0  0  0  0  0  0  0  0  0  0
   46.5710   34.4050   43.4620 C   0  0  0  0  0  0  0  0  0  0  0  0
   46.1320   33.8950   44.6690 C   0  0  0  0  0  0  0  0  0  0  0  0
   45.0960   34.5340   45.3080 N   0  0  0  0  0  0  0  0  0  0  0  0
   44.5050   35.6290   44.7970 C   0  0  0  0  0  0  0  0  0  0  0  0
   44.9180   36.1310   43.6350 N   0  0  0  0  0  0  0  0  0  0  0  0
   46.6460   32.7360   45.3640 C   0  0  0  0  0  0  0  0  0  0  0  0
   47.0230   31.4910   44.9350 C   0  0  0  0  0  0  0  0  0  0  0  0
   47.5010   30.5250   45.7910 C   0  0  0  0  0  0  0  0  0  0  0  0
   47.6420   30.7280   47.1390 C   0  0  0  0  0  0  0  0  0  0  0  0
   47.2760   31.9660   47.6230 C   0  0  0  0  0  0  0  0  0  0  0  0
   46.8010   32.9120   46.7470 C   0  0  0  0  0  0  0  0  0  0  0  0
   47.6420   33.7990   42.7250 C   0  0  0  0  0  0  0  0  0  0  0  0
   48.3010   34.8200   41.8210 C   0  0  0  0  0  0  0  0  0  0  0  0
   46.2621   35.9710   42.0055 H   0  0  0  0  0  0  0  0  0  0  0  0
   43.6787   36.1108   45.3403 H   0  0  0  0  0  0  0  0  0  0  0  0
   46.9405   31.2538   43.8640 H   0  0  0  0  0  0  0  0  0  0  0  0
   47.7824   29.5465   45.3746 H   0  0  0  0  0  0  0  0  0  0  0  0
   48.0287   29.9409   47.8030 H   0  0  0  0  0  0  0  0  0  0  0  0
   47.3631   32.1933   48.6957 H   0  0  0  0  0  0  0  0  0  0  0  0
   46.5186   33.8894   47.1653 H   0  0  0  0  0  0  0  0  0  0  0  0
   48.3882   33.4024   43.4291 H   0  0  0  0  0  0  0  0  0  0  0  0
   47.2358   32.9839   42.1081 H   0  0  0  0  0  0  0  0  0  0  0  0
   48.7962   35.5873   42.4343 H   0  0  0  0  0  0  0  0  0  0  0  0
   49.0473   34.3201   41.1861 H   0  0  0  0  0  0  0  0  0  0  0  0
   47.5381   35.2942   41.1861 H   0  0  0  0  0  0  0  0  0  0  0  0
  1  2  2  0
  1  6  1  0
  2  3  1  0
  3  4  2  0
  3  7  1  0
  5  4  1  0
  6  5  2  0
  7 12  1  0
  8  7  2  0
  8  9  1  0
  9 10  2  0
 10 11  1  0
 12 11  2  0
 13  2  1  0
 14 13  1  0
  1 15  1  0
  5 16  1  0
  8 17  1  0
  9 18  1  0
 10 19  1  0
 11 20  1  0
 12 21  1  0
 13 22  1  0
 13 23  1  0
 14 24  1  0
 14 25  1  0
 14 26  1  0
M  ISO  8  15  14  16  14  17  14  18  14  19  14  20  14  21  14  22   8
M  ISO  4  23   8  24   8  25   8  26   8
M  END
>  <minimizedAffinity>  (1) 
-4.44904566

>  <minimizedRMSD>  (1) 
2.78792214

$$$$
