
     RDKit          3D

 24 25  0  0  0  0  0  0  0  0999 V2000
   45.4400   35.9890   43.0990 C   0  0  0  0  0  0  0  0  0  0  0  0
   46.2050   34.8180   43.0140 C   0  0  0  0  0  0  0  0  0  0  0  0
   46.1440   33.9630   44.1060 C   0  0  0  0  0  0  0  0  0  0  0  0
   45.3520   34.3280   45.1590 N   0  0  0  0  0  0  0  0  0  0  0  0
   44.6360   35.4540   45.2010 C   0  0  0  0  0  0  0  0  0  0  0  0
   44.6760   36.2980   44.1610 N   0  0  0  0  0  0  0  0  0  0  0  0
   46.8740   32.7190   44.1930 C   0  0  0  0  0  0  0  0  0  0  0  0
   47.6710   32.0390   43.3130 C   0  0  0  0  0  0  0  0  0  0  0  0
   48.2790   30.8510   43.6410 C   0  0  0  0  0  0  0  0  0  0  0  0
   48.1160   30.2970   44.8590 N   0  0  0  0  0  0  0  0  0  0  0  0
   47.3270   30.9770   45.7200 C   0  0  0  0  0  0  0  0  0  0  0  0
   46.7210   32.1400   45.4220 N   0  0  0  0  0  0  0  0  0  0  0  0
   47.0040   34.5730   41.8430 C   0  0  0  0  0  0  0  0  0  0  0  0
   48.2400   35.4450   41.8940 C   0  0  0  0  0  0  0  0  0  0  0  0
   45.4660   36.6916   42.2530 H   0  0  0  0  0  0  0  0  0  0  0  0
   44.0189   35.6868   46.0813 H   0  0  0  0  0  0  0  0  0  0  0  0
   47.8306   32.4576   42.3084 H   0  0  0  0  0  0  0  0  0  0  0  0
   48.9098   30.3432   42.8965 H   0  0  0  0  0  0  0  0  0  0  0  0
   47.1713   30.5544   46.7236 H   0  0  0  0  0  0  0  0  0  0  0  0
   46.4205   34.8139   40.9422 H   0  0  0  0  0  0  0  0  0  0  0  0
   47.2994   33.5139   41.8115 H   0  0  0  0  0  0  0  0  0  0  0  0
   48.5109   35.6361   42.9429 H   0  0  0  0  0  0  0  0  0  0  0  0
   49.0715   34.9324   41.3881 H   0  0  0  0  0  0  0  0  0  0  0  0
   48.0360   36.4002   41.3881 H   0  0  0  0  0  0  0  0  0  0  0  0
  1  6  2  0
  2  1  1  0
  2  3  2  0
  3  7  1  0
  3  4  1  0
  4  5  2  0
  6  5  1  0
  7 12  2  0
  8  9  2  0
  8  7  1  0
  9 10  1  0
 10 11  2  0
 12 11  1  0
 13 14  1  0
 13  2  1  0
  1 15  1  0
  5 16  1  0
  8 17  1  0
  9 18  1  0
 11 19  1  0
 13 20  1  0
 13 21  1  0
 14 22  1  0
 14 23  1  0
 14 24  1  0
M  ISO  8  15  14  16  14  17  14  18  14  19  14  20   8  21   8  22   8
M  ISO  2  23   8  24   8
M  END
>  <minimizedAffinity>  (1) 
-4.13860178

>  <minimizedRMSD>  (1) 
1.7537725

$$$$
