
     RDKit          3D

 29 30  0  0  0  0  0  0  0  0999 V2000
   46.1620   35.3120   42.9770 C   0  0  0  0  0  0  0  0  0  0  0  0
   46.7040   34.1850   43.6090 C   0  0  0  0  0  0  0  0  0  0  0  0
   46.1270   33.7820   44.8070 C   0  0  0  0  0  0  0  0  0  0  0  0
   45.0700   34.4920   45.3110 N   0  0  0  0  0  0  0  0  0  0  0  0
   44.5780   35.5800   44.6620 C   0  0  0  0  0  0  0  0  0  0  0  0
   45.1180   35.9960   43.4950 N   0  0  0  0  0  0  0  0  0  0  0  0
   46.5670   32.6540   45.5500 N   0  0  0  0  0  0  0  0  0  0  0  0
   46.7720   31.2610   45.1950 C   0  0  0  0  0  0  0  0  0  0  0  0
   45.7340   30.5080   46.0390 C   0  0  0  0  0  0  0  0  0  0  0  0
   46.2940   30.4650   47.3030 O   0  0  0  0  0  0  0  0  0  0  0  0
   46.2420   31.7510   47.8320 C   0  0  0  0  0  0  0  0  0  0  0  0
   46.9130   32.7900   46.9680 C   0  0  0  0  0  0  0  0  0  0  0  0
   47.8150   33.4780   43.0300 C   0  0  0  0  0  0  0  0  0  0  0  0
   48.9160   34.4620   42.6740 C   0  0  0  0  0  0  0  0  0  0  0  0
   46.6011   35.6514   42.0273 H   0  0  0  0  0  0  0  0  0  0  0  0
   43.7282   36.1298   45.0927 H   0  0  0  0  0  0  0  0  0  0  0  0
   46.5942   31.1005   44.1214 H   0  0  0  0  0  0  0  0  0  0  0  0
   47.8008   30.9216   45.3860 H   0  0  0  0  0  0  0  0  0  0  0  0
   44.7764   31.0491   46.0544 H   0  0  0  0  0  0  0  0  0  0  0  0
   45.5125   29.5067   45.6411 H   0  0  0  0  0  0  0  0  0  0  0  0
   45.1860   32.0326   47.9569 H   0  0  0  0  0  0  0  0  0  0  0  0
   46.7862   31.7276   48.7877 H   0  0  0  0  0  0  0  0  0  0  0  0
   48.0029   32.6873   47.0760 H   0  0  0  0  0  0  0  0  0  0  0  0
   46.5630   33.7777   47.3027 H   0  0  0  0  0  0  0  0  0  0  0  0
   48.1996   32.7447   43.7541 H   0  0  0  0  0  0  0  0  0  0  0  0
   47.4822   32.9575   42.1199 H   0  0  0  0  0  0  0  0  0  0  0  0
   49.3630   34.8615   43.5963 H   0  0  0  0  0  0  0  0  0  0  0  0
   49.6897   33.9489   42.0840 H   0  0  0  0  0  0  0  0  0  0  0  0
   48.4927   35.2882   42.0840 H   0  0  0  0  0  0  0  0  0  0  0  0
  1  6  2  0
  1  2  1  0
  2  3  2  0
  3  4  1  0
  3  7  1  0
  5  4  2  0
  6  5  1  0
  7 12  1  0
  8  7  1  0
  8  9  1  0
  9 10  1  0
 10 11  1  0
 12 11  1  0
 13  2  1  0
 14 13  1  0
  1 15  1  0
  5 16  1  0
  8 17  1  0
  8 18  1  0
  9 19  1  0
  9 20  1  0
 11 21  1  0
 11 22  1  0
 12 23  1  0
 12 24  1  0
 13 25  1  0
 13 26  1  0
 14 27  1  0
 14 28  1  0
 14 29  1  0
M  ISO  8  15  14  16  14  17  13  18  13  19  13  20  13  21  13  22  13
M  ISO  7  23  13  24  13  25   8  26   8  27   8  28   8  29   8
M  END
>  <minimizedAffinity>  (1) 
-4.13476181

>  <minimizedRMSD>  (1) 
3.20860553

$$$$
