
     RDKit          3D

 29 30  0  0  0  0  0  0  0  0999 V2000
   44.8980   34.9370   45.0400 C   0  0  0  0  0  0  0  0  0  0  0  0
   45.5790   35.0580   43.8060 C   0  0  0  0  0  0  0  0  0  0  0  0
   46.6690   34.2270   43.5960 C   0  0  0  0  0  0  0  0  0  0  0  0
   47.0470   33.3340   44.5690 N   0  0  0  0  0  0  0  0  0  0  0  0
   46.3480   33.2670   45.7350 C   0  0  0  0  0  0  0  0  0  0  0  0
   45.2800   34.0610   45.9740 N   0  0  0  0  0  0  0  0  0  0  0  0
   47.5360   34.1590   42.3980 C   0  0  0  0  0  0  0  0  0  0  0  0
   48.6280   35.1720   42.3490 C   0  0  0  0  0  0  0  0  0  0  0  0
   49.9430   34.4220   42.3620 C   0  0  0  0  0  0  0  0  0  0  0  0
   49.5910   33.1190   41.6730 C   0  0  0  0  0  0  0  0  0  0  0  0
   48.2650   32.8070   42.3380 C   0  0  0  0  0  0  0  0  0  0  0  0
   45.2030   35.9820   42.7630 C   0  0  0  0  0  0  0  0  0  0  0  0
   44.0060   35.4150   41.9970 C   0  0  0  0  0  0  0  0  0  0  0  0
   44.0292   35.5825   45.2363 H   0  0  0  0  0  0  0  0  0  0  0  0
   46.6609   32.5463   46.5049 H   0  0  0  0  0  0  0  0  0  0  0  0
   46.8360   34.3323   41.5673 H   0  0  0  0  0  0  0  0  0  0  0  0
   48.5649   35.8353   43.2242 H   0  0  0  0  0  0  0  0  0  0  0  0
   48.5430   35.7908   41.4435 H   0  0  0  0  0  0  0  0  0  0  0  0
   50.7171   34.9691   41.8039 H   0  0  0  0  0  0  0  0  0  0  0  0
   50.3563   34.2836   43.3720 H   0  0  0  0  0  0  0  0  0  0  0  0
   50.3397   32.3383   41.8730 H   0  0  0  0  0  0  0  0  0  0  0  0
   49.5521   33.1759   40.5752 H   0  0  0  0  0  0  0  0  0  0  0  0
   47.6917   32.0825   41.7410 H   0  0  0  0  0  0  0  0  0  0  0  0
   48.3924   32.3563   43.3333 H   0  0  0  0  0  0  0  0  0  0  0  0
   44.9295   36.9494   43.2094 H   0  0  0  0  0  0  0  0  0  0  0  0
   46.0484   36.1261   42.0741 H   0  0  0  0  0  0  0  0  0  0  0  0
   43.2499   35.0569   42.7112 H   0  0  0  0  0  0  0  0  0  0  0  0
   43.5693   36.2019   41.3645 H   0  0  0  0  0  0  0  0  0  0  0  0
   44.3382   34.5786   41.3645 H   0  0  0  0  0  0  0  0  0  0  0  0
  1  6  2  0
  2  1  1  0
  3  2  2  0
  3  4  1  0
  4  5  2  0
  5  6  1  0
  7  3  1  0
  8  9  1  0
  8  7  1  0
 10 11  1  0
 10  9  1  0
 11  7  1  0
 12  2  1  0
 13 12  1  0
  1 14  1  0
  5 15  1  0
  7 16  1  0
  8 17  1  0
  8 18  1  0
  9 19  1  0
  9 20  1  0
 10 21  1  0
 10 22  1  0
 11 23  1  0
 11 24  1  0
 12 25  1  0
 12 26  1  0
 13 27  1  0
 13 28  1  0
 13 29  1  0
M  ISO  8  14  14  15  14  16  13  17  13  18  13  19  13  20  13  21  13
M  ISO  8  22  13  23  13  24  13  25   8  26   8  27   8  28   8  29   8
M  END
>  <minimizedAffinity>  (1) 
-4.37978363

>  <minimizedRMSD>  (1) 
1.85439694

$$$$
