
     RDKit          3D

 28 29  0  0  0  0  0  0  0  0999 V2000
   44.7380   35.1780   45.0000 C   0  0  0  0  0  0  0  0  0  0  0  0
   45.5710   35.1400   43.8720 C   0  0  0  0  0  0  0  0  0  0  0  0
   46.6080   34.2120   43.8510 C   0  0  0  0  0  0  0  0  0  0  0  0
   46.7630   33.3920   44.9180 N   0  0  0  0  0  0  0  0  0  0  0  0
   45.9380   33.4580   45.9920 C   0  0  0  0  0  0  0  0  0  0  0  0
   44.9230   34.3470   46.0450 N   0  0  0  0  0  0  0  0  0  0  0  0
   47.5000   34.1030   42.7450 N   0  0  0  0  0  0  0  0  0  0  0  0
   48.8410   34.5620   42.4350 C   0  0  0  0  0  0  0  0  0  0  0  0
   48.6470   35.4150   41.1730 C   0  0  0  0  0  0  0  0  0  0  0  0
   47.7350   34.4860   40.3980 C   0  0  0  0  0  0  0  0  0  0  0  0
   47.3970   33.4500   41.4290 C   0  0  0  0  0  0  0  0  0  0  0  0
   45.3490   36.0500   42.7630 C   0  0  0  0  0  0  0  0  0  0  0  0
   44.1660   35.5450   41.9520 C   0  0  0  0  0  0  0  0  0  0  0  0
   43.9127   35.9045   45.0326 H   0  0  0  0  0  0  0  0  0  0  0  0
   46.0989   32.7732   46.8376 H   0  0  0  0  0  0  0  0  0  0  0  0
   49.2497   35.1660   43.2585 H   0  0  0  0  0  0  0  0  0  0  0  0
   49.5525   33.7361   42.2879 H   0  0  0  0  0  0  0  0  0  0  0  0
   48.1629   36.3773   41.3958 H   0  0  0  0  0  0  0  0  0  0  0  0
   49.5712   35.7116   40.6554 H   0  0  0  0  0  0  0  0  0  0  0  0
   46.8337   35.0107   40.0481 H   0  0  0  0  0  0  0  0  0  0  0  0
   48.1928   34.0727   39.4872 H   0  0  0  0  0  0  0  0  0  0  0  0
   46.3737   33.0789   41.2704 H   0  0  0  0  0  0  0  0  0  0  0  0
   48.0814   32.5914   41.3620 H   0  0  0  0  0  0  0  0  0  0  0  0
   45.1318   37.0574   43.1477 H   0  0  0  0  0  0  0  0  0  0  0  0
   46.2469   36.0971   42.1294 H   0  0  0  0  0  0  0  0  0  0  0  0
   43.3720   35.2061   42.6337 H   0  0  0  0  0  0  0  0  0  0  0  0
   43.7825   36.3578   41.3178 H   0  0  0  0  0  0  0  0  0  0  0  0
   44.4877   34.7058   41.3178 H   0  0  0  0  0  0  0  0  0  0  0  0
  1  6  2  0
  2  1  1  0
  3  2  2  0
  3  4  1  0
  4  5  2  0
  5  6  1  0
  7  3  1  0
  8  7  1  0
  9  8  1  0
 10  9  1  0
 10 11  1  0
 11  7  1  0
 12  2  1  0
 13 12  1  0
  1 14  1  0
  5 15  1  0
  8 16  1  0
  8 17  1  0
  9 18  1  0
  9 19  1  0
 10 20  1  0
 10 21  1  0
 11 22  1  0
 11 23  1  0
 12 24  1  0
 12 25  1  0
 13 26  1  0
 13 27  1  0
 13 28  1  0
M  ISO  8  14  14  15  14  16  13  17  13  18  13  19  13  20  13  21  13
M  ISO  7  22  13  23  13  24   8  25   8  26   8  27   8  28   8
M  END
>  <minimizedAffinity>  (1) 
-4.43655491

>  <minimizedRMSD>  (1) 
1.95858824

$$$$
