
     RDKit          3D

 31 32  0  0  0  0  0  0  0  0999 V2000
   45.6050   35.7750   42.9940 C   0  0  0  0  0  0  0  0  0  0  0  0
   46.3880   34.6430   43.2440 C   0  0  0  0  0  0  0  0  0  0  0  0
   46.1940   33.9800   44.4450 C   0  0  0  0  0  0  0  0  0  0  0  0
   45.2550   34.4540   45.3260 N   0  0  0  0  0  0  0  0  0  0  0  0
   44.5120   35.5570   45.0500 C   0  0  0  0  0  0  0  0  0  0  0  0
   44.6910   36.2120   43.8830 N   0  0  0  0  0  0  0  0  0  0  0  0
   46.9030   32.8140   44.8460 N   0  0  0  0  0  0  0  0  0  0  0  0
   47.6430   31.8340   44.0610 C   0  0  0  0  0  0  0  0  0  0  0  0
   46.9610   30.4980   44.2720 C   0  0  0  0  0  0  0  0  0  0  0  0
   45.7880   30.5960   45.2010 C   0  0  0  0  0  0  0  0  0  0  0  0
   46.0510   31.2950   46.4890 C   0  0  0  0  0  0  0  0  0  0  0  0
   46.9420   32.4680   46.2690 C   0  0  0  0  0  0  0  0  0  0  0  0
   47.3550   34.1650   42.2990 C   0  0  0  0  0  0  0  0  0  0  0  0
   48.1840   35.3010   41.7620 C   0  0  0  0  0  0  0  0  0  0  0  0
   45.7385   36.3218   42.0489 H   0  0  0  0  0  0  0  0  0  0  0  0
   43.7666   35.9156   45.7751 H   0  0  0  0  0  0  0  0  0  0  0  0
   48.6870   31.7845   44.4041 H   0  0  0  0  0  0  0  0  0  0  0  0
   47.6526   32.1080   42.9957 H   0  0  0  0  0  0  0  0  0  0  0  0
   46.6109   30.1224   43.2992 H   0  0  0  0  0  0  0  0  0  0  0  0
   47.6936   29.8154   44.7273 H   0  0  0  0  0  0  0  0  0  0  0  0
   44.9855   31.1374   44.6786 H   0  0  0  0  0  0  0  0  0  0  0  0
   45.5233   29.5616   45.4657 H   0  0  0  0  0  0  0  0  0  0  0  0
   45.0975   31.6389   46.9163 H   0  0  0  0  0  0  0  0  0  0  0  0
   46.5443   30.5962   47.1807 H   0  0  0  0  0  0  0  0  0  0  0  0
   47.9713   32.2135   46.5620 H   0  0  0  0  0  0  0  0  0  0  0  0
   46.6034   33.3206   46.8760 H   0  0  0  0  0  0  0  0  0  0  0  0
   48.0160   33.4392   42.7952 H   0  0  0  0  0  0  0  0  0  0  0  0
   46.8242   33.6890   41.4614 H   0  0  0  0  0  0  0  0  0  0  0  0
   48.6040   35.8765   42.6001 H   0  0  0  0  0  0  0  0  0  0  0  0
   49.0024   34.8988   41.1468 H   0  0  0  0  0  0  0  0  0  0  0  0
   47.5514   35.9577   41.1468 H   0  0  0  0  0  0  0  0  0  0  0  0
  1  2  2  0
  1  6  1  0
  2  3  1  0
  3  7  1  0
  3  4  2  0
  5  4  1  0
  6  5  2  0
  7 12  1  0
  8  9  1  0
  8  7  1  0
  9 10  1  0
 10 11  1  0
 12 11  1  0
 13  2  1  0
 14 13  1  0
  1 15  1  0
  5 16  1  0
  8 17  1  0
  8 18  1  0
  9 19  1  0
  9 20  1  0
 10 21  1  0
 10 22  1  0
 11 23  1  0
 11 24  1  0
 12 25  1  0
 12 26  1  0
 13 27  1  0
 13 28  1  0
 14 29  1  0
 14 30  1  0
 14 31  1  0
M  ISO  8  15  14  16  14  17  13  18  13  19  13  20  13  21  13  22  13
M  ISO  8  23  13  24  13  25  13  26  13  27   8  28   8  29   8  30   8
M  ISO  1  31   8
M  END
>  <minimizedAffinity>  (1) 
-4.15886974

>  <minimizedRMSD>  (1) 
2.04703879

$$$$
