
     RDKit          3D

 23 24  0  0  0  0  0  0  0  0999 V2000
   45.3550   35.9970   43.0980 C   0  0  0  0  0  0  0  0  0  0  0  0
   46.1440   34.8420   43.0100 C   0  0  0  0  0  0  0  0  0  0  0  0
   46.1410   33.9930   44.1100 C   0  0  0  0  0  0  0  0  0  0  0  0
   45.3940   34.3100   45.1880 N   0  0  0  0  0  0  0  0  0  0  0  0
   44.6360   35.4360   45.2500 C   0  0  0  0  0  0  0  0  0  0  0  0
   44.6170   36.2840   44.1980 N   0  0  0  0  0  0  0  0  0  0  0  0
   46.9130   32.7580   44.1360 C   0  0  0  0  0  0  0  0  0  0  0  0
   46.7230   31.9170   45.2410 C   0  0  0  0  0  0  0  0  0  0  0  0
   47.5330   30.8020   45.0830 C   0  0  0  0  0  0  0  0  0  0  0  0
   48.1800   30.9850   43.9180 N   0  0  0  0  0  0  0  0  0  0  0  0
   47.8170   32.1300   43.3620 N   0  0  0  0  0  0  0  0  0  0  0  0
   46.9100   34.5840   41.8190 C   0  0  0  0  0  0  0  0  0  0  0  0
   48.1910   35.4250   41.8690 C   0  0  0  0  0  0  0  0  0  0  0  0
   45.3340   36.6932   42.2466 H   0  0  0  0  0  0  0  0  0  0  0  0
   44.0424   35.6556   46.1496 H   0  0  0  0  0  0  0  0  0  0  0  0
   46.0477   32.1082   46.0880 H   0  0  0  0  0  0  0  0  0  0  0  0
   47.6267   29.9463   45.7679 H   0  0  0  0  0  0  0  0  0  0  0  0
   48.8621   30.3266   43.5152 H   0  0  0  0  0  0  0  0  0  0  0  0
   46.3203   34.8595   40.9323 H   0  0  0  0  0  0  0  0  0  0  0  0
   47.1643   33.5154   41.7601 H   0  0  0  0  0  0  0  0  0  0  0  0
   48.4691   35.6076   42.9175 H   0  0  0  0  0  0  0  0  0  0  0  0
   49.0044   34.8846   41.3627 H   0  0  0  0  0  0  0  0  0  0  0  0
   48.0186   36.3862   41.3627 H   0  0  0  0  0  0  0  0  0  0  0  0
  1  6  2  0
  2  1  1  0
  2  3  2  0
  3  7  1  0
  3  4  1  0
  4  5  2  0
  6  5  1  0
  7  8  1  0
  9  8  2  0
 10  9  1  0
 11 10  1  0
 11  7  2  0
 12 13  1  0
 12  2  1  0
  1 14  1  0
  5 15  1  0
  8 16  1  0
  9 17  1  0
 10 18  1  0
 12 19  1  0
 12 20  1  0
 13 21  1  0
 13 22  1  0
 13 23  1  0
M  ISO  8  14  14  15  14  16  14  17  14  18   9  19   8  20   8  21   8
M  ISO  2  22   8  23   8
M  END
>  <minimizedAffinity>  (1) 
-3.97335625

>  <minimizedRMSD>  (1) 
1.81661868

$$$$
