
     RDKit          3D

 29 30  0  0  0  0  0  0  0  0999 V2000
   45.5650   34.4330   44.9110 C   0  0  0  0  0  0  0  0  0  0  0  0
   46.3310   33.3250   45.3040 C   0  0  0  0  0  0  0  0  0  0  0  0
   46.0990   32.8220   46.5780 C   0  0  0  0  0  0  0  0  0  0  0  0
   45.1720   33.3990   47.3720 N   0  0  0  0  0  0  0  0  0  0  0  0
   44.4490   34.4700   46.9560 C   0  0  0  0  0  0  0  0  0  0  0  0
   44.6420   34.9920   45.7260 N   0  0  0  0  0  0  0  0  0  0  0  0
   46.7960   31.7160   47.0910 N   0  0  0  0  0  0  0  0  0  0  0  0
   47.7700   32.1210   47.9590 C   0  0  0  0  0  0  0  0  0  0  0  0
   48.6040   31.2090   48.6030 C   0  0  0  0  0  0  0  0  0  0  0  0
   49.6660   31.5820   49.5460 C   0  0  0  0  0  0  0  0  0  0  0  0
   48.4200   29.8650   48.3390 C   0  0  0  0  0  0  0  0  0  0  0  0
   49.1240   28.9960   48.8730 O   0  0  0  0  0  0  0  0  0  0  0  0
   47.4610   29.5090   47.4860 N   0  0  0  0  0  0  0  0  0  0  0  0
   46.6590   30.3960   46.8680 C   0  0  0  0  0  0  0  0  0  0  0  0
   45.7330   30.1490   46.0530 O   0  0  0  0  0  0  0  0  0  0  0  0
   47.3100   32.7500   44.4170 C   0  0  0  0  0  0  0  0  0  0  0  0
   47.6650   33.7840   43.3410 C   0  0  0  0  0  0  0  0  0  0  0  0
   45.7201   34.8600   43.9092 H   0  0  0  0  0  0  0  0  0  0  0  0
   43.6998   34.9162   47.6266 H   0  0  0  0  0  0  0  0  0  0  0  0
   47.8994   33.1957   48.1548 H   0  0  0  0  0  0  0  0  0  0  0  0
   49.3028   31.4544   50.5764 H   0  0  0  0  0  0  0  0  0  0  0  0
   50.5430   30.9381   49.3840 H   0  0  0  0  0  0  0  0  0  0  0  0
   49.9478   32.6329   49.3840 H   0  0  0  0  0  0  0  0  0  0  0  0
   47.3266   28.5068   47.2898 H   0  0  0  0  0  0  0  0  0  0  0  0
   48.2128   32.4823   44.9855 H   0  0  0  0  0  0  0  0  0  0  0  0
   46.9027   31.8432   43.9460 H   0  0  0  0  0  0  0  0  0  0  0  0
   47.9861   34.7192   43.8229 H   0  0  0  0  0  0  0  0  0  0  0  0
   48.4812   33.3955   42.7142 H   0  0  0  0  0  0  0  0  0  0  0  0
   46.7823   33.9788   42.7142 H   0  0  0  0  0  0  0  0  0  0  0  0
  1  2  2  0
  1  6  1  0
  2  3  1  0
  3  7  1  0
  3  4  2  0
  5  4  1  0
  6  5  2  0
  7  8  1  0
  8  9  2  0
  9 10  1  0
 11  9  1  0
 11 12  2  0
 13 11  1  0
 14  7  1  0
 14 13  1  0
 15 14  2  0
 16  2  1  0
 17 16  1  0
  1 18  1  0
  5 19  1  0
  8 20  1  0
 10 21  1  0
 10 22  1  0
 10 23  1  0
 13 24  1  0
 16 25  1  0
 16 26  1  0
 17 27  1  0
 17 28  1  0
 17 29  1  0
M  ISO  8  18  14  19  14  20  14  21   8  22   8  23   8  24   9  25   8
M  ISO  4  26   8  27   8  28   8  29   8
M  END
>  <minimizedAffinity>  (1) 
-4.0731082

>  <minimizedRMSD>  (1) 
4.18042374

$$$$
