
     RDKit          3D

 29 30  0  0  0  0  0  0  0  0999 V2000
   46.2120   34.9350   42.5100 C   0  0  0  0  0  0  0  0  0  0  0  0
   45.3970   34.4740   44.8030 C   0  0  0  0  0  0  0  0  0  0  0  0
   46.2940   34.1160   43.7610 C   0  0  0  0  0  0  0  0  0  0  0  0
   47.1560   33.0560   43.9880 C   0  0  0  0  0  0  0  0  0  0  0  0
   47.1040   32.4140   45.1830 N   0  0  0  0  0  0  0  0  0  0  0  0
   46.2410   32.7740   46.1600 C   0  0  0  0  0  0  0  0  0  0  0  0
   45.3900   33.8000   45.9710 N   0  0  0  0  0  0  0  0  0  0  0  0
   47.6000   35.3730   42.1370 C   0  0  0  0  0  0  0  0  0  0  0  0
   45.3290   36.1280   42.7700 C   0  0  0  0  0  0  0  0  0  0  0  0
   45.5840   34.1150   41.4120 C   0  0  0  0  0  0  0  0  0  0  0  0
   44.1580   34.4130   41.2100 C   0  0  0  0  0  0  0  0  0  0  0  0
   43.1690   33.5410   41.6600 C   0  0  0  0  0  0  0  0  0  0  0  0
   41.9490   34.1270   41.3070 C   0  0  0  0  0  0  0  0  0  0  0  0
   42.2750   35.3190   40.6640 C   0  0  0  0  0  0  0  0  0  0  0  0
   43.5870   35.4440   40.6320 O   0  0  0  0  0  0  0  0  0  0  0  0
   44.6994   35.3116   44.6551 H   0  0  0  0  0  0  0  0  0  0  0  0
   47.8703   32.7398   43.2135 H   0  0  0  0  0  0  0  0  0  0  0  0
   46.2343   32.2259   47.1137 H   0  0  0  0  0  0  0  0  0  0  0  0
   48.1842   35.5574   43.0506 H   0  0  0  0  0  0  0  0  0  0  0  0
   48.0862   34.5846   41.5437 H   0  0  0  0  0  0  0  0  0  0  0  0
   47.5457   36.2977   41.5437 H   0  0  0  0  0  0  0  0  0  0  0  0
   45.2206   36.2745   43.8548 H   0  0  0  0  0  0  0  0  0  0  0  0
   45.7828   37.0245   42.3225 H   0  0  0  0  0  0  0  0  0  0  0  0
   44.3390   35.9559   42.3225 H   0  0  0  0  0  0  0  0  0  0  0  0
   46.1201   34.3185   40.4733 H   0  0  0  0  0  0  0  0  0  0  0  0
   45.6584   33.0586   41.7095 H   0  0  0  0  0  0  0  0  0  0  0  0
   43.3174   32.5862   42.1858 H   0  0  0  0  0  0  0  0  0  0  0  0
   40.9413   33.7292   41.4976 H   0  0  0  0  0  0  0  0  0  0  0  0
   41.5542   36.0395   40.2499 H   0  0  0  0  0  0  0  0  0  0  0  0
  1  9  1  0
  1  3  1  0
  2  7  2  0
  3  4  2  0
  3  2  1  0
  4  5  1  0
  5  6  2  0
  7  6  1  0
  8  1  1  0
 10  1  1  0
 11 10  1  0
 11 12  2  0
 13 12  1  0
 14 13  2  0
 15 14  1  0
 15 11  1  0
  2 16  1  0
  4 17  1  0
  6 18  1  0
  8 19  1  0
  8 20  1  0
  8 21  1  0
  9 22  1  0
  9 23  1  0
  9 24  1  0
 10 25  1  0
 10 26  1  0
 12 27  1  0
 13 28  1  0
 14 29  1  0
M  ISO  8  16  14  17  14  18  14  19   8  20   8  21   8  22   8  23   8
M  ISO  6  24   8  25   8  26   8  27  14  28  14  29  14
M  END
>  <minimizedAffinity>  (1) 
-4.11945724

>  <minimizedRMSD>  (1) 
1.23941469

$$$$
