
     RDKit          3D

 22 22  0  0  0  0  0  0  0  0999 V2000
   45.3450   35.9650   43.0780 C   0  0  0  0  0  0  0  0  0  0  0  0
   46.1980   34.8600   43.0210 C   0  0  0  0  0  0  0  0  0  0  0  0
   46.2630   33.9980   44.1080 C   0  0  0  0  0  0  0  0  0  0  0  0
   45.4750   34.2900   45.1820 N   0  0  0  0  0  0  0  0  0  0  0  0
   44.6580   35.3690   45.2070 C   0  0  0  0  0  0  0  0  0  0  0  0
   44.5840   36.2130   44.1610 N   0  0  0  0  0  0  0  0  0  0  0  0
   47.0220   34.5850   41.8570 C   0  0  0  0  0  0  0  0  0  0  0  0
   48.2560   35.4540   41.8910 C   0  0  0  0  0  0  0  0  0  0  0  0
   47.1180   32.7850   44.1910 C   0  0  0  0  0  0  0  0  0  0  0  0
   46.9430   32.1030   45.5600 C   0  0  0  0  0  0  0  0  0  0  0  0
   45.2938   36.6487   42.2178 H   0  0  0  0  0  0  0  0  0  0  0  0
   44.0430   35.5597   46.0989 H   0  0  0  0  0  0  0  0  0  0  0  0
   46.4482   34.8002   40.9436 H   0  0  0  0  0  0  0  0  0  0  0  0
   47.3213   33.5265   41.8641 H   0  0  0  0  0  0  0  0  0  0  0  0
   48.5366   35.6516   42.9361 H   0  0  0  0  0  0  0  0  0  0  0  0
   49.0824   34.9375   41.3808 H   0  0  0  0  0  0  0  0  0  0  0  0
   48.0481   36.4061   41.3808 H   0  0  0  0  0  0  0  0  0  0  0  0
   46.8295   32.0821   43.3955 H   0  0  0  0  0  0  0  0  0  0  0  0
   48.1708   33.0793   44.0689 H   0  0  0  0  0  0  0  0  0  0  0  0
   47.1305   32.8339   46.3604 H   0  0  0  0  0  0  0  0  0  0  0  0
   45.9167   31.7171   45.6489 H   0  0  0  0  0  0  0  0  0  0  0  0
   47.6567   31.2707   45.6489 H   0  0  0  0  0  0  0  0  0  0  0  0
  1  6  2  0
  2  1  1  0
  2  3  2  0
  3  9  1  0
  3  4  1  0
  4  5  2  0
  6  5  1  0
  7  8  1  0
  7  2  1  0
  9 10  1  0
  1 11  1  0
  5 12  1  0
  7 13  1  0
  7 14  1  0
  8 15  1  0
  8 16  1  0
  8 17  1  0
  9 18  1  0
  9 19  1  0
 10 20  1  0
 10 21  1  0
 10 22  1  0
M  ISO  8  11  14  12  14  13   8  14   8  15   8  16   8  17   8  18   8
M  ISO  4  19   8  20   8  21   8  22   8
M  END
>  <minimizedAffinity>  (1) 
-3.63110948

>  <minimizedRMSD>  (1) 
1.6446346

$$$$
