
     RDKit          3D

 19 19  0  0  0  0  0  0  0  0999 V2000
   45.3450   35.9670   43.1010 C   0  0  0  0  0  0  0  0  0  0  0  0
   46.2230   34.8510   42.9910 C   0  0  0  0  0  0  0  0  0  0  0  0
   46.2810   33.9830   44.0730 C   0  0  0  0  0  0  0  0  0  0  0  0
   45.5000   34.2510   45.1660 N   0  0  0  0  0  0  0  0  0  0  0  0
   44.6810   35.3310   45.2150 C   0  0  0  0  0  0  0  0  0  0  0  0
   44.5940   36.2010   44.1830 N   0  0  0  0  0  0  0  0  0  0  0  0
   46.9900   34.6730   41.7900 C   0  0  0  0  0  0  0  0  0  0  0  0
   48.2760   35.4770   41.8970 C   0  0  0  0  0  0  0  0  0  0  0  0
   47.1300   32.7700   44.0930 C   0  0  0  0  0  0  0  0  0  0  0  0
   45.2815   36.6693   42.2568 H   0  0  0  0  0  0  0  0  0  0  0  0
   44.0731   35.5035   46.1154 H   0  0  0  0  0  0  0  0  0  0  0  0
   46.4073   35.0237   40.9255 H   0  0  0  0  0  0  0  0  0  0  0  0
   47.2291   33.6075   41.6576 H   0  0  0  0  0  0  0  0  0  0  0  0
   48.5242   35.6322   42.9573 H   0  0  0  0  0  0  0  0  0  0  0  0
   49.0932   34.9287   41.4055 H   0  0  0  0  0  0  0  0  0  0  0  0
   48.1410   36.4518   41.4055 H   0  0  0  0  0  0  0  0  0  0  0  0
   47.3322   32.4811   45.1349 H   0  0  0  0  0  0  0  0  0  0  0  0
   46.6084   31.9489   43.5795 H   0  0  0  0  0  0  0  0  0  0  0  0
   48.0801   32.9789   43.5795 H   0  0  0  0  0  0  0  0  0  0  0  0
  1  6  2  0
  2  1  1  0
  2  3  2  0
  3  9  1  0
  3  4  1  0
  4  5  2  0
  6  5  1  0
  7  8  1  0
  7  2  1  0
  1 10  1  0
  5 11  1  0
  7 12  1  0
  7 13  1  0
  8 14  1  0
  8 15  1  0
  8 16  1  0
  9 17  1  0
  9 18  1  0
  9 19  1  0
M  ISO  8  10  14  11  14  12   8  13   8  14   8  15   8  16   8  17   8
M  ISO  2  18   8  19   8
M  END
>  <minimizedAffinity>  (1) 
-3.57612634

>  <minimizedRMSD>  (1) 
1.16716897

$$$$
