
     RDKit          3D

 17 17  0  0  0  0  0  0  0  0999 V2000
   45.3100   35.7590   42.9980 C   0  0  0  0  0  0  0  0  0  0  0  0
   46.3310   34.7970   43.0080 C   0  0  0  0  0  0  0  0  0  0  0  0
   46.4920   34.0770   44.1890 C   0  0  0  0  0  0  0  0  0  0  0  0
   45.6770   34.3380   45.2390 N   0  0  0  0  0  0  0  0  0  0  0  0
   44.7020   35.2800   45.1820 C   0  0  0  0  0  0  0  0  0  0  0  0
   44.5230   35.9830   44.0680 N   0  0  0  0  0  0  0  0  0  0  0  0
   47.1490   34.5930   41.8340 C   0  0  0  0  0  0  0  0  0  0  0  0
   48.3440   35.5270   41.8990 C   0  0  0  0  0  0  0  0  0  0  0  0
   47.4900   33.1010   44.2710 O   0  0  0  0  0  0  0  0  0  0  0  0
   45.1465   36.3506   42.0852 H   0  0  0  0  0  0  0  0  0  0  0  0
   44.0603   35.4618   46.0568 H   0  0  0  0  0  0  0  0  0  0  0  0
   46.5595   34.8099   40.9310 H   0  0  0  0  0  0  0  0  0  0  0  0
   47.4935   33.5490   41.7966 H   0  0  0  0  0  0  0  0  0  0  0  0
   48.5976   35.7252   42.9508 H   0  0  0  0  0  0  0  0  0  0  0  0
   49.2032   35.0586   41.3966 H   0  0  0  0  0  0  0  0  0  0  0  0
   48.0970   36.4739   41.3966 H   0  0  0  0  0  0  0  0  0  0  0  0
   47.6104   32.5852   45.1074 H   0  0  0  0  0  0  0  0  0  0  0  0
  1  2  2  0
  1  6  1  0
  2  3  1  0
  3  9  1  0
  3  4  2  0
  5  4  1  0
  6  5  2  0
  7  8  1  0
  7  2  1  0
  1 10  1  0
  5 11  1  0
  7 12  1  0
  7 13  1  0
  8 14  1  0
  8 15  1  0
  8 16  1  0
  9 17  1  0
M  ISO  8  10  14  11  14  12   8  13   8  14   8  15   8  16   8  17   3
M  END
>  <minimizedAffinity>  (1) 
-3.50076556

>  <minimizedRMSD>  (1) 
1.13490307

$$$$
