
     RDKit          3D

 19 19  0  0  0  0  0  0  0  0999 V2000
   45.2790   35.9760   43.1220 C   0  0  0  0  0  0  0  0  0  0  0  0
   46.1680   34.9110   42.9640 C   0  0  0  0  0  0  0  0  0  0  0  0
   46.2480   34.0670   44.0530 C   0  0  0  0  0  0  0  0  0  0  0  0
   45.5290   34.2400   45.1960 N   0  0  0  0  0  0  0  0  0  0  0  0
   44.6830   35.2980   45.2790 C   0  0  0  0  0  0  0  0  0  0  0  0
   44.5760   36.1340   44.2540 N   0  0  0  0  0  0  0  0  0  0  0  0
   46.9540   34.6440   41.8010 C   0  0  0  0  0  0  0  0  0  0  0  0
   48.2320   35.4460   41.8050 C   0  0  0  0  0  0  0  0  0  0  0  0
   47.0600   32.8830   44.1640 C   0  0  0  0  0  0  0  0  0  0  0  0
   47.1830   32.0350   45.0840 O   0  0  0  0  0  0  0  0  0  0  0  0
   47.9900   32.0580   43.5750 O   0  0  0  0  0  0  0  0  0  0  0  0
   45.1525   36.6993   42.3029 H   0  0  0  0  0  0  0  0  0  0  0  0
   44.0895   35.4616   46.1906 H   0  0  0  0  0  0  0  0  0  0  0  0
   46.3699   34.9057   40.9063 H   0  0  0  0  0  0  0  0  0  0  0  0
   47.2155   33.5755   41.7974 H   0  0  0  0  0  0  0  0  0  0  0  0
   48.5402   35.6394   42.8431 H   0  0  0  0  0  0  0  0  0  0  0  0
   49.0211   34.8809   41.2874 H   0  0  0  0  0  0  0  0  0  0  0  0
   48.0663   36.4024   41.2874 H   0  0  0  0  0  0  0  0  0  0  0  0
   48.3169   31.2572   44.0567 H   0  0  0  0  0  0  0  0  0  0  0  0
  1  6  2  0
  2  1  1  0
  2  3  2  0
  3  9  1  0
  3  4  1  0
  4  5  2  0
  6  5  1  0
  7  8  1  0
  7  2  1  0
  9 10  2  0
 11  9  1  0
  1 12  1  0
  5 13  1  0
  7 14  1  0
  7 15  1  0
  8 16  1  0
  8 17  1  0
  8 18  1  0
 11 19  1  0
M  ISO  8  12  14  13  14  14   8  15   8  16   8  17   8  18   8  19   3
M  END
>  <minimizedAffinity>  (1) 
-3.76321912

>  <minimizedRMSD>  (1) 
1.22466922

$$$$
