
     RDKit          3D

 17 17  0  0  0  0  0  0  0  0999 V2000
   45.3430   35.9850   43.0980 C   0  0  0  0  0  0  0  0  0  0  0  0
   46.1520   34.8450   42.9980 C   0  0  0  0  0  0  0  0  0  0  0  0
   46.1710   33.9840   44.0930 C   0  0  0  0  0  0  0  0  0  0  0  0
   45.4170   34.2850   45.1880 N   0  0  0  0  0  0  0  0  0  0  0  0
   44.6460   35.3970   45.2480 C   0  0  0  0  0  0  0  0  0  0  0  0
   44.6090   36.2440   44.2080 N   0  0  0  0  0  0  0  0  0  0  0  0
   46.9150   34.6170   41.7900 C   0  0  0  0  0  0  0  0  0  0  0  0
   48.1940   35.4290   41.8680 C   0  0  0  0  0  0  0  0  0  0  0  0
   47.1680   32.5240   44.0440 S   0  0  0  0  0  0  0  0  0  0  0  0
   45.3025   36.6884   42.2533 H   0  0  0  0  0  0  0  0  0  0  0  0
   44.0504   35.6056   46.1490 H   0  0  0  0  0  0  0  0  0  0  0  0
   46.3278   34.9328   40.9151 H   0  0  0  0  0  0  0  0  0  0  0  0
   47.1530   33.5476   41.6907 H   0  0  0  0  0  0  0  0  0  0  0  0
   48.4581   35.5967   42.9226 H   0  0  0  0  0  0  0  0  0  0  0  0
   49.0070   34.8813   41.3690 H   0  0  0  0  0  0  0  0  0  0  0  0
   48.0443   36.3978   41.3690 H   0  0  0  0  0  0  0  0  0  0  0  0
   47.4456   32.1175   45.3225 H   0  0  0  0  0  0  0  0  0  0  0  0
  1  6  2  0
  2  1  1  0
  2  3  2  0
  3  4  1  0
  4  5  2  0
  6  5  1  0
  7  8  1  0
  7  2  1  0
  9  3  1  0
  1 10  1  0
  5 11  1  0
  7 12  1  0
  7 13  1  0
  8 14  1  0
  8 15  1  0
  8 16  1  0
  9 17  1  0
M  ISO  8  10  14  11  14  12   8  13   8  14   8  15   8  16   8  17  11
M  END
>  <minimizedAffinity>  (1) 
-3.52049184

>  <minimizedRMSD>  (1) 
1.22556162

$$$$
