
     RDKit          3D

 18 18  0  0  0  0  0  0  0  0999 V2000
   45.3400   35.9500   43.1440 C   0  0  0  0  0  0  0  0  0  0  0  0
   46.2030   34.8530   43.0000 C   0  0  0  0  0  0  0  0  0  0  0  0
   46.2710   33.9690   44.0720 C   0  0  0  0  0  0  0  0  0  0  0  0
   45.5130   34.2120   45.1750 N   0  0  0  0  0  0  0  0  0  0  0  0
   44.6930   35.2880   45.2680 C   0  0  0  0  0  0  0  0  0  0  0  0
   44.6150   36.1440   44.2530 N   0  0  0  0  0  0  0  0  0  0  0  0
   46.9660   34.6850   41.7850 C   0  0  0  0  0  0  0  0  0  0  0  0
   48.2610   35.4660   41.8880 C   0  0  0  0  0  0  0  0  0  0  0  0
   47.1100   32.8430   44.0130 N   0  0  0  0  0  0  0  0  0  0  0  0
   45.2564   36.6736   42.3197 H   0  0  0  0  0  0  0  0  0  0  0  0
   44.0960   35.4519   46.1773 H   0  0  0  0  0  0  0  0  0  0  0  0
   46.3811   35.0564   40.9307 H   0  0  0  0  0  0  0  0  0  0  0  0
   47.1923   33.6184   41.6393 H   0  0  0  0  0  0  0  0  0  0  0  0
   48.5139   35.6185   42.9476 H   0  0  0  0  0  0  0  0  0  0  0  0
   49.0683   34.9040   41.3956 H   0  0  0  0  0  0  0  0  0  0  0  0
   48.1406   36.4422   41.3956 H   0  0  0  0  0  0  0  0  0  0  0  0
   47.1557   32.1924   44.8102 H   0  0  0  0  0  0  0  0  0  0  0  0
   47.6792   32.6684   43.1725 H   0  0  0  0  0  0  0  0  0  0  0  0
  1  6  2  0
  2  1  1  0
  2  3  2  0
  3  4  1  0
  4  5  2  0
  6  5  1  0
  7  8  1  0
  7  2  1  0
  9  3  1  0
  1 10  1  0
  5 11  1  0
  7 12  1  0
  7 13  1  0
  8 14  1  0
  8 15  1  0
  8 16  1  0
  9 17  1  0
  9 18  1  0
M  ISO  7  10  14  11  14  12   8  13   8  14   8  15   8  16   8
M  END
>  <minimizedAffinity>  (1) 
-3.53439736

>  <minimizedRMSD>  (1) 
1.12355471

$$$$
