
     RDKit          3D

 25 26  0  0  0  0  0  0  0  0999 V2000
   47.0260   32.8170   44.3140 C   0  0  0  0  0  0  0  0  0  0  0  0
   46.0150   34.8520   43.3550 C   0  0  0  0  0  0  0  0  0  0  0  0
   46.1450   33.9520   44.4220 C   0  0  0  0  0  0  0  0  0  0  0  0
   45.3870   34.2200   45.5580 C   0  0  0  0  0  0  0  0  0  0  0  0
   44.5810   35.3130   45.5740 N   0  0  0  0  0  0  0  0  0  0  0  0
   44.4840   36.1630   44.5120 C   0  0  0  0  0  0  0  0  0  0  0  0
   45.2060   35.9060   43.4330 N   0  0  0  0  0  0  0  0  0  0  0  0
   45.4500   33.3690   46.6830 N   0  0  0  0  0  0  0  0  0  0  0  0
   47.4320   32.6420   42.8570 C   0  0  0  0  0  0  0  0  0  0  0  0
   48.8630   32.8570   42.6180 C   0  0  0  0  0  0  0  0  0  0  0  0
   49.5780   34.0430   42.6760 C   0  0  0  0  0  0  0  0  0  0  0  0
   50.8790   33.6620   42.3630 C   0  0  0  0  0  0  0  0  0  0  0  0
   50.8780   32.2840   42.1370 C   0  0  0  0  0  0  0  0  0  0  0  0
   49.6480   31.8520   42.3020 O   0  0  0  0  0  0  0  0  0  0  0  0
   47.9223   32.9859   44.9289 H   0  0  0  0  0  0  0  0  0  0  0  0
   46.5111   31.9116   44.6678 H   0  0  0  0  0  0  0  0  0  0  0  0
   46.5934   34.6837   42.4346 H   0  0  0  0  0  0  0  0  0  0  0  0
   43.8220   37.0406   44.5512 H   0  0  0  0  0  0  0  0  0  0  0  0
   44.8846   33.5770   47.5184 H   0  0  0  0  0  0  0  0  0  0  0  0
   46.0614   32.5402   46.6682 H   0  0  0  0  0  0  0  0  0  0  0  0
   47.1770   31.6184   42.5451 H   0  0  0  0  0  0  0  0  0  0  0  0
   46.8894   33.4027   42.2766 H   0  0  0  0  0  0  0  0  0  0  0  0
   49.2043   35.0499   42.9138 H   0  0  0  0  0  0  0  0  0  0  0  0
   51.7527   34.3277   42.3041 H   0  0  0  0  0  0  0  0  0  0  0  0
   51.7505   31.6701   41.8689 H   0  0  0  0  0  0  0  0  0  0  0  0
  1  3  1  0
  2  7  2  0
  2  3  1  0
  3  4  2  0
  4  5  1  0
  4  8  1  0
  6  5  2  0
  7  6  1  0
  9  1  1  0
 10 11  2  0
 10  9  1  0
 12 11  1  0
 13 14  1  0
 13 12  2  0
 14 10  1  0
  1 15  1  0
  1 16  1  0
  2 17  1  0
  6 18  1  0
  8 19  1  0
  8 20  1  0
  9 21  1  0
  9 22  1  0
 11 23  1  0
 12 24  1  0
 13 25  1  0
M  ISO  8  15   8  16   8  17  14  18  14  21   8  22   8  23  14  24  14
M  ISO  1  25  14
M  END
>  <minimizedAffinity>  (1) 
-4.48974133

>  <minimizedRMSD>  (1) 
3.83603168

$$$$
