
     RDKit          3D

 23 24  0  0  0  0  0  0  0  0999 V2000
   45.4540   33.8100   45.9480 C   0  0  0  0  0  0  0  0  0  0  0  0
   46.9160   33.7370   43.9890 C   0  0  0  0  0  0  0  0  0  0  0  0
   45.7770   34.2380   44.6170 C   0  0  0  0  0  0  0  0  0  0  0  0
   45.0200   35.1360   43.8880 C   0  0  0  0  0  0  0  0  0  0  0  0
   45.4130   35.4800   42.6240 N   0  0  0  0  0  0  0  0  0  0  0  0
   46.5340   34.9610   42.0620 C   0  0  0  0  0  0  0  0  0  0  0  0
   47.2740   34.0980   42.7390 N   0  0  0  0  0  0  0  0  0  0  0  0
   43.8450   35.7000   44.4420 N   0  0  0  0  0  0  0  0  0  0  0  0
   46.5510   32.8860   46.4660 C   0  0  0  0  0  0  0  0  0  0  0  0
   45.9720   32.0770   47.5710 C   0  0  0  0  0  0  0  0  0  0  0  0
   45.4190   30.8540   47.4040 N   0  0  0  0  0  0  0  0  0  0  0  0
   44.9990   30.3910   48.5420 O   0  0  0  0  0  0  0  0  0  0  0  0
   45.2650   31.2950   49.4710 C   0  0  0  0  0  0  0  0  0  0  0  0
   45.8780   32.3620   48.8810 N   0  0  0  0  0  0  0  0  0  0  0  0
   44.4954   33.2707   45.9371 H   0  0  0  0  0  0  0  0  0  0  0  0
   45.3737   34.6880   46.6058 H   0  0  0  0  0  0  0  0  0  0  0  0
   47.5476   33.0195   44.5334 H   0  0  0  0  0  0  0  0  0  0  0  0
   46.8272   35.2577   41.0442 H   0  0  0  0  0  0  0  0  0  0  0  0
   43.2861   36.3684   43.8927 H   0  0  0  0  0  0  0  0  0  0  0  0
   43.5493   35.4418   45.3942 H   0  0  0  0  0  0  0  0  0  0  0  0
   46.8969   32.2245   45.6581 H   0  0  0  0  0  0  0  0  0  0  0  0
   47.4113   33.4703   46.8245 H   0  0  0  0  0  0  0  0  0  0  0  0
   45.0308   31.2018   50.5417 H   0  0  0  0  0  0  0  0  0  0  0  0
  1  9  1  0
  2  3  2  0
  3  1  1  0
  4  8  1  0
  4  3  1  0
  5  4  2  0
  6  5  1  0
  6  7  2  0
  7  2  1  0
  9 10  1  0
 10 14  1  0
 11 10  2  0
 11 12  1  0
 12 13  1  0
 14 13  2  0
  1 15  1  0
  1 16  1  0
  2 17  1  0
  6 18  1  0
  8 19  1  0
  8 20  1  0
  9 21  1  0
  9 22  1  0
 13 23  1  0
M  ISO  7  15   8  16   8  17  14  18  14  21   8  22   8  23  14
M  END
>  <minimizedAffinity>  (1) 
-4.72979403

>  <minimizedRMSD>  (1) 
6.37211132

$$$$
