
     RDKit          3D

 29 30  0  0  0  0  0  0  0  0999 V2000
   46.0250   34.9350   42.6260 C   0  0  0  0  0  0  0  0  0  0  0  0
   47.0070   33.1760   44.0810 C   0  0  0  0  0  0  0  0  0  0  0  0
   46.0550   34.2220   43.9290 C   0  0  0  0  0  0  0  0  0  0  0  0
   45.2270   34.4970   45.0220 C   0  0  0  0  0  0  0  0  0  0  0  0
   45.3780   33.7610   46.1460 N   0  0  0  0  0  0  0  0  0  0  0  0
   46.2940   32.7740   46.2530 C   0  0  0  0  0  0  0  0  0  0  0  0
   47.1070   32.4820   45.2250 N   0  0  0  0  0  0  0  0  0  0  0  0
   47.4160   35.3530   42.2530 C   0  0  0  0  0  0  0  0  0  0  0  0
   45.1290   36.1390   42.7520 C   0  0  0  0  0  0  0  0  0  0  0  0
   45.4080   34.0280   41.5870 C   0  0  0  0  0  0  0  0  0  0  0  0
   44.0280   34.3250   41.3190 N   0  0  0  0  0  0  0  0  0  0  0  0
   43.4150   35.3620   40.7160 C   0  0  0  0  0  0  0  0  0  0  0  0
   42.0560   35.1140   40.7400 C   0  0  0  0  0  0  0  0  0  0  0  0
   41.8160   33.9310   41.3540 N   0  0  0  0  0  0  0  0  0  0  0  0
   43.0470   33.4640   41.7010 C   0  0  0  0  0  0  0  0  0  0  0  0
   47.6756   32.9308   43.2426 H   0  0  0  0  0  0  0  0  0  0  0  0
   44.4704   35.2937   44.9684 H   0  0  0  0  0  0  0  0  0  0  0  0
   46.3746   32.2044   47.1906 H   0  0  0  0  0  0  0  0  0  0  0  0
   48.0032   35.5294   43.1663 H   0  0  0  0  0  0  0  0  0  0  0  0
   47.8911   34.5579   41.6595 H   0  0  0  0  0  0  0  0  0  0  0  0
   47.3741   36.2782   41.6595 H   0  0  0  0  0  0  0  0  0  0  0  0
   44.9627   36.3625   43.8161 H   0  0  0  0  0  0  0  0  0  0  0  0
   45.6055   37.0031   42.2659 H   0  0  0  0  0  0  0  0  0  0  0  0
   44.1644   35.9307   42.2659 H   0  0  0  0  0  0  0  0  0  0  0  0
   45.9757   34.1332   40.6507 H   0  0  0  0  0  0  0  0  0  0  0  0
   45.4489   33.0031   41.9845 H   0  0  0  0  0  0  0  0  0  0  0  0
   43.9070   36.2456   40.2832 H   0  0  0  0  0  0  0  0  0  0  0  0
   41.2845   35.7780   40.3229 H   0  0  0  0  0  0  0  0  0  0  0  0
   43.2252   32.5124   42.2233 H   0  0  0  0  0  0  0  0  0  0  0  0
  1  9  1  0
  1  3  1  0
  2  7  2  0
  3  2  1  0
  3  4  2  0
  4  5  1  0
  5  6  2  0
  7  6  1  0
  8  1  1  0
 10  1  1  0
 11 10  1  0
 11 15  1  0
 12 13  2  0
 12 11  1  0
 13 14  1  0
 14 15  2  0
  2 16  1  0
  4 17  1  0
  6 18  1  0
  8 19  1  0
  8 20  1  0
  8 21  1  0
  9 22  1  0
  9 23  1  0
  9 24  1  0
 10 25  1  0
 10 26  1  0
 12 27  1  0
 13 28  1  0
 15 29  1  0
M  ISO  8  16  14  17  14  18  14  19   8  20   8  21   8  22   8  23   8
M  ISO  6  24   8  25   8  26   8  27  14  28  14  29  14
M  END
>  <minimizedAffinity>  (1) 
-4.02451658

>  <minimizedRMSD>  (1) 
2.88707829

$$$$
