
     RDKit          3D

 34 35  0  0  0  0  0  0  0  0999 V2000
   45.8160   33.8090   43.1990 C   0  0  0  0  0  0  0  0  0  0  0  0
   43.8450   32.9560   41.9830 C   0  0  0  0  0  0  0  0  0  0  0  0
   44.5430   34.0290   42.5470 C   0  0  0  0  0  0  0  0  0  0  0  0
   43.9570   35.2800   42.4430 C   0  0  0  0  0  0  0  0  0  0  0  0
   42.7540   35.4050   41.8120 N   0  0  0  0  0  0  0  0  0  0  0  0
   42.1240   34.3250   41.2850 C   0  0  0  0  0  0  0  0  0  0  0  0
   42.6590   33.1210   41.3690 N   0  0  0  0  0  0  0  0  0  0  0  0
   44.5840   36.4200   42.9800 N   0  0  0  0  0  0  0  0  0  0  0  0
   46.6310   32.8180   42.4030 C   0  0  0  0  0  0  0  0  0  0  0  0
   47.8580   33.4630   41.7860 C   0  0  0  0  0  0  0  0  0  0  0  0
   47.3680   34.5560   40.8820 C   0  0  0  0  0  0  0  0  0  0  0  0
   48.6290   35.2190   40.3170 C   0  0  0  0  0  0  0  0  0  0  0  0
   49.1970   35.9960   41.4790 C   0  0  0  0  0  0  0  0  0  0  0  0
   49.6080   35.0980   42.5810 C   0  0  0  0  0  0  0  0  0  0  0  0
   48.7640   33.9260   42.8790 C   0  0  0  0  0  0  0  0  0  0  0  0
   46.3621   34.7616   43.2658 H   0  0  0  0  0  0  0  0  0  0  0  0
   45.6436   33.4104   44.2096 H   0  0  0  0  0  0  0  0  0  0  0  0
   44.2787   31.9469   42.0432 H   0  0  0  0  0  0  0  0  0  0  0  0
   41.1548   34.4543   40.7812 H   0  0  0  0  0  0  0  0  0  0  0  0
   44.1351   37.3431   42.8943 H   0  0  0  0  0  0  0  0  0  0  0  0
   45.4917   36.3312   43.4587 H   0  0  0  0  0  0  0  0  0  0  0  0
   46.9537   32.0052   43.0702 H   0  0  0  0  0  0  0  0  0  0  0  0
   46.0004   32.4339   41.5876 H   0  0  0  0  0  0  0  0  0  0  0  0
   48.4566   32.7682   41.1786 H   0  0  0  0  0  0  0  0  0  0  0  0
   46.7572   34.1369   40.0688 H   0  0  0  0  0  0  0  0  0  0  0  0
   46.7352   35.2769   41.4205 H   0  0  0  0  0  0  0  0  0  0  0  0
   49.3452   34.4601   39.9689 H   0  0  0  0  0  0  0  0  0  0  0  0
   48.4130   35.8599   39.4495 H   0  0  0  0  0  0  0  0  0  0  0  0
   50.0737   36.5644   41.1349 H   0  0  0  0  0  0  0  0  0  0  0  0
   48.4164   36.6725   41.8571 H   0  0  0  0  0  0  0  0  0  0  0  0
   50.6128   34.7224   42.3376 H   0  0  0  0  0  0  0  0  0  0  0  0
   49.5331   35.7231   43.4830 H   0  0  0  0  0  0  0  0  0  0  0  0
   48.1382   34.1770   43.7482 H   0  0  0  0  0  0  0  0  0  0  0  0
   49.4663   33.0961   43.0465 H   0  0  0  0  0  0  0  0  0  0  0  0
  2  3  2  0
  3  1  1  0
  4  3  1  0
  4  8  1  0
  5  4  2  0
  6  7  2  0
  6  5  1  0
  7  2  1  0
  9  1  1  0
 10  9  1  0
 10 15  1  0
 11 10  1  0
 12 11  1  0
 12 13  1  0
 13 14  1  0
 14 15  1  0
  1 16  1  0
  1 17  1  0
  2 18  1  0
  6 19  1  0
  8 20  1  0
  8 21  1  0
  9 22  1  0
  9 23  1  0
 10 24  1  0
 11 25  1  0
 11 26  1  0
 12 27  1  0
 12 28  1  0
 13 29  1  0
 13 30  1  0
 14 31  1  0
 14 32  1  0
 15 33  1  0
 15 34  1  0
M  ISO  8  16   8  17   8  18  14  19  14  22   8  23   8  24  13  25  13
M  ISO  8  26  13  27  13  28  13  29  13  30  13  31  13  32  13  33  13
M  ISO  1  34  13
M  END
>  <minimizedAffinity>  (1) 
-4.67462301

>  <minimizedRMSD>  (1) 
3.47132277

$$$$
