
     RDKit          3D

 28 29  0  0  0  0  0  0  0  0999 V2000
   45.1900   34.4550   42.4780 C   0  0  0  0  0  0  0  0  0  0  0  0
   45.1540   34.3400   44.9530 C   0  0  0  0  0  0  0  0  0  0  0  0
   45.7490   33.8800   43.7400 C   0  0  0  0  0  0  0  0  0  0  0  0
   46.7730   32.9550   43.8510 C   0  0  0  0  0  0  0  0  0  0  0  0
   47.1510   32.5430   45.0900 N   0  0  0  0  0  0  0  0  0  0  0  0
   46.5630   33.0030   46.2230 C   0  0  0  0  0  0  0  0  0  0  0  0
   45.5700   33.8980   46.1500 N   0  0  0  0  0  0  0  0  0  0  0  0
   46.3120   34.4680   41.4480 C   0  0  0  0  0  0  0  0  0  0  0  0
   44.7470   35.8700   42.7350 C   0  0  0  0  0  0  0  0  0  0  0  0
   44.0320   33.6320   42.0330 C   0  0  0  0  0  0  0  0  0  0  0  0
   43.1150   34.3640   41.1930 N   0  0  0  0  0  0  0  0  0  0  0  0
   42.0080   35.0690   41.4580 C   0  0  0  0  0  0  0  0  0  0  0  0
   41.4750   35.5840   40.3330 N   0  0  0  0  0  0  0  0  0  0  0  0
   42.2890   35.1770   39.3360 C   0  0  0  0  0  0  0  0  0  0  0  0
   43.2590   34.4500   39.8800 N   0  0  0  0  0  0  0  0  0  0  0  0
   44.3357   35.0736   44.9057 H   0  0  0  0  0  0  0  0  0  0  0  0
   47.2715   32.5607   42.9532 H   0  0  0  0  0  0  0  0  0  0  0  0
   46.9030   32.6396   47.2040 H   0  0  0  0  0  0  0  0  0  0  0  0
   47.2834   34.4793   41.9641 H   0  0  0  0  0  0  0  0  0  0  0  0
   46.2419   33.5690   40.8180 H   0  0  0  0  0  0  0  0  0  0  0  0
   46.2211   35.3652   40.8180 H   0  0  0  0  0  0  0  0  0  0  0  0
   44.6920   36.0457   43.8195 H   0  0  0  0  0  0  0  0  0  0  0  0
   45.4697   36.5676   42.2867 H   0  0  0  0  0  0  0  0  0  0  0  0
   43.7555   36.0310   42.2867 H   0  0  0  0  0  0  0  0  0  0  0  0
   44.4116   32.7674   41.4687 H   0  0  0  0  0  0  0  0  0  0  0  0
   43.4809   33.3221   42.9331 H   0  0  0  0  0  0  0  0  0  0  0  0
   41.5878   35.2096   42.4648 H   0  0  0  0  0  0  0  0  0  0  0  0
   42.1706   35.4058   38.2666 H   0  0  0  0  0  0  0  0  0  0  0  0
  1  9  1  0
  1  3  1  0
  2  7  2  0
  3  4  2  0
  3  2  1  0
  4  5  1  0
  5  6  2  0
  7  6  1  0
  8  1  1  0
 10  1  1  0
 11 12  1  0
 11 10  1  0
 13 12  2  0
 14 15  2  0
 14 13  1  0
 15 11  1  0
  2 16  1  0
  4 17  1  0
  6 18  1  0
  8 19  1  0
  8 20  1  0
  8 21  1  0
  9 22  1  0
  9 23  1  0
  9 24  1  0
 10 25  1  0
 10 26  1  0
 12 27  1  0
 14 28  1  0
M  ISO  8  16  14  17  14  18  14  19   8  20   8  21   8  22   8  23   8
M  ISO  5  24   8  25   8  26   8  27  14  28  14
M  END
>  <minimizedAffinity>  (1) 
-3.92246175

>  <minimizedRMSD>  (1) 
1.60957813

$$$$
