
     RDKit          3D

 25 26  0  0  0  0  0  0  0  0999 V2000
   45.7390   33.6240   41.8060 C   0  0  0  0  0  0  0  0  0  0  0  0
   44.7960   35.4450   43.1780 C   0  0  0  0  0  0  0  0  0  0  0  0
   45.3940   34.1680   43.0900 C   0  0  0  0  0  0  0  0  0  0  0  0
   45.6150   33.5090   44.2910 C   0  0  0  0  0  0  0  0  0  0  0  0
   45.2530   34.1100   45.4660 N   0  0  0  0  0  0  0  0  0  0  0  0
   44.6800   35.3390   45.4960 C   0  0  0  0  0  0  0  0  0  0  0  0
   44.4610   35.9890   44.3460 N   0  0  0  0  0  0  0  0  0  0  0  0
   46.2070   32.2340   44.2880 N   0  0  0  0  0  0  0  0  0  0  0  0
   46.9950   34.3230   41.2920 C   0  0  0  0  0  0  0  0  0  0  0  0
   47.2070   34.0760   39.8940 N   0  0  0  0  0  0  0  0  0  0  0  0
   46.5190   33.3710   39.0090 N   0  0  0  0  0  0  0  0  0  0  0  0
   47.1250   33.4440   37.8170 C   0  0  0  0  0  0  0  0  0  0  0  0
   48.2690   34.2330   37.9160 C   0  0  0  0  0  0  0  0  0  0  0  0
   48.2760   34.6100   39.2550 C   0  0  0  0  0  0  0  0  0  0  0  0
   45.9303   32.5450   41.9018 H   0  0  0  0  0  0  0  0  0  0  0  0
   44.9102   33.7821   41.1002 H   0  0  0  0  0  0  0  0  0  0  0  0
   44.6012   36.0072   42.2528 H   0  0  0  0  0  0  0  0  0  0  0  0
   44.3980   35.7972   46.4555 H   0  0  0  0  0  0  0  0  0  0  0  0
   46.3729   31.7411   45.1771 H   0  0  0  0  0  0  0  0  0  0  0  0
   46.4748   31.7926   43.3967 H   0  0  0  0  0  0  0  0  0  0  0  0
   46.8899   35.4064   41.4504 H   0  0  0  0  0  0  0  0  0  0  0  0
   47.8588   33.9251   41.8448 H   0  0  0  0  0  0  0  0  0  0  0  0
   46.7723   32.9543   36.8973 H   0  0  0  0  0  0  0  0  0  0  0  0
   48.9905   34.4941   37.1278 H   0  0  0  0  0  0  0  0  0  0  0  0
   49.0379   35.2483   39.7262 H   0  0  0  0  0  0  0  0  0  0  0  0
  1  3  1  0
  2  7  2  0
  3  2  1  0
  3  4  2  0
  4  5  1  0
  5  6  2  0
  7  6  1  0
  8  4  1  0
  9  1  1  0
 10  9  1  0
 11 10  1  0
 12 13  1  0
 12 11  2  0
 13 14  2  0
 14 10  1  0
  1 15  1  0
  1 16  1  0
  2 17  1  0
  6 18  1  0
  8 19  1  0
  8 20  1  0
  9 21  1  0
  9 22  1  0
 12 23  1  0
 13 24  1  0
 14 25  1  0
M  ISO  8  15   8  16   8  17  14  18  14  21   8  22   8  23  14  24  14
M  ISO  1  25  14
M  END
>  <minimizedAffinity>  (1) 
-3.71259618

>  <minimizedRMSD>  (1) 
1.93836319

$$$$
