
     RDKit          3D

 24 25  0  0  0  0  0  0  0  0999 V2000
   45.1180   35.8330   43.2680 C   0  0  0  0  0  0  0  0  0  0  0  0
   46.0250   34.7830   43.0670 C   0  0  0  0  0  0  0  0  0  0  0  0
   46.2560   33.9430   44.1440 C   0  0  0  0  0  0  0  0  0  0  0  0
   45.6030   34.1790   45.3140 N   0  0  0  0  0  0  0  0  0  0  0  0
   44.7350   35.2020   45.4700 C   0  0  0  0  0  0  0  0  0  0  0  0
   44.4910   36.0320   44.4450 N   0  0  0  0  0  0  0  0  0  0  0  0
   46.6490   34.6410   41.7830 C   0  0  0  0  0  0  0  0  0  0  0  0
   48.0000   35.3500   41.7890 C   0  0  0  0  0  0  0  0  0  0  0  0
   49.0300   34.3020   41.8000 N   0  0  0  0  0  0  0  0  0  0  0  0
   49.0660   33.2560   40.9290 C   0  0  0  0  0  0  0  0  0  0  0  0
   50.1620   32.5140   41.2630 N   0  0  0  0  0  0  0  0  0  0  0  0
   50.7480   33.1220   42.3100 C   0  0  0  0  0  0  0  0  0  0  0  0
   50.0580   34.2350   42.6580 N   0  0  0  0  0  0  0  0  0  0  0  0
   47.1470   32.8700   44.0280 N   0  0  0  0  0  0  0  0  0  0  0  0
   44.9101   36.5201   42.4345 H   0  0  0  0  0  0  0  0  0  0  0  0
   44.2295   35.3541   46.4351 H   0  0  0  0  0  0  0  0  0  0  0  0
   46.0046   35.0877   41.0115 H   0  0  0  0  0  0  0  0  0  0  0  0
   46.7980   33.5731   41.5655 H   0  0  0  0  0  0  0  0  0  0  0  0
   48.1042   35.9738   40.8890 H   0  0  0  0  0  0  0  0  0  0  0  0
   48.0967   36.0073   42.6657 H   0  0  0  0  0  0  0  0  0  0  0  0
   48.3531   33.0498   40.1171 H   0  0  0  0  0  0  0  0  0  0  0  0
   51.6591   32.7658   42.8129 H   0  0  0  0  0  0  0  0  0  0  0  0
   47.3137   32.2497   44.8332 H   0  0  0  0  0  0  0  0  0  0  0  0
   47.6361   32.7007   43.1375 H   0  0  0  0  0  0  0  0  0  0  0  0
  1  6  2  0
  2  1  1  0
  2  3  2  0
  3  4  1  0
  4  5  2  0
  6  5  1  0
  7  8  1  0
  7  2  1  0
  8  9  1  0
  9 13  1  0
 10 11  2  0
 10  9  1  0
 11 12  1  0
 12 13  2  0
 14  3  1  0
  1 15  1  0
  5 16  1  0
  7 17  1  0
  7 18  1  0
  8 19  1  0
  8 20  1  0
 10 21  1  0
 12 22  1  0
 14 23  1  0
 14 24  1  0
M  ISO  8  15  14  16  14  17   8  18   8  19   8  20   8  21  14  22  14
M  END
>  <minimizedAffinity>  (1) 
-4.25244045

>  <minimizedRMSD>  (1) 
1.8981905

$$$$
