
     RDKit          3D

 25 26  0  0  0  0  0  0  0  0999 V2000
   45.6510   35.7820   42.9130 C   0  0  0  0  0  0  0  0  0  0  0  0
   45.9420   34.4360   43.2050 C   0  0  0  0  0  0  0  0  0  0  0  0
   45.4900   33.9650   44.4220 C   0  0  0  0  0  0  0  0  0  0  0  0
   44.8050   34.8010   45.2580 N   0  0  0  0  0  0  0  0  0  0  0  0
   44.5490   36.0980   44.9290 C   0  0  0  0  0  0  0  0  0  0  0  0
   44.9820   36.5690   43.7490 N   0  0  0  0  0  0  0  0  0  0  0  0
   46.6660   33.6370   42.2590 C   0  0  0  0  0  0  0  0  0  0  0  0
   47.6260   34.4970   41.4850 C   0  0  0  0  0  0  0  0  0  0  0  0
   47.4780   34.1290   40.0450 C   0  0  0  0  0  0  0  0  0  0  0  0
   48.3060   34.5370   38.9930 C   0  0  0  0  0  0  0  0  0  0  0  0
   47.9830   34.0810   37.7620 C   0  0  0  0  0  0  0  0  0  0  0  0
   46.8650   33.2470   37.6220 C   0  0  0  0  0  0  0  0  0  0  0  0
   46.2440   33.0990   39.2910 S   0  0  0  0  0  0  0  0  0  0  0  0
   45.7380   32.6330   44.7970 N   0  0  0  0  0  0  0  0  0  0  0  0
   45.9912   36.1993   41.9538 H   0  0  0  0  0  0  0  0  0  0  0  0
   43.9953   36.7500   45.6206 H   0  0  0  0  0  0  0  0  0  0  0  0
   47.2268   32.8572   42.7950 H   0  0  0  0  0  0  0  0  0  0  0  0
   45.9545   33.1726   41.5604 H   0  0  0  0  0  0  0  0  0  0  0  0
   47.3827   35.5599   41.6303 H   0  0  0  0  0  0  0  0  0  0  0  0
   48.6593   34.3377   41.8268 H   0  0  0  0  0  0  0  0  0  0  0  0
   49.1730   35.1934   39.1589 H   0  0  0  0  0  0  0  0  0  0  0  0
   48.5868   34.3595   36.8857 H   0  0  0  0  0  0  0  0  0  0  0  0
   46.4653   32.7921   36.7037 H   0  0  0  0  0  0  0  0  0  0  0  0
   45.4007   32.2822   45.7048 H   0  0  0  0  0  0  0  0  0  0  0  0
   46.2570   32.0079   44.1640 H   0  0  0  0  0  0  0  0  0  0  0  0
  1  2  2  0
  1  6  1  0
  2  3  1  0
  3 14  1  0
  3  4  2  0
  5  4  1  0
  6  5  2  0
  7  2  1  0
  8  7  1  0
  9  8  1  0
 10  9  2  0
 11 10  1  0
 12 11  2  0
 12 13  1  0
 13  9  1  0
  1 15  1  0
  5 16  1  0
  7 17  1  0
  7 18  1  0
  8 19  1  0
  8 20  1  0
 10 21  1  0
 11 22  1  0
 12 23  1  0
 14 24  1  0
 14 25  1  0
M  ISO  8  15  14  16  14  17   8  18   8  19   8  20   8  21  14  22  14
M  ISO  1  23  14
M  END
>  <minimizedAffinity>  (1) 
-4.04907179

>  <minimizedRMSD>  (1) 
1.89366138

$$$$
