
     RDKit          3D

 25 26  0  0  0  0  0  0  0  0999 V2000
   46.0340   34.5790   41.5750 C   0  0  0  0  0  0  0  0  0  0  0  0
   45.0470   36.0190   43.2980 C   0  0  0  0  0  0  0  0  0  0  0  0
   45.5940   34.7780   42.9270 C   0  0  0  0  0  0  0  0  0  0  0  0
   45.6710   33.8130   43.9130 C   0  0  0  0  0  0  0  0  0  0  0  0
   45.2200   34.1200   45.1630 N   0  0  0  0  0  0  0  0  0  0  0  0
   44.7010   35.3200   45.4860 C   0  0  0  0  0  0  0  0  0  0  0  0
   44.6150   36.2730   44.5460 N   0  0  0  0  0  0  0  0  0  0  0  0
   46.2020   32.5490   43.6350 N   0  0  0  0  0  0  0  0  0  0  0  0
   47.5130   34.9390   41.4720 C   0  0  0  0  0  0  0  0  0  0  0  0
   48.0980   34.1060   40.3950 C   0  0  0  0  0  0  0  0  0  0  0  0
   47.9370   34.0420   39.0260 C   0  0  0  0  0  0  0  0  0  0  0  0
   48.7470   33.0610   38.4980 C   0  0  0  0  0  0  0  0  0  0  0  0
   49.3870   32.5450   39.5740 N   0  0  0  0  0  0  0  0  0  0  0  0
   49.0090   33.1590   40.6940 N   0  0  0  0  0  0  0  0  0  0  0  0
   45.8910   33.5255   41.2926 H   0  0  0  0  0  0  0  0  0  0  0  0
   45.4493   35.2187   40.8976 H   0  0  0  0  0  0  0  0  0  0  0  0
   44.9695   36.8116   42.5392 H   0  0  0  0  0  0  0  0  0  0  0  0
   44.3512   35.5166   46.5102 H   0  0  0  0  0  0  0  0  0  0  0  0
   46.2543   31.8376   44.3780 H   0  0  0  0  0  0  0  0  0  0  0  0
   46.5406   32.3297   42.6873 H   0  0  0  0  0  0  0  0  0  0  0  0
   47.6241   36.0051   41.2251 H   0  0  0  0  0  0  0  0  0  0  0  0
   48.0252   34.7539   42.4277 H   0  0  0  0  0  0  0  0  0  0  0  0
   47.2598   34.6818   38.4411 H   0  0  0  0  0  0  0  0  0  0  0  0
   48.8503   32.7646   37.4437 H   0  0  0  0  0  0  0  0  0  0  0  0
   50.0748   31.7794   39.5320 H   0  0  0  0  0  0  0  0  0  0  0  0
  1  3  1  0
  2  7  2  0
  3  2  1  0
  3  4  2  0
  4  5  1  0
  5  6  2  0
  7  6  1  0
  8  4  1  0
  9  1  1  0
 10 14  2  0
 10  9  1  0
 11 10  1  0
 12 11  2  0
 12 13  1  0
 13 14  1  0
  1 15  1  0
  1 16  1  0
  2 17  1  0
  6 18  1  0
  8 19  1  0
  8 20  1  0
  9 21  1  0
  9 22  1  0
 11 23  1  0
 12 24  1  0
 13 25  1  0
M  ISO  8  15   8  16   8  17  14  18  14  21   8  22   8  23  14  24  14
M  ISO  1  25   9
M  END
>  <minimizedAffinity>  (1) 
-4.19331932

>  <minimizedRMSD>  (1) 
1.34130442

$$$$
