
     RDKit          3D

 25 26  0  0  0  0  0  0  0  0999 V2000
   45.2300   35.8960   43.2690 C   0  0  0  0  0  0  0  0  0  0  0  0
   46.0350   34.7690   43.1130 C   0  0  0  0  0  0  0  0  0  0  0  0
   46.1260   33.9130   44.1930 C   0  0  0  0  0  0  0  0  0  0  0  0
   45.4410   34.2000   45.3420 N   0  0  0  0  0  0  0  0  0  0  0  0
   44.6640   35.3180   45.4490 C   0  0  0  0  0  0  0  0  0  0  0  0
   44.5610   36.1590   44.4140 N   0  0  0  0  0  0  0  0  0  0  0  0
   46.7150   34.5460   41.8700 C   0  0  0  0  0  0  0  0  0  0  0  0
   47.9840   35.3720   41.8230 C   0  0  0  0  0  0  0  0  0  0  0  0
   49.0860   34.3990   41.8940 N   0  0  0  0  0  0  0  0  0  0  0  0
   49.0990   33.2250   41.2270 C   0  0  0  0  0  0  0  0  0  0  0  0
   50.2500   32.5060   41.4740 C   0  0  0  0  0  0  0  0  0  0  0  0
   50.9380   33.3020   42.3250 N   0  0  0  0  0  0  0  0  0  0  0  0
   50.2320   34.4210   42.5650 C   0  0  0  0  0  0  0  0  0  0  0  0
   46.9210   32.7500   44.1160 N   0  0  0  0  0  0  0  0  0  0  0  0
   45.1353   36.5987   42.4280 H   0  0  0  0  0  0  0  0  0  0  0  0
   44.1240   35.5264   46.3844 H   0  0  0  0  0  0  0  0  0  0  0  0
   46.9699   33.4798   41.7795 H   0  0  0  0  0  0  0  0  0  0  0  0
   46.0582   34.8423   41.0388 H   0  0  0  0  0  0  0  0  0  0  0  0
   48.0360   35.9447   40.8853 H   0  0  0  0  0  0  0  0  0  0  0  0
   48.0283   36.1013   42.6453 H   0  0  0  0  0  0  0  0  0  0  0  0
   48.2890   32.8830   40.5660 H   0  0  0  0  0  0  0  0  0  0  0  0
   50.5390   31.5224   41.0752 H   0  0  0  0  0  0  0  0  0  0  0  0
   50.5577   35.2392   43.2241 H   0  0  0  0  0  0  0  0  0  0  0  0
   46.9849   32.1154   44.9248 H   0  0  0  0  0  0  0  0  0  0  0  0
   47.4375   32.5355   43.2510 H   0  0  0  0  0  0  0  0  0  0  0  0
  1  6  2  0
  2  1  1  0
  2  3  2  0
  3  4  1  0
  4  5  2  0
  6  5  1  0
  7  2  1  0
  8  7  1  0
  8  9  1  0
  9 13  1  0
 10 11  2  0
 10  9  1  0
 11 12  1  0
 12 13  2  0
 14  3  1  0
  1 15  1  0
  5 16  1  0
  7 17  1  0
  7 18  1  0
  8 19  1  0
  8 20  1  0
 10 21  1  0
 11 22  1  0
 13 23  1  0
 14 24  1  0
 14 25  1  0
M  ISO  8  15  14  16  14  17   8  18   8  19   8  20   8  21  14  22  14
M  ISO  1  23  14
M  END
>  <minimizedAffinity>  (1) 
-4.30997133

>  <minimizedRMSD>  (1) 
1.93993783

$$$$
