
     RDKit          3D

 19 19  0  0  0  0  0  0  0  0999 V2000
   45.4060   35.8900   43.0700 C   0  0  0  0  0  0  0  0  0  0  0  0
   46.2650   34.7680   43.0390 C   0  0  0  0  0  0  0  0  0  0  0  0
   46.2620   33.9640   44.1630 C   0  0  0  0  0  0  0  0  0  0  0  0
   45.4630   34.2800   45.2050 N   0  0  0  0  0  0  0  0  0  0  0  0
   44.6550   35.3690   45.1890 C   0  0  0  0  0  0  0  0  0  0  0  0
   44.6340   36.1650   44.1180 N   0  0  0  0  0  0  0  0  0  0  0  0
   47.0820   34.5170   41.8770 C   0  0  0  0  0  0  0  0  0  0  0  0
   48.2480   35.4950   41.8720 C   0  0  0  0  0  0  0  0  0  0  0  0
   49.7500   34.6810   42.4470 S   0  0  0  0  0  0  0  0  0  0  0  0
   47.0870   32.8230   44.2210 N   0  0  0  0  0  0  0  0  0  0  0  0
   45.3747   36.5590   42.1974 H   0  0  0  0  0  0  0  0  0  0  0  0
   44.0183   35.5957   46.0569 H   0  0  0  0  0  0  0  0  0  0  0  0
   47.4650   33.4864   41.9108 H   0  0  0  0  0  0  0  0  0  0  0  0
   46.4819   34.6488   40.9646 H   0  0  0  0  0  0  0  0  0  0  0  0
   48.4056   35.8665   40.8487 H   0  0  0  0  0  0  0  0  0  0  0  0
   48.0150   36.3329   42.5455 H   0  0  0  0  0  0  0  0  0  0  0  0
   49.7683   34.6711   43.8168 H   0  0  0  0  0  0  0  0  0  0  0  0
   47.0821   32.2261   45.0604 H   0  0  0  0  0  0  0  0  0  0  0  0
   47.6949   32.5859   43.4240 H   0  0  0  0  0  0  0  0  0  0  0  0
  1  6  2  0
  2  1  1  0
  2  3  2  0
  3 10  1  0
  3  4  1  0
  5  4  2  0
  6  5  1  0
  7  2  1  0
  8  7  1  0
  8  9  1  0
  1 11  1  0
  5 12  1  0
  7 13  1  0
  7 14  1  0
  8 15  1  0
  8 16  1  0
  9 17  1  0
 10 18  1  0
 10 19  1  0
M  ISO  7  11  14  12  14  13   8  14   8  15   8  16   8  17  11
M  END
>  <minimizedAffinity>  (1) 
-3.5498178

>  <minimizedRMSD>  (1) 
0.346247673

$$$$
