
     RDKit          3D

 20 20  0  0  0  0  0  0  0  0999 V2000
   45.3860   35.8670   43.1330 C   0  0  0  0  0  0  0  0  0  0  0  0
   46.2270   34.7340   43.1430 C   0  0  0  0  0  0  0  0  0  0  0  0
   46.1960   33.9610   44.3040 C   0  0  0  0  0  0  0  0  0  0  0  0
   45.3760   34.3390   45.3290 N   0  0  0  0  0  0  0  0  0  0  0  0
   44.5890   35.4320   45.2730 C   0  0  0  0  0  0  0  0  0  0  0  0
   44.6080   36.1840   44.1660 N   0  0  0  0  0  0  0  0  0  0  0  0
   47.0430   34.4370   42.0030 C   0  0  0  0  0  0  0  0  0  0  0  0
   48.3260   35.2600   42.0790 C   0  0  0  0  0  0  0  0  0  0  0  0
   49.2850   34.6680   42.9620 N   0  0  0  0  0  0  0  0  0  0  0  0
   47.0050   32.8200   44.3910 N   0  0  0  0  0  0  0  0  0  0  0  0
   45.3727   36.5106   42.2410 H   0  0  0  0  0  0  0  0  0  0  0  0
   43.9429   35.7010   46.1217 H   0  0  0  0  0  0  0  0  0  0  0  0
   46.4965   34.6909   41.0827 H   0  0  0  0  0  0  0  0  0  0  0  0
   47.2903   33.3652   41.9935 H   0  0  0  0  0  0  0  0  0  0  0  0
   48.7643   35.3302   41.0725 H   0  0  0  0  0  0  0  0  0  0  0  0
   48.0709   36.2564   42.4691 H   0  0  0  0  0  0  0  0  0  0  0  0
   49.0053   34.8406   43.9382 H   0  0  0  0  0  0  0  0  0  0  0  0
   49.3280   33.6531   42.7915 H   0  0  0  0  0  0  0  0  0  0  0  0
   46.9902   32.2419   45.2434 H   0  0  0  0  0  0  0  0  0  0  0  0
   47.6144   32.5595   43.6026 H   0  0  0  0  0  0  0  0  0  0  0  0
  1  2  2  0
  1  6  1  0
  2  3  1  0
  3 10  1  0
  3  4  2  0
  5  4  1  0
  6  5  2  0
  7  8  1  0
  7  2  1  0
  8  9  1  0
  1 11  1  0
  5 12  1  0
  7 13  1  0
  7 14  1  0
  8 15  1  0
  8 16  1  0
  9 17  1  0
  9 18  1  0
 10 19  1  0
 10 20  1  0
M  ISO  8  11  14  12  14  13   8  14   8  15   8  16   8  17   5  18   5
M  END
>  <minimizedAffinity>  (1) 
-3.61533093

>  <minimizedRMSD>  (1) 
0.269493401

$$$$
