
     RDKit          3D

 35 37  0  0  0  0  0  0  0  0999 V2000
   44.9810   33.6000   40.6540 C   0  0  0  0  0  0  0  0  0  0  0  0
   44.7950   34.4910   41.8260 C   0  0  0  0  0  0  0  0  0  0  0  0
   45.7830   34.6250   42.7900 C   0  0  0  0  0  0  0  0  0  0  0  0
   45.3310   35.4900   43.7200 N   0  0  0  0  0  0  0  0  0  0  0  0
   44.0830   35.9050   43.3640 C   0  0  0  0  0  0  0  0  0  0  0  0
   43.7640   35.2840   42.2000 N   0  0  0  0  0  0  0  0  0  0  0  0
   42.6150   35.3050   41.3390 C   0  0  0  0  0  0  0  0  0  0  0  0
   42.9930   35.2970   40.0000 C   0  0  0  0  0  0  0  0  0  0  0  0
   42.0110   35.3150   39.0080 C   0  0  0  0  0  0  0  0  0  0  0  0
   40.6920   35.3420   39.3890 C   0  0  0  0  0  0  0  0  0  0  0  0
   40.3370   35.3500   40.7190 C   0  0  0  0  0  0  0  0  0  0  0  0
   41.2890   35.3320   41.7120 C   0  0  0  0  0  0  0  0  0  0  0  0
   46.4190   33.6650   40.1790 C   0  0  0  0  0  0  0  0  0  0  0  0
   45.3760   32.5490   38.2390 C   0  0  0  0  0  0  0  0  0  0  0  0
   46.4540   33.2830   38.7720 C   0  0  0  0  0  0  0  0  0  0  0  0
   47.5040   33.6110   37.9280 C   0  0  0  0  0  0  0  0  0  0  0  0
   47.4240   33.2010   36.6370 N   0  0  0  0  0  0  0  0  0  0  0  0
   46.3850   32.5000   36.1530 C   0  0  0  0  0  0  0  0  0  0  0  0
   45.3810   32.1800   36.9360 N   0  0  0  0  0  0  0  0  0  0  0  0
   48.6000   34.3360   38.3910 N   0  0  0  0  0  0  0  0  0  0  0  0
   44.7378   32.5660   40.9398 H   0  0  0  0  0  0  0  0  0  0  0  0
   44.3162   33.9276   39.8412 H   0  0  0  0  0  0  0  0  0  0  0  0
   46.7588   34.1174   42.7949 H   0  0  0  0  0  0  0  0  0  0  0  0
   43.4500   36.6135   43.9184 H   0  0  0  0  0  0  0  0  0  0  0  0
   44.0579   35.2766   39.7251 H   0  0  0  0  0  0  0  0  0  0  0  0
   42.2880   35.3077   37.9435 H   0  0  0  0  0  0  0  0  0  0  0  0
   39.9065   35.3575   38.6191 H   0  0  0  0  0  0  0  0  0  0  0  0
   39.2719   35.3712   40.9930 H   0  0  0  0  0  0  0  0  0  0  0  0
   40.9998   35.3390   42.7733 H   0  0  0  0  0  0  0  0  0  0  0  0
   46.8035   34.6889   40.2961 H   0  0  0  0  0  0  0  0  0  0  0  0
   47.0455   32.9830   40.7726 H   0  0  0  0  0  0  0  0  0  0  0  0
   44.5276   32.2748   38.8832 H   0  0  0  0  0  0  0  0  0  0  0  0
   46.3756   32.1931   35.0967 H   0  0  0  0  0  0  0  0  0  0  0  0
   49.3707   34.5704   37.7492 H   0  0  0  0  0  0  0  0  0  0  0  0
   48.6395   34.6375   39.3751 H   0  0  0  0  0  0  0  0  0  0  0  0
  1  2  1  0
  2  6  1  0
  2  3  2  0
  3  4  1  0
  5  4  2  0
  6  5  1  0
  7 12  1  0
  7  6  1  0
  8  7  2  0
  9 10  2  0
  9  8  1  0
 10 11  1  0
 11 12  2  0
 13  1  1  0
 14 15  2  0
 15 13  1  0
 16 20  1  0
 16 15  1  0
 17 16  2  0
 18 17  1  0
 18 19  2  0
 19 14  1  0
  1 21  1  0
  1 22  1  0
  3 23  1  0
  5 24  1  0
  8 25  1  0
  9 26  1  0
 10 27  1  0
 11 28  1  0
 12 29  1  0
 13 30  1  0
 13 31  1  0
 14 32  1  0
 18 33  1  0
 20 34  1  0
 20 35  1  0
M  ISO  8  21   8  22   8  23  14  24  14  25  14  26  14  27  14  28  14
M  ISO  5  29  14  30   8  31   8  32  14  33  14
M  END
>  <minimizedAffinity>  (1) 
-4.86251116

>  <minimizedRMSD>  (1) 
7.22207785

$$$$
