
     RDKit          3D

 31 32  0  0  0  0  0  0  0  0999 V2000
   46.7380   32.8300   43.5450 C   0  0  0  0  0  0  0  0  0  0  0  0
   45.7690   35.0540   43.1430 C   0  0  0  0  0  0  0  0  0  0  0  0
   45.9620   33.9680   44.0070 C   0  0  0  0  0  0  0  0  0  0  0  0
   45.3940   34.0490   45.2600 C   0  0  0  0  0  0  0  0  0  0  0  0
   44.6880   35.1630   45.5870 N   0  0  0  0  0  0  0  0  0  0  0  0
   44.5310   36.1830   44.7180 C   0  0  0  0  0  0  0  0  0  0  0  0
   45.0580   36.1380   43.5180 N   0  0  0  0  0  0  0  0  0  0  0  0
   45.5450   32.9980   46.1810 N   0  0  0  0  0  0  0  0  0  0  0  0
   48.1830   33.2890   43.3070 C   0  0  0  0  0  0  0  0  0  0  0  0
   48.6180   32.7930   41.9710 C   0  0  0  0  0  0  0  0  0  0  0  0
   49.1470   31.5270   41.7780 C   0  0  0  0  0  0  0  0  0  0  0  0
   49.4300   31.4110   40.4660 N   0  0  0  0  0  0  0  0  0  0  0  0
   49.0940   32.5620   39.8300 C   0  0  0  0  0  0  0  0  0  0  0  0
   48.5990   33.3960   40.7660 N   0  0  0  0  0  0  0  0  0  0  0  0
   48.1220   34.7250   40.5270 C   0  0  0  0  0  0  0  0  0  0  0  0
   49.0010   35.7750   41.2140 C   0  0  0  0  0  0  0  0  0  0  0  0
   46.7216   32.0363   44.3064 H   0  0  0  0  0  0  0  0  0  0  0  0
   46.3095   32.4361   42.6116 H   0  0  0  0  0  0  0  0  0  0  0  0
   46.2076   35.0223   42.1347 H   0  0  0  0  0  0  0  0  0  0  0  0
   43.9512   37.0673   45.0211 H   0  0  0  0  0  0  0  0  0  0  0  0
   45.1172   33.0666   47.1154 H   0  0  0  0  0  0  0  0  0  0  0  0
   46.0835   32.1592   45.9215 H   0  0  0  0  0  0  0  0  0  0  0  0
   48.2327   34.3876   43.3300 H   0  0  0  0  0  0  0  0  0  0  0  0
   48.8416   32.8893   44.0922 H   0  0  0  0  0  0  0  0  0  0  0  0
   49.3060   30.7606   42.5509 H   0  0  0  0  0  0  0  0  0  0  0  0
   49.2045   32.7737   38.7562 H   0  0  0  0  0  0  0  0  0  0  0  0
   48.1218   34.9141   39.4434 H   0  0  0  0  0  0  0  0  0  0  0  0
   47.1061   34.8042   40.9414 H   0  0  0  0  0  0  0  0  0  0  0  0
   48.9128   35.6697   42.3054 H   0  0  0  0  0  0  0  0  0  0  0  0
   50.0493   35.6281   40.9149 H   0  0  0  0  0  0  0  0  0  0  0  0
   48.6720   36.7811   40.9149 H   0  0  0  0  0  0  0  0  0  0  0  0
  1  3  1  0
  2  7  2  0
  2  3  1  0
  3  4  2  0
  4  5  1  0
  4  8  1  0
  6  5  2  0
  7  6  1  0
  9  1  1  0
 10  9  1  0
 11 10  2  0
 12 11  1  0
 13 12  2  0
 13 14  1  0
 14 10  1  0
 15 14  1  0
 15 16  1  0
  1 17  1  0
  1 18  1  0
  2 19  1  0
  6 20  1  0
  8 21  1  0
  8 22  1  0
  9 23  1  0
  9 24  1  0
 11 25  1  0
 13 26  1  0
 15 27  1  0
 15 28  1  0
 16 29  1  0
 16 30  1  0
 16 31  1  0
M  ISO  8  17   8  18   8  19  14  20  14  23   8  24   8  25  14  26  14
M  ISO  5  27   8  28   8  29   8  30   8  31   8
M  END
>  <minimizedAffinity>  (1) 
-4.53170586

>  <minimizedRMSD>  (1) 
2.36569953

$$$$
