
     RDKit          3D

 38 40  0  0  0  0  0  0  0  0999 V2000
   45.0430   33.2700   41.0180 C   0  0  0  0  0  0  0  0  0  0  0  0
   46.3710   33.8810   40.7410 C   0  0  0  0  0  0  0  0  0  0  0  0
   47.0090   33.7320   39.4960 C   0  0  0  0  0  0  0  0  0  0  0  0
   48.1820   34.4000   39.5670 N   0  0  0  0  0  0  0  0  0  0  0  0
   48.2920   34.9580   40.8190 C   0  0  0  0  0  0  0  0  0  0  0  0
   47.1870   34.6320   41.5110 N   0  0  0  0  0  0  0  0  0  0  0  0
   46.8470   34.9860   42.8650 C   0  0  0  0  0  0  0  0  0  0  0  0
   45.6180   35.8680   42.9650 C   0  0  0  0  0  0  0  0  0  0  0  0
   44.6570   35.1900   43.9130 C   0  0  0  0  0  0  0  0  0  0  0  0
   45.4780   34.1710   44.6810 C   0  0  0  0  0  0  0  0  0  0  0  0
   46.5260   33.7580   43.6760 C   0  0  0  0  0  0  0  0  0  0  0  0
   44.0930   33.6170   39.8710 C   0  0  0  0  0  0  0  0  0  0  0  0
   42.6080   35.3110   40.8710 C   0  0  0  0  0  0  0  0  0  0  0  0
   42.8140   33.9810   40.4320 C   0  0  0  0  0  0  0  0  0  0  0  0
   41.7530   33.1030   40.5740 C   0  0  0  0  0  0  0  0  0  0  0  0
   40.6040   33.5710   41.1170 N   0  0  0  0  0  0  0  0  0  0  0  0
   40.4390   34.8440   41.5260 C   0  0  0  0  0  0  0  0  0  0  0  0
   41.4440   35.7060   41.4000 N   0  0  0  0  0  0  0  0  0  0  0  0
   41.8880   31.7790   40.1620 N   0  0  0  0  0  0  0  0  0  0  0  0
   45.1472   32.1776   41.0944 H   0  0  0  0  0  0  0  0  0  0  0  0
   44.6427   33.6588   41.9660 H   0  0  0  0  0  0  0  0  0  0  0  0
   46.6253   33.1762   38.6277 H   0  0  0  0  0  0  0  0  0  0  0  0
   49.1335   35.5627   41.1880 H   0  0  0  0  0  0  0  0  0  0  0  0
   47.7300   35.5233   43.2414 H   0  0  0  0  0  0  0  0  0  0  0  0
   45.8957   36.8585   43.3545 H   0  0  0  0  0  0  0  0  0  0  0  0
   45.1570   36.0085   41.9762 H   0  0  0  0  0  0  0  0  0  0  0  0
   44.2176   35.9255   44.6030 H   0  0  0  0  0  0  0  0  0  0  0  0
   43.8258   34.7136   43.3725 H   0  0  0  0  0  0  0  0  0  0  0  0
   45.9395   34.6239   45.5709 H   0  0  0  0  0  0  0  0  0  0  0  0
   44.8815   33.3276   45.0590 H   0  0  0  0  0  0  0  0  0  0  0  0
   46.1350   32.9632   43.0238 H   0  0  0  0  0  0  0  0  0  0  0  0
   47.4237   33.3649   44.1756 H   0  0  0  0  0  0  0  0  0  0  0  0
   43.9743   32.7454   39.2105 H   0  0  0  0  0  0  0  0  0  0  0  0
   44.4997   34.4536   39.2839 H   0  0  0  0  0  0  0  0  0  0  0  0
   43.4267   36.0393   40.7747 H   0  0  0  0  0  0  0  0  0  0  0  0
   39.4816   35.1676   41.9603 H   0  0  0  0  0  0  0  0  0  0  0  0
   41.0999   31.1241   40.2667 H   0  0  0  0  0  0  0  0  0  0  0  0
   42.7759   31.4550   39.7527 H   0  0  0  0  0  0  0  0  0  0  0  0
  2  1  1  0
  2  6  1  0
  3  4  1  0
  3  2  2  0
  4  5  2  0
  5  6  1  0
  6  7  1  0
  7  8  1  0
  7 11  1  0
  8  9  1  0
  9 10  1  0
 11 10  1  0
 12 14  1  0
 12  1  1  0
 13 18  2  0
 14 15  2  0
 14 13  1  0
 15 16  1  0
 16 17  2  0
 18 17  1  0
 19 15  1  0
  1 20  1  0
  1 21  1  0
  3 22  1  0
  5 23  1  0
  7 24  1  0
  8 25  1  0
  8 26  1  0
  9 27  1  0
  9 28  1  0
 10 29  1  0
 10 30  1  0
 11 31  1  0
 11 32  1  0
 12 33  1  0
 12 34  1  0
 13 35  1  0
 17 36  1  0
 19 37  1  0
 19 38  1  0
M  ISO  8  20   8  21   8  22  14  23  14  24  13  25  13  26  13  27  13
M  ISO  8  28  13  29  13  30  13  31  13  32  13  33   8  34   8  35  14
M  ISO  1  36  14
M  END
>  <minimizedAffinity>  (1) 
-4.62606382

>  <minimizedRMSD>  (1) 
4.80254364

$$$$
