
     RDKit          3D

 24 24  0  0  0  0  0  0  0  0999 V2000
   45.5990   35.0260   42.9330 C   0  0  0  0  0  0  0  0  0  0  0  0
   45.1210   34.5020   45.2980 C   0  0  0  0  0  0  0  0  0  0  0  0
   45.8960   34.2250   44.1410 C   0  0  0  0  0  0  0  0  0  0  0  0
   46.8580   33.2330   44.2550 C   0  0  0  0  0  0  0  0  0  0  0  0
   47.0200   32.5790   45.4310 N   0  0  0  0  0  0  0  0  0  0  0  0
   46.2490   32.8830   46.5130 C   0  0  0  0  0  0  0  0  0  0  0  0
   45.3150   33.8300   46.4440 N   0  0  0  0  0  0  0  0  0  0  0  0
   46.8610   35.1620   42.1120 C   0  0  0  0  0  0  0  0  0  0  0  0
   45.1040   36.3900   43.3500 C   0  0  0  0  0  0  0  0  0  0  0  0
   44.5080   34.3450   42.1370 C   0  0  0  0  0  0  0  0  0  0  0  0
   43.2570   35.0140   42.3430 N   0  0  0  0  0  0  0  0  0  0  0  0
   44.3468   35.2822   45.2546 H   0  0  0  0  0  0  0  0  0  0  0  0
   47.4894   32.9769   43.3914 H   0  0  0  0  0  0  0  0  0  0  0  0
   46.4003   32.3385   47.4567 H   0  0  0  0  0  0  0  0  0  0  0  0
   47.7271   35.2553   42.7837 H   0  0  0  0  0  0  0  0  0  0  0  0
   46.9833   34.2718   41.4775 H   0  0  0  0  0  0  0  0  0  0  0  0
   46.7909   36.0578   41.4775 H   0  0  0  0  0  0  0  0  0  0  0  0
   45.0815   36.4520   44.4480 H   0  0  0  0  0  0  0  0  0  0  0  0
   45.7792   37.1623   42.9529 H   0  0  0  0  0  0  0  0  0  0  0  0
   44.0907   36.5495   42.9529 H   0  0  0  0  0  0  0  0  0  0  0  0
   44.4189   33.2983   42.4634 H   0  0  0  0  0  0  0  0  0  0  0  0
   44.7649   34.3833   41.0681 H   0  0  0  0  0  0  0  0  0  0  0  0
   43.0804   35.1084   43.3534 H   0  0  0  0  0  0  0  0  0  0  0  0
   43.2924   35.9487   41.9118 H   0  0  0  0  0  0  0  0  0  0  0  0
  1  9  1  0
  1  3  1  0
  2  7  2  0
  3  4  2  0
  3  2  1  0
  4  5  1  0
  5  6  2  0
  7  6  1  0
  8  1  1  0
 10 11  1  0
 10  1  1  0
  2 12  1  0
  4 13  1  0
  6 14  1  0
  8 15  1  0
  8 16  1  0
  8 17  1  0
  9 18  1  0
  9 19  1  0
  9 20  1  0
 10 21  1  0
 10 22  1  0
 11 23  1  0
 11 24  1  0
M  ISO  8  12  14  13  14  14  14  15   8  16   8  17   8  18   8  19   8
M  ISO  5  20   8  21   8  22   8  23   5  24   5
M  END
>  <minimizedAffinity>  (1) 
-3.66688585

>  <minimizedRMSD>  (1) 
0.485044271

$$$$
