
     RDKit          3D

 39 42  0  0  1  0  0  0  0  0999 V2000
   45.3210   34.9920   42.9890 C   0  0  0  0  0  0  0  0  0  0  0  0
   45.0130   34.4290   44.2230 C   0  0  0  0  0  0  0  0  0  0  0  0
   46.1220   33.8420   44.6840 N   0  0  0  0  0  0  0  0  0  0  0  0
   47.1270   34.0100   43.7930 C   0  0  0  0  0  0  0  0  0  0  0  0
   46.6250   34.7140   42.7600 N   0  0  0  0  0  0  0  0  0  0  0  0
   47.3360   35.1250   41.5810 C   0  0  1  0  0  0  0  0  0  0  0  0
   48.7830   35.0290   41.4260 C   0  0  0  0  0  0  0  0  0  0  0  0
   47.9200   33.9690   40.7750 C   0  0  2  0  0  0  0  0  0  0  0  0
   47.8830   34.0260   39.3080 C   0  0  0  0  0  0  0  0  0  0  0  0
   46.9750   33.3570   38.5150 C   0  0  0  0  0  0  0  0  0  0  0  0
   47.2930   33.6830   37.2510 N   0  0  0  0  0  0  0  0  0  0  0  0
   48.3550   34.5190   37.2520 C   0  0  0  0  0  0  0  0  0  0  0  0
   48.7340   34.7420   38.5380 N   0  0  0  0  0  0  0  0  0  0  0  0
   44.3220   35.7330   42.1740 C   0  0  0  0  0  0  0  0  0  0  0  0
   43.9610   34.8690   40.9680 C   0  0  0  0  0  0  0  0  0  0  0  0
   41.6460   35.5360   40.5070 C   0  0  0  0  0  0  0  0  0  0  0  0
   42.5450   34.5940   40.9890 C   0  0  0  0  0  0  0  0  0  0  0  0
   42.0040   33.4160   41.4730 C   0  0  0  0  0  0  0  0  0  0  0  0
   40.6590   33.2420   41.4550 N   0  0  0  0  0  0  0  0  0  0  0  0
   39.8260   34.1850   40.9760 C   0  0  0  0  0  0  0  0  0  0  0  0
   40.3170   35.3190   40.5090 N   0  0  0  0  0  0  0  0  0  0  0  0
   42.8400   32.4030   41.9820 N   0  0  0  0  0  0  0  0  0  0  0  0
   44.0359   34.4609   44.7272 H   0  0  0  0  0  0  0  0  0  0  0  0
   48.1585   33.6414   43.8934 H   0  0  0  0  0  0  0  0  0  0  0  0
   46.6582   35.9795   41.4378 H   0  0  0  0  0  0  0  0  0  0  0  0
   49.3139   35.7605   40.7990 H   0  0  0  0  0  0  0  0  0  0  0  0
   49.6301   35.0049   42.1273 H   0  0  0  0  0  0  0  0  0  0  0  0
   47.8017   32.8758   40.8046 H   0  0  0  0  0  0  0  0  0  0  0  0
   46.1614   32.6955   38.8473 H   0  0  0  0  0  0  0  0  0  0  0  0
   48.8336   34.9481   36.3593 H   0  0  0  0  0  0  0  0  0  0  0  0
   49.5114   35.3357   38.8607 H   0  0  0  0  0  0  0  0  0  0  0  0
   43.4219   35.9294   42.7751 H   0  0  0  0  0  0  0  0  0  0  0  0
   44.7383   36.6958   41.8428 H   0  0  0  0  0  0  0  0  0  0  0  0
   44.5203   33.9229   41.0125 H   0  0  0  0  0  0  0  0  0  0  0  0
   44.2207   35.4011   40.0409 H   0  0  0  0  0  0  0  0  0  0  0  0
   42.0308   36.4877   40.1118 H   0  0  0  0  0  0  0  0  0  0  0  0
   38.7397   34.0117   40.9735 H   0  0  0  0  0  0  0  0  0  0  0  0
   42.4301   31.5288   42.3406 H   0  0  0  0  0  0  0  0  0  0  0  0
   43.8612   32.5365   41.9956 H   0  0  0  0  0  0  0  0  0  0  0  0
  1  2  2  0
  2  3  1  0
  4  3  2  0
  5  1  1  0
  5  4  1  0
  6  5  1  0
  7  6  1  0
  8  7  1  0
  8  6  1  0
  9  8  1  0
 10  9  2  0
 11 12  2  0
 11 10  1  0
 12 13  1  0
 13  9  1  0
 14  1  1  0
 15 17  1  0
 15 14  1  0
 16 21  2  0
 16 17  1  0
 17 18  2  0
 18 22  1  0
 19 18  1  0
 20 19  2  0
 21 20  1  0
  2 23  1  0
  4 24  1  0
  6 25  1  6
  7 26  1  0
  7 27  1  0
  8 28  1  1
 10 29  1  0
 12 30  1  0
 13 31  1  0
 14 32  1  0
 14 33  1  0
 15 34  1  0
 15 35  1  0
 16 36  1  0
 20 37  1  0
 22 38  1  0
 22 39  1  0
M  ISO  8  23  14  24  14  25  13  26  13  27  13  28  13  29  14  30  14
M  ISO  7  31   9  32   8  33   8  34   8  35   8  36  14  37  14
M  END
>  <minimizedAffinity>  (1) 
-5.73231888

>  <minimizedRMSD>  (1) 
1.40791142

$$$$
