
     RDKit          3D

 35 37  0  0  1  0  0  0  0  0999 V2000
   45.5730   34.7720   42.9530 C   0  0  0  0  0  0  0  0  0  0  0  0
   45.3520   34.1940   44.1920 C   0  0  0  0  0  0  0  0  0  0  0  0
   46.5280   33.7420   44.6380 N   0  0  0  0  0  0  0  0  0  0  0  0
   47.4910   34.0050   43.7370 C   0  0  0  0  0  0  0  0  0  0  0  0
   46.8910   34.6440   42.6960 N   0  0  0  0  0  0  0  0  0  0  0  0
   47.5340   35.1180   41.4990 C   0  0  1  0  0  0  0  0  0  0  0  0
   48.9790   35.0670   41.2790 C   0  0  0  0  0  0  0  0  0  0  0  0
   48.1100   34.0130   40.6230 C   0  0  2  0  0  0  0  0  0  0  0  0
   48.0240   34.1720   39.1490 C   0  0  0  0  0  0  0  0  0  0  0  0
   47.1700   33.6110   38.4000 O   0  0  0  0  0  0  0  0  0  0  0  0
   48.9100   34.9810   38.4560 O   0  0  0  0  0  0  0  0  0  0  0  0
   44.4860   35.3900   42.1430 C   0  0  0  0  0  0  0  0  0  0  0  0
   43.5340   34.2920   41.7030 C   0  0  0  0  0  0  0  0  0  0  0  0
   42.6480   34.7910   39.4710 C   0  0  0  0  0  0  0  0  0  0  0  0
   42.5100   34.8630   40.8550 C   0  0  0  0  0  0  0  0  0  0  0  0
   41.3790   35.4890   41.3520 C   0  0  0  0  0  0  0  0  0  0  0  0
   40.4800   35.9910   40.4680 N   0  0  0  0  0  0  0  0  0  0  0  0
   40.6440   35.9060   39.1340 C   0  0  0  0  0  0  0  0  0  0  0  0
   41.7100   35.3140   38.6410 N   0  0  0  0  0  0  0  0  0  0  0  0
   41.1780   35.5980   42.7300 N   0  0  0  0  0  0  0  0  0  0  0  0
   44.3861   34.1205   44.7132 H   0  0  0  0  0  0  0  0  0  0  0  0
   48.5580   33.7523   43.8245 H   0  0  0  0  0  0  0  0  0  0  0  0
   46.8266   35.9564   41.4172 H   0  0  0  0  0  0  0  0  0  0  0  0
   49.4644   35.8364   40.6606 H   0  0  0  0  0  0  0  0  0  0  0  0
   49.8570   35.0366   41.9410 H   0  0  0  0  0  0  0  0  0  0  0  0
   48.0115   32.9175   40.6119 H   0  0  0  0  0  0  0  0  0  0  0  0
   48.8329   35.0713   37.4732 H   0  0  0  0  0  0  0  0  0  0  0  0
   43.9445   36.1300   42.7506 H   0  0  0  0  0  0  0  0  0  0  0  0
   44.9107   35.8971   41.2641 H   0  0  0  0  0  0  0  0  0  0  0  0
   44.0899   33.5252   41.1435 H   0  0  0  0  0  0  0  0  0  0  0  0
   43.0681   33.8304   42.5861 H   0  0  0  0  0  0  0  0  0  0  0  0
   43.5344   34.3007   39.0422 H   0  0  0  0  0  0  0  0  0  0  0  0
   39.8876   36.3310   38.4578 H   0  0  0  0  0  0  0  0  0  0  0  0
   40.3343   36.0650   43.0920 H   0  0  0  0  0  0  0  0  0  0  0  0
   41.8734   35.2114   43.3841 H   0  0  0  0  0  0  0  0  0  0  0  0
  1  2  2  0
  2  3  1  0
  4  3  2  0
  5  1  1  0
  5  4  1  0
  6  5  1  0
  7  6  1  0
  8  7  1  0
  8  6  1  0
  9  8  1  0
 10  9  2  0
 11  9  1  0
 12  1  1  0
 13 12  1  0
 14 15  2  0
 15 16  1  0
 15 13  1  0
 16 20  1  0
 17 16  2  0
 18 17  1  0
 19 18  2  0
 19 14  1  0
  2 21  1  0
  4 22  1  0
  6 23  1  6
  7 24  1  0
  7 25  1  0
  8 26  1  1
 11 27  1  0
 12 28  1  0
 12 29  1  0
 13 30  1  0
 13 31  1  0
 14 32  1  0
 18 33  1  0
 20 34  1  0
 20 35  1  0
M  ISO  8  21  14  22  14  23  13  24  13  25  13  26  13  27   3  28   8
M  ISO  5  29   8  30   8  31   8  32  14  33  14
M  END
>  <minimizedAffinity>  (1) 
-5.33116579

>  <minimizedRMSD>  (1) 
1.40057158

$$$$
