
     RDKit          3D

 44 46  0  0  1  0  0  0  0  0999 V2000
   44.7720   35.3740   42.9960 C   0  0  0  0  0  0  0  0  0  0  0  0
   44.1160   35.5050   44.2100 C   0  0  0  0  0  0  0  0  0  0  0  0
   44.8840   34.9350   45.1410 N   0  0  0  0  0  0  0  0  0  0  0  0
   46.0040   34.4440   44.5760 C   0  0  0  0  0  0  0  0  0  0  0  0
   45.9240   34.7220   43.2470 N   0  0  0  0  0  0  0  0  0  0  0  0
   46.8940   34.3870   42.2350 C   0  0  1  0  0  0  0  0  0  0  0  0
   47.9810   35.3040   41.8530 C   0  0  0  0  0  0  0  0  0  0  0  0
   48.2830   34.1350   42.7690 C   0  0  2  0  0  0  0  0  0  0  0  0
   49.2210   33.1510   42.1450 C   0  0  0  0  0  0  0  0  0  0  0  0
   48.9440   33.0300   40.6740 C   0  0  0  0  0  0  0  0  0  0  0  0
   50.6760   33.4800   42.3510 C   0  0  0  0  0  0  0  0  0  0  0  0
   48.9770   31.7950   42.7730 C   0  0  0  0  0  0  0  0  0  0  0  0
   44.2200   35.8940   41.7090 C   0  0  0  0  0  0  0  0  0  0  0  0
   43.8910   34.7000   40.8270 C   0  0  0  0  0  0  0  0  0  0  0  0
   41.6360   35.4460   40.1460 C   0  0  0  0  0  0  0  0  0  0  0  0
   42.4500   34.5200   40.8010 C   0  0  0  0  0  0  0  0  0  0  0  0
   41.8300   33.4350   41.4190 C   0  0  0  0  0  0  0  0  0  0  0  0
   40.4740   33.3490   41.3440 N   0  0  0  0  0  0  0  0  0  0  0  0
   39.7280   34.2690   40.6980 C   0  0  0  0  0  0  0  0  0  0  0  0
   40.2980   35.2990   40.1110 N   0  0  0  0  0  0  0  0  0  0  0  0
   42.5700   32.4680   42.0930 N   0  0  0  0  0  0  0  0  0  0  0  0
   43.1423   35.9893   44.3756 H   0  0  0  0  0  0  0  0  0  0  0  0
   46.8237   33.9202   45.0895 H   0  0  0  0  0  0  0  0  0  0  0  0
   46.1422   33.8620   41.6274 H   0  0  0  0  0  0  0  0  0  0  0  0
   48.3609   35.3039   40.8207 H   0  0  0  0  0  0  0  0  0  0  0  0
   48.1320   36.3920   41.9113 H   0  0  0  0  0  0  0  0  0  0  0  0
   48.6472   33.9276   43.7860 H   0  0  0  0  0  0  0  0  0  0  0  0
   47.9454   32.5938   40.5236 H   0  0  0  0  0  0  0  0  0  0  0  0
   48.9823   34.0268   40.2105 H   0  0  0  0  0  0  0  0  0  0  0  0
   49.7014   32.3807   40.2105 H   0  0  0  0  0  0  0  0  0  0  0  0
   50.8919   33.5288   43.4285 H   0  0  0  0  0  0  0  0  0  0  0  0
   51.2976   32.6997   41.8875 H   0  0  0  0  0  0  0  0  0  0  0  0
   50.9014   34.4518   41.8875 H   0  0  0  0  0  0  0  0  0  0  0  0
   48.9941   31.8900   43.8688 H   0  0  0  0  0  0  0  0  0  0  0  0
   47.9959   31.4140   42.4532 H   0  0  0  0  0  0  0  0  0  0  0  0
   49.7638   31.0959   42.4532 H   0  0  0  0  0  0  0  0  0  0  0  0
   43.3085   36.4788   41.9021 H   0  0  0  0  0  0  0  0  0  0  0  0
   44.9531   36.5471   41.2130 H   0  0  0  0  0  0  0  0  0  0  0  0
   44.2593   34.8816   39.8065 H   0  0  0  0  0  0  0  0  0  0  0  0
   44.3733   33.7959   41.2269 H   0  0  0  0  0  0  0  0  0  0  0  0
   42.0966   36.3124   39.6489 H   0  0  0  0  0  0  0  0  0  0  0  0
   38.6343   34.1569   40.6619 H   0  0  0  0  0  0  0  0  0  0  0  0
   42.0918   31.6743   42.5427 H   0  0  0  0  0  0  0  0  0  0  0  0
   43.5959   32.5460   42.1421 H   0  0  0  0  0  0  0  0  0  0  0  0
  1  5  1  0
  1  2  2  0
  2  3  1  0
  4  3  2  0
  5  4  1  0
  6  8  1  0
  6  5  1  0
  7  6  1  0
  7  8  1  0
  9 11  1  0
  9  8  1  0
  9 12  1  0
 10  9  1  0
 13  1  1  0
 14 13  1  0
 15 16  2  0
 16 14  1  0
 16 17  1  0
 17 21  1  0
 18 17  2  0
 19 18  1  0
 20 15  1  0
 20 19  2  0
  2 22  1  0
  4 23  1  0
  6 24  1  6
  7 25  1  0
  7 26  1  0
  8 27  1  1
 10 28  1  0
 10 29  1  0
 10 30  1  0
 11 31  1  0
 11 32  1  0
 11 33  1  0
 12 34  1  0
 12 35  1  0
 12 36  1  0
 13 37  1  0
 13 38  1  0
 14 39  1  0
 14 40  1  0
 15 41  1  0
 19 42  1  0
 21 43  1  0
 21 44  1  0
M  ISO  8  22  14  23  14  24  13  25  13  26  13  27  13  28   8  29   8
M  ISO  8  30   8  31   8  32   8  33   8  34   8  35   8  36   8  37   8
M  ISO  5  38   8  39   8  40   8  41  14  42  14
M  END
>  <minimizedAffinity>  (1) 
-5.18110847

>  <minimizedRMSD>  (1) 
2.3877852

$$$$
