
     RDKit          3D

 23 23  0  0  0  0  0  0  0  0999 V2000
   45.4450   35.1540   43.0410 C   0  0  0  0  0  0  0  0  0  0  0  0
   45.0650   34.5150   45.4120 C   0  0  0  0  0  0  0  0  0  0  0  0
   45.7970   34.3070   44.2160 C   0  0  0  0  0  0  0  0  0  0  0  0
   46.7930   33.3210   44.2350 C   0  0  0  0  0  0  0  0  0  0  0  0
   47.0000   32.6290   45.3770 N   0  0  0  0  0  0  0  0  0  0  0  0
   46.2850   32.8510   46.5000 C   0  0  0  0  0  0  0  0  0  0  0  0
   45.3210   33.7940   46.5100 N   0  0  0  0  0  0  0  0  0  0  0  0
   46.5830   35.1450   42.0630 C   0  0  0  0  0  0  0  0  0  0  0  0
   45.1530   36.5490   43.5200 C   0  0  0  0  0  0  0  0  0  0  0  0
   44.1740   34.6170   42.4180 C   0  0  0  0  0  0  0  0  0  0  0  0
   43.1280   35.4580   42.7040 O   0  0  0  0  0  0  0  0  0  0  0  0
   44.2751   35.2801   45.4379 H   0  0  0  0  0  0  0  0  0  0  0  0
   47.3946   33.1145   43.3375 H   0  0  0  0  0  0  0  0  0  0  0  0
   46.4886   32.2628   47.4070 H   0  0  0  0  0  0  0  0  0  0  0  0
   47.5370   35.1375   42.6106 H   0  0  0  0  0  0  0  0  0  0  0  0
   46.5160   34.2474   41.4307 H   0  0  0  0  0  0  0  0  0  0  0  0
   46.5302   36.0436   41.4307 H   0  0  0  0  0  0  0  0  0  0  0  0
   45.1495   36.5658   44.6199 H   0  0  0  0  0  0  0  0  0  0  0  0
   45.9270   37.2349   43.1453 H   0  0  0  0  0  0  0  0  0  0  0  0
   44.1689   36.8669   43.1453 H   0  0  0  0  0  0  0  0  0  0  0  0
   43.9613   33.6174   42.8248 H   0  0  0  0  0  0  0  0  0  0  0  0
   44.3019   34.5522   41.3274 H   0  0  0  0  0  0  0  0  0  0  0  0
   43.0281   35.5383   43.6857 H   0  0  0  0  0  0  0  0  0  0  0  0
  1  9  1  0
  1  3  1  0
  2  7  2  0
  3  4  2  0
  3  2  1  0
  4  5  1  0
  5  6  2  0
  6  7  1  0
  8  1  1  0
 10 11  1  0
 10  1  1  0
  2 12  1  0
  4 13  1  0
  6 14  1  0
  8 15  1  0
  8 16  1  0
  8 17  1  0
  9 18  1  0
  9 19  1  0
  9 20  1  0
 10 21  1  0
 10 22  1  0
 11 23  1  0
M  ISO  8  12  14  13  14  14  14  15   8  16   8  17   8  18   8  19   8
M  ISO  4  20   8  21   8  22   8  23   3
M  END
>  <minimizedAffinity>  (1) 
-3.73754692

>  <minimizedRMSD>  (1) 
0.735263407

$$$$
