
     RDKit          3D

 41 43  0  0  1  0  0  0  0  0999 V2000
   44.7320   35.0760   41.7140 C   0  0  0  0  0  0  0  0  0  0  0  0
   45.6500   34.5290   42.7670 C   0  0  0  0  0  0  0  0  0  0  0  0
   45.2350   34.2620   44.0680 C   0  0  0  0  0  0  0  0  0  0  0  0
   46.2960   33.7900   44.7350 N   0  0  0  0  0  0  0  0  0  0  0  0
   47.3690   33.7470   43.9030 C   0  0  0  0  0  0  0  0  0  0  0  0
   46.9480   34.2050   42.7050 N   0  0  0  0  0  0  0  0  0  0  0  0
   47.7610   34.3270   41.5430 C   0  0  1  0  0  0  0  0  0  0  0  0
   49.0580   33.6760   41.3300 C   0  0  0  0  0  0  0  0  0  0  0  0
   47.8640   33.0340   40.7060 C   0  0  2  0  0  0  0  0  0  0  0  0
   47.5850   33.1240   39.2430 C   0  0  0  0  0  0  0  0  0  0  0  0
   48.2360   34.3610   38.6290 C   0  0  0  0  0  0  0  0  0  0  0  0
   46.1390   33.1360   38.8670 C   0  0  0  0  0  0  0  0  0  0  0  0
   43.6070   34.0670   41.5050 C   0  0  0  0  0  0  0  0  0  0  0  0
   42.4770   34.5650   39.3680 C   0  0  0  0  0  0  0  0  0  0  0  0
   42.5460   34.7060   40.7560 C   0  0  0  0  0  0  0  0  0  0  0  0
   41.5590   35.4770   41.3670 C   0  0  0  0  0  0  0  0  0  0  0  0
   40.6000   36.0390   40.5750 N   0  0  0  0  0  0  0  0  0  0  0  0
   40.5760   35.8750   39.2430 C   0  0  0  0  0  0  0  0  0  0  0  0
   41.5020   35.1480   38.6420 N   0  0  0  0  0  0  0  0  0  0  0  0
   41.5490   35.6700   42.7500 N   0  0  0  0  0  0  0  0  0  0  0  0
   44.3146   36.0384   42.0449 H   0  0  0  0  0  0  0  0  0  0  0  0
   45.2801   35.2400   40.7745 H   0  0  0  0  0  0  0  0  0  0  0  0
   44.2233   34.4110   44.4733 H   0  0  0  0  0  0  0  0  0  0  0  0
   48.3835   33.4054   44.1562 H   0  0  0  0  0  0  0  0  0  0  0  0
   47.4678   35.3825   41.4435 H   0  0  0  0  0  0  0  0  0  0  0  0
   49.8091   34.1612   40.6894 H   0  0  0  0  0  0  0  0  0  0  0  0
   49.8487   33.3170   42.0052 H   0  0  0  0  0  0  0  0  0  0  0  0
   47.4455   32.0168   40.7215 H   0  0  0  0  0  0  0  0  0  0  0  0
   48.0190   32.1958   38.8429 H   0  0  0  0  0  0  0  0  0  0  0  0
   48.5866   35.0272   39.4311 H   0  0  0  0  0  0  0  0  0  0  0  0
   49.0900   34.0553   38.0068 H   0  0  0  0  0  0  0  0  0  0  0  0
   47.5004   34.8918   38.0068 H   0  0  0  0  0  0  0  0  0  0  0  0
   45.5232   33.1411   39.7784 H   0  0  0  0  0  0  0  0  0  0  0  0
   45.9221   34.0360   38.2729 H   0  0  0  0  0  0  0  0  0  0  0  0
   45.9072   32.2397   38.2729 H   0  0  0  0  0  0  0  0  0  0  0  0
   43.9863   33.2001   40.9440 H   0  0  0  0  0  0  0  0  0  0  0  0
   43.2255   33.7231   42.4777 H   0  0  0  0  0  0  0  0  0  0  0  0
   43.2392   33.9617   38.8531 H   0  0  0  0  0  0  0  0  0  0  0  0
   39.7810   36.3484   38.6481 H   0  0  0  0  0  0  0  0  0  0  0  0
   40.8117   36.2430   43.1847 H   0  0  0  0  0  0  0  0  0  0  0  0
   42.2789   35.2393   43.3354 H   0  0  0  0  0  0  0  0  0  0  0  0
  1  2  1  0
  2  3  2  0
  3  4  1  0
  5  4  2  0
  6  2  1  0
  6  5  1  0
  7  6  1  0
  8  7  1  0
  9  8  1  0
  9  7  1  0
 10  9  1  0
 11 10  1  0
 12 10  1  0
 13  1  1  0
 14 15  2  0
 15 16  1  0
 15 13  1  0
 16 20  1  0
 17 16  2  0
 18 17  1  0
 19 18  2  0
 19 14  1  0
  1 21  1  0
  1 22  1  0
  3 23  1  0
  5 24  1  0
  7 25  1  6
  8 26  1  0
  8 27  1  0
  9 28  1  1
 10 29  1  0
 11 30  1  0
 11 31  1  0
 11 32  1  0
 12 33  1  0
 12 34  1  0
 12 35  1  0
 13 36  1  0
 13 37  1  0
 14 38  1  0
 18 39  1  0
 20 40  1  0
 20 41  1  0
M  ISO  8  21   8  22   8  23  14  24  14  25  13  26  13  27  13  28  13
M  ISO  8  29   8  30   8  31   8  32   8  33   8  34   8  35   8  36   8
M  ISO  3  37   8  38  14  39  14
M  END
>  <minimizedAffinity>  (1) 
-4.77804327

>  <minimizedRMSD>  (1) 
1.65544546

$$$$
