
     RDKit          3D

 33 35  0  0  1  0  0  0  0  0999 V2000
   44.5340   35.0550   41.6330 C   0  0  0  0  0  0  0  0  0  0  0  0
   45.4800   34.3920   42.5900 C   0  0  0  0  0  0  0  0  0  0  0  0
   45.0610   33.4740   43.5350 C   0  0  0  0  0  0  0  0  0  0  0  0
   46.1410   33.0890   44.2090 N   0  0  0  0  0  0  0  0  0  0  0  0
   47.2400   33.7230   43.7350 C   0  0  0  0  0  0  0  0  0  0  0  0
   46.8120   34.5260   42.7340 N   0  0  0  0  0  0  0  0  0  0  0  0
   47.6310   35.3850   41.9450 C   0  0  1  0  0  0  0  0  0  0  0  0
   49.0760   35.2190   41.7520 C   0  0  0  0  0  0  0  0  0  0  0  0
   48.1720   34.7450   40.6580 C   0  0  1  0  0  0  0  0  0  0  0  0
   47.9240   32.9940   40.3890 S   0  0  0  0  0  0  0  0  0  0  0  0
   43.9930   33.9960   40.6880 C   0  0  0  0  0  0  0  0  0  0  0  0
   42.2810   35.2470   39.4350 C   0  0  0  0  0  0  0  0  0  0  0  0
   42.6080   34.2920   40.4020 C   0  0  0  0  0  0  0  0  0  0  0  0
   41.5500   33.6650   41.0510 C   0  0  0  0  0  0  0  0  0  0  0  0
   40.2770   34.0150   40.7100 N   0  0  0  0  0  0  0  0  0  0  0  0
   40.0090   34.9360   39.7760 C   0  0  0  0  0  0  0  0  0  0  0  0
   41.0070   35.5500   39.1400 N   0  0  0  0  0  0  0  0  0  0  0  0
   41.7850   32.6910   42.0390 N   0  0  0  0  0  0  0  0  0  0  0  0
   43.7045   35.5162   42.1891 H   0  0  0  0  0  0  0  0  0  0  0  0
   45.0563   35.8390   41.0652 H   0  0  0  0  0  0  0  0  0  0  0  0
   44.0298   33.1277   43.6985 H   0  0  0  0  0  0  0  0  0  0  0  0
   48.2739   33.6080   44.0925 H   0  0  0  0  0  0  0  0  0  0  0  0
   47.0434   36.2579   42.2656 H   0  0  0  0  0  0  0  0  0  0  0  0
   49.7076   36.1048   41.5892 H   0  0  0  0  0  0  0  0  0  0  0  0
   49.8753   34.7452   42.3408 H   0  0  0  0  0  0  0  0  0  0  0  0
   48.0857   34.9319   39.5774 H   0  0  0  0  0  0  0  0  0  0  0  0
   47.8335   32.3547   41.5973 H   0  0  0  0  0  0  0  0  0  0  0  0
   44.5733   34.0030   39.7535 H   0  0  0  0  0  0  0  0  0  0  0  0
   44.0749   33.0026   41.1531 H   0  0  0  0  0  0  0  0  0  0  0  0
   43.0909   35.7651   38.9005 H   0  0  0  0  0  0  0  0  0  0  0  0
   38.9656   35.1861   39.5334 H   0  0  0  0  0  0  0  0  0  0  0  0
   40.9916   32.2348   42.5115 H   0  0  0  0  0  0  0  0  0  0  0  0
   42.7505   32.4343   42.2897 H   0  0  0  0  0  0  0  0  0  0  0  0
  1  2  1  0
  2  6  1  0
  2  3  2  0
  3  4  1  0
  5  4  2  0
  6  5  1  0
  7  6  1  0
  8  7  1  0
  9  8  1  0
  9  7  1  0
 10  9  1  0
 11  1  1  0
 12 13  2  0
 13 11  1  0
 13 14  1  0
 14 18  1  0
 15 14  2  0
 16 15  1  0
 17 12  1  0
 17 16  2  0
  1 19  1  0
  1 20  1  0
  3 21  1  0
  5 22  1  0
  7 23  1  6
  8 24  1  0
  8 25  1  0
  9 26  1  6
 10 27  1  0
 11 28  1  0
 11 29  1  0
 12 30  1  0
 16 31  1  0
 18 32  1  0
 18 33  1  0
M  ISO  8  19   8  20   8  21  14  22  14  23  13  24  13  25  13  26  13
M  ISO  5  27  11  28   8  29   8  30  14  31  14
M  END
>  <minimizedAffinity>  (1) 
-4.59535122

>  <minimizedRMSD>  (1) 
0.368990034

$$$$
