
     RDKit          3D

 34 36  0  0  1  0  0  0  0  0999 V2000
   44.4970   35.3020   41.8660 C   0  0  0  0  0  0  0  0  0  0  0  0
   45.4720   34.6190   42.7680 C   0  0  0  0  0  0  0  0  0  0  0  0
   45.0770   33.8300   43.8460 C   0  0  0  0  0  0  0  0  0  0  0  0
   46.1890   33.3770   44.4330 N   0  0  0  0  0  0  0  0  0  0  0  0
   47.2810   33.8510   43.7680 C   0  0  0  0  0  0  0  0  0  0  0  0
   46.8210   34.6060   42.7550 N   0  0  0  0  0  0  0  0  0  0  0  0
   47.6280   35.2990   41.7990 C   0  0  1  0  0  0  0  0  0  0  0  0
   49.0990   35.3330   41.8130 C   0  0  0  0  0  0  0  0  0  0  0  0
   48.4270   34.3830   40.8620 C   0  0  2  0  0  0  0  0  0  0  0  0
   48.4680   34.7550   39.4500 N   0  0  0  0  0  0  0  0  0  0  0  0
   44.0430   34.2880   40.8220 C   0  0  0  0  0  0  0  0  0  0  0  0
   42.0390   35.3990   39.9270 C   0  0  0  0  0  0  0  0  0  0  0  0
   42.6070   34.3730   40.6820 C   0  0  0  0  0  0  0  0  0  0  0  0
   41.7280   33.4770   41.2670 C   0  0  0  0  0  0  0  0  0  0  0  0
   40.3860   33.6440   41.0750 N   0  0  0  0  0  0  0  0  0  0  0  0
   39.8870   34.6450   40.3400 C   0  0  0  0  0  0  0  0  0  0  0  0
   40.7090   35.5190   39.7680 N   0  0  0  0  0  0  0  0  0  0  0  0
   42.2080   32.4070   42.0500 N   0  0  0  0  0  0  0  0  0  0  0  0
   43.6321   35.6542   42.4472 H   0  0  0  0  0  0  0  0  0  0  0  0
   44.9645   36.1716   41.3809 H   0  0  0  0  0  0  0  0  0  0  0  0
   44.0429   33.6192   44.1562 H   0  0  0  0  0  0  0  0  0  0  0  0
   48.3351   33.6537   44.0131 H   0  0  0  0  0  0  0  0  0  0  0  0
   46.8914   36.1143   41.7470 H   0  0  0  0  0  0  0  0  0  0  0  0
   49.6266   36.2144   41.4195 H   0  0  0  0  0  0  0  0  0  0  0  0
   49.8596   35.2182   42.5994 H   0  0  0  0  0  0  0  0  0  0  0  0
   48.4601   33.3021   40.6604 H   0  0  0  0  0  0  0  0  0  0  0  0
   48.5805   35.7755   39.3669 H   0  0  0  0  0  0  0  0  0  0  0  0
   49.2621   34.2838   38.9937 H   0  0  0  0  0  0  0  0  0  0  0  0
   44.5221   34.5112   39.8573 H   0  0  0  0  0  0  0  0  0  0  0  0
   44.3278   33.2737   41.1383 H   0  0  0  0  0  0  0  0  0  0  0  0
   42.7007   36.1342   39.4458 H   0  0  0  0  0  0  0  0  0  0  0  0
   38.7993   34.7442   40.2096 H   0  0  0  0  0  0  0  0  0  0  0  0
   41.5455   31.7462   42.4806 H   0  0  0  0  0  0  0  0  0  0  0  0
   43.2211   32.2862   42.1913 H   0  0  0  0  0  0  0  0  0  0  0  0
  1  2  1  0
  2  3  2  0
  3  4  1  0
  5  4  2  0
  6  2  1  0
  6  5  1  0
  7  8  1  0
  7  6  1  0
  9  7  1  0
  9  8  1  0
 10  9  1  0
 11  1  1  0
 12 13  2  0
 13 11  1  0
 13 14  1  0
 14 18  1  0
 15 14  2  0
 16 15  1  0
 17 12  1  0
 17 16  2  0
  1 19  1  0
  1 20  1  0
  3 21  1  0
  5 22  1  0
  7 23  1  6
  8 24  1  0
  8 25  1  0
  9 26  1  6
 10 27  1  0
 10 28  1  0
 11 29  1  0
 11 30  1  0
 12 31  1  0
 16 32  1  0
 18 33  1  0
 18 34  1  0
M  ISO  8  19   8  20   8  21  14  22  14  23  13  24  13  25  13  26  13
M  ISO  6  27   5  28   5  29   8  30   8  31  14  32  14
M  END
>  <minimizedAffinity>  (1) 
-4.93468857

>  <minimizedRMSD>  (1) 
0.531964898

$$$$
