
     RDKit          3D

 47 49  0  0  1  0  0  0  0  0999 V2000
   45.5740   34.5530   42.9380 C   0  0  0  0  0  0  0  0  0  0  0  0
   45.1140   33.7250   43.9510 C   0  0  0  0  0  0  0  0  0  0  0  0
   46.1820   33.2230   44.5780 N   0  0  0  0  0  0  0  0  0  0  0  0
   47.3140   33.7010   44.0010 C   0  0  0  0  0  0  0  0  0  0  0  0
   46.9260   34.5190   42.9920 N   0  0  0  0  0  0  0  0  0  0  0  0
   47.7910   35.2400   42.1160 C   0  0  1  0  0  0  0  0  0  0  0  0
   49.2510   35.0910   42.0730 C   0  0  0  0  0  0  0  0  0  0  0  0
   48.4400   34.3750   41.0350 C   0  0  2  0  0  0  0  0  0  0  0  0
   48.3750   34.8340   39.6110 C   0  0  0  0  0  0  0  0  0  0  0  0
   47.7600   33.8360   38.6620 C   0  0  0  0  0  0  0  0  0  0  0  0
   44.6770   35.2970   42.0160 C   0  0  0  0  0  0  0  0  0  0  0  0
   44.5410   34.5030   40.7260 C   0  0  0  0  0  0  0  0  0  0  0  0
   42.1340   34.6890   41.2550 C   0  0  0  0  0  0  0  0  0  0  0  0
   43.1480   34.5050   40.3110 C   0  0  0  0  0  0  0  0  0  0  0  0
   42.7700   34.3290   39.0020 C   0  0  0  0  0  0  0  0  0  0  0  0
   41.4320   34.3430   38.6980 N   0  0  0  0  0  0  0  0  0  0  0  0
   40.4960   34.5250   39.6450 C   0  0  0  0  0  0  0  0  0  0  0  0
   40.8360   34.6970   40.9180 N   0  0  0  0  0  0  0  0  0  0  0  0
   43.7160   34.1370   37.9900 N   0  0  0  0  0  0  0  0  0  0  0  0
   39.0670   34.5200   39.1800 C   0  0  0  0  0  0  0  0  0  0  0  0
   38.9610   34.2400   37.7190 C   0  0  0  0  0  0  0  0  0  0  0  0
   38.3230   33.5160   40.0420 C   0  0  0  0  0  0  0  0  0  0  0  0
   44.0612   33.5189   44.1942 H   0  0  0  0  0  0  0  0  0  0  0  0
   48.3481   33.4690   44.2957 H   0  0  0  0  0  0  0  0  0  0  0  0
   47.1667   36.1408   42.2099 H   0  0  0  0  0  0  0  0  0  0  0  0
   49.8771   35.9466   41.7798 H   0  0  0  0  0  0  0  0  0  0  0  0
   50.0103   34.7752   42.8035 H   0  0  0  0  0  0  0  0  0  0  0  0
   48.3836   33.3325   40.6886 H   0  0  0  0  0  0  0  0  0  0  0  0
   47.7778   35.7571   39.5740 H   0  0  0  0  0  0  0  0  0  0  0  0
   49.4139   34.9818   39.2811 H   0  0  0  0  0  0  0  0  0  0  0  0
   47.2682   33.0378   39.2374 H   0  0  0  0  0  0  0  0  0  0  0  0
   47.0170   34.3423   38.0283 H   0  0  0  0  0  0  0  0  0  0  0  0
   48.5463   33.4000   38.0283 H   0  0  0  0  0  0  0  0  0  0  0  0
   43.6878   35.4209   42.4810 H   0  0  0  0  0  0  0  0  0  0  0  0
   45.0975   36.2909   41.8031 H   0  0  0  0  0  0  0  0  0  0  0  0
   45.1595   34.9648   39.9423 H   0  0  0  0  0  0  0  0  0  0  0  0
   44.8773   33.4686   40.8903 H   0  0  0  0  0  0  0  0  0  0  0  0
   42.4099   34.8321   42.3102 H   0  0  0  0  0  0  0  0  0  0  0  0
   43.4086   34.0072   37.0156 H   0  0  0  0  0  0  0  0  0  0  0  0
   44.7201   34.1254   38.2191 H   0  0  0  0  0  0  0  0  0  0  0  0
   38.6094   35.5130   39.3002 H   0  0  0  0  0  0  0  0  0  0  0  0
   38.5752   33.2210   37.5680 H   0  0  0  0  0  0  0  0  0  0  0  0
   38.2748   34.9642   37.2557 H   0  0  0  0  0  0  0  0  0  0  0  0
   39.9548   34.3283   37.2557 H   0  0  0  0  0  0  0  0  0  0  0  0
   38.4939   33.7466   41.1039 H   0  0  0  0  0  0  0  0  0  0  0  0
   37.2464   33.5717   39.8234 H   0  0  0  0  0  0  0  0  0  0  0  0
   38.6896   32.5022   39.8234 H   0  0  0  0  0  0  0  0  0  0  0  0
  1  5  1  0
  1  2  2  0
  2  3  1  0
  4  3  2  0
  5  4  1  0
  6  5  1  0
  7  6  1  0
  8  7  1  0
  8  6  1  0
  9  8  1  0
 10  9  1  0
 11  1  1  0
 12 11  1  0
 14 12  1  0
 14 13  2  0
 15 14  1  0
 16 15  2  0
 16 17  1  0
 17 18  2  0
 18 13  1  0
 19 15  1  0
 20 17  1  0
 20 22  1  0
 21 20  1  0
  2 23  1  0
  4 24  1  0
  6 25  1  6
  7 26  1  0
  7 27  1  0
  8 28  1  6
  9 29  1  0
  9 30  1  0
 10 31  1  0
 10 32  1  0
 10 33  1  0
 11 34  1  0
 11 35  1  0
 12 36  1  0
 12 37  1  0
 13 38  1  0
 19 39  1  0
 19 40  1  0
 20 41  1  0
 21 42  1  0
 21 43  1  0
 21 44  1  0
 22 45  1  0
 22 46  1  0
 22 47  1  0
M  ISO  8  23  14  24  14  25  13  26  13  27  13  28  13  29   8  30   8
M  ISO  8  31   8  32   8  33   8  34   8  35   8  36   8  37   8  38  14
M  ISO  7  41   8  42   8  43   8  44   8  45   8  46   8  47   8
M  END
>  <minimizedAffinity>  (1) 
-6.01068592

>  <minimizedRMSD>  (1) 
1.63602209

$$$$
