
     RDKit          3D

 53 56  0  0  1  0  0  0  0  0999 V2000
   44.9700   35.3750   42.5810 C   0  0  0  0  0  0  0  0  0  0  0  0
   45.8010   34.4320   43.3900 C   0  0  0  0  0  0  0  0  0  0  0  0
   45.2730   33.5420   44.3070 C   0  0  0  0  0  0  0  0  0  0  0  0
   46.3010   32.8610   44.8410 N   0  0  0  0  0  0  0  0  0  0  0  0
   47.4560   33.2870   44.2970 C   0  0  0  0  0  0  0  0  0  0  0  0
   47.1390   34.2550   43.4040 N   0  0  0  0  0  0  0  0  0  0  0  0
   48.0620   34.9930   42.5860 C   0  0  1  0  0  0  0  0  0  0  0  0
   49.4710   34.6480   42.3990 C   0  0  0  0  0  0  0  0  0  0  0  0
   48.5140   34.2440   41.3290 C   0  0  2  0  0  0  0  0  0  0  0  0
   48.4390   34.9370   40.0070 C   0  0  0  0  0  0  0  0  0  0  0  0
   47.9920   34.0740   38.8580 C   0  0  0  0  0  0  0  0  0  0  0  0
   44.8250   34.8030   41.1780 C   0  0  0  0  0  0  0  0  0  0  0  0
   42.4530   35.3670   40.7470 C   0  0  0  0  0  0  0  0  0  0  0  0
   43.4480   34.4020   40.9830 C   0  0  0  0  0  0  0  0  0  0  0  0
   43.0350   33.0950   41.0170 C   0  0  0  0  0  0  0  0  0  0  0  0
   41.7170   32.8060   40.8230 N   0  0  0  0  0  0  0  0  0  0  0  0
   40.8060   33.7720   40.6000 C   0  0  0  0  0  0  0  0  0  0  0  0
   41.1710   35.0450   40.5620 N   0  0  0  0  0  0  0  0  0  0  0  0
   43.9520   32.0610   41.2460 N   0  0  0  0  0  0  0  0  0  0  0  0
   39.4310   33.4680   40.3980 N   0  0  0  0  0  0  0  0  0  0  0  0
   38.7930   32.3160   41.0040 C   0  0  0  0  0  0  0  0  0  0  0  0
   38.3420   31.3830   39.9010 C   0  0  0  0  0  0  0  0  0  0  0  0
   38.6360   31.9650   38.5300 C   0  0  0  0  0  0  0  0  0  0  0  0
   38.1380   33.3810   38.3830 C   0  0  0  0  0  0  0  0  0  0  0  0
   38.5230   34.2450   39.5890 C   0  0  0  0  0  0  0  0  0  0  0  0
   43.9773   35.4850   43.0420 H   0  0  0  0  0  0  0  0  0  0  0  0
   45.4514   36.3632   42.5390 H   0  0  0  0  0  0  0  0  0  0  0  0
   44.2086   33.4149   44.5537 H   0  0  0  0  0  0  0  0  0  0  0  0
   48.4655   32.9191   44.5327 H   0  0  0  0  0  0  0  0  0  0  0  0
   47.5894   35.9427   42.8770 H   0  0  0  0  0  0  0  0  0  0  0  0
   50.2034   35.4443   42.2002 H   0  0  0  0  0  0  0  0  0  0  0  0
   50.2108   34.1054   43.0058 H   0  0  0  0  0  0  0  0  0  0  0  0
   48.2842   33.2952   40.8221 H   0  0  0  0  0  0  0  0  0  0  0  0
   47.7308   35.7735   40.1005 H   0  0  0  0  0  0  0  0  0  0  0  0
   49.4647   35.2557   39.7697 H   0  0  0  0  0  0  0  0  0  0  0  0
   47.5189   33.1606   39.2478 H   0  0  0  0  0  0  0  0  0  0  0  0
   47.2677   34.6284   38.2432 H   0  0  0  0  0  0  0  0  0  0  0  0
   48.8627   33.8022   38.2432 H   0  0  0  0  0  0  0  0  0  0  0  0
   45.0968   35.5681   40.4359 H   0  0  0  0  0  0  0  0  0  0  0  0
   45.4901   33.9355   41.0552 H   0  0  0  0  0  0  0  0  0  0  0  0
   42.7422   36.4278   40.7136 H   0  0  0  0  0  0  0  0  0  0  0  0
   43.6300   31.0829   41.2693 H   0  0  0  0  0  0  0  0  0  0  0  0
   44.9482   32.2789   41.3910 H   0  0  0  0  0  0  0  0  0  0  0  0
   39.5082   31.7976   41.6596 H   0  0  0  0  0  0  0  0  0  0  0  0
   37.9288   32.6357   41.6049 H   0  0  0  0  0  0  0  0  0  0  0  0
   38.8714   30.4243   40.0041 H   0  0  0  0  0  0  0  0  0  0  0  0
   37.2551   31.2397   39.9910 H   0  0  0  0  0  0  0  0  0  0  0  0
   39.7241   31.9556   38.3690 H   0  0  0  0  0  0  0  0  0  0  0  0
   38.1109   31.3479   37.7861 H   0  0  0  0  0  0  0  0  0  0  0  0
   38.5763   33.8207   37.4749 H   0  0  0  0  0  0  0  0  0  0  0  0
   37.0403   33.3535   38.3171 H   0  0  0  0  0  0  0  0  0  0  0  0
   39.0161   35.1678   39.2495 H   0  0  0  0  0  0  0  0  0  0  0  0
   37.6310   34.5292   40.1665 H   0  0  0  0  0  0  0  0  0  0  0  0
  1  2  1  0
  2  6  1  0
  2  3  2  0
  3  4  1  0
  5  4  2  0
  6  5  1  0
  7  6  1  0
  8  7  1  0
  9  8  1  0
  9  7  1  0
 10  9  1  0
 11 10  1  0
 12  1  1  0
 13 14  2  0
 14 15  1  0
 14 12  1  0
 15 19  1  0
 16 15  2  0
 17 16  1  0
 18 17  2  0
 18 13  1  0
 20 17  1  0
 20 21  1  0
 22 21  1  0
 23 22  1  0
 24 23  1  0
 24 25  1  0
 25 20  1  0
  1 26  1  0
  1 27  1  0
  3 28  1  0
  5 29  1  0
  7 30  1  6
  8 31  1  0
  8 32  1  0
  9 33  1  6
 10 34  1  0
 10 35  1  0
 11 36  1  0
 11 37  1  0
 11 38  1  0
 12 39  1  0
 12 40  1  0
 13 41  1  0
 19 42  1  0
 19 43  1  0
 21 44  1  0
 21 45  1  0
 22 46  1  0
 22 47  1  0
 23 48  1  0
 23 49  1  0
 24 50  1  0
 24 51  1  0
 25 52  1  0
 25 53  1  0
M  ISO  8  26   8  27   8  28  14  29  14  30  13  31  13  32  13  33  13
M  ISO  8  34   8  35   8  36   8  37   8  38   8  39   8  40   8  41  14
M  ISO  8  44  13  45  13  46  13  47  13  48  13  49  13  50  13  51  13
M  ISO  2  52  13  53  13
M  END
>  <minimizedAffinity>  (1) 
-6.0297513

>  <minimizedRMSD>  (1) 
1.28193295

$$$$
