
     RDKit          3D

 45 47  0  0  1  0  0  0  0  0999 V2000
   45.1710   35.4920   42.6970 C   0  0  0  0  0  0  0  0  0  0  0  0
   45.8960   34.4380   43.4670 C   0  0  0  0  0  0  0  0  0  0  0  0
   45.2580   33.5720   44.3410 C   0  0  0  0  0  0  0  0  0  0  0  0
   46.1930   32.7570   44.8620 N   0  0  0  0  0  0  0  0  0  0  0  0
   47.3970   33.0750   44.3510 C   0  0  0  0  0  0  0  0  0  0  0  0
   47.2020   34.1120   43.4930 N   0  0  0  0  0  0  0  0  0  0  0  0
   48.2140   34.7760   42.7200 C   0  0  1  0  0  0  0  0  0  0  0  0
   49.5330   34.2030   42.4220 C   0  0  0  0  0  0  0  0  0  0  0  0
   48.4850   34.1170   41.3690 C   0  0  2  0  0  0  0  0  0  0  0  0
   48.4840   34.9760   40.1380 C   0  0  0  0  0  0  0  0  0  0  0  0
   48.1240   34.2640   38.8710 C   0  0  0  0  0  0  0  0  0  0  0  0
   44.8240   34.9270   41.3470 C   0  0  0  0  0  0  0  0  0  0  0  0
   42.4910   35.5860   41.7900 C   0  0  0  0  0  0  0  0  0  0  0  0
   43.4010   34.6440   41.3010 C   0  0  0  0  0  0  0  0  0  0  0  0
   42.8820   33.4850   40.7920 C   0  0  0  0  0  0  0  0  0  0  0  0
   41.5300   33.3070   40.7880 N   0  0  0  0  0  0  0  0  0  0  0  0
   40.6890   34.2440   41.2710 C   0  0  0  0  0  0  0  0  0  0  0  0
   41.1690   35.3610   41.7630 N   0  0  0  0  0  0  0  0  0  0  0  0
   43.7240   32.4730   40.2730 N   0  0  0  0  0  0  0  0  0  0  0  0
   39.3040   33.9260   41.2000 N   0  0  0  0  0  0  0  0  0  0  0  0
   38.9200   32.6790   40.6370 C   0  0  0  0  0  0  0  0  0  0  0  0
   39.5380   32.1790   39.6290 N   0  0  0  0  0  0  0  0  0  0  0  0
   37.8160   31.9290   41.1800 N   0  0  0  0  0  0  0  0  0  0  0  0
   40.3300   32.5580   39.1150 H   0  0  0  0  0  0  0  0  0  0  0  0
   44.2518   35.7773   43.2295 H   0  0  0  0  0  0  0  0  0  0  0  0
   45.8024   36.3858   42.5858 H   0  0  0  0  0  0  0  0  0  0  0  0
   44.1818   33.5543   44.5677 H   0  0  0  0  0  0  0  0  0  0  0  0
   48.3560   32.5887   44.5832 H   0  0  0  0  0  0  0  0  0  0  0  0
   47.9316   35.7535   43.1381 H   0  0  0  0  0  0  0  0  0  0  0  0
   50.3956   34.8701   42.2775 H   0  0  0  0  0  0  0  0  0  0  0  0
   50.1766   33.4645   42.9224 H   0  0  0  0  0  0  0  0  0  0  0  0
   48.0757   33.2913   40.7684 H   0  0  0  0  0  0  0  0  0  0  0  0
   47.7596   35.7897   40.2901 H   0  0  0  0  0  0  0  0  0  0  0  0
   49.5173   35.3304   40.0091 H   0  0  0  0  0  0  0  0  0  0  0  0
   47.6399   33.3065   39.1134 H   0  0  0  0  0  0  0  0  0  0  0  0
   47.4323   34.8865   38.2844 H   0  0  0  0  0  0  0  0  0  0  0  0
   49.0353   34.0760   38.2844 H   0  0  0  0  0  0  0  0  0  0  0  0
   45.0795   35.6576   40.5654 H   0  0  0  0  0  0  0  0  0  0  0  0
   45.3914   34.0002   41.1766 H   0  0  0  0  0  0  0  0  0  0  0  0
   42.8674   36.5322   42.2059 H   0  0  0  0  0  0  0  0  0  0  0  0
   43.3150   31.6070   39.8939 H   0  0  0  0  0  0  0  0  0  0  0  0
   44.7458   32.6024   40.2743 H   0  0  0  0  0  0  0  0  0  0  0  0
   38.5945   34.5859   41.5494 H   0  0  0  0  0  0  0  0  0  0  0  0
   37.5504   31.0267   40.7603 H   0  0  0  0  0  0  0  0  0  0  0  0
   37.2924   32.2952   41.9879 H   0  0  0  0  0  0  0  0  0  0  0  0
  1  2  1  0
  2  6  1  0
  2  3  2  0
  3  4  1  0
  5  4  2  0
  6  5  1  0
  7  6  1  0
  8  7  1  0
  9  8  1  0
  9  7  1  0
 10  9  1  0
 11 10  1  0
 12  1  1  0
 14 12  1  0
 14 13  2  0
 15 14  1  0
 16 15  2  0
 16 17  1  0
 17 18  2  0
 18 13  1  0
 19 15  1  0
 20 17  1  0
 21 23  1  0
 21 20  1  0
 22 21  2  0
 24 22  1  0
  1 25  1  0
  1 26  1  0
  3 27  1  0
  5 28  1  0
  7 29  1  6
  8 30  1  0
  8 31  1  0
  9 32  1  6
 10 33  1  0
 10 34  1  0
 11 35  1  0
 11 36  1  0
 11 37  1  0
 12 38  1  0
 12 39  1  0
 13 40  1  0
 19 41  1  0
 19 42  1  0
 20 43  1  0
 23 44  1  0
 23 45  1  0
M  ISO  8  25   8  26   8  27  14  28  14  29  13  30  13  31  13  32  13
M  ISO  8  33   8  34   8  35   8  36   8  37   8  38   8  39   8  40  14
M  END
>  <minimizedAffinity>  (1) 
-5.81529045

>  <minimizedRMSD>  (1) 
1.40299892

$$$$
