
     RDKit          3D

 45 48  0  0  1  0  0  0  0  0999 V2000
   45.6250   34.6700   43.2660 C   0  0  0  0  0  0  0  0  0  0  0  0
   45.2270   33.8680   44.3120 C   0  0  0  0  0  0  0  0  0  0  0  0
   46.3250   33.2590   44.7970 N   0  0  0  0  0  0  0  0  0  0  0  0
   47.4000   33.6470   44.0970 C   0  0  0  0  0  0  0  0  0  0  0  0
   46.9600   34.5210   43.1490 N   0  0  0  0  0  0  0  0  0  0  0  0
   47.7680   35.1900   42.1710 C   0  0  1  0  0  0  0  0  0  0  0  0
   49.2240   35.0270   42.0440 C   0  0  0  0  0  0  0  0  0  0  0  0
   48.3380   34.2760   41.1000 C   0  0  2  0  0  0  0  0  0  0  0  0
   48.1770   34.6520   39.6660 C   0  0  0  0  0  0  0  0  0  0  0  0
   47.4460   33.6330   38.8200 C   0  0  0  0  0  0  0  0  0  0  0  0
   44.6780   35.5120   42.4700 C   0  0  0  0  0  0  0  0  0  0  0  0
   44.5730   34.9340   41.0790 C   0  0  0  0  0  0  0  0  0  0  0  0
   42.1870   35.2310   41.6180 C   0  0  0  0  0  0  0  0  0  0  0  0
   43.1740   34.8670   40.6910 C   0  0  0  0  0  0  0  0  0  0  0  0
   42.7610   34.4620   39.4490 C   0  0  0  0  0  0  0  0  0  0  0  0
   41.4180   34.4390   39.1980 N   0  0  0  0  0  0  0  0  0  0  0  0
   40.5010   34.7890   40.0960 C   0  0  0  0  0  0  0  0  0  0  0  0
   40.8800   35.1810   41.2930 N   0  0  0  0  0  0  0  0  0  0  0  0
   43.6890   34.0790   38.4590 N   0  0  0  0  0  0  0  0  0  0  0  0
   39.0490   34.7340   39.7320 C   0  0  0  0  0  0  0  0  0  0  0  0
   38.3160   33.4390   40.0270 C   0  0  0  0  0  0  0  0  0  0  0  0
   38.5720   33.9020   38.6060 C   0  0  0  0  0  0  0  0  0  0  0  0
   44.1988   33.7470   44.6837 H   0  0  0  0  0  0  0  0  0  0  0  0
   48.4386   33.3220   44.2572 H   0  0  0  0  0  0  0  0  0  0  0  0
   47.1512   36.0969   42.2552 H   0  0  0  0  0  0  0  0  0  0  0  0
   49.8359   35.8615   41.6708 H   0  0  0  0  0  0  0  0  0  0  0  0
   50.0283   34.7387   42.7368 H   0  0  0  0  0  0  0  0  0  0  0  0
   48.2532   33.2188   40.8082 H   0  0  0  0  0  0  0  0  0  0  0  0
   47.6176   35.5981   39.6213 H   0  0  0  0  0  0  0  0  0  0  0  0
   49.1926   34.7275   39.2503 H   0  0  0  0  0  0  0  0  0  0  0  0
   46.9307   32.9147   39.4747 H   0  0  0  0  0  0  0  0  0  0  0  0
   46.7081   34.1452   38.1851 H   0  0  0  0  0  0  0  0  0  0  0  0
   48.1676   33.0981   38.1851 H   0  0  0  0  0  0  0  0  0  0  0  0
   43.6875   35.5090   42.9484 H   0  0  0  0  0  0  0  0  0  0  0  0
   45.0462   36.5474   42.4202 H   0  0  0  0  0  0  0  0  0  0  0  0
   45.1200   35.5754   40.3723 H   0  0  0  0  0  0  0  0  0  0  0  0
   45.0078   33.9237   41.0660 H   0  0  0  0  0  0  0  0  0  0  0  0
   42.4835   35.5619   42.6243 H   0  0  0  0  0  0  0  0  0  0  0  0
   43.3576   33.7777   37.5315 H   0  0  0  0  0  0  0  0  0  0  0  0
   44.6983   34.1006   38.6633 H   0  0  0  0  0  0  0  0  0  0  0  0
   38.9228   35.7978   39.9817 H   0  0  0  0  0  0  0  0  0  0  0  0
   38.8601   32.5744   40.4350 H   0  0  0  0  0  0  0  0  0  0  0  0
   37.4313   33.1512   40.6139 H   0  0  0  0  0  0  0  0  0  0  0  0
   37.7342   34.2503   37.9842 H   0  0  0  0  0  0  0  0  0  0  0  0
   39.0469   33.4537   37.7208 H   0  0  0  0  0  0  0  0  0  0  0  0
  1  2  2  0
  2  3  1  0
  4  3  2  0
  5  1  1  0
  5  4  1  0
  6  5  1  0
  7  6  1  0
  8  7  1  0
  8  6  1  0
  9  8  1  0
 10  9  1  0
 11  1  1  0
 12 11  1  0
 14 12  1  0
 14 13  2  0
 15 14  1  0
 16 15  2  0
 16 17  1  0
 17 18  2  0
 18 13  1  0
 19 15  1  0
 20 21  1  0
 20 17  1  0
 22 20  1  0
 22 21  1  0
  2 23  1  0
  4 24  1  0
  6 25  1  6
  7 26  1  0
  7 27  1  0
  8 28  1  6
  9 29  1  0
  9 30  1  0
 10 31  1  0
 10 32  1  0
 10 33  1  0
 11 34  1  0
 11 35  1  0
 12 36  1  0
 12 37  1  0
 13 38  1  0
 19 39  1  0
 19 40  1  0
 20 41  1  0
 21 42  1  0
 21 43  1  0
 22 44  1  0
 22 45  1  0
M  ISO  8  23  14  24  14  25  13  26  13  27  13  28  13  29   8  30   8
M  ISO  8  31   8  32   8  33   8  34   8  35   8  36   8  37   8  38  14
M  ISO  5  41  13  42  13  43  13  44  13  45  13
M  END
>  <minimizedAffinity>  (1) 
-5.96127653

>  <minimizedRMSD>  (1) 
1.51813293

$$$$
