
     RDKit          3D

 52 55  0  0  1  0  0  0  0  0999 V2000
   44.8260   35.1180   42.1440 C   0  0  0  0  0  0  0  0  0  0  0  0
   45.6930   34.3410   43.0840 C   0  0  0  0  0  0  0  0  0  0  0  0
   45.1940   33.4470   44.0170 C   0  0  0  0  0  0  0  0  0  0  0  0
   46.2560   32.9440   44.6770 N   0  0  0  0  0  0  0  0  0  0  0  0
   47.3900   33.4750   44.2050 C   0  0  0  0  0  0  0  0  0  0  0  0
   47.0360   34.3370   43.2220 N   0  0  0  0  0  0  0  0  0  0  0  0
   47.9290   35.1340   42.4350 C   0  0  1  0  0  0  0  0  0  0  0  0
   49.3800   34.9540   42.3670 C   0  0  0  0  0  0  0  0  0  0  0  0
   48.5530   34.3870   41.2490 C   0  0  2  0  0  0  0  0  0  0  0  0
   48.4980   35.0190   39.8960 C   0  0  0  0  0  0  0  0  0  0  0  0
   48.0430   34.1030   38.7900 C   0  0  0  0  0  0  0  0  0  0  0  0
   44.8590   34.4290   40.7870 C   0  0  0  0  0  0  0  0  0  0  0  0
   42.7460   35.1980   39.7590 C   0  0  0  0  0  0  0  0  0  0  0  0
   43.4920   34.1760   40.3620 C   0  0  0  0  0  0  0  0  0  0  0  0
   42.8660   32.9510   40.5230 C   0  0  0  0  0  0  0  0  0  0  0  0
   41.5890   32.8250   40.0910 N   0  0  0  0  0  0  0  0  0  0  0  0
   40.9030   33.8140   39.5210 C   0  0  0  0  0  0  0  0  0  0  0  0
   41.4730   34.9930   39.3550 N   0  0  0  0  0  0  0  0  0  0  0  0
   43.5410   31.8780   41.1160 N   0  0  0  0  0  0  0  0  0  0  0  0
   39.5640   33.5580   39.1080 N   0  0  0  0  0  0  0  0  0  0  0  0
   38.9650   34.2570   37.9680 C   0  0  0  0  0  0  0  0  0  0  0  0
   38.0130   33.2920   37.3100 C   0  0  0  0  0  0  0  0  0  0  0  0
   38.4250   31.9170   37.4710 N   0  0  0  0  0  0  0  0  0  0  0  0
   38.4620   31.4600   38.8260 C   0  0  0  0  0  0  0  0  0  0  0  0
   38.7250   32.6010   39.7830 C   0  0  0  0  0  0  0  0  0  0  0  0
   43.7940   35.1431   42.5239 H   0  0  0  0  0  0  0  0  0  0  0  0
   45.1930   36.1511   42.0546 H   0  0  0  0  0  0  0  0  0  0  0  0
   44.1364   33.1963   44.1863 H   0  0  0  0  0  0  0  0  0  0  0  0
   48.4114   33.2543   44.5486 H   0  0  0  0  0  0  0  0  0  0  0  0
   47.3314   36.0337   42.6433 H   0  0  0  0  0  0  0  0  0  0  0  0
   50.0272   35.8230   42.1776 H   0  0  0  0  0  0  0  0  0  0  0  0
   50.1306   34.5326   43.0519 H   0  0  0  0  0  0  0  0  0  0  0  0
   48.4705   33.3964   40.7780 H   0  0  0  0  0  0  0  0  0  0  0  0
   47.8026   35.8700   39.9436 H   0  0  0  0  0  0  0  0  0  0  0  0
   49.5285   35.3145   39.6497 H   0  0  0  0  0  0  0  0  0  0  0  0
   47.5935   33.1981   39.2249 H   0  0  0  0  0  0  0  0  0  0  0  0
   47.2972   34.6206   38.1687 H   0  0  0  0  0  0  0  0  0  0  0  0
   48.9060   33.8215   38.1687 H   0  0  0  0  0  0  0  0  0  0  0  0
   45.3609   35.0778   40.0541 H   0  0  0  0  0  0  0  0  0  0  0  0
   45.4114   33.4806   40.8604 H   0  0  0  0  0  0  0  0  0  0  0  0
   43.2059   36.1863   39.6118 H   0  0  0  0  0  0  0  0  0  0  0  0
   43.0663   30.9712   41.2310 H   0  0  0  0  0  0  0  0  0  0  0  0
   44.5125   31.9951   41.4374 H   0  0  0  0  0  0  0  0  0  0  0  0
   38.4204   35.1476   38.3147 H   0  0  0  0  0  0  0  0  0  0  0  0
   39.7390   34.5888   37.2603 H   0  0  0  0  0  0  0  0  0  0  0  0
   37.9628   33.5224   36.2356 H   0  0  0  0  0  0  0  0  0  0  0  0
   37.0314   33.4070   37.7928 H   0  0  0  0  0  0  0  0  0  0  0  0
   37.7664   31.3213   36.9492 H   0  0  0  0  0  0  0  0  0  0  0  0
   37.4950   30.9988   39.0753 H   0  0  0  0  0  0  0  0  0  0  0  0
   39.2782   30.7291   38.9240 H   0  0  0  0  0  0  0  0  0  0  0  0
   39.2349   32.2251   40.6823 H   0  0  0  0  0  0  0  0  0  0  0  0
   37.7787   33.0697   40.0910 H   0  0  0  0  0  0  0  0  0  0  0  0
  1  2  1  0
  2  6  1  0
  2  3  2  0
  3  4  1  0
  5  4  2  0
  6  5  1  0
  7  6  1  0
  8  7  1  0
  9  8  1  0
  9  7  1  0
 10  9  1  0
 11 10  1  0
 12  1  1  0
 13 14  2  0
 14 15  1  0
 14 12  1  0
 15 19  1  0
 16 15  2  0
 17 16  1  0
 18 17  2  0
 18 13  1  0
 20 17  1  0
 20 25  1  0
 21 20  1  0
 22 23  1  0
 22 21  1  0
 23 24  1  0
 24 25  1  0
  1 26  1  0
  1 27  1  0
  3 28  1  0
  5 29  1  0
  7 30  1  6
  8 31  1  0
  8 32  1  0
  9 33  1  6
 10 34  1  0
 10 35  1  0
 11 36  1  0
 11 37  1  0
 11 38  1  0
 12 39  1  0
 12 40  1  0
 13 41  1  0
 19 42  1  0
 19 43  1  0
 21 44  1  0
 21 45  1  0
 22 46  1  0
 22 47  1  0
 23 48  1  0
 24 49  1  0
 24 50  1  0
 25 51  1  0
 25 52  1  0
M  ISO  8  26   8  27   8  28  14  29  14  30  13  31  13  32  13  33  13
M  ISO  8  34   8  35   8  36   8  37   8  38   8  39   8  40   8  41  14
M  ISO  8  44  13  45  13  46  13  47  13  48   5  49  13  50  13  51  13
M  ISO  1  52  13
M  END
>  <minimizedAffinity>  (1) 
-5.59164762

>  <minimizedRMSD>  (1) 
1.30979741

$$$$
