
     RDKit          3D

 44 47  0  0  1  0  0  0  0  0999 V2000
   44.9960   34.9670   43.1270 C   0  0  0  0  0  0  0  0  0  0  0  0
   45.8870   33.8520   43.5730 C   0  0  0  0  0  0  0  0  0  0  0  0
   45.4160   32.7290   44.2170 C   0  0  0  0  0  0  0  0  0  0  0  0
   46.4750   31.9320   44.4760 N   0  0  0  0  0  0  0  0  0  0  0  0
   47.5990   32.5200   44.0140 C   0  0  0  0  0  0  0  0  0  0  0  0
   47.2240   33.7000   43.4600 N   0  0  0  0  0  0  0  0  0  0  0  0
   48.0900   34.6530   42.8460 C   0  0  1  0  0  0  0  0  0  0  0  0
   49.5500   34.5030   42.7010 C   0  0  0  0  0  0  0  0  0  0  0  0
   48.6890   34.2000   41.5100 C   0  0  2  0  0  0  0  0  0  0  0  0
   48.6000   35.1190   40.3400 C   0  0  0  0  0  0  0  0  0  0  0  0
   48.1970   34.4500   39.0430 C   0  0  0  0  0  0  0  0  0  0  0  0
   45.1880   35.1610   41.6320 C   0  0  0  0  0  0  0  0  0  0  0  0
   42.7950   35.5570   41.2310 C   0  0  0  0  0  0  0  0  0  0  0  0
   43.9520   34.8300   40.9500 C   0  0  0  0  0  0  0  0  0  0  0  0
   43.8330   33.8270   40.0240 C   0  0  0  0  0  0  0  0  0  0  0  0
   42.6310   33.5980   39.4430 N   0  0  0  0  0  0  0  0  0  0  0  0
   41.5440   34.3260   39.7460 C   0  0  0  0  0  0  0  0  0  0  0  0
   41.6240   35.2960   40.6320 N   0  0  0  0  0  0  0  0  0  0  0  0
   44.9590   33.0380   39.6790 N   0  0  0  0  0  0  0  0  0  0  0  0
   40.3170   34.0140   39.0830 N   0  0  0  0  0  0  0  0  0  0  0  0
   39.7050   34.5440   37.9850 C   0  0  0  0  0  0  0  0  0  0  0  0
   38.5520   33.8930   37.7620 N   0  0  0  0  0  0  0  0  0  0  0  0
   38.4170   32.9530   38.7020 C   0  0  0  0  0  0  0  0  0  0  0  0
   39.5040   33.0520   39.4880 N   0  0  0  0  0  0  0  0  0  0  0  0
   43.9469   34.7119   43.3374 H   0  0  0  0  0  0  0  0  0  0  0  0
   45.2482   35.8926   43.6652 H   0  0  0  0  0  0  0  0  0  0  0  0
   44.3671   32.5194   44.4738 H   0  0  0  0  0  0  0  0  0  0  0  0
   48.6217   32.1195   44.0750 H   0  0  0  0  0  0  0  0  0  0  0  0
   47.4919   35.4765   43.2632 H   0  0  0  0  0  0  0  0  0  0  0  0
   50.1912   35.3968   42.6959 H   0  0  0  0  0  0  0  0  0  0  0  0
   50.3208   33.9433   43.2511 H   0  0  0  0  0  0  0  0  0  0  0  0
   48.5939   33.3402   40.8305 H   0  0  0  0  0  0  0  0  0  0  0  0
   47.8570   35.8968   40.5703 H   0  0  0  0  0  0  0  0  0  0  0  0
   49.6113   35.5219   40.1821 H   0  0  0  0  0  0  0  0  0  0  0  0
   47.6410   33.5269   39.2639 H   0  0  0  0  0  0  0  0  0  0  0  0
   47.5593   35.1319   38.4614 H   0  0  0  0  0  0  0  0  0  0  0  0
   49.0980   34.2051   38.4614 H   0  0  0  0  0  0  0  0  0  0  0  0
   45.4530   36.2088   41.4272 H   0  0  0  0  0  0  0  0  0  0  0  0
   45.9967   34.5072   41.2734 H   0  0  0  0  0  0  0  0  0  0  0  0
   42.8449   36.3716   41.9686 H   0  0  0  0  0  0  0  0  0  0  0  0
   44.8662   32.2848   38.9826 H   0  0  0  0  0  0  0  0  0  0  0  0
   45.8700   33.2179   40.1248 H   0  0  0  0  0  0  0  0  0  0  0  0
   40.0948   35.3742   37.3777 H   0  0  0  0  0  0  0  0  0  0  0  0
   37.5849   32.2418   38.8110 H   0  0  0  0  0  0  0  0  0  0  0  0
  1  2  1  0
  2  3  2  0
  3  4  1  0
  5  4  2  0
  6  2  1  0
  6  5  1  0
  7  6  1  0
  8  7  1  0
  9  8  1  0
  9  7  1  0
 10  9  1  0
 11 10  1  0
 12  1  1  0
 14 13  2  0
 14 12  1  0
 15 14  1  0
 16 17  1  0
 16 15  2  0
 17 18  2  0
 18 13  1  0
 19 15  1  0
 20 24  1  0
 20 17  1  0
 21 20  1  0
 22 21  2  0
 22 23  1  0
 23 24  2  0
  1 25  1  0
  1 26  1  0
  3 27  1  0
  5 28  1  0
  7 29  1  6
  8 30  1  0
  8 31  1  0
  9 32  1  6
 10 33  1  0
 10 34  1  0
 11 35  1  0
 11 36  1  0
 11 37  1  0
 12 38  1  0
 12 39  1  0
 13 40  1  0
 19 41  1  0
 19 42  1  0
 21 43  1  0
 23 44  1  0
M  ISO  8  25   8  26   8  27  14  28  14  29  13  30  13  31  13  32  13
M  ISO  8  33   8  34   8  35   8  36   8  37   8  38   8  39   8  40  14
M  ISO  2  43  14  44  14
M  END
>  <minimizedAffinity>  (1) 
-5.42990732

>  <minimizedRMSD>  (1) 
1.93467498

$$$$
