
     RDKit          3D

 50 52  0  0  1  0  0  0  0  0999 V2000
   45.5160   34.4200   42.7020 C   0  0  0  0  0  0  0  0  0  0  0  0
   45.1140   33.6720   43.7940 C   0  0  0  0  0  0  0  0  0  0  0  0
   46.2180   33.4160   44.5180 N   0  0  0  0  0  0  0  0  0  0  0  0
   47.2920   33.9670   43.9340 C   0  0  0  0  0  0  0  0  0  0  0  0
   46.8510   34.5870   42.8130 N   0  0  0  0  0  0  0  0  0  0  0  0
   47.6560   35.3110   41.8740 C   0  0  1  0  0  0  0  0  0  0  0  0
   49.1220   35.3030   41.8370 C   0  0  0  0  0  0  0  0  0  0  0  0
   48.3990   34.4280   40.8750 C   0  0  2  0  0  0  0  0  0  0  0  0
   48.2990   34.7460   39.4130 C   0  0  0  0  0  0  0  0  0  0  0  0
   47.6750   33.6580   38.5750 C   0  0  0  0  0  0  0  0  0  0  0  0
   44.5750   34.9080   41.6510 C   0  0  0  0  0  0  0  0  0  0  0  0
   44.4920   33.8640   40.5580 C   0  0  0  0  0  0  0  0  0  0  0  0
   42.6600   34.3880   38.9960 C   0  0  0  0  0  0  0  0  0  0  0  0
   43.1090   33.7160   40.1340 C   0  0  0  0  0  0  0  0  0  0  0  0
   42.2080   32.9360   40.8080 C   0  0  0  0  0  0  0  0  0  0  0  0
   40.9290   32.8610   40.3300 N   0  0  0  0  0  0  0  0  0  0  0  0
   40.5410   33.5280   39.2280 C   0  0  0  0  0  0  0  0  0  0  0  0
   41.3930   34.2820   38.5680 N   0  0  0  0  0  0  0  0  0  0  0  0
   42.5800   32.2250   41.9640 N   0  0  0  0  0  0  0  0  0  0  0  0
   39.1380   33.4060   38.7580 C   0  0  0  0  0  0  0  0  0  0  0  0
   38.2710   33.7480   39.9610 C   0  0  0  0  0  0  0  0  0  0  0  0
   38.8430   31.9620   38.3410 C   0  0  0  0  0  0  0  0  0  0  0  0
   38.8530   34.2840   37.5700 C   0  0  0  0  0  0  0  0  0  0  0  0
   44.0884   33.3487   44.0256 H   0  0  0  0  0  0  0  0  0  0  0  0
   48.3301   33.9239   44.2952 H   0  0  0  0  0  0  0  0  0  0  0  0
   46.9441   36.1494   41.8929 H   0  0  0  0  0  0  0  0  0  0  0  0
   49.6615   36.1877   41.4679 H   0  0  0  0  0  0  0  0  0  0  0  0
   49.9049   35.1286   42.5898 H   0  0  0  0  0  0  0  0  0  0  0  0
   48.4514   33.3587   40.6221 H   0  0  0  0  0  0  0  0  0  0  0  0
   47.6919   35.6564   39.3006 H   0  0  0  0  0  0  0  0  0  0  0  0
   49.3300   34.8672   39.0491 H   0  0  0  0  0  0  0  0  0  0  0  0
   47.2367   32.8937   39.2336 H   0  0  0  0  0  0  0  0  0  0  0  0
   46.8875   34.0903   37.9401 H   0  0  0  0  0  0  0  0  0  0  0  0
   48.4457   33.1966   37.9401 H   0  0  0  0  0  0  0  0  0  0  0  0
   43.5786   35.0660   42.0895 H   0  0  0  0  0  0  0  0  0  0  0  0
   44.9354   35.8606   41.2355 H   0  0  0  0  0  0  0  0  0  0  0  0
   45.1063   34.1796   39.7019 H   0  0  0  0  0  0  0  0  0  0  0  0
   44.8635   32.9019   40.9406 H   0  0  0  0  0  0  0  0  0  0  0  0
   43.3635   35.0211   38.4354 H   0  0  0  0  0  0  0  0  0  0  0  0
   41.8868   31.6437   42.4564 H   0  0  0  0  0  0  0  0  0  0  0  0
   43.5455   32.2859   42.3177 H   0  0  0  0  0  0  0  0  0  0  0  0
   38.8247   33.5296   40.8860 H   0  0  0  0  0  0  0  0  0  0  0  0
   38.0103   34.8163   39.9333 H   0  0  0  0  0  0  0  0  0  0  0  0
   37.3512   33.1453   39.9333 H   0  0  0  0  0  0  0  0  0  0  0  0
   38.7159   31.3397   39.2391 H   0  0  0  0  0  0  0  0  0  0  0  0
   37.9207   31.9344   37.7422 H   0  0  0  0  0  0  0  0  0  0  0  0
   39.6806   31.5749   37.7422 H   0  0  0  0  0  0  0  0  0  0  0  0
   38.5307   35.2769   37.9168 H   0  0  0  0  0  0  0  0  0  0  0  0
   39.7642   34.3858   36.9623 H   0  0  0  0  0  0  0  0  0  0  0  0
   38.0557   33.8312   36.9623 H   0  0  0  0  0  0  0  0  0  0  0  0
  1  5  1  0
  1  2  2  0
  2  3  1  0
  4  3  2  0
  5  4  1  0
  6  5  1  0
  7  6  1  0
  8  7  1  0
  8  6  1  0
  9  8  1  0
 10  9  1  0
 11  1  1  0
 12 11  1  0
 13 14  2  0
 14 12  1  0
 14 15  1  0
 15 19  1  0
 16 15  2  0
 17 16  1  0
 18 13  1  0
 18 17  2  0
 20 17  1  0
 20 21  1  0
 22 20  1  0
 23 20  1  0
  2 24  1  0
  4 25  1  0
  6 26  1  6
  7 27  1  0
  7 28  1  0
  8 29  1  6
  9 30  1  0
  9 31  1  0
 10 32  1  0
 10 33  1  0
 10 34  1  0
 11 35  1  0
 11 36  1  0
 12 37  1  0
 12 38  1  0
 13 39  1  0
 19 40  1  0
 19 41  1  0
 21 42  1  0
 21 43  1  0
 21 44  1  0
 22 45  1  0
 22 46  1  0
 22 47  1  0
 23 48  1  0
 23 49  1  0
 23 50  1  0
M  ISO  8  24  14  25  14  26  13  27  13  28  13  29  13  30   8  31   8
M  ISO  8  32   8  33   8  34   8  35   8  36   8  37   8  38   8  39  14
M  ISO  8  42   8  43   8  44   8  45   8  46   8  47   8  48   8  49   8
M  ISO  1  50   8
M  END
>  <minimizedAffinity>  (1) 
-5.63393879

>  <minimizedRMSD>  (1) 
1.0323683

$$$$
