
     RDKit          3D

 45 48  0  0  1  0  0  0  0  0999 V2000
   44.9710   34.9480   42.7710 C   0  0  0  0  0  0  0  0  0  0  0  0
   45.8500   33.9200   43.4140 C   0  0  0  0  0  0  0  0  0  0  0  0
   45.3450   32.8540   44.1310 C   0  0  0  0  0  0  0  0  0  0  0  0
   46.3920   32.1320   44.5670 N   0  0  0  0  0  0  0  0  0  0  0  0
   47.5330   32.7030   44.1530 C   0  0  0  0  0  0  0  0  0  0  0  0
   47.1890   33.8020   43.4450 N   0  0  0  0  0  0  0  0  0  0  0  0
   48.0920   34.7150   42.8140 C   0  0  1  0  0  0  0  0  0  0  0  0
   49.5390   34.5110   42.6910 C   0  0  0  0  0  0  0  0  0  0  0  0
   48.6880   34.2230   41.5040 C   0  0  2  0  0  0  0  0  0  0  0  0
   48.6380   35.1030   40.3030 C   0  0  0  0  0  0  0  0  0  0  0  0
   48.1830   34.4390   39.0450 C   0  0  0  0  0  0  0  0  0  0  0  0
   45.1480   34.8480   41.2730 C   0  0  0  0  0  0  0  0  0  0  0  0
   42.7170   35.2810   41.1410 C   0  0  0  0  0  0  0  0  0  0  0  0
   43.8480   34.6150   40.6610 C   0  0  0  0  0  0  0  0  0  0  0  0
   43.6630   33.7440   39.6000 C   0  0  0  0  0  0  0  0  0  0  0  0
   42.3940   33.6000   39.1010 N   0  0  0  0  0  0  0  0  0  0  0  0
   41.3500   34.2560   39.5900 C   0  0  0  0  0  0  0  0  0  0  0  0
   41.5020   35.0920   40.6030 N   0  0  0  0  0  0  0  0  0  0  0  0
   44.7500   33.0270   39.0500 N   0  0  0  0  0  0  0  0  0  0  0  0
   40.1280   33.9380   38.9020 N   0  0  0  0  0  0  0  0  0  0  0  0
   39.3130   32.9990   39.3990 N   0  0  0  0  0  0  0  0  0  0  0  0
   38.2350   32.8720   38.5910 C   0  0  0  0  0  0  0  0  0  0  0  0
   38.4470   33.7860   37.5790 C   0  0  0  0  0  0  0  0  0  0  0  0
   39.6440   34.4720   37.7600 C   0  0  0  0  0  0  0  0  0  0  0  0
   43.9203   34.7581   43.0356 H   0  0  0  0  0  0  0  0  0  0  0  0
   45.2442   35.9547   43.1202 H   0  0  0  0  0  0  0  0  0  0  0  0
   44.2822   32.6356   44.3122 H   0  0  0  0  0  0  0  0  0  0  0  0
   48.5540   32.3452   44.3517 H   0  0  0  0  0  0  0  0  0  0  0  0
   47.5141   35.5660   43.2038 H   0  0  0  0  0  0  0  0  0  0  0  0
   50.2125   35.3806   42.6800 H   0  0  0  0  0  0  0  0  0  0  0  0
   50.2823   33.9326   43.2594 H   0  0  0  0  0  0  0  0  0  0  0  0
   48.5735   33.3560   40.8368 H   0  0  0  0  0  0  0  0  0  0  0  0
   47.9487   35.9329   40.5180 H   0  0  0  0  0  0  0  0  0  0  0  0
   49.6731   35.4269   40.1193 H   0  0  0  0  0  0  0  0  0  0  0  0
   47.5775   33.5554   39.2951 H   0  0  0  0  0  0  0  0  0  0  0  0
   47.5773   35.1440   38.4567 H   0  0  0  0  0  0  0  0  0  0  0  0
   49.0591   34.1286   38.4567 H   0  0  0  0  0  0  0  0  0  0  0  0
   45.5751   35.7857   40.8879 H   0  0  0  0  0  0  0  0  0  0  0  0
   45.8285   34.0180   41.0319 H   0  0  0  0  0  0  0  0  0  0  0  0
   42.8256   35.9798   41.9835 H   0  0  0  0  0  0  0  0  0  0  0  0
   44.5958   32.3831   38.2610 H   0  0  0  0  0  0  0  0  0  0  0  0
   45.6963   33.1485   39.4382 H   0  0  0  0  0  0  0  0  0  0  0  0
   37.3796   32.1913   38.7136 H   0  0  0  0  0  0  0  0  0  0  0  0
   37.7582   33.9510   36.7374 H   0  0  0  0  0  0  0  0  0  0  0  0
   40.0869   35.2562   37.1284 H   0  0  0  0  0  0  0  0  0  0  0  0
  1  2  1  0
  2  6  1  0
  2  3  2  0
  3  4  1  0
  5  4  2  0
  6  5  1  0
  7  6  1  0
  8  7  1  0
  9  8  1  0
  9  7  1  0
 10  9  1  0
 11 10  1  0
 12  1  1  0
 14 13  2  0
 14 12  1  0
 15 14  1  0
 16 17  1  0
 16 15  2  0
 17 18  2  0
 18 13  1  0
 19 15  1  0
 20 21  1  0
 20 17  1  0
 22 21  2  0
 23 24  2  0
 23 22  1  0
 24 20  1  0
  1 25  1  0
  1 26  1  0
  3 27  1  0
  5 28  1  0
  7 29  1  6
  8 30  1  0
  8 31  1  0
  9 32  1  6
 10 33  1  0
 10 34  1  0
 11 35  1  0
 11 36  1  0
 11 37  1  0
 12 38  1  0
 12 39  1  0
 13 40  1  0
 19 41  1  0
 19 42  1  0
 22 43  1  0
 23 44  1  0
 24 45  1  0
M  ISO  8  25   8  26   8  27  14  28  14  29  13  30  13  31  13  32  13
M  ISO  8  33   8  34   8  35   8  36   8  37   8  38   8  39   8  40  14
M  ISO  3  43  14  44  14  45  14
M  END
>  <minimizedAffinity>  (1) 
-5.60426664

>  <minimizedRMSD>  (1) 
1.9255985

$$$$
