
     RDKit          3D

 45 48  0  0  1  0  0  0  0  0999 V2000
   45.4030   35.2970   43.6050 C   0  0  0  0  0  0  0  0  0  0  0  0
   46.1600   34.0390   43.8600 C   0  0  0  0  0  0  0  0  0  0  0  0
   45.6040   32.9590   44.5050 C   0  0  0  0  0  0  0  0  0  0  0  0
   46.5500   31.9990   44.5680 N   0  0  0  0  0  0  0  0  0  0  0  0
   47.6840   32.4470   43.9810 C   0  0  0  0  0  0  0  0  0  0  0  0
   47.4290   33.7130   43.5450 N   0  0  0  0  0  0  0  0  0  0  0  0
   48.3480   34.5710   42.8630 C   0  0  1  0  0  0  0  0  0  0  0  0
   49.7260   34.2140   42.5300 C   0  0  0  0  0  0  0  0  0  0  0  0
   48.6950   34.1230   41.4510 C   0  0  2  0  0  0  0  0  0  0  0  0
   48.6030   35.1100   40.3420 C   0  0  0  0  0  0  0  0  0  0  0  0
   48.2690   34.5190   38.9950 C   0  0  0  0  0  0  0  0  0  0  0  0
   45.3500   35.5260   42.1070 C   0  0  0  0  0  0  0  0  0  0  0  0
   42.8780   35.6390   42.0090 C   0  0  0  0  0  0  0  0  0  0  0  0
   44.0830   35.0300   41.6000 C   0  0  0  0  0  0  0  0  0  0  0  0
   43.9840   33.9800   40.7240 C   0  0  0  0  0  0  0  0  0  0  0  0
   42.7600   33.5760   40.2960 N   0  0  0  0  0  0  0  0  0  0  0  0
   41.6300   34.1810   40.7090 C   0  0  0  0  0  0  0  0  0  0  0  0
   41.6890   35.1980   41.5540 N   0  0  0  0  0  0  0  0  0  0  0  0
   45.1390   33.3190   40.2670 N   0  0  0  0  0  0  0  0  0  0  0  0
   40.3190   33.8180   40.3080 N   0  0  0  0  0  0  0  0  0  0  0  0
   39.7180   33.9610   39.1130 C   0  0  0  0  0  0  0  0  0  0  0  0
   38.4430   33.4580   39.2130 C   0  0  0  0  0  0  0  0  0  0  0  0
   38.3160   33.0240   40.4790 N   0  0  0  0  0  0  0  0  0  0  0  0
   39.4490   33.2350   41.1600 C   0  0  0  0  0  0  0  0  0  0  0  0
   44.3819   35.2038   44.0033 H   0  0  0  0  0  0  0  0  0  0  0  0
   45.8990   36.1446   44.1005 H   0  0  0  0  0  0  0  0  0  0  0  0
   44.5784   32.8906   44.8968 H   0  0  0  0  0  0  0  0  0  0  0  0
   48.6299   31.8954   43.8759 H   0  0  0  0  0  0  0  0  0  0  0  0
   47.9409   35.4486   43.3864 H   0  0  0  0  0  0  0  0  0  0  0  0
   50.4957   34.9985   42.4831 H   0  0  0  0  0  0  0  0  0  0  0  0
   50.4584   33.5098   42.9515 H   0  0  0  0  0  0  0  0  0  0  0  0
   48.3853   33.3335   40.7504 H   0  0  0  0  0  0  0  0  0  0  0  0
   47.8217   35.8407   40.5983 H   0  0  0  0  0  0  0  0  0  0  0  0
   49.6023   35.5593   40.2438 H   0  0  0  0  0  0  0  0  0  0  0  0
   47.7321   33.5691   39.1343 H   0  0  0  0  0  0  0  0  0  0  0  0
   47.6337   35.2204   38.4342 H   0  0  0  0  0  0  0  0  0  0  0  0
   49.1976   34.3366   38.4342 H   0  0  0  0  0  0  0  0  0  0  0  0
   45.4370   36.6018   41.8946 H   0  0  0  0  0  0  0  0  0  0  0  0
   46.1804   34.9946   41.6191 H   0  0  0  0  0  0  0  0  0  0  0  0
   42.9096   36.4864   42.7097 H   0  0  0  0  0  0  0  0  0  0  0  0
   45.0551   32.5311   39.6089 H   0  0  0  0  0  0  0  0  0  0  0  0
   46.0684   33.6230   40.5905 H   0  0  0  0  0  0  0  0  0  0  0  0
   40.1687   34.4036   38.2124 H   0  0  0  0  0  0  0  0  0  0  0  0
   37.6821   33.4186   38.4196 H   0  0  0  0  0  0  0  0  0  0  0  0
   39.6358   32.9814   42.2140 H   0  0  0  0  0  0  0  0  0  0  0  0
  1  2  1  0
  2  3  2  0
  3  4  1  0
  5  4  2  0
  6  2  1  0
  6  5  1  0
  7  6  1  0
  8  7  1  0
  9  8  1  0
  9  7  1  0
 10  9  1  0
 11 10  1  0
 12  1  1  0
 14 13  2  0
 14 12  1  0
 15 14  1  0
 16 17  1  0
 16 15  2  0
 17 18  2  0
 18 13  1  0
 19 15  1  0
 20 17  1  0
 20 24  1  0
 21 22  2  0
 21 20  1  0
 22 23  1  0
 23 24  2  0
  1 25  1  0
  1 26  1  0
  3 27  1  0
  5 28  1  0
  7 29  1  6
  8 30  1  0
  8 31  1  0
  9 32  1  6
 10 33  1  0
 10 34  1  0
 11 35  1  0
 11 36  1  0
 11 37  1  0
 12 38  1  0
 12 39  1  0
 13 40  1  0
 19 41  1  0
 19 42  1  0
 21 43  1  0
 22 44  1  0
 24 45  1  0
M  ISO  8  25   8  26   8  27  14  28  14  29  13  30  13  31  13  32  13
M  ISO  8  33   8  34   8  35   8  36   8  37   8  38   8  39   8  40  14
M  ISO  3  43  14  44  14  45  14
M  END
>  <minimizedAffinity>  (1) 
-5.50050974

>  <minimizedRMSD>  (1) 
2.03556418

$$$$
