
     RDKit          3D

 44 47  0  0  1  0  0  0  0  0999 V2000
   45.2670   35.2390   43.2350 C   0  0  0  0  0  0  0  0  0  0  0  0
   46.0430   34.0460   43.6670 C   0  0  0  0  0  0  0  0  0  0  0  0
   45.4660   32.9780   44.3320 C   0  0  0  0  0  0  0  0  0  0  0  0
   46.4450   32.0840   44.5690 N   0  0  0  0  0  0  0  0  0  0  0  0
   47.6110   32.5490   44.0800 C   0  0  0  0  0  0  0  0  0  0  0  0
   47.3540   33.7570   43.5270 N   0  0  0  0  0  0  0  0  0  0  0  0
   48.3050   34.6120   42.8880 C   0  0  1  0  0  0  0  0  0  0  0  0
   49.7050   34.2640   42.6180 C   0  0  0  0  0  0  0  0  0  0  0  0
   48.7220   34.1760   41.4920 C   0  0  2  0  0  0  0  0  0  0  0  0
   48.6780   35.1530   40.3740 C   0  0  0  0  0  0  0  0  0  0  0  0
   48.3180   34.5780   39.0320 C   0  0  0  0  0  0  0  0  0  0  0  0
   45.3040   35.3180   41.7180 C   0  0  0  0  0  0  0  0  0  0  0  0
   42.8430   35.4760   41.8670 C   0  0  0  0  0  0  0  0  0  0  0  0
   43.9830   34.9980   41.2050 C   0  0  0  0  0  0  0  0  0  0  0  0
   43.7890   34.2320   40.0740 C   0  0  0  0  0  0  0  0  0  0  0  0
   42.5080   33.9850   39.6710 N   0  0  0  0  0  0  0  0  0  0  0  0
   41.4420   34.4660   40.3390 C   0  0  0  0  0  0  0  0  0  0  0  0
   41.6040   35.1990   41.4190 N   0  0  0  0  0  0  0  0  0  0  0  0
   44.8870   33.7180   39.3590 N   0  0  0  0  0  0  0  0  0  0  0  0
   40.1690   34.0620   39.7030 C   0  0  0  0  0  0  0  0  0  0  0  0
   40.2860   34.1750   38.3080 C   0  0  0  0  0  0  0  0  0  0  0  0
   38.5790   33.6210   37.6860 S   0  0  0  0  0  0  0  0  0  0  0  0
   38.0610   33.3480   39.4950 C   0  0  0  0  0  0  0  0  0  0  0  0
   38.9810   33.6340   40.0870 N   0  0  0  0  0  0  0  0  0  0  0  0
   44.2253   35.1469   43.5760 H   0  0  0  0  0  0  0  0  0  0  0  0
   45.7049   36.1497   43.6696 H   0  0  0  0  0  0  0  0  0  0  0  0
   44.4074   32.8782   44.6138 H   0  0  0  0  0  0  0  0  0  0  0  0
   48.5867   32.0428   44.1222 H   0  0  0  0  0  0  0  0  0  0  0  0
   47.8677   35.4837   43.3969 H   0  0  0  0  0  0  0  0  0  0  0  0
   50.4715   35.0529   42.6122 H   0  0  0  0  0  0  0  0  0  0  0  0
   50.4218   33.5613   43.0679 H   0  0  0  0  0  0  0  0  0  0  0  0
   48.4457   33.3902   40.7735 H   0  0  0  0  0  0  0  0  0  0  0  0
   47.9335   35.9230   40.6246 H   0  0  0  0  0  0  0  0  0  0  0  0
   49.7006   35.5453   40.2724 H   0  0  0  0  0  0  0  0  0  0  0  0
   47.7391   33.6533   39.1727 H   0  0  0  0  0  0  0  0  0  0  0  0
   47.7145   35.3066   38.4708 H   0  0  0  0  0  0  0  0  0  0  0  0
   49.2370   34.3534   38.4708 H   0  0  0  0  0  0  0  0  0  0  0  0
   45.5863   36.3345   41.4066 H   0  0  0  0  0  0  0  0  0  0  0  0
   46.0434   34.6061   41.3225 H   0  0  0  0  0  0  0  0  0  0  0  0
   42.9636   36.0903   42.7715 H   0  0  0  0  0  0  0  0  0  0  0  0
   44.7310   33.1473   38.5159 H   0  0  0  0  0  0  0  0  0  0  0  0
   45.8465   33.9126   39.6789 H   0  0  0  0  0  0  0  0  0  0  0  0
   41.1547   34.5042   37.7190 H   0  0  0  0  0  0  0  0  0  0  0  0
   37.0919   32.9942   39.8768 H   0  0  0  0  0  0  0  0  0  0  0  0
  1  2  1  0
  2  3  2  0
  3  4  1  0
  5  4  2  0
  6  2  1  0
  6  5  1  0
  7  6  1  0
  8  7  1  0
  9  8  1  0
  9  7  1  0
 10  9  1  0
 11 10  1  0
 12  1  1  0
 14 12  1  0
 14 13  2  0
 15 14  1  0
 16 15  2  0
 16 17  1  0
 17 18  2  0
 18 13  1  0
 19 15  1  0
 20 24  1  0
 20 17  1  0
 21 20  2  0
 22 21  1  0
 22 23  1  0
 23 24  2  0
  1 25  1  0
  1 26  1  0
  3 27  1  0
  5 28  1  0
  7 29  1  6
  8 30  1  0
  8 31  1  0
  9 32  1  6
 10 33  1  0
 10 34  1  0
 11 35  1  0
 11 36  1  0
 11 37  1  0
 12 38  1  0
 12 39  1  0
 13 40  1  0
 19 41  1  0
 19 42  1  0
 21 43  1  0
 23 44  1  0
M  ISO  8  25   8  26   8  27  14  28  14  29  13  30  13  31  13  32  13
M  ISO  8  33   8  34   8  35   8  36   8  37   8  38   8  39   8  40  14
M  ISO  2  43  14  44  14
M  END
>  <minimizedAffinity>  (1) 
-5.41651964

>  <minimizedRMSD>  (1) 
1.92065787

$$$$
