
     RDKit          3D

 43 46  0  0  1  0  0  0  0  0999 V2000
   44.8750   34.8050   42.5810 C   0  0  0  0  0  0  0  0  0  0  0  0
   45.7730   33.8380   43.2770 C   0  0  0  0  0  0  0  0  0  0  0  0
   45.3000   32.7450   43.9920 C   0  0  0  0  0  0  0  0  0  0  0  0
   46.3630   32.0860   44.4860 N   0  0  0  0  0  0  0  0  0  0  0  0
   47.4950   32.7230   44.1100 C   0  0  0  0  0  0  0  0  0  0  0  0
   47.1140   33.7980   43.3670 N   0  0  0  0  0  0  0  0  0  0  0  0
   47.9910   34.7550   42.7630 C   0  0  1  0  0  0  0  0  0  0  0  0
   49.4450   34.6470   42.7120 C   0  0  0  0  0  0  0  0  0  0  0  0
   48.6730   34.2570   41.4870 C   0  0  2  0  0  0  0  0  0  0  0  0
   48.6190   35.1080   40.2580 C   0  0  0  0  0  0  0  0  0  0  0  0
   48.1830   34.3950   39.0090 C   0  0  0  0  0  0  0  0  0  0  0  0
   45.1170   34.6800   41.0860 C   0  0  0  0  0  0  0  0  0  0  0  0
   42.7320   35.2210   40.6830 C   0  0  0  0  0  0  0  0  0  0  0  0
   43.8430   34.4140   40.4350 C   0  0  0  0  0  0  0  0  0  0  0  0
   43.6660   33.3660   39.5530 C   0  0  0  0  0  0  0  0  0  0  0  0
   42.4400   33.1930   38.9900 N   0  0  0  0  0  0  0  0  0  0  0  0
   41.4080   33.9860   39.2530 C   0  0  0  0  0  0  0  0  0  0  0  0
   41.5510   34.9900   40.0920 N   0  0  0  0  0  0  0  0  0  0  0  0
   44.7370   32.4940   39.2400 N   0  0  0  0  0  0  0  0  0  0  0  0
   40.1280   33.7090   38.5920 C   0  0  0  0  0  0  0  0  0  0  0  0
   39.4910   34.4820   37.6930 N   0  0  0  0  0  0  0  0  0  0  0  0
   38.3820   33.9100   37.3270 O   0  0  0  0  0  0  0  0  0  0  0  0
   38.2400   32.7610   37.9520 C   0  0  0  0  0  0  0  0  0  0  0  0
   39.3400   32.6320   38.7510 N   0  0  0  0  0  0  0  0  0  0  0  0
   43.8250   34.5703   42.8099 H   0  0  0  0  0  0  0  0  0  0  0  0
   45.0853   35.8310   42.9172 H   0  0  0  0  0  0  0  0  0  0  0  0
   44.2444   32.4680   44.1295 H   0  0  0  0  0  0  0  0  0  0  0  0
   48.5258   32.4289   44.3571 H   0  0  0  0  0  0  0  0  0  0  0  0
   47.3502   35.5797   43.1082 H   0  0  0  0  0  0  0  0  0  0  0  0
   50.0579   35.5604   42.7004 H   0  0  0  0  0  0  0  0  0  0  0  0
   50.1960   34.1400   43.3356 H   0  0  0  0  0  0  0  0  0  0  0  0
   48.6475   33.3638   40.8455 H   0  0  0  0  0  0  0  0  0  0  0  0
   47.9140   35.9316   40.4442 H   0  0  0  0  0  0  0  0  0  0  0  0
   49.6491   35.4471   40.0741 H   0  0  0  0  0  0  0  0  0  0  0  0
   47.6270   33.4857   39.2810 H   0  0  0  0  0  0  0  0  0  0  0  0
   47.5352   35.0573   38.4159 H   0  0  0  0  0  0  0  0  0  0  0  0
   49.0677   34.1202   38.4159 H   0  0  0  0  0  0  0  0  0  0  0  0
   45.5433   35.6173   40.6991 H   0  0  0  0  0  0  0  0  0  0  0  0
   45.8226   33.8605   40.8846 H   0  0  0  0  0  0  0  0  0  0  0  0
   42.8274   36.0667   41.3799 H   0  0  0  0  0  0  0  0  0  0  0  0
   44.5919   31.7161   38.5806 H   0  0  0  0  0  0  0  0  0  0  0  0
   45.6611   32.6376   39.6717 H   0  0  0  0  0  0  0  0  0  0  0  0
   37.4065   32.0503   37.8516 H   0  0  0  0  0  0  0  0  0  0  0  0
  1  2  1  0
  2  6  1  0
  2  3  2  0
  3  4  1  0
  5  4  2  0
  6  5  1  0
  7  6  1  0
  8  7  1  0
  9  8  1  0
  9  7  1  0
 10  9  1  0
 11 10  1  0
 12  1  1  0
 14 13  2  0
 14 12  1  0
 15 14  1  0
 16 17  1  0
 16 15  2  0
 17 18  2  0
 18 13  1  0
 19 15  1  0
 20 24  1  0
 20 17  1  0
 21 20  2  0
 22 21  1  0
 22 23  1  0
 23 24  2  0
  1 25  1  0
  1 26  1  0
  3 27  1  0
  5 28  1  0
  7 29  1  6
  8 30  1  0
  8 31  1  0
  9 32  1  6
 10 33  1  0
 10 34  1  0
 11 35  1  0
 11 36  1  0
 11 37  1  0
 12 38  1  0
 12 39  1  0
 13 40  1  0
 19 41  1  0
 19 42  1  0
 23 43  1  0
M  ISO  8  25   8  26   8  27  14  28  14  29  13  30  13  31  13  32  13
M  ISO  8  33   8  34   8  35   8  36   8  37   8  38   8  39   8  40  14
M  ISO  1  43  14
M  END
>  <minimizedAffinity>  (1) 
-5.09289742

>  <minimizedRMSD>  (1) 
1.94344449

$$$$
