
     RDKit          3D

 45 48  0  0  1  0  0  0  0  0999 V2000
   44.9620   34.8090   42.5690 C   0  0  0  0  0  0  0  0  0  0  0  0
   45.8310   33.8210   43.2780 C   0  0  0  0  0  0  0  0  0  0  0  0
   45.3370   32.7350   43.9780 C   0  0  0  0  0  0  0  0  0  0  0  0
   46.3940   32.0700   44.4800 N   0  0  0  0  0  0  0  0  0  0  0  0
   47.5310   32.6940   44.1240 C   0  0  0  0  0  0  0  0  0  0  0  0
   47.1720   33.7660   43.3860 N   0  0  0  0  0  0  0  0  0  0  0  0
   48.0740   34.7110   42.8010 C   0  0  1  0  0  0  0  0  0  0  0  0
   49.5210   34.5570   42.7190 C   0  0  0  0  0  0  0  0  0  0  0  0
   48.7090   34.2490   41.4920 C   0  0  2  0  0  0  0  0  0  0  0  0
   48.6730   35.1480   40.3040 C   0  0  0  0  0  0  0  0  0  0  0  0
   48.2520   34.4870   39.0210 C   0  0  0  0  0  0  0  0  0  0  0  0
   45.1780   34.6320   41.0720 C   0  0  0  0  0  0  0  0  0  0  0  0
   42.8990   35.2980   40.3960 C   0  0  0  0  0  0  0  0  0  0  0  0
   43.9000   34.3290   40.4490 C   0  0  0  0  0  0  0  0  0  0  0  0
   43.6090   33.1070   39.8920 C   0  0  0  0  0  0  0  0  0  0  0  0
   42.3890   32.9110   39.3300 N   0  0  0  0  0  0  0  0  0  0  0  0
   41.4450   33.8690   39.2950 C   0  0  0  0  0  0  0  0  0  0  0  0
   41.7050   35.0450   39.8240 N   0  0  0  0  0  0  0  0  0  0  0  0
   44.5690   32.0640   39.9020 N   0  0  0  0  0  0  0  0  0  0  0  0
   40.1620   33.5790   38.6750 C   0  0  0  0  0  0  0  0  0  0  0  0
   39.4880   34.3750   37.7520 C   0  0  0  0  0  0  0  0  0  0  0  0
   38.3390   33.7700   37.4150 N   0  0  0  0  0  0  0  0  0  0  0  0
   38.2400   32.6030   38.0910 C   0  0  0  0  0  0  0  0  0  0  0  0
   39.3510   32.5380   38.8270 N   0  0  0  0  0  0  0  0  0  0  0  0
   43.9066   34.6254   42.8187 H   0  0  0  0  0  0  0  0  0  0  0  0
   45.2185   35.8340   42.8748 H   0  0  0  0  0  0  0  0  0  0  0  0
   44.2778   32.4652   44.1014 H   0  0  0  0  0  0  0  0  0  0  0  0
   48.5556   32.3897   44.3839 H   0  0  0  0  0  0  0  0  0  0  0  0
   47.4688   35.5415   43.1936 H   0  0  0  0  0  0  0  0  0  0  0  0
   50.1650   35.4486   42.7358 H   0  0  0  0  0  0  0  0  0  0  0  0
   50.2658   33.9979   43.3044 H   0  0  0  0  0  0  0  0  0  0  0  0
   48.6314   33.3876   40.8123 H   0  0  0  0  0  0  0  0  0  0  0  0
   47.9669   35.9647   40.5151 H   0  0  0  0  0  0  0  0  0  0  0  0
   49.7056   35.4936   40.1480 H   0  0  0  0  0  0  0  0  0  0  0  0
   47.6739   33.5793   39.2487 H   0  0  0  0  0  0  0  0  0  0  0  0
   47.6295   35.1815   38.4378 H   0  0  0  0  0  0  0  0  0  0  0  0
   49.1446   34.2165   38.4378 H   0  0  0  0  0  0  0  0  0  0  0  0
   45.5873   35.5594   40.6449 H   0  0  0  0  0  0  0  0  0  0  0  0
   45.8874   33.8112   40.8903 H   0  0  0  0  0  0  0  0  0  0  0  0
   43.0878   36.2908   40.8305 H   0  0  0  0  0  0  0  0  0  0  0  0
   44.3422   31.1512   39.4821 H   0  0  0  0  0  0  0  0  0  0  0  0
   45.4934   32.2189   40.3291 H   0  0  0  0  0  0  0  0  0  0  0  0
   39.8402   35.3417   37.3629 H   0  0  0  0  0  0  0  0  0  0  0  0
   37.4227   31.8683   38.0443 H   0  0  0  0  0  0  0  0  0  0  0  0
   39.5611   31.7507   39.4570 H   0  0  0  0  0  0  0  0  0  0  0  0
  1  2  1  0
  2  6  1  0
  2  3  2  0
  3  4  1  0
  5  4  2  0
  6  5  1  0
  7  6  1  0
  8  7  1  0
  9  8  1  0
  9  7  1  0
 10  9  1  0
 11 10  1  0
 12  1  1  0
 13 14  2  0
 14 12  1  0
 15 19  1  0
 15 14  1  0
 16 15  2  0
 17 16  1  0
 17 18  2  0
 18 13  1  0
 20 24  1  0
 20 17  1  0
 21 20  2  0
 22 21  1  0
 22 23  2  0
 23 24  1  0
  1 25  1  0
  1 26  1  0
  3 27  1  0
  5 28  1  0
  7 29  1  6
  8 30  1  0
  8 31  1  0
  9 32  1  6
 10 33  1  0
 10 34  1  0
 11 35  1  0
 11 36  1  0
 11 37  1  0
 12 38  1  0
 12 39  1  0
 13 40  1  0
 19 41  1  0
 19 42  1  0
 21 43  1  0
 23 44  1  0
 24 45  1  0
M  ISO  8  25   8  26   8  27  14  28  14  29  13  30  13  31  13  32  13
M  ISO  8  33   8  34   8  35   8  36   8  37   8  38   8  39   8  40  14
M  ISO  3  43  14  44  14  45   9
M  END
>  <minimizedAffinity>  (1) 
-5.01232958

>  <minimizedRMSD>  (1) 
1.88184583

$$$$
