
     RDKit          3D

 39 41  0  0  1  0  0  0  0  0999 V2000
   45.4970   34.5880   42.7970 C   0  0  0  0  0  0  0  0  0  0  0  0
   45.0870   33.8000   43.8650 C   0  0  0  0  0  0  0  0  0  0  0  0
   46.1940   33.3670   44.4950 N   0  0  0  0  0  0  0  0  0  0  0  0
   47.2910   33.8450   43.8710 C   0  0  0  0  0  0  0  0  0  0  0  0
   46.8400   34.5960   42.8270 N   0  0  0  0  0  0  0  0  0  0  0  0
   47.6690   35.2960   41.8900 C   0  0  1  0  0  0  0  0  0  0  0  0
   49.1250   35.2470   41.8680 C   0  0  0  0  0  0  0  0  0  0  0  0
   48.3760   34.4020   40.8900 C   0  0  2  0  0  0  0  0  0  0  0  0
   48.2910   34.7480   39.4330 C   0  0  0  0  0  0  0  0  0  0  0  0
   47.6240   33.6940   38.5780 C   0  0  0  0  0  0  0  0  0  0  0  0
   44.5400   35.2450   41.8650 C   0  0  0  0  0  0  0  0  0  0  0  0
   44.1700   34.2420   40.7880 C   0  0  0  0  0  0  0  0  0  0  0  0
   42.2170   35.2920   39.6990 C   0  0  0  0  0  0  0  0  0  0  0  0
   42.7400   34.3090   40.5620 C   0  0  0  0  0  0  0  0  0  0  0  0
   41.8370   33.4610   41.1430 C   0  0  0  0  0  0  0  0  0  0  0  0
   40.5150   33.6050   40.8670 N   0  0  0  0  0  0  0  0  0  0  0  0
   40.0520   34.5420   40.0480 C   0  0  0  0  0  0  0  0  0  0  0  0
   40.8900   35.3860   39.4620 N   0  0  0  0  0  0  0  0  0  0  0  0
   42.2830   32.4510   42.0200 N   0  0  0  0  0  0  0  0  0  0  0  0
   38.7200   34.7390   39.7270 O   0  0  0  0  0  0  0  0  0  0  0  0
   44.0478   33.5719   44.1443 H   0  0  0  0  0  0  0  0  0  0  0  0
   48.3398   33.6645   44.1494 H   0  0  0  0  0  0  0  0  0  0  0  0
   46.9828   36.1556   41.9062 H   0  0  0  0  0  0  0  0  0  0  0  0
   49.6942   36.1182   41.5116 H   0  0  0  0  0  0  0  0  0  0  0  0
   49.8970   35.0429   42.6245 H   0  0  0  0  0  0  0  0  0  0  0  0
   48.3926   33.3343   40.6259 H   0  0  0  0  0  0  0  0  0  0  0  0
   47.7199   35.6829   39.3343 H   0  0  0  0  0  0  0  0  0  0  0  0
   49.3258   34.8370   39.0708 H   0  0  0  0  0  0  0  0  0  0  0  0
   47.1487   32.9430   39.2261 H   0  0  0  0  0  0  0  0  0  0  0  0
   46.8601   34.1665   37.9430 H   0  0  0  0  0  0  0  0  0  0  0  0
   48.3780   33.2059   37.9430 H   0  0  0  0  0  0  0  0  0  0  0  0
   43.6377   35.5539   42.4131 H   0  0  0  0  0  0  0  0  0  0  0  0
   44.9978   36.1379   41.4143 H   0  0  0  0  0  0  0  0  0  0  0  0
   44.7036   34.4846   39.8572 H   0  0  0  0  0  0  0  0  0  0  0  0
   44.4518   33.2279   41.1076 H   0  0  0  0  0  0  0  0  0  0  0  0
   42.9031   35.9977   39.2079 H   0  0  0  0  0  0  0  0  0  0  0  0
   41.6038   31.8122   42.4578 H   0  0  0  0  0  0  0  0  0  0  0  0
   43.2880   32.3520   42.2229 H   0  0  0  0  0  0  0  0  0  0  0  0
   38.4629   35.4649   39.1048 H   0  0  0  0  0  0  0  0  0  0  0  0
  1  5  1  0
  1  2  2  0
  2  3  1  0
  4  3  2  0
  5  4  1  0
  6  5  1  0
  7  6  1  0
  8  7  1  0
  8  6  1  0
  9  8  1  0
 10  9  1  0
 11  1  1  0
 12 11  1  0
 13 14  2  0
 14 12  1  0
 14 15  1  0
 15 19  1  0
 16 15  2  0
 17 16  1  0
 18 13  1  0
 18 17  2  0
 20 17  1  0
  2 21  1  0
  4 22  1  0
  6 23  1  6
  7 24  1  0
  7 25  1  0
  8 26  1  6
  9 27  1  0
  9 28  1  0
 10 29  1  0
 10 30  1  0
 10 31  1  0
 11 32  1  0
 11 33  1  0
 12 34  1  0
 12 35  1  0
 13 36  1  0
 19 37  1  0
 19 38  1  0
 20 39  1  0
M  ISO  8  21  14  22  14  23  13  24  13  25  13  26  13  27   8  28   8
M  ISO  8  29   8  30   8  31   8  32   8  33   8  34   8  35   8  36  14
M  ISO  1  39   3
M  END
>  <minimizedAffinity>  (1) 
-5.15410662

>  <minimizedRMSD>  (1) 
0.0481138192

$$$$
