
     RDKit          3D

 51 54  0  0  1  0  0  0  0  0999 V2000
   45.3260   33.7550   42.3890 C   0  0  0  0  0  0  0  0  0  0  0  0
   46.1830   33.1990   43.4800 C   0  0  0  0  0  0  0  0  0  0  0  0
   45.7270   32.2610   44.3950 C   0  0  0  0  0  0  0  0  0  0  0  0
   46.7470   31.9860   45.2260 N   0  0  0  0  0  0  0  0  0  0  0  0
   47.8360   32.7170   44.8670 C   0  0  0  0  0  0  0  0  0  0  0  0
   47.4690   33.4530   43.7970 N   0  0  0  0  0  0  0  0  0  0  0  0
   48.3100   34.3710   43.0920 C   0  0  1  0  0  0  0  0  0  0  0  0
   49.7100   34.1140   42.7170 C   0  0  0  0  0  0  0  0  0  0  0  0
   48.6670   33.9330   41.6660 C   0  0  2  0  0  0  0  0  0  0  0  0
   48.4660   34.9010   40.5520 C   0  0  0  0  0  0  0  0  0  0  0  0
   48.0540   34.2950   39.2380 C   0  0  0  0  0  0  0  0  0  0  0  0
   45.2560   32.7400   41.2760 C   0  0  0  0  0  0  0  0  0  0  0  0
   43.9130   33.4490   39.3320 C   0  0  0  0  0  0  0  0  0  0  0  0
   43.9700   32.8620   40.5970 C   0  0  0  0  0  0  0  0  0  0  0  0
   42.7870   32.4200   41.1510 C   0  0  0  0  0  0  0  0  0  0  0  0
   41.6360   32.5830   40.4290 N   0  0  0  0  0  0  0  0  0  0  0  0
   41.6240   33.1530   39.2150 C   0  0  0  0  0  0  0  0  0  0  0  0
   42.7510   33.5810   38.6730 N   0  0  0  0  0  0  0  0  0  0  0  0
   42.7560   31.8200   42.4170 N   0  0  0  0  0  0  0  0  0  0  0  0
   40.3790   33.2820   38.5350 N   0  0  0  0  0  0  0  0  0  0  0  0
   39.9440   32.1550   37.9420 C   0  0  0  0  0  0  0  0  0  0  0  0
   38.7690   32.0990   37.2470 C   0  0  0  0  0  0  0  0  0  0  0  0
   38.2490   30.8850   36.5770 C   0  0  0  0  0  0  0  0  0  0  0  0
   37.9960   33.2530   37.1520 C   0  0  0  0  0  0  0  0  0  0  0  0
   36.8960   33.3080   36.5330 O   0  0  0  0  0  0  0  0  0  0  0  0
   38.4570   34.3640   37.7550 N   0  0  0  0  0  0  0  0  0  0  0  0
   39.6140   34.4040   38.4350 C   0  0  0  0  0  0  0  0  0  0  0  0
   40.0840   35.4170   39.0140 O   0  0  0  0  0  0  0  0  0  0  0  0
   44.3153   33.9536   42.7750 H   0  0  0  0  0  0  0  0  0  0  0  0
   45.7531   34.6973   42.0154 H   0  0  0  0  0  0  0  0  0  0  0  0
   44.7184   31.8237   44.4332 H   0  0  0  0  0  0  0  0  0  0  0  0
   48.8226   32.7098   45.3534 H   0  0  0  0  0  0  0  0  0  0  0  0
   47.8518   35.2180   43.6237 H   0  0  0  0  0  0  0  0  0  0  0  0
   50.4158   34.9544   42.6431 H   0  0  0  0  0  0  0  0  0  0  0  0
   50.5040   33.4706   43.1240 H   0  0  0  0  0  0  0  0  0  0  0  0
   48.4099   33.1135   40.9787 H   0  0  0  0  0  0  0  0  0  0  0  0
   47.6849   35.6127   40.8574 H   0  0  0  0  0  0  0  0  0  0  0  0
   49.4458   35.3692   40.3763 H   0  0  0  0  0  0  0  0  0  0  0  0
   47.4443   33.3983   39.4229 H   0  0  0  0  0  0  0  0  0  0  0  0
   47.4655   35.0268   38.6652 H   0  0  0  0  0  0  0  0  0  0  0  0
   48.9510   34.0169   38.6652 H   0  0  0  0  0  0  0  0  0  0  0  0
   46.0697   32.9233   40.5589 H   0  0  0  0  0  0  0  0  0  0  0  0
   45.3602   31.7270   41.6919 H   0  0  0  0  0  0  0  0  0  0  0  0
   44.8406   33.8114   38.8648 H   0  0  0  0  0  0  0  0  0  0  0  0
   41.8613   31.4970   42.8120 H   0  0  0  0  0  0  0  0  0  0  0  0
   43.6279   31.7020   42.9525 H   0  0  0  0  0  0  0  0  0  0  0  0
   40.5572   31.2451   38.0197 H   0  0  0  0  0  0  0  0  0  0  0  0
   37.9355   30.1531   37.3360 H   0  0  0  0  0  0  0  0  0  0  0  0
   37.3870   31.1537   35.9487 H   0  0  0  0  0  0  0  0  0  0  0  0
   39.0382   30.4464   35.9487 H   0  0  0  0  0  0  0  0  0  0  0  0
   37.8954   35.2251   37.6919 H   0  0  0  0  0  0  0  0  0  0  0  0
  1  2  1  0
  2  6  1  0
  2  3  2  0
  3  4  1  0
  5  4  2  0
  6  5  1  0
  7  6  1  0
  8  7  1  0
  9  8  1  0
  9  7  1  0
 10  9  1  0
 11 10  1  0
 12  1  1  0
 13 14  2  0
 14 15  1  0
 14 12  1  0
 15 19  1  0
 16 15  2  0
 17 16  1  0
 18 17  2  0
 18 13  1  0
 20 17  1  0
 21 20  1  0
 22 21  2  0
 23 22  1  0
 24 22  1  0
 24 26  1  0
 25 24  2  0
 26 27  1  0
 27 20  1  0
 27 28  2  0
  1 29  1  0
  1 30  1  0
  3 31  1  0
  5 32  1  0
  7 33  1  6
  8 34  1  0
  8 35  1  0
  9 36  1  6
 10 37  1  0
 10 38  1  0
 11 39  1  0
 11 40  1  0
 11 41  1  0
 12 42  1  0
 12 43  1  0
 13 44  1  0
 19 45  1  0
 19 46  1  0
 21 47  1  0
 23 48  1  0
 23 49  1  0
 23 50  1  0
 26 51  1  0
M  ISO  8  29   8  30   8  31  14  32  14  33  13  34  13  35  13  36  13
M  ISO  8  37   8  38   8  39   8  40   8  41   8  42   8  43   8  44  14
M  ISO  5  47  14  48   8  49   8  50   8  51   9
M  END
>  <minimizedAffinity>  (1) 
-4.8404007

>  <minimizedRMSD>  (1) 
2.26154876

$$$$
