
     RDKit          3D

 14 14  0  0  0  0  0  0  0  0999 V2000
   44.9870   34.9050   45.0470 C   0  0  0  0  0  0  0  0  0  0  0  0
   45.8530   34.6490   43.9660 C   0  0  0  0  0  0  0  0  0  0  0  0
   46.7840   33.6330   44.0970 C   0  0  0  0  0  0  0  0  0  0  0  0
   46.8160   32.9290   45.2710 N   0  0  0  0  0  0  0  0  0  0  0  0
   45.9890   33.1850   46.2880 C   0  0  0  0  0  0  0  0  0  0  0  0
   45.0720   34.1700   46.1840 N   0  0  0  0  0  0  0  0  0  0  0  0
   45.8330   35.3960   42.6930 C   0  0  0  0  0  0  0  0  0  0  0  0
   45.0000   36.5170   42.7540 F   0  0  0  0  0  0  0  0  0  0  0  0
   45.3480   34.5930   41.6640 F   0  0  0  0  0  0  0  0  0  0  0  0
   47.1180   35.7700   42.3190 F   0  0  0  0  0  0  0  0  0  0  0  0
   47.9240   33.2440   42.7620 S   0  0  0  0  0  0  0  0  0  0  0  0
   44.2371   35.7059   44.9687 H   0  0  0  0  0  0  0  0  0  0  0  0
   46.0553   32.5920   47.2121 H   0  0  0  0  0  0  0  0  0  0  0  0
   49.1211   32.8355   43.2882 H   0  0  0  0  0  0  0  0  0  0  0  0
  1  6  2  0
  2  3  2  0
  2  1  1  0
  3  4  1  0
  4  5  2  0
  6  5  1  0
  7  8  1  0
  7  2  1  0
  9  7  1  0
 10  7  1  0
 11  3  1  0
  1 12  1  0
  5 13  1  0
 11 14  1  0
M  ISO  3  12  14  13  14  14  11
M  END
>  <minimizedAffinity>  (1) 
-3.70866871

>  <minimizedRMSD>  (1) 
1.48375154

$$$$
