
     RDKit          3D

 14 14  0  0  0  0  0  0  0  0999 V2000
   44.8290   34.9240   45.1670 C   0  0  0  0  0  0  0  0  0  0  0  0
   45.3630   35.2060   43.8910 C   0  0  0  0  0  0  0  0  0  0  0  0
   46.4570   34.4620   43.4870 C   0  0  0  0  0  0  0  0  0  0  0  0
   46.9650   33.5060   44.3260 N   0  0  0  0  0  0  0  0  0  0  0  0
   46.4290   33.2640   45.5430 C   0  0  0  0  0  0  0  0  0  0  0  0
   45.3570   33.9760   45.9610 N   0  0  0  0  0  0  0  0  0  0  0  0
   47.2220   34.7300   41.8860 S   0  0  0  0  0  0  0  0  0  0  0  0
   44.8020   36.2180   43.0360 C   0  0  0  0  0  0  0  0  0  0  0  0
   44.0680   35.8250   42.1010 O   0  0  0  0  0  0  0  0  0  0  0  0
   45.1090   37.5640   43.2990 O   0  0  0  0  0  0  0  0  0  0  0  0
   43.9579   35.4949   45.5211 H   0  0  0  0  0  0  0  0  0  0  0  0
   46.8635   32.4897   46.1924 H   0  0  0  0  0  0  0  0  0  0  0  0
   48.5042   35.1792   42.0620 H   0  0  0  0  0  0  0  0  0  0  0  0
   44.7350   38.2784   42.7247 H   0  0  0  0  0  0  0  0  0  0  0  0
  1  6  2  0
  2  1  1  0
  3  2  2  0
  3  4  1  0
  4  5  2  0
  5  6  1  0
  7  3  1  0
  8 10  1  0
  8  2  1  0
  9  8  2  0
  1 11  1  0
  5 12  1  0
  7 13  1  0
 10 14  1  0
M  ISO  4  11  14  12  14  13  11  14   3
M  END
>  <minimizedAffinity>  (1) 
-3.65796161

>  <minimizedRMSD>  (1) 
1.02608597

$$$$
