
     RDKit          3D

 14 14  0  0  0  0  0  0  0  0999 V2000
   44.6280   35.3460   45.1720 C   0  0  0  0  0  0  0  0  0  0  0  0
   45.2470   35.4220   43.9130 C   0  0  0  0  0  0  0  0  0  0  0  0
   46.2530   34.4850   43.6420 C   0  0  0  0  0  0  0  0  0  0  0  0
   46.5630   33.5660   44.6120 N   0  0  0  0  0  0  0  0  0  0  0  0
   45.9490   33.5280   45.7980 C   0  0  0  0  0  0  0  0  0  0  0  0
   44.9850   34.4160   46.0740 N   0  0  0  0  0  0  0  0  0  0  0  0
   47.1150   34.4810   42.0710 S   0  0  0  0  0  0  0  0  0  0  0  0
   44.8760   36.4380   42.8920 C   0  0  0  0  0  0  0  0  0  0  0  0
   43.8336   36.0636   45.4250 H   0  0  0  0  0  0  0  0  0  0  0  0
   46.2337   32.7713   46.5439 H   0  0  0  0  0  0  0  0  0  0  0  0
   48.4670   34.4747   42.2920 H   0  0  0  0  0  0  0  0  0  0  0  0
   44.5404   37.3572   43.3945 H   0  0  0  0  0  0  0  0  0  0  0  0
   45.7503   36.6622   42.2632 H   0  0  0  0  0  0  0  0  0  0  0  0
   44.0630   36.0460   42.2632 H   0  0  0  0  0  0  0  0  0  0  0  0
  1  6  2  0
  2  1  1  0
  3  2  2  0
  3  4  1  0
  4  5  2  0
  5  6  1  0
  7  3  1  0
  8  2  1  0
  1  9  1  0
  5 10  1  0
  7 11  1  0
  8 12  1  0
  8 13  1  0
  8 14  1  0
M  ISO  6   9  14  10  14  11  11  12   8  13   8  14   8
M  END
>  <minimizedAffinity>  (1) 
-2.99384451

>  <minimizedRMSD>  (1) 
0.711304843

$$$$
