
     RDKit          3D

 16 16  0  0  0  0  0  0  0  0999 V2000
   44.8870   34.9370   45.1000 C   0  0  0  0  0  0  0  0  0  0  0  0
   45.4320   35.1600   43.8350 C   0  0  0  0  0  0  0  0  0  0  0  0
   46.5130   34.3690   43.4460 C   0  0  0  0  0  0  0  0  0  0  0  0
   46.9720   33.4190   44.3340 N   0  0  0  0  0  0  0  0  0  0  0  0
   46.4140   33.2420   45.5400 C   0  0  0  0  0  0  0  0  0  0  0  0
   45.3760   33.9970   45.9190 N   0  0  0  0  0  0  0  0  0  0  0  0
   44.9090   36.1910   42.9130 C   0  0  0  0  0  0  0  0  0  0  0  0
   44.9620   37.4680   43.5890 N   0  0  0  0  0  0  0  0  0  0  0  0
   47.2970   34.5610   41.8550 S   0  0  0  0  0  0  0  0  0  0  0  0
   44.0350   35.5481   45.4326 H   0  0  0  0  0  0  0  0  0  0  0  0
   46.8105   32.4738   46.2202 H   0  0  0  0  0  0  0  0  0  0  0  0
   43.8692   35.9557   42.6420 H   0  0  0  0  0  0  0  0  0  0  0  0
   45.5128   36.2214   41.9940 H   0  0  0  0  0  0  0  0  0  0  0  0
   44.9558   37.3176   44.6079 H   0  0  0  0  0  0  0  0  0  0  0  0
   45.8243   37.9632   43.3203 H   0  0  0  0  0  0  0  0  0  0  0  0
   48.6165   34.8841   42.0321 H   0  0  0  0  0  0  0  0  0  0  0  0
  1  6  2  0
  2  1  1  0
  3  2  2  0
  3  4  1  0
  4  5  2  0
  5  6  1  0
  7  8  1  0
  7  2  1  0
  9  3  1  0
  1 10  1  0
  5 11  1  0
  7 12  1  0
  7 13  1  0
  8 14  1  0
  8 15  1  0
  9 16  1  0
M  ISO  7  10  14  11  14  12   8  13   8  14   5  15   5  16  11
M  END
>  <minimizedAffinity>  (1) 
-3.35961366

>  <minimizedRMSD>  (1) 
0.573298693

$$$$
