
     RDKit          3D

 36 39  0  0  0  0  0  0  0  0999 V2000
   44.4770   35.7690   44.6100 C   0  0  0  0  0  0  0  0  0  0  0  0
   45.0690   35.0400   43.5880 C   0  0  0  0  0  0  0  0  0  0  0  0
   45.6930   33.8390   43.9440 C   0  0  0  0  0  0  0  0  0  0  0  0
   45.6680   33.4820   45.2690 N   0  0  0  0  0  0  0  0  0  0  0  0
   45.0900   34.2090   46.2210 C   0  0  0  0  0  0  0  0  0  0  0  0
   44.4910   35.3600   45.8800 N   0  0  0  0  0  0  0  0  0  0  0  0
   45.0570   35.4860   42.1800 C   0  0  0  0  0  0  0  0  0  0  0  0
   43.7870   35.0530   41.4870 C   0  0  0  0  0  0  0  0  0  0  0  0
   43.7940   34.1890   40.4430 C   0  0  0  0  0  0  0  0  0  0  0  0
   42.0300   34.0280   40.0100 S   0  0  0  0  0  0  0  0  0  0  0  0
   41.5640   35.2450   41.4170 C   0  0  0  0  0  0  0  0  0  0  0  0
   42.6030   35.4670   41.8260 N   0  0  0  0  0  0  0  0  0  0  0  0
   46.4940   32.7980   42.7330 S   0  0  0  0  0  0  0  0  0  0  0  0
   48.2240   33.1790   42.5760 C   0  0  0  0  0  0  0  0  0  0  0  0
   48.6650   34.4790   42.6780 C   0  0  0  0  0  0  0  0  0  0  0  0
   50.0090   34.7430   42.5520 C   0  0  0  0  0  0  0  0  0  0  0  0
   50.8550   33.6840   42.3280 C   0  0  0  0  0  0  0  0  0  0  0  0
   50.4240   32.3610   42.2210 C   0  0  0  0  0  0  0  0  0  0  0  0
   51.3080   31.3260   41.9960 C   0  0  0  0  0  0  0  0  0  0  0  0
   50.8150   30.0380   41.9010 C   0  0  0  0  0  0  0  0  0  0  0  0
   49.4840   29.7720   42.0260 C   0  0  0  0  0  0  0  0  0  0  0  0
   48.5950   30.8110   42.2520 C   0  0  0  0  0  0  0  0  0  0  0  0
   49.0680   32.1150   42.3510 C   0  0  0  0  0  0  0  0  0  0  0  0
   43.9783   36.7181   44.3641 H   0  0  0  0  0  0  0  0  0  0  0  0
   45.1028   33.8729   47.2683 H   0  0  0  0  0  0  0  0  0  0  0  0
   45.1275   36.5833   42.1494 H   0  0  0  0  0  0  0  0  0  0  0  0
   45.9130   35.0307   41.6604 H   0  0  0  0  0  0  0  0  0  0  0  0
   44.6584   33.7008   39.9693 H   0  0  0  0  0  0  0  0  0  0  0  0
   40.5800   35.6193   41.7358 H   0  0  0  0  0  0  0  0  0  0  0  0
   47.9514   35.2966   42.8580 H   0  0  0  0  0  0  0  0  0  0  0  0
   50.3946   35.7704   42.6282 H   0  0  0  0  0  0  0  0  0  0  0  0
   51.9308   33.8901   42.2275 H   0  0  0  0  0  0  0  0  0  0  0  0
   52.3856   31.5221   41.8940 H   0  0  0  0  0  0  0  0  0  0  0  0
   51.5136   29.2078   41.7202 H   0  0  0  0  0  0  0  0  0  0  0  0
   49.1173   28.7379   41.9479 H   0  0  0  0  0  0  0  0  0  0  0  0
   47.5192   30.6049   42.3527 H   0  0  0  0  0  0  0  0  0  0  0  0
  1  6  2  0
  2  3  2  0
  2  1  1  0
  3  4  1  0
  4  5  2  0
  6  5  1  0
  7  2  1  0
  8 12  1  0
  8  7  1  0
  9  8  2  0
 10  9  1  0
 10 11  1  0
 11 12  2  0
 13  3  1  0
 14 15  2  0
 14 13  1  0
 16 15  1  0
 17 16  2  0
 18 17  1  0
 18 23  2  0
 19 18  1  0
 20 19  2  0
 20 21  1  0
 21 22  2  0
 22 23  1  0
 23 14  1  0
  1 24  1  0
  5 25  1  0
  7 26  1  0
  7 27  1  0
  9 28  1  0
 11 29  1  0
 15 30  1  0
 16 31  1  0
 17 32  1  0
 19 33  1  0
 20 34  1  0
 21 35  1  0
 22 36  1  0
M  ISO  8  24  14  25  14  26   8  27   8  28  14  29  14  30  14  31  14
M  ISO  5  32  14  33  14  34  14  35  14  36  14
M  END
>  <minimizedAffinity>  (1) 
-5.6550498

>  <minimizedRMSD>  (1) 
0.999854028

$$$$
