
     RDKit          3D

 26 27  0  0  0  0  0  0  0  0999 V2000
   45.8830   33.3540   45.9750 C   0  0  0  0  0  0  0  0  0  0  0  0
   45.8580   32.6950   44.7450 C   0  0  0  0  0  0  0  0  0  0  0  0
   46.6060   31.5270   44.6380 C   0  0  0  0  0  0  0  0  0  0  0  0
   47.3200   31.0960   45.7420 N   0  0  0  0  0  0  0  0  0  0  0  0
   47.3100   31.7680   46.9030 C   0  0  0  0  0  0  0  0  0  0  0  0
   46.5920   32.8920   47.0130 N   0  0  0  0  0  0  0  0  0  0  0  0
   45.0830   33.1940   43.5930 C   0  0  0  0  0  0  0  0  0  0  0  0
   45.4880   34.5280   43.1960 N   0  0  0  0  0  0  0  0  0  0  0  0
   44.3860   35.4650   43.2450 C   0  0  0  0  0  0  0  0  0  0  0  0
   43.8490   35.6210   41.8610 C   0  0  0  0  0  0  0  0  0  0  0  0
   44.6330   34.6510   41.0020 C   0  0  0  0  0  0  0  0  0  0  0  0
   45.9100   34.4970   41.7910 C   0  0  0  0  0  0  0  0  0  0  0  0
   46.6580   30.5920   43.1210 S   0  0  0  0  0  0  0  0  0  0  0  0
   45.3029   34.2808   46.0955 H   0  0  0  0  0  0  0  0  0  0  0  0
   47.8896   31.3967   47.7610 H   0  0  0  0  0  0  0  0  0  0  0  0
   45.2320   32.5112   42.7435 H   0  0  0  0  0  0  0  0  0  0  0  0
   44.0252   33.2375   43.8915 H   0  0  0  0  0  0  0  0  0  0  0  0
   43.5984   35.0801   43.9095 H   0  0  0  0  0  0  0  0  0  0  0  0
   44.7278   36.4358   43.6332 H   0  0  0  0  0  0  0  0  0  0  0  0
   42.7772   35.3747   41.8361 H   0  0  0  0  0  0  0  0  0  0  0  0
   43.9524   36.6553   41.5010 H   0  0  0  0  0  0  0  0  0  0  0  0
   44.8279   35.0686   40.0032 H   0  0  0  0  0  0  0  0  0  0  0  0
   44.1101   33.7017   40.8137 H   0  0  0  0  0  0  0  0  0  0  0  0
   46.3990   33.5405   41.5542 H   0  0  0  0  0  0  0  0  0  0  0  0
   46.6396   35.2868   41.5589 H   0  0  0  0  0  0  0  0  0  0  0  0
   46.7324   29.2551   43.4109 H   0  0  0  0  0  0  0  0  0  0  0  0
  1  6  2  0
  2  1  1  0
  3  2  2  0
  3  4  1  0
  4  5  2  0
  5  6  1  0
  7  2  1  0
  8  9  1  0
  8  7  1  0
 10  9  1  0
 11 12  1  0
 11 10  1  0
 12  8  1  0
 13  3  1  0
  1 14  1  0
  5 15  1  0
  7 16  1  0
  7 17  1  0
  9 18  1  0
  9 19  1  0
 10 20  1  0
 10 21  1  0
 11 22  1  0
 11 23  1  0
 12 24  1  0
 12 25  1  0
 13 26  1  0
M  ISO  8  14  14  15  14  16   8  17   8  18  13  19  13  20  13  21  13
M  ISO  5  22  13  23  13  24  13  25  13  26  11
M  END
>  <minimizedAffinity>  (1) 
-3.18719482

>  <minimizedRMSD>  (1) 
3.58874416

$$$$
