
     RDKit          3D

 34 37  0  0  0  0  0  0  0  0999 V2000
   45.4030   36.2160   43.1300 C   0  0  0  0  0  0  0  0  0  0  0  0
   46.1270   35.0190   43.0890 C   0  0  0  0  0  0  0  0  0  0  0  0
   45.9950   34.1600   44.1640 C   0  0  0  0  0  0  0  0  0  0  0  0
   45.1790   34.5200   45.1950 N   0  0  0  0  0  0  0  0  0  0  0  0
   44.4990   35.6850   45.1940 C   0  0  0  0  0  0  0  0  0  0  0  0
   44.6160   36.5280   44.1610 N   0  0  0  0  0  0  0  0  0  0  0  0
   47.0040   34.6780   41.9380 C   0  0  0  0  0  0  0  0  0  0  0  0
   46.2030   34.0620   40.8240 C   0  0  0  0  0  0  0  0  0  0  0  0
   46.8120   33.4190   39.7880 C   0  0  0  0  0  0  0  0  0  0  0  0
   45.4200   32.8700   38.7330 S   0  0  0  0  0  0  0  0  0  0  0  0
   44.1760   33.6600   39.9620 C   0  0  0  0  0  0  0  0  0  0  0  0
   44.8980   34.0820   40.7410 N   0  0  0  0  0  0  0  0  0  0  0  0
   46.8640   32.6080   44.2250 S   0  0  0  0  0  0  0  0  0  0  0  0
   46.1160   31.4520   45.3290 C   0  0  0  0  0  0  0  0  0  0  0  0
   45.4900   30.2900   44.8730 C   0  0  0  0  0  0  0  0  0  0  0  0
   44.9960   29.5690   45.8930 N   0  0  0  0  0  0  0  0  0  0  0  0
   45.2860   30.2390   47.0340 C   0  0  0  0  0  0  0  0  0  0  0  0
   45.0700   30.0510   48.3800 C   0  0  0  0  0  0  0  0  0  0  0  0
   45.4980   30.9370   49.3500 C   0  0  0  0  0  0  0  0  0  0  0  0
   46.1860   32.0880   48.9740 C   0  0  0  0  0  0  0  0  0  0  0  0
   46.4280   32.3220   47.6200 C   0  0  0  0  0  0  0  0  0  0  0  0
   45.9690   31.3870   46.6910 C   0  0  0  0  0  0  0  0  0  0  0  0
   45.4852   36.9194   42.2883 H   0  0  0  0  0  0  0  0  0  0  0  0
   43.8480   35.9423   46.0425 H   0  0  0  0  0  0  0  0  0  0  0  0
   47.4895   35.5939   41.5701 H   0  0  0  0  0  0  0  0  0  0  0  0
   47.7608   33.9531   42.2724 H   0  0  0  0  0  0  0  0  0  0  0  0
   47.8888   33.2656   39.6240 H   0  0  0  0  0  0  0  0  0  0  0  0
   43.0772   33.6965   39.9267 H   0  0  0  0  0  0  0  0  0  0  0  0
   45.4115   30.0020   43.8143 H   0  0  0  0  0  0  0  0  0  0  0  0
   44.4911   28.6741   45.8210 H   0  0  0  0  0  0  0  0  0  0  0  0
   44.5286   29.1486   48.7003 H   0  0  0  0  0  0  0  0  0  0  0  0
   45.2966   30.7346   50.4123 H   0  0  0  0  0  0  0  0  0  0  0  0
   46.5339   32.8029   49.7342 H   0  0  0  0  0  0  0  0  0  0  0  0
   46.9680   33.2225   47.2923 H   0  0  0  0  0  0  0  0  0  0  0  0
  1  6  2  0
  2  1  1  0
  2  3  2  0
  3 13  1  0
  3  4  1  0
  5  4  2  0
  6  5  1  0
  7  2  1  0
  8  7  1  0
  9  8  2  0
 10  9  1  0
 10 11  1  0
 11 12  2  0
 12  8  1  0
 13 14  1  0
 14 22  1  0
 15 14  2  0
 15 16  1  0
 16 17  1  0
 17 18  2  0
 18 19  1  0
 20 19  2  0
 21 20  1  0
 22 17  1  0
 22 21  2  0
  1 23  1  0
  5 24  1  0
  7 25  1  0
  7 26  1  0
  9 27  1  0
 11 28  1  0
 15 29  1  0
 16 30  1  0
 18 31  1  0
 19 32  1  0
 20 33  1  0
 21 34  1  0
M  ISO  8  23  14  24  14  25   8  26   8  27  14  28  14  29  14  30   9
M  ISO  4  31  14  32  14  33  14  34  14
M  END
>  <minimizedAffinity>  (1) 
-5.84687567

>  <minimizedRMSD>  (1) 
3.149791

$$$$
