
     RDKit          3D

 30 32  0  0  0  0  0  0  0  0999 V2000
   44.4640   35.7880   44.4320 C   0  0  0  0  0  0  0  0  0  0  0  0
   44.9950   35.0270   43.3920 C   0  0  0  0  0  0  0  0  0  0  0  0
   45.6160   33.8350   43.7280 C   0  0  0  0  0  0  0  0  0  0  0  0
   45.6700   33.4830   45.0500 N   0  0  0  0  0  0  0  0  0  0  0  0
   45.1490   34.2400   46.0150 C   0  0  0  0  0  0  0  0  0  0  0  0
   44.5470   35.3930   45.7030 N   0  0  0  0  0  0  0  0  0  0  0  0
   44.9220   35.4360   41.9690 C   0  0  0  0  0  0  0  0  0  0  0  0
   43.5920   35.0500   41.3670 C   0  0  0  0  0  0  0  0  0  0  0  0
   43.5410   34.2510   40.2920 C   0  0  0  0  0  0  0  0  0  0  0  0
   41.7470   34.0830   39.9550 S   0  0  0  0  0  0  0  0  0  0  0  0
   41.3720   35.2150   41.4510 C   0  0  0  0  0  0  0  0  0  0  0  0
   42.4260   35.4250   41.7980 N   0  0  0  0  0  0  0  0  0  0  0  0
   46.3410   32.7640   42.4880 S   0  0  0  0  0  0  0  0  0  0  0  0
   48.0920   33.1220   42.4440 C   0  0  0  0  0  0  0  0  0  0  0  0
   49.0700   32.1530   42.2520 C   0  0  0  0  0  0  0  0  0  0  0  0
   50.4120   32.4440   42.2210 C   0  0  0  0  0  0  0  0  0  0  0  0
   50.8410   33.7560   42.3850 C   0  0  0  0  0  0  0  0  0  0  0  0
   49.9100   34.7620   42.5810 C   0  0  0  0  0  0  0  0  0  0  0  0
   48.5970   34.4110   42.6030 C   0  0  0  0  0  0  0  0  0  0  0  0
   43.9634   36.7392   44.1983 H   0  0  0  0  0  0  0  0  0  0  0  0
   45.2138   33.9177   47.0647 H   0  0  0  0  0  0  0  0  0  0  0  0
   45.0457   36.5269   41.9006 H   0  0  0  0  0  0  0  0  0  0  0  0
   45.7219   34.9241   41.4138 H   0  0  0  0  0  0  0  0  0  0  0  0
   44.3799   33.8011   39.7407 H   0  0  0  0  0  0  0  0  0  0  0  0
   40.4094   35.5609   41.8556 H   0  0  0  0  0  0  0  0  0  0  0  0
   48.7554   31.1074   42.1191 H   0  0  0  0  0  0  0  0  0  0  0  0
   51.1464   31.6398   42.0666 H   0  0  0  0  0  0  0  0  0  0  0  0
   51.9147   33.9938   42.3592 H   0  0  0  0  0  0  0  0  0  0  0  0
   50.2219   35.8084   42.7142 H   0  0  0  0  0  0  0  0  0  0  0  0
   47.8664   35.2181   42.7607 H   0  0  0  0  0  0  0  0  0  0  0  0
  1  6  2  0
  2  3  2  0
  2  1  1  0
  3  4  1  0
  4  5  2  0
  6  5  1  0
  7  2  1  0
  8 12  1  0
  8  7  1  0
  9  8  2  0
 10  9  1  0
 10 11  1  0
 11 12  2  0
 13  3  1  0
 14 13  1  0
 14 19  1  0
 15 14  2  0
 16 15  1  0
 16 17  2  0
 17 18  1  0
 18 19  2  0
  1 20  1  0
  5 21  1  0
  7 22  1  0
  7 23  1  0
  9 24  1  0
 11 25  1  0
 15 26  1  0
 16 27  1  0
 17 28  1  0
 18 29  1  0
 19 30  1  0
M  ISO  8  20  14  21  14  22   8  23   8  24  14  25  14  26  14  27  14
M  ISO  3  28  14  29  14  30  14
M  END
>  <minimizedAffinity>  (1) 
-5.26404572

>  <minimizedRMSD>  (1) 
0.9392308

$$$$
