
     RDKit          3D

 35 37  0  0  0  0  0  0  0  0999 V2000
   44.2300   35.7030   44.3180 C   0  0  0  0  0  0  0  0  0  0  0  0
   44.6960   35.1970   43.0920 C   0  0  0  0  0  0  0  0  0  0  0  0
   45.5920   34.1340   43.1410 C   0  0  0  0  0  0  0  0  0  0  0  0
   45.9530   33.6600   44.3570 N   0  0  0  0  0  0  0  0  0  0  0  0
   45.4950   34.1600   45.5160 C   0  0  0  0  0  0  0  0  0  0  0  0
   44.6320   35.1820   45.4850 N   0  0  0  0  0  0  0  0  0  0  0  0
   44.2560   35.7660   41.7980 C   0  0  0  0  0  0  0  0  0  0  0  0
   42.9530   35.1510   41.3580 C   0  0  0  0  0  0  0  0  0  0  0  0
   42.9280   34.1890   40.3930 C   0  0  0  0  0  0  0  0  0  0  0  0
   41.1510   33.7870   40.2330 S   0  0  0  0  0  0  0  0  0  0  0  0
   40.7400   35.0770   41.5900 C   0  0  0  0  0  0  0  0  0  0  0  0
   41.7820   35.4630   41.8350 N   0  0  0  0  0  0  0  0  0  0  0  0
   46.2470   33.4130   41.6430 S   0  0  0  0  0  0  0  0  0  0  0  0
   50.3080   35.0160   42.4500 N   0  0  0  0  0  0  0  0  0  0  0  0
   49.6380   33.7630   42.7050 C   0  0  0  0  0  0  0  0  0  0  0  0
   48.9060   33.3270   41.4500 C   0  0  0  0  0  0  0  0  0  0  0  0
   47.7570   34.2510   41.1080 C   0  0  0  0  0  0  0  0  0  0  0  0
   47.9950   35.5250   41.9230 C   0  0  0  0  0  0  0  0  0  0  0  0
   49.4460   35.9070   41.7050 C   0  0  0  0  0  0  0  0  0  0  0  0
   43.5208   36.5439   44.3192 H   0  0  0  0  0  0  0  0  0  0  0  0
   45.8242   33.7359   46.4761 H   0  0  0  0  0  0  0  0  0  0  0  0
   44.1228   36.8523   41.9085 H   0  0  0  0  0  0  0  0  0  0  0  0
   45.0221   35.5491   41.0390 H   0  0  0  0  0  0  0  0  0  0  0  0
   43.7757   33.7567   39.8411 H   0  0  0  0  0  0  0  0  0  0  0  0
   39.7667   35.3644   42.0143 H   0  0  0  0  0  0  0  0  0  0  0  0
   50.5569   35.4563   43.3472 H   0  0  0  0  0  0  0  0  0  0  0  0
   50.3789   32.9991   42.9834 H   0  0  0  0  0  0  0  0  0  0  0  0
   48.9195   33.8879   43.5285 H   0  0  0  0  0  0  0  0  0  0  0  0
   49.6164   33.3193   40.6102 H   0  0  0  0  0  0  0  0  0  0  0  0
   48.4906   32.3249   41.6323 H   0  0  0  0  0  0  0  0  0  0  0  0
   47.6765   34.4963   40.0387 H   0  0  0  0  0  0  0  0  0  0  0  0
   47.3327   36.3303   41.5725 H   0  0  0  0  0  0  0  0  0  0  0  0
   47.7811   35.3621   42.9897 H   0  0  0  0  0  0  0  0  0  0  0  0
   49.6851   35.8343   40.6338 H   0  0  0  0  0  0  0  0  0  0  0  0
   49.6046   36.9384   42.0528 H   0  0  0  0  0  0  0  0  0  0  0  0
  1  6  2  0
  2  3  2  0
  2  1  1  0
  3  4  1  0
  4  5  2  0
  6  5  1  0
  7  2  1  0
  8  7  1  0
  8 12  1  0
  9  8  2  0
 10  9  1  0
 10 11  1  0
 11 12  2  0
 13  3  1  0
 14 15  1  0
 16 15  1  0
 17 16  1  0
 17 13  1  0
 17 18  1  0
 19 18  1  0
 19 14  1  0
  1 20  1  0
  5 21  1  0
  7 22  1  0
  7 23  1  0
  9 24  1  0
 11 25  1  0
 14 26  1  0
 15 27  1  0
 15 28  1  0
 16 29  1  0
 16 30  1  0
 17 31  1  0
 18 32  1  0
 18 33  1  0
 19 34  1  0
 19 35  1  0
M  ISO  8  20  14  21  14  22   8  23   8  24  14  25  14  26   5  27  13
M  ISO  8  28  13  29  13  30  13  31  13  32  13  33  13  34  13  35  13
M  END
>  <minimizedAffinity>  (1) 
-5.30118465

>  <minimizedRMSD>  (1) 
1.37303221

$$$$
