
     RDKit          3D

 34 37  0  0  0  0  0  0  0  0999 V2000
   44.3530   35.9220   44.3250 C   0  0  0  0  0  0  0  0  0  0  0  0
   44.6430   35.2780   43.1170 C   0  0  0  0  0  0  0  0  0  0  0  0
   45.2340   34.0290   43.1940 C   0  0  0  0  0  0  0  0  0  0  0  0
   45.4930   33.5120   44.4220 N   0  0  0  0  0  0  0  0  0  0  0  0
   45.2020   34.1570   45.5670 C   0  0  0  0  0  0  0  0  0  0  0  0
   44.6340   35.3540   45.5050 N   0  0  0  0  0  0  0  0  0  0  0  0
   44.3320   35.9060   41.8120 C   0  0  0  0  0  0  0  0  0  0  0  0
   43.0100   35.4000   41.2730 C   0  0  0  0  0  0  0  0  0  0  0  0
   42.9020   34.8960   40.0130 C   0  0  0  0  0  0  0  0  0  0  0  0
   41.1420   34.4470   39.8800 S   0  0  0  0  0  0  0  0  0  0  0  0
   40.8420   35.0570   41.6670 C   0  0  0  0  0  0  0  0  0  0  0  0
   41.8980   35.4040   41.9500 N   0  0  0  0  0  0  0  0  0  0  0  0
   45.6510   33.1110   41.7230 S   0  0  0  0  0  0  0  0  0  0  0  0
   47.1460   32.1670   41.9400 C   0  0  0  0  0  0  0  0  0  0  0  0
   47.1780   30.8270   41.9370 N   0  0  0  0  0  0  0  0  0  0  0  0
   48.3510   30.1900   42.1070 C   0  0  0  0  0  0  0  0  0  0  0  0
   49.5290   30.8430   42.2860 N   0  0  0  0  0  0  0  0  0  0  0  0
   49.5100   32.2080   42.2910 C   0  0  0  0  0  0  0  0  0  0  0  0
   50.7030   32.8830   42.4720 C   0  0  0  0  0  0  0  0  0  0  0  0
   50.6910   34.2720   42.4790 C   0  0  0  0  0  0  0  0  0  0  0  0
   49.5020   34.9320   42.3060 C   0  0  0  0  0  0  0  0  0  0  0  0
   48.3080   34.2680   42.1250 C   0  0  0  0  0  0  0  0  0  0  0  0
   48.3140   32.8750   42.1180 C   0  0  0  0  0  0  0  0  0  0  0  0
   43.8839   36.9167   44.3051 H   0  0  0  0  0  0  0  0  0  0  0  0
   45.4319   33.6981   46.5399 H   0  0  0  0  0  0  0  0  0  0  0  0
   44.2750   36.9969   41.9412 H   0  0  0  0  0  0  0  0  0  0  0  0
   45.1268   35.6461   41.0973 H   0  0  0  0  0  0  0  0  0  0  0  0
   43.6911   34.7860   39.2546 H   0  0  0  0  0  0  0  0  0  0  0  0
   39.9149   35.0712   42.2589 H   0  0  0  0  0  0  0  0  0  0  0  0
   48.3565   29.0900   42.1008 H   0  0  0  0  0  0  0  0  0  0  0  0
   51.6443   32.3303   42.6080 H   0  0  0  0  0  0  0  0  0  0  0  0
   51.6247   34.8358   42.6217 H   0  0  0  0  0  0  0  0  0  0  0  0
   49.5009   36.0320   42.3119 H   0  0  0  0  0  0  0  0  0  0  0  0
   47.3700   34.8262   41.9889 H   0  0  0  0  0  0  0  0  0  0  0  0
  1  6  2  0
  2  3  2  0
  2  1  1  0
  3  4  1  0
  4  5  2  0
  6  5  1  0
  7  2  1  0
  8  7  1  0
  8 12  1  0
  9  8  2  0
 10  9  1  0
 10 11  1  0
 11 12  2  0
 13 14  1  0
 13  3  1  0
 14 23  1  0
 15 14  2  0
 15 16  1  0
 16 17  2  0
 17 18  1  0
 18 19  2  0
 19 20  1  0
 21 20  2  0
 22 21  1  0
 23 22  2  0
 23 18  1  0
  1 24  1  0
  5 25  1  0
  7 26  1  0
  7 27  1  0
  9 28  1  0
 11 29  1  0
 16 30  1  0
 19 31  1  0
 20 32  1  0
 21 33  1  0
 22 34  1  0
M  ISO  8  24  14  25  14  26   8  27   8  28  14  29  14  30  14  31  14
M  ISO  3  32  14  33  14  34  14
M  END
>  <minimizedAffinity>  (1) 
-5.47668695

>  <minimizedRMSD>  (1) 
1.68084288

$$$$
