
     RDKit          3D

 23 24  0  0  0  0  0  0  0  0999 V2000
   44.6350   35.2100   44.3630 C   0  0  0  0  0  0  0  0  0  0  0  0
   45.1510   35.1940   43.0640 C   0  0  0  0  0  0  0  0  0  0  0  0
   46.2870   34.4120   42.8540 C   0  0  0  0  0  0  0  0  0  0  0  0
   46.7990   33.7350   43.9090 N   0  0  0  0  0  0  0  0  0  0  0  0
   46.2750   33.7770   45.1370 C   0  0  0  0  0  0  0  0  0  0  0  0
   45.1970   34.5100   45.3670 N   0  0  0  0  0  0  0  0  0  0  0  0
   44.5320   35.9630   41.9600 C   0  0  0  0  0  0  0  0  0  0  0  0
   43.3060   35.2550   41.4390 C   0  0  0  0  0  0  0  0  0  0  0  0
   43.3830   34.2840   40.4860 C   0  0  0  0  0  0  0  0  0  0  0  0
   41.6490   33.7840   40.2360 S   0  0  0  0  0  0  0  0  0  0  0  0
   41.0860   35.0580   41.5460 C   0  0  0  0  0  0  0  0  0  0  0  0
   42.0900   35.5060   41.8450 N   0  0  0  0  0  0  0  0  0  0  0  0
   47.0400   34.3100   41.2360 S   0  0  0  0  0  0  0  0  0  0  0  0
   48.5960   35.2450   41.2190 C   0  0  0  0  0  0  0  0  0  0  0  0
   48.4230   36.3130   42.0800 F   0  0  0  0  0  0  0  0  0  0  0  0
   48.7940   35.7190   39.9140 F   0  0  0  0  0  0  0  0  0  0  0  0
   49.6610   34.5120   41.6760 F   0  0  0  0  0  0  0  0  0  0  0  0
   43.7401   35.8145   44.5722 H   0  0  0  0  0  0  0  0  0  0  0  0
   46.7377   33.2044   45.9543 H   0  0  0  0  0  0  0  0  0  0  0  0
   44.2444   36.9582   42.3300 H   0  0  0  0  0  0  0  0  0  0  0  0
   45.2611   36.0562   41.1417 H   0  0  0  0  0  0  0  0  0  0  0  0
   44.2813   33.8937   39.9852 H   0  0  0  0  0  0  0  0  0  0  0  0
   40.0747   35.2929   41.9096 H   0  0  0  0  0  0  0  0  0  0  0  0
  1  6  2  0
  2  1  1  0
  3  2  2  0
  3  4  1  0
  4  5  2  0
  5  6  1  0
  7  2  1  0
  8 12  1  0
  8  7  1  0
  9  8  2  0
 10  9  1  0
 10 11  1  0
 11 12  2  0
 13  3  1  0
 14 13  1  0
 14 17  1  0
 14 15  1  0
 16 14  1  0
  1 18  1  0
  5 19  1  0
  7 20  1  0
  7 21  1  0
  9 22  1  0
 11 23  1  0
M  ISO  6  18  14  19  14  20   8  21   8  22  14  23  14
M  END
>  <minimizedAffinity>  (1) 
-4.81930304

>  <minimizedRMSD>  (1) 
2.42868209

$$$$
