
     RDKit          3D

 27 29  0  0  0  0  0  0  0  0999 V2000
   44.4820   35.3750   44.5880 C   0  0  0  0  0  0  0  0  0  0  0  0
   45.0810   35.3510   43.3180 C   0  0  0  0  0  0  0  0  0  0  0  0
   46.2040   34.5480   43.1910 C   0  0  0  0  0  0  0  0  0  0  0  0
   46.6400   33.8550   44.2690 N   0  0  0  0  0  0  0  0  0  0  0  0
   46.0430   33.9010   45.4690 C   0  0  0  0  0  0  0  0  0  0  0  0
   44.9570   34.6680   45.6220 N   0  0  0  0  0  0  0  0  0  0  0  0
   44.5560   36.1300   42.1850 C   0  0  0  0  0  0  0  0  0  0  0  0
   43.3910   35.4070   41.5330 C   0  0  0  0  0  0  0  0  0  0  0  0
   43.6070   34.5920   40.4610 C   0  0  0  0  0  0  0  0  0  0  0  0
   41.9380   33.9760   40.0580 S   0  0  0  0  0  0  0  0  0  0  0  0
   41.2100   34.9980   41.5010 C   0  0  0  0  0  0  0  0  0  0  0  0
   42.1490   35.4930   41.9160 N   0  0  0  0  0  0  0  0  0  0  0  0
   47.0600   34.4310   41.6190 S   0  0  0  0  0  0  0  0  0  0  0  0
   48.7610   33.9720   41.9160 C   0  0  0  0  0  0  0  0  0  0  0  0
   49.7940   34.6780   42.5000 C   0  0  0  0  0  0  0  0  0  0  0  0
   50.9070   33.9370   42.5120 N   0  0  0  0  0  0  0  0  0  0  0  0
   50.5820   32.7670   41.9400 C   0  0  0  0  0  0  0  0  0  0  0  0
   49.2780   32.7610   41.5650 N   0  0  0  0  0  0  0  0  0  0  0  0
   43.5884   35.9983   44.7395 H   0  0  0  0  0  0  0  0  0  0  0  0
   46.4393   33.3180   46.3134 H   0  0  0  0  0  0  0  0  0  0  0  0
   44.2152   37.1109   42.5479 H   0  0  0  0  0  0  0  0  0  0  0  0
   45.3561   36.2563   41.4407 H   0  0  0  0  0  0  0  0  0  0  0  0
   44.5587   34.3616   39.9599 H   0  0  0  0  0  0  0  0  0  0  0  0
   40.1669   35.0847   41.8391 H   0  0  0  0  0  0  0  0  0  0  0  0
   49.7132   35.7006   42.8973 H   0  0  0  0  0  0  0  0  0  0  0  0
   51.2779   31.9275   41.7950 H   0  0  0  0  0  0  0  0  0  0  0  0
   48.7754   31.9893   41.1036 H   0  0  0  0  0  0  0  0  0  0  0  0
  1  6  2  0
  2  1  1  0
  3  2  2  0
  3  4  1  0
  4  5  2  0
  5  6  1  0
  7  2  1  0
  8 12  1  0
  8  7  1  0
  9  8  2  0
 10  9  1  0
 10 11  1  0
 11 12  2  0
 13 14  1  0
 13  3  1  0
 14 15  2  0
 15 16  1  0
 17 16  2  0
 18 14  1  0
 18 17  1  0
  1 19  1  0
  5 20  1  0
  7 21  1  0
  7 22  1  0
  9 23  1  0
 11 24  1  0
 15 25  1  0
 17 26  1  0
 18 27  1  0
M  ISO  8  19  14  20  14  21   8  22   8  23  14  24  14  25  14  26  14
M  ISO  1  27   9
M  END
>  <minimizedAffinity>  (1) 
-4.69330025

>  <minimizedRMSD>  (1) 
1.99020267

$$$$
