
     RDKit          3D

 37 39  0  0  0  0  0  0  0  0999 V2000
   45.7640   34.9470   42.6830 C   0  0  0  0  0  0  0  0  0  0  0  0
   45.1650   34.5320   45.0610 C   0  0  0  0  0  0  0  0  0  0  0  0
   45.9930   34.2010   43.9560 C   0  0  0  0  0  0  0  0  0  0  0  0
   46.9570   33.2010   44.1540 C   0  0  0  0  0  0  0  0  0  0  0  0
   47.0400   32.6190   45.3700 N   0  0  0  0  0  0  0  0  0  0  0  0
   46.2470   32.9490   46.3990 C   0  0  0  0  0  0  0  0  0  0  0  0
   45.3040   33.9140   46.2360 N   0  0  0  0  0  0  0  0  0  0  0  0
   47.0790   35.1400   41.9800 C   0  0  0  0  0  0  0  0  0  0  0  0
   45.1320   36.2670   43.0070 C   0  0  0  0  0  0  0  0  0  0  0  0
   44.7890   34.1520   41.8470 C   0  0  0  0  0  0  0  0  0  0  0  0
   44.0790   34.9940   41.0460 O   0  0  0  0  0  0  0  0  0  0  0  0
   43.2780   34.4950   40.0150 C   0  0  0  0  0  0  0  0  0  0  0  0
   43.7100   33.7220   38.9450 C   0  0  0  0  0  0  0  0  0  0  0  0
   42.6690   33.4190   38.1480 N   0  0  0  0  0  0  0  0  0  0  0  0
   41.5530   33.9890   38.6840 C   0  0  0  0  0  0  0  0  0  0  0  0
   40.2050   34.0300   38.3270 C   0  0  0  0  0  0  0  0  0  0  0  0
   39.3170   34.7280   39.1360 C   0  0  0  0  0  0  0  0  0  0  0  0
   39.7170   35.3830   40.2830 C   0  0  0  0  0  0  0  0  0  0  0  0
   41.0650   35.3540   40.6600 C   0  0  0  0  0  0  0  0  0  0  0  0
   41.8980   34.6600   39.8400 C   0  0  0  0  0  0  0  0  0  0  0  0
   44.3963   35.3105   44.9469 H   0  0  0  0  0  0  0  0  0  0  0  0
   47.6295   32.8980   43.3379 H   0  0  0  0  0  0  0  0  0  0  0  0
   46.3587   32.4422   47.3689 H   0  0  0  0  0  0  0  0  0  0  0  0
   47.8794   35.2575   42.7253 H   0  0  0  0  0  0  0  0  0  0  0  0
   47.2902   34.2632   41.3502 H   0  0  0  0  0  0  0  0  0  0  0  0
   47.0294   36.0405   41.3502 H   0  0  0  0  0  0  0  0  0  0  0  0
   45.0742   36.3877   44.0988 H   0  0  0  0  0  0  0  0  0  0  0  0
   45.7391   37.0789   42.5800 H   0  0  0  0  0  0  0  0  0  0  0  0
   44.1189   36.3031   42.5800 H   0  0  0  0  0  0  0  0  0  0  0  0
   45.3422   33.4340   41.2238 H   0  0  0  0  0  0  0  0  0  0  0  0
   44.0981   33.6100   42.5095 H   0  0  0  0  0  0  0  0  0  0  0  0
   44.7493   33.4045   38.7744 H   0  0  0  0  0  0  0  0  0  0  0  0
   42.7085   32.8564   37.2861 H   0  0  0  0  0  0  0  0  0  0  0  0
   39.8510   33.5181   37.4200 H   0  0  0  0  0  0  0  0  0  0  0  0
   38.2549   34.7598   38.8515 H   0  0  0  0  0  0  0  0  0  0  0  0
   38.9818   35.9241   40.8968 H   0  0  0  0  0  0  0  0  0  0  0  0
   41.4283   35.8623   41.5654 H   0  0  0  0  0  0  0  0  0  0  0  0
  1  9  1  0
  1  3  1  0
  2  7  2  0
  3  4  2  0
  3  2  1  0
  4  5  1  0
  5  6  2  0
  7  6  1  0
  8  1  1  0
 10  1  1  0
 11 10  1  0
 12 11  1  0
 13 12  2  0
 14 15  1  0
 14 13  1  0
 15 20  2  0
 16 15  1  0
 16 17  2  0
 17 18  1  0
 18 19  2  0
 20 12  1  0
 20 19  1  0
  2 21  1  0
  4 22  1  0
  6 23  1  0
  8 24  1  0
  8 25  1  0
  8 26  1  0
  9 27  1  0
  9 28  1  0
  9 29  1  0
 10 30  1  0
 10 31  1  0
 13 32  1  0
 14 33  1  0
 16 34  1  0
 17 35  1  0
 18 36  1  0
 19 37  1  0
M  ISO  8  21  14  22  14  23  14  24   8  25   8  26   8  27   8  28   8
M  ISO  8  29   8  30   8  31   8  32  14  33   9  34  14  35  14  36  14
M  ISO  1  37  14
M  END
>  <minimizedAffinity>  (1) 
-5.83548927

>  <minimizedRMSD>  (1) 
2.73342586

$$$$
