
     RDKit          3D

 23 24  0  0  0  0  0  0  0  0999 V2000
   44.5710   35.5380   44.6760 C   0  0  0  0  0  0  0  0  0  0  0  0
   45.3260   35.0310   43.6030 C   0  0  0  0  0  0  0  0  0  0  0  0
   46.1390   33.9500   43.8850 C   0  0  0  0  0  0  0  0  0  0  0  0
   46.1550   33.4550   45.1580 N   0  0  0  0  0  0  0  0  0  0  0  0
   45.4250   33.9620   46.1450 C   0  0  0  0  0  0  0  0  0  0  0  0
   44.6370   34.9980   45.9080 N   0  0  0  0  0  0  0  0  0  0  0  0
   45.2490   35.6260   42.2590 C   0  0  0  0  0  0  0  0  0  0  0  0
   44.0370   35.1040   41.5090 C   0  0  0  0  0  0  0  0  0  0  0  0
   44.1710   34.1500   40.5480 C   0  0  0  0  0  0  0  0  0  0  0  0
   42.4540   33.8870   39.9780 S   0  0  0  0  0  0  0  0  0  0  0  0
   41.8380   35.1990   41.2260 C   0  0  0  0  0  0  0  0  0  0  0  0
   42.8160   35.5050   41.7110 N   0  0  0  0  0  0  0  0  0  0  0  0
   47.1500   33.2170   42.5990 S   0  0  0  0  0  0  0  0  0  0  0  0
   48.0690   31.8320   43.3050 C   0  0  0  0  0  0  0  0  0  0  0  0
   43.9085   36.3991   44.5042 H   0  0  0  0  0  0  0  0  0  0  0  0
   45.4752   33.5235   47.1526 H   0  0  0  0  0  0  0  0  0  0  0  0
   45.1725   36.7194   42.3521 H   0  0  0  0  0  0  0  0  0  0  0  0
   46.1556   35.3528   41.6992 H   0  0  0  0  0  0  0  0  0  0  0  0
   45.0899   33.6565   40.1987 H   0  0  0  0  0  0  0  0  0  0  0  0
   40.8164   35.5578   41.4198 H   0  0  0  0  0  0  0  0  0  0  0  0
   48.0314   31.8886   44.4029 H   0  0  0  0  0  0  0  0  0  0  0  0
   47.6193   30.8853   42.9711 H   0  0  0  0  0  0  0  0  0  0  0  0
   49.1161   31.8784   42.9711 H   0  0  0  0  0  0  0  0  0  0  0  0
  1  6  2  0
  2  3  2  0
  2  1  1  0
  3  4  1  0
  4  5  2  0
  6  5  1  0
  7  2  1  0
  8 12  1  0
  8  7  1  0
  9  8  2  0
 10  9  1  0
 10 11  1  0
 11 12  2  0
 13 14  1  0
 13  3  1  0
  1 15  1  0
  5 16  1  0
  7 17  1  0
  7 18  1  0
  9 19  1  0
 11 20  1  0
 14 21  1  0
 14 22  1  0
 14 23  1  0
M  ISO  8  15  14  16  14  17   8  18   8  19  14  20  14  21   8  22   8
M  ISO  1  23   8
M  END
>  <minimizedAffinity>  (1) 
-3.78361583

>  <minimizedRMSD>  (1) 
0.0171294343

$$$$
