
     RDKit          3D

 26 27  0  0  0  0  0  0  0  0999 V2000
   45.0820   34.7440   44.9650 C   0  0  0  0  0  0  0  0  0  0  0  0
   45.8970   34.6870   43.8220 C   0  0  0  0  0  0  0  0  0  0  0  0
   46.9330   33.7740   43.8110 C   0  0  0  0  0  0  0  0  0  0  0  0
   47.1010   32.9830   44.9160 N   0  0  0  0  0  0  0  0  0  0  0  0
   46.3070   33.0580   45.9950 C   0  0  0  0  0  0  0  0  0  0  0  0
   45.3100   33.9310   46.0130 N   0  0  0  0  0  0  0  0  0  0  0  0
   45.6620   35.5730   42.6580 C   0  0  0  0  0  0  0  0  0  0  0  0
   44.4920   35.0900   41.8410 C   0  0  0  0  0  0  0  0  0  0  0  0
   44.6620   34.2150   40.8120 C   0  0  0  0  0  0  0  0  0  0  0  0
   42.9770   33.9570   40.1690 S   0  0  0  0  0  0  0  0  0  0  0  0
   42.2890   35.1640   41.4980 C   0  0  0  0  0  0  0  0  0  0  0  0
   43.2560   35.4530   42.0390 N   0  0  0  0  0  0  0  0  0  0  0  0
   48.0340   33.6050   42.4270 S   0  0  0  0  0  0  0  0  0  0  0  0
   49.3920   34.8260   42.5380 C   0  0  0  0  0  0  0  0  0  0  0  0
   49.1430   35.9520   41.5500 C   0  0  0  0  0  0  0  0  0  0  0  0
   44.2486   35.4609   45.0037 H   0  0  0  0  0  0  0  0  0  0  0  0
   46.4823   32.3996   46.8585 H   0  0  0  0  0  0  0  0  0  0  0  0
   45.4541   36.5917   43.0172 H   0  0  0  0  0  0  0  0  0  0  0  0
   46.5605   35.5647   42.0235 H   0  0  0  0  0  0  0  0  0  0  0  0
   45.6000   33.7672   40.4520 H   0  0  0  0  0  0  0  0  0  0  0  0
   41.2545   35.4870   41.6863 H   0  0  0  0  0  0  0  0  0  0  0  0
   49.4340   35.2358   43.5579 H   0  0  0  0  0  0  0  0  0  0  0  0
   50.3470   34.3345   42.3004 H   0  0  0  0  0  0  0  0  0  0  0  0
   48.9372   36.8827   42.0990 H   0  0  0  0  0  0  0  0  0  0  0  0
   50.0327   36.0884   40.9177 H   0  0  0  0  0  0  0  0  0  0  0  0
   48.2788   35.7005   40.9177 H   0  0  0  0  0  0  0  0  0  0  0  0
  1  6  2  0
  2  1  1  0
  3  2  2  0
  3  4  1  0
  4  5  2  0
  5  6  1  0
  7  2  1  0
  8 12  1  0
  8  7  1  0
  9  8  2  0
 10  9  1  0
 10 11  1  0
 11 12  2  0
 13 14  1  0
 13  3  1  0
 15 14  1  0
  1 16  1  0
  5 17  1  0
  7 18  1  0
  7 19  1  0
  9 20  1  0
 11 21  1  0
 14 22  1  0
 14 23  1  0
 15 24  1  0
 15 25  1  0
 15 26  1  0
M  ISO  8  16  14  17  14  18   8  19   8  20  14  21  14  22   8  23   8
M  ISO  3  24   8  25   8  26   8
M  END
>  <minimizedAffinity>  (1) 
-4.39613008

>  <minimizedRMSD>  (1) 
0.975934505

$$$$
