
     RDKit          3D

 37 40  0  0  0  0  0  0  0  0999 V2000
   44.3420   35.5750   44.5910 C   0  0  0  0  0  0  0  0  0  0  0  0
   44.9970   35.3690   43.3690 C   0  0  0  0  0  0  0  0  0  0  0  0
   46.0550   34.4670   43.3450 C   0  0  0  0  0  0  0  0  0  0  0  0
   46.3800   33.8470   44.5120 N   0  0  0  0  0  0  0  0  0  0  0  0
   45.7440   34.0550   45.6690 C   0  0  0  0  0  0  0  0  0  0  0  0
   44.7220   34.9210   45.7080 N   0  0  0  0  0  0  0  0  0  0  0  0
   44.5870   36.0810   42.1340 C   0  0  0  0  0  0  0  0  0  0  0  0
   43.4030   35.3920   41.4860 C   0  0  0  0  0  0  0  0  0  0  0  0
   43.5790   34.5720   40.4000 C   0  0  0  0  0  0  0  0  0  0  0  0
   41.8900   34.0090   40.0130 S   0  0  0  0  0  0  0  0  0  0  0  0
   41.2120   35.0500   41.4830 C   0  0  0  0  0  0  0  0  0  0  0  0
   42.1710   35.5050   41.8760 N   0  0  0  0  0  0  0  0  0  0  0  0
   46.9520   34.1260   41.8770 S   0  0  0  0  0  0  0  0  0  0  0  0
   48.5550   33.7200   41.9850 C   0  0  0  0  0  0  0  0  0  0  0  0
   49.7780   34.0870   42.5400 C   0  0  0  0  0  0  0  0  0  0  0  0
   50.9490   33.3990   42.3290 C   0  0  0  0  0  0  0  0  0  0  0  0
   50.8750   32.2680   41.5020 C   0  0  0  0  0  0  0  0  0  0  0  0
   49.0620   32.2080   41.0250 S   0  0  0  0  0  0  0  0  0  0  0  0
   51.8250   31.3410   41.0670 C   0  0  0  0  0  0  0  0  0  0  0  0
   52.5040   31.5290   39.8810 C   0  0  0  0  0  0  0  0  0  0  0  0
   53.4350   30.5430   39.5360 C   0  0  0  0  0  0  0  0  0  0  0  0
   53.6590   29.4320   40.3580 C   0  0  0  0  0  0  0  0  0  0  0  0
   52.9460   29.2850   41.5540 C   0  0  0  0  0  0  0  0  0  0  0  0
   52.0100   30.2690   41.9060 C   0  0  0  0  0  0  0  0  0  0  0  0
   43.5020   36.2835   44.6401 H   0  0  0  0  0  0  0  0  0  0  0  0
   46.0559   33.5214   46.5789 H   0  0  0  0  0  0  0  0  0  0  0  0
   44.3085   37.1143   42.3886 H   0  0  0  0  0  0  0  0  0  0  0  0
   45.4295   36.0758   41.4268 H   0  0  0  0  0  0  0  0  0  0  0  0
   44.5168   34.3155   39.8854 H   0  0  0  0  0  0  0  0  0  0  0  0
   40.1790   35.1696   41.8417 H   0  0  0  0  0  0  0  0  0  0  0  0
   49.8088   34.9783   43.1840 H   0  0  0  0  0  0  0  0  0  0  0  0
   51.8971   33.7192   42.7858 H   0  0  0  0  0  0  0  0  0  0  0  0
   52.3235   32.4058   39.2417 H   0  0  0  0  0  0  0  0  0  0  0  0
   54.0029   30.6429   38.5992 H   0  0  0  0  0  0  0  0  0  0  0  0
   54.3976   28.6720   40.0632 H   0  0  0  0  0  0  0  0  0  0  0  0
   53.1164   28.4149   42.2050 H   0  0  0  0  0  0  0  0  0  0  0  0
   51.4334   30.1835   42.8389 H   0  0  0  0  0  0  0  0  0  0  0  0
  1  6  2  0
  2  1  1  0
  3  2  2  0
  3  4  1  0
  4  5  2  0
  5  6  1  0
  7  2  1  0
  8 12  1  0
  8  7  1  0
  9  8  2  0
 10  9  1  0
 10 11  1  0
 11 12  2  0
 13 14  1  0
 13  3  1  0
 14 15  2  0
 16 15  1  0
 17 16  2  0
 18 17  1  0
 18 14  1  0
 19 17  1  0
 19 24  1  0
 20 19  2  0
 21 20  1  0
 21 22  2  0
 22 23  1  0
 23 24  2  0
  1 25  1  0
  5 26  1  0
  7 27  1  0
  7 28  1  0
  9 29  1  0
 11 30  1  0
 15 31  1  0
 16 32  1  0
 20 33  1  0
 21 34  1  0
 22 35  1  0
 23 36  1  0
 24 37  1  0
M  ISO  8  25  14  26  14  27   8  28   8  29  14  30  14  31  14  32  14
M  ISO  5  33  14  34  14  35  14  36  14  37  14
M  END
>  <minimizedAffinity>  (1) 
-5.32145643

>  <minimizedRMSD>  (1) 
0.498900622

$$$$
