
     RDKit          3D

 37 40  0  0  0  0  0  0  0  0999 V2000
   44.3590   35.5440   44.5930 C   0  0  0  0  0  0  0  0  0  0  0  0
   45.0200   35.3550   43.3680 C   0  0  0  0  0  0  0  0  0  0  0  0
   46.0900   34.4630   43.3440 C   0  0  0  0  0  0  0  0  0  0  0  0
   46.4220   33.8360   44.5070 N   0  0  0  0  0  0  0  0  0  0  0  0
   45.7800   34.0310   45.6620 C   0  0  0  0  0  0  0  0  0  0  0  0
   44.7460   34.8850   45.7060 N   0  0  0  0  0  0  0  0  0  0  0  0
   44.6040   36.0690   42.1510 C   0  0  0  0  0  0  0  0  0  0  0  0
   43.4290   35.3720   41.4900 C   0  0  0  0  0  0  0  0  0  0  0  0
   43.6180   34.5440   40.4140 C   0  0  0  0  0  0  0  0  0  0  0  0
   41.9270   33.9820   40.0170 S   0  0  0  0  0  0  0  0  0  0  0  0
   41.2300   35.0310   41.4640 C   0  0  0  0  0  0  0  0  0  0  0  0
   42.1870   35.4920   41.8690 N   0  0  0  0  0  0  0  0  0  0  0  0
   46.9930   34.1450   41.8720 S   0  0  0  0  0  0  0  0  0  0  0  0
   48.5960   33.7490   41.9890 C   0  0  0  0  0  0  0  0  0  0  0  0
   49.8360   34.1010   42.5070 C   0  0  0  0  0  0  0  0  0  0  0  0
   50.9830   33.4210   42.3250 C   0  0  0  0  0  0  0  0  0  0  0  0
   50.9140   32.2480   41.5390 C   0  0  0  0  0  0  0  0  0  0  0  0
   49.0820   32.1900   41.0780 S   0  0  0  0  0  0  0  0  0  0  0  0
   51.8470   31.3220   41.1450 N   0  0  0  0  0  0  0  0  0  0  0  0
   52.4840   31.5690   39.9640 C   0  0  0  0  0  0  0  0  0  0  0  0
   53.4440   30.6750   39.4960 C   0  0  0  0  0  0  0  0  0  0  0  0
   53.7030   29.5550   40.2820 C   0  0  0  0  0  0  0  0  0  0  0  0
   54.5670   28.7470   39.8660 O   0  0  0  0  0  0  0  0  0  0  0  0
   53.0550   29.3420   41.4430 N   0  0  0  0  0  0  0  0  0  0  0  0
   52.1220   30.2300   41.8770 C   0  0  0  0  0  0  0  0  0  0  0  0
   51.5500   29.9900   42.9560 O   0  0  0  0  0  0  0  0  0  0  0  0
   43.5104   36.2418   44.6464 H   0  0  0  0  0  0  0  0  0  0  0  0
   46.0963   33.4959   46.5695 H   0  0  0  0  0  0  0  0  0  0  0  0
   44.3106   37.0951   42.4178 H   0  0  0  0  0  0  0  0  0  0  0  0
   45.4476   36.0822   41.4452 H   0  0  0  0  0  0  0  0  0  0  0  0
   44.5606   34.2816   39.9113 H   0  0  0  0  0  0  0  0  0  0  0  0
   40.1919   35.1527   41.8069 H   0  0  0  0  0  0  0  0  0  0  0  0
   49.8845   35.0141   43.1185 H   0  0  0  0  0  0  0  0  0  0  0  0
   51.9305   33.7622   42.7674 H   0  0  0  0  0  0  0  0  0  0  0  0
   52.2402   32.4710   39.3835 H   0  0  0  0  0  0  0  0  0  0  0  0
   53.9742   30.8461   38.5475 H   0  0  0  0  0  0  0  0  0  0  0  0
   53.2669   28.5042   42.0035 H   0  0  0  0  0  0  0  0  0  0  0  0
  1  6  2  0
  2  1  1  0
  3  2  2  0
  3  4  1  0
  4  5  2  0
  5  6  1  0
  7  2  1  0
  8 12  1  0
  8  7  1  0
  9  8  2  0
 10  9  1  0
 10 11  1  0
 11 12  2  0
 13 14  1  0
 13  3  1  0
 14 15  2  0
 16 15  1  0
 17 16  2  0
 18 17  1  0
 18 14  1  0
 19 17  1  0
 19 25  1  0
 20 19  1  0
 21 20  2  0
 21 22  1  0
 22 24  1  0
 23 22  2  0
 24 25  1  0
 25 26  2  0
  1 27  1  0
  5 28  1  0
  7 29  1  0
  7 30  1  0
  9 31  1  0
 11 32  1  0
 15 33  1  0
 16 34  1  0
 20 35  1  0
 21 36  1  0
 24 37  1  0
M  ISO  8  27  14  28  14  29   8  30   8  31  14  32  14  33  14  34  14
M  ISO  3  35  14  36  14  37   9
M  END
>  <minimizedAffinity>  (1) 
-5.44396496

>  <minimizedRMSD>  (1) 
0.74314487

$$$$
