
     RDKit          3D

 33 36  0  0  0  0  0  0  0  0999 V2000
   44.3440   35.6070   44.5850 C   0  0  0  0  0  0  0  0  0  0  0  0
   44.9830   35.3620   43.3750 C   0  0  0  0  0  0  0  0  0  0  0  0
   46.0160   34.4290   43.3600 C   0  0  0  0  0  0  0  0  0  0  0  0
   46.3320   33.8150   44.5450 N   0  0  0  0  0  0  0  0  0  0  0  0
   45.7040   34.0680   45.6920 C   0  0  0  0  0  0  0  0  0  0  0  0
   44.7090   34.9640   45.7170 N   0  0  0  0  0  0  0  0  0  0  0  0
   44.5910   36.0620   42.1400 C   0  0  0  0  0  0  0  0  0  0  0  0
   43.4020   35.3880   41.4880 C   0  0  0  0  0  0  0  0  0  0  0  0
   43.5590   34.5860   40.3950 C   0  0  0  0  0  0  0  0  0  0  0  0
   41.8560   34.0410   40.0170 S   0  0  0  0  0  0  0  0  0  0  0  0
   41.2020   35.0590   41.4960 C   0  0  0  0  0  0  0  0  0  0  0  0
   42.1700   35.4970   41.8820 N   0  0  0  0  0  0  0  0  0  0  0  0
   46.9040   34.0250   41.9030 S   0  0  0  0  0  0  0  0  0  0  0  0
   48.5080   33.6760   41.9970 C   0  0  0  0  0  0  0  0  0  0  0  0
   49.7160   34.0400   42.5810 C   0  0  0  0  0  0  0  0  0  0  0  0
   50.9120   33.4170   42.3390 C   0  0  0  0  0  0  0  0  0  0  0  0
   50.8870   32.3500   41.4490 C   0  0  0  0  0  0  0  0  0  0  0  0
   49.0810   32.2500   40.9460 S   0  0  0  0  0  0  0  0  0  0  0  0
   51.8980   31.3960   40.8880 C   0  0  0  0  0  0  0  0  0  0  0  0
   52.1070   30.2940   41.6310 C   0  0  0  0  0  0  0  0  0  0  0  0
   53.3930   29.4160   40.5980 S   0  0  0  0  0  0  0  0  0  0  0  0
   53.3510   30.8080   39.3390 C   0  0  0  0  0  0  0  0  0  0  0  0
   52.5500   31.5730   39.7730 N   0  0  0  0  0  0  0  0  0  0  0  0
   43.5241   36.3394   44.6223 H   0  0  0  0  0  0  0  0  0  0  0  0
   46.0007   33.5444   46.6128 H   0  0  0  0  0  0  0  0  0  0  0  0
   44.3260   37.1013   42.3843 H   0  0  0  0  0  0  0  0  0  0  0  0
   45.4375   36.0348   41.4381 H   0  0  0  0  0  0  0  0  0  0  0  0
   44.4892   34.3288   39.8672 H   0  0  0  0  0  0  0  0  0  0  0  0
   40.1740   35.1836   41.8670 H   0  0  0  0  0  0  0  0  0  0  0  0
   49.7112   34.8853   43.2849 H   0  0  0  0  0  0  0  0  0  0  0  0
   51.8435   33.7443   42.8239 H   0  0  0  0  0  0  0  0  0  0  0  0
   51.6475   29.9928   42.5840 H   0  0  0  0  0  0  0  0  0  0  0  0
   53.9346   30.8962   38.4107 H   0  0  0  0  0  0  0  0  0  0  0  0
  1  6  2  0
  2  1  1  0
  3  2  2  0
  3  4  1  0
  4  5  2  0
  5  6  1  0
  7  2  1  0
  8 12  1  0
  8  7  1  0
  9  8  2  0
 10  9  1  0
 10 11  1  0
 11 12  2  0
 13 14  1  0
 13  3  1  0
 14 15  2  0
 16 15  1  0
 17 16  2  0
 18 17  1  0
 18 14  1  0
 19 17  1  0
 19 20  2  0
 21 20  1  0
 22 23  2  0
 22 21  1  0
 23 19  1  0
  1 24  1  0
  5 25  1  0
  7 26  1  0
  7 27  1  0
  9 28  1  0
 11 29  1  0
 15 30  1  0
 16 31  1  0
 20 32  1  0
 22 33  1  0
M  ISO  8  24  14  25  14  26   8  27   8  28  14  29  14  30  14  31  14
M  ISO  2  32  14  33  14
M  END
>  <minimizedAffinity>  (1) 
-5.27349043

>  <minimizedRMSD>  (1) 
0.529771268

$$$$
