
     RDKit          3D

 40 43  0  0  0  0  0  0  0  0999 V2000
   44.6250   35.2150   44.7590 C   0  0  0  0  0  0  0  0  0  0  0  0
   45.2560   35.2600   43.5100 C   0  0  0  0  0  0  0  0  0  0  0  0
   46.3820   34.4590   43.3310 C   0  0  0  0  0  0  0  0  0  0  0  0
   46.7920   33.6920   44.3830 N   0  0  0  0  0  0  0  0  0  0  0  0
   46.1690   33.6690   45.5650 C   0  0  0  0  0  0  0  0  0  0  0  0
   45.0930   34.4240   45.7560 N   0  0  0  0  0  0  0  0  0  0  0  0
   44.7640   36.1130   42.4090 C   0  0  0  0  0  0  0  0  0  0  0  0
   43.6250   35.4310   41.6740 C   0  0  0  0  0  0  0  0  0  0  0  0
   43.8760   34.6160   40.5980 C   0  0  0  0  0  0  0  0  0  0  0  0
   42.2110   34.0640   40.0940 S   0  0  0  0  0  0  0  0  0  0  0  0
   41.4350   35.0950   41.5100 C   0  0  0  0  0  0  0  0  0  0  0  0
   42.3650   35.5500   41.9800 N   0  0  0  0  0  0  0  0  0  0  0  0
   47.2670   34.4220   41.8150 S   0  0  0  0  0  0  0  0  0  0  0  0
   48.7370   33.6670   41.7490 C   0  0  0  0  0  0  0  0  0  0  0  0
   49.9570   33.5100   42.3950 C   0  0  0  0  0  0  0  0  0  0  0  0
   50.9780   32.7180   41.9350 C   0  0  0  0  0  0  0  0  0  0  0  0
   50.7470   32.0280   40.7250 C   0  0  0  0  0  0  0  0  0  0  0  0
   48.9970   32.5680   40.2760 S   0  0  0  0  0  0  0  0  0  0  0  0
   51.5720   31.1350   39.9700 C   0  0  0  0  0  0  0  0  0  0  0  0
   51.5840   31.4380   38.4660 C   0  0  0  0  0  0  0  0  0  0  0  0
   52.6830   30.4800   38.0160 C   0  0  0  0  0  0  0  0  0  0  0  0
   53.6640   30.4330   39.1800 C   0  0  0  0  0  0  0  0  0  0  0  0
   53.0260   31.2750   40.2920 C   0  0  0  0  0  0  0  0  0  0  0  0
   43.7324   35.8333   44.9349 H   0  0  0  0  0  0  0  0  0  0  0  0
   46.5454   33.0280   46.3758 H   0  0  0  0  0  0  0  0  0  0  0  0
   44.4071   37.0676   42.8229 H   0  0  0  0  0  0  0  0  0  0  0  0
   45.5876   36.2896   41.7016 H   0  0  0  0  0  0  0  0  0  0  0  0
   44.8462   34.3581   40.1483 H   0  0  0  0  0  0  0  0  0  0  0  0
   40.3783   35.2142   41.7915 H   0  0  0  0  0  0  0  0  0  0  0  0
   50.1143   34.0564   43.3366 H   0  0  0  0  0  0  0  0  0  0  0  0
   51.9284   32.6251   42.4810 H   0  0  0  0  0  0  0  0  0  0  0  0
   51.1403   30.1557   40.2241 H   0  0  0  0  0  0  0  0  0  0  0  0
   50.6185   31.2035   37.9939 H   0  0  0  0  0  0  0  0  0  0  0  0
   51.7519   32.4935   38.2057 H   0  0  0  0  0  0  0  0  0  0  0  0
   52.2681   29.4804   37.8191 H   0  0  0  0  0  0  0  0  0  0  0  0
   53.1634   30.8103   37.0832 H   0  0  0  0  0  0  0  0  0  0  0  0
   53.8087   29.3964   39.5184 H   0  0  0  0  0  0  0  0  0  0  0  0
   54.6534   30.8193   38.8940 H   0  0  0  0  0  0  0  0  0  0  0  0
   53.3508   32.3246   40.2387 H   0  0  0  0  0  0  0  0  0  0  0  0
   53.2944   30.9543   41.3094 H   0  0  0  0  0  0  0  0  0  0  0  0
  1  6  2  0
  2  1  1  0
  3  2  2  0
  3  4  1  0
  4  5  2  0
  5  6  1  0
  7  2  1  0
  8 12  1  0
  8  7  1  0
  9  8  2  0
 10  9  1  0
 10 11  1  0
 11 12  2  0
 13  3  1  0
 14 13  1  0
 14 15  2  0
 16 15  1  0
 17 16  2  0
 18 17  1  0
 18 14  1  0
 19 23  1  0
 19 17  1  0
 20 19  1  0
 21 20  1  0
 21 22  1  0
 22 23  1  0
  1 24  1  0
  5 25  1  0
  7 26  1  0
  7 27  1  0
  9 28  1  0
 11 29  1  0
 15 30  1  0
 16 31  1  0
 19 32  1  0
 20 33  1  0
 20 34  1  0
 21 35  1  0
 21 36  1  0
 22 37  1  0
 22 38  1  0
 23 39  1  0
 23 40  1  0
M  ISO  8  24  14  25  14  26   8  27   8  28  14  29  14  30  14  31  14
M  ISO  8  32  13  33  13  34  13  35  13  36  13  37  13  38  13  39  13
M  ISO  1  40  13
M  END
>  <minimizedAffinity>  (1) 
-5.18500423

>  <minimizedRMSD>  (1) 
0.800283432

$$$$
