
     RDKit          3D

 39 40  0  0  0  0  0  0  0  0999 V2000
   45.5900   35.1050   42.8450 C   0  0  0  0  0  0  0  0  0  0  0  0
   45.1070   34.5510   45.2140 C   0  0  0  0  0  0  0  0  0  0  0  0
   45.8810   34.2870   44.0540 C   0  0  0  0  0  0  0  0  0  0  0  0
   46.8490   33.2830   44.1450 C   0  0  0  0  0  0  0  0  0  0  0  0
   46.9950   32.6270   45.3160 N   0  0  0  0  0  0  0  0  0  0  0  0
   46.2470   32.8990   46.3990 C   0  0  0  0  0  0  0  0  0  0  0  0
   45.3050   33.8610   46.3430 N   0  0  0  0  0  0  0  0  0  0  0  0
   46.8040   35.1060   41.9590 C   0  0  0  0  0  0  0  0  0  0  0  0
   45.2490   36.5040   43.2730 C   0  0  0  0  0  0  0  0  0  0  0  0
   44.3880   34.5360   42.1420 C   0  0  0  0  0  0  0  0  0  0  0  0
   43.2960   35.3210   42.3750 O   0  0  0  0  0  0  0  0  0  0  0  0
   42.4920   35.5400   41.2880 C   0  0  0  0  0  0  0  0  0  0  0  0
   41.0200   35.4000   41.5250 C   0  0  0  0  0  0  0  0  0  0  0  0
   40.3450   35.9310   40.2580 C   0  0  0  0  0  0  0  0  0  0  0  0
   40.7710   35.0830   39.1020 C   0  0  0  0  0  0  0  0  0  0  0  0
   42.2520   35.2200   38.8930 C   0  0  0  0  0  0  0  0  0  0  0  0
   42.9480   34.6900   40.1300 C   0  0  0  0  0  0  0  0  0  0  0  0
   44.3342   35.3332   45.1844 H   0  0  0  0  0  0  0  0  0  0  0  0
   47.4797   33.0321   43.2794 H   0  0  0  0  0  0  0  0  0  0  0  0
   46.4037   32.3363   47.3311 H   0  0  0  0  0  0  0  0  0  0  0  0
   47.7116   35.1067   42.5806 H   0  0  0  0  0  0  0  0  0  0  0  0
   46.7952   34.2078   41.3240 H   0  0  0  0  0  0  0  0  0  0  0  0
   46.7937   36.0041   41.3240 H   0  0  0  0  0  0  0  0  0  0  0  0
   45.2357   36.5584   44.3716 H   0  0  0  0  0  0  0  0  0  0  0  0
   46.0034   37.2017   42.8804 H   0  0  0  0  0  0  0  0  0  0  0  0
   44.2582   36.7763   42.8804 H   0  0  0  0  0  0  0  0  0  0  0  0
   44.1934   33.5205   42.5173 H   0  0  0  0  0  0  0  0  0  0  0  0
   44.5846   34.5027   41.0602 H   0  0  0  0  0  0  0  0  0  0  0  0
   42.6139   36.6067   41.0485 H   0  0  0  0  0  0  0  0  0  0  0  0
   40.7561   34.3444   41.6867 H   0  0  0  0  0  0  0  0  0  0  0  0
   40.6980   35.9535   42.4194 H   0  0  0  0  0  0  0  0  0  0  0  0
   39.2520   35.8816   40.3714 H   0  0  0  0  0  0  0  0  0  0  0  0
   40.6373   36.9773   40.0856 H   0  0  0  0  0  0  0  0  0  0  0  0
   40.5268   34.0309   39.3106 H   0  0  0  0  0  0  0  0  0  0  0  0
   40.2429   35.4116   38.1947 H   0  0  0  0  0  0  0  0  0  0  0  0
   42.5606   34.6378   38.0122 H   0  0  0  0  0  0  0  0  0  0  0  0
   42.5193   36.2737   38.7248 H   0  0  0  0  0  0  0  0  0  0  0  0
   42.6698   33.6394   40.2995 H   0  0  0  0  0  0  0  0  0  0  0  0
   44.0412   34.7345   40.0158 H   0  0  0  0  0  0  0  0  0  0  0  0
  1  9  1  0
  1  3  1  0
  2  7  2  0
  3  4  2  0
  3  2  1  0
  4  5  1  0
  5  6  2  0
  7  6  1  0
  8  1  1  0
 10 11  1  0
 10  1  1  0
 12 13  1  0
 12 11  1  0
 14 13  1  0
 15 14  1  0
 16 15  1  0
 16 17  1  0
 17 12  1  0
  2 18  1  0
  4 19  1  0
  6 20  1  0
  8 21  1  0
  8 22  1  0
  8 23  1  0
  9 24  1  0
  9 25  1  0
  9 26  1  0
 10 27  1  0
 10 28  1  0
 12 29  1  0
 13 30  1  0
 13 31  1  0
 14 32  1  0
 14 33  1  0
 15 34  1  0
 15 35  1  0
 16 36  1  0
 16 37  1  0
 17 38  1  0
 17 39  1  0
M  ISO  8  18  14  19  14  20  14  21   8  22   8  23   8  24   8  25   8
M  ISO  8  26   8  27   8  28   8  29  13  30  13  31  13  32  13  33  13
M  ISO  6  34  13  35  13  36  13  37  13  38  13  39  13
M  END
>  <minimizedAffinity>  (1) 
-5.20823479

>  <minimizedRMSD>  (1) 
1.23711801

$$$$
