
     RDKit          3D

 31 32  0  0  0  0  0  0  0  0999 V2000
   45.6390   35.0800   42.9080 C   0  0  0  0  0  0  0  0  0  0  0  0
   45.0930   34.5430   45.2830 C   0  0  0  0  0  0  0  0  0  0  0  0
   45.8970   34.2760   44.1440 C   0  0  0  0  0  0  0  0  0  0  0  0
   46.8690   33.2780   44.2680 C   0  0  0  0  0  0  0  0  0  0  0  0
   46.9950   32.6280   45.4440 N   0  0  0  0  0  0  0  0  0  0  0  0
   46.2100   32.9110   46.5070 C   0  0  0  0  0  0  0  0  0  0  0  0
   45.2570   33.8710   46.4230 N   0  0  0  0  0  0  0  0  0  0  0  0
   46.8820   35.1570   42.0900 C   0  0  0  0  0  0  0  0  0  0  0  0
   45.1610   36.4530   43.3160 C   0  0  0  0  0  0  0  0  0  0  0  0
   44.4950   34.4200   42.1550 C   0  0  0  0  0  0  0  0  0  0  0  0
   43.4100   35.2390   42.1420 O   0  0  0  0  0  0  0  0  0  0  0  0
   42.4350   35.3750   41.1920 C   0  0  0  0  0  0  0  0  0  0  0  0
   41.1020   35.7350   41.4170 C   0  0  0  0  0  0  0  0  0  0  0  0
   40.2670   35.8170   40.2970 C   0  0  0  0  0  0  0  0  0  0  0  0
   40.7310   35.5600   39.0760 N   0  0  0  0  0  0  0  0  0  0  0  0
   42.0150   35.2170   38.8890 C   0  0  0  0  0  0  0  0  0  0  0  0
   42.8470   35.1280   39.9360 N   0  0  0  0  0  0  0  0  0  0  0  0
   44.3178   35.3212   45.2239 H   0  0  0  0  0  0  0  0  0  0  0  0
   47.5216   33.0264   43.4190 H   0  0  0  0  0  0  0  0  0  0  0  0
   46.3456   32.3577   47.4480 H   0  0  0  0  0  0  0  0  0  0  0  0
   47.7561   35.2112   42.7555 H   0  0  0  0  0  0  0  0  0  0  0  0
   46.9593   34.2619   41.4553 H   0  0  0  0  0  0  0  0  0  0  0  0
   46.8482   36.0548   41.4553 H   0  0  0  0  0  0  0  0  0  0  0  0
   45.1371   36.5218   44.4136 H   0  0  0  0  0  0  0  0  0  0  0  0
   45.8471   37.2140   42.9158 H   0  0  0  0  0  0  0  0  0  0  0  0
   44.1506   36.6234   42.9158 H   0  0  0  0  0  0  0  0  0  0  0  0
   44.8096   34.2166   41.1208 H   0  0  0  0  0  0  0  0  0  0  0  0
   44.2292   33.4783   42.6575 H   0  0  0  0  0  0  0  0  0  0  0  0
   40.7268   35.9444   42.4296 H   0  0  0  0  0  0  0  0  0  0  0  0
   39.2115   36.0980   40.4275 H   0  0  0  0  0  0  0  0  0  0  0  0
   42.3853   35.0085   37.8744 H   0  0  0  0  0  0  0  0  0  0  0  0
  1  9  1  0
  1  3  1  0
  2  7  2  0
  3  4  2  0
  3  2  1  0
  4  5  1  0
  5  6  2  0
  7  6  1  0
  8  1  1  0
 10  1  1  0
 11 10  1  0
 12 13  2  0
 12 11  1  0
 14 13  1  0
 15 14  2  0
 16 15  1  0
 16 17  2  0
 17 12  1  0
  2 18  1  0
  4 19  1  0
  6 20  1  0
  8 21  1  0
  8 22  1  0
  8 23  1  0
  9 24  1  0
  9 25  1  0
  9 26  1  0
 10 27  1  0
 10 28  1  0
 13 29  1  0
 14 30  1  0
 16 31  1  0
M  ISO  8  18  14  19  14  20  14  21   8  22   8  23   8  24   8  25   8
M  ISO  6  26   8  27   8  28   8  29  14  30  14  31  14
M  END
>  <minimizedAffinity>  (1) 
-4.98580217

>  <minimizedRMSD>  (1) 
1.31315994

$$$$
