
     RDKit          3D

 37 40  0  0  0  0  0  0  0  0999 V2000
   44.3860   35.4320   44.6800 C   0  0  0  0  0  0  0  0  0  0  0  0
   45.0420   35.3880   43.4430 C   0  0  0  0  0  0  0  0  0  0  0  0
   46.1780   34.5900   43.3380 C   0  0  0  0  0  0  0  0  0  0  0  0
   46.5720   33.9100   44.4370 N   0  0  0  0  0  0  0  0  0  0  0  0
   45.9420   33.9550   45.6160 C   0  0  0  0  0  0  0  0  0  0  0  0
   44.8420   34.7230   45.7330 N   0  0  0  0  0  0  0  0  0  0  0  0
   44.5550   36.1610   42.2780 C   0  0  0  0  0  0  0  0  0  0  0  0
   43.4280   35.4440   41.5870 C   0  0  0  0  0  0  0  0  0  0  0  0
   43.6770   34.6200   40.5100 C   0  0  0  0  0  0  0  0  0  0  0  0
   42.0170   34.0110   40.0530 S   0  0  0  0  0  0  0  0  0  0  0  0
   41.2440   35.0430   41.4880 C   0  0  0  0  0  0  0  0  0  0  0  0
   42.1750   35.5190   41.9130 N   0  0  0  0  0  0  0  0  0  0  0  0
   47.0870   34.4500   41.8520 S   0  0  0  0  0  0  0  0  0  0  0  0
   48.6200   33.8180   41.8890 C   0  0  0  0  0  0  0  0  0  0  0  0
   49.8640   33.8940   42.4830 C   0  0  0  0  0  0  0  0  0  0  0  0
   50.9240   33.1060   42.1630 C   0  0  0  0  0  0  0  0  0  0  0  0
   50.7170   32.1580   41.1580 C   0  0  0  0  0  0  0  0  0  0  0  0
   48.9310   32.4400   40.6830 S   0  0  0  0  0  0  0  0  0  0  0  0
   51.5420   31.1860   40.5540 C   0  0  0  0  0  0  0  0  0  0  0  0
   51.0590   30.1160   40.0960 O   0  0  0  0  0  0  0  0  0  0  0  0
   52.8680   31.5060   40.5190 O   0  0  0  0  0  0  0  0  0  0  0  0
   53.6480   30.9890   39.4600 C   0  0  0  0  0  0  0  0  0  0  0  0
   54.3860   29.8400   39.2600 C   0  0  0  0  0  0  0  0  0  0  0  0
   54.9200   29.9090   38.0180 N   0  0  0  0  0  0  0  0  0  0  0  0
   54.5290   31.0640   37.4580 C   0  0  0  0  0  0  0  0  0  0  0  0
   53.7450   31.7440   38.3270 N   0  0  0  0  0  0  0  0  0  0  0  0
   43.4859   36.0538   44.7943 H   0  0  0  0  0  0  0  0  0  0  0  0
   46.3152   33.3759   46.4735 H   0  0  0  0  0  0  0  0  0  0  0  0
   44.1990   37.1434   42.6218 H   0  0  0  0  0  0  0  0  0  0  0  0
   45.3842   36.2789   41.5649 H   0  0  0  0  0  0  0  0  0  0  0  0
   44.6432   34.3857   40.0392 H   0  0  0  0  0  0  0  0  0  0  0  0
   40.1944   35.1400   41.8026 H   0  0  0  0  0  0  0  0  0  0  0  0
   50.0075   34.6467   43.2722 H   0  0  0  0  0  0  0  0  0  0  0  0
   51.8951   33.2093   42.6693 H   0  0  0  0  0  0  0  0  0  0  0  0
   54.5165   29.0178   39.9790 H   0  0  0  0  0  0  0  0  0  0  0  0
   54.8032   31.4054   36.4489 H   0  0  0  0  0  0  0  0  0  0  0  0
   53.3039   32.6603   38.1637 H   0  0  0  0  0  0  0  0  0  0  0  0
  1  6  2  0
  2  1  1  0
  3  2  2  0
  3  4  1  0
  4  5  2  0
  5  6  1  0
  7  2  1  0
  8 12  1  0
  8  7  1  0
  9  8  2  0
 10  9  1  0
 10 11  1  0
 11 12  2  0
 13 14  1  0
 13  3  1  0
 14 15  2  0
 16 15  1  0
 17 16  2  0
 18 17  1  0
 18 14  1  0
 19 17  1  0
 20 19  2  0
 21 19  1  0
 22 21  1  0
 23 22  2  0
 24 23  1  0
 25 24  2  0
 25 26  1  0
 26 22  1  0
  1 27  1  0
  5 28  1  0
  7 29  1  0
  7 30  1  0
  9 31  1  0
 11 32  1  0
 15 33  1  0
 16 34  1  0
 23 35  1  0
 25 36  1  0
 26 37  1  0
M  ISO  8  27  14  28  14  29   8  30   8  31  14  32  14  33  14  34  14
M  ISO  3  35  14  36  14  37   9
M  END
>  <minimizedAffinity>  (1) 
-5.39546824

>  <minimizedRMSD>  (1) 
0.626871228

$$$$
