
     RDKit          3D

 36 38  0  0  0  0  0  0  0  0999 V2000
   44.3410   35.5530   44.6170 C   0  0  0  0  0  0  0  0  0  0  0  0
   44.9920   35.3750   43.3940 C   0  0  0  0  0  0  0  0  0  0  0  0
   46.0660   34.4840   43.3550 C   0  0  0  0  0  0  0  0  0  0  0  0
   46.4060   33.8540   44.5010 N   0  0  0  0  0  0  0  0  0  0  0  0
   45.7760   34.0310   45.6710 C   0  0  0  0  0  0  0  0  0  0  0  0
   44.7370   34.8870   45.7270 N   0  0  0  0  0  0  0  0  0  0  0  0
   44.5770   36.0920   42.1730 C   0  0  0  0  0  0  0  0  0  0  0  0
   43.4030   35.4080   41.5170 C   0  0  0  0  0  0  0  0  0  0  0  0
   43.5910   34.5950   40.4240 C   0  0  0  0  0  0  0  0  0  0  0  0
   41.9050   34.0270   40.0180 S   0  0  0  0  0  0  0  0  0  0  0  0
   41.2090   35.0520   41.4880 C   0  0  0  0  0  0  0  0  0  0  0  0
   42.1640   35.5050   41.8890 N   0  0  0  0  0  0  0  0  0  0  0  0
   46.9650   34.1660   41.8890 S   0  0  0  0  0  0  0  0  0  0  0  0
   48.5710   33.7520   41.9910 C   0  0  0  0  0  0  0  0  0  0  0  0
   49.7990   34.0510   42.5480 C   0  0  0  0  0  0  0  0  0  0  0  0
   50.9330   33.3780   42.3140 C   0  0  0  0  0  0  0  0  0  0  0  0
   50.8560   32.2890   41.4340 C   0  0  0  0  0  0  0  0  0  0  0  0
   49.0600   32.2760   40.9530 S   0  0  0  0  0  0  0  0  0  0  0  0
   51.8250   31.3750   40.9660 C   0  0  0  0  0  0  0  0  0  0  0  0
   52.1580   30.3930   41.6850 O   0  0  0  0  0  0  0  0  0  0  0  0
   52.3440   31.6310   39.7260 O   0  0  0  0  0  0  0  0  0  0  0  0
   53.5450   30.9460   39.3270 C   0  0  0  0  0  0  0  0  0  0  0  0
   53.9360   31.5420   37.9760 C   0  0  0  0  0  0  0  0  0  0  0  0
   43.4903   36.2476   44.6793 H   0  0  0  0  0  0  0  0  0  0  0  0
   46.1017   33.4868   46.5698 H   0  0  0  0  0  0  0  0  0  0  0  0
   44.2914   37.1204   42.4392 H   0  0  0  0  0  0  0  0  0  0  0  0
   45.4196   36.0969   41.4659 H   0  0  0  0  0  0  0  0  0  0  0  0
   44.5339   34.3461   39.9152 H   0  0  0  0  0  0  0  0  0  0  0  0
   40.1730   35.1657   41.8399 H   0  0  0  0  0  0  0  0  0  0  0  0
   49.8495   34.9074   43.2365 H   0  0  0  0  0  0  0  0  0  0  0  0
   51.8816   33.6664   42.7904 H   0  0  0  0  0  0  0  0  0  0  0  0
   54.3439   31.1127   40.0646 H   0  0  0  0  0  0  0  0  0  0  0  0
   53.3874   29.8595   39.2593 H   0  0  0  0  0  0  0  0  0  0  0  0
   54.5330   32.4520   38.1357 H   0  0  0  0  0  0  0  0  0  0  0  0
   54.5293   30.8089   37.4097 H   0  0  0  0  0  0  0  0  0  0  0  0
   53.0273   31.7943   37.4097 H   0  0  0  0  0  0  0  0  0  0  0  0
  1  6  2  0
  2  1  1  0
  3  2  2  0
  3  4  1  0
  4  5  2  0
  5  6  1  0
  7  2  1  0
  8 12  1  0
  8  7  1  0
  9  8  2  0
 10  9  1  0
 10 11  1  0
 11 12  2  0
 13 14  1  0
 13  3  1  0
 14 15  2  0
 16 15  1  0
 17 16  2  0
 18 17  1  0
 18 14  1  0
 19 17  1  0
 19 20  2  0
 21 19  1  0
 22 21  1  0
 23 22  1  0
  1 24  1  0
  5 25  1  0
  7 26  1  0
  7 27  1  0
  9 28  1  0
 11 29  1  0
 15 30  1  0
 16 31  1  0
 22 32  1  0
 22 33  1  0
 23 34  1  0
 23 35  1  0
 23 36  1  0
M  ISO  8  24  14  25  14  26   8  27   8  28  14  29  14  30  14  31  14
M  ISO  5  32   8  33   8  34   8  35   8  36   8
M  END
>  <minimizedAffinity>  (1) 
-5.08659744

>  <minimizedRMSD>  (1) 
0.627613485

$$$$
