
     RDKit          3D

 39 41  0  0  0  0  0  0  0  0999 V2000
   44.3960   35.4840   44.6790 C   0  0  0  0  0  0  0  0  0  0  0  0
   45.0490   35.3550   43.4560 C   0  0  0  0  0  0  0  0  0  0  0  0
   46.1370   34.4840   43.3750 C   0  0  0  0  0  0  0  0  0  0  0  0
   46.4880   33.8170   44.5040 N   0  0  0  0  0  0  0  0  0  0  0  0
   45.8550   33.9460   45.6760 C   0  0  0  0  0  0  0  0  0  0  0  0
   44.8010   34.7860   45.7590 N   0  0  0  0  0  0  0  0  0  0  0  0
   44.6200   36.1110   42.2550 C   0  0  0  0  0  0  0  0  0  0  0  0
   43.4580   35.4130   41.5670 C   0  0  0  0  0  0  0  0  0  0  0  0
   43.6710   34.5890   40.4870 C   0  0  0  0  0  0  0  0  0  0  0  0
   41.9920   34.0240   40.0520 S   0  0  0  0  0  0  0  0  0  0  0  0
   41.2700   35.0660   41.4920 C   0  0  0  0  0  0  0  0  0  0  0  0
   42.2190   35.5210   41.9090 N   0  0  0  0  0  0  0  0  0  0  0  0
   47.0400   34.2360   41.8990 S   0  0  0  0  0  0  0  0  0  0  0  0
   48.6300   33.7560   41.9860 C   0  0  0  0  0  0  0  0  0  0  0  0
   49.8700   34.0000   42.5430 C   0  0  0  0  0  0  0  0  0  0  0  0
   50.9760   33.2830   42.2980 C   0  0  0  0  0  0  0  0  0  0  0  0
   50.8530   32.2060   41.4080 C   0  0  0  0  0  0  0  0  0  0  0  0
   49.0540   32.2730   40.9320 S   0  0  0  0  0  0  0  0  0  0  0  0
   51.7790   31.2580   40.9250 C   0  0  0  0  0  0  0  0  0  0  0  0
   51.7560   30.0760   41.3710 O   0  0  0  0  0  0  0  0  0  0  0  0
   52.6570   31.7160   39.9780 O   0  0  0  0  0  0  0  0  0  0  0  0
   52.7310   31.0600   38.7000 C   0  0  0  0  0  0  0  0  0  0  0  0
   51.6340   31.6480   37.8560 C   0  0  0  0  0  0  0  0  0  0  0  0
   54.0550   31.3890   38.0220 C   0  0  0  0  0  0  0  0  0  0  0  0
   43.5369   36.1656   44.7653 H   0  0  0  0  0  0  0  0  0  0  0  0
   46.1877   33.3773   46.5569 H   0  0  0  0  0  0  0  0  0  0  0  0
   44.3066   37.1212   42.5572 H   0  0  0  0  0  0  0  0  0  0  0  0
   45.4645   36.1674   41.5525 H   0  0  0  0  0  0  0  0  0  0  0  0
   44.6244   34.3323   40.0021 H   0  0  0  0  0  0  0  0  0  0  0  0
   40.2271   35.1872   41.8202 H   0  0  0  0  0  0  0  0  0  0  0  0
   49.9567   34.8464   43.2402 H   0  0  0  0  0  0  0  0  0  0  0  0
   51.9370   33.5284   42.7737 H   0  0  0  0  0  0  0  0  0  0  0  0
   52.6406   29.9704   38.8208 H   0  0  0  0  0  0  0  0  0  0  0  0
   50.8535   32.0663   38.5086 H   0  0  0  0  0  0  0  0  0  0  0  0
   52.0473   32.4455   37.2210 H   0  0  0  0  0  0  0  0  0  0  0  0
   51.1987   30.8623   37.2210 H   0  0  0  0  0  0  0  0  0  0  0  0
   54.8216   31.5795   38.7875 H   0  0  0  0  0  0  0  0  0  0  0  0
   54.3663   30.5409   37.3945 H   0  0  0  0  0  0  0  0  0  0  0  0
   53.9331   32.2842   37.3945 H   0  0  0  0  0  0  0  0  0  0  0  0
  1  6  2  0
  2  1  1  0
  3  2  2  0
  3  4  1  0
  4  5  2  0
  5  6  1  0
  7  2  1  0
  8 12  1  0
  8  7  1  0
  9  8  2  0
 10  9  1  0
 10 11  1  0
 11 12  2  0
 13 14  1  0
 13  3  1  0
 14 15  2  0
 16 15  1  0
 17 16  2  0
 18 17  1  0
 18 14  1  0
 19 20  2  0
 19 17  1  0
 21 19  1  0
 22 21  1  0
 23 22  1  0
 24 22  1  0
  1 25  1  0
  5 26  1  0
  7 27  1  0
  7 28  1  0
  9 29  1  0
 11 30  1  0
 15 31  1  0
 16 32  1  0
 22 33  1  0
 23 34  1  0
 23 35  1  0
 23 36  1  0
 24 37  1  0
 24 38  1  0
 24 39  1  0
M  ISO  8  25  14  26  14  27   8  28   8  29  14  30  14  31  14  32  14
M  ISO  7  33   8  34   8  35   8  36   8  37   8  38   8  39   8
M  END
>  <minimizedAffinity>  (1) 
-5.20918036

>  <minimizedRMSD>  (1) 
0.798427463

$$$$
