
     RDKit          3D

 33 35  0  0  0  0  0  0  0  0999 V2000
   44.3820   35.4720   44.6820 C   0  0  0  0  0  0  0  0  0  0  0  0
   45.0430   35.3630   43.4640 C   0  0  0  0  0  0  0  0  0  0  0  0
   46.1500   34.5130   43.3880 C   0  0  0  0  0  0  0  0  0  0  0  0
   46.5090   33.8460   44.5090 N   0  0  0  0  0  0  0  0  0  0  0  0
   45.8660   33.9560   45.6770 C   0  0  0  0  0  0  0  0  0  0  0  0
   44.7970   34.7730   45.7630 N   0  0  0  0  0  0  0  0  0  0  0  0
   44.6080   36.1190   42.2680 C   0  0  0  0  0  0  0  0  0  0  0  0
   43.4570   35.4290   41.5810 C   0  0  0  0  0  0  0  0  0  0  0  0
   43.6800   34.6120   40.5090 C   0  0  0  0  0  0  0  0  0  0  0  0
   42.0080   34.0320   40.0480 S   0  0  0  0  0  0  0  0  0  0  0  0
   41.2690   35.0740   41.4890 C   0  0  0  0  0  0  0  0  0  0  0  0
   42.2130   35.5230   41.9040 N   0  0  0  0  0  0  0  0  0  0  0  0
   47.0630   34.2930   41.9100 S   0  0  0  0  0  0  0  0  0  0  0  0
   48.6490   33.8070   42.0000 C   0  0  0  0  0  0  0  0  0  0  0  0
   49.9010   34.0670   42.5250 C   0  0  0  0  0  0  0  0  0  0  0  0
   50.9960   33.3310   42.3000 C   0  0  0  0  0  0  0  0  0  0  0  0
   50.8540   32.2110   41.4680 C   0  0  0  0  0  0  0  0  0  0  0  0
   49.0480   32.2690   41.0170 S   0  0  0  0  0  0  0  0  0  0  0  0
   51.7600   31.2300   41.0150 C   0  0  0  0  0  0  0  0  0  0  0  0
   51.6030   30.0230   41.3570 O   0  0  0  0  0  0  0  0  0  0  0  0
   52.7710   31.6810   40.2120 O   0  0  0  0  0  0  0  0  0  0  0  0
   53.6080   30.7290   39.5350 C   0  0  0  0  0  0  0  0  0  0  0  0
   43.5092   36.1360   44.7679 H   0  0  0  0  0  0  0  0  0  0  0  0
   46.2050   33.3874   46.5555 H   0  0  0  0  0  0  0  0  0  0  0  0
   44.2916   37.1268   42.5750 H   0  0  0  0  0  0  0  0  0  0  0  0
   45.4517   36.1772   41.5645 H   0  0  0  0  0  0  0  0  0  0  0  0
   44.6402   34.3617   40.0344 H   0  0  0  0  0  0  0  0  0  0  0  0
   40.2248   35.1951   41.8128 H   0  0  0  0  0  0  0  0  0  0  0  0
   50.0054   34.9462   43.1778 H   0  0  0  0  0  0  0  0  0  0  0  0
   51.9656   33.5933   42.7484 H   0  0  0  0  0  0  0  0  0  0  0  0
   54.1442   30.1192   40.2771 H   0  0  0  0  0  0  0  0  0  0  0  0
   52.9857   30.0765   38.9049 H   0  0  0  0  0  0  0  0  0  0  0  0
   54.3348   31.2626   38.9049 H   0  0  0  0  0  0  0  0  0  0  0  0
  1  6  2  0
  2  1  1  0
  3  2  2  0
  3  4  1  0
  4  5  2  0
  5  6  1  0
  7  2  1  0
  8 12  1  0
  8  7  1  0
  9  8  2  0
 10  9  1  0
 10 11  1  0
 11 12  2  0
 13 14  1  0
 13  3  1  0
 14 15  2  0
 16 15  1  0
 17 16  2  0
 18 17  1  0
 18 14  1  0
 19 20  2  0
 19 17  1  0
 21 19  1  0
 22 21  1  0
  1 23  1  0
  5 24  1  0
  7 25  1  0
  7 26  1  0
  9 27  1  0
 11 28  1  0
 15 29  1  0
 16 30  1  0
 22 31  1  0
 22 32  1  0
 22 33  1  0
M  ISO  8  23  14  24  14  25   8  26   8  27  14  28  14  29  14  30  14
M  ISO  3  31   8  32   8  33   8
M  END
>  <minimizedAffinity>  (1) 
-4.96365404

>  <minimizedRMSD>  (1) 
0.226717547

$$$$
