
     RDKit          3D

 38 41  0  0  1  0  0  0  0  0999 V2000
   45.8860   32.6450   46.6600 C   0  0  0  0  0  0  0  0  0  0  0  0
   46.2120   32.6300   45.3090 C   0  0  0  0  0  0  0  0  0  0  0  0
   46.9780   31.5440   44.8150 C   0  0  0  0  0  0  0  0  0  0  0  0
   47.3790   30.5510   45.6590 N   0  0  0  0  0  0  0  0  0  0  0  0
   47.0360   30.6090   46.9840 C   0  0  0  0  0  0  0  0  0  0  0  0
   46.2980   31.6470   47.4630 N   0  0  0  0  0  0  0  0  0  0  0  0
   45.7330   33.6690   44.4360 C   0  0  2  0  0  0  0  0  0  0  0  0
   45.1270   34.8190   45.3300 C   0  0  0  0  0  0  0  0  0  0  0  0
   44.3880   35.8280   44.6100 C   0  0  0  0  0  0  0  0  0  0  0  0
   44.2250   35.7280   43.1480 C   0  0  0  0  0  0  0  0  0  0  0  0
   44.8840   34.6180   42.4510 C   0  0  0  0  0  0  0  0  0  0  0  0
   44.8850   33.3770   43.3180 C   0  0  0  0  0  0  0  0  0  0  0  0
   47.4770   31.2160   43.5350 N   0  0  0  0  0  0  0  0  0  0  0  0
   47.3590   30.2200   42.6290 C   0  0  0  0  0  0  0  0  0  0  0  0
   48.1200   30.4540   41.5500 N   0  0  0  0  0  0  0  0  0  0  0  0
   48.7730   31.6190   41.6960 C   0  0  0  0  0  0  0  0  0  0  0  0
   49.6590   32.3040   40.8980 C   0  0  0  0  0  0  0  0  0  0  0  0
   49.9780   31.8060   39.7780 O   0  0  0  0  0  0  0  0  0  0  0  0
   50.1640   33.4780   41.3190 N   0  0  0  0  0  0  0  0  0  0  0  0
   49.7770   33.9430   42.5200 C   0  0  0  0  0  0  0  0  0  0  0  0
   50.3350   35.1880   42.9290 N   0  0  0  0  0  0  0  0  0  0  0  0
   48.9120   33.2720   43.3000 N   0  0  0  0  0  0  0  0  0  0  0  0
   48.3640   32.0840   42.9390 C   0  0  0  0  0  0  0  0  0  0  0  0
   45.2910   33.4730   47.0729 H   0  0  0  0  0  0  0  0  0  0  0  0
   47.3600   29.8096   47.6666 H   0  0  0  0  0  0  0  0  0  0  0  0
   46.6409   33.9469   43.8806 H   0  0  0  0  0  0  0  0  0  0  0  0
   45.2581   34.8495   46.4217 H   0  0  0  0  0  0  0  0  0  0  0  0
   43.9446   36.6750   45.1540 H   0  0  0  0  0  0  0  0  0  0  0  0
   43.1470   35.6465   42.9449 H   0  0  0  0  0  0  0  0  0  0  0  0
   44.7210   36.6284   42.7564 H   0  0  0  0  0  0  0  0  0  0  0  0
   44.3451   34.4063   41.5157 H   0  0  0  0  0  0  0  0  0  0  0  0
   45.9241   34.9013   42.2321 H   0  0  0  0  0  0  0  0  0  0  0  0
   43.8648   33.1518   43.6622 H   0  0  0  0  0  0  0  0  0  0  0  0
   45.2455   32.4998   42.7607 H   0  0  0  0  0  0  0  0  0  0  0  0
   46.7217   29.3330   42.7597 H   0  0  0  0  0  0  0  0  0  0  0  0
   50.8293   34.0065   40.7368 H   0  0  0  0  0  0  0  0  0  0  0  0
   50.0758   35.5943   43.8393 H   0  0  0  0  0  0  0  0  0  0  0  0
   50.9977   35.6820   42.3145 H   0  0  0  0  0  0  0  0  0  0  0  0
  1  6  2  0
  2  1  1  0
  3  2  2  0
  3  4  1  0
  4  5  2  0
  5  6  1  0
  7  2  1  0
  7  8  1  0
  9  8  2  0
 10  9  1  0
 11 10  1  0
 11 12  1  0
 12  7  1  0
 13  3  1  0
 14 13  1  0
 15 16  1  0
 15 14  2  0
 16 23  2  0
 17 19  1  0
 17 16  1  0
 18 17  2  0
 19 20  1  0
 20 21  1  0
 20 22  2  0
 23 22  1  0
 23 13  1  0
  1 24  1  0
  5 25  1  0
  7 26  1  6
  8 27  1  0
  9 28  1  0
 10 29  1  0
 10 30  1  0
 11 31  1  0
 11 32  1  0
 12 33  1  0
 12 34  1  0
 14 35  1  0
 19 36  1  0
 21 37  1  0
 21 38  1  0
M  ISO  8  24  14  25  14  26  13  27  13  28  13  29  13  30  13  31  13
M  ISO  5  32  13  33  13  34  13  35  14  36   9
M  END
>  <minimizedAffinity>  (1) 
-6.01078176

>  <minimizedRMSD>  (1) 
1.59101772

$$$$
