
     RDKit          3D

 37 39  0  0  1  0  0  0  0  0999 V2000
   45.2150   32.8380   47.6700 C   0  0  0  0  0  0  0  0  0  0  0  0
   45.7360   32.5590   46.4170 C   0  0  0  0  0  0  0  0  0  0  0  0
   46.1060   31.2100   46.1150 C   0  0  0  0  0  0  0  0  0  0  0  0
   45.9470   30.2460   47.0460 N   0  0  0  0  0  0  0  0  0  0  0  0
   45.4290   30.5590   48.2790 C   0  0  0  0  0  0  0  0  0  0  0  0
   45.0700   31.8350   48.5800 N   0  0  0  0  0  0  0  0  0  0  0  0
   45.8410   33.6160   45.4280 C   0  0  2  0  0  0  0  0  0  0  0  0
   44.8620   34.7770   45.8560 C   0  0  0  0  0  0  0  0  0  0  0  0
   44.5480   35.7630   44.8700 C   0  0  0  0  0  0  0  0  0  0  0  0
   45.1220   35.6410   43.5220 C   0  0  0  0  0  0  0  0  0  0  0  0
   45.9640   34.4850   43.2160 C   0  0  0  0  0  0  0  0  0  0  0  0
   45.5630   33.2940   44.0460 C   0  0  0  0  0  0  0  0  0  0  0  0
   46.6380   30.5300   45.0110 N   0  0  0  0  0  0  0  0  0  0  0  0
   47.9900   30.5050   44.7630 C   0  0  0  0  0  0  0  0  0  0  0  0
   48.5910   29.8460   43.7370 C   0  0  0  0  0  0  0  0  0  0  0  0
   50.0420   29.8520   43.5170 C   0  0  0  0  0  0  0  0  0  0  0  0
   47.7230   29.1630   42.9120 C   0  0  0  0  0  0  0  0  0  0  0  0
   48.1720   28.5120   41.9240 O   0  0  0  0  0  0  0  0  0  0  0  0
   46.3890   29.1280   43.0750 N   0  0  0  0  0  0  0  0  0  0  0  0
   45.8820   29.8120   44.1180 C   0  0  0  0  0  0  0  0  0  0  0  0
   44.6340   29.7750   44.2670 O   0  0  0  0  0  0  0  0  0  0  0  0
   44.9196   33.8655   47.9289 H   0  0  0  0  0  0  0  0  0  0  0  0
   45.3031   29.7673   49.0322 H   0  0  0  0  0  0  0  0  0  0  0  0
   46.9099   33.8758   45.4317 H   0  0  0  0  0  0  0  0  0  0  0  0
   44.4390   34.8255   46.8703 H   0  0  0  0  0  0  0  0  0  0  0  0
   43.8838   36.6043   45.1172 H   0  0  0  0  0  0  0  0  0  0  0  0
   44.2812   35.6251   42.8130 H   0  0  0  0  0  0  0  0  0  0  0  0
   45.8087   36.4971   43.4472 H   0  0  0  0  0  0  0  0  0  0  0  0
   45.8575   34.2338   42.1504 H   0  0  0  0  0  0  0  0  0  0  0  0
   47.0087   34.7396   43.4479 H   0  0  0  0  0  0  0  0  0  0  0  0
   44.4900   33.0895   43.9162 H   0  0  0  0  0  0  0  0  0  0  0  0
   46.1221   32.3989   43.7360 H   0  0  0  0  0  0  0  0  0  0  0  0
   48.6395   31.0648   45.4521 H   0  0  0  0  0  0  0  0  0  0  0  0
   50.5600   29.8541   44.4874 H   0  0  0  0  0  0  0  0  0  0  0  0
   50.3305   28.9550   42.9493 H   0  0  0  0  0  0  0  0  0  0  0  0
   50.3231   30.7513   42.9493 H   0  0  0  0  0  0  0  0  0  0  0  0
   45.7819   28.6014   42.4307 H   0  0  0  0  0  0  0  0  0  0  0  0
  1  6  2  0
  2  1  1  0
  3  2  2  0
  3  4  1  0
  4  5  2  0
  5  6  1  0
  7  8  1  0
  7  2  1  0
  9  8  2  0
 10  9  1  0
 11 10  1  0
 11 12  1  0
 12  7  1  0
 13  3  1  0
 14 13  1  0
 15 14  2  0
 16 15  1  0
 17 19  1  0
 17 15  1  0
 18 17  2  0
 19 20  1  0
 20 21  2  0
 20 13  1  0
  1 22  1  0
  5 23  1  0
  7 24  1  6
  8 25  1  0
  9 26  1  0
 10 27  1  0
 10 28  1  0
 11 29  1  0
 11 30  1  0
 12 31  1  0
 12 32  1  0
 14 33  1  0
 16 34  1  0
 16 35  1  0
 16 36  1  0
 19 37  1  0
M  ISO  8  22  14  23  14  24  13  25  13  26  13  27  13  28  13  29  13
M  ISO  8  30  13  31  13  32  13  33  14  34   8  35   8  36   8  37   9
M  END
>  <minimizedAffinity>  (1) 
-4.64415216

>  <minimizedRMSD>  (1) 
0.693081915

$$$$
