
     RDKit          3D

 34 36  0  0  1  0  0  0  0  0999 V2000
   45.2480   33.1520   47.2550 C   0  0  0  0  0  0  0  0  0  0  0  0
   45.8800   32.8950   46.0390 C   0  0  0  0  0  0  0  0  0  0  0  0
   46.7560   31.7780   45.9390 C   0  0  0  0  0  0  0  0  0  0  0  0
   46.9570   30.9930   47.0410 N   0  0  0  0  0  0  0  0  0  0  0  0
   46.3180   31.2820   48.2170 C   0  0  0  0  0  0  0  0  0  0  0  0
   45.4780   32.3430   48.3190 N   0  0  0  0  0  0  0  0  0  0  0  0
   45.6750   33.7330   44.8930 C   0  0  2  0  0  0  0  0  0  0  0  0
   44.9780   35.0510   45.4060 C   0  0  0  0  0  0  0  0  0  0  0  0
   44.4290   35.9040   44.4180 C   0  0  0  0  0  0  0  0  0  0  0  0
   44.5040   35.5530   43.0020 C   0  0  0  0  0  0  0  0  0  0  0  0
   45.3540   34.4150   42.6410 C   0  0  0  0  0  0  0  0  0  0  0  0
   45.1060   33.2810   43.6750 C   0  0  0  0  0  0  0  0  0  0  0  0
   47.5770   31.1990   44.9430 C   0  0  0  0  0  0  0  0  0  0  0  0
   48.0240   31.6210   43.7080 C   0  0  0  0  0  0  0  0  0  0  0  0
   48.8680   31.0100   42.8220 C   0  0  0  0  0  0  0  0  0  0  0  0
   49.3320   29.7870   43.2430 C   0  0  0  0  0  0  0  0  0  0  0  0
   49.0080   29.1880   44.4360 C   0  0  0  0  0  0  0  0  0  0  0  0
   48.1440   29.9290   45.2250 C   0  0  0  0  0  0  0  0  0  0  0  0
   44.5647   34.0086   47.3511 H   0  0  0  0  0  0  0  0  0  0  0  0
   46.4887   30.6423   49.0954 H   0  0  0  0  0  0  0  0  0  0  0  0
   46.6995   33.8310   44.5046 H   0  0  0  0  0  0  0  0  0  0  0  0
   44.9211   35.2955   46.4770 H   0  0  0  0  0  0  0  0  0  0  0  0
   43.9403   36.8420   44.7203 H   0  0  0  0  0  0  0  0  0  0  0  0
   43.4829   35.3249   42.6625 H   0  0  0  0  0  0  0  0  0  0  0  0
   44.9715   36.4228   42.5173 H   0  0  0  0  0  0  0  0  0  0  0  0
   45.0961   34.0623   41.6315 H   0  0  0  0  0  0  0  0  0  0  0  0
   46.4130   34.7125   42.6478 H   0  0  0  0  0  0  0  0  0  0  0  0
   44.0272   33.1055   43.7988 H   0  0  0  0  0  0  0  0  0  0  0  0
   45.5548   32.3315   43.3479 H   0  0  0  0  0  0  0  0  0  0  0  0
   47.6424   32.6011   43.3858 H   0  0  0  0  0  0  0  0  0  0  0  0
   49.1504   31.4579   41.8578 H   0  0  0  0  0  0  0  0  0  0  0  0
   50.0159   29.2457   42.5727 H   0  0  0  0  0  0  0  0  0  0  0  0
   49.4004   28.2058   44.7382 H   0  0  0  0  0  0  0  0  0  0  0  0
   47.8629   29.4779   46.1881 H   0  0  0  0  0  0  0  0  0  0  0  0
  1  6  2  0
  2  1  1  0
  3  2  2  0
  3  4  1  0
  4  5  2  0
  5  6  1  0
  7  8  1  0
  7  2  1  0
  9  8  2  0
 10  9  1  0
 11 10  1  0
 11 12  1  0
 12  7  1  0
 13 18  1  0
 13  3  1  0
 14 13  2  0
 15 16  2  0
 15 14  1  0
 16 17  1  0
 17 18  2  0
  1 19  1  0
  5 20  1  0
  7 21  1  6
  8 22  1  0
  9 23  1  0
 10 24  1  0
 10 25  1  0
 11 26  1  0
 11 27  1  0
 12 28  1  0
 12 29  1  0
 14 30  1  0
 15 31  1  0
 16 32  1  0
 17 33  1  0
 18 34  1  0
M  ISO  8  19  14  20  14  21  13  22  13  23  13  24  13  25  13  26  13
M  ISO  8  27  13  28  13  29  13  30  14  31  14  32  14  33  14  34  14
M  END
>  <minimizedAffinity>  (1) 
-4.50934219

>  <minimizedRMSD>  (1) 
1.32537258

$$$$
