
     RDKit          3D

 35 38  0  0  1  0  0  0  0  0999 V2000
   45.7300   32.7890   48.2190 C   0  0  0  0  0  0  0  0  0  0  0  0
   46.0000   32.2910   46.9490 C   0  0  0  0  0  0  0  0  0  0  0  0
   45.9480   30.8820   46.7500 C   0  0  0  0  0  0  0  0  0  0  0  0
   45.6430   30.0550   47.7810 N   0  0  0  0  0  0  0  0  0  0  0  0
   45.3850   30.5900   49.0210 C   0  0  0  0  0  0  0  0  0  0  0  0
   45.4280   31.9360   49.2250 N   0  0  0  0  0  0  0  0  0  0  0  0
   46.3030   33.1880   45.8690 C   0  0  2  0  0  0  0  0  0  0  0  0
   45.1360   34.2310   45.7590 C   0  0  0  0  0  0  0  0  0  0  0  0
   45.0760   34.9930   44.5450 C   0  0  0  0  0  0  0  0  0  0  0  0
   46.0460   34.7690   43.4810 C   0  0  0  0  0  0  0  0  0  0  0  0
   47.1850   33.9060   43.7770 C   0  0  0  0  0  0  0  0  0  0  0  0
   46.7860   32.7210   44.6140 C   0  0  0  0  0  0  0  0  0  0  0  0
   46.1400   30.0570   45.6270 N   0  0  0  0  0  0  0  0  0  0  0  0
   45.4430   29.5540   44.5820 C   0  0  0  0  0  0  0  0  0  0  0  0
   46.2050   28.8040   43.7820 N   0  0  0  0  0  0  0  0  0  0  0  0
   47.4300   28.7890   44.2740 C   0  0  0  0  0  0  0  0  0  0  0  0
   48.5460   28.1460   43.7840 C   0  0  0  0  0  0  0  0  0  0  0  0
   49.7010   28.2820   44.4740 N   0  0  0  0  0  0  0  0  0  0  0  0
   49.7040   29.0310   45.5950 C   0  0  0  0  0  0  0  0  0  0  0  0
   48.6080   29.6530   46.0620 N   0  0  0  0  0  0  0  0  0  0  0  0
   47.4060   29.5610   45.4190 C   0  0  0  0  0  0  0  0  0  0  0  0
   45.7618   33.8727   48.4051 H   0  0  0  0  0  0  0  0  0  0  0  0
   45.1405   29.9218   49.8599 H   0  0  0  0  0  0  0  0  0  0  0  0
   47.2589   33.6351   46.1793 H   0  0  0  0  0  0  0  0  0  0  0  0
   44.4041   34.3703   46.5683 H   0  0  0  0  0  0  0  0  0  0  0  0
   44.2911   35.7528   44.4163 H   0  0  0  0  0  0  0  0  0  0  0  0
   46.4447   35.7511   43.1868 H   0  0  0  0  0  0  0  0  0  0  0  0
   45.4857   34.2346   42.6996 H   0  0  0  0  0  0  0  0  0  0  0  0
   47.6137   33.5451   42.8304 H   0  0  0  0  0  0  0  0  0  0  0  0
   47.9206   34.4939   44.3456 H   0  0  0  0  0  0  0  0  0  0  0  0
   45.9946   32.1553   44.1005 H   0  0  0  0  0  0  0  0  0  0  0  0
   47.6540   32.0633   44.7687 H   0  0  0  0  0  0  0  0  0  0  0  0
   44.3726   29.7412   44.4112 H   0  0  0  0  0  0  0  0  0  0  0  0
   48.4990   27.5438   42.8647 H   0  0  0  0  0  0  0  0  0  0  0  0
   50.6461   29.1378   46.1526 H   0  0  0  0  0  0  0  0  0  0  0  0
  1  6  2  0
  2  1  1  0
  3  2  2  0
  3  4  1  0
  4  5  2  0
  5  6  1  0
  7  2  1  0
  8  7  1  0
  9  8  2  0
 10 11  1  0
 10  9  1  0
 11 12  1  0
 12  7  1  0
 13  3  1  0
 14 13  1  0
 15 16  1  0
 15 14  2  0
 16 21  2  0
 17 16  1  0
 17 18  2  0
 18 19  1  0
 19 20  2  0
 21 13  1  0
 21 20  1  0
  1 22  1  0
  5 23  1  0
  7 24  1  1
  8 25  1  0
  9 26  1  0
 10 27  1  0
 10 28  1  0
 11 29  1  0
 11 30  1  0
 12 31  1  0
 12 32  1  0
 14 33  1  0
 17 34  1  0
 19 35  1  0
M  ISO  8  22  14  23  14  24  13  25  13  26  13  27  13  28  13  29  13
M  ISO  6  30  13  31  13  32  13  33  14  34  14  35  14
M  END
>  <minimizedAffinity>  (1) 
-4.57609415

>  <minimizedRMSD>  (1) 
1.15631962

$$$$
