
     RDKit          3D

 31 33  0  0  1  0  0  0  0  0999 V2000
   45.1860   32.8610   47.6940 C   0  0  0  0  0  0  0  0  0  0  0  0
   45.7690   32.5980   46.4530 C   0  0  0  0  0  0  0  0  0  0  0  0
   46.1500   31.2660   46.1480 C   0  0  0  0  0  0  0  0  0  0  0  0
   45.9370   30.2820   47.0840 N   0  0  0  0  0  0  0  0  0  0  0  0
   45.3670   30.5760   48.2880 C   0  0  0  0  0  0  0  0  0  0  0  0
   44.9980   31.8510   48.5830 N   0  0  0  0  0  0  0  0  0  0  0  0
   45.9140   33.6730   45.4960 C   0  0  2  0  0  0  0  0  0  0  0  0
   44.8780   34.7920   45.8630 C   0  0  0  0  0  0  0  0  0  0  0  0
   44.5210   35.7250   44.8360 C   0  0  0  0  0  0  0  0  0  0  0  0
   45.0860   35.6060   43.5090 C   0  0  0  0  0  0  0  0  0  0  0  0
   46.2070   34.6920   43.3510 C   0  0  0  0  0  0  0  0  0  0  0  0
   46.0320   33.4070   44.1130 C   0  0  0  0  0  0  0  0  0  0  0  0
   46.7320   30.6210   45.0130 C   0  0  0  0  0  0  0  0  0  0  0  0
   47.9790   30.4720   44.4210 C   0  0  0  0  0  0  0  0  0  0  0  0
   47.9660   29.7660   43.2470 C   0  0  0  0  0  0  0  0  0  0  0  0
   46.6620   29.4820   43.1320 N   0  0  0  0  0  0  0  0  0  0  0  0
   45.9310   29.9510   44.1180 N   0  0  0  0  0  0  0  0  0  0  0  0
   44.8791   33.8854   47.9518 H   0  0  0  0  0  0  0  0  0  0  0  0
   45.2048   29.7760   49.0254 H   0  0  0  0  0  0  0  0  0  0  0  0
   46.9541   34.0077   45.6235 H   0  0  0  0  0  0  0  0  0  0  0  0
   44.4420   34.8579   46.8708 H   0  0  0  0  0  0  0  0  0  0  0  0
   43.8129   36.5371   45.0576 H   0  0  0  0  0  0  0  0  0  0  0  0
   44.2845   35.2686   42.8355 H   0  0  0  0  0  0  0  0  0  0  0  0
   45.4932   36.6019   43.2800 H   0  0  0  0  0  0  0  0  0  0  0  0
   46.3165   34.4535   42.2828 H   0  0  0  0  0  0  0  0  0  0  0  0
   47.0989   35.1938   43.7543 H   0  0  0  0  0  0  0  0  0  0  0  0
   45.1227   32.8971   43.7620 H   0  0  0  0  0  0  0  0  0  0  0  0
   46.9101   32.7665   43.9439 H   0  0  0  0  0  0  0  0  0  0  0  0
   48.8998   30.8859   44.8578 H   0  0  0  0  0  0  0  0  0  0  0  0
   48.8002   29.5035   42.5797 H   0  0  0  0  0  0  0  0  0  0  0  0
   46.2693   28.9464   42.3447 H   0  0  0  0  0  0  0  0  0  0  0  0
  1  6  2  0
  2  1  1  0
  3  2  2  0
  3  4  1  0
  4  5  2  0
  5  6  1  0
  7  8  1  0
  7  2  1  0
  9  8  2  0
 10  9  1  0
 11 10  1  0
 11 12  1  0
 12  7  1  0
 13  3  1  0
 14 13  1  0
 15 14  2  0
 16 15  1  0
 16 17  1  0
 17 13  2  0
  1 18  1  0
  5 19  1  0
  7 20  1  1
  8 21  1  0
  9 22  1  0
 10 23  1  0
 10 24  1  0
 11 25  1  0
 11 26  1  0
 12 27  1  0
 12 28  1  0
 14 29  1  0
 15 30  1  0
 16 31  1  0
M  ISO  8  18  14  19  14  20  13  21  13  22  13  23  13  24  13  25  13
M  ISO  6  26  13  27  13  28  13  29  14  30  14  31   9
M  END
>  <minimizedAffinity>  (1) 
-4.36749792

>  <minimizedRMSD>  (1) 
0.865883768

$$$$
