
     RDKit          3D

 32 34  0  0  1  0  0  0  0  0999 V2000
   45.2500   32.8400   47.6350 C   0  0  0  0  0  0  0  0  0  0  0  0
   45.7220   32.5490   46.3560 C   0  0  0  0  0  0  0  0  0  0  0  0
   46.0470   31.2020   46.0370 C   0  0  0  0  0  0  0  0  0  0  0  0
   45.8820   30.2490   47.0120 N   0  0  0  0  0  0  0  0  0  0  0  0
   45.4160   30.5760   48.2550 C   0  0  0  0  0  0  0  0  0  0  0  0
   45.1070   31.8650   48.5490 N   0  0  0  0  0  0  0  0  0  0  0  0
   45.8430   33.5870   45.3530 C   0  0  2  0  0  0  0  0  0  0  0  0
   44.8940   34.7730   45.8240 C   0  0  0  0  0  0  0  0  0  0  0  0
   44.5600   35.7620   44.8600 C   0  0  0  0  0  0  0  0  0  0  0  0
   45.0740   35.6570   43.4970 C   0  0  0  0  0  0  0  0  0  0  0  0
   46.0700   34.6230   43.2320 C   0  0  0  0  0  0  0  0  0  0  0  0
   45.6380   33.3250   43.9660 C   0  0  0  0  0  0  0  0  0  0  0  0
   46.5630   30.5480   44.8940 C   0  0  0  0  0  0  0  0  0  0  0  0
   47.9690   30.5480   44.7780 C   0  0  0  0  0  0  0  0  0  0  0  0
   48.7410   29.9520   43.7740 C   0  0  0  0  0  0  0  0  0  0  0  0
   48.0370   29.3190   42.8370 N   0  0  0  0  0  0  0  0  0  0  0  0
   46.7070   29.2720   42.8750 C   0  0  0  0  0  0  0  0  0  0  0  0
   46.0810   29.8630   43.8570 N   0  0  0  0  0  0  0  0  0  0  0  0
   44.9924   33.8764   47.8985 H   0  0  0  0  0  0  0  0  0  0  0  0
   45.2912   29.7936   49.0181 H   0  0  0  0  0  0  0  0  0  0  0  0
   46.9240   33.7897   45.3317 H   0  0  0  0  0  0  0  0  0  0  0  0
   44.5117   34.8256   46.8541 H   0  0  0  0  0  0  0  0  0  0  0  0
   43.9140   36.6071   45.1404 H   0  0  0  0  0  0  0  0  0  0  0  0
   44.2165   35.4665   42.8349 H   0  0  0  0  0  0  0  0  0  0  0  0
   45.6009   36.6065   43.3213 H   0  0  0  0  0  0  0  0  0  0  0  0
   46.1310   34.4349   42.1499 H   0  0  0  0  0  0  0  0  0  0  0  0
   47.0572   34.9490   43.5913 H   0  0  0  0  0  0  0  0  0  0  0  0
   44.5783   33.1058   43.7684 H   0  0  0  0  0  0  0  0  0  0  0  0
   46.2140   32.4519   43.6255 H   0  0  0  0  0  0  0  0  0  0  0  0
   48.5224   31.0774   45.5676 H   0  0  0  0  0  0  0  0  0  0  0  0
   49.8398   30.0023   43.7599 H   0  0  0  0  0  0  0  0  0  0  0  0
   46.1442   28.7436   42.0914 H   0  0  0  0  0  0  0  0  0  0  0  0
  1  6  2  0
  2  1  1  0
  3  2  2  0
  3  4  1  0
  4  5  2  0
  5  6  1  0
  7  8  1  0
  7  2  1  0
  9  8  2  0
 10  9  1  0
 11 10  1  0
 11 12  1  0
 12  7  1  0
 13  3  1  0
 14 13  2  0
 15 14  1  0
 16 17  1  0
 16 15  2  0
 17 18  2  0
 18 13  1  0
  1 19  1  0
  5 20  1  0
  7 21  1  6
  8 22  1  0
  9 23  1  0
 10 24  1  0
 10 25  1  0
 11 26  1  0
 11 27  1  0
 12 28  1  0
 12 29  1  0
 14 30  1  0
 15 31  1  0
 17 32  1  0
M  ISO  8  19  14  20  14  21  13  22  13  23  13  24  13  25  13  26  13
M  ISO  6  27  13  28  13  29  13  30  14  31  14  32  14
M  END
>  <minimizedAffinity>  (1) 
-4.37293196

>  <minimizedRMSD>  (1) 
0.538867772

$$$$
