
     RDKit          3D

 27 28  0  0  1  0  0  0  0  0999 V2000
   45.7740   33.8330   44.6200 C   0  0  2  0  0  0  0  0  0  0  0  0
   44.9560   34.9310   45.3950 C   0  0  0  0  0  0  0  0  0  0  0  0
   44.5800   36.0800   44.5920 C   0  0  0  0  0  0  0  0  0  0  0  0
   44.9260   36.1530   43.1510 C   0  0  0  0  0  0  0  0  0  0  0  0
   45.6790   35.0290   42.5900 C   0  0  0  0  0  0  0  0  0  0  0  0
   45.3340   33.7280   43.2910 C   0  0  0  0  0  0  0  0  0  0  0  0
   45.6830   32.8110   46.8640 C   0  0  0  0  0  0  0  0  0  0  0  0
   46.1650   32.8090   45.5410 C   0  0  0  0  0  0  0  0  0  0  0  0
   47.1070   31.8430   44.9880 C   0  0  0  0  0  0  0  0  0  0  0  0
   47.4880   30.9310   45.8960 N   0  0  0  0  0  0  0  0  0  0  0  0
   47.0300   30.9290   47.1770 C   0  0  0  0  0  0  0  0  0  0  0  0
   46.1500   31.8340   47.6650 N   0  0  0  0  0  0  0  0  0  0  0  0
   47.7560   31.6650   43.7250 C   0  0  0  0  0  0  0  0  0  0  0  0
   48.8680   30.7680   43.9080 F   0  0  0  0  0  0  0  0  0  0  0  0
   48.6140   32.7460   43.3630 F   0  0  0  0  0  0  0  0  0  0  0  0
   47.1750   31.0280   42.7080 F   0  0  0  0  0  0  0  0  0  0  0  0
   46.8037   34.0024   44.2722 H   0  0  0  0  0  0  0  0  0  0  0  0
   44.6908   34.8356   46.4583 H   0  0  0  0  0  0  0  0  0  0  0  0
   44.0297   36.9100   45.0592 H   0  0  0  0  0  0  0  0  0  0  0  0
   43.9849   36.2361   42.5876 H   0  0  0  0  0  0  0  0  0  0  0  0
   45.5978   37.0195   43.0622 H   0  0  0  0  0  0  0  0  0  0  0  0
   45.4380   34.9346   41.5209 H   0  0  0  0  0  0  0  0  0  0  0  0
   46.7520   35.2253   42.7318 H   0  0  0  0  0  0  0  0  0  0  0  0
   44.2462   33.5662   43.2676 H   0  0  0  0  0  0  0  0  0  0  0  0
   45.8193   32.8779   42.7891 H   0  0  0  0  0  0  0  0  0  0  0  0
   44.9674   33.5658   47.2222 H   0  0  0  0  0  0  0  0  0  0  0  0
   47.3966   30.1454   47.8564 H   0  0  0  0  0  0  0  0  0  0  0  0
  1  2  1  0
  1  8  1  0
  3  2  2  0
  4  3  1  0
  5  4  1  0
  5  6  1  0
  6  1  1  0
  7 12  2  0
  8  7  1  0
  9  8  2  0
  9 10  1  0
 10 11  2  0
 11 12  1  0
 13 14  1  0
 13  9  1  0
 15 13  1  0
 16 13  1  0
  1 17  1  6
  2 18  1  0
  3 19  1  0
  4 20  1  0
  4 21  1  0
  5 22  1  0
  5 23  1  0
  6 24  1  0
  6 25  1  0
  7 26  1  0
 11 27  1  0
M  ISO  8  17  13  18  13  19  13  20  13  21  13  22  13  23  13  24  13
M  ISO  3  25  13  26  14  27  14
M  END
>  <minimizedAffinity>  (1) 
-4.34448099

>  <minimizedRMSD>  (1) 
1.39644384

$$$$
