
     RDKit          3D

 37 39  0  0  1  0  0  0  0  0999 V2000
   45.8690   33.5940   45.4860 C   0  0  2  0  0  0  0  0  0  0  0  0
   44.8570   34.7440   45.8490 C   0  0  0  0  0  0  0  0  0  0  0  0
   44.5760   35.7230   44.8470 C   0  0  0  0  0  0  0  0  0  0  0  0
   45.2030   35.6070   43.5380 C   0  0  0  0  0  0  0  0  0  0  0  0
   46.2210   34.5780   43.3430 C   0  0  0  0  0  0  0  0  0  0  0  0
   45.8870   33.3180   44.0870 C   0  0  0  0  0  0  0  0  0  0  0  0
   45.2500   32.8280   47.7350 C   0  0  0  0  0  0  0  0  0  0  0  0
   45.7180   32.5500   46.4620 C   0  0  0  0  0  0  0  0  0  0  0  0
   46.0020   31.1860   46.1400 C   0  0  0  0  0  0  0  0  0  0  0  0
   45.8170   30.2100   47.0610 N   0  0  0  0  0  0  0  0  0  0  0  0
   45.3530   30.5310   48.3090 C   0  0  0  0  0  0  0  0  0  0  0  0
   45.0780   31.8190   48.6310 N   0  0  0  0  0  0  0  0  0  0  0  0
   46.5140   30.4810   45.0400 N   0  0  0  0  0  0  0  0  0  0  0  0
   46.0850   29.7840   43.8300 C   0  0  0  0  0  0  0  0  0  0  0  0
   46.9800   28.6090   43.6130 C   0  0  0  0  0  0  0  0  0  0  0  0
   48.1780   29.1180   43.0900 O   0  0  0  0  0  0  0  0  0  0  0  0
   48.4470   30.3790   43.6410 C   0  0  0  0  0  0  0  0  0  0  0  0
   47.9860   30.4140   45.1040 C   0  0  0  0  0  0  0  0  0  0  0  0
   46.9295   33.8673   45.5888 H   0  0  0  0  0  0  0  0  0  0  0  0
   44.3824   34.7922   46.8402 H   0  0  0  0  0  0  0  0  0  0  0  0
   43.8920   36.5570   45.0626 H   0  0  0  0  0  0  0  0  0  0  0  0
   44.4016   35.4134   42.8098 H   0  0  0  0  0  0  0  0  0  0  0  0
   45.7494   36.5538   43.4156 H   0  0  0  0  0  0  0  0  0  0  0  0
   46.2953   34.3491   42.2697 H   0  0  0  0  0  0  0  0  0  0  0  0
   47.1757   34.9625   43.7313 H   0  0  0  0  0  0  0  0  0  0  0  0
   44.8984   32.9542   43.7704 H   0  0  0  0  0  0  0  0  0  0  0  0
   46.6422   32.5481   43.8705 H   0  0  0  0  0  0  0  0  0  0  0  0
   45.0174   33.8642   48.0217 H   0  0  0  0  0  0  0  0  0  0  0  0
   45.2023   29.7376   49.0559 H   0  0  0  0  0  0  0  0  0  0  0  0
   45.0464   29.4416   43.9484 H   0  0  0  0  0  0  0  0  0  0  0  0
   46.1407   30.4628   42.9662 H   0  0  0  0  0  0  0  0  0  0  0  0
   47.1692   28.0932   44.5660 H   0  0  0  0  0  0  0  0  0  0  0  0
   46.5230   27.8793   42.9284 H   0  0  0  0  0  0  0  0  0  0  0  0
   49.5283   30.5754   43.5937 H   0  0  0  0  0  0  0  0  0  0  0  0
   47.9061   31.1484   43.0705 H   0  0  0  0  0  0  0  0  0  0  0  0
   48.3912   31.2994   45.6158 H   0  0  0  0  0  0  0  0  0  0  0  0
   48.3351   29.5364   45.6679 H   0  0  0  0  0  0  0  0  0  0  0  0
  1  2  1  0
  1  8  1  0
  3  2  2  0
  4  3  1  0
  5  4  1  0
  5  6  1  0
  6  1  1  0
  7 12  2  0
  8  7  1  0
  9  8  2  0
  9 10  1  0
 10 11  2  0
 11 12  1  0
 13 18  1  0
 13  9  1  0
 14 13  1  0
 15 14  1  0
 16 15  1  0
 16 17  1  0
 17 18  1  0
  1 19  1  1
  2 20  1  0
  3 21  1  0
  4 22  1  0
  4 23  1  0
  5 24  1  0
  5 25  1  0
  6 26  1  0
  6 27  1  0
  7 28  1  0
 11 29  1  0
 14 30  1  0
 14 31  1  0
 15 32  1  0
 15 33  1  0
 17 34  1  0
 17 35  1  0
 18 36  1  0
 18 37  1  0
M  ISO  8  19  13  20  13  21  13  22  13  23  13  24  13  25  13  26  13
M  ISO  8  27  13  28  14  29  14  30  13  31  13  32  13  33  13  34  13
M  ISO  3  35  13  36  13  37  13
M  END
>  <minimizedAffinity>  (1) 
-4.38385725

>  <minimizedRMSD>  (1) 
0.576037526

$$$$
