
     RDKit          3D

 36 37  0  0  0  0  0  0  0  0999 V2000
   47.0540   33.9870   42.5460 C   0  0  0  0  0  0  0  0  0  0  0  0
   45.4300   35.6110   43.5310 C   0  0  0  0  0  0  0  0  0  0  0  0
   46.1810   34.4120   43.6870 C   0  0  0  0  0  0  0  0  0  0  0  0
   46.0520   33.7150   44.8880 C   0  0  0  0  0  0  0  0  0  0  0  0
   45.2270   34.2070   45.8390 N   0  0  0  0  0  0  0  0  0  0  0  0
   44.5270   35.3490   45.6610 C   0  0  0  0  0  0  0  0  0  0  0  0
   44.6340   36.0360   44.5160 N   0  0  0  0  0  0  0  0  0  0  0  0
   48.2040   33.1910   43.0540 C   0  0  0  0  0  0  0  0  0  0  0  0
   47.5260   35.2200   41.8190 C   0  0  0  0  0  0  0  0  0  0  0  0
   46.1960   33.1960   41.5680 C   0  0  0  0  0  0  0  0  0  0  0  0
   45.6930   34.0370   40.6210 O   0  0  0  0  0  0  0  0  0  0  0  0
   41.8210   34.1980   39.1210 C   0  0  0  0  0  0  0  0  0  0  0  0
   42.7400   33.3320   38.6030 C   0  0  0  0  0  0  0  0  0  0  0  0
   44.0460   33.2540   39.0840 C   0  0  0  0  0  0  0  0  0  0  0  0
   44.4020   34.1050   40.1360 C   0  0  0  0  0  0  0  0  0  0  0  0
   43.4420   34.9610   40.6280 C   0  0  0  0  0  0  0  0  0  0  0  0
   42.1480   35.0490   40.1620 C   0  0  0  0  0  0  0  0  0  0  0  0
   40.1970   34.2390   38.4640 S   0  0  0  0  0  0  0  0  0  0  0  0
   40.1750   35.1920   37.3060 O   0  0  0  0  0  0  0  0  0  0  0  0
   39.8140   32.8700   37.9800 O   0  0  0  0  0  0  0  0  0  0  0  0
   45.5052   36.1886   42.5979 H   0  0  0  0  0  0  0  0  0  0  0  0
   46.6108   32.7829   45.0581 H   0  0  0  0  0  0  0  0  0  0  0  0
   43.8662   35.7162   46.4601 H   0  0  0  0  0  0  0  0  0  0  0  0
   48.1963   33.1964   44.1540 H   0  0  0  0  0  0  0  0  0  0  0  0
   48.1218   32.1556   42.6918 H   0  0  0  0  0  0  0  0  0  0  0  0
   49.1441   33.6326   42.6918 H   0  0  0  0  0  0  0  0  0  0  0  0
   47.8197   35.9871   42.5506 H   0  0  0  0  0  0  0  0  0  0  0  0
   48.3902   34.9653   41.1879 H   0  0  0  0  0  0  0  0  0  0  0  0
   46.7126   35.6075   41.1879 H   0  0  0  0  0  0  0  0  0  0  0  0
   46.8107   32.4234   41.0829 H   0  0  0  0  0  0  0  0  0  0  0  0
   45.3673   32.7182   42.1111 H   0  0  0  0  0  0  0  0  0  0  0  0
   42.4392   32.6718   37.7761 H   0  0  0  0  0  0  0  0  0  0  0  0
   44.7709   32.5485   38.6519 H   0  0  0  0  0  0  0  0  0  0  0  0
   43.7300   35.6252   41.4562 H   0  0  0  0  0  0  0  0  0  0  0  0
   41.4197   35.7527   40.5913 H   0  0  0  0  0  0  0  0  0  0  0  0
   39.3139   34.6417   39.4309 H   0  0  0  0  0  0  0  0  0  0  0  0
  1  8  1  0
  1  3  1  0
  2  3  2  0
  2  7  1  0
  3  4  1  0
  4  5  2  0
  6  5  1  0
  7  6  2  0
  9  1  1  0
 10  1  1  0
 11 10  1  0
 12 17  2  0
 13 14  2  0
 13 12  1  0
 14 15  1  0
 15 11  1  0
 15 16  2  0
 17 16  1  0
 18 12  1  0
 19 18  2  0
 20 18  2  0
  2 21  1  0
  4 22  1  0
  6 23  1  0
  8 24  1  0
  8 25  1  0
  8 26  1  0
  9 27  1  0
  9 28  1  0
  9 29  1  0
 10 30  1  0
 10 31  1  0
 13 32  1  0
 14 33  1  0
 16 34  1  0
 17 35  1  0
 18 36  1  0
M  ISO  8  21  14  22  14  23  14  24   8  25   8  26   8  27   8  28   8
M  ISO  8  29   8  30   8  31   8  32  14  33  14  34  14  35  14  36  11
M  END
>  <minimizedAffinity>  (1) 
-4.92164087

>  <minimizedRMSD>  (1) 
3.17391872

$$$$
