
     RDKit          3D

 38 40  0  0  1  0  0  0  0  0999 V2000
   45.2210   32.9230   47.5550 C   0  0  0  0  0  0  0  0  0  0  0  0
   45.6750   32.6800   46.2720 C   0  0  0  0  0  0  0  0  0  0  0  0
   46.0410   31.3380   45.9420 C   0  0  0  0  0  0  0  0  0  0  0  0
   45.9420   30.3520   46.8710 N   0  0  0  0  0  0  0  0  0  0  0  0
   45.4850   30.6510   48.1280 C   0  0  0  0  0  0  0  0  0  0  0  0
   45.1340   31.9190   48.4480 N   0  0  0  0  0  0  0  0  0  0  0  0
   45.7570   33.7200   45.2840 C   0  0  2  0  0  0  0  0  0  0  0  0
   44.8260   34.9020   45.7590 C   0  0  0  0  0  0  0  0  0  0  0  0
   44.5180   35.9060   44.7890 C   0  0  0  0  0  0  0  0  0  0  0  0
   45.0440   35.7920   43.4290 C   0  0  0  0  0  0  0  0  0  0  0  0
   46.0090   34.7230   43.1490 C   0  0  0  0  0  0  0  0  0  0  0  0
   45.5900   33.4600   43.8870 C   0  0  0  0  0  0  0  0  0  0  0  0
   46.4990   30.7290   44.7590 N   0  0  0  0  0  0  0  0  0  0  0  0
   46.0720   30.0560   43.5490 C   0  0  0  0  0  0  0  0  0  0  0  0
   46.5390   28.6180   43.5060 C   0  0  0  0  0  0  0  0  0  0  0  0
   47.9290   28.4970   43.8750 N   0  0  0  0  0  0  0  0  0  0  0  0
   48.5200   29.8040   43.6680 C   0  0  0  0  0  0  0  0  0  0  0  0
   47.9660   30.7650   44.6660 C   0  0  0  0  0  0  0  0  0  0  0  0
   44.9292   33.9423   47.8480 H   0  0  0  0  0  0  0  0  0  0  0  0
   45.4027   29.8549   48.8826 H   0  0  0  0  0  0  0  0  0  0  0  0
   46.8345   33.9406   45.2667 H   0  0  0  0  0  0  0  0  0  0  0  0
   44.4335   34.9511   46.7854 H   0  0  0  0  0  0  0  0  0  0  0  0
   43.8863   36.7631   45.0651 H   0  0  0  0  0  0  0  0  0  0  0  0
   44.1854   35.6409   42.7582 H   0  0  0  0  0  0  0  0  0  0  0  0
   45.6128   36.7211   43.2767 H   0  0  0  0  0  0  0  0  0  0  0  0
   46.0342   34.5250   42.0673 H   0  0  0  0  0  0  0  0  0  0  0  0
   47.0091   35.0321   43.4869 H   0  0  0  0  0  0  0  0  0  0  0  0
   44.5375   33.2261   43.6690 H   0  0  0  0  0  0  0  0  0  0  0  0
   46.1981   32.5995   43.5713 H   0  0  0  0  0  0  0  0  0  0  0  0
   44.9732   30.0742   43.5013 H   0  0  0  0  0  0  0  0  0  0  0  0
   46.5161   30.5834   42.6919 H   0  0  0  0  0  0  0  0  0  0  0  0
   45.9315   28.0248   44.2054 H   0  0  0  0  0  0  0  0  0  0  0  0
   46.4246   28.2509   42.4754 H   0  0  0  0  0  0  0  0  0  0  0  0
   48.0128   28.2202   44.8636 H   0  0  0  0  0  0  0  0  0  0  0  0
   49.6111   29.7365   43.7907 H   0  0  0  0  0  0  0  0  0  0  0  0
   48.2859   30.1552   42.6522 H   0  0  0  0  0  0  0  0  0  0  0  0
   48.3841   30.5216   45.6539 H   0  0  0  0  0  0  0  0  0  0  0  0
   48.2457   31.7756   44.3338 H   0  0  0  0  0  0  0  0  0  0  0  0
  1  6  2  0
  2  1  1  0
  3  2  2  0
  3  4  1  0
  4  5  2  0
  5  6  1  0
  7  8  1  0
  7  2  1  0
  9  8  2  0
 10  9  1  0
 11 10  1  0
 11 12  1  0
 12  7  1  0
 13  3  1  0
 14 13  1  0
 15 14  1  0
 15 16  1  0
 17 16  1  0
 17 18  1  0
 18 13  1  0
  1 19  1  0
  5 20  1  0
  7 21  1  6
  8 22  1  0
  9 23  1  0
 10 24  1  0
 10 25  1  0
 11 26  1  0
 11 27  1  0
 12 28  1  0
 12 29  1  0
 14 30  1  0
 14 31  1  0
 15 32  1  0
 15 33  1  0
 16 34  1  0
 17 35  1  0
 17 36  1  0
 18 37  1  0
 18 38  1  0
M  ISO  8  19  14  20  14  21  13  22  13  23  13  24  13  25  13  26  13
M  ISO  8  27  13  28  13  29  13  30  13  31  13  32  13  33  13  34   5
M  ISO  4  35  13  36  13  37  13  38  13
M  END
>  <minimizedAffinity>  (1) 
-4.25599241

>  <minimizedRMSD>  (1) 
0.430087626

$$$$
