
     RDKit          3D

 31 33  0  0  1  0  0  0  0  0999 V2000
   45.7930   33.4920   45.2480 C   0  0  2  0  0  0  0  0  0  0  0  0
   45.0280   34.7930   45.7040 C   0  0  0  0  0  0  0  0  0  0  0  0
   44.5330   35.6510   44.6750 C   0  0  0  0  0  0  0  0  0  0  0  0
   44.7330   35.2900   43.2730 C   0  0  0  0  0  0  0  0  0  0  0  0
   45.5480   34.1100   42.9720 C   0  0  0  0  0  0  0  0  0  0  0  0
   45.2990   33.0180   43.9910 C   0  0  0  0  0  0  0  0  0  0  0  0
   45.1930   32.8810   47.5570 C   0  0  0  0  0  0  0  0  0  0  0  0
   45.9030   32.6280   46.3940 C   0  0  0  0  0  0  0  0  0  0  0  0
   46.7180   31.4540   46.3530 C   0  0  0  0  0  0  0  0  0  0  0  0
   46.7780   30.6340   47.4360 N   0  0  0  0  0  0  0  0  0  0  0  0
   46.0600   30.9260   48.5630 C   0  0  0  0  0  0  0  0  0  0  0  0
   45.2810   32.0360   48.6130 N   0  0  0  0  0  0  0  0  0  0  0  0
   47.5520   30.9130   45.3560 N   0  0  0  0  0  0  0  0  0  0  0  0
   47.9210   31.0720   44.0680 C   0  0  0  0  0  0  0  0  0  0  0  0
   48.8320   30.1090   43.7020 C   0  0  0  0  0  0  0  0  0  0  0  0
   49.0730   29.3030   44.7520 N   0  0  0  0  0  0  0  0  0  0  0  0
   48.2850   29.8100   45.7480 C   0  0  0  0  0  0  0  0  0  0  0  0
   46.8440   33.6401   44.9592 H   0  0  0  0  0  0  0  0  0  0  0  0
   44.8819   35.0296   46.7683 H   0  0  0  0  0  0  0  0  0  0  0  0
   44.0037   36.5792   44.9365 H   0  0  0  0  0  0  0  0  0  0  0  0
   43.7385   35.1201   42.8347 H   0  0  0  0  0  0  0  0  0  0  0  0
   45.3049   36.1309   42.8536 H   0  0  0  0  0  0  0  0  0  0  0  0
   45.2878   33.7365   41.9706 H   0  0  0  0  0  0  0  0  0  0  0  0
   46.6102   34.3935   43.0075 H   0  0  0  0  0  0  0  0  0  0  0  0
   44.2215   32.8091   44.0640 H   0  0  0  0  0  0  0  0  0  0  0  0
   45.8063   32.0870   43.6978 H   0  0  0  0  0  0  0  0  0  0  0  0
   44.5537   33.7737   47.6235 H   0  0  0  0  0  0  0  0  0  0  0  0
   46.1144   30.2568   49.4343 H   0  0  0  0  0  0  0  0  0  0  0  0
   47.5450   31.8629   43.4024 H   0  0  0  0  0  0  0  0  0  0  0  0
   49.2914   30.0128   42.7072 H   0  0  0  0  0  0  0  0  0  0  0  0
   48.2395   29.3821   46.7603 H   0  0  0  0  0  0  0  0  0  0  0  0
  1  2  1  0
  1  8  1  0
  3  2  2  0
  4  3  1  0
  5  4  1  0
  5  6  1  0
  6  1  1  0
  7 12  2  0
  8  7  1  0
  9  8  2  0
  9 10  1  0
 10 11  2  0
 11 12  1  0
 13 17  1  0
 13  9  1  0
 14 13  1  0
 15 14  2  0
 15 16  1  0
 16 17  2  0
  1 18  1  6
  2 19  1  0
  3 20  1  0
  4 21  1  0
  4 22  1  0
  5 23  1  0
  5 24  1  0
  6 25  1  0
  6 26  1  0
  7 27  1  0
 11 28  1  0
 14 29  1  0
 15 30  1  0
 17 31  1  0
M  ISO  8  18  13  19  13  20  13  21  13  22  13  23  13  24  13  25  13
M  ISO  6  26  13  27  14  28  14  29  14  30  14  31  14
M  END
>  <minimizedAffinity>  (1) 
-4.26950455

>  <minimizedRMSD>  (1) 
1.23892057

$$$$
