
     RDKit          3D

 25 26  0  0  1  0  0  0  0  0999 V2000
   45.8660   33.8490   45.2580 C   0  0  2  0  0  0  0  0  0  0  0  0
   44.8490   34.9510   45.7040 C   0  0  0  0  0  0  0  0  0  0  0  0
   44.4690   35.8990   44.6930 C   0  0  0  0  0  0  0  0  0  0  0  0
   44.9980   35.7980   43.3380 C   0  0  0  0  0  0  0  0  0  0  0  0
   46.0370   34.7980   43.0890 C   0  0  0  0  0  0  0  0  0  0  0  0
   45.8030   33.5380   43.8650 C   0  0  0  0  0  0  0  0  0  0  0  0
   45.1710   32.9880   47.4460 C   0  0  0  0  0  0  0  0  0  0  0  0
   45.8690   32.8050   46.2540 C   0  0  0  0  0  0  0  0  0  0  0  0
   46.5520   31.5550   46.0280 C   0  0  0  0  0  0  0  0  0  0  0  0
   46.5030   30.5890   46.9820 N   0  0  0  0  0  0  0  0  0  0  0  0
   45.8040   30.8140   48.1430 C   0  0  0  0  0  0  0  0  0  0  0  0
   45.1510   31.9920   48.3640 N   0  0  0  0  0  0  0  0  0  0  0  0
   47.4630   31.1600   44.5560 S   0  0  0  0  0  0  0  0  0  0  0  0
   46.9067   34.2052   45.2575 H   0  0  0  0  0  0  0  0  0  0  0  0
   44.4496   34.9973   46.7279 H   0  0  0  0  0  0  0  0  0  0  0  0
   43.7705   36.7107   44.9444 H   0  0  0  0  0  0  0  0  0  0  0  0
   44.1537   35.5683   42.6714 H   0  0  0  0  0  0  0  0  0  0  0  0
   45.4917   36.7644   43.1582 H   0  0  0  0  0  0  0  0  0  0  0  0
   46.0476   34.5570   42.0158 H   0  0  0  0  0  0  0  0  0  0  0  0
   46.9995   35.2214   43.4121 H   0  0  0  0  0  0  0  0  0  0  0  0
   44.8116   33.1293   43.6199 H   0  0  0  0  0  0  0  0  0  0  0  0
   46.5671   32.7890   43.6097 H   0  0  0  0  0  0  0  0  0  0  0  0
   44.6412   33.9323   47.6398 H   0  0  0  0  0  0  0  0  0  0  0  0
   45.7698   30.0276   48.9114 H   0  0  0  0  0  0  0  0  0  0  0  0
   48.6797   30.6324   44.8997 H   0  0  0  0  0  0  0  0  0  0  0  0
  1  2  1  0
  1  8  1  0
  3  2  2  0
  4  3  1  0
  5  4  1  0
  5  6  1  0
  6  1  1  0
  7 12  2  0
  8  7  1  0
  9  8  2  0
  9 10  1  0
 10 11  2  0
 11 12  1  0
 13  9  1  0
  1 14  1  6
  2 15  1  0
  3 16  1  0
  4 17  1  0
  4 18  1  0
  5 19  1  0
  5 20  1  0
  6 21  1  0
  6 22  1  0
  7 23  1  0
 11 24  1  0
 13 25  1  0
M  ISO  8  14  13  15  13  16  13  17  13  18  13  19  13  20  13  21  13
M  ISO  4  22  13  23  14  24  14  25  11
M  END
>  <minimizedAffinity>  (1) 
-4.20642996

>  <minimizedRMSD>  (1) 
0.563195348

$$$$
