
     RDKit          3D

 35 36  0  0  1  0  0  0  0  0999 V2000
   45.5290   35.0500   42.8580 C   0  0  0  0  0  0  0  0  0  0  0  0
   45.0930   34.5230   45.2480 C   0  0  0  0  0  0  0  0  0  0  0  0
   45.8470   34.2600   44.0740 C   0  0  0  0  0  0  0  0  0  0  0  0
   46.8330   33.2680   44.1640 C   0  0  0  0  0  0  0  0  0  0  0  0
   47.0120   32.6260   45.3440 N   0  0  0  0  0  0  0  0  0  0  0  0
   46.2660   32.9110   46.4460 C   0  0  0  0  0  0  0  0  0  0  0  0
   45.3030   33.8680   46.3880 N   0  0  0  0  0  0  0  0  0  0  0  0
   46.6990   34.9900   41.9140 C   0  0  0  0  0  0  0  0  0  0  0  0
   45.2430   36.4640   43.2560 C   0  0  0  0  0  0  0  0  0  0  0  0
   44.2780   34.4830   42.2290 C   0  0  0  0  0  0  0  0  0  0  0  0
   43.2490   35.3900   42.3630 O   0  0  0  0  0  0  0  0  0  0  0  0
   41.1950   36.1990   41.5240 N   0  0  0  0  0  0  0  0  0  0  0  0
   40.3350   35.7670   40.4100 C   0  0  0  0  0  0  0  0  0  0  0  0
   41.3060   35.3200   39.3280 C   0  0  0  0  0  0  0  0  0  0  0  0
   42.6320   35.1730   40.0440 C   0  0  0  0  0  0  0  0  0  0  0  0
   42.1970   35.1850   41.4950 C   0  0  1  0  0  0  0  0  0  0  0  0
   44.3090   35.2938   45.2146 H   0  0  0  0  0  0  0  0  0  0  0  0
   47.4518   33.0145   43.2906 H   0  0  0  0  0  0  0  0  0  0  0  0
   46.4428   32.3659   47.3850 H   0  0  0  0  0  0  0  0  0  0  0  0
   47.6340   34.9421   42.4915 H   0  0  0  0  0  0  0  0  0  0  0  0
   46.6132   34.0951   41.2802 H   0  0  0  0  0  0  0  0  0  0  0  0
   46.7052   35.8890   41.2802 H   0  0  0  0  0  0  0  0  0  0  0  0
   45.2276   36.5401   44.3533 H   0  0  0  0  0  0  0  0  0  0  0  0
   46.0259   37.1237   42.8536 H   0  0  0  0  0  0  0  0  0  0  0  0
   44.2653   36.7676   42.8536 H   0  0  0  0  0  0  0  0  0  0  0  0
   44.0072   33.5432   42.7324 H   0  0  0  0  0  0  0  0  0  0  0  0
   44.4589   34.2863   41.1620 H   0  0  0  0  0  0  0  0  0  0  0  0
   41.5953   37.1327   41.3541 H   0  0  0  0  0  0  0  0  0  0  0  0
   39.6877   34.9333   40.7196 H   0  0  0  0  0  0  0  0  0  0  0  0
   39.6651   36.5682   40.0647 H   0  0  0  0  0  0  0  0  0  0  0  0
   41.3759   36.0761   38.5321 H   0  0  0  0  0  0  0  0  0  0  0  0
   40.9882   34.3861   38.8414 H   0  0  0  0  0  0  0  0  0  0  0  0
   43.1274   34.2267   39.7812 H   0  0  0  0  0  0  0  0  0  0  0  0
   43.3665   35.9516   39.7903 H   0  0  0  0  0  0  0  0  0  0  0  0
   41.8033   34.2191   41.8444 H   0  0  0  0  0  0  0  0  0  0  0  0
  1  9  1  0
  1  3  1  0
  2  7  2  0
  3  4  2  0
  3  2  1  0
  4  5  1  0
  5  6  2  0
  7  6  1  0
  8  1  1  0
 10 11  1  0
 10  1  1  0
 13 12  1  0
 14 15  1  0
 14 13  1  0
 15 16  1  0
 16 12  1  0
 16 11  1  0
  2 17  1  0
  4 18  1  0
  6 19  1  0
  8 20  1  0
  8 21  1  0
  8 22  1  0
  9 23  1  0
  9 24  1  0
  9 25  1  0
 10 26  1  0
 10 27  1  0
 12 28  1  0
 13 29  1  0
 13 30  1  0
 14 31  1  0
 14 32  1  0
 15 33  1  0
 15 34  1  0
 16 35  1  1
M  ISO  8  17  14  18  14  19  14  20   8  21   8  22   8  23   8  24   8
M  ISO  8  25   8  26   8  27   8  28   5  29  13  30  13  31  13  32  13
M  ISO  3  33  13  34  13  35  13
M  END
>  <minimizedAffinity>  (1) 
-4.84895229

>  <minimizedRMSD>  (1) 
0.619233072

$$$$
