
     RDKit          3D

 43 47  0  0  1  0  0  0  0  0999 V2000
   45.7020   32.4210   46.5860 C   0  0  0  0  0  0  0  0  0  0  0  0
   46.3100   32.4680   45.3420 C   0  0  0  0  0  0  0  0  0  0  0  0
   47.2750   31.4660   45.0280 C   0  0  0  0  0  0  0  0  0  0  0  0
   47.5650   30.5220   45.9340 N   0  0  0  0  0  0  0  0  0  0  0  0
   46.9460   30.5090   47.1500 C   0  0  0  0  0  0  0  0  0  0  0  0
   46.0220   31.4500   47.4740 N   0  0  0  0  0  0  0  0  0  0  0  0
   46.0180   33.5950   44.4470 C   0  0  2  0  0  0  0  0  0  0  0  0
   45.4070   34.7260   45.2780 C   0  0  0  0  0  0  0  0  0  0  0  0
   44.5340   35.6730   44.6360 C   0  0  0  0  0  0  0  0  0  0  0  0
   44.2690   35.5450   43.1930 C   0  0  0  0  0  0  0  0  0  0  0  0
   45.0400   34.5200   42.4730 C   0  0  0  0  0  0  0  0  0  0  0  0
   45.1080   33.2610   43.3310 C   0  0  0  0  0  0  0  0  0  0  0  0
   48.0240   31.2120   43.8350 C   0  0  0  0  0  0  0  0  0  0  0  0
   49.0580   30.3980   43.8290 N   0  0  0  0  0  0  0  0  0  0  0  0
   49.5330   30.3620   42.6130 O   0  0  0  0  0  0  0  0  0  0  0  0
   48.8820   31.1020   41.7990 C   0  0  0  0  0  0  0  0  0  0  0  0
   47.9220   31.6570   42.5250 N   0  0  0  0  0  0  0  0  0  0  0  0
   49.1620   31.2770   40.3780 C   0  0  0  0  0  0  0  0  0  0  0  0
   49.7790   30.3080   39.6140 C   0  0  0  0  0  0  0  0  0  0  0  0
   49.8740   30.8060   38.3680 N   0  0  0  0  0  0  0  0  0  0  0  0
   49.3360   32.0380   38.3590 C   0  0  0  0  0  0  0  0  0  0  0  0
   49.1650   33.0010   37.3570 C   0  0  0  0  0  0  0  0  0  0  0  0
   48.5720   34.2210   37.5880 C   0  0  0  0  0  0  0  0  0  0  0  0
   48.1230   34.5190   38.8540 C   0  0  0  0  0  0  0  0  0  0  0  0
   48.2660   33.6100   39.8720 C   0  0  0  0  0  0  0  0  0  0  0  0
   48.8600   32.4030   39.6130 C   0  0  0  0  0  0  0  0  0  0  0  0
   44.9522   33.1796   46.8549 H   0  0  0  0  0  0  0  0  0  0  0  0
   47.1992   29.7247   47.8786 H   0  0  0  0  0  0  0  0  0  0  0  0
   46.9702   33.8920   43.9832 H   0  0  0  0  0  0  0  0  0  0  0  0
   45.6321   34.8137   46.3511 H   0  0  0  0  0  0  0  0  0  0  0  0
   44.0697   36.4836   45.2168 H   0  0  0  0  0  0  0  0  0  0  0  0
   43.2018   35.3092   43.0687 H   0  0  0  0  0  0  0  0  0  0  0  0
   44.5788   36.5047   42.7537 H   0  0  0  0  0  0  0  0  0  0  0  0
   44.5462   34.2896   41.5175 H   0  0  0  0  0  0  0  0  0  0  0  0
   46.0563   34.8900   42.2722 H   0  0  0  0  0  0  0  0  0  0  0  0
   44.1097   33.0013   43.7130 H   0  0  0  0  0  0  0  0  0  0  0  0
   45.4660   32.3937   42.7569 H   0  0  0  0  0  0  0  0  0  0  0  0
   50.1253   29.3217   39.9565 H   0  0  0  0  0  0  0  0  0  0  0  0
   50.2890   30.3246   37.5575 H   0  0  0  0  0  0  0  0  0  0  0  0
   49.5201   32.7724   36.3413 H   0  0  0  0  0  0  0  0  0  0  0  0
   48.4584   34.9487   36.7710 H   0  0  0  0  0  0  0  0  0  0  0  0
   47.6470   35.4909   39.0511 H   0  0  0  0  0  0  0  0  0  0  0  0
   47.9078   33.8478   40.8845 H   0  0  0  0  0  0  0  0  0  0  0  0
  1  6  2  0
  2  1  1  0
  3  2  2  0
  3  4  1  0
  4  5  2  0
  5  6  1  0
  7  8  1  0
  7  2  1  0
  9  8  2  0
 10  9  1  0
 11 10  1  0
 11 12  1  0
 12  7  1  0
 13  3  1  0
 14 13  2  0
 15 14  1  0
 16 17  2  0
 16 15  1  0
 17 13  1  0
 18 16  1  0
 19 18  2  0
 20 19  1  0
 21 20  1  0
 21 26  2  0
 22 23  2  0
 22 21  1  0
 23 24  1  0
 24 25  2  0
 26 25  1  0
 26 18  1  0
  1 27  1  0
  5 28  1  0
  7 29  1  6
  8 30  1  0
  9 31  1  0
 10 32  1  0
 10 33  1  0
 11 34  1  0
 11 35  1  0
 12 36  1  0
 12 37  1  0
 19 38  1  0
 20 39  1  0
 22 40  1  0
 23 41  1  0
 24 42  1  0
 25 43  1  0
M  ISO  8  27  14  28  14  29  13  30  13  31  13  32  13  33  13  34  13
M  ISO  8  35  13  36  13  37  13  38  14  39   9  40  14  41  14  42  14
M  ISO  1  43  14
M  END
>  <minimizedAffinity>  (1) 
-5.26712561

>  <minimizedRMSD>  (1) 
2.97648191

$$$$
