
     RDKit          3D

 43 46  0  0  1  0  0  0  0  0999 V2000
   45.1700   32.8210   47.6210 C   0  0  0  0  0  0  0  0  0  0  0  0
   45.7330   32.5770   46.3750 C   0  0  0  0  0  0  0  0  0  0  0  0
   46.1620   31.2470   46.0820 C   0  0  0  0  0  0  0  0  0  0  0  0
   46.0120   30.2860   47.0100 N   0  0  0  0  0  0  0  0  0  0  0  0
   45.4540   30.5630   48.2280 C   0  0  0  0  0  0  0  0  0  0  0  0
   45.0370   31.8260   48.5250 N   0  0  0  0  0  0  0  0  0  0  0  0
   45.8850   33.6730   45.4280 C   0  0  2  0  0  0  0  0  0  0  0  0
   44.8860   34.7940   45.8380 C   0  0  0  0  0  0  0  0  0  0  0  0
   44.5260   35.7760   44.8860 C   0  0  0  0  0  0  0  0  0  0  0  0
   45.1190   35.7110   43.5330 C   0  0  0  0  0  0  0  0  0  0  0  0
   46.0060   34.6100   43.2330 C   0  0  0  0  0  0  0  0  0  0  0  0
   45.6390   33.3630   44.0260 C   0  0  0  0  0  0  0  0  0  0  0  0
   46.7540   30.6680   44.9170 C   0  0  0  0  0  0  0  0  0  0  0  0
   48.0680   30.6870   44.7310 N   0  0  0  0  0  0  0  0  0  0  0  0
   48.3190   30.0970   43.6040 O   0  0  0  0  0  0  0  0  0  0  0  0
   47.2610   29.6790   43.0110 C   0  0  0  0  0  0  0  0  0  0  0  0
   46.2460   30.0180   43.8060 N   0  0  0  0  0  0  0  0  0  0  0  0
   47.0010   28.9930   41.7940 N   0  0  0  0  0  0  0  0  0  0  0  0
   46.0220   29.6510   40.9630 C   0  0  0  0  0  0  0  0  0  0  0  0
   46.6710   30.0880   39.6830 C   0  0  0  0  0  0  0  0  0  0  0  0
   47.6540   29.1140   39.2330 N   0  0  0  0  0  0  0  0  0  0  0  0
   47.3910   27.8010   39.7650 C   0  0  0  0  0  0  0  0  0  0  0  0
   47.5620   27.7690   41.2670 C   0  0  0  0  0  0  0  0  0  0  0  0
   44.8287   33.8355   47.8745 H   0  0  0  0  0  0  0  0  0  0  0  0
   45.3412   29.7611   48.9724 H   0  0  0  0  0  0  0  0  0  0  0  0
   46.9461   33.9573   45.4845 H   0  0  0  0  0  0  0  0  0  0  0  0
   44.4658   34.8221   46.8542 H   0  0  0  0  0  0  0  0  0  0  0  0
   43.8166   36.5749   45.1477 H   0  0  0  0  0  0  0  0  0  0  0  0
   44.2881   35.6670   42.8135 H   0  0  0  0  0  0  0  0  0  0  0  0
   45.7584   36.6039   43.4702 H   0  0  0  0  0  0  0  0  0  0  0  0
   45.9414   34.3819   42.1588 H   0  0  0  0  0  0  0  0  0  0  0  0
   47.0284   34.9061   43.5107 H   0  0  0  0  0  0  0  0  0  0  0  0
   44.5785   33.1144   43.8728 H   0  0  0  0  0  0  0  0  0  0  0  0
   46.2346   32.4971   43.7011 H   0  0  0  0  0  0  0  0  0  0  0  0
   45.2015   28.9534   40.7394 H   0  0  0  0  0  0  0  0  0  0  0  0
   45.6209   30.5287   41.4910 H   0  0  0  0  0  0  0  0  0  0  0  0
   45.8977   30.2014   38.9090 H   0  0  0  0  0  0  0  0  0  0  0  0
   47.1842   31.0445   39.8611 H   0  0  0  0  0  0  0  0  0  0  0  0
   47.6302   29.0675   38.2043 H   0  0  0  0  0  0  0  0  0  0  0  0
   46.3585   27.5145   39.5163 H   0  0  0  0  0  0  0  0  0  0  0  0
   48.1098   27.0972   39.3200 H   0  0  0  0  0  0  0  0  0  0  0  0
   47.0319   26.9015   41.6870 H   0  0  0  0  0  0  0  0  0  0  0  0
   48.6256   27.6835   41.5343 H   0  0  0  0  0  0  0  0  0  0  0  0
  1  6  2  0
  2  1  1  0
  3  2  2  0
  3  4  1  0
  4  5  2  0
  5  6  1  0
  7  8  1  0
  7  2  1  0
  9  8  2  0
 10  9  1  0
 11 10  1  0
 11 12  1  0
 12  7  1  0
 13  3  1  0
 14 13  2  0
 15 14  1  0
 16 15  1  0
 16 17  2  0
 17 13  1  0
 18 16  1  0
 19 18  1  0
 20 19  1  0
 21 20  1  0
 21 22  1  0
 22 23  1  0
 23 18  1  0
  1 24  1  0
  5 25  1  0
  7 26  1  6
  8 27  1  0
  9 28  1  0
 10 29  1  0
 10 30  1  0
 11 31  1  0
 11 32  1  0
 12 33  1  0
 12 34  1  0
 19 35  1  0
 19 36  1  0
 20 37  1  0
 20 38  1  0
 21 39  1  0
 22 40  1  0
 22 41  1  0
 23 42  1  0
 23 43  1  0
M  ISO  8  24  14  25  14  26  13  27  13  28  13  29  13  30  13  31  13
M  ISO  8  32  13  33  13  34  13  35  13  36  13  37  13  38  13  39   5
M  ISO  4  40  13  41  13  42  13  43  13
M  END
>  <minimizedAffinity>  (1) 
-4.38614559

>  <minimizedRMSD>  (1) 
0.256753892

$$$$
