
     RDKit          3D

 39 42  0  0  1  0  0  0  0  0999 V2000
   45.1780   32.8140   47.6200 C   0  0  0  0  0  0  0  0  0  0  0  0
   45.7240   32.5670   46.3700 C   0  0  0  0  0  0  0  0  0  0  0  0
   46.1590   31.2390   46.0770 C   0  0  0  0  0  0  0  0  0  0  0  0
   46.0310   30.2810   47.0080 N   0  0  0  0  0  0  0  0  0  0  0  0
   45.4910   30.5590   48.2250 C   0  0  0  0  0  0  0  0  0  0  0  0
   45.0660   31.8220   48.5310 N   0  0  0  0  0  0  0  0  0  0  0  0
   45.8900   33.6720   45.4370 C   0  0  2  0  0  0  0  0  0  0  0  0
   44.9170   34.7980   45.8410 C   0  0  0  0  0  0  0  0  0  0  0  0
   44.5140   35.7590   44.8590 C   0  0  0  0  0  0  0  0  0  0  0  0
   45.0480   35.6560   43.4960 C   0  0  0  0  0  0  0  0  0  0  0  0
   46.0570   34.6160   43.2500 C   0  0  0  0  0  0  0  0  0  0  0  0
   45.6790   33.3620   44.0250 C   0  0  0  0  0  0  0  0  0  0  0  0
   46.7270   30.6630   44.8970 C   0  0  0  0  0  0  0  0  0  0  0  0
   48.0290   30.7080   44.6700 N   0  0  0  0  0  0  0  0  0  0  0  0
   48.2560   30.1080   43.5340 O   0  0  0  0  0  0  0  0  0  0  0  0
   47.1900   29.6640   42.9850 C   0  0  0  0  0  0  0  0  0  0  0  0
   46.2020   29.9920   43.8070 N   0  0  0  0  0  0  0  0  0  0  0  0
   46.9500   28.9610   41.7710 N   0  0  0  0  0  0  0  0  0  0  0  0
   46.5020   27.7110   42.0130 C   0  0  0  0  0  0  0  0  0  0  0  0
   46.1960   26.8290   40.9780 C   0  0  0  0  0  0  0  0  0  0  0  0
   46.3740   27.2890   39.6820 C   0  0  0  0  0  0  0  0  0  0  0  0
   46.1120   26.5330   38.7120 O   0  0  0  0  0  0  0  0  0  0  0  0
   46.8200   28.5350   39.4980 N   0  0  0  0  0  0  0  0  0  0  0  0
   47.1100   29.3730   40.5100 C   0  0  0  0  0  0  0  0  0  0  0  0
   47.5300   30.5480   40.4060 O   0  0  0  0  0  0  0  0  0  0  0  0
   44.8325   33.8273   47.8729 H   0  0  0  0  0  0  0  0  0  0  0  0
   45.3950   29.7577   48.9724 H   0  0  0  0  0  0  0  0  0  0  0  0
   46.9492   33.9591   45.5127 H   0  0  0  0  0  0  0  0  0  0  0  0
   44.5370   34.8622   46.8713 H   0  0  0  0  0  0  0  0  0  0  0  0
   43.8129   36.5644   45.1230 H   0  0  0  0  0  0  0  0  0  0  0  0
   44.2008   35.4621   42.8218 H   0  0  0  0  0  0  0  0  0  0  0  0
   45.5715   36.6077   43.3223 H   0  0  0  0  0  0  0  0  0  0  0  0
   46.0953   34.3869   42.1748 H   0  0  0  0  0  0  0  0  0  0  0  0
   47.0441   34.9720   43.5799 H   0  0  0  0  0  0  0  0  0  0  0  0
   44.6243   33.1066   43.8448 H   0  0  0  0  0  0  0  0  0  0  0  0
   46.2857   32.5001   43.7104 H   0  0  0  0  0  0  0  0  0  0  0  0
   46.3751   27.3797   43.0542 H   0  0  0  0  0  0  0  0  0  0  0  0
   45.8291   25.8119   41.1805 H   0  0  0  0  0  0  0  0  0  0  0  0
   46.9483   28.8710   38.5328 H   0  0  0  0  0  0  0  0  0  0  0  0
  1  6  2  0
  2  1  1  0
  3  2  2  0
  3  4  1  0
  4  5  2  0
  5  6  1  0
  7  8  1  0
  7  2  1  0
  9  8  2  0
 10  9  1  0
 11 10  1  0
 11 12  1  0
 12  7  1  0
 13  3  1  0
 14 13  2  0
 15 14  1  0
 16 15  1  0
 16 17  2  0
 17 13  1  0
 18 19  1  0
 18 16  1  0
 20 19  2  0
 21 20  1  0
 22 21  2  0
 23 21  1  0
 23 24  1  0
 24 18  1  0
 25 24  2  0
  1 26  1  0
  5 27  1  0
  7 28  1  6
  8 29  1  0
  9 30  1  0
 10 31  1  0
 10 32  1  0
 11 33  1  0
 11 34  1  0
 12 35  1  0
 12 36  1  0
 19 37  1  0
 20 38  1  0
 23 39  1  0
M  ISO  8  26  14  27  14  28  13  29  13  30  13  31  13  32  13  33  13
M  ISO  6  34  13  35  13  36  13  37  14  38  14  39   9
M  END
>  <minimizedAffinity>  (1) 
-4.35228872

>  <minimizedRMSD>  (1) 
0.279653281

$$$$
