
     RDKit          3D

 30 31  0  0  0  0  0  0  0  0999 V2000
   45.6400   35.1020   42.9070 C   0  0  0  0  0  0  0  0  0  0  0  0
   45.0940   34.5600   45.2570 C   0  0  0  0  0  0  0  0  0  0  0  0
   45.8980   34.2850   44.1290 C   0  0  0  0  0  0  0  0  0  0  0  0
   46.8610   33.2840   44.2410 C   0  0  0  0  0  0  0  0  0  0  0  0
   46.9810   32.6270   45.4130 N   0  0  0  0  0  0  0  0  0  0  0  0
   46.2040   32.9040   46.4730 C   0  0  0  0  0  0  0  0  0  0  0  0
   45.2620   33.8700   46.3950 N   0  0  0  0  0  0  0  0  0  0  0  0
   46.8870   35.1470   42.0610 C   0  0  0  0  0  0  0  0  0  0  0  0
   45.2250   36.4860   43.3150 C   0  0  0  0  0  0  0  0  0  0  0  0
   44.4880   34.4920   42.1420 C   0  0  0  0  0  0  0  0  0  0  0  0
   43.3940   35.3140   42.2400 O   0  0  0  0  0  0  0  0  0  0  0  0
   42.3730   35.4590   41.3180 C   0  0  0  0  0  0  0  0  0  0  0  0
   42.2560   35.0640   40.0000 C   0  0  0  0  0  0  0  0  0  0  0  0
   41.0430   35.4410   39.5100 N   0  0  0  0  0  0  0  0  0  0  0  0
   40.4220   36.0670   40.5310 C   0  0  0  0  0  0  0  0  0  0  0  0
   41.2210   36.0800   41.6240 N   0  0  0  0  0  0  0  0  0  0  0  0
   44.3253   35.3449   45.2021 H   0  0  0  0  0  0  0  0  0  0  0  0
   47.5112   33.0343   43.3896 H   0  0  0  0  0  0  0  0  0  0  0  0
   46.3350   32.3418   47.4093 H   0  0  0  0  0  0  0  0  0  0  0  0
   47.7719   35.1789   42.7136 H   0  0  0  0  0  0  0  0  0  0  0  0
   46.9319   34.2499   41.4260 H   0  0  0  0  0  0  0  0  0  0  0  0
   46.8671   36.0450   41.4260 H   0  0  0  0  0  0  0  0  0  0  0  0
   45.2046   36.5540   44.4127 H   0  0  0  0  0  0  0  0  0  0  0  0
   45.9435   37.2169   42.9156 H   0  0  0  0  0  0  0  0  0  0  0  0
   44.2229   36.7010   42.9156 H   0  0  0  0  0  0  0  0  0  0  0  0
   44.2462   33.5061   42.5658 H   0  0  0  0  0  0  0  0  0  0  0  0
   44.7680   34.3750   41.0847 H   0  0  0  0  0  0  0  0  0  0  0  0
   43.0278   34.5251   39.4308 H   0  0  0  0  0  0  0  0  0  0  0  0
   39.4134   36.5033   40.4826 H   0  0  0  0  0  0  0  0  0  0  0  0
   40.9856   36.4958   42.5365 H   0  0  0  0  0  0  0  0  0  0  0  0
  1  9  1  0
  1  3  1  0
  2  7  2  0
  3  4  2  0
  3  2  1  0
  4  5  1  0
  5  6  2  0
  7  6  1  0
  8  1  1  0
 10 11  1  0
 10  1  1  0
 12 16  1  0
 12 11  1  0
 13 12  2  0
 14 13  1  0
 14 15  2  0
 15 16  1  0
  2 17  1  0
  4 18  1  0
  6 19  1  0
  8 20  1  0
  8 21  1  0
  8 22  1  0
  9 23  1  0
  9 24  1  0
  9 25  1  0
 10 26  1  0
 10 27  1  0
 13 28  1  0
 15 29  1  0
 16 30  1  0
M  ISO  8  17  14  18  14  19  14  20   8  21   8  22   8  23   8  24   8
M  ISO  6  25   8  26   8  27   8  28  14  29  14  30   9
M  END
>  <minimizedAffinity>  (1) 
-4.79804993

>  <minimizedRMSD>  (1) 
1.09042025

$$$$
