
     RDKit          3D

 40 43  0  0  1  0  0  0  0  0999 V2000
   45.1850   32.8930   47.5650 C   0  0  0  0  0  0  0  0  0  0  0  0
   45.7500   32.6220   46.3310 C   0  0  0  0  0  0  0  0  0  0  0  0
   46.1100   31.2440   46.0450 C   0  0  0  0  0  0  0  0  0  0  0  0
   45.8970   30.2680   46.9510 N   0  0  0  0  0  0  0  0  0  0  0  0
   45.3280   30.5930   48.1670 C   0  0  0  0  0  0  0  0  0  0  0  0
   44.9800   31.8830   48.4640 N   0  0  0  0  0  0  0  0  0  0  0  0
   45.9000   33.6690   45.3490 C   0  0  2  0  0  0  0  0  0  0  0  0
   44.8240   34.8190   45.8170 C   0  0  0  0  0  0  0  0  0  0  0  0
   44.5170   35.8570   44.9010 C   0  0  0  0  0  0  0  0  0  0  0  0
   45.1690   35.8160   43.5670 C   0  0  0  0  0  0  0  0  0  0  0  0
   45.9560   34.6560   43.2000 C   0  0  0  0  0  0  0  0  0  0  0  0
   45.5740   33.4490   43.9920 C   0  0  0  0  0  0  0  0  0  0  0  0
   46.7430   30.6550   44.9040 C   0  0  0  0  0  0  0  0  0  0  0  0
   48.0950   30.5670   44.8500 N   0  0  0  0  0  0  0  0  0  0  0  0
   48.4020   30.0000   43.7210 O   0  0  0  0  0  0  0  0  0  0  0  0
   47.3770   29.7020   43.0170 C   0  0  0  0  0  0  0  0  0  0  0  0
   46.3370   30.1010   43.7350 N   0  0  0  0  0  0  0  0  0  0  0  0
   47.4250   29.0750   41.7410 N   0  0  0  0  0  0  0  0  0  0  0  0
   46.9410   27.8170   41.6540 C   0  0  0  0  0  0  0  0  0  0  0  0
   46.9700   27.1680   40.4150 C   0  0  0  0  0  0  0  0  0  0  0  0
   47.5010   27.8680   39.3500 C   0  0  0  0  0  0  0  0  0  0  0  0
   47.5760   27.2900   38.0390 N   0  0  0  0  0  0  0  0  0  0  0  0
   47.9800   29.1380   39.4820 N   0  0  0  0  0  0  0  0  0  0  0  0
   47.9410   29.7530   40.6990 C   0  0  0  0  0  0  0  0  0  0  0  0
   48.3900   30.9250   40.7890 O   0  0  0  0  0  0  0  0  0  0  0  0
   44.9001   33.9236   47.8234 H   0  0  0  0  0  0  0  0  0  0  0  0
   45.1514   29.8011   48.9098 H   0  0  0  0  0  0  0  0  0  0  0  0
   46.9820   33.8671   45.3438 H   0  0  0  0  0  0  0  0  0  0  0  0
   44.3555   34.7847   46.8117 H   0  0  0  0  0  0  0  0  0  0  0  0
   43.8201   36.6647   45.1691 H   0  0  0  0  0  0  0  0  0  0  0  0
   44.3710   35.9136   42.8162 H   0  0  0  0  0  0  0  0  0  0  0  0
   45.9078   36.6297   43.6119 H   0  0  0  0  0  0  0  0  0  0  0  0
   45.8000   34.4442   42.1319 H   0  0  0  0  0  0  0  0  0  0  0  0
   47.0120   34.8808   43.4103 H   0  0  0  0  0  0  0  0  0  0  0  0
   44.4926   33.2718   43.8962 H   0  0  0  0  0  0  0  0  0  0  0  0
   46.1178   32.5697   43.6163 H   0  0  0  0  0  0  0  0  0  0  0  0
   46.5315   27.3120   42.5413 H   0  0  0  0  0  0  0  0  0  0  0  0
   46.5863   26.1442   40.2945 H   0  0  0  0  0  0  0  0  0  0  0  0
   47.2298   26.3335   37.8773 H   0  0  0  0  0  0  0  0  0  0  0  0
   47.9760   27.8316   37.2595 H   0  0  0  0  0  0  0  0  0  0  0  0
  1  6  2  0
  2  1  1  0
  3  2  2  0
  3  4  1  0
  4  5  2  0
  5  6  1  0
  7  8  1  0
  7  2  1  0
  9  8  2  0
 10  9  1  0
 11 10  1  0
 11 12  1  0
 12  7  1  0
 13  3  1  0
 14 13  2  0
 15 14  1  0
 16 15  1  0
 16 17  2  0
 17 13  1  0
 18 16  1  0
 19 18  1  0
 20 19  2  0
 21 23  2  0
 21 20  1  0
 22 21  1  0
 23 24  1  0
 24 25  2  0
 24 18  1  0
  1 26  1  0
  5 27  1  0
  7 28  1  6
  8 29  1  0
  9 30  1  0
 10 31  1  0
 10 32  1  0
 11 33  1  0
 11 34  1  0
 12 35  1  0
 12 36  1  0
 19 37  1  0
 20 38  1  0
 22 39  1  0
 22 40  1  0
M  ISO  8  26  14  27  14  28  13  29  13  30  13  31  13  32  13  33  13
M  ISO  5  34  13  35  13  36  13  37  14  38  14
M  END
>  <minimizedAffinity>  (1) 
-4.46846008

>  <minimizedRMSD>  (1) 
0.432512045

$$$$
