
     RDKit          3D

 30 31  0  0  0  0  0  0  0  0999 V2000
   45.5430   35.0350   42.8640 C   0  0  0  0  0  0  0  0  0  0  0  0
   45.0790   34.5340   45.2490 C   0  0  0  0  0  0  0  0  0  0  0  0
   45.8400   34.2600   44.0930 C   0  0  0  0  0  0  0  0  0  0  0  0
   46.8210   33.2680   44.1990 C   0  0  0  0  0  0  0  0  0  0  0  0
   46.9930   32.6360   45.3700 N   0  0  0  0  0  0  0  0  0  0  0  0
   46.2450   32.9250   46.4610 C   0  0  0  0  0  0  0  0  0  0  0  0
   45.2860   33.8790   46.3910 N   0  0  0  0  0  0  0  0  0  0  0  0
   46.7390   35.0360   41.9550 C   0  0  0  0  0  0  0  0  0  0  0  0
   45.1770   36.4520   43.2550 C   0  0  0  0  0  0  0  0  0  0  0  0
   44.3260   34.4470   42.1940 C   0  0  0  0  0  0  0  0  0  0  0  0
   43.3150   35.3570   42.1330 O   0  0  0  0  0  0  0  0  0  0  0  0
   42.3440   35.3990   41.1470 C   0  0  0  0  0  0  0  0  0  0  0  0
   41.0110   35.7190   41.4280 C   0  0  0  0  0  0  0  0  0  0  0  0
   40.3980   35.6460   40.1840 C   0  0  0  0  0  0  0  0  0  0  0  0
   41.3790   35.2970   39.2690 C   0  0  0  0  0  0  0  0  0  0  0  0
   42.5270   35.1570   39.8730 O   0  0  0  0  0  0  0  0  0  0  0  0
   44.2967   35.3062   45.2067 H   0  0  0  0  0  0  0  0  0  0  0  0
   47.4450   33.0088   43.3310 H   0  0  0  0  0  0  0  0  0  0  0  0
   46.4161   32.3851   47.4040 H   0  0  0  0  0  0  0  0  0  0  0  0
   47.6585   35.0368   42.5588 H   0  0  0  0  0  0  0  0  0  0  0  0
   46.7179   34.1378   41.3203 H   0  0  0  0  0  0  0  0  0  0  0  0
   46.7164   35.9341   41.3203 H   0  0  0  0  0  0  0  0  0  0  0  0
   45.1554   36.5358   44.3516 H   0  0  0  0  0  0  0  0  0  0  0  0
   45.9245   37.1492   42.8487 H   0  0  0  0  0  0  0  0  0  0  0  0
   44.1853   36.7000   42.8487 H   0  0  0  0  0  0  0  0  0  0  0  0
   44.5924   34.1363   41.1730 H   0  0  0  0  0  0  0  0  0  0  0  0
   43.9847   33.5830   42.7831 H   0  0  0  0  0  0  0  0  0  0  0  0
   40.5583   35.9681   42.3991 H   0  0  0  0  0  0  0  0  0  0  0  0
   39.3356   35.8302   39.9661 H   0  0  0  0  0  0  0  0  0  0  0  0
   41.2137   35.1582   38.1904 H   0  0  0  0  0  0  0  0  0  0  0  0
  1  9  1  0
  1  3  1  0
  2  7  2  0
  3  4  2  0
  3  2  1  0
  4  5  1  0
  5  6  2  0
  7  6  1  0
  8  1  1  0
 10  1  1  0
 11 10  1  0
 12 13  2  0
 12 11  1  0
 14 13  1  0
 15 16  1  0
 15 14  2  0
 16 12  1  0
  2 17  1  0
  4 18  1  0
  6 19  1  0
  8 20  1  0
  8 21  1  0
  8 22  1  0
  9 23  1  0
  9 24  1  0
  9 25  1  0
 10 26  1  0
 10 27  1  0
 13 28  1  0
 14 29  1  0
 15 30  1  0
M  ISO  8  17  14  18  14  19  14  20   8  21   8  22   8  23   8  24   8
M  ISO  6  25   8  26   8  27   8  28  14  29  14  30  14
M  END
>  <minimizedAffinity>  (1) 
-4.75805616

>  <minimizedRMSD>  (1) 
1.17008972

$$$$
