
     RDKit          3D

 42 45  0  0  1  0  0  0  0  0999 V2000
   45.1660   32.8170   47.6210 C   0  0  0  0  0  0  0  0  0  0  0  0
   45.7160   32.5290   46.3750 C   0  0  0  0  0  0  0  0  0  0  0  0
   46.2020   31.2100   46.1400 C   0  0  0  0  0  0  0  0  0  0  0  0
   46.1170   30.2960   47.1150 N   0  0  0  0  0  0  0  0  0  0  0  0
   45.5750   30.6090   48.3250 C   0  0  0  0  0  0  0  0  0  0  0  0
   45.1020   31.8670   48.5740 N   0  0  0  0  0  0  0  0  0  0  0  0
   45.8530   33.6070   45.3920 C   0  0  2  0  0  0  0  0  0  0  0  0
   44.9780   34.7840   45.8310 C   0  0  0  0  0  0  0  0  0  0  0  0
   44.4930   35.7060   44.8390 C   0  0  0  0  0  0  0  0  0  0  0  0
   44.8700   35.5000   43.4210 C   0  0  0  0  0  0  0  0  0  0  0  0
   45.8500   34.4470   43.1550 C   0  0  0  0  0  0  0  0  0  0  0  0
   45.5270   33.2280   44.0070 C   0  0  0  0  0  0  0  0  0  0  0  0
   46.7660   30.6000   44.9770 C   0  0  0  0  0  0  0  0  0  0  0  0
   48.0520   30.6970   44.7000 N   0  0  0  0  0  0  0  0  0  0  0  0
   48.2770   30.0480   43.5920 O   0  0  0  0  0  0  0  0  0  0  0  0
   47.2220   29.5170   43.1030 C   0  0  0  0  0  0  0  0  0  0  0  0
   46.2480   29.8390   43.9410 N   0  0  0  0  0  0  0  0  0  0  0  0
   46.9930   28.7370   41.9410 N   0  0  0  0  0  0  0  0  0  0  0  0
   47.5560   29.2930   40.8410 C   0  0  0  0  0  0  0  0  0  0  0  0
   47.4550   28.6980   39.6000 C   0  0  0  0  0  0  0  0  0  0  0  0
   48.0690   29.2940   38.3710 C   0  0  0  0  0  0  0  0  0  0  0  0
   46.7460   27.5050   39.5520 C   0  0  0  0  0  0  0  0  0  0  0  0
   46.6240   26.9170   38.4300 O   0  0  0  0  0  0  0  0  0  0  0  0
   46.1940   26.9670   40.6480 N   0  0  0  0  0  0  0  0  0  0  0  0
   46.3140   27.5800   41.8470 C   0  0  0  0  0  0  0  0  0  0  0  0
   45.8410   27.1710   42.9440 O   0  0  0  0  0  0  0  0  0  0  0  0
   44.7813   33.8264   47.8286 H   0  0  0  0  0  0  0  0  0  0  0  0
   45.5174   29.8409   49.1103 H   0  0  0  0  0  0  0  0  0  0  0  0
   46.9192   33.8767   45.3715 H   0  0  0  0  0  0  0  0  0  0  0  0
   44.7233   34.9230   46.8920 H   0  0  0  0  0  0  0  0  0  0  0  0
   43.8517   36.5514   45.1289 H   0  0  0  0  0  0  0  0  0  0  0  0
   43.9543   35.2535   42.8636 H   0  0  0  0  0  0  0  0  0  0  0  0
   45.3552   36.4365   43.1086 H   0  0  0  0  0  0  0  0  0  0  0  0
   45.8124   34.1712   42.0908 H   0  0  0  0  0  0  0  0  0  0  0  0
   46.8576   34.8119   43.4033 H   0  0  0  0  0  0  0  0  0  0  0  0
   44.4605   32.9725   43.9210 H   0  0  0  0  0  0  0  0  0  0  0  0
   46.0992   32.3459   43.6839 H   0  0  0  0  0  0  0  0  0  0  0  0
   48.1062   30.2404   40.9395 H   0  0  0  0  0  0  0  0  0  0  0  0
   48.8300   30.0327   38.6627 H   0  0  0  0  0  0  0  0  0  0  0  0
   48.5395   28.4991   37.7738 H   0  0  0  0  0  0  0  0  0  0  0  0
   47.2884   29.7880   37.7738 H   0  0  0  0  0  0  0  0  0  0  0  0
   45.6747   26.0804   40.5765 H   0  0  0  0  0  0  0  0  0  0  0  0
  1  6  2  0
  2  1  1  0
  3  2  2  0
  3  4  1  0
  4  5  2  0
  5  6  1  0
  7  8  1  0
  7  2  1  0
  9  8  2  0
 10  9  1  0
 11 10  1  0
 11 12  1  0
 12  7  1  0
 13  3  1  0
 14 13  2  0
 15 14  1  0
 16 15  1  0
 16 17  2  0
 17 13  1  0
 18 16  1  0
 19 18  1  0
 20 19  2  0
 21 20  1  0
 22 20  1  0
 22 24  1  0
 23 22  2  0
 24 25  1  0
 25 18  1  0
 25 26  2  0
  1 27  1  0
  5 28  1  0
  7 29  1  6
  8 30  1  0
  9 31  1  0
 10 32  1  0
 10 33  1  0
 11 34  1  0
 11 35  1  0
 12 36  1  0
 12 37  1  0
 19 38  1  0
 21 39  1  0
 21 40  1  0
 21 41  1  0
 24 42  1  0
M  ISO  8  27  14  28  14  29  13  30  13  31  13  32  13  33  13  34  13
M  ISO  8  35  13  36  13  37  13  38  14  39   8  40   8  41   8  42   9
M  END
>  <minimizedAffinity>  (1) 
-4.2070961

>  <minimizedRMSD>  (1) 
0.103122257

$$$$
