
     RDKit          3D

 45 48  0  0  1  0  0  0  0  0999 V2000
   45.1770   32.8020   47.6020 C   0  0  0  0  0  0  0  0  0  0  0  0
   45.7370   32.5810   46.3540 C   0  0  0  0  0  0  0  0  0  0  0  0
   46.1680   31.2570   46.0350 C   0  0  0  0  0  0  0  0  0  0  0  0
   46.0210   30.2830   46.9440 N   0  0  0  0  0  0  0  0  0  0  0  0
   45.4660   30.5360   48.1630 C   0  0  0  0  0  0  0  0  0  0  0  0
   45.0450   31.7940   48.4870 N   0  0  0  0  0  0  0  0  0  0  0  0
   45.9100   33.7100   45.4410 C   0  0  2  0  0  0  0  0  0  0  0  0
   44.8970   34.8090   45.8330 C   0  0  0  0  0  0  0  0  0  0  0  0
   44.5050   35.7650   44.8560 C   0  0  0  0  0  0  0  0  0  0  0  0
   45.0790   35.7100   43.5100 C   0  0  0  0  0  0  0  0  0  0  0  0
   46.1140   34.6890   43.2710 C   0  0  0  0  0  0  0  0  0  0  0  0
   45.7440   33.4140   44.0170 C   0  0  0  0  0  0  0  0  0  0  0  0
   46.7510   30.7040   44.8510 C   0  0  0  0  0  0  0  0  0  0  0  0
   48.0630   30.6650   44.6840 N   0  0  0  0  0  0  0  0  0  0  0  0
   48.2900   30.1120   43.5200 O   0  0  0  0  0  0  0  0  0  0  0  0
   47.2200   29.7800   42.9020 C   0  0  0  0  0  0  0  0  0  0  0  0
   46.2230   30.1360   43.7040 N   0  0  0  0  0  0  0  0  0  0  0  0
   47.1940   29.1360   41.5610 C   0  0  0  0  0  0  0  0  0  0  0  0
   46.2800   29.9540   40.6880 C   0  0  0  0  0  0  0  0  0  0  0  0
   46.4020   29.5960   39.2270 C   0  0  0  0  0  0  0  0  0  0  0  0
   47.8240   29.9460   38.8370 C   0  0  0  0  0  0  0  0  0  0  0  0
   48.7250   28.9650   39.5560 C   0  0  0  0  0  0  0  0  0  0  0  0
   48.5790   29.0100   41.0350 C   0  0  0  0  0  0  0  0  0  0  0  0
   44.8362   33.8120   47.8737 H   0  0  0  0  0  0  0  0  0  0  0  0
   45.3563   29.7197   48.8921 H   0  0  0  0  0  0  0  0  0  0  0  0
   46.9591   34.0211   45.5530 H   0  0  0  0  0  0  0  0  0  0  0  0
   44.4854   34.8512   46.8522 H   0  0  0  0  0  0  0  0  0  0  0  0
   43.7719   36.5445   45.1109 H   0  0  0  0  0  0  0  0  0  0  0  0
   44.2562   35.5214   42.8047 H   0  0  0  0  0  0  0  0  0  0  0  0
   45.5896   36.6749   43.3749 H   0  0  0  0  0  0  0  0  0  0  0  0
   46.1805   34.4782   42.1934 H   0  0  0  0  0  0  0  0  0  0  0  0
   47.0859   35.0579   43.6307 H   0  0  0  0  0  0  0  0  0  0  0  0
   44.7009   33.1371   43.8044 H   0  0  0  0  0  0  0  0  0  0  0  0
   46.3780   32.5703   43.7068 H   0  0  0  0  0  0  0  0  0  0  0  0
   46.8003   28.1095   41.5982 H   0  0  0  0  0  0  0  0  0  0  0  0
   45.2413   29.7833   41.0074 H   0  0  0  0  0  0  0  0  0  0  0  0
   46.5691   31.0096   40.7984 H   0  0  0  0  0  0  0  0  0  0  0  0
   46.2168   28.5219   39.0784 H   0  0  0  0  0  0  0  0  0  0  0  0
   45.6674   30.1379   38.6132 H   0  0  0  0  0  0  0  0  0  0  0  0
   47.9529   29.8519   37.7486 H   0  0  0  0  0  0  0  0  0  0  0  0
   48.0668   30.9827   39.1133 H   0  0  0  0  0  0  0  0  0  0  0  0
   48.4810   27.9492   39.2115 H   0  0  0  0  0  0  0  0  0  0  0  0
   49.7632   29.2430   39.3217 H   0  0  0  0  0  0  0  0  0  0  0  0
   49.0079   28.0823   41.4416 H   0  0  0  0  0  0  0  0  0  0  0  0
   49.0952   29.9285   41.3509 H   0  0  0  0  0  0  0  0  0  0  0  0
  1  6  2  0
  2  1  1  0
  3  2  2  0
  3  4  1  0
  4  5  2  0
  5  6  1  0
  7  8  1  0
  7  2  1  0
  9  8  2  0
 10  9  1  0
 11 10  1  0
 11 12  1  0
 12  7  1  0
 13  3  1  0
 14 13  2  0
 15 14  1  0
 16 15  1  0
 16 17  2  0
 17 13  1  0
 18 16  1  0
 19 18  1  0
 20 19  1  0
 21 20  1  0
 21 22  1  0
 22 23  1  0
 23 18  1  0
  1 24  1  0
  5 25  1  0
  7 26  1  6
  8 27  1  0
  9 28  1  0
 10 29  1  0
 10 30  1  0
 11 31  1  0
 11 32  1  0
 12 33  1  0
 12 34  1  0
 18 35  1  0
 19 36  1  0
 19 37  1  0
 20 38  1  0
 20 39  1  0
 21 40  1  0
 21 41  1  0
 22 42  1  0
 22 43  1  0
 23 44  1  0
 23 45  1  0
M  ISO  8  24  14  25  14  26  13  27  13  28  13  29  13  30  13  31  13
M  ISO  8  32  13  33  13  34  13  35  13  36  13  37  13  38  13  39  13
M  ISO  6  40  13  41  13  42  13  43  13  44  13  45  13
M  END
>  <minimizedAffinity>  (1) 
-4.22614956

>  <minimizedRMSD>  (1) 
1.08473706

$$$$
