
     RDKit          3D

 32 34  0  0  1  0  0  0  0  0999 V2000
   45.1630   32.8150   47.6340 C   0  0  0  0  0  0  0  0  0  0  0  0
   45.7260   32.5500   46.3960 C   0  0  0  0  0  0  0  0  0  0  0  0
   46.1860   31.2260   46.1270 C   0  0  0  0  0  0  0  0  0  0  0  0
   46.0620   30.2850   47.0760 N   0  0  0  0  0  0  0  0  0  0  0  0
   45.5060   30.5740   48.2850 C   0  0  0  0  0  0  0  0  0  0  0  0
   45.0550   31.8420   48.5630 N   0  0  0  0  0  0  0  0  0  0  0  0
   45.8930   33.6410   45.4490 C   0  0  2  0  0  0  0  0  0  0  0  0
   44.9290   34.7770   45.8450 C   0  0  0  0  0  0  0  0  0  0  0  0
   44.5280   35.7410   44.8610 C   0  0  0  0  0  0  0  0  0  0  0  0
   45.0600   35.6180   43.4920 C   0  0  0  0  0  0  0  0  0  0  0  0
   46.0640   34.5750   43.2640 C   0  0  0  0  0  0  0  0  0  0  0  0
   45.6650   33.3220   44.0400 C   0  0  0  0  0  0  0  0  0  0  0  0
   46.7650   30.6370   44.9630 C   0  0  0  0  0  0  0  0  0  0  0  0
   48.0600   30.7190   44.7250 N   0  0  0  0  0  0  0  0  0  0  0  0
   48.3020   30.0930   43.6080 O   0  0  0  0  0  0  0  0  0  0  0  0
   47.2510   29.5960   43.0770 C   0  0  0  0  0  0  0  0  0  0  0  0
   46.2580   29.9130   43.8970 N   0  0  0  0  0  0  0  0  0  0  0  0
   47.2260   28.8290   41.7990 C   0  0  0  0  0  0  0  0  0  0  0  0
   46.9840   27.4760   42.0530 F   0  0  0  0  0  0  0  0  0  0  0  0
   46.2230   29.2700   40.9550 F   0  0  0  0  0  0  0  0  0  0  0  0
   48.4690   28.8920   41.1890 F   0  0  0  0  0  0  0  0  0  0  0  0
   44.8005   33.8283   47.8619 H   0  0  0  0  0  0  0  0  0  0  0  0
   45.4170   29.7850   49.0463 H   0  0  0  0  0  0  0  0  0  0  0  0
   46.9562   33.9156   45.5147 H   0  0  0  0  0  0  0  0  0  0  0  0
   44.5510   34.8480   46.8756 H   0  0  0  0  0  0  0  0  0  0  0  0
   43.8371   36.5558   45.1231 H   0  0  0  0  0  0  0  0  0  0  0  0
   44.2113   35.4149   42.8223 H   0  0  0  0  0  0  0  0  0  0  0  0
   45.5823   36.5669   43.3000 H   0  0  0  0  0  0  0  0  0  0  0  0
   46.1167   34.3424   42.1902 H   0  0  0  0  0  0  0  0  0  0  0  0
   47.0486   34.9261   43.6064 H   0  0  0  0  0  0  0  0  0  0  0  0
   44.6049   33.0848   43.8669 H   0  0  0  0  0  0  0  0  0  0  0  0
   46.2476   32.4446   43.7225 H   0  0  0  0  0  0  0  0  0  0  0  0
  1  6  2  0
  2  1  1  0
  3  2  2  0
  3  4  1  0
  4  5  2  0
  5  6  1  0
  7  8  1  0
  7  2  1  0
  9  8  2  0
 10  9  1  0
 11 10  1  0
 11 12  1  0
 12  7  1  0
 13  3  1  0
 14 13  2  0
 15 14  1  0
 16 15  1  0
 16 17  2  0
 17 13  1  0
 18 19  1  0
 18 16  1  0
 20 18  1  0
 21 18  1  0
  1 22  1  0
  5 23  1  0
  7 24  1  6
  8 25  1  0
  9 26  1  0
 10 27  1  0
 10 28  1  0
 11 29  1  0
 11 30  1  0
 12 31  1  0
 12 32  1  0
M  ISO  8  22  14  23  14  24  13  25  13  26  13  27  13  28  13  29  13
M  ISO  3  30  13  31  13  32  13
M  END
>  <minimizedAffinity>  (1) 
-4.08448505

>  <minimizedRMSD>  (1) 
0.106857553

$$$$
