
     RDKit          3D

 39 42  0  0  1  0  0  0  0  0999 V2000
   45.1750   32.8270   47.6480 C   0  0  0  0  0  0  0  0  0  0  0  0
   45.7240   32.5620   46.4020 C   0  0  0  0  0  0  0  0  0  0  0  0
   46.1550   31.2290   46.1280 C   0  0  0  0  0  0  0  0  0  0  0  0
   46.0200   30.2840   47.0700 N   0  0  0  0  0  0  0  0  0  0  0  0
   45.4760   30.5820   48.2840 C   0  0  0  0  0  0  0  0  0  0  0  0
   45.0570   31.8450   48.5710 N   0  0  0  0  0  0  0  0  0  0  0  0
   45.8910   33.6600   45.4520 C   0  0  2  0  0  0  0  0  0  0  0  0
   44.9210   34.7930   45.8460 C   0  0  0  0  0  0  0  0  0  0  0  0
   44.5220   35.7380   44.8530 C   0  0  0  0  0  0  0  0  0  0  0  0
   45.0540   35.6230   43.4930 C   0  0  0  0  0  0  0  0  0  0  0  0
   46.0470   34.5670   43.2480 C   0  0  0  0  0  0  0  0  0  0  0  0
   45.6710   33.3230   44.0430 C   0  0  0  0  0  0  0  0  0  0  0  0
   46.7270   30.6370   44.9560 C   0  0  0  0  0  0  0  0  0  0  0  0
   48.0290   30.7010   44.7240 N   0  0  0  0  0  0  0  0  0  0  0  0
   48.2520   30.0780   43.5950 O   0  0  0  0  0  0  0  0  0  0  0  0
   47.1910   29.6040   43.0600 C   0  0  0  0  0  0  0  0  0  0  0  0
   46.2040   29.9330   43.8850 N   0  0  0  0  0  0  0  0  0  0  0  0
   47.1270   28.8610   41.7990 C   0  0  0  0  0  0  0  0  0  0  0  0
   47.9570   27.7630   41.6480 C   0  0  0  0  0  0  0  0  0  0  0  0
   47.9360   27.0260   40.4740 C   0  0  0  0  0  0  0  0  0  0  0  0
   47.0580   27.4340   39.4770 C   0  0  0  0  0  0  0  0  0  0  0  0
   46.2450   28.5240   39.6480 C   0  0  0  0  0  0  0  0  0  0  0  0
   46.2670   29.2560   40.8150 C   0  0  0  0  0  0  0  0  0  0  0  0
   44.8326   33.8445   47.8877 H   0  0  0  0  0  0  0  0  0  0  0  0
   45.3743   29.7912   49.0418 H   0  0  0  0  0  0  0  0  0  0  0  0
   46.9493   33.9525   45.5185 H   0  0  0  0  0  0  0  0  0  0  0  0
   44.5427   34.8716   46.8759 H   0  0  0  0  0  0  0  0  0  0  0  0
   43.8205   36.5462   45.1072 H   0  0  0  0  0  0  0  0  0  0  0  0
   44.2038   35.4408   42.8192 H   0  0  0  0  0  0  0  0  0  0  0  0
   45.5931   36.5658   43.3183 H   0  0  0  0  0  0  0  0  0  0  0  0
   46.0674   34.3245   42.1753 H   0  0  0  0  0  0  0  0  0  0  0  0
   47.0408   34.9175   43.5633 H   0  0  0  0  0  0  0  0  0  0  0  0
   44.6153   33.0654   43.8723 H   0  0  0  0  0  0  0  0  0  0  0  0
   46.2730   32.4541   43.7386 H   0  0  0  0  0  0  0  0  0  0  0  0
   48.6363   27.4741   42.4635 H   0  0  0  0  0  0  0  0  0  0  0  0
   48.5893   26.1517   40.3369 H   0  0  0  0  0  0  0  0  0  0  0  0
   47.0148   26.8714   38.5327 H   0  0  0  0  0  0  0  0  0  0  0  0
   45.5620   28.8200   38.8382 H   0  0  0  0  0  0  0  0  0  0  0  0
   45.6130   30.1302   40.9495 H   0  0  0  0  0  0  0  0  0  0  0  0
  1  6  2  0
  2  1  1  0
  3  2  2  0
  3  4  1  0
  4  5  2  0
  5  6  1  0
  7  8  1  0
  7  2  1  0
  9  8  2  0
 10  9  1  0
 11 10  1  0
 11 12  1  0
 12  7  1  0
 13  3  1  0
 14 13  2  0
 15 14  1  0
 16 15  1  0
 16 17  2  0
 17 13  1  0
 18 16  1  0
 19 18  2  0
 20 19  1  0
 21 22  1  0
 21 20  2  0
 22 23  2  0
 23 18  1  0
  1 24  1  0
  5 25  1  0
  7 26  1  6
  8 27  1  0
  9 28  1  0
 10 29  1  0
 10 30  1  0
 11 31  1  0
 11 32  1  0
 12 33  1  0
 12 34  1  0
 19 35  1  0
 20 36  1  0
 21 37  1  0
 22 38  1  0
 23 39  1  0
M  ISO  8  24  14  25  14  26  13  27  13  28  13  29  13  30  13  31  13
M  ISO  8  32  13  33  13  34  13  35  14  36  14  37  14  38  14  39  14
M  END
>  <minimizedAffinity>  (1) 
-4.08399582

>  <minimizedRMSD>  (1) 
0.154001266

$$$$
