
     RDKit          3D

 41 43  0  0  1  0  0  0  0  0999 V2000
   45.1690   32.7910   47.6560 C   0  0  0  0  0  0  0  0  0  0  0  0
   45.7340   32.5080   46.4250 C   0  0  0  0  0  0  0  0  0  0  0  0
   46.2230   31.1880   46.1880 C   0  0  0  0  0  0  0  0  0  0  0  0
   46.1200   30.2720   47.1630 N   0  0  0  0  0  0  0  0  0  0  0  0
   45.5600   30.5800   48.3630 C   0  0  0  0  0  0  0  0  0  0  0  0
   45.0830   31.8400   48.6100 N   0  0  0  0  0  0  0  0  0  0  0  0
   45.8900   33.5880   45.4530 C   0  0  2  0  0  0  0  0  0  0  0  0
   44.9650   34.7450   45.8580 C   0  0  0  0  0  0  0  0  0  0  0  0
   44.5280   35.6790   44.8580 C   0  0  0  0  0  0  0  0  0  0  0  0
   44.9880   35.5010   43.4650 C   0  0  0  0  0  0  0  0  0  0  0  0
   45.9840   34.4560   43.2360 C   0  0  0  0  0  0  0  0  0  0  0  0
   45.6080   33.2230   44.0560 C   0  0  0  0  0  0  0  0  0  0  0  0
   46.8060   30.5840   45.0340 C   0  0  0  0  0  0  0  0  0  0  0  0
   48.1020   30.6660   44.8010 N   0  0  0  0  0  0  0  0  0  0  0  0
   48.3450   30.0210   43.6910 O   0  0  0  0  0  0  0  0  0  0  0  0
   47.2970   29.5120   43.1660 C   0  0  0  0  0  0  0  0  0  0  0  0
   46.3020   29.8410   43.9790 N   0  0  0  0  0  0  0  0  0  0  0  0
   47.1250   28.7110   41.9210 C   0  0  0  0  0  0  0  0  0  0  0  0
   48.3020   27.7530   41.7190 C   0  0  0  0  0  0  0  0  0  0  0  0
   45.8580   27.8900   41.9430 C   0  0  0  0  0  0  0  0  0  0  0  0
   47.1690   29.6500   40.7170 C   0  0  0  0  0  0  0  0  0  0  0  0
   44.7858   33.8019   47.8593 H   0  0  0  0  0  0  0  0  0  0  0  0
   45.4892   29.8088   49.1442 H   0  0  0  0  0  0  0  0  0  0  0  0
   46.9545   33.8642   45.4775 H   0  0  0  0  0  0  0  0  0  0  0  0
   44.6405   34.8573   46.9030 H   0  0  0  0  0  0  0  0  0  0  0  0
   43.8620   36.5129   45.1247 H   0  0  0  0  0  0  0  0  0  0  0  0
   44.1074   35.2640   42.8499 H   0  0  0  0  0  0  0  0  0  0  0  0
   45.4891   36.4439   43.2010 H   0  0  0  0  0  0  0  0  0  0  0  0
   46.0065   34.1956   42.1675 H   0  0  0  0  0  0  0  0  0  0  0  0
   46.9777   34.8163   43.5405 H   0  0  0  0  0  0  0  0  0  0  0  0
   44.5419   32.9846   43.9273 H   0  0  0  0  0  0  0  0  0  0  0  0
   46.1723   32.3326   43.7418 H   0  0  0  0  0  0  0  0  0  0  0  0
   48.6900   27.4372   42.6986 H   0  0  0  0  0  0  0  0  0  0  0  0
   47.9639   26.8702   41.1566 H   0  0  0  0  0  0  0  0  0  0  0  0
   49.0978   28.2633   41.1566 H   0  0  0  0  0  0  0  0  0  0  0  0
   45.5630   27.6988   42.9853 H   0  0  0  0  0  0  0  0  0  0  0  0
   45.0556   28.4403   41.4299 H   0  0  0  0  0  0  0  0  0  0  0  0
   46.0324   26.9328   41.4299 H   0  0  0  0  0  0  0  0  0  0  0  0
   47.2178   30.6920   41.0662 H   0  0  0  0  0  0  0  0  0  0  0  0
   48.0576   29.4251   40.1089 H   0  0  0  0  0  0  0  0  0  0  0  0
   46.2633   29.5092   40.1089 H   0  0  0  0  0  0  0  0  0  0  0  0
  1  6  2  0
  2  1  1  0
  3  2  2  0
  3  4  1  0
  4  5  2  0
  5  6  1  0
  7  8  1  0
  7  2  1  0
  9  8  2  0
 10  9  1  0
 11 10  1  0
 11 12  1  0
 12  7  1  0
 13  3  1  0
 14 13  2  0
 15 14  1  0
 16 15  1  0
 16 17  2  0
 17 13  1  0
 18 20  1  0
 18 16  1  0
 19 18  1  0
 21 18  1  0
  1 22  1  0
  5 23  1  0
  7 24  1  6
  8 25  1  0
  9 26  1  0
 10 27  1  0
 10 28  1  0
 11 29  1  0
 11 30  1  0
 12 31  1  0
 12 32  1  0
 19 33  1  0
 19 34  1  0
 19 35  1  0
 20 36  1  0
 20 37  1  0
 20 38  1  0
 21 39  1  0
 21 40  1  0
 21 41  1  0
M  ISO  8  22  14  23  14  24  13  25  13  26  13  27  13  28  13  29  13
M  ISO  8  30  13  31  13  32  13  33   8  34   8  35   8  36   8  37   8
M  ISO  4  38   8  39   8  40   8  41   8
M  END
>  <minimizedAffinity>  (1) 
-4.02317858

>  <minimizedRMSD>  (1) 
0.131005391

$$$$
