
     RDKit          3D

 39 42  0  0  1  0  0  0  0  0999 V2000
   45.1680   32.8190   47.6440 C   0  0  0  0  0  0  0  0  0  0  0  0
   45.7250   32.5520   46.4030 C   0  0  0  0  0  0  0  0  0  0  0  0
   46.1720   31.2230   46.1380 C   0  0  0  0  0  0  0  0  0  0  0  0
   46.0430   30.2860   47.0910 N   0  0  0  0  0  0  0  0  0  0  0  0
   45.4920   30.5860   48.3000 C   0  0  0  0  0  0  0  0  0  0  0  0
   45.0560   31.8470   48.5740 N   0  0  0  0  0  0  0  0  0  0  0  0
   45.8900   33.6430   45.4480 C   0  0  2  0  0  0  0  0  0  0  0  0
   44.9330   34.7840   45.8470 C   0  0  0  0  0  0  0  0  0  0  0  0
   44.5220   35.7330   44.8520 C   0  0  0  0  0  0  0  0  0  0  0  0
   45.0350   35.5960   43.4810 C   0  0  0  0  0  0  0  0  0  0  0  0
   46.0250   34.5420   43.2410 C   0  0  0  0  0  0  0  0  0  0  0  0
   45.6550   33.3010   44.0430 C   0  0  0  0  0  0  0  0  0  0  0  0
   46.7500   30.6260   44.9740 C   0  0  0  0  0  0  0  0  0  0  0  0
   48.0470   30.7170   44.7290 N   0  0  0  0  0  0  0  0  0  0  0  0
   48.2770   30.0810   43.6080 O   0  0  0  0  0  0  0  0  0  0  0  0
   47.2220   29.5750   43.0910 C   0  0  0  0  0  0  0  0  0  0  0  0
   46.2360   29.8940   43.9190 N   0  0  0  0  0  0  0  0  0  0  0  0
   47.2150   28.8200   41.8440 C   0  0  0  0  0  0  0  0  0  0  0  0
   48.3010   28.8370   41.0210 C   0  0  0  0  0  0  0  0  0  0  0  0
   48.3720   28.1510   39.8260 C   0  0  0  0  0  0  0  0  0  0  0  0
   47.2420   27.4280   39.5120 C   0  0  0  0  0  0  0  0  0  0  0  0
   46.0840   27.3450   40.2840 C   0  0  0  0  0  0  0  0  0  0  0  0
   46.1260   28.0760   41.4630 C   0  0  0  0  0  0  0  0  0  0  0  0
   44.8132   33.8346   47.8736 H   0  0  0  0  0  0  0  0  0  0  0  0
   45.3980   29.8005   49.0643 H   0  0  0  0  0  0  0  0  0  0  0  0
   46.9508   33.9289   45.5024 H   0  0  0  0  0  0  0  0  0  0  0  0
   44.5697   34.8696   46.8817 H   0  0  0  0  0  0  0  0  0  0  0  0
   43.8334   36.5507   45.1112 H   0  0  0  0  0  0  0  0  0  0  0  0
   44.1753   35.3991   42.8236 H   0  0  0  0  0  0  0  0  0  0  0  0
   45.5674   36.5376   43.2808 H   0  0  0  0  0  0  0  0  0  0  0  0
   46.0428   34.2936   42.1696 H   0  0  0  0  0  0  0  0  0  0  0  0
   47.0185   34.8961   43.5535 H   0  0  0  0  0  0  0  0  0  0  0  0
   44.5972   33.0445   43.8839 H   0  0  0  0  0  0  0  0  0  0  0  0
   46.2518   32.4298   43.7352 H   0  0  0  0  0  0  0  0  0  0  0  0
   49.1731   29.4332   41.3277 H   0  0  0  0  0  0  0  0  0  0  0  0
   49.2592   28.1791   39.1764 H   0  0  0  0  0  0  0  0  0  0  0  0
   47.2546   26.8654   38.5668 H   0  0  0  0  0  0  0  0  0  0  0  0
   45.2094   26.7494   39.9835 H   0  0  0  0  0  0  0  0  0  0  0  0
   45.2460   28.0584   42.1227 H   0  0  0  0  0  0  0  0  0  0  0  0
  1  6  2  0
  2  1  1  0
  3  2  2  0
  3  4  1  0
  4  5  2  0
  5  6  1  0
  7  8  1  0
  7  2  1  0
  9  8  2  0
 10  9  1  0
 11 10  1  0
 11 12  1  0
 12  7  1  0
 13  3  1  0
 14 13  2  0
 15 14  1  0
 16 15  1  0
 16 17  2  0
 17 13  1  0
 18 16  1  0
 19 18  2  0
 20 19  1  0
 21 20  2  0
 21 22  1  0
 22 23  2  0
 23 18  1  0
  1 24  1  0
  5 25  1  0
  7 26  1  6
  8 27  1  0
  9 28  1  0
 10 29  1  0
 10 30  1  0
 11 31  1  0
 11 32  1  0
 12 33  1  0
 12 34  1  0
 19 35  1  0
 20 36  1  0
 21 37  1  0
 22 38  1  0
 23 39  1  0
M  ISO  8  24  14  25  14  26  13  27  13  28  13  29  13  30  13  31  13
M  ISO  8  32  13  33  13  34  13  35  14  36  14  37  14  38  14  39  14
M  END
>  <minimizedAffinity>  (1) 
-4.07213593

>  <minimizedRMSD>  (1) 
0.110453933

$$$$
