
     RDKit          3D

 35 37  0  0  1  0  0  0  0  0999 V2000
   45.1780   32.8290   47.6440 C   0  0  0  0  0  0  0  0  0  0  0  0
   45.7260   32.5660   46.3980 C   0  0  0  0  0  0  0  0  0  0  0  0
   46.1610   31.2350   46.1200 C   0  0  0  0  0  0  0  0  0  0  0  0
   46.0260   30.2940   47.0660 N   0  0  0  0  0  0  0  0  0  0  0  0
   45.4830   30.5860   48.2830 C   0  0  0  0  0  0  0  0  0  0  0  0
   45.0630   31.8450   48.5670 N   0  0  0  0  0  0  0  0  0  0  0  0
   45.8810   33.6610   45.4470 C   0  0  2  0  0  0  0  0  0  0  0  0
   44.9000   34.7920   45.8490 C   0  0  0  0  0  0  0  0  0  0  0  0
   44.5260   35.7540   44.8700 C   0  0  0  0  0  0  0  0  0  0  0  0
   45.0840   35.6610   43.5210 C   0  0  0  0  0  0  0  0  0  0  0  0
   46.0310   34.5750   43.2470 C   0  0  0  0  0  0  0  0  0  0  0  0
   45.6370   33.3360   44.0410 C   0  0  0  0  0  0  0  0  0  0  0  0
   46.7360   30.6430   44.9530 C   0  0  0  0  0  0  0  0  0  0  0  0
   48.0400   30.7070   44.7270 N   0  0  0  0  0  0  0  0  0  0  0  0
   48.2720   30.0860   43.6000 O   0  0  0  0  0  0  0  0  0  0  0  0
   47.2120   29.6160   43.0600 C   0  0  0  0  0  0  0  0  0  0  0  0
   46.2170   29.9430   43.8790 N   0  0  0  0  0  0  0  0  0  0  0  0
   47.0990   28.8550   41.7800 C   0  0  0  0  0  0  0  0  0  0  0  0
   46.9720   29.8440   40.6310 C   0  0  0  0  0  0  0  0  0  0  0  0
   44.8337   33.8456   47.8848 H   0  0  0  0  0  0  0  0  0  0  0  0
   45.3847   29.7944   49.0405 H   0  0  0  0  0  0  0  0  0  0  0  0
   46.9419   33.9459   45.5048 H   0  0  0  0  0  0  0  0  0  0  0  0
   44.5005   34.8496   46.8723 H   0  0  0  0  0  0  0  0  0  0  0  0
   43.8233   36.5608   45.1252 H   0  0  0  0  0  0  0  0  0  0  0  0
   44.2408   35.5448   42.8242 H   0  0  0  0  0  0  0  0  0  0  0  0
   45.6748   36.5811   43.4011 H   0  0  0  0  0  0  0  0  0  0  0  0
   46.0168   34.3402   42.1724 H   0  0  0  0  0  0  0  0  0  0  0  0
   47.0422   34.8907   43.5434 H   0  0  0  0  0  0  0  0  0  0  0  0
   44.5739   33.1026   43.8820 H   0  0  0  0  0  0  0  0  0  0  0  0
   46.2158   32.4554   43.7256 H   0  0  0  0  0  0  0  0  0  0  0  0
   47.9971   28.2360   41.6374 H   0  0  0  0  0  0  0  0  0  0  0  0
   46.2144   28.2019   41.8104 H   0  0  0  0  0  0  0  0  0  0  0  0
   46.8416   30.8593   41.0338 H   0  0  0  0  0  0  0  0  0  0  0  0
   47.8821   29.8083   40.0142 H   0  0  0  0  0  0  0  0  0  0  0  0
   46.1004   29.5795   40.0142 H   0  0  0  0  0  0  0  0  0  0  0  0
  1  6  2  0
  2  1  1  0
  3  2  2  0
  3  4  1  0
  4  5  2  0
  5  6  1  0
  7  8  1  0
  7  2  1  0
  9  8  2  0
 10  9  1  0
 11 10  1  0
 11 12  1  0
 12  7  1  0
 13  3  1  0
 14 13  2  0
 15 14  1  0
 16 15  1  0
 16 17  2  0
 17 13  1  0
 18 16  1  0
 19 18  1  0
  1 20  1  0
  5 21  1  0
  7 22  1  6
  8 23  1  0
  9 24  1  0
 10 25  1  0
 10 26  1  0
 11 27  1  0
 11 28  1  0
 12 29  1  0
 12 30  1  0
 18 31  1  0
 18 32  1  0
 19 33  1  0
 19 34  1  0
 19 35  1  0
M  ISO  8  20  14  21  14  22  13  23  13  24  13  25  13  26  13  27  13
M  ISO  8  28  13  29  13  30  13  31   8  32   8  33   8  34   8  35   8
M  END
>  <minimizedAffinity>  (1) 
-4.09512281

>  <minimizedRMSD>  (1) 
0.117281355

$$$$
