
     RDKit          3D

 29 30  0  0  0  0  0  0  0  0999 V2000
   45.6140   35.0990   42.9050 C   0  0  0  0  0  0  0  0  0  0  0  0
   45.0930   34.5560   45.2640 C   0  0  0  0  0  0  0  0  0  0  0  0
   45.8810   34.2910   44.1140 C   0  0  0  0  0  0  0  0  0  0  0  0
   46.8410   33.2890   44.2240 C   0  0  0  0  0  0  0  0  0  0  0  0
   46.9800   32.6280   45.3850 N   0  0  0  0  0  0  0  0  0  0  0  0
   46.2110   32.9060   46.4640 C   0  0  0  0  0  0  0  0  0  0  0  0
   45.2660   33.8750   46.3970 N   0  0  0  0  0  0  0  0  0  0  0  0
   46.8290   35.1270   42.0250 C   0  0  0  0  0  0  0  0  0  0  0  0
   45.2280   36.4980   43.3140 C   0  0  0  0  0  0  0  0  0  0  0  0
   44.4150   34.5200   42.1770 C   0  0  0  0  0  0  0  0  0  0  0  0
   43.3270   35.3230   42.3360 O   0  0  0  0  0  0  0  0  0  0  0  0
   42.3510   35.3980   41.3200 C   0  0  0  0  0  0  0  0  0  0  0  0
   42.7980   35.0430   40.0370 C   0  0  0  0  0  0  0  0  0  0  0  0
   41.2700   35.2600   38.9970 S   0  0  0  0  0  0  0  0  0  0  0  0
   40.2910   35.8050   40.5370 C   0  0  0  0  0  0  0  0  0  0  0  0
   41.0950   35.7590   41.4590 N   0  0  0  0  0  0  0  0  0  0  0  0
   44.3229   35.3402   45.2197 H   0  0  0  0  0  0  0  0  0  0  0  0
   47.4819   33.0400   43.3653 H   0  0  0  0  0  0  0  0  0  0  0  0
   46.3538   32.3433   47.3984 H   0  0  0  0  0  0  0  0  0  0  0  0
   47.7340   35.1479   42.6500 H   0  0  0  0  0  0  0  0  0  0  0  0
   46.8426   34.2289   41.3900 H   0  0  0  0  0  0  0  0  0  0  0  0
   46.8012   36.0247   41.3900 H   0  0  0  0  0  0  0  0  0  0  0  0
   45.2090   36.5670   44.4117 H   0  0  0  0  0  0  0  0  0  0  0  0
   45.9625   37.2127   42.9144 H   0  0  0  0  0  0  0  0  0  0  0  0
   44.2309   36.7349   42.9144 H   0  0  0  0  0  0  0  0  0  0  0  0
   44.1914   33.5228   42.5839 H   0  0  0  0  0  0  0  0  0  0  0  0
   44.6504   34.4482   41.1049 H   0  0  0  0  0  0  0  0  0  0  0  0
   43.8013   34.7177   39.7246 H   0  0  0  0  0  0  0  0  0  0  0  0
   39.2319   36.0979   40.5872 H   0  0  0  0  0  0  0  0  0  0  0  0
  1  9  1  0
  1  3  1  0
  2  7  2  0
  3  4  2  0
  3  2  1  0
  4  5  1  0
  5  6  2  0
  7  6  1  0
  8  1  1  0
 10 11  1  0
 10  1  1  0
 12 16  1  0
 12 11  1  0
 13 12  2  0
 14 13  1  0
 14 15  1  0
 15 16  2  0
  2 17  1  0
  4 18  1  0
  6 19  1  0
  8 20  1  0
  8 21  1  0
  8 22  1  0
  9 23  1  0
  9 24  1  0
  9 25  1  0
 10 26  1  0
 10 27  1  0
 13 28  1  0
 15 29  1  0
M  ISO  8  17  14  18  14  19  14  20   8  21   8  22   8  23   8  24   8
M  ISO  5  25   8  26   8  27   8  28  14  29  14
M  END
>  <minimizedAffinity>  (1) 
-4.6328721

>  <minimizedRMSD>  (1) 
1.24579346

$$$$
