
     RDKit          3D

 30 31  0  0  0  0  0  0  0  0999 V2000
   45.6040   35.0980   42.9110 C   0  0  0  0  0  0  0  0  0  0  0  0
   45.0860   34.5570   45.2640 C   0  0  0  0  0  0  0  0  0  0  0  0
   45.8830   34.2830   44.1170 C   0  0  0  0  0  0  0  0  0  0  0  0
   46.8480   33.2830   44.2250 C   0  0  0  0  0  0  0  0  0  0  0  0
   46.9860   32.6280   45.3880 N   0  0  0  0  0  0  0  0  0  0  0  0
   46.2200   32.9000   46.4730 C   0  0  0  0  0  0  0  0  0  0  0  0
   45.2740   33.8650   46.4010 N   0  0  0  0  0  0  0  0  0  0  0  0
   46.8370   35.1430   42.0440 C   0  0  0  0  0  0  0  0  0  0  0  0
   45.2070   36.4880   43.3220 C   0  0  0  0  0  0  0  0  0  0  0  0
   44.4380   34.4890   42.1620 C   0  0  0  0  0  0  0  0  0  0  0  0
   43.3540   35.3100   42.2500 O   0  0  0  0  0  0  0  0  0  0  0  0
   41.5600   35.3200   39.1950 N   0  0  0  0  0  0  0  0  0  0  0  0
   42.6460   35.1670   39.9330 N   0  0  0  0  0  0  0  0  0  0  0  0
   42.4070   35.3940   41.2360 C   0  0  0  0  0  0  0  0  0  0  0  0
   41.0630   35.7170   41.3370 C   0  0  0  0  0  0  0  0  0  0  0  0
   40.5690   35.6610   40.0500 C   0  0  0  0  0  0  0  0  0  0  0  0
   44.3130   35.3383   45.2198 H   0  0  0  0  0  0  0  0  0  0  0  0
   47.4891   33.0336   43.3666 H   0  0  0  0  0  0  0  0  0  0  0  0
   46.3668   32.3388   47.4076 H   0  0  0  0  0  0  0  0  0  0  0  0
   47.7327   35.1757   42.6817 H   0  0  0  0  0  0  0  0  0  0  0  0
   46.8716   34.2455   41.4089 H   0  0  0  0  0  0  0  0  0  0  0  0
   46.8061   36.0406   41.4089 H   0  0  0  0  0  0  0  0  0  0  0  0
   45.1880   36.5544   44.4198 H   0  0  0  0  0  0  0  0  0  0  0  0
   45.9348   37.2101   42.9235 H   0  0  0  0  0  0  0  0  0  0  0  0
   44.2076   36.7168   42.9235 H   0  0  0  0  0  0  0  0  0  0  0  0
   44.1922   33.5111   42.6016 H   0  0  0  0  0  0  0  0  0  0  0  0
   44.7123   34.3613   41.1044 H   0  0  0  0  0  0  0  0  0  0  0  0
   41.4838   35.2031   38.1745 H   0  0  0  0  0  0  0  0  0  0  0  0
   40.5062   35.9661   42.2524 H   0  0  0  0  0  0  0  0  0  0  0  0
   39.5266   35.8631   39.7627 H   0  0  0  0  0  0  0  0  0  0  0  0
  1  9  1  0
  1  3  1  0
  2  7  2  0
  3  4  2  0
  3  2  1  0
  4  5  1  0
  5  6  2  0
  7  6  1  0
  8  1  1  0
 10 11  1  0
 10  1  1  0
 12 13  1  0
 12 16  1  0
 13 14  2  0
 14 15  1  0
 14 11  1  0
 16 15  2  0
  2 17  1  0
  4 18  1  0
  6 19  1  0
  8 20  1  0
  8 21  1  0
  8 22  1  0
  9 23  1  0
  9 24  1  0
  9 25  1  0
 10 26  1  0
 10 27  1  0
 12 28  1  0
 15 29  1  0
 16 30  1  0
M  ISO  8  17  14  18  14  19  14  20   8  21   8  22   8  23   8  24   8
M  ISO  6  25   8  26   8  27   8  28   9  29  14  30  14
M  END
>  <minimizedAffinity>  (1) 
-4.62685585

>  <minimizedRMSD>  (1) 
1.0570004

$$$$
