
     RDKit          3D

 31 33  0  0  1  0  0  0  0  0999 V2000
   45.1720   32.8080   47.6090 C   0  0  0  0  0  0  0  0  0  0  0  0
   45.7310   32.5180   46.3590 C   0  0  0  0  0  0  0  0  0  0  0  0
   46.1750   31.1840   46.1190 C   0  0  0  0  0  0  0  0  0  0  0  0
   46.0440   30.2620   47.0860 N   0  0  0  0  0  0  0  0  0  0  0  0
   45.4940   30.5860   48.2880 C   0  0  0  0  0  0  0  0  0  0  0  0
   45.0620   31.8550   48.5450 N   0  0  0  0  0  0  0  0  0  0  0  0
   45.8740   33.5920   45.3750 C   0  0  2  0  0  0  0  0  0  0  0  0
   44.9840   34.7680   45.8220 C   0  0  0  0  0  0  0  0  0  0  0  0
   44.5000   35.6990   44.8290 C   0  0  0  0  0  0  0  0  0  0  0  0
   44.8780   35.4910   43.4120 C   0  0  0  0  0  0  0  0  0  0  0  0
   45.8510   34.4440   43.1450 C   0  0  0  0  0  0  0  0  0  0  0  0
   45.5070   33.2310   43.9970 C   0  0  0  0  0  0  0  0  0  0  0  0
   46.7510   30.5720   44.9650 C   0  0  0  0  0  0  0  0  0  0  0  0
   48.0390   30.6970   44.6870 N   0  0  0  0  0  0  0  0  0  0  0  0
   48.2790   30.0380   43.5870 O   0  0  0  0  0  0  0  0  0  0  0  0
   47.2360   29.4750   43.1080 C   0  0  0  0  0  0  0  0  0  0  0  0
   46.2510   29.7830   43.9410 N   0  0  0  0  0  0  0  0  0  0  0  0
   47.1150   28.6560   41.8960 C   0  0  0  0  0  0  0  0  0  0  0  0
   46.5880   29.1270   40.8520 O   0  0  0  0  0  0  0  0  0  0  0  0
   44.8197   33.8274   47.8252 H   0  0  0  0  0  0  0  0  0  0  0  0
   45.3961   29.8131   49.0645 H   0  0  0  0  0  0  0  0  0  0  0  0
   46.9448   33.8422   45.3454 H   0  0  0  0  0  0  0  0  0  0  0  0
   44.7209   34.8967   46.8823 H   0  0  0  0  0  0  0  0  0  0  0  0
   43.8624   36.5469   45.1199 H   0  0  0  0  0  0  0  0  0  0  0  0
   43.9619   35.2453   42.8548 H   0  0  0  0  0  0  0  0  0  0  0  0
   45.3660   36.4267   43.1015 H   0  0  0  0  0  0  0  0  0  0  0  0
   45.8176   34.1701   42.0802 H   0  0  0  0  0  0  0  0  0  0  0  0
   46.8624   34.8002   43.3903 H   0  0  0  0  0  0  0  0  0  0  0  0
   44.4313   33.0102   43.9324 H   0  0  0  0  0  0  0  0  0  0  0  0
   46.0431   32.3325   43.6574 H   0  0  0  0  0  0  0  0  0  0  0  0
   47.4878   27.6211   41.8986 H   0  0  0  0  0  0  0  0  0  0  0  0
  1  6  2  0
  2  1  1  0
  3  2  2  0
  3  4  1  0
  4  5  2  0
  5  6  1  0
  7  8  1  0
  7  2  1  0
  9  8  2  0
 10  9  1  0
 11 10  1  0
 11 12  1  0
 12  7  1  0
 13  3  1  0
 14 13  2  0
 15 14  1  0
 16 15  1  0
 16 17  2  0
 17 13  1  0
 18 16  1  0
 19 18  2  0
  1 20  1  0
  5 21  1  0
  7 22  1  6
  8 23  1  0
  9 24  1  0
 10 25  1  0
 10 26  1  0
 11 27  1  0
 11 28  1  0
 12 29  1  0
 12 30  1  0
 18 31  1  0
M  ISO  8  20  14  21  14  22  13  23  13  24  13  25  13  26  13  27  13
M  ISO  4  28  13  29  13  30  13  31   6
M  END
>  <minimizedAffinity>  (1) 
-3.95764589

>  <minimizedRMSD>  (1) 
0.0858499855

$$$$
