
     RDKit          3D

 44 47  0  0  1  0  0  0  0  0999 V2000
   45.1690   32.6980   47.4920 C   0  0  0  0  0  0  0  0  0  0  0  0
   45.7900   32.5580   46.2360 C   0  0  0  0  0  0  0  0  0  0  0  0
   46.3260   31.2830   45.9170 C   0  0  0  0  0  0  0  0  0  0  0  0
   46.2360   30.2820   46.7880 N   0  0  0  0  0  0  0  0  0  0  0  0
   45.6260   30.4650   47.9960 C   0  0  0  0  0  0  0  0  0  0  0  0
   45.0990   31.6690   48.3370 N   0  0  0  0  0  0  0  0  0  0  0  0
   45.9500   33.7530   45.3960 C   0  0  2  0  0  0  0  0  0  0  0  0
   44.9790   34.8040   45.8140 C   0  0  0  0  0  0  0  0  0  0  0  0
   44.4660   35.7380   44.8230 C   0  0  0  0  0  0  0  0  0  0  0  0
   44.9370   35.6460   43.4200 C   0  0  0  0  0  0  0  0  0  0  0  0
   46.0850   34.7670   43.2240 C   0  0  0  0  0  0  0  0  0  0  0  0
   45.7650   33.4310   43.9290 C   0  0  0  0  0  0  0  0  0  0  0  0
   46.9590   30.8070   44.7260 C   0  0  0  0  0  0  0  0  0  0  0  0
   48.2400   30.5780   44.6450 N   0  0  0  0  0  0  0  0  0  0  0  0
   48.5160   30.1570   43.4410 O   0  0  0  0  0  0  0  0  0  0  0  0
   47.4930   30.0870   42.7010 C   0  0  0  0  0  0  0  0  0  0  0  0
   46.4860   30.4800   43.4480 N   0  0  0  0  0  0  0  0  0  0  0  0
   47.4190   29.6590   41.2950 C   0  0  0  0  0  0  0  0  0  0  0  0
   47.8700   28.5320   40.9420 O   0  0  0  0  0  0  0  0  0  0  0  0
   46.7690   30.7050   40.4270 C   0  0  0  0  0  0  0  0  0  0  0  0
   46.6690   30.2320   39.0000 C   0  0  0  0  0  0  0  0  0  0  0  0
   47.7470   31.0310   38.2700 C   0  0  0  0  0  0  0  0  0  0  0  0
   47.7870   32.3340   39.0320 C   0  0  0  0  0  0  0  0  0  0  0  0
   47.6680   31.9050   40.4600 C   0  0  0  0  0  0  0  0  0  0  0  0
   44.7365   33.6677   47.7794 H   0  0  0  0  0  0  0  0  0  0  0  0
   45.5606   29.6249   48.7030 H   0  0  0  0  0  0  0  0  0  0  0  0
   46.9758   34.1261   45.5324 H   0  0  0  0  0  0  0  0  0  0  0  0
   44.6531   34.8729   46.8624 H   0  0  0  0  0  0  0  0  0  0  0  0
   43.7342   36.5066   45.1125 H   0  0  0  0  0  0  0  0  0  0  0  0
   44.1074   35.2706   42.8029 H   0  0  0  0  0  0  0  0  0  0  0  0
   45.2636   36.6563   43.1326 H   0  0  0  0  0  0  0  0  0  0  0  0
   46.2493   34.5961   42.1499 H   0  0  0  0  0  0  0  0  0  0  0  0
   46.9974   35.2187   43.6405 H   0  0  0  0  0  0  0  0  0  0  0  0
   44.7316   33.1153   43.7230 H   0  0  0  0  0  0  0  0  0  0  0  0
   46.4037   32.6028   43.5881 H   0  0  0  0  0  0  0  0  0  0  0  0
   45.7553   30.9237   40.7938 H   0  0  0  0  0  0  0  0  0  0  0  0
   46.8683   29.1524   38.9310 H   0  0  0  0  0  0  0  0  0  0  0  0
   45.6668   30.3839   38.5727 H   0  0  0  0  0  0  0  0  0  0  0  0
   48.7184   30.5169   38.3166 H   0  0  0  0  0  0  0  0  0  0  0  0
   47.5340   31.1642   37.1991 H   0  0  0  0  0  0  0  0  0  0  0  0
   48.7357   32.8628   38.8577 H   0  0  0  0  0  0  0  0  0  0  0  0
   46.9954   33.0341   38.7268 H   0  0  0  0  0  0  0  0  0  0  0  0
   47.2231   32.7056   41.0691 H   0  0  0  0  0  0  0  0  0  0  0  0
   48.6467   31.6779   40.9078 H   0  0  0  0  0  0  0  0  0  0  0  0
  1  6  2  0
  2  1  1  0
  3  2  2  0
  3  4  1  0
  4  5  2  0
  5  6  1  0
  7  8  1  0
  7  2  1  0
  9  8  2  0
 10  9  1  0
 11 10  1  0
 11 12  1  0
 12  7  1  0
 13  3  1  0
 14 13  2  0
 15 14  1  0
 16 15  1  0
 16 17  2  0
 17 13  1  0
 18 16  1  0
 19 18  2  0
 20 24  1  0
 20 18  1  0
 21 20  1  0
 22 21  1  0
 22 23  1  0
 23 24  1  0
  1 25  1  0
  5 26  1  0
  7 27  1  6
  8 28  1  0
  9 29  1  0
 10 30  1  0
 10 31  1  0
 11 32  1  0
 11 33  1  0
 12 34  1  0
 12 35  1  0
 20 36  1  0
 21 37  1  0
 21 38  1  0
 22 39  1  0
 22 40  1  0
 23 41  1  0
 23 42  1  0
 24 43  1  0
 24 44  1  0
M  ISO  8  25  14  26  14  27  13  28  13  29  13  30  13  31  13  32  13
M  ISO  8  33  13  34  13  35  13  36  13  37  13  38  13  39  13  40  13
M  ISO  4  41  13  42  13  43  13  44  13
M  END
>  <minimizedAffinity>  (1) 
-4.14270782

>  <minimizedRMSD>  (1) 
2.51062274

$$$$
