
     RDKit          3D

 44 47  0  0  1  0  0  0  0  0999 V2000
   45.1670   32.8380   47.6300 C   0  0  0  0  0  0  0  0  0  0  0  0
   45.7170   32.5280   46.3710 C   0  0  0  0  0  0  0  0  0  0  0  0
   46.1910   31.2060   46.1770 C   0  0  0  0  0  0  0  0  0  0  0  0
   46.1080   30.3180   47.1630 N   0  0  0  0  0  0  0  0  0  0  0  0
   45.5680   30.6620   48.3690 C   0  0  0  0  0  0  0  0  0  0  0  0
   45.1010   31.9230   48.5910 N   0  0  0  0  0  0  0  0  0  0  0  0
   45.8790   33.6130   45.3910 C   0  0  2  0  0  0  0  0  0  0  0  0
   45.0390   34.7800   45.7790 C   0  0  0  0  0  0  0  0  0  0  0  0
   44.4910   35.6550   44.7550 C   0  0  0  0  0  0  0  0  0  0  0  0
   44.8000   35.3750   43.3280 C   0  0  0  0  0  0  0  0  0  0  0  0
   45.8570   34.3840   43.1220 C   0  0  0  0  0  0  0  0  0  0  0  0
   45.5010   33.1600   43.9960 C   0  0  0  0  0  0  0  0  0  0  0  0
   46.7370   30.5680   45.0200 C   0  0  0  0  0  0  0  0  0  0  0  0
   47.9920   30.6540   44.6830 N   0  0  0  0  0  0  0  0  0  0  0  0
   48.1840   29.9740   43.5870 O   0  0  0  0  0  0  0  0  0  0  0  0
   47.1250   29.4280   43.1580 C   0  0  0  0  0  0  0  0  0  0  0  0
   46.1860   29.7630   44.0120 N   0  0  0  0  0  0  0  0  0  0  0  0
   46.9590   28.5960   41.9600 C   0  0  0  0  0  0  0  0  0  0  0  0
   46.8670   29.1250   40.8150 O   0  0  0  0  0  0  0  0  0  0  0  0
   46.9380   27.2350   42.4200 N   0  0  0  0  0  0  0  0  0  0  0  0
   47.5550   26.5420   43.5570 C   0  0  0  0  0  0  0  0  0  0  0  0
   46.3920   26.1900   44.4790 C   0  0  0  0  0  0  0  0  0  0  0  0
   45.1720   26.2780   43.8470 O   0  0  0  0  0  0  0  0  0  0  0  0
   45.1370   25.6720   42.6010 C   0  0  0  0  0  0  0  0  0  0  0  0
   46.1500   26.2770   41.6340 C   0  0  0  0  0  0  0  0  0  0  0  0
   44.7866   33.8524   47.8204 H   0  0  0  0  0  0  0  0  0  0  0  0
   45.5091   29.9120   49.1715 H   0  0  0  0  0  0  0  0  0  0  0  0
   46.9399   33.9037   45.3844 H   0  0  0  0  0  0  0  0  0  0  0  0
   44.8330   34.9802   46.8408 H   0  0  0  0  0  0  0  0  0  0  0  0
   43.8577   36.5107   45.0319 H   0  0  0  0  0  0  0  0  0  0  0  0
   43.8838   35.0067   42.8433 H   0  0  0  0  0  0  0  0  0  0  0  0
   45.1647   36.3180   42.8946 H   0  0  0  0  0  0  0  0  0  0  0  0
   45.9008   34.0923   42.0623 H   0  0  0  0  0  0  0  0  0  0  0  0
   46.8398   34.7931   43.3989 H   0  0  0  0  0  0  0  0  0  0  0  0
   44.4274   32.9287   43.9332 H   0  0  0  0  0  0  0  0  0  0  0  0
   46.0187   32.2408   43.6845 H   0  0  0  0  0  0  0  0  0  0  0  0
   48.0721   25.6311   43.2209 H   0  0  0  0  0  0  0  0  0  0  0  0
   48.3100   27.1633   44.0609 H   0  0  0  0  0  0  0  0  0  0  0  0
   46.5282   25.1602   44.8410 H   0  0  0  0  0  0  0  0  0  0  0  0
   46.3918   26.9136   45.3075 H   0  0  0  0  0  0  0  0  0  0  0  0
   45.3592   24.6015   42.7220 H   0  0  0  0  0  0  0  0  0  0  0  0
   44.1335   25.8289   42.1787 H   0  0  0  0  0  0  0  0  0  0  0  0
   45.6325   26.7919   40.8112 H   0  0  0  0  0  0  0  0  0  0  0  0
   46.7891   25.5031   41.1839 H   0  0  0  0  0  0  0  0  0  0  0  0
  1  6  2  0
  2  1  1  0
  3  2  2  0
  3  4  1  0
  4  5  2  0
  5  6  1  0
  7  8  1  0
  7  2  1  0
  9  8  2  0
 10  9  1  0
 11 10  1  0
 11 12  1  0
 12  7  1  0
 13  3  1  0
 14 13  2  0
 15 14  1  0
 16 15  1  0
 16 17  2  0
 17 13  1  0
 18 20  1  0
 18 16  1  0
 19 18  2  0
 20 21  1  0
 21 22  1  0
 23 22  1  0
 24 23  1  0
 25 20  1  0
 25 24  1  0
  1 26  1  0
  5 27  1  0
  7 28  1  6
  8 29  1  0
  9 30  1  0
 10 31  1  0
 10 32  1  0
 11 33  1  0
 11 34  1  0
 12 35  1  0
 12 36  1  0
 21 37  1  0
 21 38  1  0
 22 39  1  0
 22 40  1  0
 24 41  1  0
 24 42  1  0
 25 43  1  0
 25 44  1  0
M  ISO  8  26  14  27  14  28  13  29  13  30  13  31  13  32  13  33  13
M  ISO  8  34  13  35  13  36  13  37  13  38  13  39  13  40  13  41  13
M  ISO  3  42  13  43  13  44  13
M  END
>  <minimizedAffinity>  (1) 
-4.00057507

>  <minimizedRMSD>  (1) 
0.687064707

$$$$
