
     RDKit          3D

 42 46  0  0  1  0  0  0  0  0999 V2000
   45.3730   32.7880   47.1430 C   0  0  0  0  0  0  0  0  0  0  0  0
   45.9070   32.7570   45.8390 C   0  0  0  0  0  0  0  0  0  0  0  0
   46.4280   31.5190   45.3830 C   0  0  0  0  0  0  0  0  0  0  0  0
   46.4020   30.4530   46.1790 N   0  0  0  0  0  0  0  0  0  0  0  0
   45.8780   30.5280   47.4310 C   0  0  0  0  0  0  0  0  0  0  0  0
   45.3650   31.7000   47.9060 N   0  0  0  0  0  0  0  0  0  0  0  0
   45.9950   34.0180   45.0870 C   0  0  2  0  0  0  0  0  0  0  0  0
   44.9390   34.9610   45.5580 C   0  0  0  0  0  0  0  0  0  0  0  0
   44.3780   35.9350   44.6350 C   0  0  0  0  0  0  0  0  0  0  0  0
   44.8880   35.9890   43.2460 C   0  0  0  0  0  0  0  0  0  0  0  0
   46.0900   35.1940   43.0030 C   0  0  0  0  0  0  0  0  0  0  0  0
   45.8350   33.7910   43.5990 C   0  0  0  0  0  0  0  0  0  0  0  0
   46.9810   31.1470   44.1200 C   0  0  0  0  0  0  0  0  0  0  0  0
   48.2610   31.0530   43.9040 N   0  0  0  0  0  0  0  0  0  0  0  0
   48.4550   30.7000   42.6640 O   0  0  0  0  0  0  0  0  0  0  0  0
   47.3740   30.5480   42.0210 C   0  0  0  0  0  0  0  0  0  0  0  0
   46.4160   30.8150   42.8810 N   0  0  0  0  0  0  0  0  0  0  0  0
   47.2040   30.1610   40.6160 C   0  0  0  0  0  0  0  0  0  0  0  0
   47.7370   29.1040   40.1710 O   0  0  0  0  0  0  0  0  0  0  0  0
   47.0050   33.9290   37.9860 N   0  0  0  0  0  0  0  0  0  0  0  0
   48.2170   33.7910   38.5670 C   0  0  0  0  0  0  0  0  0  0  0  0
   48.1710   32.6710   39.3070 N   0  0  0  0  0  0  0  0  0  0  0  0
   46.9600   32.1320   39.1840 C   0  0  0  0  0  0  0  0  0  0  0  0
   46.4150   31.0020   39.7290 C   0  0  0  0  0  0  0  0  0  0  0  0
   45.1500   30.6800   39.4370 N   0  0  0  0  0  0  0  0  0  0  0  0
   44.4390   31.4710   38.6150 C   0  0  0  0  0  0  0  0  0  0  0  0
   44.9390   32.5870   38.0630 N   0  0  0  0  0  0  0  0  0  0  0  0
   46.2040   32.9160   38.3490 C   0  0  0  0  0  0  0  0  0  0  0  0
   44.9564   33.7274   47.5353 H   0  0  0  0  0  0  0  0  0  0  0  0
   45.8673   29.6324   48.0696 H   0  0  0  0  0  0  0  0  0  0  0  0
   46.9923   34.4466   45.2652 H   0  0  0  0  0  0  0  0  0  0  0  0
   44.5862   34.9197   46.5991 H   0  0  0  0  0  0  0  0  0  0  0  0
   43.5851   36.6226   44.9645 H   0  0  0  0  0  0  0  0  0  0  0  0
   44.0954   35.6244   42.5760 H   0  0  0  0  0  0  0  0  0  0  0  0
   45.1666   37.0366   43.0590 H   0  0  0  0  0  0  0  0  0  0  0  0
   46.2788   35.1162   41.9221 H   0  0  0  0  0  0  0  0  0  0  0  0
   46.9700   35.6627   43.4676 H   0  0  0  0  0  0  0  0  0  0  0  0
   44.8209   33.4384   43.3598 H   0  0  0  0  0  0  0  0  0  0  0  0
   46.5144   33.0220   43.2026 H   0  0  0  0  0  0  0  0  0  0  0  0
   46.7357   34.6988   37.3569 H   0  0  0  0  0  0  0  0  0  0  0  0
   49.0775   34.4671   38.4553 H   0  0  0  0  0  0  0  0  0  0  0  0
   43.4006   31.1907   38.3845 H   0  0  0  0  0  0  0  0  0  0  0  0
  1  6  2  0
  2  1  1  0
  3  2  2  0
  3  4  1  0
  4  5  2  0
  5  6  1  0
  7  8  1  0
  7  2  1  0
  9  8  2  0
 10  9  1  0
 11 10  1  0
 11 12  1  0
 12  7  1  0
 13  3  1  0
 14 13  2  0
 15 14  1  0
 16 15  1  0
 16 17  2  0
 17 13  1  0
 18 16  1  0
 19 18  2  0
 20 28  1  0
 20 21  1  0
 21 22  2  0
 23 22  1  0
 23 24  2  0
 24 18  1  0
 25 24  1  0
 26 25  2  0
 27 28  2  0
 27 26  1  0
 28 23  1  0
  1 29  1  0
  5 30  1  0
  7 31  1  6
  8 32  1  0
  9 33  1  0
 10 34  1  0
 10 35  1  0
 11 36  1  0
 11 37  1  0
 12 38  1  0
 12 39  1  0
 20 40  1  0
 21 41  1  0
 26 42  1  0
M  ISO  8  29  14  30  14  31  13  32  13  33  13  34  13  35  13  36  13
M  ISO  6  37  13  38  13  39  13  40   9  41  14  42  14
M  END
>  <minimizedAffinity>  (1) 
-5.08491039

>  <minimizedRMSD>  (1) 
4.42295408

$$$$
