
     RDKit          3D

 28 29  0  0  0  0  0  0  0  0999 V2000
   45.6180   35.1070   42.9030 C   0  0  0  0  0  0  0  0  0  0  0  0
   45.0960   34.5540   45.2550 C   0  0  0  0  0  0  0  0  0  0  0  0
   45.8910   34.2860   44.1120 C   0  0  0  0  0  0  0  0  0  0  0  0
   46.8550   33.2800   44.2220 C   0  0  0  0  0  0  0  0  0  0  0  0
   46.9860   32.6210   45.3880 N   0  0  0  0  0  0  0  0  0  0  0  0
   46.2070   32.9050   46.4640 C   0  0  0  0  0  0  0  0  0  0  0  0
   45.2670   33.8680   46.3960 N   0  0  0  0  0  0  0  0  0  0  0  0
   46.8570   35.1440   42.0460 C   0  0  0  0  0  0  0  0  0  0  0  0
   45.2200   36.4950   43.3160 C   0  0  0  0  0  0  0  0  0  0  0  0
   44.4460   34.5090   42.1600 C   0  0  0  0  0  0  0  0  0  0  0  0
   43.3650   35.3350   42.2700 O   0  0  0  0  0  0  0  0  0  0  0  0
   42.3930   35.3990   41.2800 C   0  0  0  0  0  0  0  0  0  0  0  0
   42.4930   35.1600   39.9600 N   0  0  0  0  0  0  0  0  0  0  0  0
   41.3470   35.3340   39.3880 O   0  0  0  0  0  0  0  0  0  0  0  0
   40.4420   35.6930   40.2930 C   0  0  0  0  0  0  0  0  0  0  0  0
   41.1020   35.7300   41.4640 N   0  0  0  0  0  0  0  0  0  0  0  0
   44.3257   35.3377   45.2059 H   0  0  0  0  0  0  0  0  0  0  0  0
   47.4988   33.0299   43.3659 H   0  0  0  0  0  0  0  0  0  0  0  0
   46.3449   32.3435   47.3998 H   0  0  0  0  0  0  0  0  0  0  0  0
   47.7480   35.1706   42.6905 H   0  0  0  0  0  0  0  0  0  0  0  0
   46.8905   34.2465   41.4109 H   0  0  0  0  0  0  0  0  0  0  0  0
   46.8369   36.0419   41.4109 H   0  0  0  0  0  0  0  0  0  0  0  0
   45.2014   36.5597   44.4139 H   0  0  0  0  0  0  0  0  0  0  0  0
   45.9469   37.2185   42.9183 H   0  0  0  0  0  0  0  0  0  0  0  0
   44.2202   36.7234   42.9183 H   0  0  0  0  0  0  0  0  0  0  0  0
   44.2018   33.5269   42.5911 H   0  0  0  0  0  0  0  0  0  0  0  0
   44.7085   34.3900   41.0984 H   0  0  0  0  0  0  0  0  0  0  0  0
   39.3782   35.9132   40.1205 H   0  0  0  0  0  0  0  0  0  0  0  0
  1  9  1  0
  1  3  1  0
  2  7  2  0
  3  4  2  0
  3  2  1  0
  4  5  1  0
  5  6  2  0
  7  6  1  0
  8  1  1  0
 10 11  1  0
 10  1  1  0
 12 16  1  0
 12 11  1  0
 13 12  2  0
 14 13  1  0
 14 15  1  0
 15 16  2  0
  2 17  1  0
  4 18  1  0
  6 19  1  0
  8 20  1  0
  8 21  1  0
  8 22  1  0
  9 23  1  0
  9 24  1  0
  9 25  1  0
 10 26  1  0
 10 27  1  0
 15 28  1  0
M  ISO  8  17  14  18  14  19  14  20   8  21   8  22   8  23   8  24   8
M  ISO  4  25   8  26   8  27   8  28  14
M  END
>  <minimizedAffinity>  (1) 
-4.56620502

>  <minimizedRMSD>  (1) 
1.01125836

$$$$
