
     RDKit          3D

 36 39  0  0  1  0  0  0  0  0999 V2000
   45.1520   32.7860   47.6000 C   0  0  0  0  0  0  0  0  0  0  0  0
   45.7340   32.5020   46.3480 C   0  0  0  0  0  0  0  0  0  0  0  0
   46.2370   31.1890   46.1530 C   0  0  0  0  0  0  0  0  0  0  0  0
   46.1530   30.2890   47.1280 N   0  0  0  0  0  0  0  0  0  0  0  0
   45.5820   30.6100   48.3250 C   0  0  0  0  0  0  0  0  0  0  0  0
   45.0860   31.8560   48.5510 N   0  0  0  0  0  0  0  0  0  0  0  0
   45.8930   33.5970   45.3800 C   0  0  2  0  0  0  0  0  0  0  0  0
   45.0510   34.7600   45.7890 C   0  0  0  0  0  0  0  0  0  0  0  0
   44.5000   35.6360   44.7710 C   0  0  0  0  0  0  0  0  0  0  0  0
   44.8070   35.3870   43.3460 C   0  0  0  0  0  0  0  0  0  0  0  0
   45.8650   34.4000   43.1230 C   0  0  0  0  0  0  0  0  0  0  0  0
   45.5150   33.1640   43.9820 C   0  0  0  0  0  0  0  0  0  0  0  0
   46.8200   30.5730   45.0000 C   0  0  0  0  0  0  0  0  0  0  0  0
   48.0730   30.7080   44.6750 N   0  0  0  0  0  0  0  0  0  0  0  0
   48.3000   30.0350   43.5800 O   0  0  0  0  0  0  0  0  0  0  0  0
   47.2650   29.4490   43.1420 C   0  0  0  0  0  0  0  0  0  0  0  0
   46.3070   29.7480   43.9880 N   0  0  0  0  0  0  0  0  0  0  0  0
   47.1360   28.6100   41.9430 C   0  0  0  0  0  0  0  0  0  0  0  0
   48.1600   28.1270   41.3810 O   0  0  0  0  0  0  0  0  0  0  0  0
   45.8060   28.3390   41.4090 C   0  0  0  0  0  0  0  0  0  0  0  0
   45.0710   27.2420   41.6140 N   0  0  0  0  0  0  0  0  0  0  0  0
   43.9300   27.3660   40.9680 O   0  0  0  0  0  0  0  0  0  0  0  0
   43.9140   28.5250   40.3480 C   0  0  0  0  0  0  0  0  0  0  0  0
   45.0780   29.1210   40.6260 N   0  0  0  0  0  0  0  0  0  0  0  0
   44.7466   33.7899   47.7943 H   0  0  0  0  0  0  0  0  0  0  0  0
   45.5220   29.8503   49.1183 H   0  0  0  0  0  0  0  0  0  0  0  0
   46.9540   33.8872   45.3714 H   0  0  0  0  0  0  0  0  0  0  0  0
   44.8497   34.9516   46.8533 H   0  0  0  0  0  0  0  0  0  0  0  0
   43.8571   36.4811   45.0582 H   0  0  0  0  0  0  0  0  0  0  0  0
   43.8912   35.0281   42.8536 H   0  0  0  0  0  0  0  0  0  0  0  0
   45.1700   36.3385   42.9302 H   0  0  0  0  0  0  0  0  0  0  0  0
   45.9050   34.1223   42.0594 H   0  0  0  0  0  0  0  0  0  0  0  0
   46.8481   34.8072   43.4017 H   0  0  0  0  0  0  0  0  0  0  0  0
   44.4421   32.9301   43.9180 H   0  0  0  0  0  0  0  0  0  0  0  0
   46.0361   32.2513   43.6573 H   0  0  0  0  0  0  0  0  0  0  0  0
   43.1023   28.9258   39.7231 H   0  0  0  0  0  0  0  0  0  0  0  0
  1  6  2  0
  2  1  1  0
  3  2  2  0
  3  4  1  0
  4  5  2  0
  5  6  1  0
  7  8  1  0
  7  2  1  0
  9  8  2  0
 10  9  1  0
 11 10  1  0
 11 12  1  0
 12  7  1  0
 13  3  1  0
 14 13  2  0
 15 14  1  0
 16 15  1  0
 16 17  2  0
 17 13  1  0
 18 16  1  0
 19 18  2  0
 20 21  2  0
 20 18  1  0
 22 21  1  0
 23 24  2  0
 23 22  1  0
 24 20  1  0
  1 25  1  0
  5 26  1  0
  7 27  1  6
  8 28  1  0
  9 29  1  0
 10 30  1  0
 10 31  1  0
 11 32  1  0
 11 33  1  0
 12 34  1  0
 12 35  1  0
 23 36  1  0
M  ISO  8  25  14  26  14  27  13  28  13  29  13  30  13  31  13  32  13
M  ISO  4  33  13  34  13  35  13  36  14
M  END
>  <minimizedAffinity>  (1) 
-3.74213171

>  <minimizedRMSD>  (1) 
1.97792077

$$$$
