
     RDKit          3D

 39 42  0  0  1  0  0  0  0  0999 V2000
   45.1690   32.7960   47.6420 C   0  0  0  0  0  0  0  0  0  0  0  0
   45.7370   32.4900   46.3890 C   0  0  0  0  0  0  0  0  0  0  0  0
   46.2320   31.1710   46.2090 C   0  0  0  0  0  0  0  0  0  0  0  0
   46.1530   30.2850   47.1980 N   0  0  0  0  0  0  0  0  0  0  0  0
   45.5950   30.6290   48.3950 C   0  0  0  0  0  0  0  0  0  0  0  0
   45.1070   31.8830   48.6070 N   0  0  0  0  0  0  0  0  0  0  0  0
   45.8980   33.5720   45.4040 C   0  0  2  0  0  0  0  0  0  0  0  0
   45.0650   34.7420   45.7990 C   0  0  0  0  0  0  0  0  0  0  0  0
   44.5060   35.6050   44.7680 C   0  0  0  0  0  0  0  0  0  0  0  0
   44.8010   35.3250   43.3440 C   0  0  0  0  0  0  0  0  0  0  0  0
   45.8510   34.3330   43.1340 C   0  0  0  0  0  0  0  0  0  0  0  0
   45.5010   33.1100   44.0140 C   0  0  0  0  0  0  0  0  0  0  0  0
   46.8000   30.5360   45.0600 C   0  0  0  0  0  0  0  0  0  0  0  0
   48.0420   30.6930   44.7030 N   0  0  0  0  0  0  0  0  0  0  0  0
   48.2620   29.9950   43.6220 O   0  0  0  0  0  0  0  0  0  0  0  0
   47.2340   29.3720   43.2230 C   0  0  0  0  0  0  0  0  0  0  0  0
   46.2880   29.6690   44.0830 N   0  0  0  0  0  0  0  0  0  0  0  0
   47.1070   28.4980   42.0510 C   0  0  0  0  0  0  0  0  0  0  0  0
   47.9730   28.5310   41.1280 O   0  0  0  0  0  0  0  0  0  0  0  0
   45.9870   27.5730   41.9220 C   0  0  0  0  0  0  0  0  0  0  0  0
   46.0630   26.3550   42.5480 C   0  0  0  0  0  0  0  0  0  0  0  0
   44.9990   25.4790   42.4250 C   0  0  0  0  0  0  0  0  0  0  0  0
   43.9280   25.8530   41.6950 N   0  0  0  0  0  0  0  0  0  0  0  0
   43.8500   27.0480   41.0790 C   0  0  0  0  0  0  0  0  0  0  0  0
   44.9010   27.9100   41.2020 N   0  0  0  0  0  0  0  0  0  0  0  0
   44.7710   33.8051   47.8245 H   0  0  0  0  0  0  0  0  0  0  0  0
   45.5385   29.8823   49.2008 H   0  0  0  0  0  0  0  0  0  0  0  0
   46.9590   33.8617   45.3830 H   0  0  0  0  0  0  0  0  0  0  0  0
   44.8736   34.9525   46.8616 H   0  0  0  0  0  0  0  0  0  0  0  0
   43.8695   36.4584   45.0447 H   0  0  0  0  0  0  0  0  0  0  0  0
   43.8801   34.9589   42.8665 H   0  0  0  0  0  0  0  0  0  0  0  0
   45.1635   36.2664   42.9054 H   0  0  0  0  0  0  0  0  0  0  0  0
   45.8859   34.0385   42.0747 H   0  0  0  0  0  0  0  0  0  0  0  0
   46.8361   34.7413   43.4037 H   0  0  0  0  0  0  0  0  0  0  0  0
   44.4263   32.8807   43.9645 H   0  0  0  0  0  0  0  0  0  0  0  0
   46.0102   32.1870   43.6996 H   0  0  0  0  0  0  0  0  0  0  0  0
   46.9514   26.0803   43.1356 H   0  0  0  0  0  0  0  0  0  0  0  0
   45.0260   24.4942   42.9143 H   0  0  0  0  0  0  0  0  0  0  0  0
   42.9615   27.3225   40.4914 H   0  0  0  0  0  0  0  0  0  0  0  0
  1  6  2  0
  2  1  1  0
  3  2  2  0
  3  4  1  0
  4  5  2  0
  5  6  1  0
  7  8  1  0
  7  2  1  0
  9  8  2  0
 10  9  1  0
 11 10  1  0
 11 12  1  0
 12  7  1  0
 13  3  1  0
 14 13  2  0
 15 14  1  0
 16 15  1  0
 16 17  2  0
 17 13  1  0
 18 16  1  0
 19 18  2  0
 20 18  1  0
 20 21  2  0
 22 21  1  0
 23 22  2  0
 24 25  2  0
 24 23  1  0
 25 20  1  0
  1 26  1  0
  5 27  1  0
  7 28  1  6
  8 29  1  0
  9 30  1  0
 10 31  1  0
 10 32  1  0
 11 33  1  0
 11 34  1  0
 12 35  1  0
 12 36  1  0
 21 37  1  0
 22 38  1  0
 24 39  1  0
M  ISO  8  26  14  27  14  28  13  29  13  30  13  31  13  32  13  33  13
M  ISO  6  34  13  35  13  36  13  37  14  38  14  39  14
M  END
>  <minimizedAffinity>  (1) 
-3.73778677

>  <minimizedRMSD>  (1) 
1.7804929

$$$$
