
     RDKit          3D

 47 50  0  0  1  0  0  0  0  0999 V2000
   45.1670   32.7970   47.6340 C   0  0  0  0  0  0  0  0  0  0  0  0
   45.7400   32.4900   46.3820 C   0  0  0  0  0  0  0  0  0  0  0  0
   46.2350   31.1750   46.1980 C   0  0  0  0  0  0  0  0  0  0  0  0
   46.1490   30.2920   47.1900 N   0  0  0  0  0  0  0  0  0  0  0  0
   45.5900   30.6290   48.3820 C   0  0  0  0  0  0  0  0  0  0  0  0
   45.1000   31.8870   48.5960 N   0  0  0  0  0  0  0  0  0  0  0  0
   45.8980   33.5730   45.3990 C   0  0  2  0  0  0  0  0  0  0  0  0
   45.0600   34.7420   45.7940 C   0  0  0  0  0  0  0  0  0  0  0  0
   44.5100   35.6200   44.7720 C   0  0  0  0  0  0  0  0  0  0  0  0
   44.8160   35.3420   43.3470 C   0  0  0  0  0  0  0  0  0  0  0  0
   45.8620   34.3450   43.1320 C   0  0  0  0  0  0  0  0  0  0  0  0
   45.5060   33.1200   44.0070 C   0  0  0  0  0  0  0  0  0  0  0  0
   46.8080   30.5420   45.0540 C   0  0  0  0  0  0  0  0  0  0  0  0
   48.0540   30.6910   44.7100 N   0  0  0  0  0  0  0  0  0  0  0  0
   48.2760   29.9970   43.6300 O   0  0  0  0  0  0  0  0  0  0  0  0
   47.2500   29.3820   43.2190 C   0  0  0  0  0  0  0  0  0  0  0  0
   46.2960   29.6840   44.0700 N   0  0  0  0  0  0  0  0  0  0  0  0
   47.1220   28.5110   42.0420 C   0  0  0  0  0  0  0  0  0  0  0  0
   47.0320   29.0080   40.8840 O   0  0  0  0  0  0  0  0  0  0  0  0
   47.1050   27.0470   42.3100 C   0  0  0  0  0  0  0  0  0  0  0  0
   45.7030   26.5440   42.5740 C   0  0  0  0  0  0  0  0  0  0  0  0
   45.7210   25.3850   43.5680 C   0  0  0  0  0  0  0  0  0  0  0  0
   46.8870   24.4890   43.2530 C   0  0  0  0  0  0  0  0  0  0  0  0
   48.2230   25.1760   43.4010 C   0  0  0  0  0  0  0  0  0  0  0  0
   47.9740   26.6650   43.4670 C   0  0  0  0  0  0  0  0  0  0  0  0
   44.7697   33.8067   47.8149 H   0  0  0  0  0  0  0  0  0  0  0  0
   45.5311   29.8796   49.1851 H   0  0  0  0  0  0  0  0  0  0  0  0
   46.9596   33.8606   45.3824 H   0  0  0  0  0  0  0  0  0  0  0  0
   44.8579   34.9403   46.8569 H   0  0  0  0  0  0  0  0  0  0  0  0
   43.8778   36.4757   45.0514 H   0  0  0  0  0  0  0  0  0  0  0  0
   43.8959   34.9837   42.8622 H   0  0  0  0  0  0  0  0  0  0  0  0
   45.1909   36.2837   42.9196 H   0  0  0  0  0  0  0  0  0  0  0  0
   45.8951   34.0549   42.0715 H   0  0  0  0  0  0  0  0  0  0  0  0
   46.8493   34.7472   43.4029 H   0  0  0  0  0  0  0  0  0  0  0  0
   44.4309   32.8938   43.9525 H   0  0  0  0  0  0  0  0  0  0  0  0
   46.0151   32.1976   43.6908 H   0  0  0  0  0  0  0  0  0  0  0  0
   47.5025   26.5769   41.3984 H   0  0  0  0  0  0  0  0  0  0  0  0
   45.0975   27.3641   42.9872 H   0  0  0  0  0  0  0  0  0  0  0  0
   45.2714   26.1892   41.6264 H   0  0  0  0  0  0  0  0  0  0  0  0
   45.8230   25.7775   44.5905 H   0  0  0  0  0  0  0  0  0  0  0  0
   44.7830   24.8154   43.4922 H   0  0  0  0  0  0  0  0  0  0  0  0
   46.7876   24.1380   42.2153 H   0  0  0  0  0  0  0  0  0  0  0  0
   46.8651   23.6588   43.9744 H   0  0  0  0  0  0  0  0  0  0  0  0
   48.7169   24.8382   44.3241 H   0  0  0  0  0  0  0  0  0  0  0  0
   48.8753   24.9337   42.5490 H   0  0  0  0  0  0  0  0  0  0  0  0
   48.9304   27.2052   43.4083 H   0  0  0  0  0  0  0  0  0  0  0  0
   47.4800   26.9254   44.4147 H   0  0  0  0  0  0  0  0  0  0  0  0
  1  6  2  0
  2  1  1  0
  3  2  2  0
  3  4  1  0
  4  5  2  0
  5  6  1  0
  7  8  1  0
  7  2  1  0
  9  8  2  0
 10  9  1  0
 11 10  1  0
 11 12  1  0
 12  7  1  0
 13  3  1  0
 14 13  2  0
 15 14  1  0
 16 15  1  0
 16 17  2  0
 17 13  1  0
 18 20  1  0
 18 16  1  0
 19 18  2  0
 20 21  1  0
 20 25  1  0
 21 22  1  0
 23 24  1  0
 23 22  1  0
 24 25  1  0
  1 26  1  0
  5 27  1  0
  7 28  1  6
  8 29  1  0
  9 30  1  0
 10 31  1  0
 10 32  1  0
 11 33  1  0
 11 34  1  0
 12 35  1  0
 12 36  1  0
 20 37  1  0
 21 38  1  0
 21 39  1  0
 22 40  1  0
 22 41  1  0
 23 42  1  0
 23 43  1  0
 24 44  1  0
 24 45  1  0
 25 46  1  0
 25 47  1  0
M  ISO  8  26  14  27  14  28  13  29  13  30  13  31  13  32  13  33  13
M  ISO  8  34  13  35  13  36  13  37  13  38  13  39  13  40  13  41  13
M  ISO  6  42  13  43  13  44  13  45  13  46  13  47  13
M  END
>  <minimizedAffinity>  (1) 
-3.74840569

>  <minimizedRMSD>  (1) 
0.586442292

$$$$
