
     RDKit          3D

 38 40  0  0  1  0  0  0  0  0999 V2000
   45.1410   32.7990   47.6010 C   0  0  0  0  0  0  0  0  0  0  0  0
   45.7180   32.5130   46.3470 C   0  0  0  0  0  0  0  0  0  0  0  0
   46.2120   31.1980   46.1460 C   0  0  0  0  0  0  0  0  0  0  0  0
   46.1240   30.2940   47.1180 N   0  0  0  0  0  0  0  0  0  0  0  0
   45.5580   30.6170   48.3170 C   0  0  0  0  0  0  0  0  0  0  0  0
   45.0710   31.8670   48.5490 N   0  0  0  0  0  0  0  0  0  0  0  0
   45.8890   33.6150   45.3840 C   0  0  2  0  0  0  0  0  0  0  0  0
   45.0450   34.7730   45.7870 C   0  0  0  0  0  0  0  0  0  0  0  0
   44.4900   35.6520   44.7680 C   0  0  0  0  0  0  0  0  0  0  0  0
   44.8000   35.3920   43.3380 C   0  0  0  0  0  0  0  0  0  0  0  0
   45.8680   34.4140   43.1250 C   0  0  0  0  0  0  0  0  0  0  0  0
   45.5140   33.1740   43.9790 C   0  0  0  0  0  0  0  0  0  0  0  0
   46.7900   30.5850   44.9920 C   0  0  0  0  0  0  0  0  0  0  0  0
   48.0510   30.6960   44.6820 N   0  0  0  0  0  0  0  0  0  0  0  0
   48.2730   30.0320   43.5830 O   0  0  0  0  0  0  0  0  0  0  0  0
   47.2320   29.4730   43.1250 C   0  0  0  0  0  0  0  0  0  0  0  0
   46.2720   29.7830   43.9650 N   0  0  0  0  0  0  0  0  0  0  0  0
   47.1030   28.6530   41.9140 C   0  0  0  0  0  0  0  0  0  0  0  0
   46.5220   29.1080   40.8880 O   0  0  0  0  0  0  0  0  0  0  0  0
   47.6450   27.3390   41.9240 N   0  0  0  0  0  0  0  0  0  0  0  0
   48.0090   26.7150   43.1560 C   0  0  0  0  0  0  0  0  0  0  0  0
   47.8040   27.4390   44.2180 N   0  0  0  0  0  0  0  0  0  0  0  0
   48.5490   25.4110   43.1850 N   0  0  0  0  0  0  0  0  0  0  0  0
   48.0520   27.0310   45.1440 H   0  0  0  0  0  0  0  0  0  0  0  0
   44.7434   33.8054   47.7988 H   0  0  0  0  0  0  0  0  0  0  0  0
   45.4943   29.8556   49.1083 H   0  0  0  0  0  0  0  0  0  0  0  0
   46.9483   33.9114   45.3843 H   0  0  0  0  0  0  0  0  0  0  0  0
   44.8414   34.9638   46.8510 H   0  0  0  0  0  0  0  0  0  0  0  0
   43.8486   36.4989   45.0531 H   0  0  0  0  0  0  0  0  0  0  0  0
   43.8878   35.0190   42.8493 H   0  0  0  0  0  0  0  0  0  0  0  0
   45.1522   36.3432   42.9123 H   0  0  0  0  0  0  0  0  0  0  0  0
   45.9228   34.1384   42.0615 H   0  0  0  0  0  0  0  0  0  0  0  0
   46.8455   34.8271   43.4145 H   0  0  0  0  0  0  0  0  0  0  0  0
   44.4416   32.9387   43.9105 H   0  0  0  0  0  0  0  0  0  0  0  0
   46.0337   32.2599   43.6561 H   0  0  0  0  0  0  0  0  0  0  0  0
   47.7762   26.8332   41.0364 H   0  0  0  0  0  0  0  0  0  0  0  0
   48.8049   24.9794   44.0845 H   0  0  0  0  0  0  0  0  0  0  0  0
   48.6871   24.8911   42.3066 H   0  0  0  0  0  0  0  0  0  0  0  0
  1  6  2  0
  2  1  1  0
  3  2  2  0
  3  4  1  0
  4  5  2  0
  5  6  1  0
  7  8  1  0
  7  2  1  0
  9  8  2  0
 10  9  1  0
 11 10  1  0
 11 12  1  0
 12  7  1  0
 13  3  1  0
 14 13  2  0
 15 14  1  0
 16 15  1  0
 16 17  2  0
 17 13  1  0
 18 20  1  0
 18 16  1  0
 19 18  2  0
 20 21  1  0
 21 23  1  0
 21 22  2  0
 22 24  1  0
  1 25  1  0
  5 26  1  0
  7 27  1  6
  8 28  1  0
  9 29  1  0
 10 30  1  0
 10 31  1  0
 11 32  1  0
 11 33  1  0
 12 34  1  0
 12 35  1  0
 20 36  1  0
 23 37  1  0
 23 38  1  0
M  ISO  8  25  14  26  14  27  13  28  13  29  13  30  13  31  13  32  13
M  ISO  3  33  13  34  13  35  13
M  END
>  <minimizedAffinity>  (1) 
-3.90210676

>  <minimizedRMSD>  (1) 
0.0707650706

$$$$
