
     RDKit          3D

 38 41  0  0  1  0  0  0  0  0999 V2000
   45.1400   32.7920   47.6070 C   0  0  0  0  0  0  0  0  0  0  0  0
   45.7190   32.5100   46.3530 C   0  0  0  0  0  0  0  0  0  0  0  0
   46.2190   31.1950   46.1530 C   0  0  0  0  0  0  0  0  0  0  0  0
   46.1300   30.2970   47.1290 N   0  0  0  0  0  0  0  0  0  0  0  0
   45.5650   30.6130   48.3240 C   0  0  0  0  0  0  0  0  0  0  0  0
   45.0730   31.8650   48.5550 N   0  0  0  0  0  0  0  0  0  0  0  0
   45.8960   33.6080   45.3840 C   0  0  2  0  0  0  0  0  0  0  0  0
   45.0550   34.7740   45.7880 C   0  0  0  0  0  0  0  0  0  0  0  0
   44.4890   35.6370   44.7600 C   0  0  0  0  0  0  0  0  0  0  0  0
   44.7840   35.3640   43.3270 C   0  0  0  0  0  0  0  0  0  0  0  0
   45.8560   34.3900   43.1180 C   0  0  0  0  0  0  0  0  0  0  0  0
   45.5180   33.1570   43.9820 C   0  0  0  0  0  0  0  0  0  0  0  0
   46.7940   30.5790   45.0000 C   0  0  0  0  0  0  0  0  0  0  0  0
   48.0500   30.7040   44.6830 N   0  0  0  0  0  0  0  0  0  0  0  0
   48.2750   30.0380   43.5880 O   0  0  0  0  0  0  0  0  0  0  0  0
   47.2390   29.4630   43.1390 C   0  0  0  0  0  0  0  0  0  0  0  0
   46.2800   29.7640   43.9800 N   0  0  0  0  0  0  0  0  0  0  0  0
   47.1370   28.6360   41.9310 C   0  0  0  0  0  0  0  0  0  0  0  0
   46.7440   29.1420   40.8400 O   0  0  0  0  0  0  0  0  0  0  0  0
   48.0220   25.2720   42.8100 N   0  0  0  0  0  0  0  0  0  0  0  0
   47.7280   26.5420   43.1110 N   0  0  0  0  0  0  0  0  0  0  0  0
   47.4880   27.2160   41.9720 C   0  0  0  0  0  0  0  0  0  0  0  0
   47.6210   26.3870   40.8780 C   0  0  0  0  0  0  0  0  0  0  0  0
   47.9590   25.1750   41.4680 C   0  0  0  0  0  0  0  0  0  0  0  0
   44.7371   33.7966   47.8032 H   0  0  0  0  0  0  0  0  0  0  0  0
   45.5035   29.8506   49.1145 H   0  0  0  0  0  0  0  0  0  0  0  0
   46.9555   33.9038   45.3779 H   0  0  0  0  0  0  0  0  0  0  0  0
   44.8647   34.9792   46.8518 H   0  0  0  0  0  0  0  0  0  0  0  0
   43.8475   36.4852   45.0411 H   0  0  0  0  0  0  0  0  0  0  0  0
   43.8693   34.9797   42.8521 H   0  0  0  0  0  0  0  0  0  0  0  0
   45.1230   36.3122   42.8842 H   0  0  0  0  0  0  0  0  0  0  0  0
   45.9066   34.1055   42.0566 H   0  0  0  0  0  0  0  0  0  0  0  0
   46.8316   34.8125   43.4004 H   0  0  0  0  0  0  0  0  0  0  0  0
   44.4473   32.9126   43.9205 H   0  0  0  0  0  0  0  0  0  0  0  0
   46.0454   32.2461   43.6626 H   0  0  0  0  0  0  0  0  0  0  0  0
   48.2511   24.5179   43.4731 H   0  0  0  0  0  0  0  0  0  0  0  0
   47.4925   26.6243   39.8116 H   0  0  0  0  0  0  0  0  0  0  0  0
   48.1517   24.2486   40.9070 H   0  0  0  0  0  0  0  0  0  0  0  0
  1  6  2  0
  2  1  1  0
  3  2  2  0
  3  4  1  0
  4  5  2  0
  5  6  1  0
  7  8  1  0
  7  2  1  0
  9  8  2  0
 10  9  1  0
 11 10  1  0
 11 12  1  0
 12  7  1  0
 13  3  1  0
 14 13  2  0
 15 14  1  0
 16 15  1  0
 16 17  2  0
 17 13  1  0
 18 22  1  0
 18 16  1  0
 19 18  2  0
 20 21  1  0
 22 21  2  0
 23 24  2  0
 23 22  1  0
 24 20  1  0
  1 25  1  0
  5 26  1  0
  7 27  1  6
  8 28  1  0
  9 29  1  0
 10 30  1  0
 10 31  1  0
 11 32  1  0
 11 33  1  0
 12 34  1  0
 12 35  1  0
 20 36  1  0
 23 37  1  0
 24 38  1  0
M  ISO  8  25  14  26  14  27  13  28  13  29  13  30  13  31  13  32  13
M  ISO  6  33  13  34  13  35  13  36   9  37  14  38  14
M  END
>  <minimizedAffinity>  (1) 
-3.6763196

>  <minimizedRMSD>  (1) 
0.243481904

$$$$
