
     RDKit          3D

 38 41  0  0  1  0  0  0  0  0999 V2000
   45.1500   32.7950   47.6060 C   0  0  0  0  0  0  0  0  0  0  0  0
   45.7230   32.5120   46.3460 C   0  0  0  0  0  0  0  0  0  0  0  0
   46.2030   31.1920   46.1400 C   0  0  0  0  0  0  0  0  0  0  0  0
   46.1040   30.2890   47.1130 N   0  0  0  0  0  0  0  0  0  0  0  0
   45.5470   30.6060   48.3090 C   0  0  0  0  0  0  0  0  0  0  0  0
   45.0700   31.8670   48.5480 N   0  0  0  0  0  0  0  0  0  0  0  0
   45.8870   33.6110   45.3840 C   0  0  2  0  0  0  0  0  0  0  0  0
   45.0390   34.7720   45.7890 C   0  0  0  0  0  0  0  0  0  0  0  0
   44.4900   35.6530   44.7690 C   0  0  0  0  0  0  0  0  0  0  0  0
   44.8060   35.3970   43.3430 C   0  0  0  0  0  0  0  0  0  0  0  0
   45.8690   34.4140   43.1280 C   0  0  0  0  0  0  0  0  0  0  0  0
   45.5140   33.1760   43.9800 C   0  0  0  0  0  0  0  0  0  0  0  0
   46.7790   30.5800   44.9890 C   0  0  0  0  0  0  0  0  0  0  0  0
   48.0400   30.6970   44.6800 N   0  0  0  0  0  0  0  0  0  0  0  0
   48.2670   30.0360   43.5820 O   0  0  0  0  0  0  0  0  0  0  0  0
   47.2290   29.4730   43.1240 C   0  0  0  0  0  0  0  0  0  0  0  0
   46.2660   29.7760   43.9610 N   0  0  0  0  0  0  0  0  0  0  0  0
   47.0920   28.6460   41.9100 C   0  0  0  0  0  0  0  0  0  0  0  0
   46.7410   29.1590   40.8210 O   0  0  0  0  0  0  0  0  0  0  0  0
   47.3650   27.2350   41.9700 C   0  0  0  0  0  0  0  0  0  0  0  0
   47.4100   26.2970   41.0000 C   0  0  0  0  0  0  0  0  0  0  0  0
   47.6900   25.0130   41.3030 C   0  0  0  0  0  0  0  0  0  0  0  0
   47.9310   24.7180   42.6760 C   0  0  0  0  0  0  0  0  0  0  0  0
   47.7290   26.3690   43.4670 S   0  0  0  0  0  0  0  0  0  0  0  0
   44.7631   33.8046   47.8086 H   0  0  0  0  0  0  0  0  0  0  0  0
   45.4778   29.8407   49.0961 H   0  0  0  0  0  0  0  0  0  0  0  0
   46.9468   33.9057   45.3842 H   0  0  0  0  0  0  0  0  0  0  0  0
   44.8306   34.9601   46.8526 H   0  0  0  0  0  0  0  0  0  0  0  0
   43.8476   36.4996   45.0528 H   0  0  0  0  0  0  0  0  0  0  0  0
   43.8939   35.0317   42.8484 H   0  0  0  0  0  0  0  0  0  0  0  0
   45.1677   36.3481   42.9252 H   0  0  0  0  0  0  0  0  0  0  0  0
   45.9204   34.1390   42.0642 H   0  0  0  0  0  0  0  0  0  0  0  0
   46.8482   34.8233   43.4171 H   0  0  0  0  0  0  0  0  0  0  0  0
   44.4414   32.9422   43.9102 H   0  0  0  0  0  0  0  0  0  0  0  0
   46.0345   32.2627   43.6561 H   0  0  0  0  0  0  0  0  0  0  0  0
   47.2169   26.5820   39.9553 H   0  0  0  0  0  0  0  0  0  0  0  0
   47.7303   24.2325   40.5289 H   0  0  0  0  0  0  0  0  0  0  0  0
   48.1749   23.7526   43.1433 H   0  0  0  0  0  0  0  0  0  0  0  0
  1  6  2  0
  2  1  1  0
  3  2  2  0
  3  4  1  0
  4  5  2  0
  5  6  1  0
  7  8  1  0
  7  2  1  0
  9  8  2  0
 10  9  1  0
 11 10  1  0
 11 12  1  0
 12  7  1  0
 13  3  1  0
 14 13  2  0
 15 14  1  0
 16 15  1  0
 16 17  2  0
 17 13  1  0
 18 20  1  0
 18 16  1  0
 19 18  2  0
 20 24  1  0
 21 22  1  0
 21 20  2  0
 22 23  2  0
 23 24  1  0
  1 25  1  0
  5 26  1  0
  7 27  1  6
  8 28  1  0
  9 29  1  0
 10 30  1  0
 10 31  1  0
 11 32  1  0
 11 33  1  0
 12 34  1  0
 12 35  1  0
 21 36  1  0
 22 37  1  0
 23 38  1  0
M  ISO  8  25  14  26  14  27  13  28  13  29  13  30  13  31  13  32  13
M  ISO  6  33  13  34  13  35  13  36  14  37  14  38  14
M  END
>  <minimizedAffinity>  (1) 
-3.70827413

>  <minimizedRMSD>  (1) 
0.232225478

$$$$
