
     RDKit          3D

 35 35  0  0  0  0  0  0  0  0999 V2000
   45.6710   35.0410   42.8790 C   0  0  0  0  0  0  0  0  0  0  0  0
   45.0990   34.5480   45.2340 C   0  0  0  0  0  0  0  0  0  0  0  0
   45.9100   34.2600   44.1230 C   0  0  0  0  0  0  0  0  0  0  0  0
   46.8790   33.2630   44.2680 C   0  0  0  0  0  0  0  0  0  0  0  0
   46.9850   32.6360   45.4550 N   0  0  0  0  0  0  0  0  0  0  0  0
   46.1940   32.9300   46.5050 C   0  0  0  0  0  0  0  0  0  0  0  0
   45.2530   33.8870   46.3920 N   0  0  0  0  0  0  0  0  0  0  0  0
   46.9540   35.1440   42.0910 C   0  0  0  0  0  0  0  0  0  0  0  0
   45.1670   36.4090   43.2520 C   0  0  0  0  0  0  0  0  0  0  0  0
   44.5880   34.3750   42.0670 C   0  0  0  0  0  0  0  0  0  0  0  0
   43.5430   35.2340   41.8980 O   0  0  0  0  0  0  0  0  0  0  0  0
   42.5100   34.8660   41.1080 C   0  0  0  0  0  0  0  0  0  0  0  0
   42.6370   35.1150   39.6360 C   0  0  0  0  0  0  0  0  0  0  0  0
   41.2220   35.4490   41.6490 C   0  0  0  0  0  0  0  0  0  0  0  0
   42.3630   33.3450   41.2590 C   0  0  0  0  0  0  0  0  0  0  0  0
   44.3264   35.3268   45.1534 H   0  0  0  0  0  0  0  0  0  0  0  0
   47.5406   32.9964   43.4306 H   0  0  0  0  0  0  0  0  0  0  0  0
   46.3166   32.3885   47.4546 H   0  0  0  0  0  0  0  0  0  0  0  0
   47.8055   35.2124   42.7840 H   0  0  0  0  0  0  0  0  0  0  0  0
   47.0677   34.2521   41.4573 H   0  0  0  0  0  0  0  0  0  0  0  0
   46.9240   36.0426   41.4573 H   0  0  0  0  0  0  0  0  0  0  0  0
   45.1331   36.5011   44.3476 H   0  0  0  0  0  0  0  0  0  0  0  0
   45.8425   37.1734   42.8405 H   0  0  0  0  0  0  0  0  0  0  0  0
   44.1570   36.5524   42.8405 H   0  0  0  0  0  0  0  0  0  0  0  0
   44.9909   34.0921   41.0833 H   0  0  0  0  0  0  0  0  0  0  0  0
   44.2377   33.4767   42.5964 H   0  0  0  0  0  0  0  0  0  0  0  0
   43.1310   36.0836   39.4692 H   0  0  0  0  0  0  0  0  0  0  0  0
   43.2367   34.3140   39.1790 H   0  0  0  0  0  0  0  0  0  0  0  0
   41.6365   35.1302   39.1790 H   0  0  0  0  0  0  0  0  0  0  0  0
   41.2477   35.4374   42.7486 H   0  0  0  0  0  0  0  0  0  0  0  0
   41.1116   36.4849   41.2957 H   0  0  0  0  0  0  0  0  0  0  0  0
   40.3708   34.8484   41.2957 H   0  0  0  0  0  0  0  0  0  0  0  0
   42.3377   33.0833   42.3271 H   0  0  0  0  0  0  0  0  0  0  0  0
   41.4290   33.0174   40.7790 H   0  0  0  0  0  0  0  0  0  0  0  0
   43.2170   32.8446   40.7790 H   0  0  0  0  0  0  0  0  0  0  0  0
  1  9  1  0
  1  3  1  0
  2  7  2  0
  3  4  2  0
  3  2  1  0
  4  5  1  0
  5  6  2  0
  7  6  1  0
  8  1  1  0
 10  1  1  0
 11 10  1  0
 12 15  1  0
 12 14  1  0
 12 11  1  0
 13 12  1  0
  2 16  1  0
  4 17  1  0
  6 18  1  0
  8 19  1  0
  8 20  1  0
  8 21  1  0
  9 22  1  0
  9 23  1  0
  9 24  1  0
 10 25  1  0
 10 26  1  0
 13 27  1  0
 13 28  1  0
 13 29  1  0
 14 30  1  0
 14 31  1  0
 14 32  1  0
 15 33  1  0
 15 34  1  0
 15 35  1  0
M  ISO  8  16  14  17  14  18  14  19   8  20   8  21   8  22   8  23   8
M  ISO  8  24   8  25   8  26   8  27   8  28   8  29   8  30   8  31   8
M  ISO  4  32   8  33   8  34   8  35   8
M  END
>  <minimizedAffinity>  (1) 
-4.26981449

>  <minimizedRMSD>  (1) 
0.812929392

$$$$
