
     RDKit          3D

 26 26  0  0  0  0  0  0  0  0999 V2000
   45.6420   35.1170   42.9200 C   0  0  0  0  0  0  0  0  0  0  0  0
   45.0950   34.5520   45.2920 C   0  0  0  0  0  0  0  0  0  0  0  0
   45.8970   34.3020   44.1380 C   0  0  0  0  0  0  0  0  0  0  0  0
   46.8740   33.2950   44.2380 C   0  0  0  0  0  0  0  0  0  0  0  0
   46.9940   32.6290   45.4180 N   0  0  0  0  0  0  0  0  0  0  0  0
   46.2230   32.8920   46.4810 C   0  0  0  0  0  0  0  0  0  0  0  0
   45.2780   33.8540   46.4100 N   0  0  0  0  0  0  0  0  0  0  0  0
   46.8600   35.1440   42.0680 C   0  0  0  0  0  0  0  0  0  0  0  0
   45.2410   36.4950   43.3420 C   0  0  0  0  0  0  0  0  0  0  0  0
   44.4450   34.5240   42.1960 C   0  0  0  0  0  0  0  0  0  0  0  0
   43.3560   35.3450   42.3350 O   0  0  0  0  0  0  0  0  0  0  0  0
   42.4600   35.1680   41.2770 C   0  0  0  0  0  0  0  0  0  0  0  0
   43.1260   35.5180   40.1120 F   0  0  0  0  0  0  0  0  0  0  0  0
   41.3470   35.9640   41.4560 F   0  0  0  0  0  0  0  0  0  0  0  0
   42.0940   33.8420   41.2800 F   0  0  0  0  0  0  0  0  0  0  0  0
   44.3178   35.3296   45.2567 H   0  0  0  0  0  0  0  0  0  0  0  0
   47.5240   33.0524   43.3844 H   0  0  0  0  0  0  0  0  0  0  0  0
   46.3597   32.3238   47.4129 H   0  0  0  0  0  0  0  0  0  0  0  0
   47.7546   35.1638   42.7078 H   0  0  0  0  0  0  0  0  0  0  0  0
   46.8832   34.2461   41.4329 H   0  0  0  0  0  0  0  0  0  0  0  0
   46.8434   36.0420   41.4329 H   0  0  0  0  0  0  0  0  0  0  0  0
   45.2245   36.5518   44.4404 H   0  0  0  0  0  0  0  0  0  0  0  0
   45.9642   37.2242   42.9480 H   0  0  0  0  0  0  0  0  0  0  0  0
   44.2395   36.7223   42.9480 H   0  0  0  0  0  0  0  0  0  0  0  0
   44.2136   33.5372   42.6234 H   0  0  0  0  0  0  0  0  0  0  0  0
   44.6849   34.4222   41.1273 H   0  0  0  0  0  0  0  0  0  0  0  0
  1  9  1  0
  1  3  1  0
  2  7  2  0
  3  4  2  0
  3  2  1  0
  4  5  1  0
  5  6  2  0
  7  6  1  0
  8  1  1  0
 10 11  1  0
 10  1  1  0
 12 15  1  0
 12 14  1  0
 12 11  1  0
 13 12  1  0
  2 16  1  0
  4 17  1  0
  6 18  1  0
  8 19  1  0
  8 20  1  0
  8 21  1  0
  9 22  1  0
  9 23  1  0
  9 24  1  0
 10 25  1  0
 10 26  1  0
M  ISO  8  16  14  17  14  18  14  19   8  20   8  21   8  22   8  23   8
M  ISO  3  24   8  25   8  26   8
M  END
>  <minimizedAffinity>  (1) 
-4.25227499

>  <minimizedRMSD>  (1) 
0.682394207

$$$$
