
     RDKit          3D

 45 49  0  0  1  0  0  0  0  0999 V2000
   45.6030   32.6680   47.0960 C   0  0  0  0  0  0  0  0  0  0  0  0
   46.6270   31.7530   46.7100 C   0  0  0  0  0  0  0  0  0  0  0  0
   47.0600   30.8310   47.7040 C   0  0  0  0  0  0  0  0  0  0  0  0
   46.5300   30.8450   48.9110 N   0  0  0  0  0  0  0  0  0  0  0  0
   45.5560   31.7390   49.2350 C   0  0  0  0  0  0  0  0  0  0  0  0
   45.0980   32.6510   48.3160 N   0  0  0  0  0  0  0  0  0  0  0  0
   47.2530   31.9330   45.3890 C   0  0  2  0  0  0  0  0  0  0  0  0
   46.9970   33.2500   44.8450 C   0  0  0  0  0  0  0  0  0  0  0  0
   46.8090   33.4310   43.4000 C   0  0  0  0  0  0  0  0  0  0  0  0
   46.8960   32.2450   42.4870 C   0  0  0  0  0  0  0  0  0  0  0  0
   47.5330   31.1130   43.1410 C   0  0  0  0  0  0  0  0  0  0  0  0
   46.6860   30.8310   44.4330 C   0  0  0  0  0  0  0  0  0  0  0  0
   47.9970   29.7600   47.6140 C   0  0  0  0  0  0  0  0  0  0  0  0
   49.2220   29.8430   47.9800 N   0  0  0  0  0  0  0  0  0  0  0  0
   49.8120   28.7020   47.7620 O   0  0  0  0  0  0  0  0  0  0  0  0
   49.0210   27.8260   47.2520 C   0  0  0  0  0  0  0  0  0  0  0  0
   47.8790   28.4250   47.1380 N   0  0  0  0  0  0  0  0  0  0  0  0
   49.3790   26.4590   46.8920 C   0  0  0  0  0  0  0  0  0  0  0  0
   50.4430   26.2230   46.2180 O   0  0  0  0  0  0  0  0  0  0  0  0
   48.5060   25.3110   47.3180 C   0  0  1  0  0  0  0  0  0  0  0  0
   49.1520   24.0850   47.7590 C   0  0  0  0  0  0  0  0  0  0  0  0
   48.6800   25.0440   48.8280 C   0  0  2  0  0  0  0  0  0  0  0  0
   47.4360   24.6430   49.5160 C   0  0  0  0  0  0  0  0  0  0  0  0
   47.1140   23.5180   50.2680 C   0  0  0  0  0  0  0  0  0  0  0  0
   45.8370   23.6030   50.6940 N   0  0  0  0  0  0  0  0  0  0  0  0
   45.3300   24.7710   50.2250 C   0  0  0  0  0  0  0  0  0  0  0  0
   46.2960   25.3900   49.5180 N   0  0  0  0  0  0  0  0  0  0  0  0
   45.2279   33.3998   46.3654 H   0  0  0  0  0  0  0  0  0  0  0  0
   45.1291   31.7308   50.2487 H   0  0  0  0  0  0  0  0  0  0  0  0
   48.3442   31.8386   45.4905 H   0  0  0  0  0  0  0  0  0  0  0  0
   46.9431   34.1190   45.5172 H   0  0  0  0  0  0  0  0  0  0  0  0
   46.6055   34.4311   42.9897 H   0  0  0  0  0  0  0  0  0  0  0  0
   47.4827   32.5206   41.5983 H   0  0  0  0  0  0  0  0  0  0  0  0
   45.8740   31.9505   42.2064 H   0  0  0  0  0  0  0  0  0  0  0  0
   47.5254   30.2345   42.4790 H   0  0  0  0  0  0  0  0  0  0  0  0
   48.5841   31.3263   43.3853 H   0  0  0  0  0  0  0  0  0  0  0  0
   45.6096   30.9656   44.2508 H   0  0  0  0  0  0  0  0  0  0  0  0
   46.7646   29.8038   44.8186 H   0  0  0  0  0  0  0  0  0  0  0  0
   47.6906   25.4921   46.6023 H   0  0  0  0  0  0  0  0  0  0  0  0
   48.6360   23.1224   47.6276 H   0  0  0  0  0  0  0  0  0  0  0  0
   50.1184   23.6100   47.5347 H   0  0  0  0  0  0  0  0  0  0  0  0
   49.1328   25.5603   49.6873 H   0  0  0  0  0  0  0  0  0  0  0  0
   47.7982   22.6840   50.4831 H   0  0  0  0  0  0  0  0  0  0  0  0
   44.3098   25.1466   50.3925 H   0  0  0  0  0  0  0  0  0  0  0  0
   46.1881   26.2991   49.0459 H   0  0  0  0  0  0  0  0  0  0  0  0
  1  6  2  0
  2  1  1  0
  2  3  2  0
  3  4  1  0
  4  5  2  0
  6  5  1  0
  7  2  1  0
  8  7  1  0
  9  8  2  0
 10 11  1  0
 10  9  1  0
 11 12  1  0
 12  7  1  0
 13  3  1  0
 13 14  2  0
 15 14  1  0
 16 15  1  0
 17 16  2  0
 17 13  1  0
 18 16  1  0
 18 20  1  0
 19 18  2  0
 20 21  1  0
 20 22  1  0
 21 22  1  0
 22 23  1  0
 23 27  1  0
 23 24  2  0
 24 25  1  0
 26 25  2  0
 27 26  1  0
  1 28  1  0
  5 29  1  0
  7 30  1  1
  8 31  1  0
  9 32  1  0
 10 33  1  0
 10 34  1  0
 11 35  1  0
 11 36  1  0
 12 37  1  0
 12 38  1  0
 20 39  1  1
 21 40  1  0
 21 41  1  0
 22 42  1  1
 24 43  1  0
 26 44  1  0
 27 45  1  0
M  ISO  8  28  14  29  14  30  13  31  13  32  13  33  13  34  13  35  13
M  ISO  8  36  13  37  13  38  13  39  13  40  13  41  13  42  13  43  14
M  ISO  2  44  14  45   9
M  END
>  <minimizedAffinity>  (1) 
-4.50022745

>  <minimizedRMSD>  (1) 
4.70370483

$$$$
