
     RDKit          3D

 45 49  0  0  1  0  0  0  0  0999 V2000
   45.5820   32.6110   47.0970 C   0  0  0  0  0  0  0  0  0  0  0  0
   46.6140   31.6930   46.7350 C   0  0  0  0  0  0  0  0  0  0  0  0
   47.0340   30.7840   47.7450 C   0  0  0  0  0  0  0  0  0  0  0  0
   46.4860   30.8130   48.9420 N   0  0  0  0  0  0  0  0  0  0  0  0
   45.5050   31.7070   49.2440 C   0  0  0  0  0  0  0  0  0  0  0  0
   45.0600   32.6050   48.3050 N   0  0  0  0  0  0  0  0  0  0  0  0
   47.2640   31.8600   45.4180 C   0  0  2  0  0  0  0  0  0  0  0  0
   47.0300   33.1930   44.8850 C   0  0  0  0  0  0  0  0  0  0  0  0
   46.8690   33.4000   43.4430 C   0  0  0  0  0  0  0  0  0  0  0  0
   46.9670   32.2290   42.5220 C   0  0  0  0  0  0  0  0  0  0  0  0
   47.5270   31.0570   43.1660 C   0  0  0  0  0  0  0  0  0  0  0  0
   46.6450   30.8000   44.4430 C   0  0  0  0  0  0  0  0  0  0  0  0
   47.9740   29.7150   47.6810 C   0  0  0  0  0  0  0  0  0  0  0  0
   49.2160   29.8320   47.9780 N   0  0  0  0  0  0  0  0  0  0  0  0
   49.8040   28.6830   47.8110 O   0  0  0  0  0  0  0  0  0  0  0  0
   48.9970   27.7680   47.4030 C   0  0  0  0  0  0  0  0  0  0  0  0
   47.8460   28.3510   47.3050 N   0  0  0  0  0  0  0  0  0  0  0  0
   49.3480   26.3800   47.1220 C   0  0  0  0  0  0  0  0  0  0  0  0
   50.5000   26.0860   46.6410 O   0  0  0  0  0  0  0  0  0  0  0  0
   48.3680   25.2790   47.4000 C   0  0  1  0  0  0  0  0  0  0  0  0
   48.8700   23.9250   47.5550 C   0  0  0  0  0  0  0  0  0  0  0  0
   48.5960   24.7100   48.8180 C   0  0  2  0  0  0  0  0  0  0  0  0
   47.3810   24.4040   49.5990 C   0  0  0  0  0  0  0  0  0  0  0  0
   47.2700   23.2990   50.4150 C   0  0  0  0  0  0  0  0  0  0  0  0
   46.0000   23.3620   50.9650 C   0  0  0  0  0  0  0  0  0  0  0  0
   45.4160   24.5070   50.4500 C   0  0  0  0  0  0  0  0  0  0  0  0
   46.2670   25.0940   49.6450 O   0  0  0  0  0  0  0  0  0  0  0  0
   45.2172   33.3353   46.3538 H   0  0  0  0  0  0  0  0  0  0  0  0
   45.0636   31.7102   50.2516 H   0  0  0  0  0  0  0  0  0  0  0  0
   48.3500   31.7212   45.5243 H   0  0  0  0  0  0  0  0  0  0  0  0
   46.9734   34.0523   45.5694 H   0  0  0  0  0  0  0  0  0  0  0  0
   46.6781   34.4070   43.0437 H   0  0  0  0  0  0  0  0  0  0  0  0
   47.6078   32.5031   41.6710 H   0  0  0  0  0  0  0  0  0  0  0  0
   45.9472   31.9748   42.1975 H   0  0  0  0  0  0  0  0  0  0  0  0
   47.4814   30.1908   42.4895 H   0  0  0  0  0  0  0  0  0  0  0  0
   48.5838   31.2093   43.4306 H   0  0  0  0  0  0  0  0  0  0  0  0
   45.5799   30.9957   44.2498 H   0  0  0  0  0  0  0  0  0  0  0  0
   46.6579   29.7648   44.8148 H   0  0  0  0  0  0  0  0  0  0  0  0
   47.5435   25.6864   46.7965 H   0  0  0  0  0  0  0  0  0  0  0  0
   48.2235   23.0740   47.2946 H   0  0  0  0  0  0  0  0  0  0  0  0
   49.7494   23.3902   47.1669 H   0  0  0  0  0  0  0  0  0  0  0  0
   49.1749   24.9726   49.7158 H   0  0  0  0  0  0  0  0  0  0  0  0
   48.0325   22.5264   50.5929 H   0  0  0  0  0  0  0  0  0  0  0  0
   45.5474   22.6474   51.6682 H   0  0  0  0  0  0  0  0  0  0  0  0
   44.4018   24.8657   50.6795 H   0  0  0  0  0  0  0  0  0  0  0  0
  1  6  2  0
  2  1  1  0
  2  3  2  0
  3  4  1  0
  4  5  2  0
  6  5  1  0
  7  2  1  0
  8  7  1  0
  9  8  2  0
 10 11  1  0
 10  9  1  0
 11 12  1  0
 12  7  1  0
 13  3  1  0
 13 14  2  0
 15 14  1  0
 16 15  1  0
 17 16  2  0
 17 13  1  0
 18 20  1  0
 18 16  1  0
 19 18  2  0
 20 21  1  0
 20 22  1  0
 21 22  1  0
 22 23  1  0
 23 27  1  0
 23 24  2  0
 24 25  1  0
 26 25  2  0
 27 26  1  0
  1 28  1  0
  5 29  1  0
  7 30  1  1
  8 31  1  0
  9 32  1  0
 10 33  1  0
 10 34  1  0
 11 35  1  0
 11 36  1  0
 12 37  1  0
 12 38  1  0
 20 39  1  1
 21 40  1  0
 21 41  1  0
 22 42  1  1
 24 43  1  0
 25 44  1  0
 26 45  1  0
M  ISO  8  28  14  29  14  30  13  31  13  32  13  33  13  34  13  35  13
M  ISO  8  36  13  37  13  38  13  39  13  40  13  41  13  42  13  43  14
M  ISO  2  44  14  45  14
M  END
>  <minimizedAffinity>  (1) 
-4.47739077

>  <minimizedRMSD>  (1) 
4.79898787

$$$$
