
     RDKit          3D

 47 51  0  0  1  0  0  0  0  0999 V2000
   45.6840   32.6100   47.0930 C   0  0  0  0  0  0  0  0  0  0  0  0
   46.2750   31.3970   46.6440 C   0  0  0  0  0  0  0  0  0  0  0  0
   46.4500   30.3760   47.6200 C   0  0  0  0  0  0  0  0  0  0  0  0
   46.0810   30.5650   48.8710 N   0  0  0  0  0  0  0  0  0  0  0  0
   45.5160   31.7540   49.2590 C   0  0  0  0  0  0  0  0  0  0  0  0
   45.3230   32.7660   48.3590 N   0  0  0  0  0  0  0  0  0  0  0  0
   46.8170   31.3520   45.2710 C   0  0  2  0  0  0  0  0  0  0  0  0
   47.1530   32.6720   44.7830 C   0  0  0  0  0  0  0  0  0  0  0  0
   46.9410   33.0130   43.3690 C   0  0  0  0  0  0  0  0  0  0  0  0
   46.3980   31.9840   42.4280 C   0  0  0  0  0  0  0  0  0  0  0  0
   46.5240   30.6380   42.9930 C   0  0  0  0  0  0  0  0  0  0  0  0
   45.7390   30.6850   44.3550 C   0  0  0  0  0  0  0  0  0  0  0  0
   46.9270   29.0370   47.4730 C   0  0  0  0  0  0  0  0  0  0  0  0
   48.1630   28.7150   47.3830 N   0  0  0  0  0  0  0  0  0  0  0  0
   48.2640   27.4220   47.2500 O   0  0  0  0  0  0  0  0  0  0  0  0
   47.1170   26.8390   47.2460 C   0  0  0  0  0  0  0  0  0  0  0  0
   46.2490   27.7890   47.3830 N   0  0  0  0  0  0  0  0  0  0  0  0
   46.8900   25.4040   47.1100 C   0  0  0  0  0  0  0  0  0  0  0  0
   47.6390   24.5670   47.7310 O   0  0  0  0  0  0  0  0  0  0  0  0
   45.7720   24.8910   46.2470 C   0  0  1  0  0  0  0  0  0  0  0  0
   45.5110   23.4620   46.2340 C   0  0  0  0  0  0  0  0  0  0  0  0
   44.6460   24.3150   47.1310 C   0  0  2  0  0  0  0  0  0  0  0  0
   43.2850   24.6380   46.6530 C   0  0  0  0  0  0  0  0  0  0  0  0
   42.5690   25.7310   47.1200 C   0  0  0  0  0  0  0  0  0  0  0  0
   41.3160   26.0190   46.6750 C   0  0  0  0  0  0  0  0  0  0  0  0
   40.7170   25.2000   45.7170 C   0  0  0  0  0  0  0  0  0  0  0  0
   41.4440   24.1030   45.2520 C   0  0  0  0  0  0  0  0  0  0  0  0
   42.6930   23.8420   45.7180 N   0  0  0  0  0  0  0  0  0  0  0  0
   45.5240   33.4313   46.3790 H   0  0  0  0  0  0  0  0  0  0  0  0
   45.2144   31.8951   50.3074 H   0  0  0  0  0  0  0  0  0  0  0  0
   47.7491   30.7680   45.2634 H   0  0  0  0  0  0  0  0  0  0  0  0
   47.5682   33.4223   45.4720 H   0  0  0  0  0  0  0  0  0  0  0  0
   47.1810   34.0223   43.0034 H   0  0  0  0  0  0  0  0  0  0  0  0
   46.9572   32.0309   41.4819 H   0  0  0  0  0  0  0  0  0  0  0  0
   45.3320   32.1938   42.2561 H   0  0  0  0  0  0  0  0  0  0  0  0
   46.0788   29.8931   42.3171 H   0  0  0  0  0  0  0  0  0  0  0  0
   47.5759   30.3497   43.1355 H   0  0  0  0  0  0  0  0  0  0  0  0
   44.8301   31.3001   44.2807 H   0  0  0  0  0  0  0  0  0  0  0  0
   45.3701   29.7112   44.7094 H   0  0  0  0  0  0  0  0  0  0  0  0
   45.8905   25.6191   45.4310 H   0  0  0  0  0  0  0  0  0  0  0  0
   45.0720   22.9991   45.3379 H   0  0  0  0  0  0  0  0  0  0  0  0
   46.1360   22.5724   46.4010 H   0  0  0  0  0  0  0  0  0  0  0  0
   44.3730   24.2957   48.1964 H   0  0  0  0  0  0  0  0  0  0  0  0
   43.0294   26.3858   47.8745 H   0  0  0  0  0  0  0  0  0  0  0  0
   40.7774   26.8936   47.0687 H   0  0  0  0  0  0  0  0  0  0  0  0
   39.7053   25.4119   45.3407 H   0  0  0  0  0  0  0  0  0  0  0  0
   40.9985   23.4394   44.4963 H   0  0  0  0  0  0  0  0  0  0  0  0
  1  6  2  0
  2  1  1  0
  2  3  2  0
  3  4  1  0
  4  5  2  0
  6  5  1  0
  7  2  1  0
  8  7  1  0
  9  8  2  0
 10 11  1  0
 10  9  1  0
 11 12  1  0
 12  7  1  0
 13  3  1  0
 14 13  2  0
 15 14  1  0
 16 15  1  0
 16 17  2  0
 17 13  1  0
 18 16  1  0
 18 19  2  0
 20 18  1  0
 20 22  1  0
 21 20  1  0
 21 22  1  0
 23 24  2  0
 23 22  1  0
 25 24  1  0
 26 25  2  0
 27 26  1  0
 27 28  2  0
 28 23  1  0
  1 29  1  0
  5 30  1  0
  7 31  1  1
  8 32  1  0
  9 33  1  0
 10 34  1  0
 10 35  1  0
 11 36  1  0
 11 37  1  0
 12 38  1  0
 12 39  1  0
 20 40  1  6
 21 41  1  0
 21 42  1  0
 22 43  1  1
 24 44  1  0
 25 45  1  0
 26 46  1  0
 27 47  1  0
M  ISO  8  29  14  30  14  31  13  32  13  33  13  34  13  35  13  36  13
M  ISO  8  37  13  38  13  39  13  40  13  41  13  42  13  43  13  44  14
M  ISO  3  45  14  46  14  47  14
M  END
>  <minimizedAffinity>  (1) 
-4.71249962

>  <minimizedRMSD>  (1) 
4.69664669

$$$$
