
     RDKit          3D

 53 57  0  0  1  0  0  0  0  0999 V2000
   45.6340   32.7250   47.5360 C   0  0  0  0  0  0  0  0  0  0  0  0
   46.1650   31.8090   46.5780 C   0  0  0  0  0  0  0  0  0  0  0  0
   46.6120   30.5550   47.0840 C   0  0  0  0  0  0  0  0  0  0  0  0
   46.5310   30.2850   48.3730 N   0  0  0  0  0  0  0  0  0  0  0  0
   46.0190   31.1880   49.2490 C   0  0  0  0  0  0  0  0  0  0  0  0
   45.5710   32.4120   48.8170 N   0  0  0  0  0  0  0  0  0  0  0  0
   46.3640   32.2790   45.1900 C   0  0  2  0  0  0  0  0  0  0  0  0
   46.0580   33.6970   45.0690 C   0  0  0  0  0  0  0  0  0  0  0  0
   45.4110   34.2160   43.8550 C   0  0  0  0  0  0  0  0  0  0  0  0
   45.0900   33.2830   42.7310 C   0  0  0  0  0  0  0  0  0  0  0  0
   45.8060   32.0150   42.8630 C   0  0  0  0  0  0  0  0  0  0  0  0
   45.4000   31.4500   44.2710 C   0  0  0  0  0  0  0  0  0  0  0  0
   47.1160   29.4150   46.3950 C   0  0  0  0  0  0  0  0  0  0  0  0
   48.2580   29.3720   45.8170 N   0  0  0  0  0  0  0  0  0  0  0  0
   48.4180   28.2000   45.2710 O   0  0  0  0  0  0  0  0  0  0  0  0
   47.4080   27.4270   45.4580 C   0  0  0  0  0  0  0  0  0  0  0  0
   46.5680   28.1270   46.1500 N   0  0  0  0  0  0  0  0  0  0  0  0
   47.2810   26.0600   44.9720 C   0  0  0  0  0  0  0  0  0  0  0  0
   48.0600   25.6170   44.0550 O   0  0  0  0  0  0  0  0  0  0  0  0
   46.2390   25.1420   45.5490 C   0  0  1  0  0  0  0  0  0  0  0  0
   46.6150   23.7690   45.8320 C   0  0  0  0  0  0  0  0  0  0  0  0
   46.6230   24.7370   46.9870 C   0  0  2  0  0  0  0  0  0  0  0  0
   45.6790   24.7200   48.0280 N   0  0  0  0  0  0  0  0  0  0  0  0
   44.5040   25.4770   47.7660 C   0  0  0  0  0  0  0  0  0  0  0  0
   44.4340   26.6590   48.7410 C   0  0  0  0  0  0  0  0  0  0  0  0
   44.1250   25.9940   50.0890 C   0  0  0  0  0  0  0  0  0  0  0  0
   45.1640   24.9870   50.4170 C   0  0  0  0  0  0  0  0  0  0  0  0
   46.1640   24.6820   49.3460 C   0  0  0  0  0  0  0  0  0  0  0  0
   45.2713   33.7080   47.2011 H   0  0  0  0  0  0  0  0  0  0  0  0
   45.9625   30.9355   50.3181 H   0  0  0  0  0  0  0  0  0  0  0  0
   47.4143   32.1390   44.8948 H   0  0  0  0  0  0  0  0  0  0  0  0
   46.3121   34.3837   45.8899 H   0  0  0  0  0  0  0  0  0  0  0  0
   45.1643   35.2849   43.7738 H   0  0  0  0  0  0  0  0  0  0  0  0
   45.3761   33.7573   41.7806 H   0  0  0  0  0  0  0  0  0  0  0  0
   44.0105   33.0728   42.7558 H   0  0  0  0  0  0  0  0  0  0  0  0
   45.5041   31.3181   42.0673 H   0  0  0  0  0  0  0  0  0  0  0  0
   46.8942   32.1491   42.7749 H   0  0  0  0  0  0  0  0  0  0  0  0
   44.3435   31.6514   44.5018 H   0  0  0  0  0  0  0  0  0  0  0  0
   45.4891   30.3584   44.3738 H   0  0  0  0  0  0  0  0  0  0  0  0
   45.3778   25.5709   45.0158 H   0  0  0  0  0  0  0  0  0  0  0  0
   45.8510   22.9786   45.7925 H   0  0  0  0  0  0  0  0  0  0  0  0
   47.3634   23.0825   45.4094 H   0  0  0  0  0  0  0  0  0  0  0  0
   47.3564   25.0474   47.7458 H   0  0  0  0  0  0  0  0  0  0  0  0
   44.5326   25.8540   46.7330 H   0  0  0  0  0  0  0  0  0  0  0  0
   43.6178   24.8386   47.8969 H   0  0  0  0  0  0  0  0  0  0  0  0
   45.3936   27.1954   48.7781 H   0  0  0  0  0  0  0  0  0  0  0  0
   43.6834   27.4092   48.4515 H   0  0  0  0  0  0  0  0  0  0  0  0
   44.1031   26.7622   50.8760 H   0  0  0  0  0  0  0  0  0  0  0  0
   43.1483   25.4922   50.0247 H   0  0  0  0  0  0  0  0  0  0  0  0
   45.7166   25.3517   51.2954 H   0  0  0  0  0  0  0  0  0  0  0  0
   44.6159   24.0469   50.5780 H   0  0  0  0  0  0  0  0  0  0  0  0
   46.5595   23.6724   49.5311 H   0  0  0  0  0  0  0  0  0  0  0  0
   46.9211   25.4775   49.4088 H   0  0  0  0  0  0  0  0  0  0  0  0
  1  6  2  0
  2  3  2  0
  2  1  1  0
  3  4  1  0
  4  5  2  0
  6  5  1  0
  7  2  1  0
  8  7  1  0
  9  8  2  0
 10 11  1  0
 10  9  1  0
 11 12  1  0
 12  7  1  0
 13  3  1  0
 14 13  2  0
 15 16  1  0
 15 14  1  0
 16 17  2  0
 17 13  1  0
 18 16  1  0
 18 20  1  0
 19 18  2  0
 20 21  1  0
 20 22  1  0
 21 22  1  0
 22 23  1  0
 23 28  1  0
 24 23  1  0
 24 25  1  0
 25 26  1  0
 26 27  1  0
 28 27  1  0
  1 29  1  0
  5 30  1  0
  7 31  1  6
  8 32  1  0
  9 33  1  0
 10 34  1  0
 10 35  1  0
 11 36  1  0
 11 37  1  0
 12 38  1  0
 12 39  1  0
 20 40  1  1
 21 41  1  0
 21 42  1  0
 22 43  1  1
 24 44  1  0
 24 45  1  0
 25 46  1  0
 25 47  1  0
 26 48  1  0
 26 49  1  0
 27 50  1  0
 27 51  1  0
 28 52  1  0
 28 53  1  0
M  ISO  8  29  14  30  14  31  13  32  13  33  13  34  13  35  13  36  13
M  ISO  8  37  13  38  13  39  13  40  13  41  13  42  13  43  13  44  13
M  ISO  8  45  13  46  13  47  13  48  13  49  13  50  13  51  13  52  13
M  ISO  1  53  13
M  END
>  <minimizedAffinity>  (1) 
-4.3777647

>  <minimizedRMSD>  (1) 
3.70437431

$$$$
