
     RDKit          3D

 51 55  0  0  1  0  0  0  0  0999 V2000
   47.6200   31.2460   44.3530 C   0  0  0  0  0  0  0  0  0  0  0  0
   48.2750   31.9070   43.4730 N   0  0  0  0  0  0  0  0  0  0  0  0
   48.7810   31.0800   42.6040 O   0  0  0  0  0  0  0  0  0  0  0  0
   48.4920   29.8550   42.8600 C   0  0  0  0  0  0  0  0  0  0  0  0
   47.7740   29.8940   43.9360 N   0  0  0  0  0  0  0  0  0  0  0  0
   45.4430   33.2410   46.7480 C   0  0  0  0  0  0  0  0  0  0  0  0
   46.0550   32.9550   45.4930 C   0  0  0  0  0  0  0  0  0  0  0  0
   46.9260   31.8310   45.4540 C   0  0  0  0  0  0  0  0  0  0  0  0
   47.1420   31.1110   46.5360 N   0  0  0  0  0  0  0  0  0  0  0  0
   46.5370   31.4230   47.7170 C   0  0  0  0  0  0  0  0  0  0  0  0
   45.6870   32.4930   47.8100 N   0  0  0  0  0  0  0  0  0  0  0  0
   45.8700   33.9210   44.3890 C   0  0  2  0  0  0  0  0  0  0  0  0
   45.2250   35.1360   44.8540 C   0  0  0  0  0  0  0  0  0  0  0  0
   44.2700   35.8440   43.9880 C   0  0  0  0  0  0  0  0  0  0  0  0
   43.9850   35.3230   42.6170 C   0  0  0  0  0  0  0  0  0  0  0  0
   44.9980   34.3540   42.1880 C   0  0  0  0  0  0  0  0  0  0  0  0
   44.9900   33.2360   43.2930 C   0  0  0  0  0  0  0  0  0  0  0  0
   48.9080   28.6990   42.0770 C   0  0  0  0  0  0  0  0  0  0  0  0
   48.6530   28.6300   40.8250 O   0  0  0  0  0  0  0  0  0  0  0  0
   49.6500   27.5790   42.7450 C   0  0  1  0  0  0  0  0  0  0  0  0
   50.4730   26.7040   41.9320 C   0  0  0  0  0  0  0  0  0  0  0  0
   51.1530   27.8150   42.6950 C   0  0  1  0  0  0  0  0  0  0  0  0
   51.7540   28.7990   41.8440 N   0  0  0  0  0  0  0  0  0  0  0  0
   52.0300   28.5600   40.5350 C   0  0  0  0  0  0  0  0  0  0  0  0
   52.5950   29.4210   39.6280 C   0  0  0  0  0  0  0  0  0  0  0  0
   52.8410   29.0210   38.2240 C   0  0  0  0  0  0  0  0  0  0  0  0
   52.9220   30.6740   40.0860 C   0  0  0  0  0  0  0  0  0  0  0  0
   53.4410   31.4930   39.2890 O   0  0  0  0  0  0  0  0  0  0  0  0
   52.6680   30.9600   41.3720 N   0  0  0  0  0  0  0  0  0  0  0  0
   52.1110   30.0500   42.1890 C   0  0  0  0  0  0  0  0  0  0  0  0
   51.9250   30.4480   43.3660 O   0  0  0  0  0  0  0  0  0  0  0  0
   44.7574   34.0969   46.8340 H   0  0  0  0  0  0  0  0  0  0  0  0
   46.7340   30.8074   48.6070 H   0  0  0  0  0  0  0  0  0  0  0  0
   46.8517   34.2045   43.9816 H   0  0  0  0  0  0  0  0  0  0  0  0
   45.4512   35.5279   45.8566 H   0  0  0  0  0  0  0  0  0  0  0  0
   43.7675   36.7537   44.3484 H   0  0  0  0  0  0  0  0  0  0  0  0
   43.0001   34.8331   42.6186 H   0  0  0  0  0  0  0  0  0  0  0  0
   44.0002   36.1707   41.9161 H   0  0  0  0  0  0  0  0  0  0  0  0
   44.7357   33.9297   41.2076 H   0  0  0  0  0  0  0  0  0  0  0  0
   45.9898   34.8167   42.0773 H   0  0  0  0  0  0  0  0  0  0  0  0
   43.9725   33.0310   43.6573 H   0  0  0  0  0  0  0  0  0  0  0  0
   45.3542   32.2538   42.9572 H   0  0  0  0  0  0  0  0  0  0  0  0
   48.8796   27.3623   43.4997 H   0  0  0  0  0  0  0  0  0  0  0  0
   50.4067   26.7575   40.8353 H   0  0  0  0  0  0  0  0  0  0  0  0
   50.6122   25.6142   41.8779 H   0  0  0  0  0  0  0  0  0  0  0  0
   51.9055   27.9660   43.4830 H   0  0  0  0  0  0  0  0  0  0  0  0
   51.7702   27.5596   40.1585 H   0  0  0  0  0  0  0  0  0  0  0  0
   53.4172   28.0842   38.2052 H   0  0  0  0  0  0  0  0  0  0  0  0
   51.8793   28.8703   37.7118 H   0  0  0  0  0  0  0  0  0  0  0  0
   53.4094   29.8113   37.7118 H   0  0  0  0  0  0  0  0  0  0  0  0
   52.9039   31.8929   41.7393 H   0  0  0  0  0  0  0  0  0  0  0  0
  1  8  1  0
  2  1  2  0
  3  4  1  0
  3  2  1  0
  4  5  2  0
  5  1  1  0
  6 11  2  0
  7  6  1  0
  8  7  2  0
  8  9  1  0
  9 10  2  0
 10 11  1  0
 12 13  1  0
 12  7  1  0
 14 13  2  0
 15 14  1  0
 16 15  1  0
 16 17  1  0
 17 12  1  0
 18 20  1  0
 18  4  1  0
 19 18  2  0
 21 22  1  0
 21 20  1  0
 22 20  1  0
 23 30  1  0
 23 22  1  0
 24 23  1  0
 25 27  1  0
 25 24  2  0
 26 25  1  0
 27 29  1  0
 28 27  2  0
 29 30  1  0
 30 31  2  0
  6 32  1  0
 10 33  1  0
 12 34  1  6
 13 35  1  0
 14 36  1  0
 15 37  1  0
 15 38  1  0
 16 39  1  0
 16 40  1  0
 17 41  1  0
 17 42  1  0
 20 43  1  1
 21 44  1  0
 21 45  1  0
 22 46  1  1
 24 47  1  0
 26 48  1  0
 26 49  1  0
 26 50  1  0
 29 51  1  0
M  ISO  8  32  14  33  14  34  13  35  13  36  13  37  13  38  13  39  13
M  ISO  8  40  13  41  13  42  13  43  13  44  13  45  13  46  13  47  14
M  ISO  4  48   8  49   8  50   8  51   9
M  END
>  <minimizedAffinity>  (1) 
-4.41157675

>  <minimizedRMSD>  (1) 
2.36087346

$$$$
