
     RDKit          3D

 44 48  0  0  1  0  0  0  0  0999 V2000
   45.6600   33.5460   45.8640 C   0  0  0  0  0  0  0  0  0  0  0  0
   46.2440   33.3610   44.5730 C   0  0  0  0  0  0  0  0  0  0  0  0
   47.2090   32.3190   44.4630 C   0  0  0  0  0  0  0  0  0  0  0  0
   47.5260   31.5850   45.5110 N   0  0  0  0  0  0  0  0  0  0  0  0
   46.9440   31.7990   46.7190 C   0  0  0  0  0  0  0  0  0  0  0  0
   46.0090   32.7880   46.8780 N   0  0  0  0  0  0  0  0  0  0  0  0
   45.9200   34.3360   43.5130 C   0  0  2  0  0  0  0  0  0  0  0  0
   45.1210   35.4340   44.0300 C   0  0  0  0  0  0  0  0  0  0  0  0
   44.0740   36.0490   43.2030 C   0  0  0  0  0  0  0  0  0  0  0  0
   43.8490   35.5490   41.8110 C   0  0  0  0  0  0  0  0  0  0  0  0
   44.9630   34.7330   41.3400 C   0  0  0  0  0  0  0  0  0  0  0  0
   45.1200   33.5810   42.3970 C   0  0  0  0  0  0  0  0  0  0  0  0
   47.9190   31.8460   43.3230 C   0  0  0  0  0  0  0  0  0  0  0  0
   48.8980   32.4690   42.7760 N   0  0  0  0  0  0  0  0  0  0  0  0
   49.3240   31.7820   41.7540 O   0  0  0  0  0  0  0  0  0  0  0  0
   48.6610   30.6960   41.5800 C   0  0  0  0  0  0  0  0  0  0  0  0
   47.7760   30.6790   42.5240 N   0  0  0  0  0  0  0  0  0  0  0  0
   48.8910   29.7140   40.5250 C   0  0  0  0  0  0  0  0  0  0  0  0
   48.5790   29.9800   39.3110 O   0  0  0  0  0  0  0  0  0  0  0  0
   49.5030   28.3800   40.8500 C   0  0  1  0  0  0  0  0  0  0  0  0
   50.1100   27.6300   39.7580 C   0  0  0  0  0  0  0  0  0  0  0  0
   51.0290   28.4270   40.6470 C   0  0  1  0  0  0  0  0  0  0  0  0
   51.6160   29.6390   40.1750 N   0  0  0  0  0  0  0  0  0  0  0  0
   51.7360   30.1810   38.9470 C   0  0  0  0  0  0  0  0  0  0  0  0
   52.3720   31.3430   39.0230 N   0  0  0  0  0  0  0  0  0  0  0  0
   52.6590   31.5420   40.3150 C   0  0  0  0  0  0  0  0  0  0  0  0
   52.1960   30.4990   41.0150 N   0  0  0  0  0  0  0  0  0  0  0  0
   44.9073   34.3347   46.0105 H   0  0  0  0  0  0  0  0  0  0  0  0
   47.2258   31.1725   47.5781 H   0  0  0  0  0  0  0  0  0  0  0  0
   46.8509   34.7640   43.1126 H   0  0  0  0  0  0  0  0  0  0  0  0
   45.3015   35.8077   45.0487 H   0  0  0  0  0  0  0  0  0  0  0  0
   43.4610   36.8698   43.6037 H   0  0  0  0  0  0  0  0  0  0  0  0
   42.9317   34.9421   41.7949 H   0  0  0  0  0  0  0  0  0  0  0  0
   43.7592   36.4204   41.1458 H   0  0  0  0  0  0  0  0  0  0  0  0
   44.7400   34.3153   40.3471 H   0  0  0  0  0  0  0  0  0  0  0  0
   45.8861   35.3229   41.2410 H   0  0  0  0  0  0  0  0  0  0  0  0
   44.1445   33.2281   42.7629 H   0  0  0  0  0  0  0  0  0  0  0  0
   45.6053   32.6697   42.0177 H   0  0  0  0  0  0  0  0  0  0  0  0
   48.7879   28.0917   41.6346 H   0  0  0  0  0  0  0  0  0  0  0  0
   49.9443   27.9533   38.7197 H   0  0  0  0  0  0  0  0  0  0  0  0
   50.0763   26.5756   39.4462 H   0  0  0  0  0  0  0  0  0  0  0  0
   51.9273   28.2081   41.2429 H   0  0  0  0  0  0  0  0  0  0  0  0
   51.3616   29.7267   38.0178 H   0  0  0  0  0  0  0  0  0  0  0  0
   53.1855   32.4138   40.7308 H   0  0  0  0  0  0  0  0  0  0  0  0
  1  6  2  0
  2  1  1  0
  3  2  2  0
  3  4  1  0
  4  5  2  0
  5  6  1  0
  7  8  1  0
  7  2  1  0
  9  8  2  0
 10  9  1  0
 11 10  1  0
 11 12  1  0
 12  7  1  0
 13  3  1  0
 14 13  2  0
 15 14  1  0
 16 15  1  0
 16 17  2  0
 17 13  1  0
 18 20  1  0
 18 16  1  0
 19 18  2  0
 21 22  1  0
 21 20  1  0
 22 20  1  0
 23 22  1  0
 23 27  1  0
 24 25  2  0
 24 23  1  0
 25 26  1  0
 26 27  2  0
  1 28  1  0
  5 29  1  0
  7 30  1  6
  8 31  1  0
  9 32  1  0
 10 33  1  0
 10 34  1  0
 11 35  1  0
 11 36  1  0
 12 37  1  0
 12 38  1  0
 20 39  1  1
 21 40  1  0
 21 41  1  0
 22 42  1  1
 24 43  1  0
 26 44  1  0
M  ISO  8  28  14  29  14  30  13  31  13  32  13  33  13  34  13  35  13
M  ISO  8  36  13  37  13  38  13  39  13  40  13  41  13  42  13  43  14
M  ISO  1  44  14
M  END
>  <minimizedAffinity>  (1) 
-4.04916811

>  <minimizedRMSD>  (1) 
2.88790774

$$$$
