
     RDKit          3D

 45 49  0  0  1  0  0  0  0  0999 V2000
   45.7020   32.5200   46.9980 C   0  0  0  0  0  0  0  0  0  0  0  0
   46.5910   31.4400   46.7220 C   0  0  0  0  0  0  0  0  0  0  0  0
   46.9500   30.6190   47.8270 C   0  0  0  0  0  0  0  0  0  0  0  0
   46.4760   30.8660   49.0310 N   0  0  0  0  0  0  0  0  0  0  0  0
   45.6280   31.9150   49.2490 C   0  0  0  0  0  0  0  0  0  0  0  0
   45.2480   32.7360   48.2200 N   0  0  0  0  0  0  0  0  0  0  0  0
   47.1810   31.3510   45.3720 C   0  0  2  0  0  0  0  0  0  0  0  0
   47.1780   32.6390   44.7050 C   0  0  0  0  0  0  0  0  0  0  0  0
   46.9570   32.7180   43.2550 C   0  0  0  0  0  0  0  0  0  0  0  0
   46.7650   31.4690   42.4640 C   0  0  0  0  0  0  0  0  0  0  0  0
   47.1920   30.2800   43.2170 C   0  0  0  0  0  0  0  0  0  0  0  0
   46.3510   30.3170   44.5470 C   0  0  0  0  0  0  0  0  0  0  0  0
   47.7480   29.4380   47.8720 C   0  0  0  0  0  0  0  0  0  0  0  0
   48.9380   29.3880   48.3450 N   0  0  0  0  0  0  0  0  0  0  0  0
   49.3940   28.1730   48.2320 O   0  0  0  0  0  0  0  0  0  0  0  0
   48.5450   27.3750   47.6900 C   0  0  0  0  0  0  0  0  0  0  0  0
   47.5020   28.1040   47.4450 N   0  0  0  0  0  0  0  0  0  0  0  0
   48.7530   25.9570   47.4220 C   0  0  0  0  0  0  0  0  0  0  0  0
   49.9280   25.5030   47.1930 O   0  0  0  0  0  0  0  0  0  0  0  0
   47.5800   25.0100   47.4200 C   0  0  1  0  0  0  0  0  0  0  0  0
   47.8580   23.5860   47.5620 C   0  0  0  0  0  0  0  0  0  0  0  0
   47.4390   24.3420   48.8000 C   0  0  2  0  0  0  0  0  0  0  0  0
   46.0670   24.0630   49.3460 C   0  0  0  0  0  0  0  0  0  0  0  0
   45.9620   23.6650   50.7700 C   0  0  0  0  0  0  0  0  0  0  0  0
   45.3670   24.9500   50.2770 C   0  0  0  0  0  0  0  0  0  0  0  0
   45.3887   33.1848   46.1796 H   0  0  0  0  0  0  0  0  0  0  0  0
   45.2457   32.1027   50.2632 H   0  0  0  0  0  0  0  0  0  0  0  0
   48.2297   31.0295   45.4546 H   0  0  0  0  0  0  0  0  0  0  0  0
   47.3416   33.5585   45.2862 H   0  0  0  0  0  0  0  0  0  0  0  0
   46.9332   33.6969   42.7537 H   0  0  0  0  0  0  0  0  0  0  0  0
   47.3569   31.5375   41.5394 H   0  0  0  0  0  0  0  0  0  0  0  0
   45.6934   31.3664   42.2379 H   0  0  0  0  0  0  0  0  0  0  0  0
   46.9757   29.3637   42.6481 H   0  0  0  0  0  0  0  0  0  0  0  0
   48.2745   30.2811   43.4123 H   0  0  0  0  0  0  0  0  0  0  0  0
   45.3238   30.6682   44.3696 H   0  0  0  0  0  0  0  0  0  0  0  0
   46.2164   29.3401   45.0345 H   0  0  0  0  0  0  0  0  0  0  0  0
   46.9535   25.5689   46.7093 H   0  0  0  0  0  0  0  0  0  0  0  0
   47.1713   22.8515   47.1158 H   0  0  0  0  0  0  0  0  0  0  0  0
   48.7186   22.9480   47.3123 H   0  0  0  0  0  0  0  0  0  0  0  0
   47.8433   24.5297   49.8056 H   0  0  0  0  0  0  0  0  0  0  0  0
   45.7785   23.6486   48.3687 H   0  0  0  0  0  0  0  0  0  0  0  0
   45.3091   22.8301   51.0644 H   0  0  0  0  0  0  0  0  0  0  0  0
   46.6730   23.3816   51.5601 H   0  0  0  0  0  0  0  0  0  0  0  0
   45.8178   25.9111   50.5652 H   0  0  0  0  0  0  0  0  0  0  0  0
   44.3676   25.4083   50.3121 H   0  0  0  0  0  0  0  0  0  0  0  0
  1  6  2  0
  2  1  1  0
  2  3  2  0
  3 13  1  0
  3  4  1  0
  4  5  2  0
  6  5  1  0
  7  2  1  0
  8  7  1  0
  9  8  2  0
 10 11  1  0
 10  9  1  0
 11 12  1  0
 12  7  1  0
 13 14  2  0
 15 14  1  0
 16 15  1  0
 17 16  2  0
 17 13  1  0
 18 16  1  0
 19 18  2  0
 20 18  1  0
 20 21  1  0
 20 22  1  0
 21 22  1  0
 22 23  1  0
 23 25  1  0
 23 24  1  0
 25 24  1  0
  1 26  1  0
  5 27  1  0
  7 28  1  1
  8 29  1  0
  9 30  1  0
 10 31  1  0
 10 32  1  0
 11 33  1  0
 11 34  1  0
 12 35  1  0
 12 36  1  0
 20 37  1  6
 21 38  1  0
 21 39  1  0
 22 40  1  1
 23 41  1  0
 24 42  1  0
 24 43  1  0
 25 44  1  0
 25 45  1  0
M  ISO  8  26  14  27  14  28  13  29  13  30  13  31  13  32  13  33  13
M  ISO  8  34  13  35  13  36  13  37  13  38  13  39  13  40  13  41  13
M  ISO  4  42  13  43  13  44  13  45  13
M  END
>  <minimizedAffinity>  (1) 
-4.07930231

>  <minimizedRMSD>  (1) 
4.89934969

$$$$
