
     RDKit          3D

 44 48  0  0  1  0  0  0  0  0999 V2000
   45.6270   33.2550   46.3850 C   0  0  0  0  0  0  0  0  0  0  0  0
   46.1950   33.0860   45.0880 C   0  0  0  0  0  0  0  0  0  0  0  0
   47.1120   32.0080   44.9360 C   0  0  0  0  0  0  0  0  0  0  0  0
   47.4070   31.2250   45.9540 N   0  0  0  0  0  0  0  0  0  0  0  0
   46.8410   31.4260   47.1750 C   0  0  0  0  0  0  0  0  0  0  0  0
   45.9460   32.4490   47.3820 N   0  0  0  0  0  0  0  0  0  0  0  0
   45.9220   34.1170   44.0660 C   0  0  2  0  0  0  0  0  0  0  0  0
   45.1670   35.2280   44.6200 C   0  0  0  0  0  0  0  0  0  0  0  0
   44.1410   35.9050   43.8110 C   0  0  0  0  0  0  0  0  0  0  0  0
   43.8940   35.4580   42.4020 C   0  0  0  0  0  0  0  0  0  0  0  0
   45.0060   34.6410   41.9040 C   0  0  0  0  0  0  0  0  0  0  0  0
   45.1090   33.4380   42.9110 C   0  0  0  0  0  0  0  0  0  0  0  0
   47.7860   31.5330   43.7700 C   0  0  0  0  0  0  0  0  0  0  0  0
   48.5940   32.2380   43.0710 N   0  0  0  0  0  0  0  0  0  0  0  0
   49.0320   31.5240   42.0720 O   0  0  0  0  0  0  0  0  0  0  0  0
   48.5400   30.3370   42.0640 C   0  0  0  0  0  0  0  0  0  0  0  0
   47.7610   30.2820   43.0950 N   0  0  0  0  0  0  0  0  0  0  0  0
   48.8270   29.2980   41.0800 C   0  0  0  0  0  0  0  0  0  0  0  0
   48.6280   29.5130   39.8330 O   0  0  0  0  0  0  0  0  0  0  0  0
   49.3630   27.9690   41.5040 C   0  0  1  0  0  0  0  0  0  0  0  0
   49.9250   27.0870   40.4980 C   0  0  0  0  0  0  0  0  0  0  0  0
   50.8930   27.9060   41.3060 C   0  0  1  0  0  0  0  0  0  0  0  0
   51.5730   29.0800   40.7040 C   0  0  0  0  0  0  0  0  0  0  0  0
   52.1010   30.1940   41.4550 C   0  0  0  0  0  0  0  0  0  0  0  0
   52.8100   31.2250   40.1350 S   0  0  0  0  0  0  0  0  0  0  0  0
   52.2840   29.9940   38.7830 C   0  0  0  0  0  0  0  0  0  0  0  0
   51.6920   29.0360   39.3970 N   0  0  0  0  0  0  0  0  0  0  0  0
   44.9103   34.0712   46.5585 H   0  0  0  0  0  0  0  0  0  0  0  0
   47.1037   30.7594   48.0097 H   0  0  0  0  0  0  0  0  0  0  0  0
   46.8724   34.5252   43.6917 H   0  0  0  0  0  0  0  0  0  0  0  0
   45.3632   35.5645   45.6487 H   0  0  0  0  0  0  0  0  0  0  0  0
   43.5585   36.7346   44.2381 H   0  0  0  0  0  0  0  0  0  0  0  0
   42.9692   34.8632   42.3708 H   0  0  0  0  0  0  0  0  0  0  0  0
   43.8025   36.3493   41.7639 H   0  0  0  0  0  0  0  0  0  0  0  0
   44.7940   34.2775   40.8877 H   0  0  0  0  0  0  0  0  0  0  0  0
   45.9443   35.2120   41.8446 H   0  0  0  0  0  0  0  0  0  0  0  0
   44.1175   33.1047   43.2513 H   0  0  0  0  0  0  0  0  0  0  0  0
   45.5653   32.5263   42.4978 H   0  0  0  0  0  0  0  0  0  0  0  0
   48.6265   27.7951   42.3024 H   0  0  0  0  0  0  0  0  0  0  0  0
   49.7781   27.3176   39.4325 H   0  0  0  0  0  0  0  0  0  0  0  0
   49.8279   26.0110   40.2910 H   0  0  0  0  0  0  0  0  0  0  0  0
   51.7797   27.6897   41.9200 H   0  0  0  0  0  0  0  0  0  0  0  0
   52.0801   30.3724   42.5402 H   0  0  0  0  0  0  0  0  0  0  0  0
   52.4526   30.0850   37.6998 H   0  0  0  0  0  0  0  0  0  0  0  0
  1  6  2  0
  2  1  1  0
  3  2  2  0
  3  4  1  0
  4  5  2  0
  5  6  1  0
  7  8  1  0
  7  2  1  0
  9  8  2  0
 10  9  1  0
 11 10  1  0
 11 12  1  0
 12  7  1  0
 13  3  1  0
 14 13  2  0
 15 14  1  0
 16 15  1  0
 16 17  2  0
 17 13  1  0
 18 20  1  0
 18 16  1  0
 19 18  2  0
 21 22  1  0
 21 20  1  0
 22 20  1  0
 23 22  1  0
 23 24  2  0
 25 24  1  0
 26 27  2  0
 26 25  1  0
 27 23  1  0
  1 28  1  0
  5 29  1  0
  7 30  1  6
  8 31  1  0
  9 32  1  0
 10 33  1  0
 10 34  1  0
 11 35  1  0
 11 36  1  0
 12 37  1  0
 12 38  1  0
 20 39  1  1
 21 40  1  0
 21 41  1  0
 22 42  1  1
 24 43  1  0
 26 44  1  0
M  ISO  8  28  14  29  14  30  13  31  13  32  13  33  13  34  13  35  13
M  ISO  8  36  13  37  13  38  13  39  13  40  13  41  13  42  13  43  14
M  ISO  1  44  14
M  END
>  <minimizedAffinity>  (1) 
-3.87094545

>  <minimizedRMSD>  (1) 
2.42133164

$$$$
