
     RDKit          3D

 39 42  0  0  1  0  0  0  0  0999 V2000
   45.1420   32.7390   47.5780 C   0  0  0  0  0  0  0  0  0  0  0  0
   45.7480   32.4840   46.3110 C   0  0  0  0  0  0  0  0  0  0  0  0
   46.2800   31.1780   46.1190 C   0  0  0  0  0  0  0  0  0  0  0  0
   46.2100   30.2750   47.0750 N   0  0  0  0  0  0  0  0  0  0  0  0
   45.6230   30.5640   48.2690 C   0  0  0  0  0  0  0  0  0  0  0  0
   45.0900   31.8060   48.5110 N   0  0  0  0  0  0  0  0  0  0  0  0
   45.9190   33.6150   45.3760 C   0  0  2  0  0  0  0  0  0  0  0  0
   45.1100   34.7530   45.7740 C   0  0  0  0  0  0  0  0  0  0  0  0
   44.4820   35.6080   44.7570 C   0  0  0  0  0  0  0  0  0  0  0  0
   44.7030   35.3180   43.3070 C   0  0  0  0  0  0  0  0  0  0  0  0
   45.8220   34.3980   43.1010 C   0  0  0  0  0  0  0  0  0  0  0  0
   45.4800   33.1230   43.9530 C   0  0  0  0  0  0  0  0  0  0  0  0
   46.8740   30.5920   44.9630 C   0  0  0  0  0  0  0  0  0  0  0  0
   48.1050   30.7280   44.6360 N   0  0  0  0  0  0  0  0  0  0  0  0
   48.3310   30.0800   43.5290 O   0  0  0  0  0  0  0  0  0  0  0  0
   47.2800   29.4960   43.0770 C   0  0  0  0  0  0  0  0  0  0  0  0
   46.3430   29.7760   43.9270 N   0  0  0  0  0  0  0  0  0  0  0  0
   47.2000   28.6940   41.8600 C   0  0  0  0  0  0  0  0  0  0  0  0
   46.4500   29.0580   40.8890 O   0  0  0  0  0  0  0  0  0  0  0  0
   48.0120   27.4300   41.7420 C   0  0  1  0  0  0  0  0  0  0  0  0
   48.1810   26.8540   40.4140 C   0  0  0  0  0  0  0  0  0  0  0  0
   49.3050   27.7070   40.9540 C   0  0  1  0  0  0  0  0  0  0  0  0
   49.4520   28.9160   40.2990 O   0  0  0  0  0  0  0  0  0  0  0  0
   44.7106   33.7304   47.7808 H   0  0  0  0  0  0  0  0  0  0  0  0
   45.5751   29.7916   49.0508 H   0  0  0  0  0  0  0  0  0  0  0  0
   46.9697   33.9408   45.3763 H   0  0  0  0  0  0  0  0  0  0  0  0
   44.9665   34.9762   46.8415 H   0  0  0  0  0  0  0  0  0  0  0  0
   43.8524   36.4572   45.0611 H   0  0  0  0  0  0  0  0  0  0  0  0
   43.7901   34.8669   42.8910 H   0  0  0  0  0  0  0  0  0  0  0  0
   44.9418   36.2653   42.8015 H   0  0  0  0  0  0  0  0  0  0  0  0
   45.9132   34.1359   42.0366 H   0  0  0  0  0  0  0  0  0  0  0  0
   46.7797   34.8463   43.4040 H   0  0  0  0  0  0  0  0  0  0  0  0
   44.4067   32.8849   43.9173 H   0  0  0  0  0  0  0  0  0  0  0  0
   45.9673   32.1969   43.6140 H   0  0  0  0  0  0  0  0  0  0  0  0
   47.7140   26.9846   42.7027 H   0  0  0  0  0  0  0  0  0  0  0  0
   47.5697   27.2263   39.5787 H   0  0  0  0  0  0  0  0  0  0  0  0
   48.1241   25.8313   40.0128 H   0  0  0  0  0  0  0  0  0  0  0  0
   50.3763   27.6129   41.1854 H   0  0  0  0  0  0  0  0  0  0  0  0
   49.5404   29.6434   40.9647 H   0  0  0  0  0  0  0  0  0  0  0  0
  1  6  2  0
  2  1  1  0
  3  2  2  0
  3  4  1  0
  4  5  2  0
  5  6  1  0
  7  8  1  0
  7  2  1  0
  9  8  2  0
 10  9  1  0
 11 10  1  0
 11 12  1  0
 12  7  1  0
 13  3  1  0
 14 13  2  0
 15 14  1  0
 16 15  1  0
 16 17  2  0
 17 13  1  0
 18 16  1  0
 19 18  2  0
 20 18  1  0
 21 22  1  0
 21 20  1  0
 22 20  1  0
 23 22  1  0
  1 24  1  0
  5 25  1  0
  7 26  1  6
  8 27  1  0
  9 28  1  0
 10 29  1  0
 10 30  1  0
 11 31  1  0
 11 32  1  0
 12 33  1  0
 12 34  1  0
 20 35  1  1
 21 36  1  0
 21 37  1  0
 22 38  1  1
 23 39  1  0
M  ISO  8  24  14  25  14  26  13  27  13  28  13  29  13  30  13  31  13
M  ISO  8  32  13  33  13  34  13  35  13  36  13  37  13  38  13  39   3
M  END
>  <minimizedAffinity>  (1) 
-3.62178946

>  <minimizedRMSD>  (1) 
0.816461384

$$$$
