
     RDKit          3D

 29 29  0  0  0  0  0  0  0  0999 V2000
   45.6190   35.0780   42.9160 C   0  0  0  0  0  0  0  0  0  0  0  0
   45.0850   34.5470   45.2780 C   0  0  0  0  0  0  0  0  0  0  0  0
   45.8750   34.2870   44.1410 C   0  0  0  0  0  0  0  0  0  0  0  0
   46.8500   33.2910   44.2630 C   0  0  0  0  0  0  0  0  0  0  0  0
   46.9870   32.6390   45.4370 N   0  0  0  0  0  0  0  0  0  0  0  0
   46.2100   32.9180   46.4990 C   0  0  0  0  0  0  0  0  0  0  0  0
   45.2690   33.8660   46.4120 N   0  0  0  0  0  0  0  0  0  0  0  0
   46.8690   35.1640   42.0800 C   0  0  0  0  0  0  0  0  0  0  0  0
   45.1560   36.4550   43.3080 C   0  0  0  0  0  0  0  0  0  0  0  0
   44.4980   34.4370   42.1410 C   0  0  0  0  0  0  0  0  0  0  0  0
   43.3800   35.2380   42.1630 O   0  0  0  0  0  0  0  0  0  0  0  0
   42.3770   34.7380   41.3720 C   0  0  0  0  0  0  0  0  0  0  0  0
   41.1760   35.6280   41.4600 C   0  0  0  0  0  0  0  0  0  0  0  0
   44.3056   35.3218   45.2311 H   0  0  0  0  0  0  0  0  0  0  0  0
   47.4987   33.0416   43.4104 H   0  0  0  0  0  0  0  0  0  0  0  0
   46.3481   32.3662   47.4405 H   0  0  0  0  0  0  0  0  0  0  0  0
   47.7475   35.2244   42.7392 H   0  0  0  0  0  0  0  0  0  0  0  0
   46.9478   34.2692   41.4451 H   0  0  0  0  0  0  0  0  0  0  0  0
   46.8245   36.0612   41.4451 H   0  0  0  0  0  0  0  0  0  0  0  0
   45.1293   36.5345   44.4048 H   0  0  0  0  0  0  0  0  0  0  0  0
   45.8514   37.2048   42.9029 H   0  0  0  0  0  0  0  0  0  0  0  0
   44.1488   36.6323   42.9029 H   0  0  0  0  0  0  0  0  0  0  0  0
   44.2554   33.4638   42.5927 H   0  0  0  0  0  0  0  0  0  0  0  0
   44.8184   34.3004   41.0976 H   0  0  0  0  0  0  0  0  0  0  0  0
   42.1097   33.7276   41.7150 H   0  0  0  0  0  0  0  0  0  0  0  0
   42.7227   34.6936   40.3287 H   0  0  0  0  0  0  0  0  0  0  0  0
   40.9309   35.8096   42.5168 H   0  0  0  0  0  0  0  0  0  0  0  0
   41.3922   36.5857   40.9639 H   0  0  0  0  0  0  0  0  0  0  0  0
   40.3227   35.1425   40.9639 H   0  0  0  0  0  0  0  0  0  0  0  0
  1  9  1  0
  1  3  1  0
  2  7  2  0
  3  4  2  0
  3  2  1  0
  4  5  1  0
  5  6  2  0
  7  6  1  0
  8  1  1  0
 10 11  1  0
 10  1  1  0
 12 13  1  0
 12 11  1  0
  2 14  1  0
  4 15  1  0
  6 16  1  0
  8 17  1  0
  8 18  1  0
  8 19  1  0
  9 20  1  0
  9 21  1  0
  9 22  1  0
 10 23  1  0
 10 24  1  0
 12 25  1  0
 12 26  1  0
 13 27  1  0
 13 28  1  0
 13 29  1  0
M  ISO  8  14  14  15  14  16  14  17   8  18   8  19   8  20   8  21   8
M  ISO  8  22   8  23   8  24   8  25   8  26   8  27   8  28   8  29   8
M  END
>  <minimizedAffinity>  (1) 
-3.78992009

>  <minimizedRMSD>  (1) 
0.479352236

$$$$
