
     RDKit          3D

 40 43  0  0  1  0  0  0  0  0999 V2000
   47.0570   33.8910   41.5250 C   0  0  1  0  0  0  0  0  0  0  0  0
   47.9640   34.4690   40.4490 C   0  0  0  0  0  0  0  0  0  0  0  0
   48.7490   35.6620   40.8520 C   0  0  0  0  0  0  0  0  0  0  0  0
   49.3980   35.5270   42.1950 C   0  0  0  0  0  0  0  0  0  0  0  0
   48.9560   34.3260   42.9680 C   0  0  0  0  0  0  0  0  0  0  0  0
   47.4340   34.2650   42.8970 C   0  0  2  0  0  0  0  0  0  0  0  0
   46.8700   33.4530   43.9620 C   0  0  0  0  0  0  0  0  0  0  0  0
   45.9520   34.0960   44.7870 C   0  0  0  0  0  0  0  0  0  0  0  0
   45.5290   33.2220   45.7450 N   0  0  0  0  0  0  0  0  0  0  0  0
   46.1500   32.0320   45.5600 C   0  0  0  0  0  0  0  0  0  0  0  0
   46.0950   30.8190   46.2130 C   0  0  0  0  0  0  0  0  0  0  0  0
   46.8750   29.7790   45.7380 C   0  0  0  0  0  0  0  0  0  0  0  0
   47.7010   29.9540   44.6220 C   0  0  0  0  0  0  0  0  0  0  0  0
   47.7530   31.1690   43.9740 C   0  0  0  0  0  0  0  0  0  0  0  0
   46.9640   32.1770   44.4740 C   0  0  0  0  0  0  0  0  0  0  0  0
   43.8500   35.7080   41.6130 C   0  0  0  0  0  0  0  0  0  0  0  0
   43.0200   34.9540   40.7620 C   0  0  0  0  0  0  0  0  0  0  0  0
   43.5940   33.8120   40.1580 C   0  0  0  0  0  0  0  0  0  0  0  0
   44.8910   33.5090   40.4270 N   0  0  0  0  0  0  0  0  0  0  0  0
   45.6470   34.2500   41.2390 C   0  0  0  0  0  0  0  0  0  0  0  0
   45.1130   35.3310   41.8150 N   0  0  0  0  0  0  0  0  0  0  0  0
   47.1797   32.7986   41.4846 H   0  0  0  0  0  0  0  0  0  0  0  0
   47.3360   34.7500   39.5907 H   0  0  0  0  0  0  0  0  0  0  0  0
   48.7005   33.6847   40.2198 H   0  0  0  0  0  0  0  0  0  0  0  0
   49.5351   35.8309   40.1013 H   0  0  0  0  0  0  0  0  0  0  0  0
   48.0448   36.5046   40.9172 H   0  0  0  0  0  0  0  0  0  0  0  0
   50.4862   35.4620   42.0480 H   0  0  0  0  0  0  0  0  0  0  0  0
   49.1007   36.4090   42.7813 H   0  0  0  0  0  0  0  0  0  0  0  0
   49.3886   33.4160   42.5267 H   0  0  0  0  0  0  0  0  0  0  0  0
   49.2910   34.3953   44.0135 H   0  0  0  0  0  0  0  0  0  0  0  0
   46.9835   35.2494   43.0920 H   0  0  0  0  0  0  0  0  0  0  0  0
   45.6211   35.1399   44.6833 H   0  0  0  0  0  0  0  0  0  0  0  0
   44.8480   33.4325   46.4885 H   0  0  0  0  0  0  0  0  0  0  0  0
   45.4465   30.6810   47.0908 H   0  0  0  0  0  0  0  0  0  0  0  0
   46.8453   28.8027   46.2440 H   0  0  0  0  0  0  0  0  0  0  0  0
   48.3134   29.1153   44.2593 H   0  0  0  0  0  0  0  0  0  0  0  0
   48.3971   31.3250   43.0960 H   0  0  0  0  0  0  0  0  0  0  0  0
   43.4572   36.6069   42.1107 H   0  0  0  0  0  0  0  0  0  0  0  0
   41.9742   35.2399   40.5758 H   0  0  0  0  0  0  0  0  0  0  0  0
   43.0006   33.1793   39.4816 H   0  0  0  0  0  0  0  0  0  0  0  0
  1  6  1  0
  2  3  1  0
  2  1  1  0
  3  4  1  0
  4  5  1  0
  6  5  1  0
  6  7  1  0
  7 15  1  0
  7  8  2  0
  8  9  1  0
 10  9  1  0
 10 11  2  0
 12 11  1  0
 13 12  2  0
 14 15  2  0
 14 13  1  0
 15 10  1  0
 16 21  2  0
 17 16  1  0
 18 19  1  0
 18 17  2  0
 19 20  2  0
 20  1  1  0
 20 21  1  0
  1 22  1  1
  2 23  1  0
  2 24  1  0
  3 25  1  0
  3 26  1  0
  4 27  1  0
  4 28  1  0
  5 29  1  0
  5 30  1  0
  6 31  1  1
  8 32  1  0
  9 33  1  0
 11 34  1  0
 12 35  1  0
 13 36  1  0
 14 37  1  0
 16 38  1  0
 17 39  1  0
 18 40  1  0
M  ISO  8  22  13  23  13  24  13  25  13  26  13  27  13  28  13  29  13
M  ISO  8  30  13  31  13  32  14  33   9  34  14  35  14  36  14  37  14
M  ISO  3  38  14  39  14  40  14
M  END
>  <minimizedAffinity>  (1) 
-6.01129818

>  <minimizedRMSD>  (1) 
3.06101584

$$$$
