
     RDKit          3D

 26 27  0  0  0  0  0  0  0  0999 V2000
   45.3580   34.2580   45.4770 C   0  0  0  0  0  0  0  0  0  0  0  0
   44.5710   35.4020   45.2360 C   0  0  0  0  0  0  0  0  0  0  0  0
   44.7580   36.0800   44.0250 C   0  0  0  0  0  0  0  0  0  0  0  0
   45.6900   35.5920   43.1510 N   0  0  0  0  0  0  0  0  0  0  0  0
   46.4220   34.4970   43.4160 C   0  0  0  0  0  0  0  0  0  0  0  0
   46.2540   33.8310   44.5790 N   0  0  0  0  0  0  0  0  0  0  0  0
   47.4240   34.0160   42.4170 C   0  0  0  0  0  0  0  0  0  0  0  0
   48.1680   35.1730   41.8060 C   0  0  0  0  0  0  0  0  0  0  0  0
   49.5640   35.3650   42.2920 C   0  0  0  0  0  0  0  0  0  0  0  0
   50.3520   34.0960   42.3920 C   0  0  0  0  0  0  0  0  0  0  0  0
   49.5320   32.8460   42.1880 C   0  0  0  0  0  0  0  0  0  0  0  0
   48.2910   32.9800   43.0500 C   0  0  0  0  0  0  0  0  0  0  0  0
   45.2336   33.7060   46.4203 H   0  0  0  0  0  0  0  0  0  0  0  0
   43.8343   35.7508   45.9746 H   0  0  0  0  0  0  0  0  0  0  0  0
   44.1722   36.9792   43.7836 H   0  0  0  0  0  0  0  0  0  0  0  0
   46.9237   33.5266   41.5684 H   0  0  0  0  0  0  0  0  0  0  0  0
   47.6038   36.0919   42.0235 H   0  0  0  0  0  0  0  0  0  0  0  0
   48.2496   34.9473   40.7325 H   0  0  0  0  0  0  0  0  0  0  0  0
   50.0829   36.0409   41.5964 H   0  0  0  0  0  0  0  0  0  0  0  0
   49.4938   35.7780   43.3091 H   0  0  0  0  0  0  0  0  0  0  0  0
   51.1431   34.1191   41.6280 H   0  0  0  0  0  0  0  0  0  0  0  0
   50.7523   34.0501   43.4155 H   0  0  0  0  0  0  0  0  0  0  0  0
   49.2476   32.7500   41.1297 H   0  0  0  0  0  0  0  0  0  0  0  0
   50.1073   31.9509   42.4670 H   0  0  0  0  0  0  0  0  0  0  0  0
   48.5705   33.2925   44.0670 H   0  0  0  0  0  0  0  0  0  0  0  0
   47.7609   32.0189   43.1234 H   0  0  0  0  0  0  0  0  0  0  0  0
  2  1  2  0
  3  2  1  0
  4  5  1  0
  4  3  2  0
  5  6  2  0
  6  1  1  0
  7 12  1  0
  7  5  1  0
  8  9  1  0
  8  7  1  0
  9 10  1  0
 11 10  1  0
 11 12  1  0
  1 13  1  0
  2 14  1  0
  3 15  1  0
  7 16  1  0
  8 17  1  0
  8 18  1  0
  9 19  1  0
  9 20  1  0
 10 21  1  0
 10 22  1  0
 11 23  1  0
 11 24  1  0
 12 25  1  0
 12 26  1  0
M  ISO  8  13  14  14  14  15  14  16  13  17  13  18  13  19  13  20  13
M  ISO  6  21  13  22  13  23  13  24  13  25  13  26  13
M  END
>  <minimizedAffinity>  (1) 
-4.73710632

>  <minimizedRMSD>  (1) 
5.07920885

$$$$
