
     RDKit          3D

 37 40  0  0  1  0  0  0  0  0999 V2000
   47.6880   34.6120   41.7950 C   0  0  1  0  0  0  0  0  0  0  0  0
   49.0210   35.1760   42.2350 C   0  0  0  0  0  0  0  0  0  0  0  0
   50.0490   34.1930   42.6370 C   0  0  0  0  0  0  0  0  0  0  0  0
   50.1350   33.0070   41.7230 C   0  0  0  0  0  0  0  0  0  0  0  0
   49.0360   32.9230   40.7090 C   0  0  0  0  0  0  0  0  0  0  0  0
   47.7260   33.1860   41.4350 C   0  0  2  0  0  0  0  0  0  0  0  0
   46.5930   32.7220   40.7200 N   0  0  0  0  0  0  0  0  0  0  0  0
   45.5190   32.0440   41.1870 C   0  0  0  0  0  0  0  0  0  0  0  0
   44.6670   31.7970   40.1590 N   0  0  0  0  0  0  0  0  0  0  0  0
   45.1870   32.3070   39.0480 C   0  0  0  0  0  0  0  0  0  0  0  0
   44.8520   32.4030   37.7110 C   0  0  0  0  0  0  0  0  0  0  0  0
   45.6250   33.0130   36.7880 N   0  0  0  0  0  0  0  0  0  0  0  0
   46.8070   33.5720   37.1700 C   0  0  0  0  0  0  0  0  0  0  0  0
   47.1680   33.5010   38.4580 N   0  0  0  0  0  0  0  0  0  0  0  0
   46.3910   32.8880   39.3930 C   0  0  0  0  0  0  0  0  0  0  0  0
   45.6980   34.2070   44.9010 C   0  0  0  0  0  0  0  0  0  0  0  0
   44.7510   35.2610   44.7880 C   0  0  0  0  0  0  0  0  0  0  0  0
   44.8220   36.0910   43.6480 C   0  0  0  0  0  0  0  0  0  0  0  0
   45.7920   35.8440   42.7100 N   0  0  0  0  0  0  0  0  0  0  0  0
   46.6650   34.8290   42.8700 C   0  0  0  0  0  0  0  0  0  0  0  0
   46.6250   34.0110   43.9570 N   0  0  0  0  0  0  0  0  0  0  0  0
   47.4176   35.1552   40.8775 H   0  0  0  0  0  0  0  0  0  0  0  0
   49.4283   35.7636   41.3991 H   0  0  0  0  0  0  0  0  0  0  0  0
   48.8062   35.7619   43.1409 H   0  0  0  0  0  0  0  0  0  0  0  0
   51.0269   34.6965   42.6464 H   0  0  0  0  0  0  0  0  0  0  0  0
   49.7636   33.8153   43.6299 H   0  0  0  0  0  0  0  0  0  0  0  0
   51.0942   33.0554   41.1867 H   0  0  0  0  0  0  0  0  0  0  0  0
   50.0423   32.1145   42.3593 H   0  0  0  0  0  0  0  0  0  0  0  0
   49.0195   31.9214   40.2546 H   0  0  0  0  0  0  0  0  0  0  0  0
   49.1903   33.6601   39.9072 H   0  0  0  0  0  0  0  0  0  0  0  0
   47.6800   32.5959   42.3622 H   0  0  0  0  0  0  0  0  0  0  0  0
   45.3613   31.7412   42.2327 H   0  0  0  0  0  0  0  0  0  0  0  0
   43.9022   31.9574   37.3804 H   0  0  0  0  0  0  0  0  0  0  0  0
   47.4534   34.0727   36.4341 H   0  0  0  0  0  0  0  0  0  0  0  0
   45.6680   33.5430   45.7775 H   0  0  0  0  0  0  0  0  0  0  0  0
   43.9879   35.4246   45.5632 H   0  0  0  0  0  0  0  0  0  0  0  0
   44.1123   36.9207   43.5144 H   0  0  0  0  0  0  0  0  0  0  0  0
  1  2  1  0
  1 20  1  0
  2  3  1  0
  4  3  1  0
  5  6  1  0
  5  4  1  0
  6  1  1  0
  7  8  1  0
  7  6  1  0
  9  8  2  0
 10 15  2  0
 10  9  1  0
 11 10  1  0
 12 13  1  0
 12 11  2  0
 13 14  2  0
 14 15  1  0
 15  7  1  0
 17 16  2  0
 18 17  1  0
 19 20  1  0
 19 18  2  0
 20 21  2  0
 21 16  1  0
  1 22  1  6
  2 23  1  0
  2 24  1  0
  3 25  1  0
  3 26  1  0
  4 27  1  0
  4 28  1  0
  5 29  1  0
  5 30  1  0
  6 31  1  1
  8 32  1  0
 11 33  1  0
 13 34  1  0
 16 35  1  0
 17 36  1  0
 18 37  1  0
M  ISO  8  22  13  23  13  24  13  25  13  26  13  27  13  28  13  29  13
M  ISO  8  30  13  31  13  32  14  33  14  34  14  35  14  36  14  37  14
M  END
>  <minimizedAffinity>  (1) 
-5.31865358

>  <minimizedRMSD>  (1) 
3.38552928

$$$$
