
     RDKit          3D

 41 43  0  0  1  0  0  0  0  0999 V2000
   47.3980   34.0350   41.7180 C   0  0  1  0  0  0  0  0  0  0  0  0
   48.1290   34.9490   40.7530 C   0  0  0  0  0  0  0  0  0  0  0  0
   49.0810   35.8960   41.3740 C   0  0  0  0  0  0  0  0  0  0  0  0
   49.9600   35.2560   42.4040 C   0  0  0  0  0  0  0  0  0  0  0  0
   49.5320   33.8820   42.8260 C   0  0  0  0  0  0  0  0  0  0  0  0
   48.0340   33.9410   43.0480 C   0  0  2  0  0  0  0  0  0  0  0  0
   44.4320   35.9820   42.7900 C   0  0  0  0  0  0  0  0  0  0  0  0
   43.3660   35.2790   42.1740 C   0  0  0  0  0  0  0  0  0  0  0  0
   43.6930   34.1490   41.3930 C   0  0  0  0  0  0  0  0  0  0  0  0
   45.0170   33.7880   41.2690 N   0  0  0  0  0  0  0  0  0  0  0  0
   45.9800   34.4910   41.8760 C   0  0  0  0  0  0  0  0  0  0  0  0
   45.6980   35.5860   42.6360 N   0  0  0  0  0  0  0  0  0  0  0  0
   47.5180   32.9530   43.8990 N   0  0  0  0  0  0  0  0  0  0  0  0
   46.5650   33.3200   44.8810 C   0  0  0  0  0  0  0  0  0  0  0  0
   46.2920   32.1880   45.8240 C   0  0  0  0  0  0  0  0  0  0  0  0
   46.1460   30.8460   45.2070 C   0  0  0  0  0  0  0  0  0  0  0  0
   47.2940   30.6080   44.2170 C   0  0  0  0  0  0  0  0  0  0  0  0
   47.1510   31.7300   43.2100 C   0  0  0  0  0  0  0  0  0  0  0  0
   47.4389   33.0282   41.2767 H   0  0  0  0  0  0  0  0  0  0  0  0
   47.3767   35.5348   40.2044 H   0  0  0  0  0  0  0  0  0  0  0  0
   48.7319   34.2910   40.1099 H   0  0  0  0  0  0  0  0  0  0  0  0
   49.7187   36.3196   40.5841 H   0  0  0  0  0  0  0  0  0  0  0  0
   48.4881   36.6694   41.8842 H   0  0  0  0  0  0  0  0  0  0  0  0
   50.9772   35.1864   41.9911 H   0  0  0  0  0  0  0  0  0  0  0  0
   49.8998   35.8896   43.3012 H   0  0  0  0  0  0  0  0  0  0  0  0
   49.7699   33.1522   42.0381 H   0  0  0  0  0  0  0  0  0  0  0  0
   50.0554   33.5684   43.7413 H   0  0  0  0  0  0  0  0  0  0  0  0
   47.7828   34.8401   43.6299 H   0  0  0  0  0  0  0  0  0  0  0  0
   44.2128   36.8676   43.4045 H   0  0  0  0  0  0  0  0  0  0  0  0
   42.3221   35.6021   42.2999 H   0  0  0  0  0  0  0  0  0  0  0  0
   42.9049   33.5673   40.8925 H   0  0  0  0  0  0  0  0  0  0  0  0
   46.9509   34.1772   45.4522 H   0  0  0  0  0  0  0  0  0  0  0  0
   45.6257   33.5827   44.3724 H   0  0  0  0  0  0  0  0  0  0  0  0
   47.1246   32.1396   46.5412 H   0  0  0  0  0  0  0  0  0  0  0  0
   45.3163   32.4117   46.2801 H   0  0  0  0  0  0  0  0  0  0  0  0
   46.1745   30.0766   45.9926 H   0  0  0  0  0  0  0  0  0  0  0  0
   45.1857   30.7914   44.6734 H   0  0  0  0  0  0  0  0  0  0  0  0
   48.2671   30.6625   44.7269 H   0  0  0  0  0  0  0  0  0  0  0  0
   47.2497   29.6130   43.7500 H   0  0  0  0  0  0  0  0  0  0  0  0
   46.1117   31.7914   42.8549 H   0  0  0  0  0  0  0  0  0  0  0  0
   47.7925   31.5605   42.3327 H   0  0  0  0  0  0  0  0  0  0  0  0
  1 11  1  0
  1  6  1  0
  2  3  1  0
  2  1  1  0
  3  4  1  0
  4  5  1  0
  5  6  1  0
  6 13  1  0
  8  7  2  0
  9  8  1  0
 10  9  2  0
 10 11  1  0
 11 12  2  0
 12  7  1  0
 13 14  1  0
 14 15  1  0
 16 15  1  0
 17 16  1  0
 18 13  1  0
 18 17  1  0
  1 19  1  6
  2 20  1  0
  2 21  1  0
  3 22  1  0
  3 23  1  0
  4 24  1  0
  4 25  1  0
  5 26  1  0
  5 27  1  0
  6 28  1  1
  7 29  1  0
  8 30  1  0
  9 31  1  0
 14 32  1  0
 14 33  1  0
 15 34  1  0
 15 35  1  0
 16 36  1  0
 16 37  1  0
 17 38  1  0
 17 39  1  0
 18 40  1  0
 18 41  1  0
M  ISO  8  19  13  20  13  21  13  22  13  23  13  24  13  25  13  26  13
M  ISO  8  27  13  28  13  29  14  30  14  31  14  32  13  33  13  34  13
M  ISO  7  35  13  36  13  37  13  38  13  39  13  40  13  41  13
M  END
>  <minimizedAffinity>  (1) 
-5.2193284

>  <minimizedRMSD>  (1) 
2.04109979

$$$$
