
     RDKit          3D

 38 39  0  0  1  0  0  0  0  0999 V2000
   47.4530   34.0170   42.4260 C   0  0  1  0  0  0  0  0  0  0  0  0
   48.1830   35.1990   41.8080 C   0  0  0  0  0  0  0  0  0  0  0  0
   49.5650   35.3860   42.2810 C   0  0  0  0  0  0  0  0  0  0  0  0
   50.3660   34.1470   42.4350 C   0  0  0  0  0  0  0  0  0  0  0  0
   49.5850   32.9040   42.1620 C   0  0  0  0  0  0  0  0  0  0  0  0
   48.2790   32.9440   42.9650 C   0  0  2  0  0  0  0  0  0  0  0  0
   45.4170   34.2630   45.5070 C   0  0  0  0  0  0  0  0  0  0  0  0
   44.5790   35.3770   45.2150 C   0  0  0  0  0  0  0  0  0  0  0  0
   44.7400   36.0310   43.9700 C   0  0  0  0  0  0  0  0  0  0  0  0
   45.6980   35.5570   43.1070 N   0  0  0  0  0  0  0  0  0  0  0  0
   46.4580   34.5070   43.4290 C   0  0  0  0  0  0  0  0  0  0  0  0
   46.3410   33.8620   44.5910 N   0  0  0  0  0  0  0  0  0  0  0  0
   47.7530   31.5260   42.7310 C   0  0  0  0  0  0  0  0  0  0  0  0
   47.5810   30.8740   44.0850 C   0  0  0  0  0  0  0  0  0  0  0  0
   46.4810   31.4350   41.9810 C   0  0  0  0  0  0  0  0  0  0  0  0
   48.7670   30.6800   41.9870 C   0  0  0  0  0  0  0  0  0  0  0  0
   46.9455   33.5263   41.5824 H   0  0  0  0  0  0  0  0  0  0  0  0
   47.6150   36.1118   42.0406 H   0  0  0  0  0  0  0  0  0  0  0  0
   48.2496   34.9929   40.7295 H   0  0  0  0  0  0  0  0  0  0  0  0
   50.0835   36.0362   41.5609 H   0  0  0  0  0  0  0  0  0  0  0  0
   49.4807   35.8156   43.2901 H   0  0  0  0  0  0  0  0  0  0  0  0
   51.2129   34.1888   41.7342 H   0  0  0  0  0  0  0  0  0  0  0  0
   50.6985   34.1007   43.4825 H   0  0  0  0  0  0  0  0  0  0  0  0
   49.3551   32.8421   41.0881 H   0  0  0  0  0  0  0  0  0  0  0  0
   50.1747   32.0239   42.4581 H   0  0  0  0  0  0  0  0  0  0  0  0
   48.3395   33.1665   44.0406 H   0  0  0  0  0  0  0  0  0  0  0  0
   45.3185   33.7310   46.4647 H   0  0  0  0  0  0  0  0  0  0  0  0
   43.8254   35.7206   45.9389 H   0  0  0  0  0  0  0  0  0  0  0  0
   44.1150   36.8953   43.7008 H   0  0  0  0  0  0  0  0  0  0  0  0
   47.7761   31.6136   44.8755 H   0  0  0  0  0  0  0  0  0  0  0  0
   46.5525   30.4962   44.1821 H   0  0  0  0  0  0  0  0  0  0  0  0
   48.2893   30.0380   44.1821 H   0  0  0  0  0  0  0  0  0  0  0  0
   45.6413   31.3749   42.6891 H   0  0  0  0  0  0  0  0  0  0  0  0
   46.3639   32.3271   41.3481 H   0  0  0  0  0  0  0  0  0  0  0  0
   46.4920   30.5353   41.3481 H   0  0  0  0  0  0  0  0  0  0  0  0
   49.4032   30.1492   42.7106 H   0  0  0  0  0  0  0  0  0  0  0  0
   48.2415   29.9488   41.3552 H   0  0  0  0  0  0  0  0  0  0  0  0
   49.3922   31.3280   41.3552 H   0  0  0  0  0  0  0  0  0  0  0  0
  1  6  1  0
  1 11  1  0
  2  3  1  0
  2  1  1  0
  3  4  1  0
  5  4  1  0
  5  6  1  0
  8  7  2  0
  9  8  1  0
 10 11  1  0
 10  9  2  0
 11 12  2  0
 12  7  1  0
 13  6  1  0
 13 14  1  0
 15 13  1  0
 16 13  1  0
  1 17  1  6
  2 18  1  0
  2 19  1  0
  3 20  1  0
  3 21  1  0
  4 22  1  0
  4 23  1  0
  5 24  1  0
  5 25  1  0
  6 26  1  1
  7 27  1  0
  8 28  1  0
  9 29  1  0
 14 30  1  0
 14 31  1  0
 14 32  1  0
 15 33  1  0
 15 34  1  0
 15 35  1  0
 16 36  1  0
 16 37  1  0
 16 38  1  0
M  ISO  8  17  13  18  13  19  13  20  13  21  13  22  13  23  13  24  13
M  ISO  8  25  13  26  13  27  14  28  14  29  14  30   8  31   8  32   8
M  ISO  6  33   8  34   8  35   8  36   8  37   8  38   8
M  END
>  <minimizedAffinity>  (1) 
-4.98812628

>  <minimizedRMSD>  (1) 
0.192140415

$$$$
