
     RDKit          3D

 36 38  0  0  1  0  0  0  0  0999 V2000
   47.4430   34.0230   42.3570 C   0  0  1  0  0  0  0  0  0  0  0  0
   48.2820   35.1920   41.8860 C   0  0  0  0  0  0  0  0  0  0  0  0
   49.6620   35.2720   42.4120 C   0  0  0  0  0  0  0  0  0  0  0  0
   50.3750   33.9510   42.3950 C   0  0  0  0  0  0  0  0  0  0  0  0
   49.4920   32.7790   42.0850 C   0  0  0  0  0  0  0  0  0  0  0  0
   48.2380   32.9250   42.9340 C   0  0  2  0  0  0  0  0  0  0  0  0
   45.4440   34.2730   45.4760 C   0  0  0  0  0  0  0  0  0  0  0  0
   44.6030   35.3850   45.2100 C   0  0  0  0  0  0  0  0  0  0  0  0
   44.7470   36.0280   43.9600 C   0  0  0  0  0  0  0  0  0  0  0  0
   45.6720   35.5550   43.0880 N   0  0  0  0  0  0  0  0  0  0  0  0
   46.4500   34.4910   43.3890 C   0  0  0  0  0  0  0  0  0  0  0  0
   46.3360   33.8470   44.5850 N   0  0  0  0  0  0  0  0  0  0  0  0
   47.5400   31.6770   43.1600 C   0  0  0  0  0  0  0  0  0  0  0  0
   47.7170   30.8960   44.2880 C   0  0  0  0  0  0  0  0  0  0  0  0
   47.0740   29.7100   44.5380 C   0  0  0  0  0  0  0  0  0  0  0  0
   46.1820   29.2370   43.6130 C   0  0  0  0  0  0  0  0  0  0  0  0
   45.9610   29.9770   42.4580 C   0  0  0  0  0  0  0  0  0  0  0  0
   46.6300   31.1700   42.2430 C   0  0  0  0  0  0  0  0  0  0  0  0
   46.9358   33.6293   41.4638 H   0  0  0  0  0  0  0  0  0  0  0  0
   48.3457   35.1364   40.7893 H   0  0  0  0  0  0  0  0  0  0  0  0
   47.7728   36.0878   42.2710 H   0  0  0  0  0  0  0  0  0  0  0  0
   50.2306   35.9849   41.7968 H   0  0  0  0  0  0  0  0  0  0  0  0
   49.5954   35.5959   43.4611 H   0  0  0  0  0  0  0  0  0  0  0  0
   51.1675   33.9966   41.6335 H   0  0  0  0  0  0  0  0  0  0  0  0
   50.7675   33.7909   43.4100 H   0  0  0  0  0  0  0  0  0  0  0  0
   49.2267   32.7787   41.0175 H   0  0  0  0  0  0  0  0  0  0  0  0
   50.0064   31.8324   42.3070 H   0  0  0  0  0  0  0  0  0  0  0  0
   48.4951   33.2020   43.9670 H   0  0  0  0  0  0  0  0  0  0  0  0
   45.3565   33.7515   46.4405 H   0  0  0  0  0  0  0  0  0  0  0  0
   43.8667   35.7332   45.9493 H   0  0  0  0  0  0  0  0  0  0  0  0
   44.1216   36.8946   43.6994 H   0  0  0  0  0  0  0  0  0  0  0  0
   48.4302   31.2544   45.0449 H   0  0  0  0  0  0  0  0  0  0  0  0
   47.2713   29.1498   45.4639 H   0  0  0  0  0  0  0  0  0  0  0  0
   45.6503   28.2888   43.7812 H   0  0  0  0  0  0  0  0  0  0  0  0
   45.2465   29.6110   41.7060 H   0  0  0  0  0  0  0  0  0  0  0  0
   46.4345   31.7325   41.3181 H   0  0  0  0  0  0  0  0  0  0  0  0
  1  6  1  0
  1 11  1  0
  2  1  1  0
  2  3  1  0
  4  3  1  0
  5  4  1  0
  5  6  1  0
  6 13  1  0
  8  7  2  0
  9  8  1  0
 10 11  1  0
 10  9  2  0
 11 12  2  0
 12  7  1  0
 13 14  2  0
 14 15  1  0
 16 15  2  0
 17 16  1  0
 18 17  2  0
 18 13  1  0
  1 19  1  6
  2 20  1  0
  2 21  1  0
  3 22  1  0
  3 23  1  0
  4 24  1  0
  4 25  1  0
  5 26  1  0
  5 27  1  0
  6 28  1  1
  7 29  1  0
  8 30  1  0
  9 31  1  0
 14 32  1  0
 15 33  1  0
 16 34  1  0
 17 35  1  0
 18 36  1  0
M  ISO  8  19  13  20  13  21  13  22  13  23  13  24  13  25  13  26  13
M  ISO  8  27  13  28  13  29  14  30  14  31  14  32  14  33  14  34  14
M  ISO  2  35  14  36  14
M  END
>  <minimizedAffinity>  (1) 
-5.03033686

>  <minimizedRMSD>  (1) 
0.517252207

$$$$
