
     RDKit          3D

 31 33  0  0  1  0  0  0  0  0999 V2000
   47.4290   34.0450   42.3860 C   0  0  1  0  0  0  0  0  0  0  0  0
   48.1320   35.1920   41.6890 C   0  0  0  0  0  0  0  0  0  0  0  0
   49.5010   35.4980   42.1490 C   0  0  0  0  0  0  0  0  0  0  0  0
   50.3470   34.2930   42.4300 C   0  0  0  0  0  0  0  0  0  0  0  0
   49.6040   33.0010   42.2660 C   0  0  0  0  0  0  0  0  0  0  0  0
   48.3250   33.1070   43.0890 C   0  0  2  0  0  0  0  0  0  0  0  0
   45.2570   34.4130   45.3710 C   0  0  0  0  0  0  0  0  0  0  0  0
   44.5000   35.5720   45.0600 C   0  0  0  0  0  0  0  0  0  0  0  0
   44.7600   36.2050   43.8280 C   0  0  0  0  0  0  0  0  0  0  0  0
   45.7180   35.6810   42.9950 N   0  0  0  0  0  0  0  0  0  0  0  0
   46.4050   34.5720   43.3500 C   0  0  0  0  0  0  0  0  0  0  0  0
   46.1770   33.9400   44.5330 N   0  0  0  0  0  0  0  0  0  0  0  0
   47.8070   31.7230   43.1790 C   0  0  0  0  0  0  0  0  0  0  0  0
   47.1150   31.0800   42.1940 N   0  0  0  0  0  0  0  0  0  0  0  0
   46.8190   29.8880   42.6150 O   0  0  0  0  0  0  0  0  0  0  0  0
   47.2880   29.7310   43.8240 C   0  0  0  0  0  0  0  0  0  0  0  0
   47.9200   30.8590   44.2260 N   0  0  0  0  0  0  0  0  0  0  0  0
   46.9524   33.4672   41.5804 H   0  0  0  0  0  0  0  0  0  0  0  0
   47.5210   36.0955   41.8316 H   0  0  0  0  0  0  0  0  0  0  0  0
   48.2391   34.8761   40.6408 H   0  0  0  0  0  0  0  0  0  0  0  0
   49.9998   36.0938   41.3704 H   0  0  0  0  0  0  0  0  0  0  0  0
   49.3972   36.0363   43.1027 H   0  0  0  0  0  0  0  0  0  0  0  0
   51.2013   34.2958   41.7371 H   0  0  0  0  0  0  0  0  0  0  0  0
   50.6680   34.3555   43.4803 H   0  0  0  0  0  0  0  0  0  0  0  0
   49.3576   32.8402   41.2061 H   0  0  0  0  0  0  0  0  0  0  0  0
   50.2169   32.1530   42.6056 H   0  0  0  0  0  0  0  0  0  0  0  0
   48.4512   33.5003   44.1085 H   0  0  0  0  0  0  0  0  0  0  0  0
   45.0800   33.8943   46.3247 H   0  0  0  0  0  0  0  0  0  0  0  0
   43.7399   35.9613   45.7534 H   0  0  0  0  0  0  0  0  0  0  0  0
   44.2025   37.1076   43.5372 H   0  0  0  0  0  0  0  0  0  0  0  0
   47.1847   28.8168   44.4269 H   0  0  0  0  0  0  0  0  0  0  0  0
  1  6  1  0
  1 11  1  0
  2  3  1  0
  2  1  1  0
  3  4  1  0
  5  4  1  0
  5  6  1  0
  6 13  1  0
  8  7  2  0
  9  8  1  0
 10 11  1  0
 10  9  2  0
 11 12  2  0
 12  7  1  0
 13 17  1  0
 14 15  1  0
 14 13  2  0
 15 16  1  0
 16 17  2  0
  1 18  1  6
  2 19  1  0
  2 20  1  0
  3 21  1  0
  3 22  1  0
  4 23  1  0
  4 24  1  0
  5 25  1  0
  5 26  1  0
  6 27  1  1
  7 28  1  0
  8 29  1  0
  9 30  1  0
 16 31  1  0
M  ISO  8  18  13  19  13  20  13  21  13  22  13  23  13  24  13  25  13
M  ISO  6  26  13  27  13  28  14  29  14  30  14  31  14
M  END
>  <minimizedAffinity>  (1) 
-4.96660948

>  <minimizedRMSD>  (1) 
0.331929177

$$$$
