
     RDKit          3D

 35 37  0  0  1  0  0  0  0  0999 V2000
   47.4240   33.9990   42.4370 C   0  0  1  0  0  0  0  0  0  0  0  0
   48.1710   35.1630   41.8250 C   0  0  0  0  0  0  0  0  0  0  0  0
   49.5560   35.3800   42.3000 C   0  0  0  0  0  0  0  0  0  0  0  0
   50.3540   34.1160   42.4120 C   0  0  0  0  0  0  0  0  0  0  0  0
   49.5500   32.8660   42.2150 C   0  0  0  0  0  0  0  0  0  0  0  0
   48.3020   32.9930   43.0690 C   0  0  2  0  0  0  0  0  0  0  0  0
   45.3820   34.2890   45.5220 C   0  0  0  0  0  0  0  0  0  0  0  0
   44.5740   35.4160   45.2200 C   0  0  0  0  0  0  0  0  0  0  0  0
   44.7320   36.0660   43.9780 C   0  0  0  0  0  0  0  0  0  0  0  0
   45.6700   35.5600   43.1330 N   0  0  0  0  0  0  0  0  0  0  0  0
   46.4190   34.5000   43.4350 C   0  0  0  0  0  0  0  0  0  0  0  0
   46.2840   33.8620   44.6200 N   0  0  0  0  0  0  0  0  0  0  0  0
   47.6580   31.7180   43.3420 C   0  0  0  0  0  0  0  0  0  0  0  0
   46.9090   31.1250   42.3280 C   0  0  0  0  0  0  0  0  0  0  0  0
   46.2600   29.9170   42.4850 C   0  0  0  0  0  0  0  0  0  0  0  0
   46.3520   29.2590   43.7010 C   0  0  0  0  0  0  0  0  0  0  0  0
   47.1000   29.8710   44.6860 C   0  0  0  0  0  0  0  0  0  0  0  0
   47.7350   31.0670   44.5120 N   0  0  0  0  0  0  0  0  0  0  0  0
   46.9167   33.4883   41.6052 H   0  0  0  0  0  0  0  0  0  0  0  0
   47.5974   36.0773   42.0372 H   0  0  0  0  0  0  0  0  0  0  0  0
   48.2637   34.9207   40.7560 H   0  0  0  0  0  0  0  0  0  0  0  0
   50.0652   36.0520   41.5935 H   0  0  0  0  0  0  0  0  0  0  0  0
   49.4882   35.8107   43.3099 H   0  0  0  0  0  0  0  0  0  0  0  0
   51.1478   34.1399   41.6509 H   0  0  0  0  0  0  0  0  0  0  0  0
   50.7502   34.0804   43.4375 H   0  0  0  0  0  0  0  0  0  0  0  0
   49.2723   32.7600   41.1559 H   0  0  0  0  0  0  0  0  0  0  0  0
   50.1319   31.9788   42.5053 H   0  0  0  0  0  0  0  0  0  0  0  0
   48.5715   33.3436   44.0762 H   0  0  0  0  0  0  0  0  0  0  0  0
   45.2716   33.7693   46.4852 H   0  0  0  0  0  0  0  0  0  0  0  0
   43.8323   35.7789   45.9468 H   0  0  0  0  0  0  0  0  0  0  0  0
   44.1246   36.9417   43.7055 H   0  0  0  0  0  0  0  0  0  0  0  0
   46.8315   31.6420   41.3602 H   0  0  0  0  0  0  0  0  0  0  0  0
   45.6789   29.4834   41.6578 H   0  0  0  0  0  0  0  0  0  0  0  0
   45.8523   28.2943   43.8730 H   0  0  0  0  0  0  0  0  0  0  0  0
   47.1892   29.3697   45.6610 H   0  0  0  0  0  0  0  0  0  0  0  0
  1  6  1  0
  1 11  1  0
  2  3  1  0
  2  1  1  0
  3  4  1  0
  5  4  1  0
  5  6  1  0
  6 13  1  0
  8  7  2  0
  9  8  1  0
 10 11  1  0
 10  9  2  0
 11 12  2  0
 12  7  1  0
 13 18  2  0
 14 15  2  0
 14 13  1  0
 15 16  1  0
 16 17  2  0
 18 17  1  0
  1 19  1  6
  2 20  1  0
  2 21  1  0
  3 22  1  0
  3 23  1  0
  4 24  1  0
  4 25  1  0
  5 26  1  0
  5 27  1  0
  6 28  1  1
  7 29  1  0
  8 30  1  0
  9 31  1  0
 14 32  1  0
 15 33  1  0
 16 34  1  0
 17 35  1  0
M  ISO  8  19  13  20  13  21  13  22  13  23  13  24  13  25  13  26  13
M  ISO  8  27  13  28  13  29  14  30  14  31  14  32  14  33  14  34  14
M  ISO  1  35  14
M  END
>  <minimizedAffinity>  (1) 
-5.01503038

>  <minimizedRMSD>  (1) 
0.0701146573

$$$$
