
     RDKit          3D

 33 35  0  0  1  0  0  0  0  0999 V2000
   47.4150   33.9620   42.4730 C   0  0  1  0  0  0  0  0  0  0  0  0
   48.0980   35.1210   41.7760 C   0  0  0  0  0  0  0  0  0  0  0  0
   49.4740   35.4390   42.2210 C   0  0  0  0  0  0  0  0  0  0  0  0
   50.3310   34.2240   42.3710 C   0  0  0  0  0  0  0  0  0  0  0  0
   49.6000   32.9240   42.3080 C   0  0  0  0  0  0  0  0  0  0  0  0
   48.3420   33.0350   43.1530 C   0  0  2  0  0  0  0  0  0  0  0  0
   45.3380   34.2870   45.5290 C   0  0  0  0  0  0  0  0  0  0  0  0
   44.5520   35.4340   45.2410 C   0  0  0  0  0  0  0  0  0  0  0  0
   44.7550   36.0770   44.0010 C   0  0  0  0  0  0  0  0  0  0  0  0
   45.6930   35.5640   43.1480 N   0  0  0  0  0  0  0  0  0  0  0  0
   46.4110   34.4750   43.4690 C   0  0  0  0  0  0  0  0  0  0  0  0
   46.2400   33.8320   44.6550 N   0  0  0  0  0  0  0  0  0  0  0  0
   47.7910   31.6950   43.3620 C   0  0  0  0  0  0  0  0  0  0  0  0
   47.3780   30.8940   42.2950 C   0  0  0  0  0  0  0  0  0  0  0  0
   46.9360   29.7500   42.8600 N   0  0  0  0  0  0  0  0  0  0  0  0
   47.0650   29.8300   44.2030 C   0  0  0  0  0  0  0  0  0  0  0  0
   47.6000   31.0450   44.5150 N   0  0  0  0  0  0  0  0  0  0  0  0
   46.9206   33.3868   41.6763 H   0  0  0  0  0  0  0  0  0  0  0  0
   47.4799   36.0172   41.9334 H   0  0  0  0  0  0  0  0  0  0  0  0
   48.1950   34.8131   40.7244 H   0  0  0  0  0  0  0  0  0  0  0  0
   49.9375   36.1063   41.4795 H   0  0  0  0  0  0  0  0  0  0  0  0
   49.3999   35.9153   43.2098 H   0  0  0  0  0  0  0  0  0  0  0  0
   51.0802   34.2335   41.5656 H   0  0  0  0  0  0  0  0  0  0  0  0
   50.7707   34.2807   43.3777 H   0  0  0  0  0  0  0  0  0  0  0  0
   49.3280   32.7017   41.2656 H   0  0  0  0  0  0  0  0  0  0  0  0
   50.2392   32.1141   42.6894 H   0  0  0  0  0  0  0  0  0  0  0  0
   48.5436   33.4477   44.1525 H   0  0  0  0  0  0  0  0  0  0  0  0
   45.2019   33.7646   46.4874 H   0  0  0  0  0  0  0  0  0  0  0  0
   43.8094   35.8091   45.9606 H   0  0  0  0  0  0  0  0  0  0  0  0
   44.1728   36.9692   43.7273 H   0  0  0  0  0  0  0  0  0  0  0  0
   47.4067   31.1420   41.2237 H   0  0  0  0  0  0  0  0  0  0  0  0
   46.7855   29.0469   44.9232 H   0  0  0  0  0  0  0  0  0  0  0  0
   47.8159   31.3954   45.4592 H   0  0  0  0  0  0  0  0  0  0  0  0
  1  6  1  0
  1 11  1  0
  2  3  1  0
  2  1  1  0
  3  4  1  0
  5  4  1  0
  5  6  1  0
  6 13  1  0
  8  7  2  0
  9  8  1  0
 10 11  1  0
 10  9  2  0
 11 12  2  0
 12  7  1  0
 13 17  1  0
 14 15  1  0
 14 13  2  0
 15 16  2  0
 16 17  1  0
  1 18  1  6
  2 19  1  0
  2 20  1  0
  3 21  1  0
  3 22  1  0
  4 23  1  0
  4 24  1  0
  5 25  1  0
  5 26  1  0
  6 27  1  1
  7 28  1  0
  8 29  1  0
  9 30  1  0
 14 31  1  0
 16 32  1  0
 17 33  1  0
M  ISO  8  18  13  19  13  20  13  21  13  22  13  23  13  24  13  25  13
M  ISO  8  26  13  27  13  28  14  29  14  30  14  31  14  32  14  33   9
M  END
>  <minimizedAffinity>  (1) 
-4.9482975

>  <minimizedRMSD>  (1) 
0.36666435

$$$$
