
     RDKit          3D

 39 41  0  0  1  0  0  0  0  0999 V2000
   47.4360   34.0980   42.2900 C   0  0  1  0  0  0  0  0  0  0  0  0
   48.3270   35.2600   41.9040 C   0  0  0  0  0  0  0  0  0  0  0  0
   49.7050   35.2220   42.4400 C   0  0  0  0  0  0  0  0  0  0  0  0
   50.3530   33.8770   42.3540 C   0  0  0  0  0  0  0  0  0  0  0  0
   49.4100   32.7620   41.9280 C   0  0  0  0  0  0  0  0  0  0  0  0
   48.1680   32.9110   42.7830 C   0  0  2  0  0  0  0  0  0  0  0  0
   45.4500   34.2290   45.4210 C   0  0  0  0  0  0  0  0  0  0  0  0
   44.6100   35.3520   45.2030 C   0  0  0  0  0  0  0  0  0  0  0  0
   44.7480   36.0460   43.9820 C   0  0  0  0  0  0  0  0  0  0  0  0
   45.6790   35.6030   43.0760 N   0  0  0  0  0  0  0  0  0  0  0  0
   46.4470   34.5330   43.3360 C   0  0  0  0  0  0  0  0  0  0  0  0
   46.3400   33.8420   44.5050 N   0  0  0  0  0  0  0  0  0  0  0  0
   47.3920   31.7510   42.9510 N   0  0  0  0  0  0  0  0  0  0  0  0
   48.0500   30.7950   43.7870 C   0  0  0  0  0  0  0  0  0  0  0  0
   47.0790   29.7670   44.3430 C   0  0  0  0  0  0  0  0  0  0  0  0
   45.9520   29.7730   43.5420 O   0  0  0  0  0  0  0  0  0  0  0  0
   46.3440   29.7720   42.2050 C   0  0  0  0  0  0  0  0  0  0  0  0
   46.7490   31.1950   41.8120 C   0  0  0  0  0  0  0  0  0  0  0  0
   46.9266   33.7939   41.3637 H   0  0  0  0  0  0  0  0  0  0  0  0
   48.3927   35.2844   40.8062 H   0  0  0  0  0  0  0  0  0  0  0  0
   47.8601   36.1530   42.3450 H   0  0  0  0  0  0  0  0  0  0  0  0
   50.3171   35.9381   41.8721 H   0  0  0  0  0  0  0  0  0  0  0  0
   49.6387   35.4762   43.5082 H   0  0  0  0  0  0  0  0  0  0  0  0
   51.1733   33.9343   41.6233 H   0  0  0  0  0  0  0  0  0  0  0  0
   50.7040   33.6276   43.3662 H   0  0  0  0  0  0  0  0  0  0  0  0
   49.1546   32.8643   40.8630 H   0  0  0  0  0  0  0  0  0  0  0  0
   49.8723   31.7727   42.0606 H   0  0  0  0  0  0  0  0  0  0  0  0
   48.4730   33.0735   43.8273 H   0  0  0  0  0  0  0  0  0  0  0  0
   45.3659   33.6670   46.3628 H   0  0  0  0  0  0  0  0  0  0  0  0
   43.8772   35.6702   45.9591 H   0  0  0  0  0  0  0  0  0  0  0  0
   44.1226   36.9235   43.7610 H   0  0  0  0  0  0  0  0  0  0  0  0
   48.8189   30.2753   43.1964 H   0  0  0  0  0  0  0  0  0  0  0  0
   48.4988   31.3341   44.6344 H   0  0  0  0  0  0  0  0  0  0  0  0
   47.5422   28.7693   44.3297 H   0  0  0  0  0  0  0  0  0  0  0  0
   46.8132   30.0123   45.3818 H   0  0  0  0  0  0  0  0  0  0  0  0
   47.1990   29.0931   42.0703 H   0  0  0  0  0  0  0  0  0  0  0  0
   45.5130   29.4298   41.5707 H   0  0  0  0  0  0  0  0  0  0  0  0
   47.4401   31.1726   40.9565 H   0  0  0  0  0  0  0  0  0  0  0  0
   45.8757   31.7928   41.5120 H   0  0  0  0  0  0  0  0  0  0  0  0
  1  6  1  0
  1 11  1  0
  2  1  1  0
  2  3  1  0
  4  3  1  0
  5  4  1  0
  5  6  1  0
  6 13  1  0
  8  7  2  0
  9  8  1  0
 10 11  1  0
 10  9  2  0
 11 12  2  0
 12  7  1  0
 13 14  1  0
 14 15  1  0
 16 15  1  0
 17 16  1  0
 18 17  1  0
 18 13  1  0
  1 19  1  6
  2 20  1  0
  2 21  1  0
  3 22  1  0
  3 23  1  0
  4 24  1  0
  4 25  1  0
  5 26  1  0
  5 27  1  0
  6 28  1  1
  7 29  1  0
  8 30  1  0
  9 31  1  0
 14 32  1  0
 14 33  1  0
 15 34  1  0
 15 35  1  0
 17 36  1  0
 17 37  1  0
 18 38  1  0
 18 39  1  0
M  ISO  8  19  13  20  13  21  13  22  13  23  13  24  13  25  13  26  13
M  ISO  8  27  13  28  13  29  14  30  14  31  14  32  13  33  13  34  13
M  ISO  5  35  13  36  13  37  13  38  13  39  13
M  END
>  <minimizedAffinity>  (1) 
-4.89292574

>  <minimizedRMSD>  (1) 
0.644140303

$$$$
