
     RDKit          3D

 32 33  0  0  1  0  0  0  0  0999 V2000
   47.4370   34.0330   42.3820 C   0  0  1  0  0  0  0  0  0  0  0  0
   48.2120   35.2130   41.8410 C   0  0  0  0  0  0  0  0  0  0  0  0
   49.6000   35.3680   42.3320 C   0  0  0  0  0  0  0  0  0  0  0  0
   50.3700   34.0860   42.3990 C   0  0  0  0  0  0  0  0  0  0  0  0
   49.5360   32.8800   42.1000 C   0  0  0  0  0  0  0  0  0  0  0  0
   48.2770   32.9680   42.9630 C   0  0  2  0  0  0  0  0  0  0  0  0
   45.4050   34.2490   45.4790 C   0  0  0  0  0  0  0  0  0  0  0  0
   44.5850   35.3810   45.2250 C   0  0  0  0  0  0  0  0  0  0  0  0
   44.7540   36.0490   43.9920 C   0  0  0  0  0  0  0  0  0  0  0  0
   45.6830   35.5750   43.1240 N   0  0  0  0  0  0  0  0  0  0  0  0
   46.4440   34.5020   43.3940 C   0  0  0  0  0  0  0  0  0  0  0  0
   46.3000   33.8490   44.5670 N   0  0  0  0  0  0  0  0  0  0  0  0
   47.5980   31.6310   43.0500 C   0  0  0  0  0  0  0  0  0  0  0  0
   48.5410   30.5620   43.6130 C   0  0  0  0  0  0  0  0  0  0  0  0
   46.9311   33.5807   41.5163 H   0  0  0  0  0  0  0  0  0  0  0  0
   47.6592   36.1265   42.1054 H   0  0  0  0  0  0  0  0  0  0  0  0
   48.3023   35.0332   40.7596 H   0  0  0  0  0  0  0  0  0  0  0  0
   50.1308   36.0552   41.6567 H   0  0  0  0  0  0  0  0  0  0  0  0
   49.5322   35.7521   43.3605 H   0  0  0  0  0  0  0  0  0  0  0  0
   51.1910   34.1329   41.6684 H   0  0  0  0  0  0  0  0  0  0  0  0
   50.7390   33.9803   43.4298 H   0  0  0  0  0  0  0  0  0  0  0  0
   49.2614   32.8677   41.0349 H   0  0  0  0  0  0  0  0  0  0  0  0
   50.0940   31.9581   42.3207 H   0  0  0  0  0  0  0  0  0  0  0  0
   48.5063   33.2299   44.0065 H   0  0  0  0  0  0  0  0  0  0  0  0
   45.3044   33.7000   46.4269 H   0  0  0  0  0  0  0  0  0  0  0  0
   43.8448   35.7250   45.9624 H   0  0  0  0  0  0  0  0  0  0  0  0
   44.1474   36.9318   43.7416 H   0  0  0  0  0  0  0  0  0  0  0  0
   46.7206   31.7170   43.7079 H   0  0  0  0  0  0  0  0  0  0  0  0
   47.2967   31.3285   42.0362 H   0  0  0  0  0  0  0  0  0  0  0  0
   48.5146   30.5920   44.7123 H   0  0  0  0  0  0  0  0  0  0  0  0
   48.2191   29.5693   43.2654 H   0  0  0  0  0  0  0  0  0  0  0  0
   49.5662   30.7576   43.2654 H   0  0  0  0  0  0  0  0  0  0  0  0
  1  6  1  0
  1 11  1  0
  2  3  1  0
  2  1  1  0
  3  4  1  0
  5  4  1  0
  5  6  1  0
  6 13  1  0
  8  7  2  0
  9  8  1  0
 10 11  1  0
 10  9  2  0
 11 12  2  0
 12  7  1  0
 13 14  1  0
  1 15  1  6
  2 16  1  0
  2 17  1  0
  3 18  1  0
  3 19  1  0
  4 20  1  0
  4 21  1  0
  5 22  1  0
  5 23  1  0
  6 24  1  1
  7 25  1  0
  8 26  1  0
  9 27  1  0
 13 28  1  0
 13 29  1  0
 14 30  1  0
 14 31  1  0
 14 32  1  0
M  ISO  8  15  13  16  13  17  13  18  13  19  13  20  13  21  13  22  13
M  ISO  8  23  13  24  13  25  14  26  14  27  14  28   8  29   8  30   8
M  ISO  2  31   8  32   8
M  END
>  <minimizedAffinity>  (1) 
-4.80641222

>  <minimizedRMSD>  (1) 
0.334727108

$$$$
