
     RDKit          3D

 33 36  0  0  0  0  0  0  0  0999 V2000
   44.6030   35.8300   44.8420 C   0  0  0  0  0  0  0  0  0  0  0  0
   45.1610   35.6410   43.5560 C   0  0  0  0  0  0  0  0  0  0  0  0
   45.9420   34.5010   43.3370 C   0  0  0  0  0  0  0  0  0  0  0  0
   46.1130   33.6500   44.3670 N   0  0  0  0  0  0  0  0  0  0  0  0
   45.5630   33.8550   45.5990 C   0  0  0  0  0  0  0  0  0  0  0  0
   44.8090   34.9390   45.8430 N   0  0  0  0  0  0  0  0  0  0  0  0
   45.7600   32.9450   46.6880 N   0  0  0  0  0  0  0  0  0  0  0  0
   46.8140   32.1250   46.6060 C   0  0  0  0  0  0  0  0  0  0  0  0
   46.8250   31.3370   47.7510 C   0  0  0  0  0  0  0  0  0  0  0  0
   45.7790   31.7110   48.4810 N   0  0  0  0  0  0  0  0  0  0  0  0
   45.1250   32.6820   47.8540 C   0  0  0  0  0  0  0  0  0  0  0  0
   47.8810   30.3210   47.9500 C   0  0  0  0  0  0  0  0  0  0  0  0
   47.8140   29.0450   47.4380 C   0  0  0  0  0  0  0  0  0  0  0  0
   48.7840   28.0890   47.6140 C   0  0  0  0  0  0  0  0  0  0  0  0
   49.9100   28.3790   48.3370 C   0  0  0  0  0  0  0  0  0  0  0  0
   50.0300   29.6390   48.8720 C   0  0  0  0  0  0  0  0  0  0  0  0
   51.1640   29.8990   49.5910 C   0  0  0  0  0  0  0  0  0  0  0  0
   51.3690   31.1350   50.1640 C   0  0  0  0  0  0  0  0  0  0  0  0
   50.3720   32.0940   49.9750 C   0  0  0  0  0  0  0  0  0  0  0  0
   49.2510   31.7730   49.2410 C   0  0  0  0  0  0  0  0  0  0  0  0
   49.0290   30.5500   48.6630 C   0  0  0  0  0  0  0  0  0  0  0  0
   43.9873   36.7210   45.0345 H   0  0  0  0  0  0  0  0  0  0  0  0
   44.9858   36.3697   42.7509 H   0  0  0  0  0  0  0  0  0  0  0  0
   46.4010   34.3062   42.3565 H   0  0  0  0  0  0  0  0  0  0  0  0
   47.5407   32.0822   45.7813 H   0  0  0  0  0  0  0  0  0  0  0  0
   44.2195   33.1875   48.2206 H   0  0  0  0  0  0  0  0  0  0  0  0
   46.9253   28.7733   46.8494 H   0  0  0  0  0  0  0  0  0  0  0  0
   48.6562   27.0891   47.1736 H   0  0  0  0  0  0  0  0  0  0  0  0
   50.6965   27.6245   48.4854 H   0  0  0  0  0  0  0  0  0  0  0  0
   51.9220   29.1113   49.7133 H   0  0  0  0  0  0  0  0  0  0  0  0
   52.2770   31.3563   50.7441 H   0  0  0  0  0  0  0  0  0  0  0  0
   50.4807   33.0989   50.4091 H   0  0  0  0  0  0  0  0  0  0  0  0
   48.4832   32.5497   49.1101 H   0  0  0  0  0  0  0  0  0  0  0  0
  1  6  2  0
  2  1  1  0
  3  2  2  0
  3  4  1  0
  4  5  2  0
  5  6  1  0
  5  7  1  0
  7 11  1  0
  8  7  1  0
  8  9  2  0
  9 12  1  0
  9 10  1  0
 11 10  2  0
 12 21  2  0
 13 14  2  0
 13 12  1  0
 14 15  1  0
 15 16  2  0
 16 17  1  0
 17 18  2  0
 19 18  1  0
 20 19  2  0
 21 16  1  0
 21 20  1  0
  1 22  1  0
  2 23  1  0
  3 24  1  0
  8 25  1  0
 11 26  1  0
 13 27  1  0
 14 28  1  0
 15 29  1  0
 17 30  1  0
 18 31  1  0
 19 32  1  0
 20 33  1  0
M  ISO  8  22  14  23  14  24  14  25  14  26  14  27  14  28  14  29  14
M  ISO  4  30  14  31  14  32  14  33  14
M  END
>  <minimizedAffinity>  (1) 
-6.13556051

>  <minimizedRMSD>  (1) 
0.709690571

$$$$
