
     RDKit          3D

 33 34  0  0  1  0  0  0  0  0999 V2000
   47.4210   34.2340   42.1350 C   0  0  1  0  0  0  0  0  0  0  0  0
   48.4160   35.3440   41.8780 C   0  0  0  0  0  0  0  0  0  0  0  0
   49.7610   35.1690   42.4700 C   0  0  0  0  0  0  0  0  0  0  0  0
   50.3110   33.7900   42.2890 C   0  0  0  0  0  0  0  0  0  0  0  0
   49.3250   32.7950   41.7520 C   0  0  0  0  0  0  0  0  0  0  0  0
   48.0460   32.9670   42.5610 C   0  0  2  0  0  0  0  0  0  0  0  0
   45.3830   34.3350   45.2300 C   0  0  0  0  0  0  0  0  0  0  0  0
   44.5710   35.4780   45.0330 C   0  0  0  0  0  0  0  0  0  0  0  0
   44.7530   36.1950   43.8300 C   0  0  0  0  0  0  0  0  0  0  0  0
   45.6830   35.7610   42.9320 N   0  0  0  0  0  0  0  0  0  0  0  0
   46.4320   34.6680   43.1630 C   0  0  0  0  0  0  0  0  0  0  0  0
   46.2790   33.9570   44.3150 N   0  0  0  0  0  0  0  0  0  0  0  0
   47.2070   31.8270   42.5130 N   0  0  0  0  0  0  0  0  0  0  0  0
   47.0480   30.7880   43.4720 C   0  0  0  0  0  0  0  0  0  0  0  0
   47.5670   31.0710   44.6420 N   0  0  0  0  0  0  0  0  0  0  0  0
   46.3750   29.5860   43.1040 N   0  0  0  0  0  0  0  0  0  0  0  0
   47.5220   30.3960   45.4380 H   0  0  0  0  0  0  0  0  0  0  0  0
   46.9239   34.0363   41.1739 H   0  0  0  0  0  0  0  0  0  0  0  0
   48.5389   35.4384   40.7890 H   0  0  0  0  0  0  0  0  0  0  0  0
   47.9942   36.2348   42.3664 H   0  0  0  0  0  0  0  0  0  0  0  0
   50.4479   35.8843   41.9941 H   0  0  0  0  0  0  0  0  0  0  0  0
   49.6664   35.3431   43.5520 H   0  0  0  0  0  0  0  0  0  0  0  0
   51.1582   33.8466   41.5897 H   0  0  0  0  0  0  0  0  0  0  0  0
   50.6028   33.4348   43.2883 H   0  0  0  0  0  0  0  0  0  0  0  0
   49.1297   32.9913   40.6874 H   0  0  0  0  0  0  0  0  0  0  0  0
   49.7120   31.7688   41.8366 H   0  0  0  0  0  0  0  0  0  0  0  0
   48.2679   33.0416   43.6358 H   0  0  0  0  0  0  0  0  0  0  0  0
   45.2737   33.7477   46.1536 H   0  0  0  0  0  0  0  0  0  0  0  0
   43.8313   35.7935   45.7835 H   0  0  0  0  0  0  0  0  0  0  0  0
   44.1522   37.0922   43.6200 H   0  0  0  0  0  0  0  0  0  0  0  0
   46.6306   31.7374   41.6641 H   0  0  0  0  0  0  0  0  0  0  0  0
   46.2567   28.8302   43.7937 H   0  0  0  0  0  0  0  0  0  0  0  0
   46.0072   29.4736   42.1485 H   0  0  0  0  0  0  0  0  0  0  0  0
  1  6  1  0
  1 11  1  0
  2  1  1  0
  2  3  1  0
  4  3  1  0
  5  4  1  0
  5  6  1  0
  8  7  2  0
  9  8  1  0
 10 11  1  0
 10  9  2  0
 11 12  2  0
 12  7  1  0
 13  6  1  0
 13 14  1  0
 14 15  2  0
 15 17  1  0
 16 14  1  0
  1 18  1  6
  2 19  1  0
  2 20  1  0
  3 21  1  0
  3 22  1  0
  4 23  1  0
  4 24  1  0
  5 25  1  0
  5 26  1  0
  6 27  1  1
  7 28  1  0
  8 29  1  0
  9 30  1  0
 13 31  1  0
 16 32  1  0
 16 33  1  0
M  ISO  8  18  13  19  13  20  13  21  13  22  13  23  13  24  13  25  13
M  ISO  5  26  13  27  13  28  14  29  14  30  14
M  END
>  <minimizedAffinity>  (1) 
-4.79908848

>  <minimizedRMSD>  (1) 
0.896894991

$$$$
