
     RDKit          3D

 27 29  0  0  0  0  0  0  0  0999 V2000
   44.5070   35.8460   44.6800 C   0  0  0  0  0  0  0  0  0  0  0  0
   45.1710   35.7030   43.4560 C   0  0  0  0  0  0  0  0  0  0  0  0
   46.0860   34.6430   43.3380 C   0  0  0  0  0  0  0  0  0  0  0  0
   46.2910   33.8080   44.3880 N   0  0  0  0  0  0  0  0  0  0  0  0
   45.6130   33.9980   45.5580 C   0  0  0  0  0  0  0  0  0  0  0  0
   44.7410   34.9900   45.7060 N   0  0  0  0  0  0  0  0  0  0  0  0
   45.8120   33.1310   46.6790 N   0  0  0  0  0  0  0  0  0  0  0  0
   46.9680   32.4170   46.7090 C   0  0  0  0  0  0  0  0  0  0  0  0
   46.9240   31.6660   47.8770 C   0  0  0  0  0  0  0  0  0  0  0  0
   45.7860   31.9250   48.5180 N   0  0  0  0  0  0  0  0  0  0  0  0
   45.1000   32.8190   47.7930 C   0  0  0  0  0  0  0  0  0  0  0  0
   47.9430   30.7460   48.3380 C   0  0  0  0  0  0  0  0  0  0  0  0
   48.6420   31.0270   49.4950 C   0  0  0  0  0  0  0  0  0  0  0  0
   49.6350   30.2480   50.0540 C   0  0  0  0  0  0  0  0  0  0  0  0
   49.9270   29.0790   49.3490 C   0  0  0  0  0  0  0  0  0  0  0  0
   49.2550   28.7590   48.1930 C   0  0  0  0  0  0  0  0  0  0  0  0
   48.2630   29.5800   47.6740 C   0  0  0  0  0  0  0  0  0  0  0  0
   43.7845   36.6649   44.8119 H   0  0  0  0  0  0  0  0  0  0  0  0
   44.9840   36.3929   42.6199 H   0  0  0  0  0  0  0  0  0  0  0  0
   46.6347   34.4904   42.3969 H   0  0  0  0  0  0  0  0  0  0  0  0
   47.7743   32.4309   45.9609 H   0  0  0  0  0  0  0  0  0  0  0  0
   44.1165   33.2343   48.0579 H   0  0  0  0  0  0  0  0  0  0  0  0
   48.3835   31.9583   50.0202 H   0  0  0  0  0  0  0  0  0  0  0  0
   50.1554   30.5265   50.9822 H   0  0  0  0  0  0  0  0  0  0  0  0
   50.7083   28.4021   49.7249 H   0  0  0  0  0  0  0  0  0  0  0  0
   49.5100   27.8280   47.6655 H   0  0  0  0  0  0  0  0  0  0  0  0
   47.7396   29.3046   46.7465 H   0  0  0  0  0  0  0  0  0  0  0  0
  1  6  2  0
  2  1  1  0
  3  2  2  0
  3  4  1  0
  4  5  2  0
  5  6  1  0
  5  7  1  0
  7  8  1  0
  7 11  1  0
  8  9  2  0
  9 12  1  0
  9 10  1  0
 11 10  2  0
 12 13  2  0
 13 14  1  0
 15 14  2  0
 16 15  1  0
 17 16  2  0
 17 12  1  0
  1 18  1  0
  2 19  1  0
  3 20  1  0
  8 21  1  0
 11 22  1  0
 13 23  1  0
 14 24  1  0
 15 25  1  0
 16 26  1  0
 17 27  1  0
M  ISO  8  18  14  19  14  20  14  21  14  22  14  23  14  24  14  25  14
M  ISO  2  26  14  27  14
M  END
>  <minimizedAffinity>  (1) 
-5.59845448

>  <minimizedRMSD>  (1) 
0.661789

$$$$
