
     RDKit          3D

 31 33  0  0  1  0  0  0  0  0999 V2000
   44.5540   35.7450   44.6470 C   0  0  0  0  0  0  0  0  0  0  0  0
   45.2850   35.5730   43.4720 C   0  0  0  0  0  0  0  0  0  0  0  0
   46.2290   34.5180   43.4410 C   0  0  0  0  0  0  0  0  0  0  0  0
   46.3820   33.7310   44.5330 N   0  0  0  0  0  0  0  0  0  0  0  0
   45.6420   33.9420   45.6560 C   0  0  0  0  0  0  0  0  0  0  0  0
   44.7480   34.9320   45.7040 N   0  0  0  0  0  0  0  0  0  0  0  0
   45.7870   33.1250   46.8200 N   0  0  0  0  0  0  0  0  0  0  0  0
   46.9560   32.4440   46.9370 C   0  0  0  0  0  0  0  0  0  0  0  0
   46.8710   31.7330   48.1220 C   0  0  0  0  0  0  0  0  0  0  0  0
   45.6800   31.9880   48.6930 N   0  0  0  0  0  0  0  0  0  0  0  0
   45.0180   32.8410   47.8920 C   0  0  0  0  0  0  0  0  0  0  0  0
   47.9000   30.8380   48.6880 C   0  0  2  0  0  0  0  0  0  0  0  0
   49.0610   31.6390   49.2660 C   0  0  0  0  0  0  0  0  0  0  0  0
   49.9430   30.7600   50.0710 C   0  0  0  0  0  0  0  0  0  0  0  0
   50.1360   29.3810   49.5590 C   0  0  0  0  0  0  0  0  0  0  0  0
   49.2950   28.9070   48.4430 C   0  0  0  0  0  0  0  0  0  0  0  0
   48.5710   29.9600   47.6480 C   0  0  0  0  0  0  0  0  0  0  0  0
   43.8107   36.5533   44.7118 H   0  0  0  0  0  0  0  0  0  0  0  0
   45.1343   36.2309   42.6034 H   0  0  0  0  0  0  0  0  0  0  0  0
   46.8324   34.3392   42.5388 H   0  0  0  0  0  0  0  0  0  0  0  0
   47.8005   32.4550   46.2322 H   0  0  0  0  0  0  0  0  0  0  0  0
   44.0114   33.2428   48.0802 H   0  0  0  0  0  0  0  0  0  0  0  0
   47.3527   30.2410   49.4324 H   0  0  0  0  0  0  0  0  0  0  0  0
   49.6423   32.0806   48.4431 H   0  0  0  0  0  0  0  0  0  0  0  0
   48.6604   32.4331   49.9133 H   0  0  0  0  0  0  0  0  0  0  0  0
   50.4265   31.1103   50.9949 H   0  0  0  0  0  0  0  0  0  0  0  0
   50.8951   28.7214   50.0049 H   0  0  0  0  0  0  0  0  0  0  0  0
   49.9437   28.3525   47.7489 H   0  0  0  0  0  0  0  0  0  0  0  0
   48.5037   28.3044   48.9129 H   0  0  0  0  0  0  0  0  0  0  0  0
   49.2802   30.5463   47.0452 H   0  0  0  0  0  0  0  0  0  0  0  0
   47.8474   29.5240   46.9435 H   0  0  0  0  0  0  0  0  0  0  0  0
  1  6  2  0
  2  1  1  0
  3  2  2  0
  3  4  1  0
  4  5  2  0
  5  6  1  0
  5  7  1  0
  7  8  1  0
  7 11  1  0
  8  9  2  0
  9 10  1  0
 11 10  2  0
 12  9  1  0
 12 13  1  0
 13 14  1  0
 15 14  2  0
 16 15  1  0
 17 16  1  0
 17 12  1  0
  1 18  1  0
  2 19  1  0
  3 20  1  0
  8 21  1  0
 11 22  1  0
 12 23  1  1
 13 24  1  0
 13 25  1  0
 14 26  1  0
 15 27  1  0
 16 28  1  0
 16 29  1  0
 17 30  1  0
 17 31  1  0
M  ISO  8  18  14  19  14  20  14  21  14  22  14  23  13  24  13  25  13
M  ISO  6  26  13  27  13  28  13  29  13  30  13  31  13
M  END
>  <minimizedAffinity>  (1) 
-5.63811398

>  <minimizedRMSD>  (1) 
0.36265856

$$$$
