
     RDKit          3D

 30 32  0  0  0  0  0  0  0  0999 V2000
   44.4650   35.8020   44.6390 C   0  0  0  0  0  0  0  0  0  0  0  0
   45.1450   35.6870   43.4120 C   0  0  0  0  0  0  0  0  0  0  0  0
   46.1150   34.6720   43.3120 C   0  0  0  0  0  0  0  0  0  0  0  0
   46.3510   33.8580   44.3810 N   0  0  0  0  0  0  0  0  0  0  0  0
   45.6590   34.0170   45.5470 C   0  0  0  0  0  0  0  0  0  0  0  0
   44.7390   34.9680   45.6670 N   0  0  0  0  0  0  0  0  0  0  0  0
   45.9040   33.1660   46.6660 N   0  0  0  0  0  0  0  0  0  0  0  0
   47.1120   32.5360   46.7010 C   0  0  0  0  0  0  0  0  0  0  0  0
   47.1130   31.7830   47.8540 C   0  0  0  0  0  0  0  0  0  0  0  0
   45.9340   31.9590   48.4920 N   0  0  0  0  0  0  0  0  0  0  0  0
   45.1950   32.8010   47.7690 C   0  0  0  0  0  0  0  0  0  0  0  0
   48.1750   30.9430   48.3220 N   0  0  0  0  0  0  0  0  0  0  0  0
   48.3560   29.6540   47.7230 C   0  0  0  0  0  0  0  0  0  0  0  0
   49.2390   28.7410   48.4990 C   0  0  0  0  0  0  0  0  0  0  0  0
   50.2590   29.4010   49.1840 O   0  0  0  0  0  0  0  0  0  0  0  0
   49.6110   30.2030   50.1320 C   0  0  0  0  0  0  0  0  0  0  0  0
   49.0480   31.3740   49.3700 C   0  0  0  0  0  0  0  0  0  0  0  0
   43.6994   36.5820   44.7632 H   0  0  0  0  0  0  0  0  0  0  0  0
   44.9282   36.3600   42.5693 H   0  0  0  0  0  0  0  0  0  0  0  0
   46.6793   34.5360   42.3776 H   0  0  0  0  0  0  0  0  0  0  0  0
   47.9210   32.6132   45.9597 H   0  0  0  0  0  0  0  0  0  0  0  0
   44.1808   33.1437   48.0219 H   0  0  0  0  0  0  0  0  0  0  0  0
   47.3694   29.1780   47.6233 H   0  0  0  0  0  0  0  0  0  0  0  0
   48.8473   29.8215   46.7532 H   0  0  0  0  0  0  0  0  0  0  0  0
   48.6221   28.1993   49.2311 H   0  0  0  0  0  0  0  0  0  0  0  0
   49.7198   28.0652   47.7764 H   0  0  0  0  0  0  0  0  0  0  0  0
   48.8018   29.6399   50.6200 H   0  0  0  0  0  0  0  0  0  0  0  0
   50.3024   30.5313   50.9221 H   0  0  0  0  0  0  0  0  0  0  0  0
   49.8776   31.9480   48.9315 H   0  0  0  0  0  0  0  0  0  0  0  0
   48.4696   31.9962   50.0688 H   0  0  0  0  0  0  0  0  0  0  0  0
  1  6  2  0
  2  1  1  0
  3  2  2  0
  3  4  1  0
  4  5  2  0
  5  6  1  0
  5  7  1  0
  7  8  1  0
  7 11  1  0
  8  9  2  0
  9 12  1  0
  9 10  1  0
 11 10  2  0
 12 17  1  0
 13 12  1  0
 13 14  1  0
 14 15  1  0
 15 16  1  0
 17 16  1  0
  1 18  1  0
  2 19  1  0
  3 20  1  0
  8 21  1  0
 11 22  1  0
 13 23  1  0
 13 24  1  0
 14 25  1  0
 14 26  1  0
 16 27  1  0
 16 28  1  0
 17 29  1  0
 17 30  1  0
M  ISO  8  18  14  19  14  20  14  21  14  22  14  23  13  24  13  25  13
M  ISO  5  26  13  27  13  28  13  29  13  30  13
M  END
>  <minimizedAffinity>  (1) 
-5.30327511

>  <minimizedRMSD>  (1) 
0.328109533

$$$$
