
     RDKit          3D

 26 28  0  0  0  0  0  0  0  0999 V2000
   44.5380   35.7810   44.6450 C   0  0  0  0  0  0  0  0  0  0  0  0
   45.2430   35.6380   43.4300 C   0  0  0  0  0  0  0  0  0  0  0  0
   46.1860   34.5850   43.3590 C   0  0  0  0  0  0  0  0  0  0  0  0
   46.3650   33.7780   44.4340 N   0  0  0  0  0  0  0  0  0  0  0  0
   45.6520   33.9650   45.5830 C   0  0  0  0  0  0  0  0  0  0  0  0
   44.7570   34.9460   45.6860 N   0  0  0  0  0  0  0  0  0  0  0  0
   45.8370   33.1170   46.7200 N   0  0  0  0  0  0  0  0  0  0  0  0
   46.9940   32.4090   46.7650 C   0  0  0  0  0  0  0  0  0  0  0  0
   46.9510   31.6750   47.9320 C   0  0  0  0  0  0  0  0  0  0  0  0
   45.7890   31.9430   48.5680 N   0  0  0  0  0  0  0  0  0  0  0  0
   45.1030   32.8230   47.8360 C   0  0  0  0  0  0  0  0  0  0  0  0
   47.9880   30.7530   48.4130 C   0  0  0  0  0  0  0  0  0  0  0  0
   48.7400   31.0830   49.5210 C   0  0  0  0  0  0  0  0  0  0  0  0
   49.7300   30.2210   49.9930 C   0  0  0  0  0  0  0  0  0  0  0  0
   49.8940   29.0380   49.2830 C   0  0  0  0  0  0  0  0  0  0  0  0
   49.1420   28.7100   48.1780 C   0  0  0  0  0  0  0  0  0  0  0  0
   48.1970   29.5960   47.7740 N   0  0  0  0  0  0  0  0  0  0  0  0
   43.7964   36.5870   44.7467 H   0  0  0  0  0  0  0  0  0  0  0  0
   45.0677   36.3128   42.5792 H   0  0  0  0  0  0  0  0  0  0  0  0
   46.7685   34.4227   42.4401 H   0  0  0  0  0  0  0  0  0  0  0  0
   47.8035   32.4186   46.0203 H   0  0  0  0  0  0  0  0  0  0  0  0
   44.1167   33.2402   48.0870 H   0  0  0  0  0  0  0  0  0  0  0  0
   48.5571   32.0364   50.0382 H   0  0  0  0  0  0  0  0  0  0  0  0
   50.3433   30.4631   50.8735 H   0  0  0  0  0  0  0  0  0  0  0  0
   50.6633   28.3281   49.6210 H   0  0  0  0  0  0  0  0  0  0  0  0
   49.3014   27.7631   47.6413 H   0  0  0  0  0  0  0  0  0  0  0  0
  1  6  2  0
  2  1  1  0
  3  2  2  0
  3  4  1  0
  4  5  2  0
  5  6  1  0
  5  7  1  0
  7  8  1  0
  7 11  1  0
  8  9  2  0
  9 12  1  0
  9 10  1  0
 11 10  2  0
 12 13  2  0
 13 14  1  0
 15 14  2  0
 16 15  1  0
 17 16  2  0
 17 12  1  0
  1 18  1  0
  2 19  1  0
  3 20  1  0
  8 21  1  0
 11 22  1  0
 13 23  1  0
 14 24  1  0
 15 25  1  0
 16 26  1  0
M  ISO  8  18  14  19  14  20  14  21  14  22  14  23  14  24  14  25  14
M  ISO  1  26  14
M  END
>  <minimizedAffinity>  (1) 
-5.45217133

>  <minimizedRMSD>  (1) 
0.366296232

$$$$
