
     RDKit          3D

 32 34  0  0  0  0  0  0  0  0999 V2000
   44.5070   35.9770   44.4990 C   0  0  0  0  0  0  0  0  0  0  0  0
   45.1990   35.7970   43.2790 C   0  0  0  0  0  0  0  0  0  0  0  0
   46.1000   34.7330   43.1920 C   0  0  0  0  0  0  0  0  0  0  0  0
   46.2770   33.9270   44.2550 N   0  0  0  0  0  0  0  0  0  0  0  0
   45.5910   34.1310   45.4170 C   0  0  0  0  0  0  0  0  0  0  0  0
   44.7150   35.1410   45.5460 N   0  0  0  0  0  0  0  0  0  0  0  0
   45.7600   33.2910   46.5670 N   0  0  0  0  0  0  0  0  0  0  0  0
   46.9240   32.5800   46.5980 C   0  0  0  0  0  0  0  0  0  0  0  0
   46.8610   31.8550   47.7860 C   0  0  0  0  0  0  0  0  0  0  0  0
   45.7210   32.1260   48.4190 N   0  0  0  0  0  0  0  0  0  0  0  0
   45.0350   33.0030   47.6870 C   0  0  0  0  0  0  0  0  0  0  0  0
   47.8580   30.9590   48.2590 N   0  0  0  0  0  0  0  0  0  0  0  0
   47.9390   29.5660   47.8690 C   0  0  0  0  0  0  0  0  0  0  0  0
   49.3030   29.4200   47.2080 C   0  0  0  0  0  0  0  0  0  0  0  0
   50.3430   29.5300   48.2970 C   0  0  0  0  0  0  0  0  0  0  0  0
   49.9070   30.3510   49.4590 C   0  0  0  0  0  0  0  0  0  0  0  0
   48.8750   31.3880   49.1780 C   0  0  0  0  0  0  0  0  0  0  0  0
   43.7908   36.8058   44.5999 H   0  0  0  0  0  0  0  0  0  0  0  0
   45.0333   36.4724   42.4267 H   0  0  0  0  0  0  0  0  0  0  0  0
   46.6602   34.5555   42.2622 H   0  0  0  0  0  0  0  0  0  0  0  0
   47.7320   32.5793   45.8515 H   0  0  0  0  0  0  0  0  0  0  0  0
   44.0511   33.4236   47.9421 H   0  0  0  0  0  0  0  0  0  0  0  0
   47.8649   28.9127   48.7509 H   0  0  0  0  0  0  0  0  0  0  0  0
   47.1199   29.2779   47.1937 H   0  0  0  0  0  0  0  0  0  0  0  0
   49.3785   28.4407   46.7127 H   0  0  0  0  0  0  0  0  0  0  0  0
   49.4524   30.1994   46.4463 H   0  0  0  0  0  0  0  0  0  0  0  0
   50.5785   28.5173   48.6560 H   0  0  0  0  0  0  0  0  0  0  0  0
   51.2170   30.0330   47.8576 H   0  0  0  0  0  0  0  0  0  0  0  0
   49.4992   29.6682   50.2189 H   0  0  0  0  0  0  0  0  0  0  0  0
   50.8012   30.9039   49.7824 H   0  0  0  0  0  0  0  0  0  0  0  0
   49.3764   32.2703   48.7535 H   0  0  0  0  0  0  0  0  0  0  0  0
   48.3731   31.6076   50.1319 H   0  0  0  0  0  0  0  0  0  0  0  0
  1  6  2  0
  2  1  1  0
  3  2  2  0
  3  4  1  0
  4  5  2  0
  5  6  1  0
  5  7  1  0
  7  8  1  0
  7 11  1  0
  8  9  2  0
  9 12  1  0
  9 10  1  0
 11 10  2  0
 12 17  1  0
 13 12  1  0
 14 13  1  0
 14 15  1  0
 15 16  1  0
 17 16  1  0
  1 18  1  0
  2 19  1  0
  3 20  1  0
  8 21  1  0
 11 22  1  0
 13 23  1  0
 13 24  1  0
 14 25  1  0
 14 26  1  0
 15 27  1  0
 15 28  1  0
 16 29  1  0
 16 30  1  0
 17 31  1  0
 17 32  1  0
M  ISO  8  18  14  19  14  20  14  21  14  22  14  23  13  24  13  25  13
M  ISO  7  26  13  27  13  28  13  29  13  30  13  31  13  32  13
M  END
>  <minimizedAffinity>  (1) 
-5.32552481

>  <minimizedRMSD>  (1) 
0.763433933

$$$$
