
     RDKit          3D

 29 31  0  0  0  0  0  0  0  0999 V2000
   44.5140   35.8270   44.6790 C   0  0  0  0  0  0  0  0  0  0  0  0
   45.1790   35.6780   43.4640 C   0  0  0  0  0  0  0  0  0  0  0  0
   46.1020   34.6080   43.3580 C   0  0  0  0  0  0  0  0  0  0  0  0
   46.2840   33.7990   44.4280 N   0  0  0  0  0  0  0  0  0  0  0  0
   45.6100   33.9830   45.5990 C   0  0  0  0  0  0  0  0  0  0  0  0
   44.7420   34.9860   45.7080 N   0  0  0  0  0  0  0  0  0  0  0  0
   45.8090   33.1280   46.7170 N   0  0  0  0  0  0  0  0  0  0  0  0
   46.9600   32.4320   46.7620 C   0  0  0  0  0  0  0  0  0  0  0  0
   46.9420   31.6770   47.9180 C   0  0  0  0  0  0  0  0  0  0  0  0
   45.7760   31.9340   48.5500 N   0  0  0  0  0  0  0  0  0  0  0  0
   45.0860   32.8130   47.8260 C   0  0  0  0  0  0  0  0  0  0  0  0
   47.9600   30.7770   48.3900 N   0  0  0  0  0  0  0  0  0  0  0  0
   48.8410   31.0110   49.5190 C   0  0  0  0  0  0  0  0  0  0  0  0
   50.1320   30.3960   49.0320 C   0  0  0  0  0  0  0  0  0  0  0  0
   49.6620   29.1870   48.2640 C   0  0  0  0  0  0  0  0  0  0  0  0
   48.2570   29.4900   47.7980 C   0  0  0  0  0  0  0  0  0  0  0  0
   43.7896   36.6457   44.8012 H   0  0  0  0  0  0  0  0  0  0  0  0
   44.9954   36.3621   42.6224 H   0  0  0  0  0  0  0  0  0  0  0  0
   46.6594   34.4382   42.4250 H   0  0  0  0  0  0  0  0  0  0  0  0
   47.7670   32.4595   46.0150 H   0  0  0  0  0  0  0  0  0  0  0  0
   44.0956   33.2175   48.0819 H   0  0  0  0  0  0  0  0  0  0  0  0
   48.9594   32.0861   49.7192 H   0  0  0  0  0  0  0  0  0  0  0  0
   48.4747   30.5890   50.4665 H   0  0  0  0  0  0  0  0  0  0  0  0
   50.6796   31.0913   48.3787 H   0  0  0  0  0  0  0  0  0  0  0  0
   50.8291   30.1488   49.8462 H   0  0  0  0  0  0  0  0  0  0  0  0
   50.3182   29.0080   47.3995 H   0  0  0  0  0  0  0  0  0  0  0  0
   49.6852   28.2845   48.8925 H   0  0  0  0  0  0  0  0  0  0  0  0
   48.2128   29.5453   46.7003 H   0  0  0  0  0  0  0  0  0  0  0  0
   47.5369   28.7126   48.0931 H   0  0  0  0  0  0  0  0  0  0  0  0
  1  6  2  0
  2  1  1  0
  3  2  2  0
  3  4  1  0
  4  5  2  0
  5  6  1  0
  5  7  1  0
  7  8  1  0
  7 11  1  0
  8  9  2  0
  9 12  1  0
  9 10  1  0
 11 10  2  0
 12 13  1  0
 14 13  1  0
 15 14  1  0
 16 15  1  0
 16 12  1  0
  1 17  1  0
  2 18  1  0
  3 19  1  0
  8 20  1  0
 11 21  1  0
 13 22  1  0
 13 23  1  0
 14 24  1  0
 14 25  1  0
 15 26  1  0
 15 27  1  0
 16 28  1  0
 16 29  1  0
M  ISO  8  17  14  18  14  19  14  20  14  21  14  22  13  23  13  24  13
M  ISO  5  25  13  26  13  27  13  28  13  29  13
M  END
>  <minimizedAffinity>  (1) 
-5.13623333

>  <minimizedRMSD>  (1) 
0.694523156

$$$$
