
     RDKit          3D

 23 25  0  0  0  0  0  0  0  0999 V2000
   44.5340   35.7250   44.6360 C   0  0  0  0  0  0  0  0  0  0  0  0
   45.2470   35.5860   43.4450 C   0  0  0  0  0  0  0  0  0  0  0  0
   46.2020   34.5650   43.4080 C   0  0  0  0  0  0  0  0  0  0  0  0
   46.4110   33.7600   44.4850 N   0  0  0  0  0  0  0  0  0  0  0  0
   45.6790   33.9480   45.6220 C   0  0  0  0  0  0  0  0  0  0  0  0
   44.7640   34.9100   45.6860 N   0  0  0  0  0  0  0  0  0  0  0  0
   45.8680   33.1230   46.7750 N   0  0  0  0  0  0  0  0  0  0  0  0
   47.0500   32.4530   46.8480 C   0  0  0  0  0  0  0  0  0  0  0  0
   47.0020   31.7360   48.0250 C   0  0  0  0  0  0  0  0  0  0  0  0
   45.8380   31.9700   48.6260 N   0  0  0  0  0  0  0  0  0  0  0  0
   45.1230   32.8220   47.8740 C   0  0  0  0  0  0  0  0  0  0  0  0
   48.0130   30.8770   48.5420 N   0  0  0  0  0  0  0  0  0  0  0  0
   48.2660   29.6880   47.9260 C   0  0  0  0  0  0  0  0  0  0  0  0
   49.2640   29.0410   48.5890 N   0  0  0  0  0  0  0  0  0  0  0  0
   49.6190   29.8480   49.6190 C   0  0  0  0  0  0  0  0  0  0  0  0
   48.8480   30.9700   49.5830 N   0  0  0  0  0  0  0  0  0  0  0  0
   43.7710   36.5129   44.7203 H   0  0  0  0  0  0  0  0  0  0  0  0
   45.0678   36.2438   42.5818 H   0  0  0  0  0  0  0  0  0  0  0  0
   46.7937   34.4102   42.4937 H   0  0  0  0  0  0  0  0  0  0  0  0
   47.8734   32.4781   46.1191 H   0  0  0  0  0  0  0  0  0  0  0  0
   44.1184   33.2067   48.1039 H   0  0  0  0  0  0  0  0  0  0  0  0
   47.7457   29.3103   47.0334 H   0  0  0  0  0  0  0  0  0  0  0  0
   50.4012   29.6320   50.3617 H   0  0  0  0  0  0  0  0  0  0  0  0
  1  6  2  0
  2  1  1  0
  3  2  2  0
  3  4  1  0
  4  5  2  0
  5  6  1  0
  5  7  1  0
  7  8  1  0
  7 11  1  0
  8  9  2  0
  9 12  1  0
  9 10  1  0
 11 10  2  0
 12 16  1  0
 13 12  1  0
 13 14  2  0
 14 15  1  0
 16 15  2  0
  1 17  1  0
  2 18  1  0
  3 19  1  0
  8 20  1  0
 11 21  1  0
 13 22  1  0
 15 23  1  0
M  ISO  7  17  14  18  14  19  14  20  14  21  14  22  14  23  14
M  END
>  <minimizedAffinity>  (1) 
-5.10676718

>  <minimizedRMSD>  (1) 
0.634391487

$$$$
