
     RDKit          3D

 29 30  0  0  0  0  0  0  0  0999 V2000
   44.6030   36.2660   44.4610 C   0  0  0  0  0  0  0  0  0  0  0  0
   45.0200   36.0380   43.1510 C   0  0  0  0  0  0  0  0  0  0  0  0
   45.6570   34.8150   42.9150 C   0  0  0  0  0  0  0  0  0  0  0  0
   45.8430   33.9220   43.9270 N   0  0  0  0  0  0  0  0  0  0  0  0
   45.4140   34.2010   45.1850 C   0  0  0  0  0  0  0  0  0  0  0  0
   44.8040   35.3550   45.4430 N   0  0  0  0  0  0  0  0  0  0  0  0
   45.5850   33.3020   46.2700 N   0  0  0  0  0  0  0  0  0  0  0  0
   46.5350   32.3550   46.1150 C   0  0  0  0  0  0  0  0  0  0  0  0
   46.5550   31.5860   47.2590 C   0  0  0  0  0  0  0  0  0  0  0  0
   45.6270   32.0700   48.0830 N   0  0  0  0  0  0  0  0  0  0  0  0
   45.0340   33.1140   47.4880 C   0  0  0  0  0  0  0  0  0  0  0  0
   47.3930   30.4280   47.6160 C   0  0  0  0  0  0  0  0  0  0  0  0
   48.1370   30.6600   48.9300 C   0  0  0  0  0  0  0  0  0  0  0  0
   48.3920   30.0530   46.5480 C   0  0  0  0  0  0  0  0  0  0  0  0
   46.5340   29.1870   47.8490 C   0  0  0  0  0  0  0  0  0  0  0  0
   44.0967   37.2118   44.7042 H   0  0  0  0  0  0  0  0  0  0  0  0
   44.8581   36.7752   42.3508 H   0  0  0  0  0  0  0  0  0  0  0  0
   46.0112   34.5720   41.9023 H   0  0  0  0  0  0  0  0  0  0  0  0
   47.1784   32.2210   45.2329 H   0  0  0  0  0  0  0  0  0  0  0  0
   44.2265   33.7213   47.9229 H   0  0  0  0  0  0  0  0  0  0  0  0
   47.4640   30.4501   49.7744 H   0  0  0  0  0  0  0  0  0  0  0  0
   49.0087   29.9910   48.9808 H   0  0  0  0  0  0  0  0  0  0  0  0
   48.4740   31.7059   48.9808 H   0  0  0  0  0  0  0  0  0  0  0  0
   49.3215   29.7041   47.0216 H   0  0  0  0  0  0  0  0  0  0  0  0
   47.9756   29.2500   45.9221 H   0  0  0  0  0  0  0  0  0  0  0  0
   48.6068   30.9317   45.9221 H   0  0  0  0  0  0  0  0  0  0  0  0
   46.4178   29.0191   48.9299 H   0  0  0  0  0  0  0  0  0  0  0  0
   45.5442   29.3352   47.3925 H   0  0  0  0  0  0  0  0  0  0  0  0
   47.0212   28.3128   47.3925 H   0  0  0  0  0  0  0  0  0  0  0  0
  1  6  2  0
  2  1  1  0
  3  2  2  0
  3  4  1  0
  4  5  2  0
  5  6  1  0
  5  7  1  0
  7 11  1  0
  8  7  1  0
  8  9  2  0
  9 12  1  0
  9 10  1  0
 11 10  2  0
 12 15  1  0
 12 13  1  0
 14 12  1  0
  1 16  1  0
  2 17  1  0
  3 18  1  0
  8 19  1  0
 11 20  1  0
 13 21  1  0
 13 22  1  0
 13 23  1  0
 14 24  1  0
 14 25  1  0
 14 26  1  0
 15 27  1  0
 15 28  1  0
 15 29  1  0
M  ISO  8  16  14  17  14  18  14  19  14  20  14  21   8  22   8  23   8
M  ISO  6  24   8  25   8  26   8  27   8  28   8  29   8
M  END
>  <minimizedAffinity>  (1) 
-4.44530487

>  <minimizedRMSD>  (1) 
0.930811405

$$$$
