
     RDKit          3D

 24 26  0  0  0  0  0  0  0  0999 V2000
   44.8600   35.3800   44.4410 C   0  0  0  0  0  0  0  0  0  0  0  0
   45.7090   35.1410   43.3620 C   0  0  0  0  0  0  0  0  0  0  0  0
   46.6820   34.1210   43.5070 C   0  0  0  0  0  0  0  0  0  0  0  0
   46.7310   33.4390   44.6750 N   0  0  0  0  0  0  0  0  0  0  0  0
   45.8870   33.7010   45.6980 C   0  0  0  0  0  0  0  0  0  0  0  0
   44.9700   34.6580   45.5750 N   0  0  0  0  0  0  0  0  0  0  0  0
   45.9380   32.9820   46.9310 N   0  0  0  0  0  0  0  0  0  0  0  0
   47.0910   32.3290   47.2030 C   0  0  0  0  0  0  0  0  0  0  0  0
   46.9230   31.7060   48.4320 C   0  0  0  0  0  0  0  0  0  0  0  0
   45.6920   31.9930   48.8680 N   0  0  0  0  0  0  0  0  0  0  0  0
   45.0860   32.7700   47.9580 C   0  0  0  0  0  0  0  0  0  0  0  0
   47.9340   30.8640   49.1490 C   0  0  0  0  0  0  0  0  0  0  0  0
   49.0960   30.4190   48.3390 C   0  0  0  0  0  0  0  0  0  0  0  0
   49.2820   31.4740   49.3720 C   0  0  0  0  0  0  0  0  0  0  0  0
   44.0929   36.1649   44.3672 H   0  0  0  0  0  0  0  0  0  0  0  0
   45.6269   35.7227   42.4320 H   0  0  0  0  0  0  0  0  0  0  0  0
   47.3808   33.8891   42.6897 H   0  0  0  0  0  0  0  0  0  0  0  0
   47.9905   32.2977   46.5706 H   0  0  0  0  0  0  0  0  0  0  0  0
   44.0638   33.1689   48.0351 H   0  0  0  0  0  0  0  0  0  0  0  0
   47.1913   30.3708   49.7933 H   0  0  0  0  0  0  0  0  0  0  0  0
   49.5222   29.4170   48.4950 H   0  0  0  0  0  0  0  0  0  0  0  0
   49.3066   30.3428   47.2620 H   0  0  0  0  0  0  0  0  0  0  0  0
   49.4730   32.5141   49.0691 H   0  0  0  0  0  0  0  0  0  0  0  0
   49.9438   31.6068   50.2406 H   0  0  0  0  0  0  0  0  0  0  0  0
  1  6  2  0
  2  3  2  0
  2  1  1  0
  3  4  1  0
  4  5  2  0
  5  7  1  0
  6  5  1  0
  7  8  1  0
  7 11  1  0
  8  9  2  0
  9 10  1  0
  9 12  1  0
 11 10  2  0
 12 14  1  0
 13 12  1  0
 13 14  1  0
  1 15  1  0
  2 16  1  0
  3 17  1  0
  8 18  1  0
 11 19  1  0
 12 20  1  0
 13 21  1  0
 13 22  1  0
 14 23  1  0
 14 24  1  0
M  ISO  8  15  14  16  14  17  14  18  14  19  14  20  13  21  13  22  13
M  ISO  2  23  13  24  13
M  END
>  <minimizedAffinity>  (1) 
-4.87325716

>  <minimizedRMSD>  (1) 
0.827996314

$$$$
