
     RDKit          3D

 30 32  0  0  0  0  0  0  0  0999 V2000
   44.8880   35.4180   44.3920 C   0  0  0  0  0  0  0  0  0  0  0  0
   45.7540   35.1890   43.3230 C   0  0  0  0  0  0  0  0  0  0  0  0
   46.7020   34.1730   43.4720 C   0  0  0  0  0  0  0  0  0  0  0  0
   46.7280   33.4770   44.6280 N   0  0  0  0  0  0  0  0  0  0  0  0
   45.8780   33.7170   45.6530 C   0  0  0  0  0  0  0  0  0  0  0  0
   44.9650   34.6840   45.5310 N   0  0  0  0  0  0  0  0  0  0  0  0
   45.8960   32.9950   46.8680 N   0  0  0  0  0  0  0  0  0  0  0  0
   47.0250   32.3170   47.1470 C   0  0  0  0  0  0  0  0  0  0  0  0
   46.8460   31.6850   48.3630 C   0  0  0  0  0  0  0  0  0  0  0  0
   45.6140   31.9870   48.8040 N   0  0  0  0  0  0  0  0  0  0  0  0
   45.0470   32.7780   47.8970 C   0  0  0  0  0  0  0  0  0  0  0  0
   47.7620   30.8110   49.1410 C   0  0  0  0  0  0  0  0  0  0  0  0
   47.9280   29.5210   48.3600 C   0  0  0  0  0  0  0  0  0  0  0  0
   49.1350   29.8230   47.5020 C   0  0  0  0  0  0  0  0  0  0  0  0
   50.0470   30.5240   48.4890 C   0  0  0  0  0  0  0  0  0  0  0  0
   49.1160   31.4390   49.2410 C   0  0  0  0  0  0  0  0  0  0  0  0
   44.1278   36.2089   44.3104 H   0  0  0  0  0  0  0  0  0  0  0  0
   45.6933   35.7841   42.3998 H   0  0  0  0  0  0  0  0  0  0  0  0
   47.4124   33.9453   42.6636 H   0  0  0  0  0  0  0  0  0  0  0  0
   47.9277   32.2738   46.5199 H   0  0  0  0  0  0  0  0  0  0  0  0
   44.0323   33.1957   47.9736 H   0  0  0  0  0  0  0  0  0  0  0  0
   47.3495   30.6476   50.1476 H   0  0  0  0  0  0  0  0  0  0  0  0
   48.1177   28.6699   49.0306 H   0  0  0  0  0  0  0  0  0  0  0  0
   47.0359   29.2348   47.7836 H   0  0  0  0  0  0  0  0  0  0  0  0
   49.5943   28.9005   47.1173 H   0  0  0  0  0  0  0  0  0  0  0  0
   48.9073   30.4175   46.6049 H   0  0  0  0  0  0  0  0  0  0  0  0
   50.5208   29.8004   49.1687 H   0  0  0  0  0  0  0  0  0  0  0  0
   50.8735   31.0613   48.0010 H   0  0  0  0  0  0  0  0  0  0  0  0
   49.1094   32.4394   48.7837 H   0  0  0  0  0  0  0  0  0  0  0  0
   49.4287   31.5646   50.2881 H   0  0  0  0  0  0  0  0  0  0  0  0
  1  6  2  0
  2  3  2  0
  2  1  1  0
  3  4  1  0
  4  5  2  0
  5  7  1  0
  6  5  1  0
  7  8  1  0
  7 11  1  0
  8  9  2  0
  9 10  1  0
  9 12  1  0
 11 10  2  0
 12 16  1  0
 13 12  1  0
 14 13  1  0
 14 15  1  0
 15 16  1  0
  1 17  1  0
  2 18  1  0
  3 19  1  0
  8 20  1  0
 11 21  1  0
 12 22  1  0
 13 23  1  0
 13 24  1  0
 14 25  1  0
 14 26  1  0
 15 27  1  0
 15 28  1  0
 16 29  1  0
 16 30  1  0
M  ISO  8  17  14  18  14  19  14  20  14  21  14  22  13  23  13  24  13
M  ISO  6  25  13  26  13  27  13  28  13  29  13  30  13
M  END
>  <minimizedAffinity>  (1) 
-4.83977795

>  <minimizedRMSD>  (1) 
0.810641885

$$$$
