
     RDKit          3D

 18 19  0  0  0  0  0  0  0  0999 V2000
   44.5420   35.7570   44.6440 C   0  0  0  0  0  0  0  0  0  0  0  0
   45.2540   35.5930   43.4540 C   0  0  0  0  0  0  0  0  0  0  0  0
   46.1940   34.5520   43.3930 C   0  0  0  0  0  0  0  0  0  0  0  0
   46.3490   33.7740   44.4950 N   0  0  0  0  0  0  0  0  0  0  0  0
   45.6420   33.9630   45.6330 C   0  0  0  0  0  0  0  0  0  0  0  0
   44.7450   34.9430   45.7120 N   0  0  0  0  0  0  0  0  0  0  0  0
   45.8230   33.1320   46.7770 N   0  0  0  0  0  0  0  0  0  0  0  0
   46.9970   32.4590   46.8610 C   0  0  0  0  0  0  0  0  0  0  0  0
   46.9490   31.7300   48.0350 C   0  0  0  0  0  0  0  0  0  0  0  0
   45.7770   31.9660   48.6280 N   0  0  0  0  0  0  0  0  0  0  0  0
   45.0810   32.8190   47.8710 C   0  0  0  0  0  0  0  0  0  0  0  0
   47.9650   30.8870   48.5130 O   0  0  0  0  0  0  0  0  0  0  0  0
   43.7990   36.5647   44.7181 H   0  0  0  0  0  0  0  0  0  0  0  0
   45.0841   36.2569   42.5936 H   0  0  0  0  0  0  0  0  0  0  0  0
   46.7852   34.3726   42.4829 H   0  0  0  0  0  0  0  0  0  0  0  0
   47.8250   32.4873   46.1374 H   0  0  0  0  0  0  0  0  0  0  0  0
   44.0753   33.2035   48.0960 H   0  0  0  0  0  0  0  0  0  0  0  0
   47.8444   30.4017   49.3674 H   0  0  0  0  0  0  0  0  0  0  0  0
  1  6  2  0
  2  1  1  0
  3  2  2  0
  3  4  1  0
  4  5  2  0
  5  6  1  0
  5  7  1  0
  7  8  1  0
  7 11  1  0
  8  9  2  0
  9 12  1  0
  9 10  1  0
 11 10  2  0
  1 13  1  0
  2 14  1  0
  3 15  1  0
  8 16  1  0
 11 17  1  0
 12 18  1  0
M  ISO  6  13  14  14  14  15  14  16  14  17  14  18   3
M  END
>  <minimizedAffinity>  (1) 
-4.39933729

>  <minimizedRMSD>  (1) 
0.120480001

$$$$
