
     RDKit          3D

 38 42  0  0  0  0  0  0  0  0999 V2000
   48.1610   30.9380   48.3720 C   0  0  0  0  0  0  0  0  0  0  0  0
   48.9450   31.4170   49.4060 C   0  0  0  0  0  0  0  0  0  0  0  0
   49.9620   30.6470   49.9230 C   0  0  0  0  0  0  0  0  0  0  0  0
   50.1840   29.3850   49.3900 C   0  0  0  0  0  0  0  0  0  0  0  0
   49.3900   28.9120   48.3490 C   0  0  0  0  0  0  0  0  0  0  0  0
   48.3550   29.6790   47.8120 C   0  0  0  0  0  0  0  0  0  0  0  0
   44.4790   35.7800   44.6100 C   0  0  0  0  0  0  0  0  0  0  0  0
   45.2060   35.6960   43.4200 C   0  0  0  0  0  0  0  0  0  0  0  0
   46.2100   34.7220   43.3150 C   0  0  0  0  0  0  0  0  0  0  0  0
   46.4210   33.9080   44.3840 N   0  0  0  0  0  0  0  0  0  0  0  0
   45.6840   34.0260   45.5300 C   0  0  0  0  0  0  0  0  0  0  0  0
   44.7260   34.9450   45.6480 N   0  0  0  0  0  0  0  0  0  0  0  0
   45.9120   33.1640   46.6490 N   0  0  0  0  0  0  0  0  0  0  0  0
   47.1170   32.5520   46.7120 C   0  0  0  0  0  0  0  0  0  0  0  0
   47.0910   31.7910   47.8580 C   0  0  0  0  0  0  0  0  0  0  0  0
   45.8980   31.9460   48.4660 N   0  0  0  0  0  0  0  0  0  0  0  0
   45.1670   32.7800   47.7390 C   0  0  0  0  0  0  0  0  0  0  0  0
   47.5540   29.1780   46.7470 N   0  0  0  0  0  0  0  0  0  0  0  0
   48.0260   29.3390   45.4770 C   0  0  0  0  0  0  0  0  0  0  0  0
   47.1440   28.8080   44.6050 N   0  0  0  0  0  0  0  0  0  0  0  0
   46.1220   28.3150   45.3250 C   0  0  0  0  0  0  0  0  0  0  0  0
   44.9330   27.6650   45.0770 C   0  0  0  0  0  0  0  0  0  0  0  0
   44.1100   27.2980   46.0880 N   0  0  0  0  0  0  0  0  0  0  0  0
   44.4170   27.5550   47.3930 C   0  0  0  0  0  0  0  0  0  0  0  0
   45.5860   28.1980   47.6810 N   0  0  0  0  0  0  0  0  0  0  0  0
   46.3760   28.5450   46.6630 C   0  0  0  0  0  0  0  0  0  0  0  0
   48.7546   32.4192   49.8175 H   0  0  0  0  0  0  0  0  0  0  0  0
   50.5880   31.0254   50.7445 H   0  0  0  0  0  0  0  0  0  0  0  0
   50.9914   28.7554   49.7921 H   0  0  0  0  0  0  0  0  0  0  0  0
   49.5830   27.9094   47.9397 H   0  0  0  0  0  0  0  0  0  0  0  0
   43.6895   36.5399   44.7063 H   0  0  0  0  0  0  0  0  0  0  0  0
   44.9957   36.3788   42.5836 H   0  0  0  0  0  0  0  0  0  0  0  0
   46.8077   34.6198   42.3972 H   0  0  0  0  0  0  0  0  0  0  0  0
   47.9462   32.6439   45.9951 H   0  0  0  0  0  0  0  0  0  0  0  0
   44.1423   33.1078   47.9682 H   0  0  0  0  0  0  0  0  0  0  0  0
   48.9752   29.8248   45.2069 H   0  0  0  0  0  0  0  0  0  0  0  0
   44.6469   27.4400   44.0390 H   0  0  0  0  0  0  0  0  0  0  0  0
   43.7338   27.2490   48.1990 H   0  0  0  0  0  0  0  0  0  0  0  0
  1  2  2  0
  2  3  1  0
  4  3  2  0
  5  4  1  0
  6  5  2  0
  6  1  1  0
  7 12  2  0
  8  7  1  0
  9  8  2  0
  9 10  1  0
 10 11  2  0
 11 12  1  0
 11 13  1  0
 13 14  1  0
 13 17  1  0
 14 15  2  0
 15  1  1  0
 15 16  1  0
 17 16  2  0
 18  6  1  0
 19 18  1  0
 20 21  1  0
 20 19  2  0
 21 26  2  0
 22 21  1  0
 22 23  2  0
 23 24  1  0
 24 25  2  0
 26 18  1  0
 26 25  1  0
  2 27  1  0
  3 28  1  0
  4 29  1  0
  5 30  1  0
  7 31  1  0
  8 32  1  0
  9 33  1  0
 14 34  1  0
 17 35  1  0
 19 36  1  0
 22 37  1  0
 24 38  1  0
M  ISO  8  27  14  28  14  29  14  30  14  31  14  32  14  33  14  34  14
M  ISO  4  35  14  36  14  37  14  38  14
M  END
>  <minimizedAffinity>  (1) 
-6.16638565

>  <minimizedRMSD>  (1) 
1.57636666

$$$$
