
     RDKit          3D

 37 40  0  0  0  0  0  0  0  0999 V2000
   47.8960   31.0060   48.2360 C   0  0  0  0  0  0  0  0  0  0  0  0
   48.8690   31.4780   49.0780 C   0  0  0  0  0  0  0  0  0  0  0  0
   49.8620   30.6680   49.5750 C   0  0  0  0  0  0  0  0  0  0  0  0
   49.8580   29.3290   49.1940 C   0  0  0  0  0  0  0  0  0  0  0  0
   48.8670   28.8410   48.3350 C   0  0  0  0  0  0  0  0  0  0  0  0
   47.8910   29.6840   47.8590 C   0  0  0  0  0  0  0  0  0  0  0  0
   44.4590   36.0060   44.4610 C   0  0  0  0  0  0  0  0  0  0  0  0
   45.1360   35.8500   43.2520 C   0  0  0  0  0  0  0  0  0  0  0  0
   46.0660   34.8120   43.1490 C   0  0  0  0  0  0  0  0  0  0  0  0
   46.2540   34.0180   44.2330 N   0  0  0  0  0  0  0  0  0  0  0  0
   45.5800   34.1980   45.3870 C   0  0  0  0  0  0  0  0  0  0  0  0
   44.6770   35.1870   45.5250 N   0  0  0  0  0  0  0  0  0  0  0  0
   45.7760   33.3640   46.5290 N   0  0  0  0  0  0  0  0  0  0  0  0
   46.9150   32.6460   46.5700 C   0  0  0  0  0  0  0  0  0  0  0  0
   46.8760   31.9290   47.7520 C   0  0  0  0  0  0  0  0  0  0  0  0
   45.7440   32.2120   48.3990 N   0  0  0  0  0  0  0  0  0  0  0  0
   45.0630   33.0830   47.6680 C   0  0  0  0  0  0  0  0  0  0  0  0
   46.8780   29.1750   46.9770 N   0  0  0  0  0  0  0  0  0  0  0  0
   45.7710   28.7470   47.6360 C   0  0  0  0  0  0  0  0  0  0  0  0
   44.7120   28.2350   46.9450 C   0  0  0  0  0  0  0  0  0  0  0  0
   44.8250   28.1740   45.5630 C   0  0  0  0  0  0  0  0  0  0  0  0
   43.9490   27.7320   44.7740 O   0  0  0  0  0  0  0  0  0  0  0  0
   45.9250   28.6000   44.9300 N   0  0  0  0  0  0  0  0  0  0  0  0
   46.9620   29.1040   45.6230 C   0  0  0  0  0  0  0  0  0  0  0  0
   48.0630   29.5500   45.2220 O   0  0  0  0  0  0  0  0  0  0  0  0
   48.8547   32.5397   49.3654 H   0  0  0  0  0  0  0  0  0  0  0  0
   50.6339   31.0644   50.2510 H   0  0  0  0  0  0  0  0  0  0  0  0
   50.6381   28.6509   49.5703 H   0  0  0  0  0  0  0  0  0  0  0  0
   48.8690   27.7812   48.0402 H   0  0  0  0  0  0  0  0  0  0  0  0
   43.7240   36.8186   44.5576 H   0  0  0  0  0  0  0  0  0  0  0  0
   44.9437   36.5241   42.4043 H   0  0  0  0  0  0  0  0  0  0  0  0
   46.6279   34.6440   42.2184 H   0  0  0  0  0  0  0  0  0  0  0  0
   47.7151   32.6326   45.8153 H   0  0  0  0  0  0  0  0  0  0  0  0
   44.0847   33.5114   47.9314 H   0  0  0  0  0  0  0  0  0  0  0  0
   45.7277   28.8134   48.7331 H   0  0  0  0  0  0  0  0  0  0  0  0
   43.8061   27.8850   47.4617 H   0  0  0  0  0  0  0  0  0  0  0  0
   45.9778   28.5413   43.9030 H   0  0  0  0  0  0  0  0  0  0  0  0
  1  2  2  0
  2  3  1  0
  4  3  2  0
  5  4  1  0
  6  1  1  0
  6  5  2  0
  7 12  2  0
  8  7  1  0
  9  8  2  0
  9 10  1  0
 10 11  2  0
 11 12  1  0
 11 13  1  0
 13 14  1  0
 13 17  1  0
 14 15  2  0
 15  1  1  0
 15 16  1  0
 17 16  2  0
 18 19  1  0
 18  6  1  0
 20 19  2  0
 21 20  1  0
 22 21  2  0
 23 21  1  0
 23 24  1  0
 24 18  1  0
 25 24  2  0
  2 26  1  0
  3 27  1  0
  4 28  1  0
  5 29  1  0
  7 30  1  0
  8 31  1  0
  9 32  1  0
 14 33  1  0
 17 34  1  0
 19 35  1  0
 20 36  1  0
 23 37  1  0
M  ISO  8  26  14  27  14  28  14  29  14  30  14  31  14  32  14  33  14
M  ISO  4  34  14  35  14  36  14  37   9
M  END
>  <minimizedAffinity>  (1) 
-6.18444538

>  <minimizedRMSD>  (1) 
0.919730663

$$$$
