
     RDKit          3D

 35 38  0  0  0  0  0  0  0  0999 V2000
   47.9930   31.0600   48.3050 C   0  0  0  0  0  0  0  0  0  0  0  0
   48.9280   31.5770   49.1640 C   0  0  0  0  0  0  0  0  0  0  0  0
   49.9420   30.8050   49.6780 C   0  0  0  0  0  0  0  0  0  0  0  0
   49.9990   29.4630   49.3010 C   0  0  0  0  0  0  0  0  0  0  0  0
   49.0520   28.9380   48.4310 C   0  0  0  0  0  0  0  0  0  0  0  0
   48.0340   29.7300   47.9200 C   0  0  0  0  0  0  0  0  0  0  0  0
   44.4480   35.9440   44.4660 C   0  0  0  0  0  0  0  0  0  0  0  0
   45.1530   35.7870   43.2630 C   0  0  0  0  0  0  0  0  0  0  0  0
   46.1020   34.7760   43.1730 C   0  0  0  0  0  0  0  0  0  0  0  0
   46.3040   33.9860   44.2510 N   0  0  0  0  0  0  0  0  0  0  0  0
   45.6070   34.1620   45.4020 C   0  0  0  0  0  0  0  0  0  0  0  0
   44.6860   35.1280   45.5170 N   0  0  0  0  0  0  0  0  0  0  0  0
   45.8160   33.3300   46.5450 N   0  0  0  0  0  0  0  0  0  0  0  0
   46.9900   32.6640   46.6080 C   0  0  0  0  0  0  0  0  0  0  0  0
   46.9430   31.9400   47.7980 C   0  0  0  0  0  0  0  0  0  0  0  0
   45.7880   32.1700   48.4110 N   0  0  0  0  0  0  0  0  0  0  0  0
   45.0850   33.0150   47.6650 C   0  0  0  0  0  0  0  0  0  0  0  0
   47.0090   29.2230   46.9970 C   0  0  0  0  0  0  0  0  0  0  0  0
   47.0620   29.1420   45.6160 C   0  0  0  0  0  0  0  0  0  0  0  0
   46.0040   28.6380   44.9200 C   0  0  0  0  0  0  0  0  0  0  0  0
   44.8870   28.2080   45.5680 N   0  0  0  0  0  0  0  0  0  0  0  0
   44.8420   28.2910   46.9270 C   0  0  0  0  0  0  0  0  0  0  0  0
   45.8820   28.7860   47.6030 N   0  0  0  0  0  0  0  0  0  0  0  0
   48.8649   32.6375   49.4493 H   0  0  0  0  0  0  0  0  0  0  0  0
   50.6864   31.2323   50.3660 H   0  0  0  0  0  0  0  0  0  0  0  0
   50.7979   28.8174   49.6947 H   0  0  0  0  0  0  0  0  0  0  0  0
   49.1101   27.8780   48.1428 H   0  0  0  0  0  0  0  0  0  0  0  0
   43.6936   36.7396   44.5547 H   0  0  0  0  0  0  0  0  0  0  0  0
   44.9583   36.4512   42.4080 H   0  0  0  0  0  0  0  0  0  0  0  0
   46.6751   34.6223   42.2467 H   0  0  0  0  0  0  0  0  0  0  0  0
   47.8097   32.6881   45.8749 H   0  0  0  0  0  0  0  0  0  0  0  0
   44.0825   33.3993   47.9045 H   0  0  0  0  0  0  0  0  0  0  0  0
   47.9591   29.4848   45.0797 H   0  0  0  0  0  0  0  0  0  0  0  0
   46.0534   28.5781   43.8227 H   0  0  0  0  0  0  0  0  0  0  0  0
   43.9474   27.9497   47.4685 H   0  0  0  0  0  0  0  0  0  0  0  0
  1  2  2  0
  2  3  1  0
  4  3  2  0
  5  4  1  0
  6  1  1  0
  6  5  2  0
  7 12  2  0
  8  7  1  0
  9  8  2  0
  9 10  1  0
 10 11  2  0
 11 12  1  0
 11 13  1  0
 13 14  1  0
 13 17  1  0
 14 15  2  0
 15  1  1  0
 15 16  1  0
 17 16  2  0
 18 23  1  0
 18  6  1  0
 19 18  2  0
 20 21  2  0
 20 19  1  0
 21 22  1  0
 22 23  2  0
  2 24  1  0
  3 25  1  0
  4 26  1  0
  5 27  1  0
  7 28  1  0
  8 29  1  0
  9 30  1  0
 14 31  1  0
 17 32  1  0
 19 33  1  0
 20 34  1  0
 22 35  1  0
M  ISO  8  24  14  25  14  26  14  27  14  28  14  29  14  30  14  31  14
M  ISO  4  32  14  33  14  34  14  35  14
M  END
>  <minimizedAffinity>  (1) 
-5.98786068

>  <minimizedRMSD>  (1) 
0.789932907

$$$$
