
     RDKit          3D

 39 42  0  0  0  0  0  0  0  0999 V2000
   44.4520   35.9550   44.4690 C   0  0  0  0  0  0  0  0  0  0  0  0
   45.1600   35.8020   43.2600 C   0  0  0  0  0  0  0  0  0  0  0  0
   46.1040   34.7890   43.1650 C   0  0  0  0  0  0  0  0  0  0  0  0
   46.2980   33.9950   44.2400 N   0  0  0  0  0  0  0  0  0  0  0  0
   45.6000   34.1630   45.4010 C   0  0  0  0  0  0  0  0  0  0  0  0
   44.6840   35.1330   45.5200 N   0  0  0  0  0  0  0  0  0  0  0  0
   45.7940   33.3320   46.5480 N   0  0  0  0  0  0  0  0  0  0  0  0
   46.9680   32.6430   46.5940 C   0  0  0  0  0  0  0  0  0  0  0  0
   46.9190   31.9220   47.7830 C   0  0  0  0  0  0  0  0  0  0  0  0
   45.7740   32.1710   48.4090 N   0  0  0  0  0  0  0  0  0  0  0  0
   45.0800   33.0280   47.6680 C   0  0  0  0  0  0  0  0  0  0  0  0
   47.9620   31.0220   48.2810 C   0  0  0  0  0  0  0  0  0  0  0  0
   48.9220   31.5420   49.1280 C   0  0  0  0  0  0  0  0  0  0  0  0
   49.9280   30.7560   49.6310 C   0  0  0  0  0  0  0  0  0  0  0  0
   49.9600   29.4150   49.2710 C   0  0  0  0  0  0  0  0  0  0  0  0
   48.9870   28.8920   48.4150 C   0  0  0  0  0  0  0  0  0  0  0  0
   47.9730   29.7020   47.9110 C   0  0  0  0  0  0  0  0  0  0  0  0
   46.9910   29.1470   47.0390 N   0  0  0  0  0  0  0  0  0  0  0  0
   46.7660   29.1090   45.5960 C   0  0  0  0  0  0  0  0  0  0  0  0
   45.2960   29.4840   45.4170 C   0  0  0  0  0  0  0  0  0  0  0  0
   44.7120   29.2320   46.7940 C   0  0  0  0  0  0  0  0  0  0  0  0
   45.8030   28.3760   47.4090 C   0  0  0  0  0  0  0  0  0  0  0  0
   43.7006   36.7531   44.5602 H   0  0  0  0  0  0  0  0  0  0  0  0
   44.9683   36.4719   42.4089 H   0  0  0  0  0  0  0  0  0  0  0  0
   46.6785   34.6370   42.2393 H   0  0  0  0  0  0  0  0  0  0  0  0
   47.7796   32.6541   45.8515 H   0  0  0  0  0  0  0  0  0  0  0  0
   44.0867   33.4285   47.9188 H   0  0  0  0  0  0  0  0  0  0  0  0
   48.8789   32.6059   49.4042 H   0  0  0  0  0  0  0  0  0  0  0  0
   50.6903   31.1776   50.3027 H   0  0  0  0  0  0  0  0  0  0  0  0
   50.7545   28.7619   49.6612 H   0  0  0  0  0  0  0  0  0  0  0  0
   49.0227   27.8285   48.1363 H   0  0  0  0  0  0  0  0  0  0  0  0
   47.4155   29.8342   45.0839 H   0  0  0  0  0  0  0  0  0  0  0  0
   46.9968   28.1228   45.1669 H   0  0  0  0  0  0  0  0  0  0  0  0
   45.1892   30.5403   45.1291 H   0  0  0  0  0  0  0  0  0  0  0  0
   44.7956   28.9123   44.6216 H   0  0  0  0  0  0  0  0  0  0  0  0
   44.5694   30.1694   47.3517 H   0  0  0  0  0  0  0  0  0  0  0  0
   43.7149   28.7675   46.7894 H   0  0  0  0  0  0  0  0  0  0  0  0
   45.8219   27.3669   46.9716 H   0  0  0  0  0  0  0  0  0  0  0  0
   45.6910   28.1985   48.4888 H   0  0  0  0  0  0  0  0  0  0  0  0
  1  6  2  0
  2  1  1  0
  3  2  2  0
  3  4  1  0
  4  5  2  0
  5  6  1  0
  5  7  1  0
  7  8  1  0
  7 11  1  0
  8  9  2  0
  9 12  1  0
  9 10  1  0
 11 10  2  0
 12 13  2  0
 13 14  1  0
 15 14  2  0
 16 15  1  0
 17 12  1  0
 17 16  2  0
 18 22  1  0
 18 17  1  0
 19 18  1  0
 20 19  1  0
 20 21  1  0
 21 22  1  0
  1 23  1  0
  2 24  1  0
  3 25  1  0
  8 26  1  0
 11 27  1  0
 13 28  1  0
 14 29  1  0
 15 30  1  0
 16 31  1  0
 19 32  1  0
 19 33  1  0
 20 34  1  0
 20 35  1  0
 21 36  1  0
 21 37  1  0
 22 38  1  0
 22 39  1  0
M  ISO  8  23  14  24  14  25  14  26  14  27  14  28  14  29  14  30  14
M  ISO  8  31  14  32  13  33  13  34  13  35  13  36  13  37  13  38  13
M  ISO  1  39  13
M  END
>  <minimizedAffinity>  (1) 
-6.07621908

>  <minimizedRMSD>  (1) 
0.705391288

$$$$
