
     RDKit          3D

 42 45  0  0  0  0  0  0  0  0999 V2000
   47.9380   31.0150   48.2640 C   0  0  0  0  0  0  0  0  0  0  0  0
   48.9450   31.5150   49.0550 C   0  0  0  0  0  0  0  0  0  0  0  0
   49.9310   30.7030   49.5540 C   0  0  0  0  0  0  0  0  0  0  0  0
   49.8970   29.3480   49.2430 C   0  0  0  0  0  0  0  0  0  0  0  0
   48.8920   28.8350   48.4500 C   0  0  0  0  0  0  0  0  0  0  0  0
   47.9000   29.6630   47.9510 C   0  0  0  0  0  0  0  0  0  0  0  0
   44.4470   35.9760   44.4830 C   0  0  0  0  0  0  0  0  0  0  0  0
   45.1580   35.8230   43.2730 C   0  0  0  0  0  0  0  0  0  0  0  0
   46.1080   34.7890   43.1730 C   0  0  0  0  0  0  0  0  0  0  0  0
   46.2830   34.0030   44.2440 N   0  0  0  0  0  0  0  0  0  0  0  0
   45.5910   34.1670   45.3960 C   0  0  0  0  0  0  0  0  0  0  0  0
   44.6810   35.1350   45.5300 N   0  0  0  0  0  0  0  0  0  0  0  0
   45.7790   33.3240   46.5440 N   0  0  0  0  0  0  0  0  0  0  0  0
   46.9610   32.6430   46.5790 C   0  0  0  0  0  0  0  0  0  0  0  0
   46.9150   31.9110   47.7580 C   0  0  0  0  0  0  0  0  0  0  0  0
   45.7530   32.1510   48.3920 N   0  0  0  0  0  0  0  0  0  0  0  0
   45.0570   33.0110   47.6570 C   0  0  0  0  0  0  0  0  0  0  0  0
   46.8660   29.1270   47.1340 N   0  0  0  0  0  0  0  0  0  0  0  0
   46.9570   29.0570   45.6950 C   0  0  0  0  0  0  0  0  0  0  0  0
   45.7090   29.6190   45.0420 C   0  0  0  0  0  0  0  0  0  0  0  0
   44.4530   29.0390   45.6480 C   0  0  0  0  0  0  0  0  0  0  0  0
   44.7240   28.0460   46.7380 C   0  0  0  0  0  0  0  0  0  0  0  0
   45.6560   28.6230   47.7560 C   0  0  0  0  0  0  0  0  0  0  0  0
   48.9602   32.5889   49.2927 H   0  0  0  0  0  0  0  0  0  0  0  0
   50.7314   31.1145   50.1865 H   0  0  0  0  0  0  0  0  0  0  0  0
   50.6786   28.6794   49.6330 H   0  0  0  0  0  0  0  0  0  0  0  0
   48.8781   27.7611   48.2122 H   0  0  0  0  0  0  0  0  0  0  0  0
   43.7005   36.7779   44.5814 H   0  0  0  0  0  0  0  0  0  0  0  0
   44.9732   36.4986   42.4248 H   0  0  0  0  0  0  0  0  0  0  0  0
   46.6853   34.6321   42.2499 H   0  0  0  0  0  0  0  0  0  0  0  0
   47.7721   32.6684   45.8364 H   0  0  0  0  0  0  0  0  0  0  0  0
   44.0610   33.4060   47.9058 H   0  0  0  0  0  0  0  0  0  0  0  0
   47.8297   29.6375   45.3614 H   0  0  0  0  0  0  0  0  0  0  0  0
   47.0602   28.0018   45.4020 H   0  0  0  0  0  0  0  0  0  0  0  0
   45.7300   29.3805   43.9684 H   0  0  0  0  0  0  0  0  0  0  0  0
   45.6973   30.7070   45.2035 H   0  0  0  0  0  0  0  0  0  0  0  0
   43.8550   29.8620   46.0663 H   0  0  0  0  0  0  0  0  0  0  0  0
   43.9210   28.5056   44.8465 H   0  0  0  0  0  0  0  0  0  0  0  0
   43.7757   27.7780   47.2268 H   0  0  0  0  0  0  0  0  0  0  0  0
   45.1901   27.1529   46.2963 H   0  0  0  0  0  0  0  0  0  0  0  0
   45.9245   27.8404   48.4809 H   0  0  0  0  0  0  0  0  0  0  0  0
   45.1483   29.4596   48.2583 H   0  0  0  0  0  0  0  0  0  0  0  0
  1  2  2  0
  2  3  1  0
  4  3  2  0
  5  4  1  0
  6  1  1  0
  6  5  2  0
  7 12  2  0
  8  7  1  0
  9  8  2  0
  9 10  1  0
 10 11  2  0
 11 12  1  0
 11 13  1  0
 13 14  1  0
 13 17  1  0
 14 15  2  0
 15  1  1  0
 15 16  1  0
 17 16  2  0
 18 23  1  0
 18  6  1  0
 19 18  1  0
 20 21  1  0
 20 19  1  0
 21 22  1  0
 22 23  1  0
  2 24  1  0
  3 25  1  0
  4 26  1  0
  5 27  1  0
  7 28  1  0
  8 29  1  0
  9 30  1  0
 14 31  1  0
 17 32  1  0
 19 33  1  0
 19 34  1  0
 20 35  1  0
 20 36  1  0
 21 37  1  0
 21 38  1  0
 22 39  1  0
 22 40  1  0
 23 41  1  0
 23 42  1  0
M  ISO  8  24  14  25  14  26  14  27  14  28  14  29  14  30  14  31  14
M  ISO  8  32  14  33  13  34  13  35  13  36  13  37  13  38  13  39  13
M  ISO  3  40  13  41  13  42  13
M  END
>  <minimizedAffinity>  (1) 
-6.02732325

>  <minimizedRMSD>  (1) 
0.831404805

$$$$
