
     RDKit          3D

 40 43  0  0  0  0  0  0  0  0999 V2000
   44.4690   35.9900   44.5020 C   0  0  0  0  0  0  0  0  0  0  0  0
   45.1680   35.8480   43.2890 C   0  0  0  0  0  0  0  0  0  0  0  0
   46.1040   34.8040   43.1780 C   0  0  0  0  0  0  0  0  0  0  0  0
   46.2830   33.9960   44.2400 N   0  0  0  0  0  0  0  0  0  0  0  0
   45.5950   34.1570   45.3980 C   0  0  0  0  0  0  0  0  0  0  0  0
   44.6940   35.1400   45.5420 N   0  0  0  0  0  0  0  0  0  0  0  0
   45.7770   33.3080   46.5290 N   0  0  0  0  0  0  0  0  0  0  0  0
   46.9500   32.6130   46.5660 C   0  0  0  0  0  0  0  0  0  0  0  0
   46.9010   31.8680   47.7390 C   0  0  0  0  0  0  0  0  0  0  0  0
   45.7370   32.1150   48.3700 N   0  0  0  0  0  0  0  0  0  0  0  0
   45.0530   32.9850   47.6430 C   0  0  0  0  0  0  0  0  0  0  0  0
   47.9180   30.9620   48.2300 C   0  0  0  0  0  0  0  0  0  0  0  0
   48.8810   31.4500   49.0910 C   0  0  0  0  0  0  0  0  0  0  0  0
   49.8750   30.6420   49.5930 C   0  0  0  0  0  0  0  0  0  0  0  0
   49.8890   29.3060   49.2110 C   0  0  0  0  0  0  0  0  0  0  0  0
   48.9170   28.8080   48.3390 C   0  0  0  0  0  0  0  0  0  0  0  0
   47.9300   29.6450   47.8510 C   0  0  0  0  0  0  0  0  0  0  0  0
   46.9610   29.0950   46.9650 N   0  0  0  0  0  0  0  0  0  0  0  0
   46.8140   29.0770   45.5220 C   0  0  0  0  0  0  0  0  0  0  0  0
   45.4370   29.5460   45.0990 C   0  0  0  0  0  0  0  0  0  0  0  0
   44.4610   29.2520   46.0480 O   0  0  0  0  0  0  0  0  0  0  0  0
   44.8210   28.0620   46.6920 C   0  0  0  0  0  0  0  0  0  0  0  0
   45.8960   28.4090   47.6870 C   0  0  0  0  0  0  0  0  0  0  0  0
   43.7310   36.7983   44.6117 H   0  0  0  0  0  0  0  0  0  0  0  0
   44.9871   36.5355   42.4496 H   0  0  0  0  0  0  0  0  0  0  0  0
   46.6738   34.6519   42.2495 H   0  0  0  0  0  0  0  0  0  0  0  0
   47.7626   32.6368   45.8249 H   0  0  0  0  0  0  0  0  0  0  0  0
   44.0597   33.3846   47.8953 H   0  0  0  0  0  0  0  0  0  0  0  0
   48.8527   32.5103   49.3825 H   0  0  0  0  0  0  0  0  0  0  0  0
   50.6373   31.0423   50.2776 H   0  0  0  0  0  0  0  0  0  0  0  0
   50.6707   28.6356   49.5977 H   0  0  0  0  0  0  0  0  0  0  0  0
   48.9370   27.7495   48.0405 H   0  0  0  0  0  0  0  0  0  0  0  0
   47.5701   29.7407   45.0773 H   0  0  0  0  0  0  0  0  0  0  0  0
   46.9485   28.0422   45.1740 H   0  0  0  0  0  0  0  0  0  0  0  0
   45.4658   30.6352   44.9477 H   0  0  0  0  0  0  0  0  0  0  0  0
   45.1729   29.0170   44.1714 H   0  0  0  0  0  0  0  0  0  0  0  0
   43.9501   27.6343   47.2103 H   0  0  0  0  0  0  0  0  0  0  0  0
   45.1817   27.3168   45.9677 H   0  0  0  0  0  0  0  0  0  0  0  0
   46.2879   27.4918   48.1508 H   0  0  0  0  0  0  0  0  0  0  0  0
   45.4924   29.0524   48.4827 H   0  0  0  0  0  0  0  0  0  0  0  0
  1  6  2  0
  2  1  1  0
  3  2  2  0
  3  4  1  0
  4  5  2  0
  5  6  1  0
  5  7  1  0
  7  8  1  0
  7 11  1  0
  8  9  2  0
  9 12  1  0
  9 10  1  0
 11 10  2  0
 12 13  2  0
 13 14  1  0
 15 14  2  0
 16 15  1  0
 17 12  1  0
 17 16  2  0
 18 23  1  0
 18 17  1  0
 19 18  1  0
 20 19  1  0
 20 21  1  0
 21 22  1  0
 22 23  1  0
  1 24  1  0
  2 25  1  0
  3 26  1  0
  8 27  1  0
 11 28  1  0
 13 29  1  0
 14 30  1  0
 15 31  1  0
 16 32  1  0
 19 33  1  0
 19 34  1  0
 20 35  1  0
 20 36  1  0
 22 37  1  0
 22 38  1  0
 23 39  1  0
 23 40  1  0
M  ISO  8  24  14  25  14  26  14  27  14  28  14  29  14  30  14  31  14
M  ISO  8  32  14  33  13  34  13  35  13  36  13  37  13  38  13  39  13
M  ISO  1  40  13
M  END
>  <minimizedAffinity>  (1) 
-5.98505449

>  <minimizedRMSD>  (1) 
0.667966425

$$$$
