
     RDKit          3D

 33 36  0  0  0  0  0  0  0  0999 V2000
   44.4390   35.9150   44.4370 C   0  0  0  0  0  0  0  0  0  0  0  0
   45.1600   35.7610   43.2430 C   0  0  0  0  0  0  0  0  0  0  0  0
   46.1290   34.7600   43.1740 C   0  0  0  0  0  0  0  0  0  0  0  0
   46.3230   33.9900   44.2640 N   0  0  0  0  0  0  0  0  0  0  0  0
   45.6090   34.1590   45.4150 C   0  0  0  0  0  0  0  0  0  0  0  0
   44.6720   35.1110   45.5110 N   0  0  0  0  0  0  0  0  0  0  0  0
   45.8070   33.3430   46.5770 N   0  0  0  0  0  0  0  0  0  0  0  0
   46.9870   32.6850   46.6400 C   0  0  0  0  0  0  0  0  0  0  0  0
   46.9720   31.9710   47.8140 C   0  0  0  0  0  0  0  0  0  0  0  0
   45.8020   32.2010   48.4400 N   0  0  0  0  0  0  0  0  0  0  0  0
   45.0910   33.0350   47.6930 C   0  0  0  0  0  0  0  0  0  0  0  0
   48.0040   31.1010   48.3380 C   0  0  0  0  0  0  0  0  0  0  0  0
   48.9830   31.6260   49.1480 C   0  0  0  0  0  0  0  0  0  0  0  0
   49.9820   30.8390   49.6700 C   0  0  0  0  0  0  0  0  0  0  0  0
   49.9860   29.4850   49.3610 C   0  0  0  0  0  0  0  0  0  0  0  0
   49.0080   28.9530   48.5510 C   0  0  0  0  0  0  0  0  0  0  0  0
   47.9950   29.7460   48.0200 C   0  0  0  0  0  0  0  0  0  0  0  0
   46.9470   29.1720   47.1470 C   0  0  0  0  0  0  0  0  0  0  0  0
   47.1660   28.9970   45.7470 C   0  0  0  0  0  0  0  0  0  0  0  0
   45.6140   28.2800   45.1670 S   0  0  0  0  0  0  0  0  0  0  0  0
   44.9050   28.3350   46.9520 C   0  0  0  0  0  0  0  0  0  0  0  0
   45.7490   28.7780   47.5530 N   0  0  0  0  0  0  0  0  0  0  0  0
   43.6714   36.6998   44.5066 H   0  0  0  0  0  0  0  0  0  0  0  0
   44.9653   36.4153   42.3804 H   0  0  0  0  0  0  0  0  0  0  0  0
   46.7173   34.6034   42.2579 H   0  0  0  0  0  0  0  0  0  0  0  0
   47.7985   32.7154   45.8980 H   0  0  0  0  0  0  0  0  0  0  0  0
   44.0877   33.4153   47.9354 H   0  0  0  0  0  0  0  0  0  0  0  0
   48.9666   32.7003   49.3838 H   0  0  0  0  0  0  0  0  0  0  0  0
   50.7596   31.2713   50.3169 H   0  0  0  0  0  0  0  0  0  0  0  0
   50.7749   28.8340   49.7657 H   0  0  0  0  0  0  0  0  0  0  0  0
   49.0277   27.8780   48.3185 H   0  0  0  0  0  0  0  0  0  0  0  0
   48.0651   29.2407   45.1619 H   0  0  0  0  0  0  0  0  0  0  0  0
   43.9138   28.0118   47.3028 H   0  0  0  0  0  0  0  0  0  0  0  0
  1  6  2  0
  2  1  1  0
  3  2  2  0
  3  4  1  0
  4  5  2  0
  5  6  1  0
  5  7  1  0
  7  8  1  0
  7 11  1  0
  8  9  2  0
  9 12  1  0
  9 10  1  0
 11 10  2  0
 12 13  2  0
 13 14  1  0
 15 14  2  0
 16 15  1  0
 17 12  1  0
 17 16  2  0
 18 22  1  0
 18 17  1  0
 19 18  2  0
 20 19  1  0
 20 21  1  0
 21 22  2  0
  1 23  1  0
  2 24  1  0
  3 25  1  0
  8 26  1  0
 11 27  1  0
 13 28  1  0
 14 29  1  0
 15 30  1  0
 16 31  1  0
 19 32  1  0
 21 33  1  0
M  ISO  8  23  14  24  14  25  14  26  14  27  14  28  14  29  14  30  14
M  ISO  3  31  14  32  14  33  14
M  END
>  <minimizedAffinity>  (1) 
-5.86431599

>  <minimizedRMSD>  (1) 
0.89270097

$$$$
