
     RDKit          3D

 34 37  0  0  0  0  0  0  0  0999 V2000
   47.9180   30.9870   48.2440 C   0  0  0  0  0  0  0  0  0  0  0  0
   48.8640   31.4570   49.1160 C   0  0  0  0  0  0  0  0  0  0  0  0
   49.8590   30.6380   49.6170 C   0  0  0  0  0  0  0  0  0  0  0  0
   49.8720   29.3070   49.2020 C   0  0  0  0  0  0  0  0  0  0  0  0
   48.9230   28.8270   48.3240 C   0  0  0  0  0  0  0  0  0  0  0  0
   47.9500   29.6750   47.8500 C   0  0  0  0  0  0  0  0  0  0  0  0
   44.4660   35.9940   44.4840 C   0  0  0  0  0  0  0  0  0  0  0  0
   45.1600   35.8330   43.2670 C   0  0  0  0  0  0  0  0  0  0  0  0
   46.0910   34.7810   43.1670 C   0  0  0  0  0  0  0  0  0  0  0  0
   46.2670   33.9910   44.2390 N   0  0  0  0  0  0  0  0  0  0  0  0
   45.5880   34.1680   45.3960 C   0  0  0  0  0  0  0  0  0  0  0  0
   44.6970   35.1530   45.5300 N   0  0  0  0  0  0  0  0  0  0  0  0
   45.7750   33.3280   46.5380 N   0  0  0  0  0  0  0  0  0  0  0  0
   46.9420   32.6280   46.5680 C   0  0  0  0  0  0  0  0  0  0  0  0
   46.8920   31.9000   47.7500 C   0  0  0  0  0  0  0  0  0  0  0  0
   45.7480   32.1550   48.3940 N   0  0  0  0  0  0  0  0  0  0  0  0
   45.0620   33.0260   47.6600 C   0  0  0  0  0  0  0  0  0  0  0  0
   46.9720   29.1170   46.9260 C   0  0  0  0  0  0  0  0  0  0  0  0
   45.8640   28.4630   47.4790 C   0  0  0  0  0  0  0  0  0  0  0  0
   45.0860   28.0220   46.4170 C   0  0  0  0  0  0  0  0  0  0  0  0
   45.7090   28.4000   45.2880 N   0  0  0  0  0  0  0  0  0  0  0  0
   46.8230   29.0480   45.5910 N   0  0  0  0  0  0  0  0  0  0  0  0
   48.8313   32.5121   49.4254 H   0  0  0  0  0  0  0  0  0  0  0  0
   50.6139   31.0230   50.3184 H   0  0  0  0  0  0  0  0  0  0  0  0
   50.6513   28.6293   49.5808 H   0  0  0  0  0  0  0  0  0  0  0  0
   48.9443   27.7743   48.0055 H   0  0  0  0  0  0  0  0  0  0  0  0
   43.7315   36.8061   44.5894 H   0  0  0  0  0  0  0  0  0  0  0  0
   44.9792   36.5103   42.4193 H   0  0  0  0  0  0  0  0  0  0  0  0
   46.6569   34.6114   42.2391 H   0  0  0  0  0  0  0  0  0  0  0  0
   47.7483   32.6369   45.8199 H   0  0  0  0  0  0  0  0  0  0  0  0
   44.0750   33.4378   47.9175 H   0  0  0  0  0  0  0  0  0  0  0  0
   45.6510   28.3252   48.5493 H   0  0  0  0  0  0  0  0  0  0  0  0
   44.1384   27.4677   46.4867 H   0  0  0  0  0  0  0  0  0  0  0  0
   45.3714   28.2140   44.3328 H   0  0  0  0  0  0  0  0  0  0  0  0
  1  2  2  0
  2  3  1  0
  4  3  2  0
  5  4  1  0
  6  1  1  0
  6  5  2  0
  7 12  2  0
  8  7  1  0
  9  8  2  0
  9 10  1  0
 10 11  2  0
 11 12  1  0
 11 13  1  0
 13 14  1  0
 13 17  1  0
 14 15  2  0
 15  1  1  0
 15 16  1  0
 17 16  2  0
 18 19  1  0
 18  6  1  0
 20 19  2  0
 21 22  1  0
 21 20  1  0
 22 18  2  0
  2 23  1  0
  3 24  1  0
  4 25  1  0
  5 26  1  0
  7 27  1  0
  8 28  1  0
  9 29  1  0
 14 30  1  0
 17 31  1  0
 19 32  1  0
 20 33  1  0
 21 34  1  0
M  ISO  8  23  14  24  14  25  14  26  14  27  14  28  14  29  14  30  14
M  ISO  4  31  14  32  14  33  14  34   9
M  END
>  <minimizedAffinity>  (1) 
-5.8612299

>  <minimizedRMSD>  (1) 
0.846960962

$$$$
