
     RDKit          3D

 32 35  0  0  0  0  0  0  0  0999 V2000
   44.4680   35.8030   44.6070 C   0  0  0  0  0  0  0  0  0  0  0  0
   45.1710   35.6780   43.4020 C   0  0  0  0  0  0  0  0  0  0  0  0
   46.1410   34.6850   43.3060 C   0  0  0  0  0  0  0  0  0  0  0  0
   46.3510   33.8960   44.3800 N   0  0  0  0  0  0  0  0  0  0  0  0
   45.6540   34.0390   45.5410 C   0  0  0  0  0  0  0  0  0  0  0  0
   44.7160   34.9820   45.6660 N   0  0  0  0  0  0  0  0  0  0  0  0
   45.8820   33.2030   46.6660 N   0  0  0  0  0  0  0  0  0  0  0  0
   47.0620   32.5550   46.7210 C   0  0  0  0  0  0  0  0  0  0  0  0
   47.0610   31.8150   47.8800 C   0  0  0  0  0  0  0  0  0  0  0  0
   45.8940   32.0160   48.5110 N   0  0  0  0  0  0  0  0  0  0  0  0
   45.1660   32.8570   47.7870 C   0  0  0  0  0  0  0  0  0  0  0  0
   48.1130   30.9490   48.3770 C   0  0  0  0  0  0  0  0  0  0  0  0
   49.0460   31.4580   49.2460 C   0  0  0  0  0  0  0  0  0  0  0  0
   50.0620   30.6730   49.7450 C   0  0  0  0  0  0  0  0  0  0  0  0
   50.1310   29.3420   49.3510 C   0  0  0  0  0  0  0  0  0  0  0  0
   49.1940   28.8290   48.4790 C   0  0  0  0  0  0  0  0  0  0  0  0
   48.1820   29.6370   47.9900 C   0  0  0  0  0  0  0  0  0  0  0  0
   47.2240   29.0330   47.0730 C   0  0  0  0  0  0  0  0  0  0  0  0
   46.1040   28.3960   47.4520 N   0  0  0  0  0  0  0  0  0  0  0  0
   45.4660   27.9720   46.4010 O   0  0  0  0  0  0  0  0  0  0  0  0
   46.1190   28.3000   45.3160 C   0  0  0  0  0  0  0  0  0  0  0  0
   47.1980   28.9520   45.7330 N   0  0  0  0  0  0  0  0  0  0  0  0
   43.6974   36.5824   44.7007 H   0  0  0  0  0  0  0  0  0  0  0  0
   44.9619   36.3470   42.5542 H   0  0  0  0  0  0  0  0  0  0  0  0
   46.7200   34.5473   42.3809 H   0  0  0  0  0  0  0  0  0  0  0  0
   47.8726   32.6079   45.9793 H   0  0  0  0  0  0  0  0  0  0  0  0
   44.1582   33.2169   48.0415 H   0  0  0  0  0  0  0  0  0  0  0  0
   48.9810   32.5132   49.5497 H   0  0  0  0  0  0  0  0  0  0  0  0
   50.8038   31.0912   50.4413 H   0  0  0  0  0  0  0  0  0  0  0  0
   50.9345   28.6966   49.7355 H   0  0  0  0  0  0  0  0  0  0  0  0
   49.2509   27.7745   48.1711 H   0  0  0  0  0  0  0  0  0  0  0  0
   45.8340   28.0815   44.2763 H   0  0  0  0  0  0  0  0  0  0  0  0
  1  6  2  0
  2  1  1  0
  3  2  2  0
  3  4  1  0
  4  5  2  0
  5  6  1  0
  5  7  1  0
  7  8  1  0
  7 11  1  0
  8  9  2  0
  9 12  1  0
  9 10  1  0
 11 10  2  0
 12 13  2  0
 13 14  1  0
 15 14  2  0
 16 15  1  0
 17 12  1  0
 17 16  2  0
 18 19  2  0
 18 17  1  0
 20 19  1  0
 21 22  2  0
 21 20  1  0
 22 18  1  0
  1 23  1  0
  2 24  1  0
  3 25  1  0
  8 26  1  0
 11 27  1  0
 13 28  1  0
 14 29  1  0
 15 30  1  0
 16 31  1  0
 21 32  1  0
M  ISO  8  23  14  24  14  25  14  26  14  27  14  28  14  29  14  30  14
M  ISO  2  31  14  32  14
M  END
>  <minimizedAffinity>  (1) 
-5.82855225

>  <minimizedRMSD>  (1) 
0.628144085

$$$$
