
     RDKit          3D

 36 38  0  0  0  0  0  0  0  0999 V2000
   44.4390   35.9650   44.4440 C   0  0  0  0  0  0  0  0  0  0  0  0
   45.1460   35.8070   43.2320 C   0  0  0  0  0  0  0  0  0  0  0  0
   46.0960   34.7910   43.1530 C   0  0  0  0  0  0  0  0  0  0  0  0
   46.2940   34.0110   44.2400 N   0  0  0  0  0  0  0  0  0  0  0  0
   45.5910   34.1920   45.3990 C   0  0  0  0  0  0  0  0  0  0  0  0
   44.6730   35.1550   45.5100 N   0  0  0  0  0  0  0  0  0  0  0  0
   45.8070   33.3650   46.5360 N   0  0  0  0  0  0  0  0  0  0  0  0
   46.9750   32.6980   46.6090 C   0  0  0  0  0  0  0  0  0  0  0  0
   46.9360   31.9760   47.7940 C   0  0  0  0  0  0  0  0  0  0  0  0
   45.7780   32.2110   48.4030 N   0  0  0  0  0  0  0  0  0  0  0  0
   45.0780   33.0520   47.6550 C   0  0  0  0  0  0  0  0  0  0  0  0
   47.9810   31.0960   48.3110 C   0  0  0  0  0  0  0  0  0  0  0  0
   48.9280   31.6120   49.1570 C   0  0  0  0  0  0  0  0  0  0  0  0
   49.9330   30.8370   49.6740 C   0  0  0  0  0  0  0  0  0  0  0  0
   49.9710   29.4970   49.3170 C   0  0  0  0  0  0  0  0  0  0  0  0
   49.0210   28.9720   48.4660 C   0  0  0  0  0  0  0  0  0  0  0  0
   47.9990   29.7560   47.9390 C   0  0  0  0  0  0  0  0  0  0  0  0
   47.0020   29.1650   47.0360 C   0  0  0  0  0  0  0  0  0  0  0  0
   46.9960   29.8230   45.6670 C   0  0  0  0  0  0  0  0  0  0  0  0
   45.6470   29.2770   47.6760 C   0  0  0  0  0  0  0  0  0  0  0  0
   43.6833   36.7600   44.5271 H   0  0  0  0  0  0  0  0  0  0  0  0
   44.9521   36.4677   42.3741 H   0  0  0  0  0  0  0  0  0  0  0  0
   46.6707   34.6273   42.2295 H   0  0  0  0  0  0  0  0  0  0  0  0
   47.7953   32.7209   45.8765 H   0  0  0  0  0  0  0  0  0  0  0  0
   44.0752   33.4365   47.8929 H   0  0  0  0  0  0  0  0  0  0  0  0
   48.8800   32.6769   49.4283 H   0  0  0  0  0  0  0  0  0  0  0  0
   50.6868   31.2645   50.3516 H   0  0  0  0  0  0  0  0  0  0  0  0
   50.7648   28.8482   49.7157 H   0  0  0  0  0  0  0  0  0  0  0  0
   49.0724   27.9066   48.1970 H   0  0  0  0  0  0  0  0  0  0  0  0
   47.2654   28.1093   46.8745 H   0  0  0  0  0  0  0  0  0  0  0  0
   46.9860   30.9165   45.7858 H   0  0  0  0  0  0  0  0  0  0  0  0
   47.8969   29.5227   45.1119 H   0  0  0  0  0  0  0  0  0  0  0  0
   46.1007   29.5063   45.1119 H   0  0  0  0  0  0  0  0  0  0  0  0
   45.7566   29.2679   48.7705 H   0  0  0  0  0  0  0  0  0  0  0  0
   45.1703   30.2176   47.3630 H   0  0  0  0  0  0  0  0  0  0  0  0
   45.0223   28.4274   47.3630 H   0  0  0  0  0  0  0  0  0  0  0  0
  1  6  2  0
  2  1  1  0
  3  2  2  0
  3  4  1  0
  4  5  2  0
  5  6  1  0
  5  7  1  0
  7  8  1  0
  7 11  1  0
  8  9  2  0
  9 12  1  0
  9 10  1  0
 11 10  2  0
 12 13  2  0
 13 14  1  0
 15 14  2  0
 16 15  1  0
 17 12  1  0
 17 16  2  0
 18 20  1  0
 18 17  1  0
 19 18  1  0
  1 21  1  0
  2 22  1  0
  3 23  1  0
  8 24  1  0
 11 25  1  0
 13 26  1  0
 14 27  1  0
 15 28  1  0
 16 29  1  0
 18 30  1  0
 19 31  1  0
 19 32  1  0
 19 33  1  0
 20 34  1  0
 20 35  1  0
 20 36  1  0
M  ISO  8  21  14  22  14  23  14  24  14  25  14  26  14  27  14  28  14
M  ISO  8  29  14  30   8  31   8  32   8  33   8  34   8  35   8  36   8
M  END
>  <minimizedAffinity>  (1) 
-5.78463554

>  <minimizedRMSD>  (1) 
0.631805182

$$$$
