
     RDKit          3D

 34 37  0  0  0  0  0  0  0  0999 V2000
   44.4400   35.9640   44.4440 C   0  0  0  0  0  0  0  0  0  0  0  0
   45.1500   35.7930   43.2330 C   0  0  0  0  0  0  0  0  0  0  0  0
   46.0980   34.7710   43.1570 C   0  0  0  0  0  0  0  0  0  0  0  0
   46.2890   33.9960   44.2430 N   0  0  0  0  0  0  0  0  0  0  0  0
   45.5950   34.1770   45.3980 C   0  0  0  0  0  0  0  0  0  0  0  0
   44.6810   35.1460   45.5070 N   0  0  0  0  0  0  0  0  0  0  0  0
   45.7940   33.3600   46.5500 N   0  0  0  0  0  0  0  0  0  0  0  0
   46.9770   32.6890   46.6060 C   0  0  0  0  0  0  0  0  0  0  0  0
   46.9430   31.9760   47.7920 C   0  0  0  0  0  0  0  0  0  0  0  0
   45.7760   32.2170   48.4200 N   0  0  0  0  0  0  0  0  0  0  0  0
   45.0770   33.0570   47.6660 C   0  0  0  0  0  0  0  0  0  0  0  0
   47.9770   31.1000   48.3140 C   0  0  0  0  0  0  0  0  0  0  0  0
   48.9420   31.6210   49.1500 C   0  0  0  0  0  0  0  0  0  0  0  0
   49.9370   30.8270   49.6650 C   0  0  0  0  0  0  0  0  0  0  0  0
   49.9640   29.4800   49.3340 C   0  0  0  0  0  0  0  0  0  0  0  0
   48.9990   28.9580   48.4980 C   0  0  0  0  0  0  0  0  0  0  0  0
   47.9990   29.7710   47.9840 C   0  0  0  0  0  0  0  0  0  0  0  0
   47.0550   29.1530   47.1340 C   0  0  0  0  0  0  0  0  0  0  0  0
   45.8400   28.5220   47.4440 C   0  0  0  0  0  0  0  0  0  0  0  0
   45.0740   27.9860   46.4440 C   0  0  0  0  0  0  0  0  0  0  0  0
   45.5700   28.1010   45.0870 C   0  0  0  0  0  0  0  0  0  0  0  0
   47.1900   29.0220   45.3550 S   0  0  0  0  0  0  0  0  0  0  0  0
   43.6882   36.7626   44.5285 H   0  0  0  0  0  0  0  0  0  0  0  0
   44.9598   36.4497   42.3713 H   0  0  0  0  0  0  0  0  0  0  0  0
   46.6739   34.6027   42.2350 H   0  0  0  0  0  0  0  0  0  0  0  0
   47.7893   32.7091   45.8646 H   0  0  0  0  0  0  0  0  0  0  0  0
   44.0765   33.4464   47.9056 H   0  0  0  0  0  0  0  0  0  0  0  0
   48.9143   32.6898   49.4085 H   0  0  0  0  0  0  0  0  0  0  0  0
   50.7020   31.2531   50.3307 H   0  0  0  0  0  0  0  0  0  0  0  0
   50.7537   28.8293   49.7376 H   0  0  0  0  0  0  0  0  0  0  0  0
   49.0224   27.8897   48.2370 H   0  0  0  0  0  0  0  0  0  0  0  0
   45.5037   28.4583   48.4894 H   0  0  0  0  0  0  0  0  0  0  0  0
   44.1183   27.4869   46.6621 H   0  0  0  0  0  0  0  0  0  0  0  0
   45.1193   27.7446   44.1490 H   0  0  0  0  0  0  0  0  0  0  0  0
  1  6  2  0
  2  1  1  0
  3  2  2  0
  3  4  1  0
  4  5  2  0
  5  6  1  0
  5  7  1  0
  7  8  1  0
  7 11  1  0
  8  9  2  0
  9 12  1  0
  9 10  1  0
 11 10  2  0
 12 13  2  0
 13 14  1  0
 15 14  2  0
 16 15  1  0
 17 12  1  0
 17 16  2  0
 18 19  2  0
 18 17  1  0
 20 19  1  0
 21 22  1  0
 21 20  2  0
 22 18  1  0
  1 23  1  0
  2 24  1  0
  3 25  1  0
  8 26  1  0
 11 27  1  0
 13 28  1  0
 14 29  1  0
 15 30  1  0
 16 31  1  0
 19 32  1  0
 20 33  1  0
 21 34  1  0
M  ISO  8  23  14  24  14  25  14  26  14  27  14  28  14  29  14  30  14
M  ISO  4  31  14  32  14  33  14  34  14
M  END
>  <minimizedAffinity>  (1) 
-5.87488365

>  <minimizedRMSD>  (1) 
0.815855026

$$$$
