
     RDKit          3D

 33 36  0  0  0  0  0  0  0  0999 V2000
   44.4710   35.9680   44.4820 C   0  0  0  0  0  0  0  0  0  0  0  0
   45.1650   35.8200   43.2790 C   0  0  0  0  0  0  0  0  0  0  0  0
   46.1050   34.7800   43.1820 C   0  0  0  0  0  0  0  0  0  0  0  0
   46.2830   33.9900   44.2510 N   0  0  0  0  0  0  0  0  0  0  0  0
   45.5940   34.1580   45.4070 C   0  0  0  0  0  0  0  0  0  0  0  0
   44.6870   35.1350   45.5480 N   0  0  0  0  0  0  0  0  0  0  0  0
   45.7860   33.3110   46.5480 N   0  0  0  0  0  0  0  0  0  0  0  0
   46.9600   32.6220   46.5820 C   0  0  0  0  0  0  0  0  0  0  0  0
   46.9160   31.8880   47.7570 C   0  0  0  0  0  0  0  0  0  0  0  0
   45.7580   32.1300   48.3980 N   0  0  0  0  0  0  0  0  0  0  0  0
   45.0650   33.0000   47.6630 C   0  0  0  0  0  0  0  0  0  0  0  0
   47.9410   30.9840   48.2550 C   0  0  0  0  0  0  0  0  0  0  0  0
   48.8850   31.4540   49.1310 C   0  0  0  0  0  0  0  0  0  0  0  0
   49.8840   30.6620   49.6450 C   0  0  0  0  0  0  0  0  0  0  0  0
   49.9020   29.3230   49.2290 C   0  0  0  0  0  0  0  0  0  0  0  0
   48.9530   28.8330   48.3420 C   0  0  0  0  0  0  0  0  0  0  0  0
   47.9670   29.6670   47.8520 C   0  0  0  0  0  0  0  0  0  0  0  0
   46.9980   29.1560   46.9430 N   0  0  0  0  0  0  0  0  0  0  0  0
   45.9010   28.5280   47.4610 C   0  0  0  0  0  0  0  0  0  0  0  0
   45.0940   28.1100   46.4610 N   0  0  0  0  0  0  0  0  0  0  0  0
   45.7110   28.4890   45.3060 C   0  0  0  0  0  0  0  0  0  0  0  0
   46.8690   29.1250   45.6240 N   0  0  0  0  0  0  0  0  0  0  0  0
   43.7304   36.7759   44.5762 H   0  0  0  0  0  0  0  0  0  0  0  0
   44.9811   36.4977   42.4323 H   0  0  0  0  0  0  0  0  0  0  0  0
   46.6778   34.6187   42.2568 H   0  0  0  0  0  0  0  0  0  0  0  0
   47.7692   32.6433   45.8372 H   0  0  0  0  0  0  0  0  0  0  0  0
   44.0725   33.4018   47.9151 H   0  0  0  0  0  0  0  0  0  0  0  0
   48.8411   32.5101   49.4356 H   0  0  0  0  0  0  0  0  0  0  0  0
   50.6318   31.0587   50.3474 H   0  0  0  0  0  0  0  0  0  0  0  0
   50.6820   28.6488   49.6123 H   0  0  0  0  0  0  0  0  0  0  0  0
   48.9864   27.7790   48.0290 H   0  0  0  0  0  0  0  0  0  0  0  0
   45.7038   28.3839   48.5335 H   0  0  0  0  0  0  0  0  0  0  0  0
   45.3348   28.3101   44.2879 H   0  0  0  0  0  0  0  0  0  0  0  0
  1  6  2  0
  2  1  1  0
  3  2  2  0
  3  4  1  0
  4  5  2  0
  5  6  1  0
  5  7  1  0
  7  8  1  0
  7 11  1  0
  8  9  2  0
  9 12  1  0
  9 10  1  0
 11 10  2  0
 12 13  2  0
 13 14  1  0
 15 14  2  0
 16 15  1  0
 17 12  1  0
 17 16  2  0
 18 19  1  0
 18 17  1  0
 20 19  2  0
 21 22  2  0
 21 20  1  0
 22 18  1  0
  1 23  1  0
  2 24  1  0
  3 25  1  0
  8 26  1  0
 11 27  1  0
 13 28  1  0
 14 29  1  0
 15 30  1  0
 16 31  1  0
 19 32  1  0
 21 33  1  0
M  ISO  8  23  14  24  14  25  14  26  14  27  14  28  14  29  14  30  14
M  ISO  3  31  14  32  14  33  14
M  END
>  <minimizedAffinity>  (1) 
-5.81213856

>  <minimizedRMSD>  (1) 
0.746335268

$$$$
