
     RDKit          3D

 34 37  0  0  0  0  0  0  0  0999 V2000
   44.4680   35.9660   44.4830 C   0  0  0  0  0  0  0  0  0  0  0  0
   45.1540   35.8270   43.2780 C   0  0  0  0  0  0  0  0  0  0  0  0
   46.0860   34.8030   43.1790 C   0  0  0  0  0  0  0  0  0  0  0  0
   46.2800   33.9950   44.2500 N   0  0  0  0  0  0  0  0  0  0  0  0
   45.5970   34.1600   45.4010 C   0  0  0  0  0  0  0  0  0  0  0  0
   44.6860   35.1410   45.5380 N   0  0  0  0  0  0  0  0  0  0  0  0
   45.7920   33.3170   46.5360 N   0  0  0  0  0  0  0  0  0  0  0  0
   46.9580   32.6130   46.5690 C   0  0  0  0  0  0  0  0  0  0  0  0
   46.9010   31.8870   47.7520 C   0  0  0  0  0  0  0  0  0  0  0  0
   45.7520   32.1480   48.3940 N   0  0  0  0  0  0  0  0  0  0  0  0
   45.0720   33.0150   47.6640 C   0  0  0  0  0  0  0  0  0  0  0  0
   47.9210   30.9750   48.2410 C   0  0  0  0  0  0  0  0  0  0  0  0
   48.8780   31.4610   49.1190 C   0  0  0  0  0  0  0  0  0  0  0  0
   49.8710   30.6560   49.6200 C   0  0  0  0  0  0  0  0  0  0  0  0
   49.8840   29.3100   49.2090 C   0  0  0  0  0  0  0  0  0  0  0  0
   48.9330   28.8220   48.3370 C   0  0  0  0  0  0  0  0  0  0  0  0
   47.9510   29.6620   47.8550 C   0  0  0  0  0  0  0  0  0  0  0  0
   46.9880   29.1210   46.9560 N   0  0  0  0  0  0  0  0  0  0  0  0
   46.8820   29.0200   45.6110 C   0  0  0  0  0  0  0  0  0  0  0  0
   45.6990   28.3810   45.3000 C   0  0  0  0  0  0  0  0  0  0  0  0
   45.0920   28.0980   46.4650 N   0  0  0  0  0  0  0  0  0  0  0  0
   45.8680   28.5420   47.4680 C   0  0  0  0  0  0  0  0  0  0  0  0
   43.7252   36.7712   44.5822 H   0  0  0  0  0  0  0  0  0  0  0  0
   44.9634   36.5058   42.4337 H   0  0  0  0  0  0  0  0  0  0  0  0
   46.6555   34.6503   42.2504 H   0  0  0  0  0  0  0  0  0  0  0  0
   47.7665   32.6183   45.8231 H   0  0  0  0  0  0  0  0  0  0  0  0
   44.0855   33.4287   47.9202 H   0  0  0  0  0  0  0  0  0  0  0  0
   48.8406   32.5179   49.4217 H   0  0  0  0  0  0  0  0  0  0  0  0
   50.6274   31.0480   50.3159 H   0  0  0  0  0  0  0  0  0  0  0  0
   50.6655   28.6359   49.5895 H   0  0  0  0  0  0  0  0  0  0  0  0
   48.9578   27.7668   48.0272 H   0  0  0  0  0  0  0  0  0  0  0  0
   47.6198   29.3879   44.8828 H   0  0  0  0  0  0  0  0  0  0  0  0
   45.3248   28.1481   44.2922 H   0  0  0  0  0  0  0  0  0  0  0  0
   45.6338   28.4513   48.5390 H   0  0  0  0  0  0  0  0  0  0  0  0
  1  6  2  0
  2  1  1  0
  3  2  2  0
  3  4  1  0
  4  5  2  0
  5  6  1  0
  5  7  1  0
  7  8  1  0
  7 11  1  0
  8  9  2  0
  9 12  1  0
  9 10  1  0
 11 10  2  0
 12 13  2  0
 13 14  1  0
 15 14  2  0
 16 15  1  0
 17 12  1  0
 17 16  2  0
 18 22  1  0
 18 17  1  0
 19 18  1  0
 20 19  2  0
 20 21  1  0
 21 22  2  0
  1 23  1  0
  2 24  1  0
  3 25  1  0
  8 26  1  0
 11 27  1  0
 13 28  1  0
 14 29  1  0
 15 30  1  0
 16 31  1  0
 19 32  1  0
 20 33  1  0
 22 34  1  0
M  ISO  8  23  14  24  14  25  14  26  14  27  14  28  14  29  14  30  14
M  ISO  4  31  14  32  14  33  14  34  14
M  END
>  <minimizedAffinity>  (1) 
-5.80971527

>  <minimizedRMSD>  (1) 
0.875337899

$$$$
