
     RDKit          3D

 30 32  0  0  0  0  0  0  0  0999 V2000
   44.4780   35.7030   44.6160 C   0  0  0  0  0  0  0  0  0  0  0  0
   45.2080   35.5780   43.4170 C   0  0  0  0  0  0  0  0  0  0  0  0
   46.2170   34.6110   43.3290 C   0  0  0  0  0  0  0  0  0  0  0  0
   46.4350   33.8380   44.4260 N   0  0  0  0  0  0  0  0  0  0  0  0
   45.7210   33.9820   45.5590 C   0  0  0  0  0  0  0  0  0  0  0  0
   44.7500   34.8980   45.6730 N   0  0  0  0  0  0  0  0  0  0  0  0
   45.9490   33.1670   46.7210 N   0  0  0  0  0  0  0  0  0  0  0  0
   47.1510   32.5600   46.7870 C   0  0  0  0  0  0  0  0  0  0  0  0
   47.1480   31.8390   47.9680 C   0  0  0  0  0  0  0  0  0  0  0  0
   45.9660   32.0190   48.5860 N   0  0  0  0  0  0  0  0  0  0  0  0
   45.2260   32.8240   47.8400 C   0  0  0  0  0  0  0  0  0  0  0  0
   48.2150   31.0120   48.4930 C   0  0  0  0  0  0  0  0  0  0  0  0
   49.1740   31.5990   49.3140 C   0  0  0  0  0  0  0  0  0  0  0  0
   50.2050   30.8490   49.8350 C   0  0  0  0  0  0  0  0  0  0  0  0
   50.2730   29.4960   49.5320 C   0  0  0  0  0  0  0  0  0  0  0  0
   49.3100   28.9090   48.7100 C   0  0  0  0  0  0  0  0  0  0  0  0
   48.2890   29.6790   48.1990 C   0  0  0  0  0  0  0  0  0  0  0  0
   47.3160   29.0080   47.3500 C   0  0  0  0  0  0  0  0  0  0  0  0
   47.3560   28.8760   46.1040 O   0  0  0  0  0  0  0  0  0  0  0  0
   46.1750   28.4090   47.8480 O   0  0  0  0  0  0  0  0  0  0  0  0
   43.6824   36.4585   44.6950 H   0  0  0  0  0  0  0  0  0  0  0  0
   44.9878   36.2322   42.5605 H   0  0  0  0  0  0  0  0  0  0  0  0
   46.8086   34.4822   42.4106 H   0  0  0  0  0  0  0  0  0  0  0  0
   47.9671   32.6247   46.0523 H   0  0  0  0  0  0  0  0  0  0  0  0
   44.2058   33.1615   48.0750 H   0  0  0  0  0  0  0  0  0  0  0  0
   49.1077   32.6716   49.5487 H   0  0  0  0  0  0  0  0  0  0  0  0
   50.9632   31.3151   50.4815 H   0  0  0  0  0  0  0  0  0  0  0  0
   51.0898   28.8837   49.9417 H   0  0  0  0  0  0  0  0  0  0  0  0
   49.3662   27.8366   48.4715 H   0  0  0  0  0  0  0  0  0  0  0  0
   45.5406   27.9637   47.2321 H   0  0  0  0  0  0  0  0  0  0  0  0
  1  6  2  0
  2  1  1  0
  3  2  2  0
  3  4  1  0
  4  5  2  0
  5  6  1  0
  5  7  1  0
  7  8  1  0
  7 11  1  0
  8  9  2  0
  9 12  1  0
  9 10  1  0
 11 10  2  0
 12 13  2  0
 13 14  1  0
 15 14  2  0
 16 15  1  0
 17 12  1  0
 17 16  2  0
 18 20  1  0
 18 17  1  0
 19 18  2  0
  1 21  1  0
  2 22  1  0
  3 23  1  0
  8 24  1  0
 11 25  1  0
 13 26  1  0
 14 27  1  0
 15 28  1  0
 16 29  1  0
 20 30  1  0
M  ISO  8  21  14  22  14  23  14  24  14  25  14  26  14  27  14  28  14
M  ISO  2  29  14  30   3
M  END
>  <minimizedAffinity>  (1) 
-5.71226501

>  <minimizedRMSD>  (1) 
0.736191332

$$$$
