
     RDKit          3D

 33 35  0  0  0  0  0  0  0  0999 V2000
   44.4910   35.8830   44.5700 C   0  0  0  0  0  0  0  0  0  0  0  0
   45.1950   35.7600   43.3750 C   0  0  0  0  0  0  0  0  0  0  0  0
   46.1480   34.7390   43.2630 C   0  0  0  0  0  0  0  0  0  0  0  0
   46.3390   33.9220   44.3250 N   0  0  0  0  0  0  0  0  0  0  0  0
   45.6240   34.0770   45.4820 C   0  0  0  0  0  0  0  0  0  0  0  0
   44.6990   35.0490   45.6240 N   0  0  0  0  0  0  0  0  0  0  0  0
   45.8150   33.2230   46.6080 N   0  0  0  0  0  0  0  0  0  0  0  0
   46.9760   32.5360   46.6580 C   0  0  0  0  0  0  0  0  0  0  0  0
   46.9200   31.7780   47.8280 C   0  0  0  0  0  0  0  0  0  0  0  0
   45.7620   32.0190   48.4360 N   0  0  0  0  0  0  0  0  0  0  0  0
   45.0900   32.8870   47.7090 C   0  0  0  0  0  0  0  0  0  0  0  0
   47.9520   30.8640   48.3170 C   0  0  0  0  0  0  0  0  0  0  0  0
   48.8050   31.3100   49.3030 C   0  0  0  0  0  0  0  0  0  0  0  0
   49.8100   30.5300   49.8180 C   0  0  0  0  0  0  0  0  0  0  0  0
   49.9450   29.2490   49.3020 C   0  0  0  0  0  0  0  0  0  0  0  0
   49.0840   28.7850   48.2990 C   0  0  0  0  0  0  0  0  0  0  0  0
   48.0790   29.6010   47.8040 C   0  0  0  0  0  0  0  0  0  0  0  0
   47.1710   29.0550   46.7560 C   0  0  0  0  0  0  0  0  0  0  0  0
   46.0830   28.1910   47.3860 C   0  0  0  0  0  0  0  0  0  0  0  0
   43.7410   36.6820   44.6648 H   0  0  0  0  0  0  0  0  0  0  0  0
   45.0073   36.4486   42.5380 H   0  0  0  0  0  0  0  0  0  0  0  0
   46.7256   34.6050   42.3365 H   0  0  0  0  0  0  0  0  0  0  0  0
   47.7972   32.5674   45.9268 H   0  0  0  0  0  0  0  0  0  0  0  0
   44.0928   33.2810   47.9548 H   0  0  0  0  0  0  0  0  0  0  0  0
   48.6755   32.3306   49.6924 H   0  0  0  0  0  0  0  0  0  0  0  0
   50.4799   30.9043   50.6061 H   0  0  0  0  0  0  0  0  0  0  0  0
   50.7378   28.5897   49.6852 H   0  0  0  0  0  0  0  0  0  0  0  0
   49.2064   27.7665   47.9018 H   0  0  0  0  0  0  0  0  0  0  0  0
   47.7563   28.4439   46.0531 H   0  0  0  0  0  0  0  0  0  0  0  0
   46.6957   29.8937   46.2262 H   0  0  0  0  0  0  0  0  0  0  0  0
   46.1569   28.2497   48.4819 H   0  0  0  0  0  0  0  0  0  0  0  0
   45.0952   28.5535   47.0652 H   0  0  0  0  0  0  0  0  0  0  0  0
   46.2123   27.1468   47.0652 H   0  0  0  0  0  0  0  0  0  0  0  0
  1  6  2  0
  2  1  1  0
  3  2  2  0
  3  4  1  0
  4  5  2  0
  5  6  1  0
  5  7  1  0
  7  8  1  0
  7 11  1  0
  8  9  2  0
  9 12  1  0
  9 10  1  0
 11 10  2  0
 12 13  2  0
 13 14  1  0
 15 14  2  0
 16 15  1  0
 17 16  2  0
 17 12  1  0
 18 19  1  0
 18 17  1  0
  1 20  1  0
  2 21  1  0
  3 22  1  0
  8 23  1  0
 11 24  1  0
 13 25  1  0
 14 26  1  0
 15 27  1  0
 16 28  1  0
 18 29  1  0
 18 30  1  0
 19 31  1  0
 19 32  1  0
 19 33  1  0
M  ISO  8  20  14  21  14  22  14  23  14  24  14  25  14  26  14  27  14
M  ISO  6  28  14  29   8  30   8  31   8  32   8  33   8
M  END
>  <minimizedAffinity>  (1) 
-5.61458826

>  <minimizedRMSD>  (1) 
0.464787453

$$$$
