
     RDKit          3D

 30 31  0  0  0  0  0  0  0  0999 V2000
   45.6190   35.1120   42.8980 C   0  0  0  0  0  0  0  0  0  0  0  0
   45.0940   34.5520   45.2690 C   0  0  0  0  0  0  0  0  0  0  0  0
   45.8850   34.2930   44.1240 C   0  0  0  0  0  0  0  0  0  0  0  0
   46.8470   33.2930   44.2340 C   0  0  0  0  0  0  0  0  0  0  0  0
   46.9870   32.6270   45.3950 N   0  0  0  0  0  0  0  0  0  0  0  0
   46.2140   32.9000   46.4730 C   0  0  0  0  0  0  0  0  0  0  0  0
   45.2690   33.8660   46.3990 N   0  0  0  0  0  0  0  0  0  0  0  0
   46.8550   35.1450   42.0450 C   0  0  0  0  0  0  0  0  0  0  0  0
   45.2150   36.4930   43.3230 C   0  0  0  0  0  0  0  0  0  0  0  0
   44.4500   34.4950   42.1580 C   0  0  0  0  0  0  0  0  0  0  0  0
   43.3500   35.3170   42.2850 O   0  0  0  0  0  0  0  0  0  0  0  0
   42.4480   35.3780   41.2270 C   0  0  0  0  0  0  0  0  0  0  0  0
   41.1000   35.6900   41.3830 C   0  0  0  0  0  0  0  0  0  0  0  0
   40.5630   35.6420   40.0950 C   0  0  0  0  0  0  0  0  0  0  0  0
   41.5370   35.3190   39.2180 N   0  0  0  0  0  0  0  0  0  0  0  0
   42.6550   35.1640   39.9000 N   0  0  0  0  0  0  0  0  0  0  0  0
   44.3209   35.3333   45.2258 H   0  0  0  0  0  0  0  0  0  0  0  0
   47.4900   33.0482   43.3757 H   0  0  0  0  0  0  0  0  0  0  0  0
   46.3541   32.3372   47.4077 H   0  0  0  0  0  0  0  0  0  0  0  0
   47.7454   35.1688   42.6904 H   0  0  0  0  0  0  0  0  0  0  0  0
   46.8863   34.2474   41.4100 H   0  0  0  0  0  0  0  0  0  0  0  0
   46.8384   36.0430   41.4100 H   0  0  0  0  0  0  0  0  0  0  0  0
   45.1988   36.5485   44.4215 H   0  0  0  0  0  0  0  0  0  0  0  0
   45.9370   37.2237   42.9296 H   0  0  0  0  0  0  0  0  0  0  0  0
   44.2130   36.7193   42.9296 H   0  0  0  0  0  0  0  0  0  0  0  0
   44.2231   33.5075   42.5861 H   0  0  0  0  0  0  0  0  0  0  0  0
   44.7048   34.3792   41.0942 H   0  0  0  0  0  0  0  0  0  0  0  0
   40.5719   35.9239   42.3192 H   0  0  0  0  0  0  0  0  0  0  0  0
   39.5119   35.8367   39.8358 H   0  0  0  0  0  0  0  0  0  0  0  0
   41.4268   35.2127   38.1994 H   0  0  0  0  0  0  0  0  0  0  0  0
  1  9  1  0
  1  3  1  0
  2  7  2  0
  3  4  2  0
  3  2  1  0
  4  5  1  0
  5  6  2  0
  7  6  1  0
  8  1  1  0
 10 11  1  0
 10  1  1  0
 12 13  1  0
 12 11  1  0
 14 13  2  0
 15 16  1  0
 15 14  1  0
 16 12  2  0
  2 17  1  0
  4 18  1  0
  6 19  1  0
  8 20  1  0
  8 21  1  0
  8 22  1  0
  9 23  1  0
  9 24  1  0
  9 25  1  0
 10 26  1  0
 10 27  1  0
 13 28  1  0
 14 29  1  0
 15 30  1  0
M  ISO  8  17  14  18  14  19  14  20   8  21   8  22   8  23   8  24   8
M  ISO  6  25   8  26   8  27   8  28  14  29  14  30   9
M  END
>  <minimizedAffinity>  (1) 
-4.62419939

>  <minimizedRMSD>  (1) 
1.08816028

$$$$
