
     RDKit          3D

 32 34  0  0  0  0  0  0  0  0999 V2000
   44.4460   35.9290   44.4770 C   0  0  0  0  0  0  0  0  0  0  0  0
   45.1540   35.8000   43.2970 C   0  0  0  0  0  0  0  0  0  0  0  0
   46.1220   34.8050   43.1930 C   0  0  0  0  0  0  0  0  0  0  0  0
   46.3370   33.9940   44.2610 N   0  0  0  0  0  0  0  0  0  0  0  0
   45.6150   34.1520   45.4140 C   0  0  0  0  0  0  0  0  0  0  0  0
   44.6730   35.1100   45.5320 N   0  0  0  0  0  0  0  0  0  0  0  0
   45.8250   33.3150   46.5430 N   0  0  0  0  0  0  0  0  0  0  0  0
   47.0120   32.6690   46.6150 C   0  0  0  0  0  0  0  0  0  0  0  0
   46.9610   31.9260   47.7990 C   0  0  0  0  0  0  0  0  0  0  0  0
   45.7760   32.1340   48.3990 N   0  0  0  0  0  0  0  0  0  0  0  0
   45.0770   32.9740   47.6460 C   0  0  0  0  0  0  0  0  0  0  0  0
   48.0070   31.0620   48.3190 C   0  0  0  0  0  0  0  0  0  0  0  0
   48.9610   31.6130   49.1450 C   0  0  0  0  0  0  0  0  0  0  0  0
   49.9750   30.8470   49.6670 C   0  0  0  0  0  0  0  0  0  0  0  0
   50.0140   29.5060   49.3420 C   0  0  0  0  0  0  0  0  0  0  0  0
   49.0660   28.9530   48.5180 C   0  0  0  0  0  0  0  0  0  0  0  0
   48.0490   29.7350   47.9980 C   0  0  0  0  0  0  0  0  0  0  0  0
   47.0800   29.1320   47.1470 N   0  0  0  0  0  0  0  0  0  0  0  0
   49.1560   27.5370   48.2090 C   0  0  0  0  0  0  0  0  0  0  0  0
   49.5040   27.1170   47.0770 O   0  0  0  0  0  0  0  0  0  0  0  0
   48.8700   26.5460   49.1280 O   0  0  0  0  0  0  0  0  0  0  0  0
   43.6807   36.7146   44.5614 H   0  0  0  0  0  0  0  0  0  0  0  0
   44.9552   36.4747   42.4512 H   0  0  0  0  0  0  0  0  0  0  0  0
   46.7003   34.6784   42.2659 H   0  0  0  0  0  0  0  0  0  0  0  0
   47.8418   32.7179   45.8945 H   0  0  0  0  0  0  0  0  0  0  0  0
   44.0632   33.3387   47.8680 H   0  0  0  0  0  0  0  0  0  0  0  0
   48.9104   32.6840   49.3909 H   0  0  0  0  0  0  0  0  0  0  0  0
   50.7356   31.2905   50.3264 H   0  0  0  0  0  0  0  0  0  0  0  0
   50.8156   28.8721   49.7489 H   0  0  0  0  0  0  0  0  0  0  0  0
   47.1423   28.1279   46.9259 H   0  0  0  0  0  0  0  0  0  0  0  0
   46.3166   29.6998   46.7524 H   0  0  0  0  0  0  0  0  0  0  0  0
   48.9463   25.5936   48.8688 H   0  0  0  0  0  0  0  0  0  0  0  0
  1  6  2  0
  2  1  1  0
  3  2  2  0
  3  4  1  0
  4  5  2  0
  5  6  1  0
  5  7  1  0
  7  8  1  0
  7 11  1  0
  8  9  2  0
  9 12  1  0
  9 10  1  0
 11 10  2  0
 12 13  2  0
 13 14  1  0
 15 14  2  0
 16 15  1  0
 17 12  1  0
 17 16  2  0
 18 17  1  0
 19 16  1  0
 19 21  1  0
 20 19  2  0
  1 22  1  0
  2 23  1  0
  3 24  1  0
  8 25  1  0
 11 26  1  0
 13 27  1  0
 14 28  1  0
 15 29  1  0
 18 30  1  0
 18 31  1  0
 21 32  1  0
M  ISO  8  22  14  23  14  24  14  25  14  26  14  27  14  28  14  29  14
M  ISO  1  32   3
M  END
>  <minimizedAffinity>  (1) 
-5.87092733

>  <minimizedRMSD>  (1) 
0.221307203

$$$$
