
     RDKit          3D

 36 39  0  0  0  0  0  0  0  0999 V2000
   48.0460   31.0820   48.3670 C   0  0  0  0  0  0  0  0  0  0  0  0
   49.0010   31.6400   49.1720 C   0  0  0  0  0  0  0  0  0  0  0  0
   50.0210   30.8950   49.7010 C   0  0  0  0  0  0  0  0  0  0  0  0
   50.0650   29.5530   49.4020 C   0  0  0  0  0  0  0  0  0  0  0  0
   49.0980   28.9670   48.5810 C   0  0  0  0  0  0  0  0  0  0  0  0
   48.0850   29.7330   48.0630 C   0  0  0  0  0  0  0  0  0  0  0  0
   44.4430   35.8810   44.4660 C   0  0  0  0  0  0  0  0  0  0  0  0
   45.1730   35.7580   43.2990 C   0  0  0  0  0  0  0  0  0  0  0  0
   46.1690   34.7790   43.2130 C   0  0  0  0  0  0  0  0  0  0  0  0
   46.3740   33.9870   44.2880 N   0  0  0  0  0  0  0  0  0  0  0  0
   45.6370   34.1320   45.4270 C   0  0  0  0  0  0  0  0  0  0  0  0
   44.6710   35.0670   45.5370 N   0  0  0  0  0  0  0  0  0  0  0  0
   45.8500   33.2980   46.5740 N   0  0  0  0  0  0  0  0  0  0  0  0
   47.0320   32.6640   46.6580 C   0  0  0  0  0  0  0  0  0  0  0  0
   46.9950   31.9330   47.8400 C   0  0  0  0  0  0  0  0  0  0  0  0
   45.8110   32.1430   48.4270 N   0  0  0  0  0  0  0  0  0  0  0  0
   45.1080   32.9670   47.6740 C   0  0  0  0  0  0  0  0  0  0  0  0
   49.2590   27.5380   48.3430 C   0  0  0  0  0  0  0  0  0  0  0  0
   50.0710   26.9490   47.3970 C   0  0  0  0  0  0  0  0  0  0  0  0
   49.9630   25.6110   47.4680 N   0  0  0  0  0  0  0  0  0  0  0  0
   49.0800   25.3010   48.4580 C   0  0  0  0  0  0  0  0  0  0  0  0
   48.6970   26.4840   48.9410 N   0  0  0  0  0  0  0  0  0  0  0  0
   47.1140   29.1380   47.2410 N   0  0  0  0  0  0  0  0  0  0  0  0
   48.9482   32.7148   49.4002 H   0  0  0  0  0  0  0  0  0  0  0  0
   50.7831   31.3563   50.3463 H   0  0  0  0  0  0  0  0  0  0  0  0
   50.8734   28.9320   49.8153 H   0  0  0  0  0  0  0  0  0  0  0  0
   43.6612   36.6519   44.5329 H   0  0  0  0  0  0  0  0  0  0  0  0
   44.9730   36.4232   42.4461 H   0  0  0  0  0  0  0  0  0  0  0  0
   46.7670   34.6579   42.2977 H   0  0  0  0  0  0  0  0  0  0  0  0
   47.8613   32.7135   45.9371 H   0  0  0  0  0  0  0  0  0  0  0  0
   44.0927   33.3282   47.8945 H   0  0  0  0  0  0  0  0  0  0  0  0
   50.7126   27.4937   46.6887 H   0  0  0  0  0  0  0  0  0  0  0  0
   48.7563   24.3018   48.7849 H   0  0  0  0  0  0  0  0  0  0  0  0
   48.0219   26.5773   49.7133 H   0  0  0  0  0  0  0  0  0  0  0  0
   47.1651   28.1313   47.0294 H   0  0  0  0  0  0  0  0  0  0  0  0
   46.3508   29.7084   46.8497 H   0  0  0  0  0  0  0  0  0  0  0  0
  1  2  2  0
  2  3  1  0
  4  3  2  0
  5  4  1  0
  6  1  1  0
  6  5  2  0
  7 12  2  0
  8  7  1  0
  9  8  2  0
  9 10  1  0
 10 11  2  0
 11 12  1  0
 11 13  1  0
 13 14  1  0
 13 17  1  0
 14 15  2  0
 15  1  1  0
 15 16  1  0
 17 16  2  0
 18  5  1  0
 18 22  1  0
 19 20  1  0
 19 18  2  0
 20 21  2  0
 21 22  1  0
 23  6  1  0
  2 24  1  0
  3 25  1  0
  4 26  1  0
  7 27  1  0
  8 28  1  0
  9 29  1  0
 14 30  1  0
 17 31  1  0
 19 32  1  0
 21 33  1  0
 22 34  1  0
 23 35  1  0
 23 36  1  0
M  ISO  8  24  14  25  14  26  14  27  14  28  14  29  14  30  14  31  14
M  ISO  3  32  14  33  14  34   9
M  END
>  <minimizedAffinity>  (1) 
-5.99853611

>  <minimizedRMSD>  (1) 
0.165066361

$$$$
