
     RDKit          3D

 42 45  0  0  0  0  0  0  0  0999 V2000
   48.3060   31.0670   48.4290 C   0  0  0  0  0  0  0  0  0  0  0  0
   49.2840   31.6820   49.1720 C   0  0  0  0  0  0  0  0  0  0  0  0
   50.3520   30.9960   49.6860 C   0  0  0  0  0  0  0  0  0  0  0  0
   50.4170   29.6310   49.4290 C   0  0  0  0  0  0  0  0  0  0  0  0
   49.4450   29.0060   48.6890 C   0  0  0  0  0  0  0  0  0  0  0  0
   48.3750   29.7280   48.1800 C   0  0  0  0  0  0  0  0  0  0  0  0
   44.4060   35.7170   44.6390 C   0  0  0  0  0  0  0  0  0  0  0  0
   45.1230   35.6450   43.4600 C   0  0  0  0  0  0  0  0  0  0  0  0
   46.1590   34.7230   43.3580 C   0  0  0  0  0  0  0  0  0  0  0  0
   46.4210   33.9290   44.4290 N   0  0  0  0  0  0  0  0  0  0  0  0
   45.6930   34.0300   45.5730 C   0  0  0  0  0  0  0  0  0  0  0  0
   44.6890   34.9110   45.6980 N   0  0  0  0  0  0  0  0  0  0  0  0
   45.9650   33.1990   46.7010 N   0  0  0  0  0  0  0  0  0  0  0  0
   47.1840   32.6220   46.7540 C   0  0  0  0  0  0  0  0  0  0  0  0
   47.2070   31.8760   47.9220 C   0  0  0  0  0  0  0  0  0  0  0  0
   46.0150   32.0120   48.5510 N   0  0  0  0  0  0  0  0  0  0  0  0
   45.2590   32.8170   47.8080 C   0  0  0  0  0  0  0  0  0  0  0  0
   49.4750   27.5970   48.3990 N   0  0  0  0  0  0  0  0  0  0  0  0
   49.0850   27.1230   47.2030 C   0  0  0  0  0  0  0  0  0  0  0  0
   49.1580   25.7390   47.0400 C   0  0  0  0  0  0  0  0  0  0  0  0
   48.7390   25.1640   45.7340 C   0  0  0  0  0  0  0  0  0  0  0  0
   49.6030   24.8990   48.0470 C   0  0  0  0  0  0  0  0  0  0  0  0
   49.6540   23.6570   47.8640 O   0  0  0  0  0  0  0  0  0  0  0  0
   49.9800   25.4550   49.2350 N   0  0  0  0  0  0  0  0  0  0  0  0
   49.9110   26.8090   49.3990 C   0  0  0  0  0  0  0  0  0  0  0  0
   50.2830   27.2130   50.5290 O   0  0  0  0  0  0  0  0  0  0  0  0
   47.3760   29.0650   47.4140 N   0  0  0  0  0  0  0  0  0  0  0  0
   49.2067   32.7629   49.3607 H   0  0  0  0  0  0  0  0  0  0  0  0
   51.1272   31.5043   50.2783 H   0  0  0  0  0  0  0  0  0  0  0  0
   51.2592   29.0441   49.8243 H   0  0  0  0  0  0  0  0  0  0  0  0
   43.5854   36.4446   44.7236 H   0  0  0  0  0  0  0  0  0  0  0  0
   44.8782   36.3063   42.6158 H   0  0  0  0  0  0  0  0  0  0  0  0
   46.7508   34.6387   42.4346 H   0  0  0  0  0  0  0  0  0  0  0  0
   47.9956   32.7233   46.0185 H   0  0  0  0  0  0  0  0  0  0  0  0
   44.2305   33.1257   48.0464 H   0  0  0  0  0  0  0  0  0  0  0  0
   48.7296   27.7864   46.4008 H   0  0  0  0  0  0  0  0  0  0  0  0
   48.0994   24.2862   45.9081 H   0  0  0  0  0  0  0  0  0  0  0  0
   48.1780   25.9192   45.1639 H   0  0  0  0  0  0  0  0  0  0  0  0
   49.6297   24.8613   45.1639 H   0  0  0  0  0  0  0  0  0  0  0  0
   50.3147   24.8567   50.0037 H   0  0  0  0  0  0  0  0  0  0  0  0
   47.4489   28.0527   47.2386 H   0  0  0  0  0  0  0  0  0  0  0  0
   46.5799   29.5974   47.0349 H   0  0  0  0  0  0  0  0  0  0  0  0
  1  2  2  0
  2  3  1  0
  4  3  2  0
  5  4  1  0
  6  1  1  0
  6  5  2  0
  7 12  2  0
  8  7  1  0
  9  8  2  0
  9 10  1  0
 10 11  2  0
 11 12  1  0
 11 13  1  0
 13 14  1  0
 13 17  1  0
 14 15  2  0
 15  1  1  0
 15 16  1  0
 17 16  2  0
 18  5  1  0
 18 25  1  0
 19 18  1  0
 20 19  2  0
 20 22  1  0
 21 20  1  0
 22 24  1  0
 23 22  2  0
 24 25  1  0
 25 26  2  0
 27  6  1  0
  2 28  1  0
  3 29  1  0
  4 30  1  0
  7 31  1  0
  8 32  1  0
  9 33  1  0
 14 34  1  0
 17 35  1  0
 19 36  1  0
 21 37  1  0
 21 38  1  0
 21 39  1  0
 24 40  1  0
 27 41  1  0
 27 42  1  0
M  ISO  8  28  14  29  14  30  14  31  14  32  14  33  14  34  14  35  14
M  ISO  5  36  14  37   8  38   8  39   8  40   9
M  END
>  <minimizedAffinity>  (1) 
-5.99449825

>  <minimizedRMSD>  (1) 
0.514080942

$$$$
