
     RDKit          3D

 43 47  0  0  0  0  0  0  0  0999 V2000
   48.2410   31.0420   48.4110 C   0  0  0  0  0  0  0  0  0  0  0  0
   49.1970   31.6220   49.1910 C   0  0  0  0  0  0  0  0  0  0  0  0
   50.2510   30.9000   49.6920 C   0  0  0  0  0  0  0  0  0  0  0  0
   50.3150   29.5620   49.3790 C   0  0  0  0  0  0  0  0  0  0  0  0
   49.3750   28.9520   48.5990 C   0  0  0  0  0  0  0  0  0  0  0  0
   48.3320   29.7130   48.1170 C   0  0  0  0  0  0  0  0  0  0  0  0
   44.4050   35.7620   44.6390 C   0  0  0  0  0  0  0  0  0  0  0  0
   45.1060   35.6750   43.4510 C   0  0  0  0  0  0  0  0  0  0  0  0
   46.1280   34.7320   43.3340 C   0  0  0  0  0  0  0  0  0  0  0  0
   46.3810   33.9370   44.4070 N   0  0  0  0  0  0  0  0  0  0  0  0
   45.6700   34.0500   45.5610 C   0  0  0  0  0  0  0  0  0  0  0  0
   44.6930   34.9470   45.6850 N   0  0  0  0  0  0  0  0  0  0  0  0
   45.9520   33.2090   46.6690 N   0  0  0  0  0  0  0  0  0  0  0  0
   47.1510   32.6160   46.7320 C   0  0  0  0  0  0  0  0  0  0  0  0
   47.1490   31.8590   47.9090 C   0  0  0  0  0  0  0  0  0  0  0  0
   45.9650   32.0070   48.5280 N   0  0  0  0  0  0  0  0  0  0  0  0
   45.2270   32.8240   47.7870 C   0  0  0  0  0  0  0  0  0  0  0  0
   49.2850   27.5600   48.2000 C   0  0  0  0  0  0  0  0  0  0  0  0
   48.7500   27.2450   47.0280 N   0  0  0  0  0  0  0  0  0  0  0  0
   48.5920   26.0520   46.5020 C   0  0  0  0  0  0  0  0  0  0  0  0
   48.9850   24.9450   47.1400 N   0  0  0  0  0  0  0  0  0  0  0  0
   49.5480   25.1210   48.3410 C   0  0  0  0  0  0  0  0  0  0  0  0
   49.9920   24.0270   49.0480 C   0  0  0  0  0  0  0  0  0  0  0  0
   50.6010   24.1780   50.2980 C   0  0  0  0  0  0  0  0  0  0  0  0
   50.7210   25.5000   50.7630 C   0  0  0  0  0  0  0  0  0  0  0  0
   50.2550   26.5320   50.0020 C   0  0  0  0  0  0  0  0  0  0  0  0
   49.6610   26.4010   48.7930 C   0  0  0  0  0  0  0  0  0  0  0  0
   47.3310   29.0720   47.3040 N   0  0  0  0  0  0  0  0  0  0  0  0
   49.1217   32.6943   49.4243 H   0  0  0  0  0  0  0  0  0  0  0  0
   51.0179   31.3746   50.3218 H   0  0  0  0  0  0  0  0  0  0  0  0
   51.1512   28.9638   49.7701 H   0  0  0  0  0  0  0  0  0  0  0  0
   43.5997   36.5047   44.7383 H   0  0  0  0  0  0  0  0  0  0  0  0
   44.8617   36.3399   42.6094 H   0  0  0  0  0  0  0  0  0  0  0  0
   46.7091   34.6354   42.4050 H   0  0  0  0  0  0  0  0  0  0  0  0
   47.9718   32.7058   46.0052 H   0  0  0  0  0  0  0  0  0  0  0  0
   44.2016   33.1453   48.0224 H   0  0  0  0  0  0  0  0  0  0  0  0
   48.1241   25.9614   45.5106 H   0  0  0  0  0  0  0  0  0  0  0  0
   49.8662   23.0198   48.6241 H   0  0  0  0  0  0  0  0  0  0  0  0
   50.9630   23.3178   50.8803 H   0  0  0  0  0  0  0  0  0  0  0  0
   51.1894   25.7013   51.7377 H   0  0  0  0  0  0  0  0  0  0  0  0
   50.3711   27.5500   50.4023 H   0  0  0  0  0  0  0  0  0  0  0  0
   47.4087   28.0680   47.0877 H   0  0  0  0  0  0  0  0  0  0  0  0
   46.5373   29.6176   46.9388 H   0  0  0  0  0  0  0  0  0  0  0  0
  1  2  2  0
  2  3  1  0
  4  3  2  0
  5  4  1  0
  6  1  1  0
  6  5  2  0
  7 12  2  0
  8  7  1  0
  9  8  2  0
  9 10  1  0
 10 11  2  0
 11 12  1  0
 11 13  1  0
 13 14  1  0
 13 17  1  0
 14 15  2  0
 15  1  1  0
 15 16  1  0
 17 16  2  0
 18  5  1  0
 18 27  1  0
 19 18  2  0
 20 19  1  0
 20 21  2  0
 21 22  1  0
 22 27  2  0
 22 23  1  0
 23 24  2  0
 24 25  1  0
 26 25  2  0
 27 26  1  0
 28  6  1  0
  2 29  1  0
  3 30  1  0
  4 31  1  0
  7 32  1  0
  8 33  1  0
  9 34  1  0
 14 35  1  0
 17 36  1  0
 20 37  1  0
 23 38  1  0
 24 39  1  0
 25 40  1  0
 26 41  1  0
 28 42  1  0
 28 43  1  0
M  ISO  8  29  14  30  14  31  14  32  14  33  14  34  14  35  14  36  14
M  ISO  5  37  14  38  14  39  14  40  14  41  14
M  END
>  <minimizedAffinity>  (1) 
-6.30966043

>  <minimizedRMSD>  (1) 
0.239444375

$$$$
