
     RDKit          3D

 42 45  0  0  0  0  0  0  0  0999 V2000
   48.0340   30.8080   48.4080 C   0  0  0  0  0  0  0  0  0  0  0  0
   48.8640   31.2490   49.3990 C   0  0  0  0  0  0  0  0  0  0  0  0
   49.8470   30.4580   49.9110 C   0  0  0  0  0  0  0  0  0  0  0  0
   49.9950   29.1860   49.4040 C   0  0  0  0  0  0  0  0  0  0  0  0
   49.1720   28.7230   48.4080 C   0  0  0  0  0  0  0  0  0  0  0  0
   48.1720   29.5330   47.8900 C   0  0  0  0  0  0  0  0  0  0  0  0
   44.5320   35.7720   44.6330 C   0  0  0  0  0  0  0  0  0  0  0  0
   45.2350   35.6340   43.4430 C   0  0  0  0  0  0  0  0  0  0  0  0
   46.1780   34.6260   43.3460 C   0  0  0  0  0  0  0  0  0  0  0  0
   46.3820   33.8140   44.4050 N   0  0  0  0  0  0  0  0  0  0  0  0
   45.6640   33.9850   45.5690 C   0  0  0  0  0  0  0  0  0  0  0  0
   44.7400   34.9460   45.7110 N   0  0  0  0  0  0  0  0  0  0  0  0
   45.8880   33.1190   46.6790 N   0  0  0  0  0  0  0  0  0  0  0  0
   47.0540   32.4550   46.7380 C   0  0  0  0  0  0  0  0  0  0  0  0
   46.9980   31.7040   47.9010 C   0  0  0  0  0  0  0  0  0  0  0  0
   45.8150   31.9210   48.5220 N   0  0  0  0  0  0  0  0  0  0  0  0
   45.1250   32.7830   47.7880 C   0  0  0  0  0  0  0  0  0  0  0  0
   49.3910   27.3970   47.9410 N   0  0  0  0  0  0  0  0  0  0  0  0
   50.3380   27.0860   46.8910 C   0  0  0  0  0  0  0  0  0  0  0  0
   50.7440   25.6290   47.1050 C   0  0  0  0  0  0  0  0  0  0  0  0
   50.8110   25.3270   48.4640 O   0  0  0  0  0  0  0  0  0  0  0  0
   49.5570   25.2190   49.0250 C   0  0  0  0  0  0  0  0  0  0  0  0
   48.6360   26.2990   48.5410 C   0  0  0  0  0  0  0  0  0  0  0  0
   47.3260   29.0420   46.8550 N   0  0  0  0  0  0  0  0  0  0  0  0
   48.7352   32.2679   49.7931 H   0  0  0  0  0  0  0  0  0  0  0  0
   50.5070   30.8261   50.7103 H   0  0  0  0  0  0  0  0  0  0  0  0
   50.7841   28.5318   49.8031 H   0  0  0  0  0  0  0  0  0  0  0  0
   43.7813   36.5718   44.7153 H   0  0  0  0  0  0  0  0  0  0  0  0
   45.0463   36.3109   42.5967 H   0  0  0  0  0  0  0  0  0  0  0  0
   46.7535   34.4882   42.4187 H   0  0  0  0  0  0  0  0  0  0  0  0
   47.8810   32.4984   46.0140 H   0  0  0  0  0  0  0  0  0  0  0  0
   44.1200   33.1661   48.0187 H   0  0  0  0  0  0  0  0  0  0  0  0
   51.2179   27.7422   46.9638 H   0  0  0  0  0  0  0  0  0  0  0  0
   49.8977   27.2384   45.8945 H   0  0  0  0  0  0  0  0  0  0  0  0
   50.0011   24.9739   46.6265 H   0  0  0  0  0  0  0  0  0  0  0  0
   51.7376   25.4715   46.6600 H   0  0  0  0  0  0  0  0  0  0  0  0
   49.1304   24.2409   48.7579 H   0  0  0  0  0  0  0  0  0  0  0  0
   49.6601   25.3206   50.1154 H   0  0  0  0  0  0  0  0  0  0  0  0
   48.0542   26.6842   49.3914 H   0  0  0  0  0  0  0  0  0  0  0  0
   47.9663   25.8746   47.7785 H   0  0  0  0  0  0  0  0  0  0  0  0
   47.4569   28.0868   46.4925 H   0  0  0  0  0  0  0  0  0  0  0  0
   46.5832   29.6421   46.4689 H   0  0  0  0  0  0  0  0  0  0  0  0
  1  2  2  0
  2  3  1  0
  4  3  2  0
  5  4  1  0
  6  1  1  0
  6  5  2  0
  7 12  2  0
  8  7  1  0
  9  8  2  0
  9 10  1  0
 10 11  2  0
 11 12  1  0
 11 13  1  0
 13 14  1  0
 13 17  1  0
 14 15  2  0
 15  1  1  0
 15 16  1  0
 17 16  2  0
 18  5  1  0
 18 23  1  0
 19 20  1  0
 19 18  1  0
 20 21  1  0
 21 22  1  0
 23 22  1  0
 24  6  1  0
  2 25  1  0
  3 26  1  0
  4 27  1  0
  7 28  1  0
  8 29  1  0
  9 30  1  0
 14 31  1  0
 17 32  1  0
 19 33  1  0
 19 34  1  0
 20 35  1  0
 20 36  1  0
 22 37  1  0
 22 38  1  0
 23 39  1  0
 23 40  1  0
 24 41  1  0
 24 42  1  0
M  ISO  8  25  14  26  14  27  14  28  14  29  14  30  14  31  14  32  14
M  ISO  8  33  13  34  13  35  13  36  13  37  13  38  13  39  13  40  13
M  END
>  <minimizedAffinity>  (1) 
-5.84816647

>  <minimizedRMSD>  (1) 
0.915192306

$$$$
