
     RDKit          3D

 39 42  0  0  0  0  0  0  0  0999 V2000
   48.0530   30.7880   48.3880 C   0  0  0  0  0  0  0  0  0  0  0  0
   48.9050   31.2380   49.3770 C   0  0  0  0  0  0  0  0  0  0  0  0
   49.8980   30.4530   49.8980 C   0  0  0  0  0  0  0  0  0  0  0  0
   50.0250   29.1570   49.3910 C   0  0  0  0  0  0  0  0  0  0  0  0
   49.1700   28.6910   48.3910 C   0  0  0  0  0  0  0  0  0  0  0  0
   48.1900   29.5210   47.9040 C   0  0  0  0  0  0  0  0  0  0  0  0
   44.5290   35.7460   44.6410 C   0  0  0  0  0  0  0  0  0  0  0  0
   45.2380   35.6240   43.4520 C   0  0  0  0  0  0  0  0  0  0  0  0
   46.1900   34.6300   43.3580 C   0  0  0  0  0  0  0  0  0  0  0  0
   46.3990   33.8160   44.4190 N   0  0  0  0  0  0  0  0  0  0  0  0
   45.6740   33.9700   45.5810 C   0  0  0  0  0  0  0  0  0  0  0  0
   44.7480   34.9190   45.7050 N   0  0  0  0  0  0  0  0  0  0  0  0
   45.9010   33.1080   46.6910 N   0  0  0  0  0  0  0  0  0  0  0  0
   47.0760   32.4320   46.7270 C   0  0  0  0  0  0  0  0  0  0  0  0
   47.0310   31.6830   47.8940 C   0  0  0  0  0  0  0  0  0  0  0  0
   45.8580   31.9130   48.5270 N   0  0  0  0  0  0  0  0  0  0  0  0
   45.1620   32.7760   47.8090 C   0  0  0  0  0  0  0  0  0  0  0  0
   49.3250   27.3650   47.8920 N   0  0  0  0  0  0  0  0  0  0  0  0
   48.8560   26.4040   48.7330 C   0  0  0  0  0  0  0  0  0  0  0  0
   48.9260   25.0790   48.4110 C   0  0  0  0  0  0  0  0  0  0  0  0
   49.4890   24.6950   47.1950 C   0  0  0  0  0  0  0  0  0  0  0  0
   49.5970   23.4850   46.8060 O   0  0  0  0  0  0  0  0  0  0  0  0
   49.9330   25.6780   46.4060 N   0  0  0  0  0  0  0  0  0  0  0  0
   49.8640   26.9810   46.7230 C   0  0  0  0  0  0  0  0  0  0  0  0
   50.2700   27.9320   46.0100 O   0  0  0  0  0  0  0  0  0  0  0  0
   47.3370   29.0100   46.9040 N   0  0  0  0  0  0  0  0  0  0  0  0
   48.7816   32.2621   49.7592 H   0  0  0  0  0  0  0  0  0  0  0  0
   50.5695   30.8275   50.6847 H   0  0  0  0  0  0  0  0  0  0  0  0
   50.8098   28.4948   49.7855 H   0  0  0  0  0  0  0  0  0  0  0  0
   43.7667   36.5343   44.7277 H   0  0  0  0  0  0  0  0  0  0  0  0
   45.0451   36.3023   42.6078 H   0  0  0  0  0  0  0  0  0  0  0  0
   46.7714   34.5007   42.4332 H   0  0  0  0  0  0  0  0  0  0  0  0
   47.8906   32.4695   45.9888 H   0  0  0  0  0  0  0  0  0  0  0  0
   44.1636   33.1641   48.0592 H   0  0  0  0  0  0  0  0  0  0  0  0
   48.4105   26.7011   49.6939 H   0  0  0  0  0  0  0  0  0  0  0  0
   48.5405   24.3193   49.1068 H   0  0  0  0  0  0  0  0  0  0  0  0
   50.3529   25.4210   45.5013 H   0  0  0  0  0  0  0  0  0  0  0  0
   47.4663   28.0482   46.5590 H   0  0  0  0  0  0  0  0  0  0  0  0
   46.5847   29.5986   46.5187 H   0  0  0  0  0  0  0  0  0  0  0  0
  1  2  2  0
  2  3  1  0
  4  3  2  0
  5  4  1  0
  6  1  1  0
  6  5  2  0
  7 12  2  0
  8  7  1  0
  9  8  2  0
  9 10  1  0
 10 11  2  0
 11 12  1  0
 11 13  1  0
 13 14  1  0
 13 17  1  0
 14 15  2  0
 15  1  1  0
 15 16  1  0
 17 16  2  0
 18  5  1  0
 18 19  1  0
 20 19  2  0
 21 20  1  0
 22 21  2  0
 23 24  1  0
 23 21  1  0
 24 18  1  0
 25 24  2  0
 26  6  1  0
  2 27  1  0
  3 28  1  0
  4 29  1  0
  7 30  1  0
  8 31  1  0
  9 32  1  0
 14 33  1  0
 17 34  1  0
 19 35  1  0
 20 36  1  0
 23 37  1  0
 26 38  1  0
 26 39  1  0
M  ISO  8  27  14  28  14  29  14  30  14  31  14  32  14  33  14  34  14
M  ISO  3  35  14  36  14  37   9
M  END
>  <minimizedAffinity>  (1) 
-5.83905745

>  <minimizedRMSD>  (1) 
0.696650445

$$$$
