
     RDKit          3D

 36 39  0  0  0  0  0  0  0  0999 V2000
   48.0890   31.0220   48.3800 C   0  0  0  0  0  0  0  0  0  0  0  0
   49.0500   31.5770   49.2020 C   0  0  0  0  0  0  0  0  0  0  0  0
   50.0820   30.8390   49.7260 C   0  0  0  0  0  0  0  0  0  0  0  0
   50.1330   29.4980   49.4020 C   0  0  0  0  0  0  0  0  0  0  0  0
   49.1780   28.9160   48.5760 C   0  0  0  0  0  0  0  0  0  0  0  0
   48.1610   29.6900   48.0720 C   0  0  0  0  0  0  0  0  0  0  0  0
   44.4490   35.8380   44.5630 C   0  0  0  0  0  0  0  0  0  0  0  0
   45.1610   35.7280   43.3830 C   0  0  0  0  0  0  0  0  0  0  0  0
   46.1550   34.7500   43.2730 C   0  0  0  0  0  0  0  0  0  0  0  0
   46.3730   33.9450   44.3490 N   0  0  0  0  0  0  0  0  0  0  0  0
   45.6510   34.0830   45.4940 C   0  0  0  0  0  0  0  0  0  0  0  0
   44.6880   35.0210   45.6220 N   0  0  0  0  0  0  0  0  0  0  0  0
   45.8780   33.2450   46.6180 N   0  0  0  0  0  0  0  0  0  0  0  0
   47.0720   32.6110   46.6930 C   0  0  0  0  0  0  0  0  0  0  0  0
   47.0340   31.8680   47.8690 C   0  0  0  0  0  0  0  0  0  0  0  0
   45.8490   32.0580   48.4720 N   0  0  0  0  0  0  0  0  0  0  0  0
   45.1370   32.8900   47.7270 C   0  0  0  0  0  0  0  0  0  0  0  0
   49.2630   27.4960   48.2520 C   0  0  0  0  0  0  0  0  0  0  0  0
   49.5370   26.4810   49.1480 C   0  0  0  0  0  0  0  0  0  0  0  0
   49.5050   25.3290   48.3550 C   0  0  0  0  0  0  0  0  0  0  0  0
   49.2210   25.6910   47.0540 C   0  0  0  0  0  0  0  0  0  0  0  0
   49.0860   26.9790   47.0390 O   0  0  0  0  0  0  0  0  0  0  0  0
   47.1890   29.0840   47.2280 N   0  0  0  0  0  0  0  0  0  0  0  0
   48.9862   32.6479   49.4453 H   0  0  0  0  0  0  0  0  0  0  0  0
   50.8390   31.2983   50.3787 H   0  0  0  0  0  0  0  0  0  0  0  0
   50.9462   28.8770   49.8058 H   0  0  0  0  0  0  0  0  0  0  0  0
   43.6678   36.6079   44.6468 H   0  0  0  0  0  0  0  0  0  0  0  0
   44.9482   36.4020   42.5401 H   0  0  0  0  0  0  0  0  0  0  0  0
   46.7404   34.6353   42.3488 H   0  0  0  0  0  0  0  0  0  0  0  0
   47.9012   32.6709   45.9727 H   0  0  0  0  0  0  0  0  0  0  0  0
   44.1198   33.2412   47.9552 H   0  0  0  0  0  0  0  0  0  0  0  0
   49.7335   26.5598   50.2274 H   0  0  0  0  0  0  0  0  0  0  0  0
   49.6779   24.3025   48.7104 H   0  0  0  0  0  0  0  0  0  0  0  0
   49.1270   25.0136   46.1924 H   0  0  0  0  0  0  0  0  0  0  0  0
   47.2549   28.0808   47.0042 H   0  0  0  0  0  0  0  0  0  0  0  0
   46.4194   29.6485   46.8408 H   0  0  0  0  0  0  0  0  0  0  0  0
  1  2  2  0
  2  3  1  0
  4  3  2  0
  5  4  1  0
  6  1  1  0
  6  5  2  0
  7 12  2  0
  8  7  1  0
  9  8  2  0
  9 10  1  0
 10 11  2  0
 11 12  1  0
 11 13  1  0
 13 14  1  0
 13 17  1  0
 14 15  2  0
 15  1  1  0
 15 16  1  0
 17 16  2  0
 18  5  1  0
 18 19  2  0
 20 19  1  0
 21 20  2  0
 22 21  1  0
 22 18  1  0
 23  6  1  0
  2 24  1  0
  3 25  1  0
  4 26  1  0
  7 27  1  0
  8 28  1  0
  9 29  1  0
 14 30  1  0
 17 31  1  0
 19 32  1  0
 20 33  1  0
 21 34  1  0
 23 35  1  0
 23 36  1  0
M  ISO  8  24  14  25  14  26  14  27  14  28  14  29  14  30  14  31  14
M  ISO  3  32  14  33  14  34  14
M  END
>  <minimizedAffinity>  (1) 
-5.80293369

>  <minimizedRMSD>  (1) 
0.3994205

$$$$
