
     RDKit          3D

 42 45  0  0  0  0  0  0  0  0999 V2000
   48.2300   31.0620   48.4210 C   0  0  0  0  0  0  0  0  0  0  0  0
   49.2010   31.6640   49.1810 C   0  0  0  0  0  0  0  0  0  0  0  0
   50.2630   30.9700   49.7020 C   0  0  0  0  0  0  0  0  0  0  0  0
   50.3230   29.6090   49.4300 C   0  0  0  0  0  0  0  0  0  0  0  0
   49.3420   28.9870   48.6610 C   0  0  0  0  0  0  0  0  0  0  0  0
   48.2880   29.7260   48.1530 C   0  0  0  0  0  0  0  0  0  0  0  0
   44.4220   35.7670   44.5980 C   0  0  0  0  0  0  0  0  0  0  0  0
   45.1530   35.6760   43.4190 C   0  0  0  0  0  0  0  0  0  0  0  0
   46.1750   34.7380   43.3180 C   0  0  0  0  0  0  0  0  0  0  0  0
   46.4230   33.9370   44.3890 N   0  0  0  0  0  0  0  0  0  0  0  0
   45.6820   34.0520   45.5390 C   0  0  0  0  0  0  0  0  0  0  0  0
   44.6980   34.9470   45.6520 N   0  0  0  0  0  0  0  0  0  0  0  0
   45.9360   33.2150   46.6650 N   0  0  0  0  0  0  0  0  0  0  0  0
   47.1500   32.6250   46.7380 C   0  0  0  0  0  0  0  0  0  0  0  0
   47.1390   31.8800   47.9070 C   0  0  0  0  0  0  0  0  0  0  0  0
   45.9470   32.0290   48.5050 N   0  0  0  0  0  0  0  0  0  0  0  0
   45.2090   32.8360   47.7610 C   0  0  0  0  0  0  0  0  0  0  0  0
   49.8500   24.8220   48.2500 C   0  0  0  0  0  0  0  0  0  0  0  0
   49.5170   25.5690   47.1440 C   0  0  0  0  0  0  0  0  0  0  0  0
   49.3320   26.9350   47.1880 C   0  0  0  0  0  0  0  0  0  0  0  0
   49.4990   27.5510   48.4340 C   0  0  0  0  0  0  0  0  0  0  0  0
   49.8360   26.8140   49.5710 C   0  0  0  0  0  0  0  0  0  0  0  0
   50.0050   25.4500   49.4500 C   0  0  0  0  0  0  0  0  0  0  0  0
   50.0620   23.0970   48.0940 S   0  0  0  0  0  0  0  0  0  0  0  0
   50.1590   22.4400   49.4310 O   0  0  0  0  0  0  0  0  0  0  0  0
   48.8900   22.5000   47.3650 O   0  0  0  0  0  0  0  0  0  0  0  0
   47.3190   29.0630   47.3810 N   0  0  0  0  0  0  0  0  0  0  0  0
   49.1248   32.7432   49.3797 H   0  0  0  0  0  0  0  0  0  0  0  0
   51.0332   31.4690   50.3084 H   0  0  0  0  0  0  0  0  0  0  0  0
   51.1578   29.0134   49.8279 H   0  0  0  0  0  0  0  0  0  0  0  0
   43.6131   36.5077   44.6815 H   0  0  0  0  0  0  0  0  0  0  0  0
   44.9249   36.3406   42.5727 H   0  0  0  0  0  0  0  0  0  0  0  0
   46.7675   34.6463   42.3957 H   0  0  0  0  0  0  0  0  0  0  0  0
   47.9765   32.7171   46.0180 H   0  0  0  0  0  0  0  0  0  0  0  0
   44.1794   33.1510   47.9862 H   0  0  0  0  0  0  0  0  0  0  0  0
   49.3926   25.0533   46.1804 H   0  0  0  0  0  0  0  0  0  0  0  0
   49.0666   27.5114   46.2895 H   0  0  0  0  0  0  0  0  0  0  0  0
   49.9642   27.3110   50.5439 H   0  0  0  0  0  0  0  0  0  0  0  0
   50.2698   24.8581   50.3386 H   0  0  0  0  0  0  0  0  0  0  0  0
   51.2236   22.8865   47.3988 H   0  0  0  0  0  0  0  0  0  0  0  0
   47.4045   28.0518   47.2048 H   0  0  0  0  0  0  0  0  0  0  0  0
   46.5233   29.5882   46.9913 H   0  0  0  0  0  0  0  0  0  0  0  0
  1  2  2  0
  2  3  1  0
  4  3  2  0
  5  4  1  0
  6  1  1  0
  6  5  2  0
  7 12  2  0
  8  7  1  0
  9  8  2  0
  9 10  1  0
 10 11  2  0
 11 12  1  0
 11 13  1  0
 13 14  1  0
 13 17  1  0
 14 15  2  0
 15  1  1  0
 15 16  1  0
 17 16  2  0
 18 23  2  0
 19 20  2  0
 19 18  1  0
 20 21  1  0
 21  5  1  0
 21 22  2  0
 23 22  1  0
 24 18  1  0
 24 25  2  0
 26 24  2  0
 27  6  1  0
  2 28  1  0
  3 29  1  0
  4 30  1  0
  7 31  1  0
  8 32  1  0
  9 33  1  0
 14 34  1  0
 17 35  1  0
 19 36  1  0
 20 37  1  0
 22 38  1  0
 23 39  1  0
 24 40  1  0
 27 41  1  0
 27 42  1  0
M  ISO  8  28  14  29  14  30  14  31  14  32  14  33  14  34  14  35  14
M  ISO  5  36  14  37  14  38  14  39  14  40  11
M  END
>  <minimizedAffinity>  (1) 
-5.78532457

>  <minimizedRMSD>  (1) 
0.310372949

$$$$
