
     RDKit          3D

 36 39  0  0  0  0  0  0  0  0999 V2000
   44.5300   35.7420   44.6330 C   0  0  0  0  0  0  0  0  0  0  0  0
   45.2390   35.6110   43.4510 C   0  0  0  0  0  0  0  0  0  0  0  0
   46.2080   34.6090   43.3520 C   0  0  0  0  0  0  0  0  0  0  0  0
   46.4040   33.8100   44.4300 N   0  0  0  0  0  0  0  0  0  0  0  0
   45.6850   33.9710   45.5780 C   0  0  0  0  0  0  0  0  0  0  0  0
   44.7600   34.9200   45.6870 N   0  0  0  0  0  0  0  0  0  0  0  0
   45.9020   33.1270   46.6970 N   0  0  0  0  0  0  0  0  0  0  0  0
   47.0700   32.4620   46.7640 C   0  0  0  0  0  0  0  0  0  0  0  0
   47.0210   31.7230   47.9390 C   0  0  0  0  0  0  0  0  0  0  0  0
   45.8530   31.9450   48.5520 N   0  0  0  0  0  0  0  0  0  0  0  0
   45.1630   32.7950   47.8100 C   0  0  0  0  0  0  0  0  0  0  0  0
   48.0600   30.8390   48.4470 C   0  0  0  0  0  0  0  0  0  0  0  0
   48.8600   31.2850   49.4880 C   0  0  0  0  0  0  0  0  0  0  0  0
   49.8550   30.5150   50.0180 C   0  0  0  0  0  0  0  0  0  0  0  0
   50.0560   29.2570   49.4890 C   0  0  0  0  0  0  0  0  0  0  0  0
   49.2700   28.8040   48.4580 C   0  0  0  0  0  0  0  0  0  0  0  0
   48.2600   29.5910   47.9220 C   0  0  0  0  0  0  0  0  0  0  0  0
   47.4700   29.1030   46.8680 N   0  0  0  0  0  0  0  0  0  0  0  0
   49.5110   27.4430   47.9090 C   0  0  0  0  0  0  0  0  0  0  0  0
   48.9290   26.2700   48.6660 C   0  0  0  0  0  0  0  0  0  0  0  0
   50.4040   26.4790   48.5580 C   0  0  0  0  0  0  0  0  0  0  0  0
   43.7653   36.5280   44.7189 H   0  0  0  0  0  0  0  0  0  0  0  0
   45.0428   36.2846   42.6038 H   0  0  0  0  0  0  0  0  0  0  0  0
   46.7925   34.4729   42.4301 H   0  0  0  0  0  0  0  0  0  0  0  0
   47.8948   32.4966   46.0370 H   0  0  0  0  0  0  0  0  0  0  0  0
   44.1582   33.1761   48.0449 H   0  0  0  0  0  0  0  0  0  0  0  0
   48.6876   32.2904   49.8996 H   0  0  0  0  0  0  0  0  0  0  0  0
   50.4790   30.8874   50.8438 H   0  0  0  0  0  0  0  0  0  0  0  0
   50.8501   28.6132   49.8951 H   0  0  0  0  0  0  0  0  0  0  0  0
   47.6406   28.1600   46.4904 H   0  0  0  0  0  0  0  0  0  0  0  0
   46.7201   29.6881   46.4728 H   0  0  0  0  0  0  0  0  0  0  0  0
   49.4623   27.8465   46.8869 H   0  0  0  0  0  0  0  0  0  0  0  0
   48.4152   26.4292   49.6255 H   0  0  0  0  0  0  0  0  0  0  0  0
   48.2307   25.4521   48.4350 H   0  0  0  0  0  0  0  0  0  0  0  0
   51.0086   25.7956   47.9437 H   0  0  0  0  0  0  0  0  0  0  0  0
   51.2246   26.5601   49.2860 H   0  0  0  0  0  0  0  0  0  0  0  0
  1  6  2  0
  2  1  1  0
  3  2  2  0
  3  4  1  0
  4  5  2  0
  5  6  1  0
  5  7  1  0
  7  8  1  0
  7 11  1  0
  8  9  2  0
  9 12  1  0
  9 10  1  0
 11 10  2  0
 12 13  2  0
 13 14  1  0
 15 14  2  0
 16 15  1  0
 17 12  1  0
 17 16  2  0
 18 17  1  0
 19 16  1  0
 19 21  1  0
 19 20  1  0
 21 20  1  0
  1 22  1  0
  2 23  1  0
  3 24  1  0
  8 25  1  0
 11 26  1  0
 13 27  1  0
 14 28  1  0
 15 29  1  0
 18 30  1  0
 18 31  1  0
 19 32  1  0
 20 33  1  0
 20 34  1  0
 21 35  1  0
 21 36  1  0
M  ISO  8  22  14  23  14  24  14  25  14  26  14  27  14  28  14  29  14
M  ISO  5  32  13  33  13  34  13  35  13  36  13
M  END
>  <minimizedAffinity>  (1) 
-5.71226978

>  <minimizedRMSD>  (1) 
0.569163859

$$$$
