
     RDKit          3D

 36 39  0  0  0  0  0  0  0  0999 V2000
   48.0480   30.7830   48.4320 C   0  0  0  0  0  0  0  0  0  0  0  0
   48.8400   31.2140   49.4820 C   0  0  0  0  0  0  0  0  0  0  0  0
   49.8320   30.4280   50.0040 C   0  0  0  0  0  0  0  0  0  0  0  0
   50.0170   29.1830   49.4440 C   0  0  0  0  0  0  0  0  0  0  0  0
   49.2410   28.7390   48.4020 C   0  0  0  0  0  0  0  0  0  0  0  0
   48.2400   29.5490   47.8850 C   0  0  0  0  0  0  0  0  0  0  0  0
   44.5450   35.7400   44.6430 C   0  0  0  0  0  0  0  0  0  0  0  0
   45.2530   35.6080   43.4620 C   0  0  0  0  0  0  0  0  0  0  0  0
   46.2030   34.6060   43.3700 C   0  0  0  0  0  0  0  0  0  0  0  0
   46.4100   33.7940   44.4270 N   0  0  0  0  0  0  0  0  0  0  0  0
   45.6820   33.9590   45.5860 C   0  0  0  0  0  0  0  0  0  0  0  0
   44.7510   34.9160   45.7220 N   0  0  0  0  0  0  0  0  0  0  0  0
   45.9030   33.1000   46.7010 N   0  0  0  0  0  0  0  0  0  0  0  0
   47.0610   32.4240   46.7700 C   0  0  0  0  0  0  0  0  0  0  0  0
   47.0100   31.6810   47.9310 C   0  0  0  0  0  0  0  0  0  0  0  0
   45.8400   31.9100   48.5450 N   0  0  0  0  0  0  0  0  0  0  0  0
   45.1500   32.7720   47.8130 C   0  0  0  0  0  0  0  0  0  0  0  0
   49.4090   27.4570   47.8040 N   0  0  0  0  0  0  0  0  0  0  0  0
   48.8900   26.4380   48.5440 C   0  0  0  0  0  0  0  0  0  0  0  0
   49.1280   25.2590   47.8400 C   0  0  0  0  0  0  0  0  0  0  0  0
   49.7740   25.6010   46.7130 N   0  0  0  0  0  0  0  0  0  0  0  0
   49.9450   26.9300   46.6880 C   0  0  0  0  0  0  0  0  0  0  0  0
   47.4440   29.0840   46.8030 N   0  0  0  0  0  0  0  0  0  0  0  0
   48.6681   32.2135   49.9079 H   0  0  0  0  0  0  0  0  0  0  0  0
   50.4575   30.7773   50.8387 H   0  0  0  0  0  0  0  0  0  0  0  0
   50.8063   28.5281   49.8417 H   0  0  0  0  0  0  0  0  0  0  0  0
   43.7886   36.5349   44.7207 H   0  0  0  0  0  0  0  0  0  0  0  0
   45.0651   36.2843   42.6151 H   0  0  0  0  0  0  0  0  0  0  0  0
   46.7831   34.4731   42.4449 H   0  0  0  0  0  0  0  0  0  0  0  0
   47.8870   32.4563   46.0442 H   0  0  0  0  0  0  0  0  0  0  0  0
   44.1485   33.1606   48.0497 H   0  0  0  0  0  0  0  0  0  0  0  0
   48.3794   26.5286   49.5141 H   0  0  0  0  0  0  0  0  0  0  0  0
   48.8416   24.2427   48.1483 H   0  0  0  0  0  0  0  0  0  0  0  0
   50.4419   27.4968   45.8868 H   0  0  0  0  0  0  0  0  0  0  0  0
   46.7000   29.6824   46.4166 H   0  0  0  0  0  0  0  0  0  0  0  0
   47.6112   28.1487   46.4054 H   0  0  0  0  0  0  0  0  0  0  0  0
  1  2  2  0
  2  3  1  0
  4  3  2  0
  5  4  1  0
  6  5  2  0
  6  1  1  0
  7 12  2  0
  8  7  1  0
  9  8  2  0
  9 10  1  0
 10 11  2  0
 11 12  1  0
 11 13  1  0
 13 14  1  0
 13 17  1  0
 14 15  2  0
 15  1  1  0
 15 16  1  0
 17 16  2  0
 18  5  1  0
 18 19  1  0
 20 19  2  0
 21 20  1  0
 22 21  2  0
 22 18  1  0
 23  6  1  0
  2 24  1  0
  3 25  1  0
  4 26  1  0
  7 27  1  0
  8 28  1  0
  9 29  1  0
 14 30  1  0
 17 31  1  0
 19 32  1  0
 20 33  1  0
 22 34  1  0
 23 35  1  0
 23 36  1  0
M  ISO  8  24  14  25  14  26  14  27  14  28  14  29  14  30  14  31  14
M  ISO  3  32  14  33  14  34  14
M  END
>  <minimizedAffinity>  (1) 
-5.72028875

>  <minimizedRMSD>  (1) 
0.578901172

$$$$
