
     RDKit          3D

 30 32  0  0  0  0  0  0  0  0999 V2000
   44.4400   35.8580   44.5060 C   0  0  0  0  0  0  0  0  0  0  0  0
   45.1650   35.7350   43.3260 C   0  0  0  0  0  0  0  0  0  0  0  0
   46.1470   34.7660   43.2440 C   0  0  0  0  0  0  0  0  0  0  0  0
   46.3620   33.9750   44.3270 N   0  0  0  0  0  0  0  0  0  0  0  0
   45.6250   34.1230   45.4820 C   0  0  0  0  0  0  0  0  0  0  0  0
   44.6790   35.0520   45.5670 N   0  0  0  0  0  0  0  0  0  0  0  0
   45.8760   33.2770   46.5880 N   0  0  0  0  0  0  0  0  0  0  0  0
   47.0620   32.6500   46.6720 C   0  0  0  0  0  0  0  0  0  0  0  0
   47.0040   31.9090   47.8420 C   0  0  0  0  0  0  0  0  0  0  0  0
   45.8070   32.0920   48.4460 N   0  0  0  0  0  0  0  0  0  0  0  0
   45.1060   32.9290   47.6860 C   0  0  0  0  0  0  0  0  0  0  0  0
   48.0620   31.0570   48.3660 C   0  0  0  0  0  0  0  0  0  0  0  0
   49.0100   31.6000   49.1920 C   0  0  0  0  0  0  0  0  0  0  0  0
   50.0250   30.8650   49.7200 C   0  0  0  0  0  0  0  0  0  0  0  0
   50.0810   29.5060   49.3940 C   0  0  0  0  0  0  0  0  0  0  0  0
   49.1280   28.9350   48.5580 C   0  0  0  0  0  0  0  0  0  0  0  0
   48.1150   29.7180   48.0430 C   0  0  0  0  0  0  0  0  0  0  0  0
   47.1500   29.1160   47.1860 N   0  0  0  0  0  0  0  0  0  0  0  0
   49.2610   27.5870   48.2880 O   0  0  0  0  0  0  0  0  0  0  0  0
   43.6560   36.6261   44.5789 H   0  0  0  0  0  0  0  0  0  0  0  0
   44.9605   36.3977   42.4722 H   0  0  0  0  0  0  0  0  0  0  0  0
   46.7390   34.6387   42.3257 H   0  0  0  0  0  0  0  0  0  0  0  0
   47.9006   32.7118   45.9628 H   0  0  0  0  0  0  0  0  0  0  0  0
   44.0863   33.2850   47.8943 H   0  0  0  0  0  0  0  0  0  0  0  0
   48.9480   32.6705   49.4374 H   0  0  0  0  0  0  0  0  0  0  0  0
   50.7758   31.3233   50.3805 H   0  0  0  0  0  0  0  0  0  0  0  0
   50.8885   28.8816   49.8039 H   0  0  0  0  0  0  0  0  0  0  0  0
   47.2148   28.1127   46.9620 H   0  0  0  0  0  0  0  0  0  0  0  0
   46.3873   29.6839   46.7901 H   0  0  0  0  0  0  0  0  0  0  0  0
   48.6079   27.1335   47.6982 H   0  0  0  0  0  0  0  0  0  0  0  0
  1  6  2  0
  2  1  1  0
  3  2  2  0
  3  4  1  0
  4  5  2  0
  5  6  1  0
  5  7  1  0
  7  8  1  0
  7 11  1  0
  8  9  2  0
  9 12  1  0
  9 10  1  0
 11 10  2  0
 12 13  2  0
 13 14  1  0
 15 14  2  0
 16 15  1  0
 17 12  1  0
 17 16  2  0
 18 17  1  0
 19 16  1  0
  1 20  1  0
  2 21  1  0
  3 22  1  0
  8 23  1  0
 11 24  1  0
 13 25  1  0
 14 26  1  0
 15 27  1  0
 18 28  1  0
 18 29  1  0
 19 30  1  0
M  ISO  8  20  14  21  14  22  14  23  14  24  14  25  14  26  14  27  14
M  ISO  1  30   3
M  END
>  <minimizedAffinity>  (1) 
-5.69011688

>  <minimizedRMSD>  (1) 
0.0993919596

$$$$
