
     RDKit          3D

 39 40  0  0  0  0  0  0  0  0999 V2000
   45.5830   35.0660   42.8440 C   0  0  0  0  0  0  0  0  0  0  0  0
   45.1010   34.5340   45.2230 C   0  0  0  0  0  0  0  0  0  0  0  0
   45.8670   34.2720   44.0740 C   0  0  0  0  0  0  0  0  0  0  0  0
   46.8450   33.2770   44.1820 C   0  0  0  0  0  0  0  0  0  0  0  0
   47.0030   32.6330   45.3460 N   0  0  0  0  0  0  0  0  0  0  0  0
   46.2550   32.9040   46.4310 C   0  0  0  0  0  0  0  0  0  0  0  0
   45.2920   33.8670   46.3660 N   0  0  0  0  0  0  0  0  0  0  0  0
   46.7690   35.0170   41.9290 C   0  0  0  0  0  0  0  0  0  0  0  0
   45.2560   36.4820   43.2530 C   0  0  0  0  0  0  0  0  0  0  0  0
   44.3540   34.4820   42.1740 C   0  0  0  0  0  0  0  0  0  0  0  0
   43.3070   35.3600   42.3030 O   0  0  0  0  0  0  0  0  0  0  0  0
   42.2980   35.3670   41.3560 C   0  0  0  0  0  0  0  0  0  0  0  0
   40.9520   35.5360   41.6240 C   0  0  0  0  0  0  0  0  0  0  0  0
   40.3050   35.4750   40.3970 C   0  0  0  0  0  0  0  0  0  0  0  0
   41.2250   35.2760   39.4220 N   0  0  0  0  0  0  0  0  0  0  0  0
   42.3900   35.2160   40.0140 N   0  0  0  0  0  0  0  0  0  0  0  0
   41.0480   35.1410   37.9740 C   0  0  0  0  0  0  0  0  0  0  0  0
   39.6950   34.5890   37.6810 C   0  0  0  0  0  0  0  0  0  0  0  0
   41.3420   36.4520   37.2760 C   0  0  0  0  0  0  0  0  0  0  0  0
   44.3223   35.3098   45.1807 H   0  0  0  0  0  0  0  0  0  0  0  0
   47.4786   33.0258   43.3186 H   0  0  0  0  0  0  0  0  0  0  0  0
   46.4198   32.3506   47.3672 H   0  0  0  0  0  0  0  0  0  0  0  0
   47.6918   34.9789   42.5265 H   0  0  0  0  0  0  0  0  0  0  0  0
   46.7058   34.1207   41.2945 H   0  0  0  0  0  0  0  0  0  0  0  0
   46.7799   35.9155   41.2945 H   0  0  0  0  0  0  0  0  0  0  0  0
   45.2398   36.5521   44.3506 H   0  0  0  0  0  0  0  0  0  0  0  0
   46.0201   37.1649   42.8532 H   0  0  0  0  0  0  0  0  0  0  0  0
   44.2699   36.7607   42.8532 H   0  0  0  0  0  0  0  0  0  0  0  0
   44.0935   33.5265   42.6528 H   0  0  0  0  0  0  0  0  0  0  0  0
   44.5620   34.3105   41.1075 H   0  0  0  0  0  0  0  0  0  0  0  0
   40.4879   35.6880   42.6096 H   0  0  0  0  0  0  0  0  0  0  0  0
   39.2204   35.5725   40.2414 H   0  0  0  0  0  0  0  0  0  0  0  0
   41.7743   34.4211   37.5688 H   0  0  0  0  0  0  0  0  0  0  0  0
   39.1733   34.3762   38.6258 H   0  0  0  0  0  0  0  0  0  0  0  0
   39.1172   35.3233   37.1005 H   0  0  0  0  0  0  0  0  0  0  0  0
   39.7958   33.6601   37.1005 H   0  0  0  0  0  0  0  0  0  0  0  0
   41.5178   37.2360   38.0273 H   0  0  0  0  0  0  0  0  0  0  0  0
   42.2373   36.3397   36.6468 H   0  0  0  0  0  0  0  0  0  0  0  0
   40.4845   36.7328   36.6468 H   0  0  0  0  0  0  0  0  0  0  0  0
  1  9  1  0
  1  3  1  0
  2  7  2  0
  3  4  2  0
  3  2  1  0
  4  5  1  0
  5  6  2  0
  7  6  1  0
  8  1  1  0
 10 11  1  0
 10  1  1  0
 12 13  1  0
 12 11  1  0
 14 13  2  0
 15 16  1  0
 15 14  1  0
 16 12  2  0
 17 15  1  0
 18 17  1  0
 19 17  1  0
  2 20  1  0
  4 21  1  0
  6 22  1  0
  8 23  1  0
  8 24  1  0
  8 25  1  0
  9 26  1  0
  9 27  1  0
  9 28  1  0
 10 29  1  0
 10 30  1  0
 13 31  1  0
 14 32  1  0
 17 33  1  0
 18 34  1  0
 18 35  1  0
 18 36  1  0
 19 37  1  0
 19 38  1  0
 19 39  1  0
M  ISO  8  20  14  21  14  22  14  23   8  24   8  25   8  26   8  27   8
M  ISO  8  28   8  29   8  30   8  31  14  32  14  33   8  34   8  35   8
M  ISO  4  36   8  37   8  38   8  39   8
M  END
>  <minimizedAffinity>  (1) 
-5.58977079

>  <minimizedRMSD>  (1) 
0.280699342

$$$$
