
     RDKit          3D

 45 48  0  0  0  0  0  0  0  0999 V2000
   48.0860   31.0610   48.3930 C   0  0  0  0  0  0  0  0  0  0  0  0
   49.0200   31.6430   49.2270 C   0  0  0  0  0  0  0  0  0  0  0  0
   50.0520   30.9160   49.7680 C   0  0  0  0  0  0  0  0  0  0  0  0
   50.1250   29.5490   49.4420 C   0  0  0  0  0  0  0  0  0  0  0  0
   49.1770   28.9880   48.6050 C   0  0  0  0  0  0  0  0  0  0  0  0
   48.1570   29.7250   48.0740 C   0  0  0  0  0  0  0  0  0  0  0  0
   44.4530   35.8390   44.5030 C   0  0  0  0  0  0  0  0  0  0  0  0
   45.1860   35.7240   43.3350 C   0  0  0  0  0  0  0  0  0  0  0  0
   46.1790   34.7560   43.2530 C   0  0  0  0  0  0  0  0  0  0  0  0
   46.3830   33.9620   44.3330 N   0  0  0  0  0  0  0  0  0  0  0  0
   45.6510   34.0970   45.4640 C   0  0  0  0  0  0  0  0  0  0  0  0
   44.6890   35.0250   45.5610 N   0  0  0  0  0  0  0  0  0  0  0  0
   45.8690   33.2600   46.5990 N   0  0  0  0  0  0  0  0  0  0  0  0
   47.0650   32.6450   46.6850 C   0  0  0  0  0  0  0  0  0  0  0  0
   47.0240   31.9020   47.8600 C   0  0  0  0  0  0  0  0  0  0  0  0
   45.8290   32.0880   48.4370 N   0  0  0  0  0  0  0  0  0  0  0  0
   45.1220   32.9070   47.6810 C   0  0  0  0  0  0  0  0  0  0  0  0
   49.3210   27.5790   48.3150 C   0  0  0  0  0  0  0  0  0  0  0  0
   48.3840   26.7500   48.2360 O   0  0  0  0  0  0  0  0  0  0  0  0
   50.5140   26.8180   48.0600 N   0  0  0  0  0  0  0  0  0  0  0  0
   50.6310   25.5400   48.7290 C   0  0  0  0  0  0  0  0  0  0  0  0
   51.8110   25.5810   49.6750 C   0  0  0  0  0  0  0  0  0  0  0  0
   53.0250   26.0000   49.0070 N   0  0  0  0  0  0  0  0  0  0  0  0
   52.8640   27.1820   48.2240 C   0  0  0  0  0  0  0  0  0  0  0  0
   51.6980   27.0530   47.2410 C   0  0  0  0  0  0  0  0  0  0  0  0
   47.2150   29.1210   47.2300 N   0  0  0  0  0  0  0  0  0  0  0  0
   48.9355   32.7139   49.4636 H   0  0  0  0  0  0  0  0  0  0  0  0
   50.7938   31.3848   50.4313 H   0  0  0  0  0  0  0  0  0  0  0  0
   50.9346   28.9274   49.8521 H   0  0  0  0  0  0  0  0  0  0  0  0
   43.6656   36.6038   44.5742 H   0  0  0  0  0  0  0  0  0  0  0  0
   44.9851   36.3901   42.4830 H   0  0  0  0  0  0  0  0  0  0  0  0
   46.7812   34.6373   42.3401 H   0  0  0  0  0  0  0  0  0  0  0  0
   47.9007   32.7160   45.9732 H   0  0  0  0  0  0  0  0  0  0  0  0
   44.0975   33.2483   47.8908 H   0  0  0  0  0  0  0  0  0  0  0  0
   49.7111   25.3361   49.2966 H   0  0  0  0  0  0  0  0  0  0  0  0
   50.7815   24.7448   47.9840 H   0  0  0  0  0  0  0  0  0  0  0  0
   51.5904   26.2883   50.4881 H   0  0  0  0  0  0  0  0  0  0  0  0
   51.9702   24.5649   50.0651 H   0  0  0  0  0  0  0  0  0  0  0  0
   53.7456   26.1775   49.7212 H   0  0  0  0  0  0  0  0  0  0  0  0
   52.6721   28.0316   48.8958 H   0  0  0  0  0  0  0  0  0  0  0  0
   53.7860   27.3390   47.6450 H   0  0  0  0  0  0  0  0  0  0  0  0
   51.8649   26.2078   46.5571 H   0  0  0  0  0  0  0  0  0  0  0  0
   51.5893   27.9546   46.6202 H   0  0  0  0  0  0  0  0  0  0  0  0
   47.2913   28.1183   47.0071 H   0  0  0  0  0  0  0  0  0  0  0  0
   46.4464   29.6798   46.8326 H   0  0  0  0  0  0  0  0  0  0  0  0
  1  2  2  0
  2  3  1  0
  4  3  2  0
  5  4  1  0
  6  1  1  0
  6  5  2  0
  7 12  2  0
  8  7  1  0
  9  8  2  0
  9 10  1  0
 10 11  2  0
 11 12  1  0
 11 13  1  0
 13 14  1  0
 13 17  1  0
 14 15  2  0
 15  1  1  0
 15 16  1  0
 17 16  2  0
 18  5  1  0
 19 18  2  0
 20 18  1  0
 20 21  1  0
 21 22  1  0
 23 22  1  0
 24 23  1  0
 25 20  1  0
 25 24  1  0
 26  6  1  0
  2 27  1  0
  3 28  1  0
  4 29  1  0
  7 30  1  0
  8 31  1  0
  9 32  1  0
 14 33  1  0
 17 34  1  0
 21 35  1  0
 21 36  1  0
 22 37  1  0
 22 38  1  0
 23 39  1  0
 24 40  1  0
 24 41  1  0
 25 42  1  0
 25 43  1  0
 26 44  1  0
 26 45  1  0
M  ISO  8  27  14  28  14  29  14  30  14  31  14  32  14  33  14  34  14
M  ISO  8  35  13  36  13  37  13  38  13  39   5  40  13  41  13  42  13
M  ISO  1  43  13
M  END
>  <minimizedAffinity>  (1) 
-5.97930288

>  <minimizedRMSD>  (1) 
1.73243856

$$$$
