
     RDKit          3D

 44 47  0  0  0  0  0  0  0  0999 V2000
   48.1480   31.0270   48.4220 C   0  0  0  0  0  0  0  0  0  0  0  0
   49.0730   31.5880   49.2620 C   0  0  0  0  0  0  0  0  0  0  0  0
   50.1050   30.8460   49.7810 C   0  0  0  0  0  0  0  0  0  0  0  0
   50.1850   29.4880   49.4220 C   0  0  0  0  0  0  0  0  0  0  0  0
   49.2390   28.9450   48.5720 C   0  0  0  0  0  0  0  0  0  0  0  0
   48.2200   29.6970   48.0660 C   0  0  0  0  0  0  0  0  0  0  0  0
   44.4440   35.7900   44.5700 C   0  0  0  0  0  0  0  0  0  0  0  0
   45.1790   35.6980   43.4010 C   0  0  0  0  0  0  0  0  0  0  0  0
   46.1950   34.7420   43.3130 C   0  0  0  0  0  0  0  0  0  0  0  0
   46.4120   33.9460   44.3890 N   0  0  0  0  0  0  0  0  0  0  0  0
   45.6720   34.0650   45.5180 C   0  0  0  0  0  0  0  0  0  0  0  0
   44.6900   34.9770   45.6260 N   0  0  0  0  0  0  0  0  0  0  0  0
   45.9000   33.2270   46.6530 N   0  0  0  0  0  0  0  0  0  0  0  0
   47.0990   32.6130   46.7270 C   0  0  0  0  0  0  0  0  0  0  0  0
   47.0740   31.8690   47.9020 C   0  0  0  0  0  0  0  0  0  0  0  0
   45.8850   32.0490   48.4940 N   0  0  0  0  0  0  0  0  0  0  0  0
   45.1690   32.8710   47.7430 C   0  0  0  0  0  0  0  0  0  0  0  0
   49.3880   27.5400   48.2440 C   0  0  0  0  0  0  0  0  0  0  0  0
   49.1790   26.6040   49.0570 O   0  0  0  0  0  0  0  0  0  0  0  0
   49.8020   27.2040   46.9010 N   0  0  0  0  0  0  0  0  0  0  0  0
   49.3180   26.1960   45.9430 C   0  0  0  0  0  0  0  0  0  0  0  0
   49.1790   26.9790   44.6330 C   0  0  0  0  0  0  0  0  0  0  0  0
   50.4300   27.2680   44.0980 O   0  0  0  0  0  0  0  0  0  0  0  0
   51.4240   27.2730   45.0720 C   0  0  0  0  0  0  0  0  0  0  0  0
   50.9120   27.9560   46.2930 C   0  0  0  0  0  0  0  0  0  0  0  0
   47.2770   29.0980   47.2030 N   0  0  0  0  0  0  0  0  0  0  0  0
   48.9875   32.6525   49.5256 H   0  0  0  0  0  0  0  0  0  0  0  0
   50.8459   31.2990   50.4562 H   0  0  0  0  0  0  0  0  0  0  0  0
   50.9976   28.8601   49.8163 H   0  0  0  0  0  0  0  0  0  0  0  0
   43.6424   36.5396   44.6437 H   0  0  0  0  0  0  0  0  0  0  0  0
   44.9669   36.3670   42.5540 H   0  0  0  0  0  0  0  0  0  0  0  0
   46.7994   34.6387   42.3997 H   0  0  0  0  0  0  0  0  0  0  0  0
   47.9266   32.6858   46.0060 H   0  0  0  0  0  0  0  0  0  0  0  0
   44.1468   33.2114   47.9650 H   0  0  0  0  0  0  0  0  0  0  0  0
   50.0439   25.3765   45.8353 H   0  0  0  0  0  0  0  0  0  0  0  0
   48.3765   25.7236   46.2598 H   0  0  0  0  0  0  0  0  0  0  0  0
   48.6079   26.3767   43.9111 H   0  0  0  0  0  0  0  0  0  0  0  0
   48.6558   27.9242   44.8397 H   0  0  0  0  0  0  0  0  0  0  0  0
   51.7019   26.2377   45.3190 H   0  0  0  0  0  0  0  0  0  0  0  0
   52.3083   27.8070   44.6940 H   0  0  0  0  0  0  0  0  0  0  0  0
   51.7291   28.0426   47.0243 H   0  0  0  0  0  0  0  0  0  0  0  0
   50.5407   28.9505   46.0046 H   0  0  0  0  0  0  0  0  0  0  0  0
   47.3627   28.1010   46.9590 H   0  0  0  0  0  0  0  0  0  0  0  0
   46.5033   29.6580   46.8174 H   0  0  0  0  0  0  0  0  0  0  0  0
  1  2  2  0
  2  3  1  0
  4  3  2  0
  5  4  1  0
  6  1  1  0
  6  5  2  0
  7 12  2  0
  8  7  1  0
  9  8  2  0
  9 10  1  0
 10 11  2  0
 11 12  1  0
 11 13  1  0
 13 14  1  0
 13 17  1  0
 14 15  2  0
 15  1  1  0
 15 16  1  0
 17 16  2  0
 18  5  1  0
 18 19  2  0
 20 18  1  0
 21 20  1  0
 22 21  1  0
 23 22  1  0
 23 24  1  0
 24 25  1  0
 25 20  1  0
 26  6  1  0
  2 27  1  0
  3 28  1  0
  4 29  1  0
  7 30  1  0
  8 31  1  0
  9 32  1  0
 14 33  1  0
 17 34  1  0
 21 35  1  0
 21 36  1  0
 22 37  1  0
 22 38  1  0
 24 39  1  0
 24 40  1  0
 25 41  1  0
 25 42  1  0
 26 43  1  0
 26 44  1  0
M  ISO  8  27  14  28  14  29  14  30  14  31  14  32  14  33  14  34  14
M  ISO  8  35  13  36  13  37  13  38  13  39  13  40  13  41  13  42  13
M  END
>  <minimizedAffinity>  (1) 
-5.81313992

>  <minimizedRMSD>  (1) 
0.412441522

$$$$
