
     RDKit          3D

 39 42  0  0  0  0  0  0  0  0999 V2000
   48.1710   31.0210   48.4090 C   0  0  0  0  0  0  0  0  0  0  0  0
   49.0860   31.5830   49.2600 C   0  0  0  0  0  0  0  0  0  0  0  0
   50.1160   30.8440   49.7950 C   0  0  0  0  0  0  0  0  0  0  0  0
   50.2020   29.4970   49.4420 C   0  0  0  0  0  0  0  0  0  0  0  0
   49.2760   28.9340   48.5830 C   0  0  0  0  0  0  0  0  0  0  0  0
   48.2530   29.6830   48.0560 C   0  0  0  0  0  0  0  0  0  0  0  0
   44.4440   35.7740   44.5750 C   0  0  0  0  0  0  0  0  0  0  0  0
   45.1910   35.6820   43.3910 C   0  0  0  0  0  0  0  0  0  0  0  0
   46.2060   34.7400   43.3060 C   0  0  0  0  0  0  0  0  0  0  0  0
   46.4340   33.9410   44.3810 N   0  0  0  0  0  0  0  0  0  0  0  0
   45.6890   34.0580   45.5180 C   0  0  0  0  0  0  0  0  0  0  0  0
   44.6900   34.9600   45.6450 N   0  0  0  0  0  0  0  0  0  0  0  0
   45.9400   33.2130   46.6370 N   0  0  0  0  0  0  0  0  0  0  0  0
   47.1310   32.6090   46.7130 C   0  0  0  0  0  0  0  0  0  0  0  0
   47.1020   31.8640   47.8780 C   0  0  0  0  0  0  0  0  0  0  0  0
   45.9060   32.0300   48.4800 N   0  0  0  0  0  0  0  0  0  0  0  0
   45.1870   32.8490   47.7350 C   0  0  0  0  0  0  0  0  0  0  0  0
   47.3190   29.0900   47.1820 N   0  0  0  0  0  0  0  0  0  0  0  0
   49.4070   27.5300   48.2460 C   0  0  0  0  0  0  0  0  0  0  0  0
   49.1170   26.5960   49.0190 O   0  0  0  0  0  0  0  0  0  0  0  0
   49.9080   27.1180   46.9200 C   0  0  0  0  0  0  0  0  0  0  0  0
   50.9650   27.7690   46.3530 C   0  0  0  0  0  0  0  0  0  0  0  0
   51.4650   27.4170   45.1140 C   0  0  0  0  0  0  0  0  0  0  0  0
   50.8910   26.3980   44.4450 N   0  0  0  0  0  0  0  0  0  0  0  0
   49.8360   25.7520   45.0140 C   0  0  0  0  0  0  0  0  0  0  0  0
   49.3540   26.0960   46.2140 N   0  0  0  0  0  0  0  0  0  0  0  0
   48.9952   32.6477   49.5211 H   0  0  0  0  0  0  0  0  0  0  0  0
   50.8474   31.3001   50.4784 H   0  0  0  0  0  0  0  0  0  0  0  0
   51.0137   28.8772   49.8506 H   0  0  0  0  0  0  0  0  0  0  0  0
   43.6393   36.5208   44.6440 H   0  0  0  0  0  0  0  0  0  0  0  0
   44.9750   36.3473   42.5421 H   0  0  0  0  0  0  0  0  0  0  0  0
   46.8104   34.6425   42.3921 H   0  0  0  0  0  0  0  0  0  0  0  0
   47.9621   32.6884   45.9968 H   0  0  0  0  0  0  0  0  0  0  0  0
   44.1621   33.1843   47.9523 H   0  0  0  0  0  0  0  0  0  0  0  0
   47.4040   28.0933   46.9367 H   0  0  0  0  0  0  0  0  0  0  0  0
   46.5517   29.6535   46.7888 H   0  0  0  0  0  0  0  0  0  0  0  0
   51.4338   28.6004   46.8998 H   0  0  0  0  0  0  0  0  0  0  0  0
   52.3179   27.9599   44.6807 H   0  0  0  0  0  0  0  0  0  0  0  0
   49.3647   24.9204   44.4696 H   0  0  0  0  0  0  0  0  0  0  0  0
  1  2  2  0
  2  3  1  0
  4  3  2  0
  5  4  1  0
  6  1  1  0
  6  5  2  0
  7 12  2  0
  8  7  1  0
  9  8  2  0
  9 10  1  0
 10 11  2  0
 11 12  1  0
 11 13  1  0
 13 14  1  0
 13 17  1  0
 14 15  2  0
 15  1  1  0
 15 16  1  0
 17 16  2  0
 18  6  1  0
 19  5  1  0
 19 20  2  0
 21 19  1  0
 22 21  2  0
 23 22  1  0
 24 25  1  0
 24 23  2  0
 25 26  2  0
 26 21  1  0
  2 27  1  0
  3 28  1  0
  4 29  1  0
  7 30  1  0
  8 31  1  0
  9 32  1  0
 14 33  1  0
 17 34  1  0
 18 35  1  0
 18 36  1  0
 22 37  1  0
 23 38  1  0
 25 39  1  0
M  ISO  8  27  14  28  14  29  14  30  14  31  14  32  14  33  14  34  14
M  ISO  3  37  14  38  14  39  14
M  END
>  <minimizedAffinity>  (1) 
-5.49435949

>  <minimizedRMSD>  (1) 
0.571302652

$$$$
