
     RDKit          3D

 38 41  0  0  0  0  0  0  0  0999 V2000
   48.1660   31.0120   48.4090 C   0  0  0  0  0  0  0  0  0  0  0  0
   49.0640   31.5910   49.2860 C   0  0  0  0  0  0  0  0  0  0  0  0
   50.0950   30.8580   49.8150 C   0  0  0  0  0  0  0  0  0  0  0  0
   50.2140   29.5080   49.4460 C   0  0  0  0  0  0  0  0  0  0  0  0
   49.3130   28.9630   48.5790 C   0  0  0  0  0  0  0  0  0  0  0  0
   48.2780   29.6810   48.0410 C   0  0  0  0  0  0  0  0  0  0  0  0
   44.4480   35.7770   44.5830 C   0  0  0  0  0  0  0  0  0  0  0  0
   45.1910   35.6870   43.4000 C   0  0  0  0  0  0  0  0  0  0  0  0
   46.2040   34.7410   43.3040 C   0  0  0  0  0  0  0  0  0  0  0  0
   46.4110   33.9470   44.3960 N   0  0  0  0  0  0  0  0  0  0  0  0
   45.6760   34.0570   45.5270 C   0  0  0  0  0  0  0  0  0  0  0  0
   44.6930   34.9620   45.6410 N   0  0  0  0  0  0  0  0  0  0  0  0
   45.9300   33.2070   46.6370 N   0  0  0  0  0  0  0  0  0  0  0  0
   47.1250   32.6070   46.7170 C   0  0  0  0  0  0  0  0  0  0  0  0
   47.0910   31.8530   47.8820 C   0  0  0  0  0  0  0  0  0  0  0  0
   45.8970   32.0060   48.4740 N   0  0  0  0  0  0  0  0  0  0  0  0
   45.1750   32.8290   47.7290 C   0  0  0  0  0  0  0  0  0  0  0  0
   47.3650   29.0900   47.1490 N   0  0  0  0  0  0  0  0  0  0  0  0
   49.4740   27.5650   48.2240 C   0  0  0  0  0  0  0  0  0  0  0  0
   48.9510   26.5960   48.8130 O   0  0  0  0  0  0  0  0  0  0  0  0
   50.3190   27.2090   47.0710 C   0  0  0  0  0  0  0  0  0  0  0  0
   51.4860   26.4970   47.1000 C   0  0  0  0  0  0  0  0  0  0  0  0
   51.9420   26.3970   45.8040 C   0  0  0  0  0  0  0  0  0  0  0  0
   51.0830   27.0280   45.0150 N   0  0  0  0  0  0  0  0  0  0  0  0
   50.1120   27.5130   45.7760 N   0  0  0  0  0  0  0  0  0  0  0  0
   48.9504   32.6497   49.5621 H   0  0  0  0  0  0  0  0  0  0  0  0
   50.8120   31.3164   50.5119 H   0  0  0  0  0  0  0  0  0  0  0  0
   51.0298   28.8933   49.8542 H   0  0  0  0  0  0  0  0  0  0  0  0
   43.6461   36.5263   44.6573 H   0  0  0  0  0  0  0  0  0  0  0  0
   44.9751   36.3580   42.5555 H   0  0  0  0  0  0  0  0  0  0  0  0
   46.8103   34.6364   42.3922 H   0  0  0  0  0  0  0  0  0  0  0  0
   47.9603   32.6938   46.0066 H   0  0  0  0  0  0  0  0  0  0  0  0
   44.1470   33.1562   47.9441 H   0  0  0  0  0  0  0  0  0  0  0  0
   47.4672   28.0986   46.8891 H   0  0  0  0  0  0  0  0  0  0  0  0
   46.5942   29.6487   46.7557 H   0  0  0  0  0  0  0  0  0  0  0  0
   51.9718   26.0803   47.9946 H   0  0  0  0  0  0  0  0  0  0  0  0
   52.8591   25.8832   45.4800 H   0  0  0  0  0  0  0  0  0  0  0  0
   51.1571   27.1242   43.9922 H   0  0  0  0  0  0  0  0  0  0  0  0
  1  2  2  0
  2  3  1  0
  4  3  2  0
  5  4  1  0
  6  1  1  0
  6  5  2  0
  7 12  2  0
  8  7  1  0
  9  8  2  0
  9 10  1  0
 10 11  2  0
 11 12  1  0
 11 13  1  0
 13 14  1  0
 13 17  1  0
 14 15  2  0
 15  1  1  0
 15 16  1  0
 17 16  2  0
 18  6  1  0
 19  5  1  0
 19 20  2  0
 21 22  1  0
 21 19  1  0
 23 22  2  0
 24 25  1  0
 24 23  1  0
 25 21  2  0
  2 26  1  0
  3 27  1  0
  4 28  1  0
  7 29  1  0
  8 30  1  0
  9 31  1  0
 14 32  1  0
 17 33  1  0
 18 34  1  0
 18 35  1  0
 22 36  1  0
 23 37  1  0
 24 38  1  0
M  ISO  8  26  14  27  14  28  14  29  14  30  14  31  14  32  14  33  14
M  ISO  3  36  14  37  14  38   9
M  END
>  <minimizedAffinity>  (1) 
-5.47314453

>  <minimizedRMSD>  (1) 
0.767156899

$$$$
