
     RDKit          3D

 37 39  0  0  0  0  0  0  0  0999 V2000
   45.4430   34.9330   42.6700 C   0  0  0  0  0  0  0  0  0  0  0  0
   45.1120   34.5080   45.0980 C   0  0  0  0  0  0  0  0  0  0  0  0
   45.8150   34.1820   43.9080 C   0  0  0  0  0  0  0  0  0  0  0  0
   46.7880   33.1960   43.9960 C   0  0  0  0  0  0  0  0  0  0  0  0
   47.0180   32.6050   45.1730 N   0  0  0  0  0  0  0  0  0  0  0  0
   46.3330   32.9330   46.2980 C   0  0  0  0  0  0  0  0  0  0  0  0
   45.3760   33.8910   46.2510 N   0  0  0  0  0  0  0  0  0  0  0  0
   46.5650   34.8440   41.6710 C   0  0  0  0  0  0  0  0  0  0  0  0
   45.1910   36.3680   43.0200 C   0  0  0  0  0  0  0  0  0  0  0  0
   44.1500   34.3490   42.1210 C   0  0  0  0  0  0  0  0  0  0  0  0
   43.1820   35.3210   42.1380 O   0  0  0  0  0  0  0  0  0  0  0  0
   42.0420   35.1530   41.3570 C   0  0  0  0  0  0  0  0  0  0  0  0
   41.0080   36.0670   41.2810 C   0  0  0  0  0  0  0  0  0  0  0  0
   40.0850   35.5170   40.4020 C   0  0  0  0  0  0  0  0  0  0  0  0
   40.5460   34.3320   39.9740 N   0  0  0  0  0  0  0  0  0  0  0  0
   41.7220   34.1020   40.5410 N   0  0  0  0  0  0  0  0  0  0  0  0
   39.8010   33.5360   39.0560 C   0  0  0  0  0  0  0  0  0  0  0  0
   38.9930   34.2360   38.1620 C   0  0  0  0  0  0  0  0  0  0  0  0
   38.3820   33.3090   37.3910 N   0  0  0  0  0  0  0  0  0  0  0  0
   38.8160   32.0900   37.8150 C   0  0  0  0  0  0  0  0  0  0  0  0
   39.6840   32.2270   38.8340 N   0  0  0  0  0  0  0  0  0  0  0  0
   44.3340   35.2850   45.0685 H   0  0  0  0  0  0  0  0  0  0  0  0
   47.3643   32.9037   43.1059 H   0  0  0  0  0  0  0  0  0  0  0  0
   46.5545   32.4218   47.2465 H   0  0  0  0  0  0  0  0  0  0  0  0
   47.5247   34.7679   42.2032 H   0  0  0  0  0  0  0  0  0  0  0  0
   46.4242   33.9542   41.0398 H   0  0  0  0  0  0  0  0  0  0  0  0
   46.5662   35.7449   41.0398 H   0  0  0  0  0  0  0  0  0  0  0  0
   45.1712   36.4806   44.1140 H   0  0  0  0  0  0  0  0  0  0  0  0
   45.9930   36.9938   42.6014 H   0  0  0  0  0  0  0  0  0  0  0  0
   44.2238   36.6831   42.6014 H   0  0  0  0  0  0  0  0  0  0  0  0
   43.8330   33.5010   42.7459 H   0  0  0  0  0  0  0  0  0  0  0  0
   44.3074   33.9971   41.0907 H   0  0  0  0  0  0  0  0  0  0  0  0
   40.9322   37.0299   41.8075 H   0  0  0  0  0  0  0  0  0  0  0  0
   39.1313   35.9776   40.1049 H   0  0  0  0  0  0  0  0  0  0  0  0
   38.8756   35.3278   38.0967 H   0  0  0  0  0  0  0  0  0  0  0  0
   38.5011   31.1279   37.3847 H   0  0  0  0  0  0  0  0  0  0  0  0
   40.1633   31.4700   39.3420 H   0  0  0  0  0  0  0  0  0  0  0  0
  1  9  1  0
  1  3  1  0
  2  7  2  0
  3  4  2  0
  3  2  1  0
  4  5  1  0
  5  6  2  0
  7  6  1  0
  8  1  1  0
 10 11  1  0
 10  1  1  0
 12 11  1  0
 13 12  1  0
 14 13  2  0
 15 14  1  0
 15 16  1  0
 16 12  2  0
 17 15  1  0
 18 17  2  0
 19 20  2  0
 19 18  1  0
 20 21  1  0
 21 17  1  0
  2 22  1  0
  4 23  1  0
  6 24  1  0
  8 25  1  0
  8 26  1  0
  8 27  1  0
  9 28  1  0
  9 29  1  0
  9 30  1  0
 10 31  1  0
 10 32  1  0
 13 33  1  0
 14 34  1  0
 18 35  1  0
 20 36  1  0
 21 37  1  0
M  ISO  8  22  14  23  14  24  14  25   8  26   8  27   8  28   8  29   8
M  ISO  8  30   8  31   8  32   8  33  14  34  14  35  14  36  14  37   9
M  END
>  <minimizedAffinity>  (1) 
-5.29266834

>  <minimizedRMSD>  (1) 
1.69978666

$$$$
