
     RDKit          3D

 39 42  0  0  0  0  0  0  0  0999 V2000
   48.1580   30.9640   48.3840 C   0  0  0  0  0  0  0  0  0  0  0  0
   49.0590   31.5170   49.2570 C   0  0  0  0  0  0  0  0  0  0  0  0
   50.0890   30.7790   49.7770 C   0  0  0  0  0  0  0  0  0  0  0  0
   50.2030   29.4460   49.3980 C   0  0  0  0  0  0  0  0  0  0  0  0
   49.3020   28.8980   48.5270 C   0  0  0  0  0  0  0  0  0  0  0  0
   48.2740   29.6420   48.0100 C   0  0  0  0  0  0  0  0  0  0  0  0
   44.4620   35.7830   44.6080 C   0  0  0  0  0  0  0  0  0  0  0  0
   45.1980   35.6930   43.4280 C   0  0  0  0  0  0  0  0  0  0  0  0
   46.2000   34.7350   43.3250 C   0  0  0  0  0  0  0  0  0  0  0  0
   46.4310   33.9190   44.3810 N   0  0  0  0  0  0  0  0  0  0  0  0
   45.6910   34.0320   45.5270 C   0  0  0  0  0  0  0  0  0  0  0  0
   44.7050   34.9530   45.6610 N   0  0  0  0  0  0  0  0  0  0  0  0
   45.9220   33.1770   46.6440 N   0  0  0  0  0  0  0  0  0  0  0  0
   47.1230   32.5660   46.7130 C   0  0  0  0  0  0  0  0  0  0  0  0
   47.0940   31.8070   47.8730 C   0  0  0  0  0  0  0  0  0  0  0  0
   45.8960   31.9750   48.4680 N   0  0  0  0  0  0  0  0  0  0  0  0
   45.1780   32.8040   47.7330 C   0  0  0  0  0  0  0  0  0  0  0  0
   47.3460   29.0670   47.1090 N   0  0  0  0  0  0  0  0  0  0  0  0
   49.4280   27.4940   48.1320 C   0  0  0  0  0  0  0  0  0  0  0  0
   48.8590   26.5660   48.7610 O   0  0  0  0  0  0  0  0  0  0  0  0
   50.2560   27.1410   46.9420 C   0  0  0  0  0  0  0  0  0  0  0  0
   51.4030   26.2820   47.1290 C   0  0  0  0  0  0  0  0  0  0  0  0
   52.0570   26.1590   45.4250 S   0  0  0  0  0  0  0  0  0  0  0  0
   50.6900   27.2780   44.7450 C   0  0  0  0  0  0  0  0  0  0  0  0
   50.0710   27.5240   45.7150 N   0  0  0  0  0  0  0  0  0  0  0  0
   50.5720   27.6410   43.3750 N   0  0  0  0  0  0  0  0  0  0  0  0
   48.9527   32.5732   49.5452 H   0  0  0  0  0  0  0  0  0  0  0  0
   50.8081   31.2295   50.4770 H   0  0  0  0  0  0  0  0  0  0  0  0
   51.0208   28.8300   49.8001 H   0  0  0  0  0  0  0  0  0  0  0  0
   43.6682   36.5400   44.6911 H   0  0  0  0  0  0  0  0  0  0  0  0
   44.9886   36.3719   42.5882 H   0  0  0  0  0  0  0  0  0  0  0  0
   46.7937   34.6415   42.4037 H   0  0  0  0  0  0  0  0  0  0  0  0
   47.9535   32.6522   45.9969 H   0  0  0  0  0  0  0  0  0  0  0  0
   44.1545   33.1391   47.9570 H   0  0  0  0  0  0  0  0  0  0  0  0
   47.4394   28.0787   46.8344 H   0  0  0  0  0  0  0  0  0  0  0  0
   46.5773   29.6369   46.7279 H   0  0  0  0  0  0  0  0  0  0  0  0
   51.7831   25.8226   48.0534 H   0  0  0  0  0  0  0  0  0  0  0  0
   49.8034   28.2546   43.0692 H   0  0  0  0  0  0  0  0  0  0  0  0
   51.2552   27.2903   42.6886 H   0  0  0  0  0  0  0  0  0  0  0  0
  1  2  2  0
  2  3  1  0
  4  3  2  0
  5  4  1  0
  6  1  1  0
  6  5  2  0
  7 12  2  0
  8  7  1  0
  9  8  2  0
  9 10  1  0
 10 11  2  0
 11 12  1  0
 11 13  1  0
 13 14  1  0
 13 17  1  0
 14 15  2  0
 15  1  1  0
 15 16  1  0
 17 16  2  0
 18  6  1  0
 19  5  1  0
 19 20  2  0
 21 22  2  0
 21 19  1  0
 23 22  1  0
 24 23  1  0
 24 25  2  0
 25 21  1  0
 26 24  1  0
  2 27  1  0
  3 28  1  0
  4 29  1  0
  7 30  1  0
  8 31  1  0
  9 32  1  0
 14 33  1  0
 17 34  1  0
 18 35  1  0
 18 36  1  0
 22 37  1  0
 26 38  1  0
 26 39  1  0
M  ISO  8  27  14  28  14  29  14  30  14  31  14  32  14  33  14  34  14
M  ISO  1  37  14
M  END
>  <minimizedAffinity>  (1) 
-5.50201511

>  <minimizedRMSD>  (1) 
0.0385414772

$$$$
