
     RDKit          3D

 26 27  0  0  1  0  0  0  0  0999 V2000
   47.5680   35.2090   41.8940 C   0  0  2  0  0  0  0  0  0  0  0  0
   45.9540   34.7880   43.6820 C   0  0  0  0  0  0  0  0  0  0  0  0
   47.1300   34.4280   43.0230 C   0  0  0  0  0  0  0  0  0  0  0  0
   47.7800   33.3080   43.5320 C   0  0  0  0  0  0  0  0  0  0  0  0
   47.2510   32.6620   44.5960 N   0  0  0  0  0  0  0  0  0  0  0  0
   46.1190   33.0450   45.1970 C   0  0  0  0  0  0  0  0  0  0  0  0
   45.4780   34.1100   44.7320 N   0  0  0  0  0  0  0  0  0  0  0  0
   47.2740   34.4790   40.6300 C   0  0  0  0  0  0  0  0  0  0  0  0
   46.0480   33.8680   40.4740 C   0  0  0  0  0  0  0  0  0  0  0  0
   45.6930   33.1640   39.3220 C   0  0  0  0  0  0  0  0  0  0  0  0
   46.6360   33.0940   38.3070 C   0  0  0  0  0  0  0  0  0  0  0  0
   47.8660   33.7080   38.4650 C   0  0  0  0  0  0  0  0  0  0  0  0
   48.1980   34.4000   39.6140 C   0  0  0  0  0  0  0  0  0  0  0  0
   49.0650   35.3870   42.0160 C   0  0  0  0  0  0  0  0  0  0  0  0
   47.0499   36.1792   41.8778 H   0  0  0  0  0  0  0  0  0  0  0  0
   45.3956   35.6652   43.3233 H   0  0  0  0  0  0  0  0  0  0  0  0
   48.7144   32.9517   43.0738 H   0  0  0  0  0  0  0  0  0  0  0  0
   45.7268   32.4877   46.0604 H   0  0  0  0  0  0  0  0  0  0  0  0
   45.3174   33.9383   41.2933 H   0  0  0  0  0  0  0  0  0  0  0  0
   44.7076   32.6852   39.2233 H   0  0  0  0  0  0  0  0  0  0  0  0
   46.4064   32.5513   37.3781 H   0  0  0  0  0  0  0  0  0  0  0  0
   48.6024   33.6432   37.6505 H   0  0  0  0  0  0  0  0  0  0  0  0
   49.1832   34.8790   39.7144 H   0  0  0  0  0  0  0  0  0  0  0  0
   49.3448   35.4203   43.0793 H   0  0  0  0  0  0  0  0  0  0  0  0
   49.5755   34.5432   41.5287 H   0  0  0  0  0  0  0  0  0  0  0  0
   49.3634   36.3270   41.5287 H   0  0  0  0  0  0  0  0  0  0  0  0
  1 14  1  0
  1  3  1  0
  2  7  2  0
  3  4  2  0
  3  2  1  0
  4  5  1  0
  5  6  2  0
  7  6  1  0
  8  1  1  0
  9  8  2  0
 10  9  1  0
 11 12  1  0
 11 10  2  0
 12 13  2  0
 13  8  1  0
  1 15  1  6
  2 16  1  0
  4 17  1  0
  6 18  1  0
  9 19  1  0
 10 20  1  0
 11 21  1  0
 12 22  1  0
 13 23  1  0
 14 24  1  0
 14 25  1  0
 14 26  1  0
M  ISO  8  15   8  16  14  17  14  18  14  19  14  20  14  21  14  22  14
M  ISO  4  23  14  24   8  25   8  26   8
M  END
>  <minimizedAffinity>  (1) 
-4.38103533

>  <minimizedRMSD>  (1) 
1.66994619

$$$$
