
     RDKit          3D

 26 27  0  0  1  0  0  0  0  0999 V2000
   46.3820   35.2540   42.6460 C   0  0  2  0  0  0  0  0  0  0  0  0
   45.4990   34.5160   44.8320 C   0  0  0  0  0  0  0  0  0  0  0  0
   46.3810   34.3270   43.7630 C   0  0  0  0  0  0  0  0  0  0  0  0
   47.2280   33.2130   43.8470 C   0  0  0  0  0  0  0  0  0  0  0  0
   47.1480   32.4010   44.9340 N   0  0  0  0  0  0  0  0  0  0  0  0
   46.2890   32.6200   45.9340 C   0  0  0  0  0  0  0  0  0  0  0  0
   45.4810   33.6710   45.8660 N   0  0  0  0  0  0  0  0  0  0  0  0
   45.2680   35.0150   41.7880 N   0  0  0  0  0  0  0  0  0  0  0  0
   44.1050   35.6530   42.0220 C   0  0  0  0  0  0  0  0  0  0  0  0
   42.9720   35.4910   41.2540 C   0  0  0  0  0  0  0  0  0  0  0  0
   42.9890   34.6220   40.1570 C   0  0  0  0  0  0  0  0  0  0  0  0
   42.0210   34.4150   39.4100 O   0  0  0  0  0  0  0  0  0  0  0  0
   44.1840   34.0280   39.9920 N   0  0  0  0  0  0  0  0  0  0  0  0
   45.2900   34.1810   40.7360 C   0  0  0  0  0  0  0  0  0  0  0  0
   46.3240   33.5610   40.4620 O   0  0  0  0  0  0  0  0  0  0  0  0
   47.7350   35.2020   41.9890 C   0  0  0  0  0  0  0  0  0  0  0  0
   46.2371   36.2927   42.9778 H   0  0  0  0  0  0  0  0  0  0  0  0
   44.8100   35.3734   44.8209 H   0  0  0  0  0  0  0  0  0  0  0  0
   47.9481   32.9989   43.0435 H   0  0  0  0  0  0  0  0  0  0  0  0
   46.2521   31.9410   46.7986 H   0  0  0  0  0  0  0  0  0  0  0  0
   44.0566   36.3441   42.8764 H   0  0  0  0  0  0  0  0  0  0  0  0
   42.0547   36.0445   41.5032 H   0  0  0  0  0  0  0  0  0  0  0  0
   44.2595   33.3763   39.1979 H   0  0  0  0  0  0  0  0  0  0  0  0
   48.5170   35.1719   42.7620 H   0  0  0  0  0  0  0  0  0  0  0  0
   47.8039   34.3005   41.3624 H   0  0  0  0  0  0  0  0  0  0  0  0
   47.8729   36.0955   41.3624 H   0  0  0  0  0  0  0  0  0  0  0  0
  1  3  1  0
  2  7  2  0
  3  4  2  0
  3  2  1  0
  4  5  1  0
  5  6  2  0
  7  6  1  0
  8  9  1  0
  8  1  1  0
 10  9  2  0
 11 10  1  0
 12 11  2  0
 13 11  1  0
 13 14  1  0
 14  8  1  0
 15 14  2  0
 16  1  1  0
  1 17  1  1
  2 18  1  0
  4 19  1  0
  6 20  1  0
  9 21  1  0
 10 22  1  0
 13 23  1  0
 16 24  1  0
 16 25  1  0
 16 26  1  0
M  ISO  8  17   8  18  14  19  14  20  14  21  14  22  14  23   9  24   8
M  ISO  2  25   8  26   8
M  END
>  <minimizedAffinity>  (1) 
-4.57035542

>  <minimizedRMSD>  (1) 
1.9317987

$$$$
