
     RDKit          3D

 27 29  0  0  1  0  0  0  0  0999 V2000
   46.3010   35.2470   42.3020 C   0  0  1  0  0  0  0  0  0  0  0  0
   45.4690   34.5930   41.3190 N   0  0  0  0  0  0  0  0  0  0  0  0
   45.9290   33.6530   40.4560 C   0  0  0  0  0  0  0  0  0  0  0  0
   44.9670   33.2020   39.6480 N   0  0  0  0  0  0  0  0  0  0  0  0
   43.8530   33.8710   40.0000 C   0  0  0  0  0  0  0  0  0  0  0  0
   42.5350   33.8880   39.5790 C   0  0  0  0  0  0  0  0  0  0  0  0
   41.6010   34.6830   40.1280 N   0  0  0  0  0  0  0  0  0  0  0  0
   41.9600   35.5040   41.1360 C   0  0  0  0  0  0  0  0  0  0  0  0
   43.2340   35.5350   41.5920 N   0  0  0  0  0  0  0  0  0  0  0  0
   44.1610   34.7320   41.0340 C   0  0  0  0  0  0  0  0  0  0  0  0
   45.2070   34.9970   44.5000 C   0  0  0  0  0  0  0  0  0  0  0  0
   46.1870   34.5700   43.5920 C   0  0  0  0  0  0  0  0  0  0  0  0
   47.0170   33.4950   43.9790 C   0  0  0  0  0  0  0  0  0  0  0  0
   46.8070   32.9470   45.2050 N   0  0  0  0  0  0  0  0  0  0  0  0
   45.8590   33.3890   46.0350 C   0  0  0  0  0  0  0  0  0  0  0  0
   45.0720   34.3980   45.6880 N   0  0  0  0  0  0  0  0  0  0  0  0
   47.7430   35.1630   41.8490 C   0  0  0  0  0  0  0  0  0  0  0  0
   45.9794   36.2937   42.4066 H   0  0  0  0  0  0  0  0  0  0  0  0
   46.9716   33.3037   40.4256 H   0  0  0  0  0  0  0  0  0  0  0  0
   42.2381   33.2200   38.7571 H   0  0  0  0  0  0  0  0  0  0  0  0
   41.2050   36.1592   41.5951 H   0  0  0  0  0  0  0  0  0  0  0  0
   44.5433   35.8324   44.2324 H   0  0  0  0  0  0  0  0  0  0  0  0
   47.8050   33.1149   43.3123 H   0  0  0  0  0  0  0  0  0  0  0  0
   45.7296   32.9109   47.0172 H   0  0  0  0  0  0  0  0  0  0  0  0
   48.4021   35.1246   42.7288 H   0  0  0  0  0  0  0  0  0  0  0  0
   47.8851   34.2551   41.2445 H   0  0  0  0  0  0  0  0  0  0  0  0
   47.9896   36.0483   41.2445 H   0  0  0  0  0  0  0  0  0  0  0  0
  1 12  1  0
  2  1  1  0
  3  2  1  0
  4  5  1  0
  4  3  2  0
  5 10  2  0
  6  5  1  0
  6  7  2  0
  7  8  1  0
  8  9  2  0
 10  2  1  0
 10  9  1  0
 11 16  2  0
 12 13  2  0
 12 11  1  0
 13 14  1  0
 14 15  2  0
 16 15  1  0
 17  1  1  0
  1 18  1  1
  3 19  1  0
  6 20  1  0
  8 21  1  0
 11 22  1  0
 13 23  1  0
 15 24  1  0
 17 25  1  0
 17 26  1  0
 17 27  1  0
M  ISO  8  18   8  19  14  20  14  21  14  22  14  23  14  24  14  25   8
M  ISO  2  26   8  27   8
M  END
>  <minimizedAffinity>  (1) 
-4.79601955

>  <minimizedRMSD>  (1) 
1.40098155

$$$$
