
     RDKit          3D

 29 30  0  0  1  0  0  0  0  0999 V2000
   46.8010   35.1190   41.8460 C   0  0  2  0  0  0  0  0  0  0  0  0
   45.2040   36.0630   43.4680 C   0  0  0  0  0  0  0  0  0  0  0  0
   46.1140   35.0340   43.1170 C   0  0  0  0  0  0  0  0  0  0  0  0
   46.2770   34.0170   44.0470 C   0  0  0  0  0  0  0  0  0  0  0  0
   45.5790   34.0680   45.1970 N   0  0  0  0  0  0  0  0  0  0  0  0
   44.7140   35.0690   45.5020 C   0  0  0  0  0  0  0  0  0  0  0  0
   44.5240   36.0810   44.6240 N   0  0  0  0  0  0  0  0  0  0  0  0
   46.4420   34.1580   40.8720 N   0  0  0  0  0  0  0  0  0  0  0  0
   45.1030   33.9650   40.5270 C   0  0  0  0  0  0  0  0  0  0  0  0
   44.8910   32.9620   39.4100 C   0  0  0  0  0  0  0  0  0  0  0  0
   45.8390   33.1180   38.4000 O   0  0  0  0  0  0  0  0  0  0  0  0
   47.0750   32.7890   38.9430 C   0  0  0  0  0  0  0  0  0  0  0  0
   47.4330   33.9050   39.9020 C   0  0  0  0  0  0  0  0  0  0  0  0
   48.3220   35.0030   42.1720 C   0  0  0  0  0  0  0  0  0  0  0  0
   46.5118   36.0718   41.3785 H   0  0  0  0  0  0  0  0  0  0  0  0
   45.0479   36.8876   42.7569 H   0  0  0  0  0  0  0  0  0  0  0  0
   46.9655   33.1826   43.8477 H   0  0  0  0  0  0  0  0  0  0  0  0
   44.1703   35.0574   46.4582 H   0  0  0  0  0  0  0  0  0  0  0  0
   44.5644   33.6093   41.4177 H   0  0  0  0  0  0  0  0  0  0  0  0
   44.7266   34.9318   40.1614 H   0  0  0  0  0  0  0  0  0  0  0  0
   44.9709   31.9452   39.8220 H   0  0  0  0  0  0  0  0  0  0  0  0
   43.8936   33.1306   38.9778 H   0  0  0  0  0  0  0  0  0  0  0  0
   47.0113   31.8315   39.4807 H   0  0  0  0  0  0  0  0  0  0  0  0
   47.8379   32.6782   38.1583 H   0  0  0  0  0  0  0  0  0  0  0  0
   48.3644   33.6325   40.4199 H   0  0  0  0  0  0  0  0  0  0  0  0
   47.5386   34.8218   39.3034 H   0  0  0  0  0  0  0  0  0  0  0  0
   48.4634   34.9922   43.2628 H   0  0  0  0  0  0  0  0  0  0  0  0
   48.7193   34.0719   41.7415 H   0  0  0  0  0  0  0  0  0  0  0  0
   48.8559   35.8630   41.7415 H   0  0  0  0  0  0  0  0  0  0  0  0
  1 14  1  0
  1  3  1  0
  2  7  2  0
  3  2  1  0
  3  4  2  0
  4  5  1  0
  5  6  2  0
  7  6  1  0
  8  1  1  0
  9  8  1  0
 10  9  1  0
 11 12  1  0
 11 10  1  0
 12 13  1  0
 13  8  1  0
  1 15  1  6
  2 16  1  0
  4 17  1  0
  6 18  1  0
  9 19  1  0
  9 20  1  0
 10 21  1  0
 10 22  1  0
 12 23  1  0
 12 24  1  0
 13 25  1  0
 13 26  1  0
 14 27  1  0
 14 28  1  0
 14 29  1  0
M  ISO  8  15   8  16  14  17  14  18  14  19  13  20  13  21  13  22  13
M  ISO  7  23  13  24  13  25  13  26  13  27   8  28   8  29   8
M  END
>  <minimizedAffinity>  (1) 
-4.07162428

>  <minimizedRMSD>  (1) 
0.897335708

$$$$
