
     RDKit          3D

 30 32  0  0  1  0  0  0  0  0999 V2000
   47.3300   34.2150   40.0760 C   0  0  2  0  0  0  0  0  0  0  0  0
   48.3390   34.4140   37.8260 C   0  0  0  0  0  0  0  0  0  0  0  0
   47.7060   33.6650   38.8040 C   0  0  0  0  0  0  0  0  0  0  0  0
   47.4310   32.3050   38.4770 C   0  0  0  0  0  0  0  0  0  0  0  0
   47.7930   31.8290   37.2640 N   0  0  0  0  0  0  0  0  0  0  0  0
   48.4070   32.6130   36.3600 C   0  0  0  0  0  0  0  0  0  0  0  0
   48.6740   33.8830   36.6410 N   0  0  0  0  0  0  0  0  0  0  0  0
   48.4750   34.3080   41.0450 C   0  0  0  0  0  0  0  0  0  0  0  0
   48.7960   35.5030   41.6660 C   0  0  0  0  0  0  0  0  0  0  0  0
   49.8800   35.1990   42.4630 C   0  0  0  0  0  0  0  0  0  0  0  0
   50.1740   33.8390   42.2950 C   0  0  0  0  0  0  0  0  0  0  0  0
   49.3060   33.3620   41.4430 O   0  0  0  0  0  0  0  0  0  0  0  0
   46.1800   33.4620   40.6650 C   0  0  0  0  0  0  0  0  0  0  0  0
   44.9420   34.2360   40.7470 C   0  0  0  0  0  0  0  0  0  0  0  0
   44.6900   34.9280   41.9300 C   0  0  0  0  0  0  0  0  0  0  0  0
   43.5140   35.5660   41.7990 N   0  0  0  0  0  0  0  0  0  0  0  0
   43.0050   35.3100   40.5830 C   0  0  0  0  0  0  0  0  0  0  0  0
   43.8860   34.5030   39.9670 N   0  0  0  0  0  0  0  0  0  0  0  0
   47.0103   35.2499   39.8843 H   0  0  0  0  0  0  0  0  0  0  0  0
   48.5726   35.4701   38.0261 H   0  0  0  0  0  0  0  0  0  0  0  0
   46.9294   31.6493   39.2040 H   0  0  0  0  0  0  0  0  0  0  0  0
   48.6900   32.1992   35.3809 H   0  0  0  0  0  0  0  0  0  0  0  0
   48.2980   36.4769   41.5498 H   0  0  0  0  0  0  0  0  0  0  0  0
   50.4192   35.9010   43.1160 H   0  0  0  0  0  0  0  0  0  0  0  0
   50.9827   33.2791   42.7874 H   0  0  0  0  0  0  0  0  0  0  0  0
   45.9925   32.5745   40.0427 H   0  0  0  0  0  0  0  0  0  0  0  0
   46.4631   33.2041   41.6962 H   0  0  0  0  0  0  0  0  0  0  0  0
   45.3403   34.9486   42.8169 H   0  0  0  0  0  0  0  0  0  0  0  0
   42.0561   35.6858   40.1727 H   0  0  0  0  0  0  0  0  0  0  0  0
   43.7642   34.1351   39.0127 H   0  0  0  0  0  0  0  0  0  0  0  0
  1 13  1  0
  1  8  1  0
  2  3  2  0
  3  1  1  0
  4  3  1  0
  5  4  2  0
  6  7  2  0
  6  5  1  0
  7  2  1  0
  8 12  1  0
  8  9  2  0
  9 10  1  0
 11 10  2  0
 12 11  1  0
 13 14  1  0
 14 15  2  0
 16 15  1  0
 17 16  2  0
 18 17  1  0
 18 14  1  0
  1 19  1  6
  2 20  1  0
  4 21  1  0
  6 22  1  0
  9 23  1  0
 10 24  1  0
 11 25  1  0
 13 26  1  0
 13 27  1  0
 15 28  1  0
 17 29  1  0
 18 30  1  0
M  ISO  8  19   8  20  14  21  14  22  14  23  14  24  14  25  14  26   8
M  ISO  4  27   8  28  14  29  14  30   9
M  END
>  <minimizedAffinity>  (1) 
-4.87774515

>  <minimizedRMSD>  (1) 
5.9440794

$$$$
