
     RDKit          3D

 30 32  0  0  1  0  0  0  0  0999 V2000
   47.2520   34.1880   40.1140 C   0  0  2  0  0  0  0  0  0  0  0  0
   48.3950   34.4310   37.9370 C   0  0  0  0  0  0  0  0  0  0  0  0
   47.6110   33.6970   38.8140 C   0  0  0  0  0  0  0  0  0  0  0  0
   47.1710   32.4290   38.3650 C   0  0  0  0  0  0  0  0  0  0  0  0
   47.5240   31.9980   37.1290 N   0  0  0  0  0  0  0  0  0  0  0  0
   48.2900   32.7610   36.3250 C   0  0  0  0  0  0  0  0  0  0  0  0
   48.7180   33.9590   36.7220 N   0  0  0  0  0  0  0  0  0  0  0  0
   48.4100   34.2960   41.0620 C   0  0  0  0  0  0  0  0  0  0  0  0
   48.7430   35.5040   41.6500 C   0  0  0  0  0  0  0  0  0  0  0  0
   49.8420   35.2060   42.4340 C   0  0  0  0  0  0  0  0  0  0  0  0
   50.1270   33.8370   42.2890 C   0  0  0  0  0  0  0  0  0  0  0  0
   49.2380   33.3570   41.4600 O   0  0  0  0  0  0  0  0  0  0  0  0
   46.1220   33.4060   40.7030 C   0  0  0  0  0  0  0  0  0  0  0  0
   44.9140   34.1730   40.8540 N   0  0  0  0  0  0  0  0  0  0  0  0
   44.4490   35.0990   41.6950 C   0  0  0  0  0  0  0  0  0  0  0  0
   43.1720   35.5220   41.3990 C   0  0  0  0  0  0  0  0  0  0  0  0
   42.8260   34.8080   40.2970 N   0  0  0  0  0  0  0  0  0  0  0  0
   43.8710   34.0200   39.9980 C   0  0  0  0  0  0  0  0  0  0  0  0
   46.9057   35.2203   39.9578 H   0  0  0  0  0  0  0  0  0  0  0  0
   48.7606   35.4222   38.2434 H   0  0  0  0  0  0  0  0  0  0  0  0
   46.5469   31.7975   39.0144 H   0  0  0  0  0  0  0  0  0  0  0  0
   48.5660   32.3899   35.3269 H   0  0  0  0  0  0  0  0  0  0  0  0
   48.2471   36.4776   41.5227 H   0  0  0  0  0  0  0  0  0  0  0  0
   50.3976   35.9173   43.0628 H   0  0  0  0  0  0  0  0  0  0  0  0
   50.9393   33.2790   42.7777 H   0  0  0  0  0  0  0  0  0  0  0  0
   45.9112   32.5492   40.0462 H   0  0  0  0  0  0  0  0  0  0  0  0
   46.4348   33.0912   41.7095 H   0  0  0  0  0  0  0  0  0  0  0  0
   45.0304   35.4876   42.5441 H   0  0  0  0  0  0  0  0  0  0  0  0
   42.5685   36.2696   41.9346 H   0  0  0  0  0  0  0  0  0  0  0  0
   43.8813   33.3225   39.1475 H   0  0  0  0  0  0  0  0  0  0  0  0
  1 13  1  0
  1  8  1  0
  2  3  2  0
  3  1  1  0
  4  3  1  0
  5  4  2  0
  6  7  2  0
  6  5  1  0
  7  2  1  0
  8 12  1  0
  8  9  2  0
  9 10  1  0
 11 10  2  0
 12 11  1  0
 13 14  1  0
 14 15  1  0
 16 15  2  0
 17 16  1  0
 18 17  2  0
 18 14  1  0
  1 19  1  6
  2 20  1  0
  4 21  1  0
  6 22  1  0
  9 23  1  0
 10 24  1  0
 11 25  1  0
 13 26  1  0
 13 27  1  0
 15 28  1  0
 16 29  1  0
 18 30  1  0
M  ISO  8  19   8  20  14  21  14  22  14  23  14  24  14  25  14  26   8
M  ISO  4  27   8  28  14  29  14  30  14
M  END
>  <minimizedAffinity>  (1) 
-4.66906023

>  <minimizedRMSD>  (1) 
6.02640486

$$$$
