
     RDKit          3D

 30 32  0  0  1  0  0  0  0  0999 V2000
   46.2560   34.8690   41.7780 C   0  0  2  0  0  0  0  0  0  0  0  0
   45.0090   36.0880   43.5510 C   0  0  0  0  0  0  0  0  0  0  0  0
   45.7060   34.9360   43.1320 C   0  0  0  0  0  0  0  0  0  0  0  0
   45.8490   33.9240   44.0880 C   0  0  0  0  0  0  0  0  0  0  0  0
   45.3230   34.1100   45.3260 N   0  0  0  0  0  0  0  0  0  0  0  0
   44.6760   35.2190   45.6580 C   0  0  0  0  0  0  0  0  0  0  0  0
   44.5180   36.2000   44.7880 N   0  0  0  0  0  0  0  0  0  0  0  0
   45.2600   34.3070   40.8090 C   0  0  0  0  0  0  0  0  0  0  0  0
   45.6280   33.3130   39.9210 C   0  0  0  0  0  0  0  0  0  0  0  0
   44.4860   33.0450   39.1920 C   0  0  0  0  0  0  0  0  0  0  0  0
   43.4740   33.8820   39.6650 C   0  0  0  0  0  0  0  0  0  0  0  0
   43.9980   34.6040   40.6200 O   0  0  0  0  0  0  0  0  0  0  0  0
   47.5200   34.0770   41.8270 C   0  0  0  0  0  0  0  0  0  0  0  0
   48.7650   34.7120   41.3200 C   0  0  0  0  0  0  0  0  0  0  0  0
   49.1560   36.1090   41.6140 C   0  0  0  0  0  0  0  0  0  0  0  0
   49.7760   35.0460   42.4470 C   0  0  0  0  0  0  0  0  0  0  0  0
   46.4837   35.8807   41.4110 H   0  0  0  0  0  0  0  0  0  0  0  0
   44.8660   36.9157   42.8408 H   0  0  0  0  0  0  0  0  0  0  0  0
   46.3792   32.9925   43.8404 H   0  0  0  0  0  0  0  0  0  0  0  0
   44.2649   35.3233   46.6729 H   0  0  0  0  0  0  0  0  0  0  0  0
   46.6152   32.8390   39.8177 H   0  0  0  0  0  0  0  0  0  0  0  0
   44.3910   32.3049   38.3838 H   0  0  0  0  0  0  0  0  0  0  0  0
   42.4359   33.9255   39.3037 H   0  0  0  0  0  0  0  0  0  0  0  0
   47.6959   33.8075   42.8789 H   0  0  0  0  0  0  0  0  0  0  0  0
   47.3426   33.2363   41.1401 H   0  0  0  0  0  0  0  0  0  0  0  0
   48.7058   34.1623   40.3690 H   0  0  0  0  0  0  0  0  0  0  0  0
   49.7753   36.6613   40.8919 H   0  0  0  0  0  0  0  0  0  0  0  0
   48.5902   37.0232   41.8467 H   0  0  0  0  0  0  0  0  0  0  0  0
   49.4884   34.9299   43.5024 H   0  0  0  0  0  0  0  0  0  0  0  0
   50.8024   34.7418   42.7000 H   0  0  0  0  0  0  0  0  0  0  0  0
  1 13  1  0
  1  3  1  0
  2  7  2  0
  3  2  1  0
  3  4  2  0
  4  5  1  0
  5  6  2  0
  7  6  1  0
  8  1  1  0
  9  8  2  0
 10 11  2  0
 10  9  1  0
 11 12  1  0
 12  8  1  0
 14 15  1  0
 14 13  1  0
 14 16  1  0
 15 16  1  0
  1 17  1  6
  2 18  1  0
  4 19  1  0
  6 20  1  0
  9 21  1  0
 10 22  1  0
 11 23  1  0
 13 24  1  0
 13 25  1  0
 14 26  1  0
 15 27  1  0
 15 28  1  0
 16 29  1  0
 16 30  1  0
M  ISO  8  17   8  18  14  19  14  20  14  21  14  22  14  23  14  24   8
M  ISO  6  25   8  26  13  27  13  28  13  29  13  30  13
M  END
>  <minimizedAffinity>  (1) 
-5.02190256

>  <minimizedRMSD>  (1) 
2.03191018

$$$$
