
     RDKit          3D

 24 25  0  0  1  0  0  0  0  0999 V2000
   48.0600   34.9620   41.8250 C   0  0  2  0  0  0  0  0  0  0  0  0
   45.9580   35.5890   42.9300 C   0  0  0  0  0  0  0  0  0  0  0  0
   47.0680   34.7610   42.8440 C   0  0  0  0  0  0  0  0  0  0  0  0
   47.1770   33.7260   43.8170 C   0  0  0  0  0  0  0  0  0  0  0  0
   46.2120   33.6030   44.7580 N   0  0  0  0  0  0  0  0  0  0  0  0
   45.1570   34.4400   44.7880 C   0  0  0  0  0  0  0  0  0  0  0  0
   45.0320   35.4210   43.8850 N   0  0  0  0  0  0  0  0  0  0  0  0
   47.6750   34.3700   40.4980 C   0  0  0  0  0  0  0  0  0  0  0  0
   48.3980   34.6260   39.3320 C   0  0  0  0  0  0  0  0  0  0  0  0
   47.7490   33.9250   38.3620 C   0  0  0  0  0  0  0  0  0  0  0  0
   46.6690   33.2710   38.9350 C   0  0  0  0  0  0  0  0  0  0  0  0
   46.6660   33.5670   40.2080 O   0  0  0  0  0  0  0  0  0  0  0  0
   49.3870   34.4110   42.2760 C   0  0  0  0  0  0  0  0  0  0  0  0
   50.1160   35.2980   43.0270 O   0  0  0  0  0  0  0  0  0  0  0  0
   48.1393   36.0485   41.6726 H   0  0  0  0  0  0  0  0  0  0  0  0
   45.8350   36.4013   42.1985 H   0  0  0  0  0  0  0  0  0  0  0  0
   48.0338   33.0363   43.8036 H   0  0  0  0  0  0  0  0  0  0  0  0
   44.3879   34.3161   45.5646 H   0  0  0  0  0  0  0  0  0  0  0  0
   49.2937   35.2548   39.2213 H   0  0  0  0  0  0  0  0  0  0  0  0
   48.0340   33.8842   37.3003 H   0  0  0  0  0  0  0  0  0  0  0  0
   45.9483   32.6231   38.4146 H   0  0  0  0  0  0  0  0  0  0  0  0
   49.2039   33.5101   42.8800 H   0  0  0  0  0  0  0  0  0  0  0  0
   49.9730   34.1915   41.3713 H   0  0  0  0  0  0  0  0  0  0  0  0
   49.9669   35.1166   43.9888 H   0  0  0  0  0  0  0  0  0  0  0  0
  1 13  1  0
  1  3  1  0
  2  7  2  0
  3  2  1  0
  3  4  2  0
  4  5  1  0
  5  6  2  0
  7  6  1  0
  8  1  1  0
  9  8  2  0
 10 11  2  0
 10  9  1  0
 11 12  1  0
 12  8  1  0
 13 14  1  0
  1 15  1  6
  2 16  1  0
  4 17  1  0
  6 18  1  0
  9 19  1  0
 10 20  1  0
 11 21  1  0
 13 22  1  0
 13 23  1  0
 14 24  1  0
M  ISO  8  15   8  16  14  17  14  18  14  19  14  20  14  21  14  22   8
M  ISO  2  23   8  24   3
M  END
>  <minimizedAffinity>  (1) 
-4.63727283

>  <minimizedRMSD>  (1) 
0.373695046

$$$$
