
     RDKit          3D

 31 33  0  0  1  0  0  0  0  0999 V2000
   47.3050   34.1850   40.0880 C   0  0  2  0  0  0  0  0  0  0  0  0
   48.3940   34.4410   37.9030 C   0  0  0  0  0  0  0  0  0  0  0  0
   47.7130   33.6520   38.8180 C   0  0  0  0  0  0  0  0  0  0  0  0
   47.4330   32.3100   38.4280 C   0  0  0  0  0  0  0  0  0  0  0  0
   47.8390   31.8860   37.2110 N   0  0  0  0  0  0  0  0  0  0  0  0
   48.4970   32.6990   36.3660 C   0  0  0  0  0  0  0  0  0  0  0  0
   48.7660   33.9460   36.7060 N   0  0  0  0  0  0  0  0  0  0  0  0
   48.4340   34.3410   41.0640 C   0  0  0  0  0  0  0  0  0  0  0  0
   49.2310   33.2650   41.4320 C   0  0  0  0  0  0  0  0  0  0  0  0
   50.1330   33.8080   42.3280 C   0  0  0  0  0  0  0  0  0  0  0  0
   49.8560   35.1640   42.4700 C   0  0  0  0  0  0  0  0  0  0  0  0
   48.8360   35.4300   41.6960 O   0  0  0  0  0  0  0  0  0  0  0  0
   46.2140   33.3240   40.6860 C   0  0  0  0  0  0  0  0  0  0  0  0
   44.8860   33.9270   40.5670 C   0  0  0  0  0  0  0  0  0  0  0  0
   44.4880   34.9040   41.4890 C   0  0  0  0  0  0  0  0  0  0  0  0
   43.2650   35.5730   41.5150 C   0  0  0  0  0  0  0  0  0  0  0  0
   42.3740   35.2330   40.5400 N   0  0  0  0  0  0  0  0  0  0  0  0
   42.7420   34.2930   39.6450 C   0  0  0  0  0  0  0  0  0  0  0  0
   43.9380   33.6630   39.6470 N   0  0  0  0  0  0  0  0  0  0  0  0
   46.9230   35.1978   39.8923 H   0  0  0  0  0  0  0  0  0  0  0  0
   48.6335   35.4840   38.1575 H   0  0  0  0  0  0  0  0  0  0  0  0
   46.8955   31.6310   39.1063 H   0  0  0  0  0  0  0  0  0  0  0  0
   48.8140   32.3217   35.3826 H   0  0  0  0  0  0  0  0  0  0  0  0
   49.1609   32.2219   41.0898 H   0  0  0  0  0  0  0  0  0  0  0  0
   50.9357   33.2595   42.8427 H   0  0  0  0  0  0  0  0  0  0  0  0
   50.3934   35.8775   43.1120 H   0  0  0  0  0  0  0  0  0  0  0  0
   46.2074   32.3543   40.1668 H   0  0  0  0  0  0  0  0  0  0  0  0
   46.4316   33.2114   41.7584 H   0  0  0  0  0  0  0  0  0  0  0  0
   45.2138   35.1702   42.2715 H   0  0  0  0  0  0  0  0  0  0  0  0
   43.0323   36.3309   42.2775 H   0  0  0  0  0  0  0  0  0  0  0  0
   42.0202   34.0209   38.8608 H   0  0  0  0  0  0  0  0  0  0  0  0
  1 13  1  0
  1  8  1  0
  2  3  2  0
  3  1  1  0
  4  3  1  0
  5  4  2  0
  6  7  2  0
  6  5  1  0
  7  2  1  0
  8  9  2  0
  8 12  1  0
  9 10  1  0
 10 11  2  0
 12 11  1  0
 14 13  1  0
 14 15  2  0
 15 16  1  0
 17 16  2  0
 18 19  2  0
 18 17  1  0
 19 14  1  0
  1 20  1  6
  2 21  1  0
  4 22  1  0
  6 23  1  0
  9 24  1  0
 10 25  1  0
 11 26  1  0
 13 27  1  0
 13 28  1  0
 15 29  1  0
 16 30  1  0
 18 31  1  0
M  ISO  8  20   8  21  14  22  14  23  14  24  14  25  14  26  14  27   8
M  ISO  4  28   8  29  14  30  14  31  14
M  END
>  <minimizedAffinity>  (1) 
-4.60411739

>  <minimizedRMSD>  (1) 
6.33482742

$$$$
