
     RDKit          3D

 46 49  0  0  1  0  0  0  0  0999 V2000
   44.6580   34.6200   42.1080 C   0  0  2  0  0  0  0  0  0  0  0  0
   46.0470   33.8070   40.2440 C   0  0  0  0  0  0  0  0  0  0  0  0
   45.8920   34.5320   41.4140 C   0  0  0  0  0  0  0  0  0  0  0  0
   47.0270   35.1650   41.9100 C   0  0  0  0  0  0  0  0  0  0  0  0
   48.2230   35.0770   41.2860 N   0  0  0  0  0  0  0  0  0  0  0  0
   48.3120   34.3470   40.1380 C   0  0  0  0  0  0  0  0  0  0  0  0
   47.2400   33.7260   39.6300 N   0  0  0  0  0  0  0  0  0  0  0  0
   44.8190   34.6110   43.6170 C   0  0  0  0  0  0  0  0  0  0  0  0
   44.3720   35.6960   44.3790 C   0  0  0  0  0  0  0  0  0  0  0  0
   44.7010   35.3030   45.6740 C   0  0  0  0  0  0  0  0  0  0  0  0
   45.3070   34.0480   45.6290 C   0  0  0  0  0  0  0  0  0  0  0  0
   45.3550   33.6750   44.3740 O   0  0  0  0  0  0  0  0  0  0  0  0
   43.6590   33.6660   41.6170 C   0  0  0  0  0  0  0  0  0  0  0  0
   42.3850   34.2520   41.3710 N   0  0  0  0  0  0  0  0  0  0  0  0
   42.2360   35.5720   41.3760 N   0  0  0  0  0  0  0  0  0  0  0  0
   40.9990   35.9570   41.1430 C   0  0  0  0  0  0  0  0  0  0  0  0
   40.2600   34.8130   40.9680 C   0  0  0  0  0  0  0  0  0  0  0  0
   41.1770   33.7970   41.1220 C   0  0  0  0  0  0  0  0  0  0  0  0
   40.7620   32.3780   41.0290 C   0  0  0  0  0  0  0  0  0  0  0  0
   40.9680   31.8040   39.6560 C   0  0  0  0  0  0  0  0  0  0  0  0
   39.8120   32.0180   38.7080 C   0  0  0  0  0  0  0  0  0  0  0  0
   38.6440   31.2440   39.3350 C   0  0  0  0  0  0  0  0  0  0  0  0
   38.2940   32.0770   40.5480 C   0  0  0  0  0  0  0  0  0  0  0  0
   39.3620   32.2010   41.5420 C   0  0  0  0  0  0  0  0  0  0  0  0
   44.2505   35.6142   41.8726 H   0  0  0  0  0  0  0  0  0  0  0  0
   45.1792   33.2888   39.8100 H   0  0  0  0  0  0  0  0  0  0  0  0
   46.9492   35.7537   42.8360 H   0  0  0  0  0  0  0  0  0  0  0  0
   49.2796   34.2669   39.6210 H   0  0  0  0  0  0  0  0  0  0  0  0
   43.8851   36.6228   44.0414 H   0  0  0  0  0  0  0  0  0  0  0  0
   44.5130   35.8887   46.5859 H   0  0  0  0  0  0  0  0  0  0  0  0
   45.6778   33.4747   46.4914 H   0  0  0  0  0  0  0  0  0  0  0  0
   44.0279   33.2285   40.6776 H   0  0  0  0  0  0  0  0  0  0  0  0
   43.5202   32.9101   42.4039 H   0  0  0  0  0  0  0  0  0  0  0  0
   40.6297   36.9922   41.0974 H   0  0  0  0  0  0  0  0  0  0  0  0
   39.1843   34.7277   40.7542 H   0  0  0  0  0  0  0  0  0  0  0  0
   41.4231   31.7903   41.6828 H   0  0  0  0  0  0  0  0  0  0  0  0
   41.8622   32.2719   39.2186 H   0  0  0  0  0  0  0  0  0  0  0  0
   41.0707   30.7163   39.7837 H   0  0  0  0  0  0  0  0  0  0  0  0
   40.0498   31.6200   37.7105 H   0  0  0  0  0  0  0  0  0  0  0  0
   39.5784   33.0842   38.5712 H   0  0  0  0  0  0  0  0  0  0  0  0
   37.7935   31.1810   38.6402 H   0  0  0  0  0  0  0  0  0  0  0  0
   38.8983   30.2030   39.5834 H   0  0  0  0  0  0  0  0  0  0  0  0
   38.0295   33.0876   40.2033 H   0  0  0  0  0  0  0  0  0  0  0  0
   37.4653   31.5563   41.0501 H   0  0  0  0  0  0  0  0  0  0  0  0
   39.3482   31.2894   42.1575 H   0  0  0  0  0  0  0  0  0  0  0  0
   39.1388   33.1330   42.0820 H   0  0  0  0  0  0  0  0  0  0  0  0
  1  8  1  0
  2  3  2  0
  3  4  1  0
  3  1  1  0
  5  4  2  0
  6  5  1  0
  7  6  2  0
  7  2  1  0
  8 12  1  0
  8  9  2  0
  9 10  1  0
 11 10  2  0
 12 11  1  0
 13  1  1  0
 14 15  1  0
 14 13  1  0
 16 15  2  0
 17 18  2  0
 17 16  1  0
 18 14  1  0
 19 18  1  0
 19 24  1  0
 20 19  1  0
 21 22  1  0
 21 20  1  0
 22 23  1  0
 23 24  1  0
  1 25  1  6
  2 26  1  0
  4 27  1  0
  6 28  1  0
  9 29  1  0
 10 30  1  0
 11 31  1  0
 13 32  1  0
 13 33  1  0
 16 34  1  0
 17 35  1  0
 19 36  1  0
 20 37  1  0
 20 38  1  0
 21 39  1  0
 21 40  1  0
 22 41  1  0
 22 42  1  0
 23 43  1  0
 23 44  1  0
 24 45  1  0
 24 46  1  0
M  ISO  8  25   8  26  14  27  14  28  14  29  14  30  14  31  14  32   8
M  ISO  8  33   8  34  14  35  14  36  13  37  13  38  13  39  13  40  13
M  ISO  6  41  13  42  13  43  13  44  13  45  13  46  13
M  END
>  <minimizedAffinity>  (1) 
-5.93152237

>  <minimizedRMSD>  (1) 
6.13955069

$$$$
