
     RDKit          3D

 41 44  0  0  1  0  0  0  0  0999 V2000
   45.2290   32.8580   40.8510 C   0  0  0  0  0  0  0  0  0  0  0  0
   45.9110   33.0800   39.5970 N   0  0  0  0  0  0  0  0  0  0  0  0
   45.2270   33.0760   38.4590 N   0  0  0  0  0  0  0  0  0  0  0  0
   45.9760   33.2800   37.4000 C   0  0  0  0  0  0  0  0  0  0  0  0
   47.2550   33.4340   37.8450 C   0  0  0  0  0  0  0  0  0  0  0  0
   47.1600   33.3010   39.2120 C   0  0  0  0  0  0  0  0  0  0  0  0
   48.2120   33.3720   40.2040 N   0  0  0  0  0  0  0  0  0  0  0  0
   48.9580   32.2340   40.1710 C   0  0  0  0  0  0  0  0  0  0  0  0
   50.0350   32.0680   41.0380 C   0  0  0  0  0  0  0  0  0  0  0  0
   50.3030   33.1070   41.9240 C   0  0  0  0  0  0  0  0  0  0  0  0
   51.3910   32.9670   42.8180 N   0  0  0  0  0  0  0  0  0  0  0  0
   49.5310   34.1860   41.8980 N   0  0  0  0  0  0  0  0  0  0  0  0
   48.4900   34.3500   41.0620 C   0  0  0  0  0  0  0  0  0  0  0  0
   47.7270   35.3240   40.9790 O   0  0  0  0  0  0  0  0  0  0  0  0
   44.5470   34.0810   41.3160 C   0  0  2  0  0  0  0  0  0  0  0  0
   44.3560   35.5420   43.2920 C   0  0  0  0  0  0  0  0  0  0  0  0
   44.6950   34.3460   42.7000 C   0  0  0  0  0  0  0  0  0  0  0  0
   45.2340   33.3740   43.5470 C   0  0  0  0  0  0  0  0  0  0  0  0
   45.4110   33.6090   44.8720 N   0  0  0  0  0  0  0  0  0  0  0  0
   45.0500   34.8190   45.3800 C   0  0  0  0  0  0  0  0  0  0  0  0
   44.5380   35.7550   44.6060 N   0  0  0  0  0  0  0  0  0  0  0  0
   43.0990   34.1420   40.8510 C   0  0  0  0  0  0  0  0  0  0  0  0
   42.6850   35.1360   39.9520 C   0  0  0  0  0  0  0  0  0  0  0  0
   41.3380   34.8540   39.7870 C   0  0  0  0  0  0  0  0  0  0  0  0
   41.0120   33.7300   40.5750 C   0  0  0  0  0  0  0  0  0  0  0  0
   42.0990   33.3460   41.1870 O   0  0  0  0  0  0  0  0  0  0  0  0
   45.9641   32.5480   41.6083 H   0  0  0  0  0  0  0  0  0  0  0  0
   44.4713   32.0751   40.6995 H   0  0  0  0  0  0  0  0  0  0  0  0
   45.6364   33.3191   36.3545 H   0  0  0  0  0  0  0  0  0  0  0  0
   48.1589   33.6221   37.2470 H   0  0  0  0  0  0  0  0  0  0  0  0
   48.7080   31.4387   39.4534 H   0  0  0  0  0  0  0  0  0  0  0  0
   50.6477   31.1546   41.0231 H   0  0  0  0  0  0  0  0  0  0  0  0
   51.6107   33.7214   43.4840 H   0  0  0  0  0  0  0  0  0  0  0  0
   51.9632   32.1107   42.8027 H   0  0  0  0  0  0  0  0  0  0  0  0
   45.0772   34.9104   40.8251 H   0  0  0  0  0  0  0  0  0  0  0  0
   43.9253   36.3433   42.6736 H   0  0  0  0  0  0  0  0  0  0  0  0
   45.5211   32.3971   43.1308 H   0  0  0  0  0  0  0  0  0  0  0  0
   45.1876   35.0188   46.4529 H   0  0  0  0  0  0  0  0  0  0  0  0
   43.2806   35.9387   39.4927 H   0  0  0  0  0  0  0  0  0  0  0  0
   40.6392   35.4136   39.1478 H   0  0  0  0  0  0  0  0  0  0  0  0
   40.0202   33.2616   40.6585 H   0  0  0  0  0  0  0  0  0  0  0  0
  1 15  1  0
  2  1  1  0
  3  2  1  0
  4  5  1  0
  4  3  2  0
  5  6  2  0
  6  2  1  0
  6  7  1  0
  7 13  1  0
  8  7  1  0
  8  9  2  0
  9 10  1  0
 10 11  1  0
 12 10  2  0
 13 12  1  0
 14 13  2  0
 15 17  1  0
 16 21  2  0
 17 16  1  0
 17 18  2  0
 18 19  1  0
 19 20  2  0
 21 20  1  0
 22 26  1  0
 22 15  1  0
 23 22  2  0
 24 23  1  0
 24 25  2  0
 25 26  1  0
  1 27  1  0
  1 28  1  0
  4 29  1  0
  5 30  1  0
  8 31  1  0
  9 32  1  0
 11 33  1  0
 11 34  1  0
 15 35  1  6
 16 36  1  0
 18 37  1  0
 20 38  1  0
 23 39  1  0
 24 40  1  0
 25 41  1  0
M  ISO  8  27   8  28   8  29  14  30  14  31  14  32  14  35   8  36  14
M  ISO  5  37  14  38  14  39  14  40  14  41  14
M  END
>  <minimizedAffinity>  (1) 
-5.59815407

>  <minimizedRMSD>  (1) 
3.4345715

$$$$
