
     RDKit          3D

 41 45  0  0  1  0  0  0  0  0999 V2000
   44.0650   33.0590   39.8030 C   0  0  0  0  0  0  0  0  0  0  0  0
   45.1260   33.0600   38.8210 N   0  0  0  0  0  0  0  0  0  0  0  0
   44.8360   33.2580   37.5400 N   0  0  0  0  0  0  0  0  0  0  0  0
   45.8940   33.2240   36.7610 C   0  0  0  0  0  0  0  0  0  0  0  0
   46.9730   32.9870   37.5640 C   0  0  0  0  0  0  0  0  0  0  0  0
   46.4400   32.8940   38.8320 C   0  0  0  0  0  0  0  0  0  0  0  0
   47.1210   32.6510   40.0850 N   0  0  0  0  0  0  0  0  0  0  0  0
   47.1920   31.5240   40.8320 C   0  0  0  0  0  0  0  0  0  0  0  0
   47.9500   31.7950   41.9230 N   0  0  0  0  0  0  0  0  0  0  0  0
   48.3500   33.0960   41.8540 C   0  0  0  0  0  0  0  0  0  0  0  0
   49.1390   33.8090   42.7480 C   0  0  0  0  0  0  0  0  0  0  0  0
   49.3500   35.0870   42.3820 N   0  0  0  0  0  0  0  0  0  0  0  0
   48.8720   35.6530   41.2810 C   0  0  0  0  0  0  0  0  0  0  0  0
   48.1010   34.9220   40.4220 N   0  0  0  0  0  0  0  0  0  0  0  0
   47.8280   33.6160   40.7060 C   0  0  0  0  0  0  0  0  0  0  0  0
   43.9630   34.3560   40.4900 C   0  0  2  0  0  0  0  0  0  0  0  0
   45.0970   35.4940   42.3590 C   0  0  0  0  0  0  0  0  0  0  0  0
   44.5200   34.3800   41.7940 C   0  0  0  0  0  0  0  0  0  0  0  0
   44.5270   33.2220   42.5760 C   0  0  0  0  0  0  0  0  0  0  0  0
   45.0740   33.2120   43.8170 N   0  0  0  0  0  0  0  0  0  0  0  0
   45.6260   34.3560   44.3050 C   0  0  0  0  0  0  0  0  0  0  0  0
   45.6350   35.4690   43.5880 N   0  0  0  0  0  0  0  0  0  0  0  0
   42.5510   34.9210   40.4370 C   0  0  0  0  0  0  0  0  0  0  0  0
   41.9430   35.1960   39.2020 C   0  0  0  0  0  0  0  0  0  0  0  0
   40.7020   35.6840   39.5810 C   0  0  0  0  0  0  0  0  0  0  0  0
   40.6210   35.6820   40.9920 C   0  0  0  0  0  0  0  0  0  0  0  0
   41.7500   35.2170   41.4450 O   0  0  0  0  0  0  0  0  0  0  0  0
   44.2683   32.2754   40.5477 H   0  0  0  0  0  0  0  0  0  0  0  0
   43.1145   32.8689   39.2830 H   0  0  0  0  0  0  0  0  0  0  0  0
   45.9078   33.3605   35.6696 H   0  0  0  0  0  0  0  0  0  0  0  0
   48.0278   32.8919   37.2666 H   0  0  0  0  0  0  0  0  0  0  0  0
   46.7187   30.5596   40.5957 H   0  0  0  0  0  0  0  0  0  0  0  0
   49.5523   33.3704   43.6682 H   0  0  0  0  0  0  0  0  0  0  0  0
   49.0958   36.7072   41.0607 H   0  0  0  0  0  0  0  0  0  0  0  0
   44.6060   35.0371   39.9133 H   0  0  0  0  0  0  0  0  0  0  0  0
   45.1179   36.4329   41.7862 H   0  0  0  0  0  0  0  0  0  0  0  0
   44.0797   32.2997   42.1769 H   0  0  0  0  0  0  0  0  0  0  0  0
   46.0716   34.3561   45.3107 H   0  0  0  0  0  0  0  0  0  0  0  0
   42.3489   35.0589   38.1889 H   0  0  0  0  0  0  0  0  0  0  0  0
   39.9095   36.0183   38.8953 H   0  0  0  0  0  0  0  0  0  0  0  0
   39.7630   36.0122   41.5959 H   0  0  0  0  0  0  0  0  0  0  0  0
  1 16  1  0
  2  6  1  0
  2  1  1  0
  3  2  1  0
  4  3  2  0
  4  5  1  0
  5  6  2  0
  6  7  1  0
  7 15  1  0
  7  8  1  0
  8  9  2  0
 10  9  1  0
 10 11  2  0
 12 11  1  0
 13 12  2  0
 14 15  2  0
 14 13  1  0
 15 10  1  0
 16 18  1  0
 17 22  2  0
 18 17  1  0
 18 19  2  0
 19 20  1  0
 20 21  2  0
 22 21  1  0
 23 16  1  0
 23 27  1  0
 24 25  1  0
 24 23  2  0
 25 26  2  0
 26 27  1  0
  1 28  1  0
  1 29  1  0
  4 30  1  0
  5 31  1  0
  8 32  1  0
 11 33  1  0
 13 34  1  0
 16 35  1  6
 17 36  1  0
 19 37  1  0
 21 38  1  0
 24 39  1  0
 25 40  1  0
 26 41  1  0
M  ISO  8  28   8  29   8  30  14  31  14  32  14  33  14  34  14  35   8
M  ISO  6  36  14  37  14  38  14  39  14  40  14  41  14
M  END
>  <minimizedAffinity>  (1) 
-5.71681881

>  <minimizedRMSD>  (1) 
3.67109847

$$$$
