
     RDKit          3D

 43 46  0  0  1  0  0  0  0  0999 V2000
   46.0470   34.1510   40.6250 C   0  0  0  0  0  0  0  0  0  0  0  0
   45.0810   33.2750   41.2490 N   0  0  0  0  0  0  0  0  0  0  0  0
   45.4530   32.4910   42.2550 N   0  0  0  0  0  0  0  0  0  0  0  0
   44.4780   31.7440   42.7170 C   0  0  0  0  0  0  0  0  0  0  0  0
   43.3700   32.0380   41.9790 C   0  0  0  0  0  0  0  0  0  0  0  0
   43.7970   32.9940   41.0810 C   0  0  0  0  0  0  0  0  0  0  0  0
   43.0440   33.6710   40.0510 N   0  0  0  0  0  0  0  0  0  0  0  0
   42.1730   34.5720   40.5960 C   0  0  0  0  0  0  0  0  0  0  0  0
   41.3630   35.3220   39.7940 C   0  0  0  0  0  0  0  0  0  0  0  0
   40.3940   36.3210   40.3610 C   0  0  0  0  0  0  0  0  0  0  0  0
   41.4600   35.1340   38.4340 C   0  0  0  0  0  0  0  0  0  0  0  0
   40.7460   35.7890   37.6450 O   0  0  0  0  0  0  0  0  0  0  0  0
   42.3300   34.2380   37.9300 N   0  0  0  0  0  0  0  0  0  0  0  0
   43.1260   33.5030   38.7370 C   0  0  0  0  0  0  0  0  0  0  0  0
   43.9680   32.6420   38.3650 O   0  0  0  0  0  0  0  0  0  0  0  0
   47.2880   33.4320   40.2880 C   0  0  2  0  0  0  0  0  0  0  0  0
   49.4060   32.9030   41.4340 C   0  0  0  0  0  0  0  0  0  0  0  0
   48.4070   33.7830   41.0870 C   0  0  0  0  0  0  0  0  0  0  0  0
   48.5290   35.0800   41.5910 C   0  0  0  0  0  0  0  0  0  0  0  0
   49.5770   35.4370   42.3780 N   0  0  0  0  0  0  0  0  0  0  0  0
   50.5230   34.5070   42.6760 C   0  0  0  0  0  0  0  0  0  0  0  0
   50.4370   33.2650   42.2110 N   0  0  0  0  0  0  0  0  0  0  0  0
   47.5880   33.4720   38.7970 C   0  0  0  0  0  0  0  0  0  0  0  0
   47.3100   32.3610   37.9880 C   0  0  0  0  0  0  0  0  0  0  0  0
   47.7170   32.7830   36.7340 C   0  0  0  0  0  0  0  0  0  0  0  0
   48.2100   34.1020   36.8430 C   0  0  0  0  0  0  0  0  0  0  0  0
   48.1100   34.4610   38.0940 O   0  0  0  0  0  0  0  0  0  0  0  0
   45.6118   34.5646   39.7033 H   0  0  0  0  0  0  0  0  0  0  0  0
   46.2947   34.9538   41.3350 H   0  0  0  0  0  0  0  0  0  0  0  0
   44.5424   31.0192   43.5420 H   0  0  0  0  0  0  0  0  0  0  0  0
   42.3619   31.6091   42.0776 H   0  0  0  0  0  0  0  0  0  0  0  0
   42.1246   34.6934   41.6882 H   0  0  0  0  0  0  0  0  0  0  0  0
   40.4300   36.2839   41.4598 H   0  0  0  0  0  0  0  0  0  0  0  0
   40.6661   37.3305   40.0191 H   0  0  0  0  0  0  0  0  0  0  0  0
   39.3767   36.0798   40.0191 H   0  0  0  0  0  0  0  0  0  0  0  0
   42.3896   34.1107   36.9096 H   0  0  0  0  0  0  0  0  0  0  0  0
   47.0902   32.3815   40.5476 H   0  0  0  0  0  0  0  0  0  0  0  0
   49.3573   31.8690   41.0619 H   0  0  0  0  0  0  0  0  0  0  0  0
   47.7605   35.8278   41.3455 H   0  0  0  0  0  0  0  0  0  0  0  0
   51.3746   34.7876   43.3132 H   0  0  0  0  0  0  0  0  0  0  0  0
   46.8757   31.3929   38.2782 H   0  0  0  0  0  0  0  0  0  0  0  0
   47.6652   32.1908   35.8085 H   0  0  0  0  0  0  0  0  0  0  0  0
   48.6069   34.7163   36.0214 H   0  0  0  0  0  0  0  0  0  0  0  0
  1  2  1  0
  2  3  1  0
  3  4  2  0
  5  4  1  0
  6  2  1  0
  6  5  2  0
  7  8  1  0
  7  6  1  0
  9 10  1  0
  9  8  2  0
 11  9  1  0
 12 11  2  0
 13 11  1  0
 13 14  1  0
 14  7  1  0
 15 14  2  0
 16  1  1  0
 16 18  1  0
 17 22  2  0
 18 17  1  0
 18 19  2  0
 19 20  1  0
 20 21  2  0
 22 21  1  0
 23 16  1  0
 24 23  2  0
 25 26  2  0
 25 24  1  0
 26 27  1  0
 27 23  1  0
  1 28  1  0
  1 29  1  0
  4 30  1  0
  5 31  1  0
  8 32  1  0
 10 33  1  0
 10 34  1  0
 10 35  1  0
 13 36  1  0
 16 37  1  1
 17 38  1  0
 19 39  1  0
 21 40  1  0
 24 41  1  0
 25 42  1  0
 26 43  1  0
M  ISO  8  28   8  29   8  30  14  31  14  32  14  33   8  34   8  35   8
M  ISO  8  36   9  37   8  38  14  39  14  40  14  41  14  42  14  43  14
M  END
>  <minimizedAffinity>  (1) 
-5.682127

>  <minimizedRMSD>  (1) 
6.36186361

$$$$
