
     RDKit          3D

 43 46  0  0  1  0  0  0  0  0999 V2000
   46.4110   34.1660   42.0470 C   0  0  2  0  0  0  0  0  0  0  0  0
   48.6470   35.1760   42.2360 C   0  0  0  0  0  0  0  0  0  0  0  0
   47.8160   34.0710   42.2100 C   0  0  0  0  0  0  0  0  0  0  0  0
   48.4280   32.8270   42.3220 C   0  0  0  0  0  0  0  0  0  0  0  0
   49.7670   32.6980   42.4460 N   0  0  0  0  0  0  0  0  0  0  0  0
   50.5370   33.8280   42.4650 C   0  0  0  0  0  0  0  0  0  0  0  0
   49.9790   35.0420   42.3620 N   0  0  0  0  0  0  0  0  0  0  0  0
   45.7040   34.7040   43.2810 C   0  0  0  0  0  0  0  0  0  0  0  0
   45.0830   35.9570   43.2490 C   0  0  0  0  0  0  0  0  0  0  0  0
   44.5740   36.0730   44.5370 C   0  0  0  0  0  0  0  0  0  0  0  0
   44.9040   34.9160   45.2600 C   0  0  0  0  0  0  0  0  0  0  0  0
   45.5770   34.1350   44.4640 O   0  0  0  0  0  0  0  0  0  0  0  0
   45.8020   32.9360   41.5220 C   0  0  0  0  0  0  0  0  0  0  0  0
   45.4200   33.0480   40.1500 N   0  0  0  0  0  0  0  0  0  0  0  0
   44.1480   33.2990   39.8250 N   0  0  0  0  0  0  0  0  0  0  0  0
   43.9510   33.3610   38.5310 C   0  0  0  0  0  0  0  0  0  0  0  0
   45.1670   33.1380   37.9320 C   0  0  0  0  0  0  0  0  0  0  0  0
   46.0280   32.9530   38.9890 C   0  0  0  0  0  0  0  0  0  0  0  0
   47.4310   32.6780   38.7530 C   0  0  0  0  0  0  0  0  0  0  0  0
   47.6660   32.0950   37.3720 C   0  0  0  0  0  0  0  0  0  0  0  0
   48.0500   33.2160   36.4700 C   0  0  0  0  0  0  0  0  0  0  0  0
   48.2560   34.4460   37.2890 C   0  0  0  0  0  0  0  0  0  0  0  0
   48.1310   34.0470   38.7230 C   0  0  0  0  0  0  0  0  0  0  0  0
   46.2573   34.9230   41.2638 H   0  0  0  0  0  0  0  0  0  0  0  0
   48.2107   36.1823   42.1521 H   0  0  0  0  0  0  0  0  0  0  0  0
   47.8034   31.9216   42.3092 H   0  0  0  0  0  0  0  0  0  0  0  0
   51.6287   33.7392   42.5662 H   0  0  0  0  0  0  0  0  0  0  0  0
   45.0147   36.6706   42.4147 H   0  0  0  0  0  0  0  0  0  0  0  0
   44.0058   36.9308   44.9260 H   0  0  0  0  0  0  0  0  0  0  0  0
   44.6420   34.7070   46.3077 H   0  0  0  0  0  0  0  0  0  0  0  0
   46.5283   32.1156   41.6185 H   0  0  0  0  0  0  0  0  0  0  0  0
   44.8890   32.7442   42.1048 H   0  0  0  0  0  0  0  0  0  0  0  0
   42.9952   33.5545   38.0220 H   0  0  0  0  0  0  0  0  0  0  0  0
   45.3985   33.1131   36.8569 H   0  0  0  0  0  0  0  0  0  0  0  0
   47.7906   31.9795   39.5229 H   0  0  0  0  0  0  0  0  0  0  0  0
   48.4754   31.3511   37.4115 H   0  0  0  0  0  0  0  0  0  0  0  0
   46.7576   31.5960   37.0034 H   0  0  0  0  0  0  0  0  0  0  0  0
   47.2492   33.3906   35.7364 H   0  0  0  0  0  0  0  0  0  0  0  0
   48.9781   32.9638   35.9361 H   0  0  0  0  0  0  0  0  0  0  0  0
   49.2564   34.8621   37.0993 H   0  0  0  0  0  0  0  0  0  0  0  0
   47.5137   35.2158   37.0314 H   0  0  0  0  0  0  0  0  0  0  0  0
   49.1279   33.9710   39.1816 H   0  0  0  0  0  0  0  0  0  0  0  0
   47.5539   34.7939   39.2880 H   0  0  0  0  0  0  0  0  0  0  0  0
  1  3  1  0
  1  8  1  0
  2  7  2  0
  3  2  1  0
  3  4  2  0
  4  5  1  0
  5  6  2  0
  7  6  1  0
  8 12  1  0
  9  8  2  0
  9 10  1  0
 10 11  2  0
 12 11  1  0
 13  1  1  0
 14 13  1  0
 15 14  1  0
 16 15  2  0
 17 16  1  0
 17 18  2  0
 18 14  1  0
 19 18  1  0
 20 19  1  0
 21 22  1  0
 21 20  1  0
 22 23  1  0
 23 19  1  0
  1 24  1  6
  2 25  1  0
  4 26  1  0
  6 27  1  0
  9 28  1  0
 10 29  1  0
 11 30  1  0
 13 31  1  0
 13 32  1  0
 16 33  1  0
 17 34  1  0
 19 35  1  0
 20 36  1  0
 20 37  1  0
 21 38  1  0
 21 39  1  0
 22 40  1  0
 22 41  1  0
 23 42  1  0
 23 43  1  0
M  ISO  8  24   8  25  14  26  14  27  14  28  14  29  14  30  14  31   8
M  ISO  8  32   8  33  14  34  14  35  13  36  13  37  13  38  13  39  13
M  ISO  4  40  13  41  13  42  13  43  13
M  END
>  <minimizedAffinity>  (1) 
-5.20906639

>  <minimizedRMSD>  (1) 
1.71114206

$$$$
