
     RDKit          3D

 33 35  0  0  1  0  0  0  0  0999 V2000
   46.5840   34.2450   40.7530 C   0  0  2  0  0  0  0  0  0  0  0  0
   48.5660   35.4750   41.5320 C   0  0  0  0  0  0  0  0  0  0  0  0
   47.8490   34.3100   41.3940 C   0  0  0  0  0  0  0  0  0  0  0  0
   48.4420   33.1530   41.9000 C   0  0  0  0  0  0  0  0  0  0  0  0
   49.6590   33.1870   42.4880 N   0  0  0  0  0  0  0  0  0  0  0  0
   50.3170   34.3760   42.5920 C   0  0  0  0  0  0  0  0  0  0  0  0
   49.7720   35.5040   42.1180 N   0  0  0  0  0  0  0  0  0  0  0  0
   45.4460   34.7540   41.6220 C   0  0  0  0  0  0  0  0  0  0  0  0
   44.1650   34.9070   41.1020 C   0  0  0  0  0  0  0  0  0  0  0  0
   43.4420   35.3820   42.1830 C   0  0  0  0  0  0  0  0  0  0  0  0
   44.3010   35.4930   43.2820 C   0  0  0  0  0  0  0  0  0  0  0  0
   45.4810   35.1060   42.8910 O   0  0  0  0  0  0  0  0  0  0  0  0
   46.3010   32.9380   40.1350 C   0  0  0  0  0  0  0  0  0  0  0  0
   46.3550   32.9810   38.7130 N   0  0  0  0  0  0  0  0  0  0  0  0
   45.2510   33.0350   37.9870 N   0  0  0  0  0  0  0  0  0  0  0  0
   45.4670   33.0520   36.6960 C   0  0  0  0  0  0  0  0  0  0  0  0
   46.8070   33.0080   36.5270 C   0  0  0  0  0  0  0  0  0  0  0  0
   47.3170   32.9650   37.8190 C   0  0  0  0  0  0  0  0  0  0  0  0
   48.7580   32.8920   37.9860 C   0  0  0  0  0  0  0  0  0  0  0  0
   49.5410   32.2560   38.7030 O   0  0  0  0  0  0  0  0  0  0  0  0
   49.7100   33.5940   37.3080 O   0  0  0  0  0  0  0  0  0  0  0  0
   46.6535   34.9504   39.9119 H   0  0  0  0  0  0  0  0  0  0  0  0
   48.1369   36.4129   41.1497 H   0  0  0  0  0  0  0  0  0  0  0  0
   47.9089   32.1942   41.8190 H   0  0  0  0  0  0  0  0  0  0  0  0
   51.3068   34.4097   43.0706 H   0  0  0  0  0  0  0  0  0  0  0  0
   43.8123   34.7008   40.0807 H   0  0  0  0  0  0  0  0  0  0  0  0
   42.3705   35.6308   42.1786 H   0  0  0  0  0  0  0  0  0  0  0  0
   44.0297   35.8423   44.2892 H   0  0  0  0  0  0  0  0  0  0  0  0
   47.0440   32.2105   40.4938 H   0  0  0  0  0  0  0  0  0  0  0  0
   45.2788   32.6490   40.4207 H   0  0  0  0  0  0  0  0  0  0  0  0
   44.7058   33.0939   35.9030 H   0  0  0  0  0  0  0  0  0  0  0  0
   47.3675   33.0065   35.5805 H   0  0  0  0  0  0  0  0  0  0  0  0
   50.6683   33.4549   37.5142 H   0  0  0  0  0  0  0  0  0  0  0  0
  1  3  1  0
  1  8  1  0
  2  7  2  0
  3  2  1  0
  3  4  2  0
  4  5  1  0
  5  6  2  0
  7  6  1  0
  8 12  1  0
  9  8  2  0
  9 10  1  0
 10 11  2  0
 12 11  1  0
 13  1  1  0
 14 13  1  0
 15 14  1  0
 16 15  2  0
 17 16  1  0
 17 18  2  0
 18 19  1  0
 18 14  1  0
 19 20  2  0
 21 19  1  0
  1 22  1  6
  2 23  1  0
  4 24  1  0
  6 25  1  0
  9 26  1  0
 10 27  1  0
 11 28  1  0
 13 29  1  0
 13 30  1  0
 16 31  1  0
 17 32  1  0
 21 33  1  0
M  ISO  8  22   8  23  14  24  14  25  14  26  14  27  14  28  14  29   8
M  ISO  4  30   8  31  14  32  14  33   3
M  END
>  <minimizedAffinity>  (1) 
-4.81600237

>  <minimizedRMSD>  (1) 
0.300737888

$$$$
