
     RDKit          3D

 37 40  0  0  1  0  0  0  0  0999 V2000
   46.5640   34.1950   40.7760 C   0  0  2  0  0  0  0  0  0  0  0  0
   48.5320   35.4550   41.5500 C   0  0  0  0  0  0  0  0  0  0  0  0
   47.8360   34.2770   41.4010 C   0  0  0  0  0  0  0  0  0  0  0  0
   48.4650   33.1240   41.8710 C   0  0  0  0  0  0  0  0  0  0  0  0
   49.6930   33.1750   42.4370 N   0  0  0  0  0  0  0  0  0  0  0  0
   50.3210   34.3790   42.5510 C   0  0  0  0  0  0  0  0  0  0  0  0
   49.7470   35.5080   42.1130 N   0  0  0  0  0  0  0  0  0  0  0  0
   45.4400   34.7390   41.6410 C   0  0  0  0  0  0  0  0  0  0  0  0
   44.1670   34.9360   41.1230 C   0  0  0  0  0  0  0  0  0  0  0  0
   43.4560   35.4320   42.2030 C   0  0  0  0  0  0  0  0  0  0  0  0
   44.3160   35.5110   43.3030 C   0  0  0  0  0  0  0  0  0  0  0  0
   45.4860   35.0870   42.9170 O   0  0  0  0  0  0  0  0  0  0  0  0
   46.2710   32.8680   40.2120 C   0  0  0  0  0  0  0  0  0  0  0  0
   46.1850   32.8820   38.7850 N   0  0  0  0  0  0  0  0  0  0  0  0
   45.0060   33.0420   38.1690 N   0  0  0  0  0  0  0  0  0  0  0  0
   45.0990   33.0230   36.8640 C   0  0  0  0  0  0  0  0  0  0  0  0
   46.4080   32.8410   36.5760 C   0  0  0  0  0  0  0  0  0  0  0  0
   47.0560   32.7570   37.8040 C   0  0  0  0  0  0  0  0  0  0  0  0
   48.4930   32.5280   37.8440 C   0  0  0  0  0  0  0  0  0  0  0  0
   49.1390   31.5770   38.6120 C   0  0  0  0  0  0  0  0  0  0  0  0
   50.4850   31.5600   38.4750 C   0  0  0  0  0  0  0  0  0  0  0  0
   50.7050   32.5350   37.5890 N   0  0  0  0  0  0  0  0  0  0  0  0
   49.5510   33.0420   37.2710 N   0  0  0  0  0  0  0  0  0  0  0  0
   46.6237   34.8683   39.9082 H   0  0  0  0  0  0  0  0  0  0  0  0
   48.0733   36.3890   41.1932 H   0  0  0  0  0  0  0  0  0  0  0  0
   47.9529   32.1548   41.7797 H   0  0  0  0  0  0  0  0  0  0  0  0
   51.3188   34.4251   43.0117 H   0  0  0  0  0  0  0  0  0  0  0  0
   43.8092   34.7442   40.1006 H   0  0  0  0  0  0  0  0  0  0  0  0
   42.3933   35.7161   42.1967 H   0  0  0  0  0  0  0  0  0  0  0  0
   44.0527   35.8662   44.3102 H   0  0  0  0  0  0  0  0  0  0  0  0
   47.0714   32.1746   40.5096 H   0  0  0  0  0  0  0  0  0  0  0  0
   45.2923   32.5503   40.6008 H   0  0  0  0  0  0  0  0  0  0  0  0
   44.2753   33.1333   36.1434 H   0  0  0  0  0  0  0  0  0  0  0  0
   46.8652   32.7734   35.5778 H   0  0  0  0  0  0  0  0  0  0  0  0
   48.6015   30.8890   39.2811 H   0  0  0  0  0  0  0  0  0  0  0  0
   51.2169   30.9053   38.9706 H   0  0  0  0  0  0  0  0  0  0  0  0
   51.6216   32.8311   37.2243 H   0  0  0  0  0  0  0  0  0  0  0  0
  1  3  1  0
  1  8  1  0
  2  7  2  0
  3  2  1  0
  3  4  2  0
  4  5  1  0
  5  6  2  0
  7  6  1  0
  8 12  1  0
  9  8  2  0
  9 10  1  0
 10 11  2  0
 12 11  1  0
 13  1  1  0
 14 13  1  0
 15 14  1  0
 16 15  2  0
 17 16  1  0
 17 18  2  0
 18 19  1  0
 18 14  1  0
 19 20  1  0
 21 20  2  0
 22 21  1  0
 23 22  1  0
 23 19  2  0
  1 24  1  6
  2 25  1  0
  4 26  1  0
  6 27  1  0
  9 28  1  0
 10 29  1  0
 11 30  1  0
 13 31  1  0
 13 32  1  0
 16 33  1  0
 17 34  1  0
 20 35  1  0
 21 36  1  0
 22 37  1  0
M  ISO  8  24   8  25  14  26  14  27  14  28  14  29  14  30  14  31   8
M  ISO  6  32   8  33  14  34  14  35  14  36  14  37   9
M  END
>  <minimizedAffinity>  (1) 
-4.98071861

>  <minimizedRMSD>  (1) 
0.376554996

$$$$
