
     RDKit          3D

 39 42  0  0  1  0  0  0  0  0999 V2000
   45.0140   33.4760   42.1430 C   0  0  2  0  0  0  0  0  0  0  0  0
   46.8820   34.2690   40.7310 C   0  0  0  0  0  0  0  0  0  0  0  0
   46.3490   33.3780   41.6590 C   0  0  0  0  0  0  0  0  0  0  0  0
   47.1770   32.3180   42.1080 C   0  0  0  0  0  0  0  0  0  0  0  0
   48.4400   32.2260   41.6110 N   0  0  0  0  0  0  0  0  0  0  0  0
   48.9090   33.1160   40.7120 C   0  0  0  0  0  0  0  0  0  0  0  0
   48.1510   34.1020   40.2900 N   0  0  0  0  0  0  0  0  0  0  0  0
   44.9060   34.3050   43.4130 C   0  0  0  0  0  0  0  0  0  0  0  0
   44.5790   35.6570   43.3550 C   0  0  0  0  0  0  0  0  0  0  0  0
   44.5830   36.0450   44.6850 C   0  0  0  0  0  0  0  0  0  0  0  0
   44.9070   34.9220   45.4710 C   0  0  0  0  0  0  0  0  0  0  0  0
   45.0840   33.9310   44.6570 O   0  0  0  0  0  0  0  0  0  0  0  0
   44.3280   32.1800   42.2300 C   0  0  0  0  0  0  0  0  0  0  0  0
   42.9730   32.2410   41.7980 N   0  0  0  0  0  0  0  0  0  0  0  0
   42.5600   33.1750   40.9450 N   0  0  0  0  0  0  0  0  0  0  0  0
   41.2910   33.0900   40.6490 C   0  0  0  0  0  0  0  0  0  0  0  0
   40.7990   32.0410   41.3320 C   0  0  0  0  0  0  0  0  0  0  0  0
   41.8760   31.5330   42.0410 C   0  0  0  0  0  0  0  0  0  0  0  0
   41.7790   30.3830   42.8980 C   0  0  0  0  0  0  0  0  0  0  0  0
   40.5150   30.2460   43.5810 C   0  0  0  0  0  0  0  0  0  0  0  0
   40.2080   29.1870   44.4310 C   0  0  0  0  0  0  0  0  0  0  0  0
   41.1680   28.1850   44.6550 C   0  0  0  0  0  0  0  0  0  0  0  0
   42.4050   28.3040   44.0010 C   0  0  0  0  0  0  0  0  0  0  0  0
   42.1420   29.3820   43.4010 N   0  0  0  0  0  0  0  0  0  0  0  0
   44.4608   34.0376   41.3758 H   0  0  0  0  0  0  0  0  0  0  0  0
   46.2738   35.1060   40.3574 H   0  0  0  0  0  0  0  0  0  0  0  0
   46.8065   31.5868   42.8415 H   0  0  0  0  0  0  0  0  0  0  0  0
   49.9353   33.0149   40.3291 H   0  0  0  0  0  0  0  0  0  0  0  0
   44.3681   36.2701   42.4664 H   0  0  0  0  0  0  0  0  0  0  0  0
   44.3698   37.0561   45.0622 H   0  0  0  0  0  0  0  0  0  0  0  0
   44.9932   34.8926   46.5672 H   0  0  0  0  0  0  0  0  0  0  0  0
   44.8650   31.4555   41.6002 H   0  0  0  0  0  0  0  0  0  0  0  0
   44.3242   31.8786   43.2879 H   0  0  0  0  0  0  0  0  0  0  0  0
   40.7312   33.7504   39.9704 H   0  0  0  0  0  0  0  0  0  0  0  0
   39.7646   31.6669   41.3286 H   0  0  0  0  0  0  0  0  0  0  0  0
   39.7516   31.0216   43.4210 H   0  0  0  0  0  0  0  0  0  0  0  0
   39.2250   29.1350   44.9219 H   0  0  0  0  0  0  0  0  0  0  0  0
   40.9572   27.3353   45.3209 H   0  0  0  0  0  0  0  0  0  0  0  0
   43.3033   27.6692   44.0092 H   0  0  0  0  0  0  0  0  0  0  0  0
  1 13  1  0
  1  8  1  0
  2  3  2  0
  3  4  1  0
  3  1  1  0
  5  4  2  0
  6  5  1  0
  7  6  2  0
  7  2  1  0
  8 12  1  0
  9  8  2  0
  9 10  1  0
 10 11  2  0
 12 11  1  0
 14 18  1  0
 14 13  1  0
 15 14  1  0
 16 15  2  0
 16 17  1  0
 17 18  2  0
 18 19  1  0
 19 24  1  0
 19 20  2  0
 20 21  1  0
 21 22  2  0
 23 22  1  0
 24 23  2  0
  1 25  1  6
  2 26  1  0
  4 27  1  0
  6 28  1  0
  9 29  1  0
 10 30  1  0
 11 31  1  0
 13 32  1  0
 13 33  1  0
 16 34  1  0
 17 35  1  0
 20 36  1  0
 21 37  1  0
 22 38  1  0
 23 39  1  0
M  ISO  8  25   8  26  14  27  14  28  14  29  14  30  14  31  14  32   8
M  ISO  7  33   8  34  14  35  14  36  14  37  14  38  14  39  14
M  END
>  <minimizedAffinity>  (1) 
-4.83990622

>  <minimizedRMSD>  (1) 
6.27691412

$$$$
