
     RDKit          3D

 37 40  0  0  1  0  0  0  0  0999 V2000
   46.5360   34.2280   40.7680 C   0  0  2  0  0  0  0  0  0  0  0  0
   48.5350   35.4650   41.4940 C   0  0  0  0  0  0  0  0  0  0  0  0
   47.8000   34.2860   41.4100 C   0  0  0  0  0  0  0  0  0  0  0  0
   48.3710   33.1200   41.9590 C   0  0  0  0  0  0  0  0  0  0  0  0
   49.6000   33.1830   42.5380 N   0  0  0  0  0  0  0  0  0  0  0  0
   50.2730   34.3690   42.5890 C   0  0  0  0  0  0  0  0  0  0  0  0
   49.7470   35.4910   42.0750 N   0  0  0  0  0  0  0  0  0  0  0  0
   45.4020   34.7590   41.6280 C   0  0  0  0  0  0  0  0  0  0  0  0
   44.1250   34.9270   41.1070 C   0  0  0  0  0  0  0  0  0  0  0  0
   43.4040   35.4170   42.1790 C   0  0  0  0  0  0  0  0  0  0  0  0
   44.2610   35.5220   43.2820 C   0  0  0  0  0  0  0  0  0  0  0  0
   45.4380   35.1160   42.8950 O   0  0  0  0  0  0  0  0  0  0  0  0
   46.2530   32.9090   40.1830 C   0  0  0  0  0  0  0  0  0  0  0  0
   46.3370   32.9110   38.7550 N   0  0  0  0  0  0  0  0  0  0  0  0
   45.2460   33.1460   38.0210 N   0  0  0  0  0  0  0  0  0  0  0  0
   45.4810   33.0500   36.7430 C   0  0  0  0  0  0  0  0  0  0  0  0
   46.7950   32.7330   36.6080 C   0  0  0  0  0  0  0  0  0  0  0  0
   47.2990   32.6570   37.8910 C   0  0  0  0  0  0  0  0  0  0  0  0
   48.6890   32.2640   37.9730 C   0  0  0  0  0  0  0  0  0  0  0  0
   49.8100   32.2810   37.2090 C   0  0  0  0  0  0  0  0  0  0  0  0
   50.9350   31.7550   37.7720 C   0  0  0  0  0  0  0  0  0  0  0  0
   50.4270   31.3890   38.9840 C   0  0  0  0  0  0  0  0  0  0  0  0
   49.1870   31.6820   39.0650 O   0  0  0  0  0  0  0  0  0  0  0  0
   46.6020   34.9222   39.9173 H   0  0  0  0  0  0  0  0  0  0  0  0
   48.1163   36.3929   41.0772 H   0  0  0  0  0  0  0  0  0  0  0  0
   47.8261   32.1653   41.9194 H   0  0  0  0  0  0  0  0  0  0  0  0
   51.2660   34.4058   43.0607 H   0  0  0  0  0  0  0  0  0  0  0  0
   43.7725   34.7196   40.0859 H   0  0  0  0  0  0  0  0  0  0  0  0
   42.3361   35.6805   42.1681 H   0  0  0  0  0  0  0  0  0  0  0  0
   43.9915   35.8800   44.2866 H   0  0  0  0  0  0  0  0  0  0  0  0
   46.9810   32.1850   40.5777 H   0  0  0  0  0  0  0  0  0  0  0  0
   45.2224   32.6378   40.4557 H   0  0  0  0  0  0  0  0  0  0  0  0
   44.7550   33.1973   35.9298 H   0  0  0  0  0  0  0  0  0  0  0  0
   47.3446   32.5703   35.6691 H   0  0  0  0  0  0  0  0  0  0  0  0
   49.8113   32.6966   36.1905 H   0  0  0  0  0  0  0  0  0  0  0  0
   51.9531   31.6551   37.3677 H   0  0  0  0  0  0  0  0  0  0  0  0
   51.0076   30.9063   39.7839 H   0  0  0  0  0  0  0  0  0  0  0  0
  1  3  1  0
  1  8  1  0
  2  7  2  0
  3  2  1  0
  3  4  2  0
  4  5  1  0
  5  6  2  0
  7  6  1  0
  8 12  1  0
  9  8  2  0
  9 10  1  0
 10 11  2  0
 12 11  1  0
 13  1  1  0
 14 13  1  0
 15 14  1  0
 16 15  2  0
 17 16  1  0
 17 18  2  0
 18 19  1  0
 18 14  1  0
 19 23  1  0
 20 21  1  0
 20 19  2  0
 21 22  2  0
 22 23  1  0
  1 24  1  6
  2 25  1  0
  4 26  1  0
  6 27  1  0
  9 28  1  0
 10 29  1  0
 11 30  1  0
 13 31  1  0
 13 32  1  0
 16 33  1  0
 17 34  1  0
 20 35  1  0
 21 36  1  0
 22 37  1  0
M  ISO  8  24   8  25  14  26  14  27  14  28  14  29  14  30  14  31   8
M  ISO  6  32   8  33  14  34  14  35  14  36  14  37  14
M  END
>  <minimizedAffinity>  (1) 
-4.68105173

>  <minimizedRMSD>  (1) 
0.412566483

$$$$
