
     RDKit          3D

 43 46  0  0  1  0  0  0  0  0999 V2000
   46.5110   34.1830   40.7820 C   0  0  2  0  0  0  0  0  0  0  0  0
   48.5030   35.4460   41.4690 C   0  0  0  0  0  0  0  0  0  0  0  0
   47.7790   34.2700   41.4100 C   0  0  0  0  0  0  0  0  0  0  0  0
   48.3750   33.1440   41.9860 C   0  0  0  0  0  0  0  0  0  0  0  0
   49.5960   33.2180   42.5640 N   0  0  0  0  0  0  0  0  0  0  0  0
   50.2560   34.4090   42.5870 C   0  0  0  0  0  0  0  0  0  0  0  0
   49.7100   35.5050   42.0450 N   0  0  0  0  0  0  0  0  0  0  0  0
   45.3700   34.7390   41.6220 C   0  0  0  0  0  0  0  0  0  0  0  0
   44.1040   34.9140   41.0790 C   0  0  0  0  0  0  0  0  0  0  0  0
   43.3840   35.4300   42.1450 C   0  0  0  0  0  0  0  0  0  0  0  0
   44.2400   35.5370   43.2660 C   0  0  0  0  0  0  0  0  0  0  0  0
   45.4110   35.1090   42.8870 O   0  0  0  0  0  0  0  0  0  0  0  0
   46.2170   32.8370   40.2490 C   0  0  0  0  0  0  0  0  0  0  0  0
   46.4000   32.7540   38.8350 N   0  0  0  0  0  0  0  0  0  0  0  0
   45.4120   33.1110   38.0370 N   0  0  0  0  0  0  0  0  0  0  0  0
   45.7160   32.9560   36.7600 C   0  0  0  0  0  0  0  0  0  0  0  0
   47.0000   32.4590   36.7070 C   0  0  0  0  0  0  0  0  0  0  0  0
   47.3650   32.3590   38.0220 C   0  0  0  0  0  0  0  0  0  0  0  0
   48.6700   31.8990   38.3390 N   0  0  0  0  0  0  0  0  0  0  0  0
   49.1540   30.9520   39.3230 C   0  0  0  0  0  0  0  0  0  0  0  0
   50.6100   31.0420   39.6060 C   0  0  0  0  0  0  0  0  0  0  0  0
   51.4120   31.5340   38.6140 O   0  0  0  0  0  0  0  0  0  0  0  0
   50.8620   31.5820   37.3600 C   0  0  0  0  0  0  0  0  0  0  0  0
   49.6700   32.5130   37.4480 C   0  0  0  0  0  0  0  0  0  0  0  0
   46.5856   34.8493   39.9100 H   0  0  0  0  0  0  0  0  0  0  0  0
   48.0752   36.3594   41.0301 H   0  0  0  0  0  0  0  0  0  0  0  0
   47.8422   32.1818   41.9689 H   0  0  0  0  0  0  0  0  0  0  0  0
   51.2490   34.4714   43.0562 H   0  0  0  0  0  0  0  0  0  0  0  0
   43.7586   34.6971   40.0574 H   0  0  0  0  0  0  0  0  0  0  0  0
   42.3206   35.7105   42.1229 H   0  0  0  0  0  0  0  0  0  0  0  0
   43.9694   35.9096   44.2650 H   0  0  0  0  0  0  0  0  0  0  0  0
   46.8871   32.1119   40.7341 H   0  0  0  0  0  0  0  0  0  0  0  0
   45.1601   32.6181   40.4615 H   0  0  0  0  0  0  0  0  0  0  0  0
   45.0663   33.1813   35.9014 H   0  0  0  0  0  0  0  0  0  0  0  0
   47.5927   32.2027   35.8165 H   0  0  0  0  0  0  0  0  0  0  0  0
   48.6105   31.1267   40.2633 H   0  0  0  0  0  0  0  0  0  0  0  0
   48.9799   29.9504   38.9029 H   0  0  0  0  0  0  0  0  0  0  0  0
   50.7363   31.6907   40.4853 H   0  0  0  0  0  0  0  0  0  0  0  0
   50.9362   30.0004   39.7426 H   0  0  0  0  0  0  0  0  0  0  0  0
   50.5378   30.5780   37.0486 H   0  0  0  0  0  0  0  0  0  0  0  0
   51.5921   31.9397   36.6190 H   0  0  0  0  0  0  0  0  0  0  0  0
   49.9858   33.4844   37.8563 H   0  0  0  0  0  0  0  0  0  0  0  0
   49.2397   32.6743   36.4486 H   0  0  0  0  0  0  0  0  0  0  0  0
  1  3  1  0
  1  8  1  0
  2  7  2  0
  3  2  1  0
  3  4  2  0
  4  5  1  0
  5  6  2  0
  7  6  1  0
  8 12  1  0
  9  8  2  0
  9 10  1  0
 10 11  2  0
 12 11  1  0
 13  1  1  0
 14 13  1  0
 15 14  1  0
 16 15  2  0
 17 16  1  0
 17 18  2  0
 18 19  1  0
 18 14  1  0
 19 20  1  0
 20 21  1  0
 22 21  1  0
 23 24  1  0
 23 22  1  0
 24 19  1  0
  1 25  1  6
  2 26  1  0
  4 27  1  0
  6 28  1  0
  9 29  1  0
 10 30  1  0
 11 31  1  0
 13 32  1  0
 13 33  1  0
 16 34  1  0
 17 35  1  0
 20 36  1  0
 20 37  1  0
 21 38  1  0
 21 39  1  0
 23 40  1  0
 23 41  1  0
 24 42  1  0
 24 43  1  0
M  ISO  8  25   8  26  14  27  14  28  14  29  14  30  14  31  14  32   8
M  ISO  8  33   8  34  14  35  14  36  13  37  13  38  13  39  13  40  13
M  ISO  3  41  13  42  13  43  13
M  END
>  <minimizedAffinity>  (1) 
-4.71015024

>  <minimizedRMSD>  (1) 
1.01000178

$$$$
