
     RDKit          3D

 40 43  0  0  1  0  0  0  0  0999 V2000
   46.5630   34.1520   40.6240 C   0  0  2  0  0  0  0  0  0  0  0  0
   48.5160   35.4760   41.3210 C   0  0  0  0  0  0  0  0  0  0  0  0
   47.7890   34.3100   41.3210 C   0  0  0  0  0  0  0  0  0  0  0  0
   48.3380   33.2410   42.0310 C   0  0  0  0  0  0  0  0  0  0  0  0
   49.5220   33.3570   42.6790 N   0  0  0  0  0  0  0  0  0  0  0  0
   50.1850   34.5470   42.6340 C   0  0  0  0  0  0  0  0  0  0  0  0
   49.6880   35.5910   41.9650 N   0  0  0  0  0  0  0  0  0  0  0  0
   45.3650   34.6560   41.4140 C   0  0  0  0  0  0  0  0  0  0  0  0
   44.0920   34.6850   40.8280 C   0  0  0  0  0  0  0  0  0  0  0  0
   43.3030   35.1960   41.8460 C   0  0  0  0  0  0  0  0  0  0  0  0
   44.1120   35.4440   42.9650 C   0  0  0  0  0  0  0  0  0  0  0  0
   45.3300   35.1050   42.6530 O   0  0  0  0  0  0  0  0  0  0  0  0
   46.3500   32.7990   40.0750 C   0  0  0  0  0  0  0  0  0  0  0  0
   46.3620   32.7900   38.6450 N   0  0  0  0  0  0  0  0  0  0  0  0
   45.2810   33.1260   37.9550 N   0  0  0  0  0  0  0  0  0  0  0  0
   45.4370   33.0630   36.6560 C   0  0  0  0  0  0  0  0  0  0  0  0
   46.7260   32.6530   36.4410 C   0  0  0  0  0  0  0  0  0  0  0  0
   47.2510   32.4980   37.7140 C   0  0  0  0  0  0  0  0  0  0  0  0
   48.6320   32.0650   37.8800 C   0  0  0  0  0  0  0  0  0  0  0  0
   49.3070   31.6740   36.7120 C   0  0  0  0  0  0  0  0  0  0  0  0
   50.5960   31.2150   36.6420 C   0  0  0  0  0  0  0  0  0  0  0  0
   51.3080   31.1200   37.8090 C   0  0  0  0  0  0  0  0  0  0  0  0
   50.6880   31.4920   38.9830 C   0  0  0  0  0  0  0  0  0  0  0  0
   49.3880   31.9490   39.0040 C   0  0  0  0  0  0  0  0  0  0  0  0
   46.6568   34.8055   39.7441 H   0  0  0  0  0  0  0  0  0  0  0  0
   48.1236   36.3459   40.7739 H   0  0  0  0  0  0  0  0  0  0  0  0
   47.7975   32.2835   42.0651 H   0  0  0  0  0  0  0  0  0  0  0  0
   51.1467   34.6496   43.1580 H   0  0  0  0  0  0  0  0  0  0  0  0
   43.7941   34.3789   39.8143 H   0  0  0  0  0  0  0  0  0  0  0  0
   42.2197   35.3775   41.7865 H   0  0  0  0  0  0  0  0  0  0  0  0
   43.7780   35.8510   43.9308 H   0  0  0  0  0  0  0  0  0  0  0  0
   47.1498   32.1381   40.4405 H   0  0  0  0  0  0  0  0  0  0  0  0
   45.3609   32.4507   40.4074 H   0  0  0  0  0  0  0  0  0  0  0  0
   44.6823   33.2937   35.8897 H   0  0  0  0  0  0  0  0  0  0  0  0
   47.2296   32.4851   35.4776 H   0  0  0  0  0  0  0  0  0  0  0  0
   48.7494   31.7426   35.7663 H   0  0  0  0  0  0  0  0  0  0  0  0
   51.0455   30.9315   35.6789 H   0  0  0  0  0  0  0  0  0  0  0  0
   52.3463   30.7567   37.8091 H   0  0  0  0  0  0  0  0  0  0  0  0
   51.2460   31.4221   39.9284 H   0  0  0  0  0  0  0  0  0  0  0  0
   48.9438   32.2315   39.9699 H   0  0  0  0  0  0  0  0  0  0  0  0
  1  3  1  0
  1  8  1  0
  2  7  2  0
  3  2  1  0
  3  4  2  0
  4  5  1  0
  6  5  2  0
  7  6  1  0
  8 12  1  0
  9  8  2  0
  9 10  1  0
 10 11  2  0
 12 11  1  0
 13  1  1  0
 14 13  1  0
 15 14  1  0
 16 15  2  0
 17 16  1  0
 17 18  2  0
 18 19  1  0
 18 14  1  0
 19 24  1  0
 20 19  2  0
 21 20  1  0
 21 22  2  0
 22 23  1  0
 23 24  2  0
  1 25  1  6
  2 26  1  0
  4 27  1  0
  6 28  1  0
  9 29  1  0
 10 30  1  0
 11 31  1  0
 13 32  1  0
 13 33  1  0
 16 34  1  0
 17 35  1  0
 20 36  1  0
 21 37  1  0
 22 38  1  0
 23 39  1  0
 24 40  1  0
M  ISO  8  25   8  26  14  27  14  28  14  29  14  30  14  31  14  32   8
M  ISO  8  33   8  34  14  35  14  36  14  37  14  38  14  39  14  40  14
M  END
>  <minimizedAffinity>  (1) 
-4.69871712

>  <minimizedRMSD>  (1) 
0.455683917

$$$$
