
     RDKit          3D

 31 33  0  0  1  0  0  0  0  0999 V2000
   46.5780   34.2050   40.7450 C   0  0  2  0  0  0  0  0  0  0  0  0
   48.5550   35.4680   41.4940 C   0  0  0  0  0  0  0  0  0  0  0  0
   47.8390   34.2980   41.3860 C   0  0  0  0  0  0  0  0  0  0  0  0
   48.4360   33.1590   41.9320 C   0  0  0  0  0  0  0  0  0  0  0  0
   49.6510   33.2150   42.5300 N   0  0  0  0  0  0  0  0  0  0  0  0
   50.3010   34.4100   42.5990 C   0  0  0  0  0  0  0  0  0  0  0  0
   49.7560   35.5120   42.0890 N   0  0  0  0  0  0  0  0  0  0  0  0
   45.4350   34.7270   41.6030 C   0  0  0  0  0  0  0  0  0  0  0  0
   44.1510   34.8830   41.0590 C   0  0  0  0  0  0  0  0  0  0  0  0
   43.4260   35.3690   42.1380 C   0  0  0  0  0  0  0  0  0  0  0  0
   44.2730   35.4800   43.2430 C   0  0  0  0  0  0  0  0  0  0  0  0
   45.4620   35.0860   42.8760 O   0  0  0  0  0  0  0  0  0  0  0  0
   46.2810   32.8830   40.1740 C   0  0  0  0  0  0  0  0  0  0  0  0
   46.3480   32.8960   38.7320 N   0  0  0  0  0  0  0  0  0  0  0  0
   45.2400   33.1120   38.0310 N   0  0  0  0  0  0  0  0  0  0  0  0
   45.4500   33.0870   36.7290 C   0  0  0  0  0  0  0  0  0  0  0  0
   46.7770   32.8400   36.5420 C   0  0  0  0  0  0  0  0  0  0  0  0
   47.2860   32.7300   37.8140 C   0  0  0  0  0  0  0  0  0  0  0  0
   48.9870   32.4050   38.2700 S   0  0  0  0  0  0  0  0  0  0  0  0
   46.6657   34.8801   39.8809 H   0  0  0  0  0  0  0  0  0  0  0  0
   48.1299   36.3943   41.0802 H   0  0  0  0  0  0  0  0  0  0  0  0
   47.9083   32.1955   41.8753 H   0  0  0  0  0  0  0  0  0  0  0  0
   51.2878   34.4649   43.0818 H   0  0  0  0  0  0  0  0  0  0  0  0
   43.8062   34.6731   40.0358 H   0  0  0  0  0  0  0  0  0  0  0  0
   42.3564   35.6255   42.1250 H   0  0  0  0  0  0  0  0  0  0  0  0
   43.9887   35.8360   44.2442 H   0  0  0  0  0  0  0  0  0  0  0  0
   47.0122   32.1565   40.5581 H   0  0  0  0  0  0  0  0  0  0  0  0
   45.2577   32.6054   40.4669 H   0  0  0  0  0  0  0  0  0  0  0  0
   44.6959   33.2372   35.9423 H   0  0  0  0  0  0  0  0  0  0  0  0
   47.3183   32.7492   35.5887 H   0  0  0  0  0  0  0  0  0  0  0  0
   49.0977   32.3838   39.6354 H   0  0  0  0  0  0  0  0  0  0  0  0
  1  3  1  0
  1  8  1  0
  2  7  2  0
  3  2  1  0
  3  4  2  0
  4  5  1  0
  5  6  2  0
  7  6  1  0
  8 12  1  0
  9  8  2  0
  9 10  1  0
 10 11  2  0
 12 11  1  0
 13  1  1  0
 14 13  1  0
 15 14  1  0
 16 15  2  0
 17 16  1  0
 17 18  2  0
 18 19  1  0
 18 14  1  0
  1 20  1  6
  2 21  1  0
  4 22  1  0
  6 23  1  0
  9 24  1  0
 10 25  1  0
 11 26  1  0
 13 27  1  0
 13 28  1  0
 16 29  1  0
 17 30  1  0
 19 31  1  0
M  ISO  8  20   8  21  14  22  14  23  14  24  14  25  14  26  14  27   8
M  ISO  4  28   8  29  14  30  14  31  11
M  END
>  <minimizedAffinity>  (1) 
-4.32621384

>  <minimizedRMSD>  (1) 
0.111251906

$$$$
