
     RDKit          3D

 36 39  0  0  1  0  0  0  0  0999 V2000
   46.5130   34.1360   40.7400 C   0  0  2  0  0  0  0  0  0  0  0  0
   48.4850   35.3550   41.5710 C   0  0  0  0  0  0  0  0  0  0  0  0
   47.7960   34.1880   41.3410 C   0  0  0  0  0  0  0  0  0  0  0  0
   48.4460   33.0080   41.7110 C   0  0  0  0  0  0  0  0  0  0  0  0
   49.6850   33.0260   42.2670 N   0  0  0  0  0  0  0  0  0  0  0  0
   50.3000   34.2250   42.4630 C   0  0  0  0  0  0  0  0  0  0  0  0
   49.7080   35.3620   42.1220 N   0  0  0  0  0  0  0  0  0  0  0  0
   45.4200   34.7110   41.6290 C   0  0  0  0  0  0  0  0  0  0  0  0
   44.1360   34.9470   41.1110 C   0  0  0  0  0  0  0  0  0  0  0  0
   43.4570   35.4590   42.2040 C   0  0  0  0  0  0  0  0  0  0  0  0
   44.3380   35.5090   43.3000 C   0  0  0  0  0  0  0  0  0  0  0  0
   45.4930   35.0520   42.9050 O   0  0  0  0  0  0  0  0  0  0  0  0
   46.1430   32.8140   40.2000 C   0  0  0  0  0  0  0  0  0  0  0  0
   46.2110   32.8010   38.7580 N   0  0  0  0  0  0  0  0  0  0  0  0
   45.1890   33.2470   38.0360 N   0  0  0  0  0  0  0  0  0  0  0  0
   45.3840   33.1630   36.7430 C   0  0  0  0  0  0  0  0  0  0  0  0
   46.6230   32.6240   36.5680 C   0  0  0  0  0  0  0  0  0  0  0  0
   47.0950   32.4160   37.8390 C   0  0  0  0  0  0  0  0  0  0  0  0
   48.3620   31.8630   38.2630 N   0  0  0  0  0  0  0  0  0  0  0  0
   48.5310   30.5970   38.6910 C   0  0  0  0  0  0  0  0  0  0  0  0
   49.8390   30.4000   39.0130 N   0  0  0  0  0  0  0  0  0  0  0  0
   50.4690   31.5820   38.7690 C   0  0  0  0  0  0  0  0  0  0  0  0
   49.5370   32.4630   38.3090 N   0  0  0  0  0  0  0  0  0  0  0  0
   46.6006   34.7940   39.8628 H   0  0  0  0  0  0  0  0  0  0  0  0
   48.0192   36.3125   41.2948 H   0  0  0  0  0  0  0  0  0  0  0  0
   47.9433   32.0432   41.5484 H   0  0  0  0  0  0  0  0  0  0  0  0
   51.3041   34.2511   42.9114 H   0  0  0  0  0  0  0  0  0  0  0  0
   43.7629   34.7695   40.0916 H   0  0  0  0  0  0  0  0  0  0  0  0
   42.4032   35.7744   42.2138 H   0  0  0  0  0  0  0  0  0  0  0  0
   44.0952   35.8696   44.3104 H   0  0  0  0  0  0  0  0  0  0  0  0
   46.8347   32.0573   40.5986 H   0  0  0  0  0  0  0  0  0  0  0  0
   45.1088   32.5917   40.5018 H   0  0  0  0  0  0  0  0  0  0  0  0
   44.6832   33.4685   35.9521 H   0  0  0  0  0  0  0  0  0  0  0  0
   47.1320   32.4043   35.6179 H   0  0  0  0  0  0  0  0  0  0  0  0
   47.7362   29.8405   38.7683 H   0  0  0  0  0  0  0  0  0  0  0  0
   51.5392   31.7888   38.9168 H   0  0  0  0  0  0  0  0  0  0  0  0
  1  3  1  0
  1  8  1  0
  2  7  2  0
  3  2  1  0
  3  4  2  0
  4  5  1  0
  5  6  2  0
  7  6  1  0
  8 12  1  0
  9  8  2  0
  9 10  1  0
 10 11  2  0
 12 11  1  0
 13  1  1  0
 14 13  1  0
 15 14  1  0
 16 15  2  0
 17 16  1  0
 17 18  2  0
 18 19  1  0
 18 14  1  0
 19 23  1  0
 19 20  1  0
 20 21  2  0
 22 21  1  0
 23 22  2  0
  1 24  1  6
  2 25  1  0
  4 26  1  0
  6 27  1  0
  9 28  1  0
 10 29  1  0
 11 30  1  0
 13 31  1  0
 13 32  1  0
 16 33  1  0
 17 34  1  0
 20 35  1  0
 22 36  1  0
M  ISO  8  24   8  25  14  26  14  27  14  28  14  29  14  30  14  31   8
M  ISO  5  32   8  33  14  34  14  35  14  36  14
M  END
>  <minimizedAffinity>  (1) 
-4.43286753

>  <minimizedRMSD>  (1) 
0.594449401

$$$$
