
     RDKit          3D

 32 34  0  0  1  0  0  0  0  0999 V2000
   46.5830   34.2250   40.7520 C   0  0  2  0  0  0  0  0  0  0  0  0
   48.5390   35.4730   41.5730 C   0  0  0  0  0  0  0  0  0  0  0  0
   47.8530   34.2970   41.3820 C   0  0  0  0  0  0  0  0  0  0  0  0
   48.4880   33.1350   41.8230 C   0  0  0  0  0  0  0  0  0  0  0  0
   49.7130   33.1790   42.4020 N   0  0  0  0  0  0  0  0  0  0  0  0
   50.3310   34.3820   42.5560 C   0  0  0  0  0  0  0  0  0  0  0  0
   49.7510   35.5070   42.1480 N   0  0  0  0  0  0  0  0  0  0  0  0
   45.4510   34.7440   41.6250 C   0  0  0  0  0  0  0  0  0  0  0  0
   44.1670   34.9140   41.0980 C   0  0  0  0  0  0  0  0  0  0  0  0
   43.4500   35.3920   42.1830 C   0  0  0  0  0  0  0  0  0  0  0  0
   44.3210   35.4880   43.2920 C   0  0  0  0  0  0  0  0  0  0  0  0
   45.4990   35.0870   42.8970 O   0  0  0  0  0  0  0  0  0  0  0  0
   46.2750   32.9120   40.1560 C   0  0  0  0  0  0  0  0  0  0  0  0
   46.3320   32.9440   38.7270 N   0  0  0  0  0  0  0  0  0  0  0  0
   45.2330   33.0650   38.0000 N   0  0  0  0  0  0  0  0  0  0  0  0
   45.4740   33.0670   36.6980 C   0  0  0  0  0  0  0  0  0  0  0  0
   46.8150   32.9410   36.5270 C   0  0  0  0  0  0  0  0  0  0  0  0
   47.2780   32.8700   37.8090 C   0  0  0  0  0  0  0  0  0  0  0  0
   48.6860   32.7210   38.0750 C   0  0  0  0  0  0  0  0  0  0  0  0
   49.8110   32.2600   37.9310 O   0  0  0  0  0  0  0  0  0  0  0  0
   46.6642   34.9167   39.9006 H   0  0  0  0  0  0  0  0  0  0  0  0
   48.0795   36.4167   41.2438 H   0  0  0  0  0  0  0  0  0  0  0  0
   47.9848   32.1648   41.6984 H   0  0  0  0  0  0  0  0  0  0  0  0
   51.3251   34.4242   43.0250 H   0  0  0  0  0  0  0  0  0  0  0  0
   43.8136   34.7170   40.0751 H   0  0  0  0  0  0  0  0  0  0  0  0
   42.3814   35.6531   42.1815 H   0  0  0  0  0  0  0  0  0  0  0  0
   44.0555   35.8361   44.3011 H   0  0  0  0  0  0  0  0  0  0  0  0
   47.0045   32.1754   40.5238 H   0  0  0  0  0  0  0  0  0  0  0  0
   45.2504   32.6387   40.4485 H   0  0  0  0  0  0  0  0  0  0  0  0
   44.7231   33.1549   35.8990 H   0  0  0  0  0  0  0  0  0  0  0  0
   47.3867   32.9050   35.5879 H   0  0  0  0  0  0  0  0  0  0  0  0
   48.8422   33.4510   38.8829 H   0  0  0  0  0  0  0  0  0  0  0  0
  1  3  1  0
  1  8  1  0
  2  7  2  0
  3  2  1  0
  3  4  2  0
  4  5  1  0
  5  6  2  0
  7  6  1  0
  8 12  1  0
  9  8  2  0
  9 10  1  0
 10 11  2  0
 12 11  1  0
 13  1  1  0
 14 13  1  0
 15 14  1  0
 16 15  2  0
 17 16  1  0
 17 18  2  0
 18 19  1  0
 18 14  1  0
 20 19  2  0
  1 21  1  6
  2 22  1  0
  4 23  1  0
  6 24  1  0
  9 25  1  0
 10 26  1  0
 11 27  1  0
 13 28  1  0
 13 29  1  0
 16 30  1  0
 17 31  1  0
 19 32  1  0
M  ISO  8  21   8  22  14  23  14  24  14  25  14  26  14  27  14  28   8
M  ISO  4  29   8  30  14  31  14  32   6
M  END
>  <minimizedAffinity>  (1) 
-4.31015444

>  <minimizedRMSD>  (1) 
0.111834094

$$$$
