
     RDKit          3D

 43 47  0  0  1  0  0  0  0  0999 V2000
   46.2660   32.7520   40.0890 C   0  0  0  0  0  0  0  0  0  0  0  0
   46.3650   32.7360   38.6330 N   0  0  0  0  0  0  0  0  0  0  0  0
   45.3560   33.1610   37.8850 N   0  0  0  0  0  0  0  0  0  0  0  0
   45.5810   33.0930   36.6040 C   0  0  0  0  0  0  0  0  0  0  0  0
   46.8330   32.5860   36.4760 C   0  0  0  0  0  0  0  0  0  0  0  0
   47.2800   32.3800   37.7490 C   0  0  0  0  0  0  0  0  0  0  0  0
   47.5640   32.3120   35.2780 N   0  0  0  0  0  0  0  0  0  0  0  0
   48.7110   32.8060   34.7760 C   0  0  0  0  0  0  0  0  0  0  0  0
   48.9610   32.1900   33.5870 N   0  0  0  0  0  0  0  0  0  0  0  0
   47.9800   31.3190   33.3450 C   0  0  0  0  0  0  0  0  0  0  0  0
   47.6670   30.4190   32.3400 C   0  0  0  0  0  0  0  0  0  0  0  0
   46.5590   29.6310   32.3580 N   0  0  0  0  0  0  0  0  0  0  0  0
   45.7190   29.7210   33.4010 C   0  0  0  0  0  0  0  0  0  0  0  0
   46.0120   30.5800   34.3670 N   0  0  0  0  0  0  0  0  0  0  0  0
   47.0930   31.3810   34.3960 C   0  0  0  0  0  0  0  0  0  0  0  0
   48.5450   31.8540   38.1940 N   0  0  0  0  0  0  0  0  0  0  0  0
   46.5780   34.0740   40.6260 C   0  0  2  0  0  0  0  0  0  0  0  0
   48.4720   35.3860   41.4950 C   0  0  0  0  0  0  0  0  0  0  0  0
   47.8180   34.2070   41.2760 C   0  0  0  0  0  0  0  0  0  0  0  0
   48.4800   33.0670   41.7210 C   0  0  0  0  0  0  0  0  0  0  0  0
   49.6900   33.1120   42.3280 N   0  0  0  0  0  0  0  0  0  0  0  0
   50.2700   34.3450   42.5040 C   0  0  0  0  0  0  0  0  0  0  0  0
   49.6670   35.4500   42.0940 N   0  0  0  0  0  0  0  0  0  0  0  0
   45.4160   34.6450   41.4590 C   0  0  0  0  0  0  0  0  0  0  0  0
   44.1390   34.7890   40.8760 C   0  0  0  0  0  0  0  0  0  0  0  0
   43.3990   35.3230   41.9270 C   0  0  0  0  0  0  0  0  0  0  0  0
   44.2380   35.4630   43.0390 C   0  0  0  0  0  0  0  0  0  0  0  0
   45.4390   35.0460   42.7190 O   0  0  0  0  0  0  0  0  0  0  0  0
   46.9739   32.0198   40.5047 H   0  0  0  0  0  0  0  0  0  0  0  0
   45.2336   32.4969   40.3704 H   0  0  0  0  0  0  0  0  0  0  0  0
   44.8974   33.3860   35.7935 H   0  0  0  0  0  0  0  0  0  0  0  0
   49.3398   33.5764   35.2461 H   0  0  0  0  0  0  0  0  0  0  0  0
   48.3507   30.3373   31.4821 H   0  0  0  0  0  0  0  0  0  0  0  0
   44.8129   29.0994   33.4527 H   0  0  0  0  0  0  0  0  0  0  0  0
   48.7368   31.7573   39.2013 H   0  0  0  0  0  0  0  0  0  0  0  0
   49.2577   31.5746   37.5049 H   0  0  0  0  0  0  0  0  0  0  0  0
   46.7006   34.6958   39.7270 H   0  0  0  0  0  0  0  0  0  0  0  0
   47.9967   36.3217   41.1653 H   0  0  0  0  0  0  0  0  0  0  0  0
   48.0005   32.0880   41.5737 H   0  0  0  0  0  0  0  0  0  0  0  0
   51.2523   34.4153   42.9940 H   0  0  0  0  0  0  0  0  0  0  0  0
   43.8127   34.5428   39.8548 H   0  0  0  0  0  0  0  0  0  0  0  0
   42.3327   35.5905   41.8901 H   0  0  0  0  0  0  0  0  0  0  0  0
   43.9384   35.8583   44.0208 H   0  0  0  0  0  0  0  0  0  0  0  0
  1 17  1  0
  2  1  1  0
  3  2  1  0
  4  3  2  0
  5  4  1  0
  5  6  2  0
  6 16  1  0
  6  2  1  0
  7  5  1  0
  8  7  1  0
  9  8  2  0
 10  9  1  0
 10 15  2  0
 11 12  2  0
 11 10  1  0
 12 13  1  0
 13 14  2  0
 14 15  1  0
 15  7  1  0
 17 19  1  0
 17 24  1  0
 18 23  2  0
 19 18  1  0
 19 20  2  0
 20 21  1  0
 21 22  2  0
 23 22  1  0
 24 28  1  0
 25 24  2  0
 25 26  1  0
 26 27  2  0
 28 27  1  0
  1 29  1  0
  1 30  1  0
  4 31  1  0
  8 32  1  0
 11 33  1  0
 13 34  1  0
 16 35  1  0
 16 36  1  0
 17 37  1  6
 18 38  1  0
 20 39  1  0
 22 40  1  0
 25 41  1  0
 26 42  1  0
 27 43  1  0
M  ISO  8  29   8  30   8  31  14  32  14  33  14  34  14  37   8  38  14
M  ISO  5  39  14  40  14  41  14  42  14  43  14
M  END
>  <minimizedAffinity>  (1) 
-5.69090271

>  <minimizedRMSD>  (1) 
1.20490718

$$$$
