
     RDKit          3D

 39 42  0  0  1  0  0  0  0  0999 V2000
   46.5850   34.1520   40.7450 C   0  0  2  0  0  0  0  0  0  0  0  0
   48.5190   35.4450   41.5400 C   0  0  0  0  0  0  0  0  0  0  0  0
   47.8390   34.2760   41.3670 C   0  0  0  0  0  0  0  0  0  0  0  0
   48.4890   33.1270   41.8300 C   0  0  0  0  0  0  0  0  0  0  0  0
   49.7120   33.1670   42.4100 N   0  0  0  0  0  0  0  0  0  0  0  0
   50.3170   34.3930   42.5390 C   0  0  0  0  0  0  0  0  0  0  0  0
   49.7310   35.4940   42.1140 N   0  0  0  0  0  0  0  0  0  0  0  0
   45.4450   34.7110   41.6150 C   0  0  0  0  0  0  0  0  0  0  0  0
   44.1660   34.8910   41.0660 C   0  0  0  0  0  0  0  0  0  0  0  0
   43.4440   35.3970   42.1320 C   0  0  0  0  0  0  0  0  0  0  0  0
   44.3100   35.4960   43.2490 C   0  0  0  0  0  0  0  0  0  0  0  0
   45.4940   35.0740   42.8870 O   0  0  0  0  0  0  0  0  0  0  0  0
   46.2520   32.8370   40.2060 C   0  0  0  0  0  0  0  0  0  0  0  0
   46.3430   32.8190   38.7510 N   0  0  0  0  0  0  0  0  0  0  0  0
   45.2910   33.1550   38.0140 N   0  0  0  0  0  0  0  0  0  0  0  0
   45.5230   33.0850   36.7270 C   0  0  0  0  0  0  0  0  0  0  0  0
   46.8030   32.6790   36.5730 C   0  0  0  0  0  0  0  0  0  0  0  0
   47.2680   32.5280   37.8660 C   0  0  0  0  0  0  0  0  0  0  0  0
   47.5780   32.4360   35.3610 C   0  0  0  0  0  0  0  0  0  0  0  0
   47.3680   31.4260   34.4460 C   0  0  0  0  0  0  0  0  0  0  0  0
   48.3080   31.5770   33.4900 N   0  0  0  0  0  0  0  0  0  0  0  0
   49.0690   32.6550   33.8230 C   0  0  0  0  0  0  0  0  0  0  0  0
   48.6270   33.1770   34.9590 N   0  0  0  0  0  0  0  0  0  0  0  0
   48.5890   32.1140   38.3140 N   0  0  0  0  0  0  0  0  0  0  0  0
   46.6922   34.7821   39.8497 H   0  0  0  0  0  0  0  0  0  0  0  0
   48.0572   36.3824   41.1965 H   0  0  0  0  0  0  0  0  0  0  0  0
   47.9877   32.1542   41.7187 H   0  0  0  0  0  0  0  0  0  0  0  0
   51.3107   34.4572   43.0065 H   0  0  0  0  0  0  0  0  0  0  0  0
   43.8228   34.6817   40.0421 H   0  0  0  0  0  0  0  0  0  0  0  0
   42.3798   35.6749   42.1153 H   0  0  0  0  0  0  0  0  0  0  0  0
   44.0342   35.8642   44.2482 H   0  0  0  0  0  0  0  0  0  0  0  0
   46.9513   32.0942   40.6174 H   0  0  0  0  0  0  0  0  0  0  0  0
   45.2166   32.5986   40.4907 H   0  0  0  0  0  0  0  0  0  0  0  0
   44.8094   33.3139   35.9217 H   0  0  0  0  0  0  0  0  0  0  0  0
   46.5886   30.6509   34.4873 H   0  0  0  0  0  0  0  0  0  0  0  0
   49.9203   33.0351   33.2392 H   0  0  0  0  0  0  0  0  0  0  0  0
   49.0151   33.9984   35.4444 H   0  0  0  0  0  0  0  0  0  0  0  0
   48.7932   32.0456   39.3212 H   0  0  0  0  0  0  0  0  0  0  0  0
   49.3199   31.8893   37.6239 H   0  0  0  0  0  0  0  0  0  0  0  0
  1  3  1  0
  1  8  1  0
  2  7  2  0
  3  2  1  0
  3  4  2  0
  4  5  1  0
  5  6  2  0
  7  6  1  0
  8 12  1  0
  9  8  2  0
  9 10  1  0
 10 11  2  0
 12 11  1  0
 13  1  1  0
 14 13  1  0
 15 14  1  0
 16 15  2  0
 17 16  1  0
 17 18  2  0
 18 24  1  0
 18 14  1  0
 19 17  1  0
 20 19  2  0
 21 22  2  0
 21 20  1  0
 22 23  1  0
 23 19  1  0
  1 25  1  6
  2 26  1  0
  4 27  1  0
  6 28  1  0
  9 29  1  0
 10 30  1  0
 11 31  1  0
 13 32  1  0
 13 33  1  0
 16 34  1  0
 20 35  1  0
 22 36  1  0
 23 37  1  0
 24 38  1  0
 24 39  1  0
M  ISO  8  25   8  26  14  27  14  28  14  29  14  30  14  31  14  32   8
M  ISO  5  33   8  34  14  35  14  36  14  37   9
M  END
>  <minimizedAffinity>  (1) 
-5.21816921

>  <minimizedRMSD>  (1) 
0.356520563

$$$$
