
     RDKit          3D

 40 43  0  0  1  0  0  0  0  0999 V2000
   46.5840   34.0660   40.6460 C   0  0  2  0  0  0  0  0  0  0  0  0
   48.4720   35.3990   41.4970 C   0  0  0  0  0  0  0  0  0  0  0  0
   47.8240   34.2140   41.2900 C   0  0  0  0  0  0  0  0  0  0  0  0
   48.4960   33.0790   41.7380 C   0  0  0  0  0  0  0  0  0  0  0  0
   49.7120   33.1340   42.3390 N   0  0  0  0  0  0  0  0  0  0  0  0
   50.2820   34.3730   42.5010 C   0  0  0  0  0  0  0  0  0  0  0  0
   49.6700   35.4760   42.0870 N   0  0  0  0  0  0  0  0  0  0  0  0
   45.4230   34.6440   41.4760 C   0  0  0  0  0  0  0  0  0  0  0  0
   44.1500   34.8000   40.8890 C   0  0  0  0  0  0  0  0  0  0  0  0
   43.4140   35.3410   41.9400 C   0  0  0  0  0  0  0  0  0  0  0  0
   44.2620   35.4750   43.0680 C   0  0  0  0  0  0  0  0  0  0  0  0
   45.4450   35.0430   42.7280 O   0  0  0  0  0  0  0  0  0  0  0  0
   46.2700   32.7380   40.1300 C   0  0  0  0  0  0  0  0  0  0  0  0
   46.3380   32.7050   38.6730 N   0  0  0  0  0  0  0  0  0  0  0  0
   45.3070   33.1160   37.9490 N   0  0  0  0  0  0  0  0  0  0  0  0
   45.5170   33.0220   36.6540 C   0  0  0  0  0  0  0  0  0  0  0  0
   46.7600   32.5200   36.4930 C   0  0  0  0  0  0  0  0  0  0  0  0
   47.2270   32.3410   37.7730 C   0  0  0  0  0  0  0  0  0  0  0  0
   47.4390   32.2360   35.2490 C   0  0  0  0  0  0  0  0  0  0  0  0
   48.6070   32.8100   34.7990 C   0  0  0  0  0  0  0  0  0  0  0  0
   49.1970   32.4870   33.5980 C   0  0  0  0  0  0  0  0  0  0  0  0
   48.6240   31.5720   32.8070 N   0  0  0  0  0  0  0  0  0  0  0  0
   47.4860   31.0020   33.2280 C   0  0  0  0  0  0  0  0  0  0  0  0
   46.9200   31.3220   34.4010 N   0  0  0  0  0  0  0  0  0  0  0  0
   48.5100   31.8340   38.2010 N   0  0  0  0  0  0  0  0  0  0  0  0
   46.7065   34.6728   39.7367 H   0  0  0  0  0  0  0  0  0  0  0  0
   47.9880   36.3291   41.1644 H   0  0  0  0  0  0  0  0  0  0  0  0
   48.0212   32.0965   41.5989 H   0  0  0  0  0  0  0  0  0  0  0  0
   51.2669   34.4532   42.9842 H   0  0  0  0  0  0  0  0  0  0  0  0
   43.8236   34.5574   39.8669 H   0  0  0  0  0  0  0  0  0  0  0  0
   42.3503   35.6185   41.9013 H   0  0  0  0  0  0  0  0  0  0  0  0
   43.9743   35.8718   44.0528 H   0  0  0  0  0  0  0  0  0  0  0  0
   46.9914   32.0151   40.5387 H   0  0  0  0  0  0  0  0  0  0  0  0
   45.2451   32.4806   40.4354 H   0  0  0  0  0  0  0  0  0  0  0  0
   44.8141   33.2994   35.8547 H   0  0  0  0  0  0  0  0  0  0  0  0
   49.0940   33.5661   35.4323 H   0  0  0  0  0  0  0  0  0  0  0  0
   50.1325   32.9773   33.2907 H   0  0  0  0  0  0  0  0  0  0  0  0
   47.0010   30.2477   32.5910 H   0  0  0  0  0  0  0  0  0  0  0  0
   48.7232   31.7543   39.2055 H   0  0  0  0  0  0  0  0  0  0  0  0
   49.2117   31.5521   37.5017 H   0  0  0  0  0  0  0  0  0  0  0  0
  1  3  1  0
  1  8  1  0
  2  7  2  0
  3  2  1  0
  3  4  2  0
  4  5  1  0
  5  6  2  0
  7  6  1  0
  8 12  1  0
  9  8  2  0
  9 10  1  0
 10 11  2  0
 12 11  1  0
 13  1  1  0
 14 13  1  0
 15 14  1  0
 16 15  2  0
 17 16  1  0
 17 18  2  0
 18 25  1  0
 18 14  1  0
 19 17  1  0
 20 19  2  0
 21 20  1  0
 22 23  1  0
 22 21  2  0
 23 24  2  0
 24 19  1  0
  1 26  1  6
  2 27  1  0
  4 28  1  0
  6 29  1  0
  9 30  1  0
 10 31  1  0
 11 32  1  0
 13 33  1  0
 13 34  1  0
 16 35  1  0
 20 36  1  0
 21 37  1  0
 23 38  1  0
 25 39  1  0
 25 40  1  0
M  ISO  8  26   8  27  14  28  14  29  14  30  14  31  14  32  14  33   8
M  ISO  5  34   8  35  14  36  14  37  14  38  14
M  END
>  <minimizedAffinity>  (1) 
-5.18425512

>  <minimizedRMSD>  (1) 
0.608961761

$$$$
