
     RDKit          3D

 39 42  0  0  1  0  0  0  0  0999 V2000
   46.5540   34.1770   40.7810 C   0  0  2  0  0  0  0  0  0  0  0  0
   48.5190   35.4450   41.5310 C   0  0  0  0  0  0  0  0  0  0  0  0
   47.8110   34.2880   41.3980 C   0  0  0  0  0  0  0  0  0  0  0  0
   48.4350   33.1460   41.8990 C   0  0  0  0  0  0  0  0  0  0  0  0
   49.6600   33.1740   42.4770 N   0  0  0  0  0  0  0  0  0  0  0  0
   50.2970   34.3870   42.5660 C   0  0  0  0  0  0  0  0  0  0  0  0
   49.7310   35.4850   42.1010 N   0  0  0  0  0  0  0  0  0  0  0  0
   45.4180   34.7390   41.6540 C   0  0  0  0  0  0  0  0  0  0  0  0
   44.1380   34.9330   41.1170 C   0  0  0  0  0  0  0  0  0  0  0  0
   43.4260   35.4380   42.1880 C   0  0  0  0  0  0  0  0  0  0  0  0
   44.2970   35.5250   43.2980 C   0  0  0  0  0  0  0  0  0  0  0  0
   45.4780   35.0950   42.9320 O   0  0  0  0  0  0  0  0  0  0  0  0
   46.2130   32.8590   40.2430 C   0  0  0  0  0  0  0  0  0  0  0  0
   46.3060   32.8400   38.7900 N   0  0  0  0  0  0  0  0  0  0  0  0
   45.2310   33.0870   38.0560 N   0  0  0  0  0  0  0  0  0  0  0  0
   45.4750   33.0230   36.7680 C   0  0  0  0  0  0  0  0  0  0  0  0
   46.7820   32.7150   36.6120 C   0  0  0  0  0  0  0  0  0  0  0  0
   47.2520   32.6130   37.9070 C   0  0  0  0  0  0  0  0  0  0  0  0
   47.5720   32.5230   35.4000 C   0  0  0  0  0  0  0  0  0  0  0  0
   47.1160   31.9830   34.2140 C   0  0  0  0  0  0  0  0  0  0  0  0
   48.2600   32.0340   33.4110 C   0  0  0  0  0  0  0  0  0  0  0  0
   49.2890   32.5670   34.1040 N   0  0  0  0  0  0  0  0  0  0  0  0
   48.8770   32.8690   35.3200 N   0  0  0  0  0  0  0  0  0  0  0  0
   48.5970   32.3100   38.3560 N   0  0  0  0  0  0  0  0  0  0  0  0
   46.6603   34.8131   39.8899 H   0  0  0  0  0  0  0  0  0  0  0  0
   48.0790   36.3810   41.1564 H   0  0  0  0  0  0  0  0  0  0  0  0
   47.9107   32.1821   41.8217 H   0  0  0  0  0  0  0  0  0  0  0  0
   51.2922   34.4445   43.0310 H   0  0  0  0  0  0  0  0  0  0  0  0
   43.7866   34.7325   40.0941 H   0  0  0  0  0  0  0  0  0  0  0  0
   42.3637   35.7234   42.1785 H   0  0  0  0  0  0  0  0  0  0  0  0
   44.0280   35.8918   44.2995 H   0  0  0  0  0  0  0  0  0  0  0  0
   46.9075   32.1127   40.6562 H   0  0  0  0  0  0  0  0  0  0  0  0
   45.1763   32.6257   40.5275 H   0  0  0  0  0  0  0  0  0  0  0  0
   44.7469   33.1900   35.9606 H   0  0  0  0  0  0  0  0  0  0  0  0
   46.1119   31.6091   33.9649 H   0  0  0  0  0  0  0  0  0  0  0  0
   48.3136   31.6902   32.3675 H   0  0  0  0  0  0  0  0  0  0  0  0
   50.2418   32.7140   33.7415 H   0  0  0  0  0  0  0  0  0  0  0  0
   48.8059   32.2661   39.3636 H   0  0  0  0  0  0  0  0  0  0  0  0
   49.3435   32.1386   37.6673 H   0  0  0  0  0  0  0  0  0  0  0  0
  1  3  1  0
  1  8  1  0
  2  7  2  0
  3  2  1  0
  3  4  2  0
  4  5  1  0
  5  6  2  0
  7  6  1  0
  8 12  1  0
  9  8  2  0
  9 10  1  0
 10 11  2  0
 12 11  1  0
 13  1  1  0
 14 13  1  0
 15 14  1  0
 16 15  2  0
 17 16  1  0
 17 18  2  0
 18 24  1  0
 18 14  1  0
 19 17  1  0
 20 19  1  0
 21 22  1  0
 21 20  2  0
 22 23  1  0
 23 19  2  0
  1 25  1  6
  2 26  1  0
  4 27  1  0
  6 28  1  0
  9 29  1  0
 10 30  1  0
 11 31  1  0
 13 32  1  0
 13 33  1  0
 16 34  1  0
 20 35  1  0
 21 36  1  0
 22 37  1  0
 24 38  1  0
 24 39  1  0
M  ISO  8  25   8  26  14  27  14  28  14  29  14  30  14  31  14  32   8
M  ISO  5  33   8  34  14  35  14  36  14  37   9
M  END
>  <minimizedAffinity>  (1) 
-5.17101336

>  <minimizedRMSD>  (1) 
0.250845402

$$$$
