
     RDKit          3D

 48 51  0  0  1  0  0  0  0  0999 V2000
   46.8410   34.0790   40.2800 C   0  0  2  0  0  0  0  0  0  0  0  0
   48.6090   35.4370   41.2950 C   0  0  0  0  0  0  0  0  0  0  0  0
   47.9720   34.2490   41.0940 C   0  0  0  0  0  0  0  0  0  0  0  0
   48.5370   33.1510   41.7350 C   0  0  0  0  0  0  0  0  0  0  0  0
   49.6460   33.2440   42.5060 N   0  0  0  0  0  0  0  0  0  0  0  0
   50.2220   34.4810   42.6530 C   0  0  0  0  0  0  0  0  0  0  0  0
   49.7080   35.5400   42.0580 N   0  0  0  0  0  0  0  0  0  0  0  0
   45.5320   34.4480   41.0020 C   0  0  0  0  0  0  0  0  0  0  0  0
   44.2920   34.0570   40.4610 C   0  0  0  0  0  0  0  0  0  0  0  0
   43.3910   34.5680   41.3810 C   0  0  0  0  0  0  0  0  0  0  0  0
   44.1120   35.2220   42.4000 C   0  0  0  0  0  0  0  0  0  0  0  0
   45.3910   35.1280   42.1370 O   0  0  0  0  0  0  0  0  0  0  0  0
   46.7260   32.7900   39.5990 C   0  0  0  0  0  0  0  0  0  0  0  0
   47.3110   32.8250   38.2740 N   0  0  0  0  0  0  0  0  0  0  0  0
   47.8740   33.9320   37.8390 N   0  0  0  0  0  0  0  0  0  0  0  0
   48.3440   33.8170   36.6150 C   0  0  0  0  0  0  0  0  0  0  0  0
   48.0820   32.5470   36.1930 C   0  0  0  0  0  0  0  0  0  0  0  0
   47.4350   31.9780   37.2770 C   0  0  0  0  0  0  0  0  0  0  0  0
   48.3890   31.8770   34.9020 C   0  0  0  0  0  0  0  0  0  0  0  0
   49.8430   31.4280   34.9230 C   0  0  0  0  0  0  0  0  0  0  0  0
   50.3370   30.9280   33.6190 C   0  0  0  0  0  0  0  0  0  0  0  0
   50.0090   31.7680   32.4270 C   0  0  0  0  0  0  0  0  0  0  0  0
   49.3990   33.0550   32.9320 C   0  0  0  0  0  0  0  0  0  0  0  0
   48.1180   32.7010   33.6910 C   0  0  0  0  0  0  0  0  0  0  0  0
   46.9260   30.6250   37.4100 N   0  0  0  0  0  0  0  0  0  0  0  0
   47.0121   34.8028   39.4695 H   0  0  0  0  0  0  0  0  0  0  0  0
   48.2085   36.3423   40.8154 H   0  0  0  0  0  0  0  0  0  0  0  0
   48.0629   32.1663   41.6102 H   0  0  0  0  0  0  0  0  0  0  0  0
   51.1230   34.5906   43.2744 H   0  0  0  0  0  0  0  0  0  0  0  0
   44.0899   33.4894   39.5407 H   0  0  0  0  0  0  0  0  0  0  0  0
   42.2961   34.4783   41.3254 H   0  0  0  0  0  0  0  0  0  0  0  0
   43.6727   35.7279   43.2724 H   0  0  0  0  0  0  0  0  0  0  0  0
   47.2436   32.0248   40.1962 H   0  0  0  0  0  0  0  0  0  0  0  0
   45.6567   32.5544   39.4935 H   0  0  0  0  0  0  0  0  0  0  0  0
   48.8548   34.6019   36.0379 H   0  0  0  0  0  0  0  0  0  0  0  0
   47.7039   31.0205   34.8183 H   0  0  0  0  0  0  0  0  0  0  0  0
   50.4652   32.2838   35.2237 H   0  0  0  0  0  0  0  0  0  0  0  0
   49.9072   30.5888   35.6312 H   0  0  0  0  0  0  0  0  0  0  0  0
   51.4322   30.8476   33.6827 H   0  0  0  0  0  0  0  0  0  0  0  0
   49.8233   29.9691   33.4558 H   0  0  0  0  0  0  0  0  0  0  0  0
   49.2914   31.2402   31.7816 H   0  0  0  0  0  0  0  0  0  0  0  0
   50.9144   31.9738   31.8372 H   0  0  0  0  0  0  0  0  0  0  0  0
   50.1042   33.5640   33.6055 H   0  0  0  0  0  0  0  0  0  0  0  0
   49.1735   33.7282   32.0918 H   0  0  0  0  0  0  0  0  0  0  0  0
   47.6212   33.6323   34.0005 H   0  0  0  0  0  0  0  0  0  0  0  0
   47.4796   32.1104   33.0175 H   0  0  0  0  0  0  0  0  0  0  0  0
   46.4612   30.3330   38.2815 H   0  0  0  0  0  0  0  0  0  0  0  0
   47.0297   29.9570   36.6328 H   0  0  0  0  0  0  0  0  0  0  0  0
  1  8  1  0
  1  3  1  0
  2  7  2  0
  3  2  1  0
  3  4  2  0
  4  5  1  0
  5  6  2  0
  7  6  1  0
  8 12  1  0
  9  8  2  0
  9 10  1  0
 10 11  2  0
 12 11  1  0
 13  1  1  0
 14 13  1  0
 15 14  1  0
 16 15  2  0
 17 16  1  0
 17 18  2  0
 18 25  1  0
 18 14  1  0
 19 20  1  0
 19 17  1  0
 21 20  1  0
 22 23  1  0
 22 21  1  0
 23 24  1  0
 24 19  1  0
  1 26  1  6
  2 27  1  0
  4 28  1  0
  6 29  1  0
  9 30  1  0
 10 31  1  0
 11 32  1  0
 13 33  1  0
 13 34  1  0
 16 35  1  0
 19 36  1  0
 20 37  1  0
 20 38  1  0
 21 39  1  0
 21 40  1  0
 22 41  1  0
 22 42  1  0
 23 43  1  0
 23 44  1  0
 24 45  1  0
 24 46  1  0
 25 47  1  0
 25 48  1  0
M  ISO  8  26   8  27  14  28  14  29  14  30  14  31  14  32  14  33   8
M  ISO  8  34   8  35  14  36  13  37  13  38  13  39  13  40  13  41  13
M  ISO  5  42  13  43  13  44  13  45  13  46  13
M  END
>  <minimizedAffinity>  (1) 
-5.19796515

>  <minimizedRMSD>  (1) 
1.70087314

$$$$
