
     RDKit          3D

 42 45  0  0  1  0  0  0  0  0999 V2000
   46.2790   32.7160   40.1110 C   0  0  0  0  0  0  0  0  0  0  0  0
   46.3030   32.7000   38.6510 N   0  0  0  0  0  0  0  0  0  0  0  0
   45.2860   33.1910   37.9540 N   0  0  0  0  0  0  0  0  0  0  0  0
   45.4410   33.1170   36.6630 C   0  0  0  0  0  0  0  0  0  0  0  0
   46.6480   32.5350   36.4740 C   0  0  0  0  0  0  0  0  0  0  0  0
   47.1450   32.2930   37.7220 C   0  0  0  0  0  0  0  0  0  0  0  0
   47.3840   32.1810   35.2640 C   0  0  0  0  0  0  0  0  0  0  0  0
   48.5500   32.7840   34.8380 C   0  0  0  0  0  0  0  0  0  0  0  0
   49.1660   32.3870   33.6960 C   0  0  0  0  0  0  0  0  0  0  0  0
   48.6140   31.3690   32.9610 C   0  0  0  0  0  0  0  0  0  0  0  0
   47.4350   30.7380   33.3670 C   0  0  0  0  0  0  0  0  0  0  0  0
   46.8230   31.1570   34.5310 C   0  0  0  0  0  0  0  0  0  0  0  0
   48.3960   31.6860   38.0980 N   0  0  0  0  0  0  0  0  0  0  0  0
   46.5910   34.0460   40.6280 C   0  0  2  0  0  0  0  0  0  0  0  0
   48.4720   35.3730   41.5020 C   0  0  0  0  0  0  0  0  0  0  0  0
   47.8320   34.1890   41.2700 C   0  0  0  0  0  0  0  0  0  0  0  0
   48.5170   33.0480   41.6920 C   0  0  0  0  0  0  0  0  0  0  0  0
   49.7310   33.1030   42.2900 N   0  0  0  0  0  0  0  0  0  0  0  0
   50.2950   34.3410   42.4810 C   0  0  0  0  0  0  0  0  0  0  0  0
   49.6720   35.4390   42.0920 N   0  0  0  0  0  0  0  0  0  0  0  0
   45.4320   34.6210   41.4630 C   0  0  0  0  0  0  0  0  0  0  0  0
   44.1620   34.7920   40.8720 C   0  0  0  0  0  0  0  0  0  0  0  0
   43.4260   35.3210   41.9320 C   0  0  0  0  0  0  0  0  0  0  0  0
   44.2600   35.4310   43.0510 C   0  0  0  0  0  0  0  0  0  0  0  0
   45.4510   35.0020   42.7290 O   0  0  0  0  0  0  0  0  0  0  0  0
   47.0226   31.9997   40.4903 H   0  0  0  0  0  0  0  0  0  0  0  0
   45.2687   32.4391   40.4467 H   0  0  0  0  0  0  0  0  0  0  0  0
   44.7378   33.4566   35.8882 H   0  0  0  0  0  0  0  0  0  0  0  0
   48.9868   33.5992   35.4335 H   0  0  0  0  0  0  0  0  0  0  0  0
   50.0946   32.8746   33.3645 H   0  0  0  0  0  0  0  0  0  0  0  0
   49.1088   31.0430   32.0342 H   0  0  0  0  0  0  0  0  0  0  0  0
   47.0025   29.9219   32.7695 H   0  0  0  0  0  0  0  0  0  0  0  0
   45.8937   30.6770   34.8716 H   0  0  0  0  0  0  0  0  0  0  0  0
   48.6335   31.5700   39.0935 H   0  0  0  0  0  0  0  0  0  0  0  0
   49.0530   31.3679   37.3714 H   0  0  0  0  0  0  0  0  0  0  0  0
   46.7072   34.6577   39.7212 H   0  0  0  0  0  0  0  0  0  0  0  0
   47.9828   36.3082   41.1922 H   0  0  0  0  0  0  0  0  0  0  0  0
   48.0517   32.0641   41.5323 H   0  0  0  0  0  0  0  0  0  0  0  0
   51.2797   34.4191   42.9649 H   0  0  0  0  0  0  0  0  0  0  0  0
   43.8378   34.5672   39.8452 H   0  0  0  0  0  0  0  0  0  0  0  0
   42.3640   35.6053   41.8949 H   0  0  0  0  0  0  0  0  0  0  0  0
   43.9618   35.8150   44.0377 H   0  0  0  0  0  0  0  0  0  0  0  0
  1 14  1  0
  2  1  1  0
  3  2  1  0
  4  3  2  0
  5  4  1  0
  5  6  2  0
  6 13  1  0
  6  2  1  0
  7  5  1  0
  8  7  2  0
  9  8  1  0
 10 11  1  0
 10  9  2  0
 11 12  2  0
 12  7  1  0
 14 16  1  0
 14 21  1  0
 15 20  2  0
 16 15  1  0
 16 17  2  0
 17 18  1  0
 18 19  2  0
 20 19  1  0
 21 25  1  0
 22 21  2  0
 22 23  1  0
 23 24  2  0
 25 24  1  0
  1 26  1  0
  1 27  1  0
  4 28  1  0
  8 29  1  0
  9 30  1  0
 10 31  1  0
 11 32  1  0
 12 33  1  0
 13 34  1  0
 13 35  1  0
 14 36  1  6
 15 37  1  0
 17 38  1  0
 19 39  1  0
 22 40  1  0
 23 41  1  0
 24 42  1  0
M  ISO  8  26   8  27   8  28  14  29  14  30  14  31  14  32  14  33  14
M  ISO  7  36   8  37  14  38  14  39  14  40  14  41  14  42  14
M  END
>  <minimizedAffinity>  (1) 
-5.12196016

>  <minimizedRMSD>  (1) 
0.840099871

$$$$
