
     RDKit          3D

 38 41  0  0  1  0  0  0  0  0999 V2000
   46.5650   34.1220   40.7820 C   0  0  2  0  0  0  0  0  0  0  0  0
   48.4980   35.4340   41.5630 C   0  0  0  0  0  0  0  0  0  0  0  0
   47.8270   34.2580   41.3830 C   0  0  0  0  0  0  0  0  0  0  0  0
   48.5000   33.1200   41.8200 C   0  0  0  0  0  0  0  0  0  0  0  0
   49.7330   33.1650   42.3830 N   0  0  0  0  0  0  0  0  0  0  0  0
   50.3240   34.3960   42.5200 C   0  0  0  0  0  0  0  0  0  0  0  0
   49.7150   35.4950   42.1180 N   0  0  0  0  0  0  0  0  0  0  0  0
   45.4360   34.7090   41.6500 C   0  0  0  0  0  0  0  0  0  0  0  0
   44.1600   34.9200   41.0910 C   0  0  0  0  0  0  0  0  0  0  0  0
   43.4580   35.4510   42.1720 C   0  0  0  0  0  0  0  0  0  0  0  0
   44.3280   35.5260   43.2880 C   0  0  0  0  0  0  0  0  0  0  0  0
   45.4890   35.0700   42.9110 O   0  0  0  0  0  0  0  0  0  0  0  0
   46.2250   32.7940   40.2770 C   0  0  0  0  0  0  0  0  0  0  0  0
   46.2540   32.7570   38.8210 N   0  0  0  0  0  0  0  0  0  0  0  0
   45.1850   33.0960   38.1190 N   0  0  0  0  0  0  0  0  0  0  0  0
   45.3640   33.0070   36.8250 C   0  0  0  0  0  0  0  0  0  0  0  0
   46.6450   32.5760   36.6280 C   0  0  0  0  0  0  0  0  0  0  0  0
   47.1400   32.4410   37.9020 C   0  0  0  0  0  0  0  0  0  0  0  0
   47.3310   32.3180   35.3540 C   0  0  0  0  0  0  0  0  0  0  0  0
   46.6590   31.5180   34.3030 C   0  0  0  0  0  0  0  0  0  0  0  0
   47.9550   31.5350   32.9960 S   0  0  0  0  0  0  0  0  0  0  0  0
   49.1420   32.5810   34.0470 C   0  0  0  0  0  0  0  0  0  0  0  0
   48.5400   32.7760   35.0990 N   0  0  0  0  0  0  0  0  0  0  0  0
   48.4610   32.0120   38.3020 N   0  0  0  0  0  0  0  0  0  0  0  0
   46.6597   34.7305   39.8705 H   0  0  0  0  0  0  0  0  0  0  0  0
   48.0188   36.3695   41.2386 H   0  0  0  0  0  0  0  0  0  0  0  0
   48.0103   32.1419   41.7035 H   0  0  0  0  0  0  0  0  0  0  0  0
   51.3237   34.4676   42.9733 H   0  0  0  0  0  0  0  0  0  0  0  0
   43.8092   34.7183   40.0681 H   0  0  0  0  0  0  0  0  0  0  0  0
   42.4026   35.7608   42.1606 H   0  0  0  0  0  0  0  0  0  0  0  0
   44.0703   35.9007   44.2896 H   0  0  0  0  0  0  0  0  0  0  0  0
   46.9504   32.0655   40.6683 H   0  0  0  0  0  0  0  0  0  0  0  0
   45.2062   32.5467   40.6100 H   0  0  0  0  0  0  0  0  0  0  0  0
   44.6233   33.2359   36.0446 H   0  0  0  0  0  0  0  0  0  0  0  0
   45.6651   31.0466   34.3037 H   0  0  0  0  0  0  0  0  0  0  0  0
   50.1472   32.9342   33.7734 H   0  0  0  0  0  0  0  0  0  0  0  0
   48.7032   31.9546   39.3015 H   0  0  0  0  0  0  0  0  0  0  0  0
   49.1602   31.7637   37.5876 H   0  0  0  0  0  0  0  0  0  0  0  0
  1  3  1  0
  1  8  1  0
  2  7  2  0
  3  2  1  0
  3  4  2  0
  4  5  1  0
  5  6  2  0
  7  6  1  0
  8 12  1  0
  9  8  2  0
  9 10  1  0
 10 11  2  0
 12 11  1  0
 13  1  1  0
 14 13  1  0
 15 14  1  0
 16 15  2  0
 17 16  1  0
 17 18  2  0
 18 24  1  0
 18 14  1  0
 19 17  1  0
 20 19  2  0
 21 22  1  0
 21 20  1  0
 22 23  2  0
 23 19  1  0
  1 25  1  6
  2 26  1  0
  4 27  1  0
  6 28  1  0
  9 29  1  0
 10 30  1  0
 11 31  1  0
 13 32  1  0
 13 33  1  0
 16 34  1  0
 20 35  1  0
 22 36  1  0
 24 37  1  0
 24 38  1  0
M  ISO  8  25   8  26  14  27  14  28  14  29  14  30  14  31  14  32   8
M  ISO  4  33   8  34  14  35  14  36  14
M  END
>  <minimizedAffinity>  (1) 
-4.99411917

>  <minimizedRMSD>  (1) 
0.437678069

$$$$
