
     RDKit          3D

 38 40  0  0  1  0  0  0  0  0999 V2000
   46.6370   34.2160   40.6720 C   0  0  2  0  0  0  0  0  0  0  0  0
   48.5780   35.5300   41.4220 C   0  0  0  0  0  0  0  0  0  0  0  0
   47.8520   34.3780   41.3630 C   0  0  0  0  0  0  0  0  0  0  0  0
   48.4110   33.2920   42.0240 C   0  0  0  0  0  0  0  0  0  0  0  0
   49.5930   33.3630   42.6840 N   0  0  0  0  0  0  0  0  0  0  0  0
   50.2500   34.5670   42.6880 C   0  0  0  0  0  0  0  0  0  0  0  0
   49.7470   35.6190   42.0700 N   0  0  0  0  0  0  0  0  0  0  0  0
   45.4260   34.7060   41.4860 C   0  0  0  0  0  0  0  0  0  0  0  0
   44.1490   34.7310   40.9040 C   0  0  0  0  0  0  0  0  0  0  0  0
   43.3660   35.2260   41.9420 C   0  0  0  0  0  0  0  0  0  0  0  0
   44.1970   35.4670   43.0650 C   0  0  0  0  0  0  0  0  0  0  0  0
   45.4010   35.1360   42.7240 O   0  0  0  0  0  0  0  0  0  0  0  0
   46.3980   32.9030   40.0780 C   0  0  0  0  0  0  0  0  0  0  0  0
   46.6890   32.9090   38.6470 N   0  0  0  0  0  0  0  0  0  0  0  0
   45.7020   32.9390   37.7590 N   0  0  0  0  0  0  0  0  0  0  0  0
   46.1120   32.9360   36.5170 C   0  0  0  0  0  0  0  0  0  0  0  0
   47.4740   32.9010   36.5590 C   0  0  0  0  0  0  0  0  0  0  0  0
   47.7790   32.8850   37.9090 C   0  0  0  0  0  0  0  0  0  0  0  0
   49.0830   32.8530   38.5380 N   0  0  0  0  0  0  0  0  0  0  0  0
   48.5480   32.8780   35.5480 C   0  0  0  0  0  0  0  0  0  0  0  0
   48.1240   32.3030   34.2170 C   0  0  0  0  0  0  0  0  0  0  0  0
   46.7604   34.8767   39.8012 H   0  0  0  0  0  0  0  0  0  0  0  0
   48.1872   36.4250   40.9158 H   0  0  0  0  0  0  0  0  0  0  0  0
   47.8717   32.3334   42.0115 H   0  0  0  0  0  0  0  0  0  0  0  0
   51.2115   34.6572   43.2147 H   0  0  0  0  0  0  0  0  0  0  0  0
   43.8455   34.4354   39.8889 H   0  0  0  0  0  0  0  0  0  0  0  0
   42.2810   35.4015   41.8985 H   0  0  0  0  0  0  0  0  0  0  0  0
   43.8788   35.8608   44.0415 H   0  0  0  0  0  0  0  0  0  0  0  0
   47.0443   32.1627   40.5723 H   0  0  0  0  0  0  0  0  0  0  0  0
   45.3373   32.6464   40.2163 H   0  0  0  0  0  0  0  0  0  0  0  0
   45.4817   32.9575   35.6158 H   0  0  0  0  0  0  0  0  0  0  0  0
   49.1593   32.8441   39.5651 H   0  0  0  0  0  0  0  0  0  0  0  0
   49.9342   32.8391   37.9582 H   0  0  0  0  0  0  0  0  0  0  0  0
   48.8927   33.9099   35.3854 H   0  0  0  0  0  0  0  0  0  0  0  0
   49.3412   32.2244   35.9399 H   0  0  0  0  0  0  0  0  0  0  0  0
   47.4788   31.4280   34.3844 H   0  0  0  0  0  0  0  0  0  0  0  0
   47.5694   33.0642   33.6487 H   0  0  0  0  0  0  0  0  0  0  0  0
   49.0151   31.9981   33.6487 H   0  0  0  0  0  0  0  0  0  0  0  0
  1  3  1  0
  1  8  1  0
  2  7  2  0
  3  2  1  0
  3  4  2  0
  4  5  1  0
  5  6  2  0
  7  6  1  0
  8 12  1  0
  9  8  2  0
  9 10  1  0
 10 11  2  0
 12 11  1  0
 13  1  1  0
 14 13  1  0
 15 14  1  0
 16 17  1  0
 16 15  2  0
 17 18  2  0
 18 19  1  0
 18 14  1  0
 20 17  1  0
 21 20  1  0
  1 22  1  6
  2 23  1  0
  4 24  1  0
  6 25  1  0
  9 26  1  0
 10 27  1  0
 11 28  1  0
 13 29  1  0
 13 30  1  0
 16 31  1  0
 19 32  1  0
 19 33  1  0
 20 34  1  0
 20 35  1  0
 21 36  1  0
 21 37  1  0
 21 38  1  0
M  ISO  8  22   8  23  14  24  14  25  14  26  14  27  14  28  14  29   8
M  ISO  7  30   8  31  14  34   8  35   8  36   8  37   8  38   8
M  END
>  <minimizedAffinity>  (1) 
-4.60600233

>  <minimizedRMSD>  (1) 
0.433297724

$$$$
