
     RDKit          3D

 35 37  0  0  1  0  0  0  0  0999 V2000
   46.5670   34.1470   40.7260 C   0  0  2  0  0  0  0  0  0  0  0  0
   48.5180   35.4460   41.4730 C   0  0  0  0  0  0  0  0  0  0  0  0
   47.8140   34.2820   41.3570 C   0  0  0  0  0  0  0  0  0  0  0  0
   48.4310   33.1460   41.8970 C   0  0  0  0  0  0  0  0  0  0  0  0
   49.6440   33.1900   42.4970 N   0  0  0  0  0  0  0  0  0  0  0  0
   50.2800   34.4050   42.5690 C   0  0  0  0  0  0  0  0  0  0  0  0
   49.7240   35.4920   42.0690 N   0  0  0  0  0  0  0  0  0  0  0  0
   45.4160   34.7140   41.5780 C   0  0  0  0  0  0  0  0  0  0  0  0
   44.1330   34.8700   41.0210 C   0  0  0  0  0  0  0  0  0  0  0  0
   43.4070   35.3910   42.0680 C   0  0  0  0  0  0  0  0  0  0  0  0
   44.2650   35.5250   43.1880 C   0  0  0  0  0  0  0  0  0  0  0  0
   45.4530   35.1050   42.8400 O   0  0  0  0  0  0  0  0  0  0  0  0
   46.2370   32.8240   40.2010 C   0  0  0  0  0  0  0  0  0  0  0  0
   46.3800   32.7790   38.7510 N   0  0  0  0  0  0  0  0  0  0  0  0
   45.3470   33.0590   37.9660 N   0  0  0  0  0  0  0  0  0  0  0  0
   45.6150   32.9770   36.6890 C   0  0  0  0  0  0  0  0  0  0  0  0
   46.9230   32.6150   36.5950 C   0  0  0  0  0  0  0  0  0  0  0  0
   47.3440   32.5070   37.9050 C   0  0  0  0  0  0  0  0  0  0  0  0
   47.7670   32.3730   35.4010 C   0  0  0  0  0  0  0  0  0  0  0  0
   48.7670   33.3180   35.3680 F   0  0  0  0  0  0  0  0  0  0  0  0
   48.3050   31.1040   35.4960 F   0  0  0  0  0  0  0  0  0  0  0  0
   47.0110   32.4700   34.2490 F   0  0  0  0  0  0  0  0  0  0  0  0
   48.6610   32.1480   38.4110 N   0  0  0  0  0  0  0  0  0  0  0  0
   46.6862   34.7655   39.8242 H   0  0  0  0  0  0  0  0  0  0  0  0
   48.0871   36.3733   41.0676 H   0  0  0  0  0  0  0  0  0  0  0  0
   47.9092   32.1799   41.8309 H   0  0  0  0  0  0  0  0  0  0  0  0
   51.2668   34.4729   43.0503 H   0  0  0  0  0  0  0  0  0  0  0  0
   43.7943   34.6340   40.0014 H   0  0  0  0  0  0  0  0  0  0  0  0
   42.3404   35.6584   42.0401 H   0  0  0  0  0  0  0  0  0  0  0  0
   43.9810   35.9142   44.1769 H   0  0  0  0  0  0  0  0  0  0  0  0
   46.9122   32.0813   40.6509 H   0  0  0  0  0  0  0  0  0  0  0  0
   45.1898   32.6014   40.4538 H   0  0  0  0  0  0  0  0  0  0  0  0
   44.9209   33.1636   35.8562 H   0  0  0  0  0  0  0  0  0  0  0  0
   48.8292   32.1077   39.4264 H   0  0  0  0  0  0  0  0  0  0  0  0
   49.4246   31.9343   37.7536 H   0  0  0  0  0  0  0  0  0  0  0  0
  1  3  1  0
  1  8  1  0
  2  7  2  0
  3  2  1  0
  3  4  2  0
  4  5  1  0
  5  6  2  0
  7  6  1  0
  8 12  1  0
  9  8  2  0
  9 10  1  0
 10 11  2  0
 12 11  1  0
 13  1  1  0
 14 13  1  0
 15 14  1  0
 16 15  2  0
 17 16  1  0
 17 18  2  0
 18 23  1  0
 18 14  1  0
 19 21  1  0
 19 17  1  0
 20 19  1  0
 22 19  1  0
  1 24  1  6
  2 25  1  0
  4 26  1  0
  6 27  1  0
  9 28  1  0
 10 29  1  0
 11 30  1  0
 13 31  1  0
 13 32  1  0
 16 33  1  0
 23 34  1  0
 23 35  1  0
M  ISO  8  24   8  25  14  26  14  27  14  28  14  29  14  30  14  31   8
M  ISO  2  32   8  33  14
M  END
>  <minimizedAffinity>  (1) 
-4.79033852

>  <minimizedRMSD>  (1) 
0.364394993

$$$$
