
     RDKit          3D

 35 37  0  0  1  0  0  0  0  0999 V2000
   46.6010   34.1280   40.4950 C   0  0  2  0  0  0  0  0  0  0  0  0
   48.4870   35.5290   41.2230 C   0  0  0  0  0  0  0  0  0  0  0  0
   47.7690   34.3690   41.2410 C   0  0  0  0  0  0  0  0  0  0  0  0
   48.2840   33.3620   42.0470 C   0  0  0  0  0  0  0  0  0  0  0  0
   49.4210   33.5120   42.7710 N   0  0  0  0  0  0  0  0  0  0  0  0
   50.0750   34.7170   42.6890 C   0  0  0  0  0  0  0  0  0  0  0  0
   49.6100   35.7000   41.9290 N   0  0  0  0  0  0  0  0  0  0  0  0
   45.3330   34.6090   41.2230 C   0  0  0  0  0  0  0  0  0  0  0  0
   44.0730   34.4930   40.5950 C   0  0  0  0  0  0  0  0  0  0  0  0
   43.2190   35.0240   41.5500 C   0  0  0  0  0  0  0  0  0  0  0  0
   43.9840   35.4190   42.6700 C   0  0  0  0  0  0  0  0  0  0  0  0
   45.2420   35.1530   42.4270 O   0  0  0  0  0  0  0  0  0  0  0  0
   46.4430   32.7790   39.9590 C   0  0  0  0  0  0  0  0  0  0  0  0
   46.8260   32.7210   38.5510 N   0  0  0  0  0  0  0  0  0  0  0  0
   45.9010   32.7290   37.6030 N   0  0  0  0  0  0  0  0  0  0  0  0
   46.3810   32.6700   36.3940 C   0  0  0  0  0  0  0  0  0  0  0  0
   47.7300   32.6180   36.5320 C   0  0  0  0  0  0  0  0  0  0  0  0
   47.9570   32.6520   37.8820 C   0  0  0  0  0  0  0  0  0  0  0  0
   49.2160   32.6210   38.5910 N   0  0  0  0  0  0  0  0  0  0  0  0
   48.7890   32.5410   35.5300 C   0  0  0  0  0  0  0  0  0  0  0  0
   48.5400   32.9160   34.3550 O   0  0  0  0  0  0  0  0  0  0  0  0
   50.0620   32.0700   35.8260 O   0  0  0  0  0  0  0  0  0  0  0  0
   46.7444   34.7484   39.5980 H   0  0  0  0  0  0  0  0  0  0  0  0
   48.1262   36.3607   40.6000 H   0  0  0  0  0  0  0  0  0  0  0  0
   47.7476   32.4032   42.1004 H   0  0  0  0  0  0  0  0  0  0  0  0
   51.0005   34.8697   43.2635 H   0  0  0  0  0  0  0  0  0  0  0  0
   43.8311   34.0856   39.6023 H   0  0  0  0  0  0  0  0  0  0  0  0
   42.1277   35.1214   41.4517 H   0  0  0  0  0  0  0  0  0  0  0  0
   43.5890   35.8733   43.5906 H   0  0  0  0  0  0  0  0  0  0  0  0
   47.0790   32.0885   40.5324 H   0  0  0  0  0  0  0  0  0  0  0  0
   45.3843   32.4928   40.0436 H   0  0  0  0  0  0  0  0  0  0  0  0
   45.8101   32.6636   35.4537 H   0  0  0  0  0  0  0  0  0  0  0  0
   49.2283   32.6538   39.6204 H   0  0  0  0  0  0  0  0  0  0  0  0
   50.1010   32.5661   38.0669 H   0  0  0  0  0  0  0  0  0  0  0  0
   50.7532   32.0333   35.1182 H   0  0  0  0  0  0  0  0  0  0  0  0
  1  8  1  0
  1  3  1  0
  2  3  2  0
  2  7  1  0
  3  4  1  0
  4  5  2  0
  6  5  1  0
  7  6  2  0
  8 12  1  0
  9  8  2  0
  9 10  1  0
 10 11  2  0
 12 11  1  0
 13  1  1  0
 14 13  1  0
 15 14  1  0
 16 17  1  0
 16 15  2  0
 17 18  2  0
 18 14  1  0
 18 19  1  0
 20 22  1  0
 20 17  1  0
 21 20  2  0
  1 23  1  6
  2 24  1  0
  4 25  1  0
  6 26  1  0
  9 27  1  0
 10 28  1  0
 11 29  1  0
 13 30  1  0
 13 31  1  0
 16 32  1  0
 19 33  1  0
 19 34  1  0
 22 35  1  0
M  ISO  8  23   8  24  14  25  14  26  14  27  14  28  14  29  14  30   8
M  ISO  3  31   8  32  14  35   3
M  END
>  <minimizedAffinity>  (1) 
-4.8304162

>  <minimizedRMSD>  (1) 
0.742891788

$$$$
