
     RDKit          3D

 34 36  0  0  1  0  0  0  0  0999 V2000
   46.6470   34.1700   40.6220 C   0  0  2  0  0  0  0  0  0  0  0  0
   48.5560   35.5200   41.3920 C   0  0  0  0  0  0  0  0  0  0  0  0
   47.8530   34.3480   41.3230 C   0  0  0  0  0  0  0  0  0  0  0  0
   48.4250   33.2620   41.9840 C   0  0  0  0  0  0  0  0  0  0  0  0
   49.6010   33.3530   42.6530 N   0  0  0  0  0  0  0  0  0  0  0  0
   50.2340   34.5700   42.6670 C   0  0  0  0  0  0  0  0  0  0  0  0
   49.7190   35.6210   42.0510 N   0  0  0  0  0  0  0  0  0  0  0  0
   45.4270   34.6670   41.4190 C   0  0  0  0  0  0  0  0  0  0  0  0
   44.1510   34.6720   40.8270 C   0  0  0  0  0  0  0  0  0  0  0  0
   43.3560   35.1820   41.8430 C   0  0  0  0  0  0  0  0  0  0  0  0
   44.1770   35.4510   42.9670 C   0  0  0  0  0  0  0  0  0  0  0  0
   45.3910   35.1240   42.6490 O   0  0  0  0  0  0  0  0  0  0  0  0
   46.4220   32.8460   40.0500 C   0  0  0  0  0  0  0  0  0  0  0  0
   46.6940   32.8370   38.6160 N   0  0  0  0  0  0  0  0  0  0  0  0
   45.6980   32.8960   37.7420 N   0  0  0  0  0  0  0  0  0  0  0  0
   46.0850   32.8750   36.4960 C   0  0  0  0  0  0  0  0  0  0  0  0
   47.4370   32.7950   36.5120 C   0  0  0  0  0  0  0  0  0  0  0  0
   47.7650   32.7750   37.8570 C   0  0  0  0  0  0  0  0  0  0  0  0
   49.0790   32.7000   38.4790 N   0  0  0  0  0  0  0  0  0  0  0  0
   48.4070   32.7400   35.4320 C   0  0  0  0  0  0  0  0  0  0  0  0
   49.3400   31.9230   35.4490 O   0  0  0  0  0  0  0  0  0  0  0  0
   46.7725   34.8161   39.7406 H   0  0  0  0  0  0  0  0  0  0  0  0
   48.1524   36.4110   40.8888 H   0  0  0  0  0  0  0  0  0  0  0  0
   47.9024   32.2943   41.9620 H   0  0  0  0  0  0  0  0  0  0  0  0
   51.1897   34.6739   43.2016 H   0  0  0  0  0  0  0  0  0  0  0  0
   43.8581   34.3528   39.8159 H   0  0  0  0  0  0  0  0  0  0  0  0
   42.2703   35.3496   41.7860 H   0  0  0  0  0  0  0  0  0  0  0  0
   43.8452   35.8618   43.9320 H   0  0  0  0  0  0  0  0  0  0  0  0
   47.0868   32.1233   40.5458 H   0  0  0  0  0  0  0  0  0  0  0  0
   45.3677   32.5739   40.2061 H   0  0  0  0  0  0  0  0  0  0  0  0
   45.4393   32.9145   35.6063 H   0  0  0  0  0  0  0  0  0  0  0  0
   49.1633   32.6941   39.5055 H   0  0  0  0  0  0  0  0  0  0  0  0
   49.9244   32.6528   37.8926 H   0  0  0  0  0  0  0  0  0  0  0  0
   48.3124   33.4349   34.5846 H   0  0  0  0  0  0  0  0  0  0  0  0
  1  3  1  0
  1  8  1  0
  2  7  2  0
  3  2  1  0
  3  4  2  0
  4  5  1  0
  5  6  2  0
  7  6  1  0
  8 12  1  0
  9  8  2  0
  9 10  1  0
 10 11  2  0
 12 11  1  0
 13  1  1  0
 14 13  1  0
 15 14  1  0
 16 17  1  0
 16 15  2  0
 17 18  2  0
 18 19  1  0
 18 14  1  0
 20 21  2  0
 20 17  1  0
  1 22  1  6
  2 23  1  0
  4 24  1  0
  6 25  1  0
  9 26  1  0
 10 27  1  0
 11 28  1  0
 13 29  1  0
 13 30  1  0
 16 31  1  0
 19 32  1  0
 19 33  1  0
 20 34  1  0
M  ISO  8  22   8  23  14  24  14  25  14  26  14  27  14  28  14  29   8
M  ISO  3  30   8  31  14  34   6
M  END
>  <minimizedAffinity>  (1) 
-4.5085845

>  <minimizedRMSD>  (1) 
0.449575603

$$$$
