
     RDKit          3D

 35 37  0  0  1  0  0  0  0  0999 V2000
   46.6010   34.2100   40.7340 C   0  0  2  0  0  0  0  0  0  0  0  0
   48.5630   35.4820   41.4740 C   0  0  0  0  0  0  0  0  0  0  0  0
   47.8400   34.3300   41.3850 C   0  0  0  0  0  0  0  0  0  0  0  0
   48.4210   33.2030   41.9680 C   0  0  0  0  0  0  0  0  0  0  0  0
   49.6270   33.2400   42.5840 N   0  0  0  0  0  0  0  0  0  0  0  0
   50.2890   34.4390   42.6290 C   0  0  0  0  0  0  0  0  0  0  0  0
   49.7590   35.5170   42.0850 N   0  0  0  0  0  0  0  0  0  0  0  0
   45.4320   34.7310   41.5910 C   0  0  0  0  0  0  0  0  0  0  0  0
   44.1540   34.8580   41.0410 C   0  0  0  0  0  0  0  0  0  0  0  0
   43.4050   35.3450   42.0950 C   0  0  0  0  0  0  0  0  0  0  0  0
   44.2550   35.4840   43.2050 C   0  0  0  0  0  0  0  0  0  0  0  0
   45.4620   35.1070   42.8650 O   0  0  0  0  0  0  0  0  0  0  0  0
   46.2920   32.9040   40.1550 C   0  0  0  0  0  0  0  0  0  0  0  0
   46.5310   32.8890   38.7180 N   0  0  0  0  0  0  0  0  0  0  0  0
   45.5240   33.0750   37.8740 N   0  0  0  0  0  0  0  0  0  0  0  0
   45.8850   33.0320   36.6160 C   0  0  0  0  0  0  0  0  0  0  0  0
   47.2280   32.8030   36.5990 C   0  0  0  0  0  0  0  0  0  0  0  0
   47.5690   32.7250   37.9320 C   0  0  0  0  0  0  0  0  0  0  0  0
   48.8800   32.5010   38.5170 N   0  0  0  0  0  0  0  0  0  0  0  0
   48.1870   32.6560   35.4700 C   0  0  0  0  0  0  0  0  0  0  0  0
   46.7247   34.8677   39.8610 H   0  0  0  0  0  0  0  0  0  0  0  0
   48.1574   36.4054   41.0349 H   0  0  0  0  0  0  0  0  0  0  0  0
   47.8784   32.2471   41.9257 H   0  0  0  0  0  0  0  0  0  0  0  0
   51.2699   34.5027   43.1227 H   0  0  0  0  0  0  0  0  0  0  0  0
   43.8242   34.6265   40.0175 H   0  0  0  0  0  0  0  0  0  0  0  0
   42.3312   35.5823   42.0695 H   0  0  0  0  0  0  0  0  0  0  0  0
   43.9553   35.8500   44.1981 H   0  0  0  0  0  0  0  0  0  0  0  0
   46.9268   32.1423   40.6312 H   0  0  0  0  0  0  0  0  0  0  0  0
   45.2273   32.6908   40.3308 H   0  0  0  0  0  0  0  0  0  0  0  0
   45.2299   33.1568   35.7412 H   0  0  0  0  0  0  0  0  0  0  0  0
   48.9880   32.4662   39.5407 H   0  0  0  0  0  0  0  0  0  0  0  0
   49.7013   32.3770   37.9080 H   0  0  0  0  0  0  0  0  0  0  0  0
   49.2007   32.5006   35.8678 H   0  0  0  0  0  0  0  0  0  0  0  0
   47.8984   31.7916   34.8539 H   0  0  0  0  0  0  0  0  0  0  0  0
   48.1706   33.5672   34.8539 H   0  0  0  0  0  0  0  0  0  0  0  0
  1  3  1  0
  1  8  1  0
  2  7  2  0
  3  2  1  0
  3  4  2  0
  4  5  1  0
  5  6  2  0
  7  6  1  0
  8 12  1  0
  9  8  2  0
  9 10  1  0
 10 11  2  0
 12 11  1  0
 13  1  1  0
 14 13  1  0
 15 14  1  0
 16 15  2  0
 17 16  1  0
 17 18  2  0
 18 19  1  0
 18 14  1  0
 20 17  1  0
  1 21  1  6
  2 22  1  0
  4 23  1  0
  6 24  1  0
  9 25  1  0
 10 26  1  0
 11 27  1  0
 13 28  1  0
 13 29  1  0
 16 30  1  0
 19 31  1  0
 19 32  1  0
 20 33  1  0
 20 34  1  0
 20 35  1  0
M  ISO  8  21   8  22  14  23  14  24  14  25  14  26  14  27  14  28   8
M  ISO  5  29   8  30  14  33   8  34   8  35   8
M  END
>  <minimizedAffinity>  (1) 
-4.50680447

>  <minimizedRMSD>  (1) 
0.199375913

$$$$
