
     RDKit          3D

 24 25  0  0  0  0  0  0  0  0999 V2000
   46.5530   34.8000   43.5040 O   0  0  0  0  0  0  0  0  0  0  0  0
   46.5950   33.6510   44.3330 C   0  0  0  0  0  0  0  0  0  0  0  0
   47.2440   32.5010   43.9200 C   0  0  0  0  0  0  0  0  0  0  0  0
   47.2210   31.4500   44.8010 C   0  0  0  0  0  0  0  0  0  0  0  0
   46.6380   31.4580   45.9840 N   0  0  0  0  0  0  0  0  0  0  0  0
   46.0070   32.5960   46.3710 C   0  0  0  0  0  0  0  0  0  0  0  0
   45.9780   33.6870   45.5620 N   0  0  0  0  0  0  0  0  0  0  0  0
   45.3570   32.5940   47.7010 C   0  0  0  0  0  0  0  0  0  0  0  0
   44.5110   33.6790   47.8260 F   0  0  0  0  0  0  0  0  0  0  0  0
   44.6180   31.4410   47.8920 F   0  0  0  0  0  0  0  0  0  0  0  0
   46.3090   32.7500   48.6930 F   0  0  0  0  0  0  0  0  0  0  0  0
   45.3040   35.4110   43.2800 C   0  0  0  0  0  0  0  0  0  0  0  0
   44.8820   36.2630   44.0800 O   0  0  0  0  0  0  0  0  0  0  0  0
   45.2020   34.2230   41.0440 C   0  0  0  0  0  0  0  0  0  0  0  0
   44.5990   34.9640   42.0730 C   0  0  0  0  0  0  0  0  0  0  0  0
   43.2450   35.3030   41.9600 C   0  0  0  0  0  0  0  0  0  0  0  0
   42.5530   34.8980   40.8410 N   0  0  0  0  0  0  0  0  0  0  0  0
   43.1950   34.1850   39.8810 C   0  0  0  0  0  0  0  0  0  0  0  0
   44.4870   33.8550   39.9800 N   0  0  0  0  0  0  0  0  0  0  0  0
   47.7478   32.4337   42.9445 H   0  0  0  0  0  0  0  0  0  0  0  0
   47.7307   30.5243   44.4958 H   0  0  0  0  0  0  0  0  0  0  0  0
   46.2642   33.9460   41.1154 H   0  0  0  0  0  0  0  0  0  0  0  0
   42.7441   35.8817   42.7501 H   0  0  0  0  0  0  0  0  0  0  0  0
   42.6328   33.8675   38.9904 H   0  0  0  0  0  0  0  0  0  0  0  0
  1  2  1  0
  2  7  1  0
  3  2  2  0
  3  4  1  0
  4  5  2  0
  5  6  1  0
  6  8  1  0
  7  6  2  0
  8  9  1  0
  8 10  1  0
  8 11  1  0
 12  1  1  0
 12 13  2  0
 14 15  2  0
 15 12  1  0
 16 15  1  0
 17 16  2  0
 18 19  2  0
 18 17  1  0
 19 14  1  0
  3 20  1  0
  4 21  1  0
 14 22  1  0
 16 23  1  0
 18 24  1  0
M  ISO  5  20  14  21  14  22  14  23  14  24  14
M  END
>  <minimizedAffinity>  (1) 
-4.87189913

>  <minimizedRMSD>  (1) 
5.50819302

$$$$
