
     RDKit          3D

 34 36  0  0  0  0  0  0  0  0999 V2000
   47.2640   34.1610   40.1810 C   0  0  0  0  0  0  0  0  0  0  0  0
   48.1930   34.0950   39.1570 C   0  0  0  0  0  0  0  0  0  0  0  0
   47.7440   33.6570   37.9360 C   0  0  0  0  0  0  0  0  0  0  0  0
   46.5010   33.2970   37.6700 N   0  0  0  0  0  0  0  0  0  0  0  0
   45.5890   33.3650   38.6860 C   0  0  0  0  0  0  0  0  0  0  0  0
   45.9700   33.7920   39.9180 N   0  0  0  0  0  0  0  0  0  0  0  0
   44.2030   33.0360   38.6480 N   0  0  0  0  0  0  0  0  0  0  0  0
   43.9210   32.0450   37.7850 C   0  0  0  0  0  0  0  0  0  0  0  0
   42.5970   31.6360   37.6630 C   0  0  0  0  0  0  0  0  0  0  0  0
   42.1270   30.5570   36.7540 C   0  0  0  0  0  0  0  0  0  0  0  0
   41.6940   32.3080   38.4600 C   0  0  0  0  0  0  0  0  0  0  0  0
   40.4800   31.9570   38.3690 O   0  0  0  0  0  0  0  0  0  0  0  0
   41.9760   33.3010   39.3240 N   0  0  0  0  0  0  0  0  0  0  0  0
   43.2890   33.6660   39.4090 C   0  0  0  0  0  0  0  0  0  0  0  0
   43.6410   34.5850   40.1920 O   0  0  0  0  0  0  0  0  0  0  0  0
   47.6330   34.5990   41.4650 O   0  0  0  0  0  0  0  0  0  0  0  0
   47.2760   33.8060   42.5740 C   0  0  0  0  0  0  0  0  0  0  0  0
   47.7830   32.6820   42.6890 O   0  0  0  0  0  0  0  0  0  0  0  0
   45.5780   35.5790   43.1840 C   0  0  0  0  0  0  0  0  0  0  0  0
   46.3140   34.4130   43.5020 C   0  0  0  0  0  0  0  0  0  0  0  0
   46.1460   33.7890   44.7300 C   0  0  0  0  0  0  0  0  0  0  0  0
   45.2490   34.3400   45.6180 N   0  0  0  0  0  0  0  0  0  0  0  0
   44.5600   35.4590   45.2800 C   0  0  0  0  0  0  0  0  0  0  0  0
   44.7190   36.0650   44.0940 N   0  0  0  0  0  0  0  0  0  0  0  0
   49.2435   34.3806   39.3145 H   0  0  0  0  0  0  0  0  0  0  0  0
   48.4752   33.6015   37.1161 H   0  0  0  0  0  0  0  0  0  0  0  0
   44.7158   31.5701   37.1911 H   0  0  0  0  0  0  0  0  0  0  0  0
   41.7580   29.7098   37.3507 H   0  0  0  0  0  0  0  0  0  0  0  0
   41.3143   30.9402   36.1195 H   0  0  0  0  0  0  0  0  0  0  0  0
   42.9611   30.2229   36.1195 H   0  0  0  0  0  0  0  0  0  0  0  0
   41.2449   33.7582   39.8874 H   0  0  0  0  0  0  0  0  0  0  0  0
   45.7070   36.0767   42.2116 H   0  0  0  0  0  0  0  0  0  0  0  0
   46.7123   32.8815   44.9865 H   0  0  0  0  0  0  0  0  0  0  0  0
   43.8474   35.8833   46.0026 H   0  0  0  0  0  0  0  0  0  0  0  0
  1 16  1  0
  2  1  2  0
  3  2  1  0
  4  3  2  0
  4  5  1  0
  5  6  2  0
  6  1  1  0
  7  5  1  0
  7 14  1  0
  8  7  1  0
  9  8  2  0
  9 11  1  0
 10  9  1  0
 11 13  1  0
 12 11  2  0
 13 14  1  0
 14 15  2  0
 16 17  1  0
 17 18  2  0
 17 20  1  0
 19 20  2  0
 19 24  1  0
 20 21  1  0
 21 22  2  0
 23 22  1  0
 24 23  2  0
  2 25  1  0
  3 26  1  0
  8 27  1  0
 10 28  1  0
 10 29  1  0
 10 30  1  0
 13 31  1  0
 19 32  1  0
 21 33  1  0
 23 34  1  0
M  ISO  8  25  14  26  14  27  14  28   8  29   8  30   8  31   9  32  14
M  ISO  2  33  14  34  14
M  END
>  <minimizedAffinity>  (1) 
-5.36910486

>  <minimizedRMSD>  (1) 
7.65167093

$$$$
