
     RDKit          3D

 28 30  0  0  0  0  0  0  0  0999 V2000
   45.8850   33.3020   40.0010 C   0  0  0  0  0  0  0  0  0  0  0  0
   47.1610   33.6970   39.5920 C   0  0  0  0  0  0  0  0  0  0  0  0
   47.8940   34.4330   40.4990 C   0  0  0  0  0  0  0  0  0  0  0  0
   47.4600   34.7780   41.7130 N   0  0  0  0  0  0  0  0  0  0  0  0
   46.2220   34.3800   42.0750 C   0  0  0  0  0  0  0  0  0  0  0  0
   45.4340   33.6460   41.2320 N   0  0  0  0  0  0  0  0  0  0  0  0
   45.6770   34.6930   43.3320 N   0  0  0  0  0  0  0  0  0  0  0  0
   44.8250   35.7580   43.3890 C   0  0  0  0  0  0  0  0  0  0  0  0
   44.4190   35.8740   44.7110 C   0  0  0  0  0  0  0  0  0  0  0  0
   45.0230   34.8970   45.4110 N   0  0  0  0  0  0  0  0  0  0  0  0
   45.8020   34.1630   44.5630 C   0  0  0  0  0  0  0  0  0  0  0  0
   45.0570   32.5420   39.1390 O   0  0  0  0  0  0  0  0  0  0  0  0
   44.3360   33.2260   38.1340 C   0  0  0  0  0  0  0  0  0  0  0  0
   44.9050   33.5080   37.0610 O   0  0  0  0  0  0  0  0  0  0  0  0
   41.8900   32.6360   38.3160 C   0  0  0  0  0  0  0  0  0  0  0  0
   42.9490   33.5380   38.4770 C   0  0  0  0  0  0  0  0  0  0  0  0
   42.7060   34.8170   38.9900 C   0  0  0  0  0  0  0  0  0  0  0  0
   41.4020   35.1340   39.3220 N   0  0  0  0  0  0  0  0  0  0  0  0
   40.4090   34.2300   39.1490 C   0  0  0  0  0  0  0  0  0  0  0  0
   40.6450   33.0160   38.6610 N   0  0  0  0  0  0  0  0  0  0  0  0
   47.5593   33.4352   38.6006 H   0  0  0  0  0  0  0  0  0  0  0  0
   48.9025   34.7570   40.2025 H   0  0  0  0  0  0  0  0  0  0  0  0
   44.5194   36.3999   42.5496 H   0  0  0  0  0  0  0  0  0  0  0  0
   43.7278   36.6289   45.1138 H   0  0  0  0  0  0  0  0  0  0  0  0
   46.4201   33.2952   44.8365 H   0  0  0  0  0  0  0  0  0  0  0  0
   42.0729   31.6291   37.9126 H   0  0  0  0  0  0  0  0  0  0  0  0
   43.5217   35.5427   39.1240 H   0  0  0  0  0  0  0  0  0  0  0  0
   39.3795   34.5074   39.4194 H   0  0  0  0  0  0  0  0  0  0  0  0
  1  6  1  0
  2  1  2  0
  2  3  1  0
  3  4  2  0
  4  5  1  0
  5  7  1  0
  6  5  2  0
  7  8  1  0
  7 11  1  0
  8  9  2  0
  9 10  1  0
 11 10  2  0
 12  1  1  0
 13 16  1  0
 13 12  1  0
 14 13  2  0
 15 16  2  0
 15 20  1  0
 16 17  1  0
 17 18  2  0
 19 18  1  0
 20 19  2  0
  2 21  1  0
  3 22  1  0
  8 23  1  0
  9 24  1  0
 11 25  1  0
 15 26  1  0
 17 27  1  0
 19 28  1  0
M  ISO  8  21  14  22  14  23  14  24  14  25  14  26  14  27  14  28  14
M  END
>  <minimizedAffinity>  (1) 
-4.75304699

>  <minimizedRMSD>  (1) 
5.93518686

$$$$
