
     RDKit          3D

 28 30  0  0  0  0  0  0  0  0999 V2000
   45.2980   33.6120   40.4650 C   0  0  0  0  0  0  0  0  0  0  0  0
   45.4230   32.2480   40.6800 C   0  0  0  0  0  0  0  0  0  0  0  0
   44.3730   31.4710   40.2340 C   0  0  0  0  0  0  0  0  0  0  0  0
   43.2790   31.9270   39.6280 N   0  0  0  0  0  0  0  0  0  0  0  0
   43.1940   33.2750   39.4350 C   0  0  0  0  0  0  0  0  0  0  0  0
   44.1910   34.0960   39.8490 N   0  0  0  0  0  0  0  0  0  0  0  0
   42.0910   33.9860   38.7960 C   0  0  0  0  0  0  0  0  0  0  0  0
   42.2650   35.3380   38.5100 C   0  0  0  0  0  0  0  0  0  0  0  0
   41.0780   35.7770   37.9090 C   0  0  0  0  0  0  0  0  0  0  0  0
   40.2610   34.6530   37.8720 C   0  0  0  0  0  0  0  0  0  0  0  0
   40.8790   33.6380   38.3930 O   0  0  0  0  0  0  0  0  0  0  0  0
   46.3190   34.4950   40.8840 O   0  0  0  0  0  0  0  0  0  0  0  0
   46.9100   34.2770   42.1530 C   0  0  0  0  0  0  0  0  0  0  0  0
   48.0490   33.7710   42.2250 O   0  0  0  0  0  0  0  0  0  0  0  0
   45.3250   35.8670   43.3310 C   0  0  0  0  0  0  0  0  0  0  0  0
   46.0860   34.6860   43.3070 C   0  0  0  0  0  0  0  0  0  0  0  0
   46.0840   33.8340   44.4090 C   0  0  0  0  0  0  0  0  0  0  0  0
   45.3260   34.1870   45.5000 N   0  0  0  0  0  0  0  0  0  0  0  0
   44.6070   35.3380   45.4790 C   0  0  0  0  0  0  0  0  0  0  0  0
   44.6030   36.1650   44.4190 N   0  0  0  0  0  0  0  0  0  0  0  0
   46.3036   31.8125   41.1749 H   0  0  0  0  0  0  0  0  0  0  0  0
   44.4463   30.3849   40.3925 H   0  0  0  0  0  0  0  0  0  0  0  0
   43.1601   35.9433   38.7159 H   0  0  0  0  0  0  0  0  0  0  0  0
   40.8440   36.7887   37.5462 H   0  0  0  0  0  0  0  0  0  0  0  0
   39.2408   34.6277   37.4615 H   0  0  0  0  0  0  0  0  0  0  0  0
   45.3223   36.5420   42.4624 H   0  0  0  0  0  0  0  0  0  0  0  0
   46.6725   32.9047   44.4062 H   0  0  0  0  0  0  0  0  0  0  0  0
   44.0059   35.6038   46.3611 H   0  0  0  0  0  0  0  0  0  0  0  0
  1  2  2  0
  1 12  1  0
  3  2  1  0
  4  3  2  0
  5  4  1  0
  5  6  2  0
  6  1  1  0
  7  5  1  0
  8  7  2  0
  9  8  1  0
 10  9  2  0
 10 11  1  0
 11  7  1  0
 12 13  1  0
 13 14  2  0
 13 16  1  0
 15 20  2  0
 16 15  1  0
 16 17  2  0
 17 18  1  0
 19 18  2  0
 20 19  1  0
  2 21  1  0
  3 22  1  0
  8 23  1  0
  9 24  1  0
 10 25  1  0
 15 26  1  0
 17 27  1  0
 19 28  1  0
M  ISO  8  21  14  22  14  23  14  24  14  25  14  26  14  27  14  28  14
M  END
>  <minimizedAffinity>  (1) 
-4.86044788

>  <minimizedRMSD>  (1) 
7.17710972

$$$$
