
     RDKit          3D

 28 30  0  0  0  0  0  0  0  0999 V2000
   45.6000   32.9420   39.0530 C   0  0  0  0  0  0  0  0  0  0  0  0
   45.9220   33.0890   37.7110 C   0  0  0  0  0  0  0  0  0  0  0  0
   47.1730   33.5830   37.4220 C   0  0  0  0  0  0  0  0  0  0  0  0
   48.0800   33.9240   38.3250 N   0  0  0  0  0  0  0  0  0  0  0  0
   47.7450   33.7730   39.6460 C   0  0  0  0  0  0  0  0  0  0  0  0
   46.5180   33.2860   40.0040 N   0  0  0  0  0  0  0  0  0  0  0  0
   48.6110   34.0940   40.7330 N   0  0  0  0  0  0  0  0  0  0  0  0
   49.4860   33.4680   41.4790 N   0  0  0  0  0  0  0  0  0  0  0  0
   50.0230   34.2970   42.3850 C   0  0  0  0  0  0  0  0  0  0  0  0
   49.4420   35.5500   42.1990 C   0  0  0  0  0  0  0  0  0  0  0  0
   48.5440   35.3930   41.1380 C   0  0  0  0  0  0  0  0  0  0  0  0
   44.3520   32.4470   39.4740 O   0  0  0  0  0  0  0  0  0  0  0  0
   43.2180   32.7220   38.6600 C   0  0  0  0  0  0  0  0  0  0  0  0
   43.0370   32.0560   37.6330 O   0  0  0  0  0  0  0  0  0  0  0  0
   42.6170   34.5370   40.3230 C   0  0  0  0  0  0  0  0  0  0  0  0
   42.3550   33.8090   39.1480 C   0  0  0  0  0  0  0  0  0  0  0  0
   41.2290   34.1050   38.3790 C   0  0  0  0  0  0  0  0  0  0  0  0
   40.4090   35.1260   38.8290 N   0  0  0  0  0  0  0  0  0  0  0  0
   40.7020   35.7970   39.9650 C   0  0  0  0  0  0  0  0  0  0  0  0
   41.7740   35.5160   40.6970 N   0  0  0  0  0  0  0  0  0  0  0  0
   45.2102   32.8230   36.9157 H   0  0  0  0  0  0  0  0  0  0  0  0
   47.4400   33.7038   36.3618 H   0  0  0  0  0  0  0  0  0  0  0  0
   50.7824   34.0364   43.1369 H   0  0  0  0  0  0  0  0  0  0  0  0
   49.6466   36.4694   42.7672 H   0  0  0  0  0  0  0  0  0  0  0  0
   47.9010   36.1756   40.7090 H   0  0  0  0  0  0  0  0  0  0  0  0
   43.5044   34.3073   40.9311 H   0  0  0  0  0  0  0  0  0  0  0  0
   41.0026   33.5515   37.4557 H   0  0  0  0  0  0  0  0  0  0  0  0
   40.0299   36.6031   40.2945 H   0  0  0  0  0  0  0  0  0  0  0  0
  1 12  1  0
  1  6  1  0
  2  1  2  0
  3  2  1  0
  3  4  2  0
  4  5  1  0
  5  6  2  0
  5  7  1  0
  7 11  1  0
  7  8  1  0
  8  9  2  0
 10  9  1  0
 11 10  2  0
 13 16  1  0
 13 12  1  0
 14 13  2  0
 15 20  2  0
 16 15  1  0
 17 18  1  0
 17 16  2  0
 18 19  2  0
 19 20  1  0
  2 21  1  0
  3 22  1  0
  9 23  1  0
 10 24  1  0
 11 25  1  0
 15 26  1  0
 17 27  1  0
 19 28  1  0
M  ISO  8  21  14  22  14  23  14  24  14  25  14  26  14  27  14  28  14
M  END
>  <minimizedAffinity>  (1) 
-4.67110395

>  <minimizedRMSD>  (1) 
5.25500202

$$$$
