
     RDKit          3D

 30 31  0  0  0  0  0  0  0  0999 V2000
   44.3990   34.4730   42.7340 O   0  0  0  0  0  0  0  0  0  0  0  0
   43.8850   34.2580   41.4390 C   0  0  0  0  0  0  0  0  0  0  0  0
   44.6630   33.6790   40.4390 C   0  0  0  0  0  0  0  0  0  0  0  0
   44.0590   33.5200   39.2180 C   0  0  0  0  0  0  0  0  0  0  0  0
   42.8130   33.8670   38.9210 N   0  0  0  0  0  0  0  0  0  0  0  0
   42.0730   34.4320   39.9200 C   0  0  0  0  0  0  0  0  0  0  0  0
   42.5910   34.6270   41.1560 N   0  0  0  0  0  0  0  0  0  0  0  0
   40.6480   34.8790   39.7390 C   0  0  0  0  0  0  0  0  0  0  0  0
   40.3470   36.1570   40.4860 C   0  0  0  0  0  0  0  0  0  0  0  0
   40.2750   35.0590   38.2940 C   0  0  0  0  0  0  0  0  0  0  0  0
   45.4830   35.3690   42.8780 C   0  0  0  0  0  0  0  0  0  0  0  0
   45.2530   36.5770   43.0680 O   0  0  0  0  0  0  0  0  0  0  0  0
   47.1790   33.5940   43.4950 C   0  0  0  0  0  0  0  0  0  0  0  0
   46.8100   34.7590   42.7820 C   0  0  0  0  0  0  0  0  0  0  0  0
   47.7400   35.3740   41.9410 C   0  0  0  0  0  0  0  0  0  0  0  0
   48.9960   34.8180   41.8340 N   0  0  0  0  0  0  0  0  0  0  0  0
   49.3020   33.7010   42.5380 C   0  0  0  0  0  0  0  0  0  0  0  0
   48.4240   33.0970   43.3500 N   0  0  0  0  0  0  0  0  0  0  0  0
   45.7025   33.3671   40.6184 H   0  0  0  0  0  0  0  0  0  0  0  0
   44.6590   33.0657   38.4158 H   0  0  0  0  0  0  0  0  0  0  0  0
   40.0397   34.0653   40.1607 H   0  0  0  0  0  0  0  0  0  0  0  0
   40.3915   35.9680   41.5687 H   0  0  0  0  0  0  0  0  0  0  0  0
   41.0894   36.9227   40.2166 H   0  0  0  0  0  0  0  0  0  0  0  0
   39.3409   36.5109   40.2166 H   0  0  0  0  0  0  0  0  0  0  0  0
   39.2861   35.5362   38.2273 H   0  0  0  0  0  0  0  0  0  0  0  0
   41.0233   35.6951   37.7987 H   0  0  0  0  0  0  0  0  0  0  0  0
   40.2426   34.0774   37.7987 H   0  0  0  0  0  0  0  0  0  0  0  0
   46.4573   33.0986   44.1611 H   0  0  0  0  0  0  0  0  0  0  0  0
   47.4759   36.2809   41.3773 H   0  0  0  0  0  0  0  0  0  0  0  0
   50.3107   33.2736   42.4388 H   0  0  0  0  0  0  0  0  0  0  0  0
  1 11  1  0
  2  1  1  0
  3  2  2  0
  4  3  1  0
  5  4  2  0
  5  6  1  0
  6  7  2  0
  7  2  1  0
  8  6  1  0
  8  9  1  0
 10  8  1  0
 11 12  2  0
 14 11  1  0
 14 13  2  0
 15 14  1  0
 16 15  2  0
 16 17  1  0
 17 18  2  0
 18 13  1  0
  3 19  1  0
  4 20  1  0
  8 21  1  0
  9 22  1  0
  9 23  1  0
  9 24  1  0
 10 25  1  0
 10 26  1  0
 10 27  1  0
 13 28  1  0
 15 29  1  0
 17 30  1  0
M  ISO  8  19  14  20  14  21   8  22   8  23   8  24   8  25   8  26   8
M  ISO  4  27   8  28  14  29  14  30  14
M  END
>  <minimizedAffinity>  (1) 
-4.66069317

>  <minimizedRMSD>  (1) 
6.69008684

$$$$
