
     RDKit          3D

 22 23  0  0  0  0  0  0  0  0999 V2000
   45.4700   33.0910   42.3660 C   0  0  0  0  0  0  0  0  0  0  0  0
   44.4600   33.3550   41.7030 O   0  0  0  0  0  0  0  0  0  0  0  0
   45.9670   31.9530   44.5680 C   0  0  0  0  0  0  0  0  0  0  0  0
   45.5540   33.0780   43.8280 C   0  0  0  0  0  0  0  0  0  0  0  0
   45.2000   34.2540   44.4930 C   0  0  0  0  0  0  0  0  0  0  0  0
   45.2720   34.2580   45.8670 N   0  0  0  0  0  0  0  0  0  0  0  0
   45.6720   33.1660   46.5360 C   0  0  0  0  0  0  0  0  0  0  0  0
   46.0160   32.0280   45.9120 N   0  0  0  0  0  0  0  0  0  0  0  0
   46.6700   32.7690   41.6940 O   0  0  0  0  0  0  0  0  0  0  0  0
   47.7720   33.6430   41.8410 C   0  0  0  0  0  0  0  0  0  0  0  0
   47.6360   35.0110   41.5810 C   0  0  0  0  0  0  0  0  0  0  0  0
   48.7740   35.7550   41.7590 C   0  0  0  0  0  0  0  0  0  0  0  0
   49.9470   35.3030   42.1430 N   0  0  0  0  0  0  0  0  0  0  0  0
   50.0540   33.9580   42.3910 C   0  0  0  0  0  0  0  0  0  0  0  0
   48.9740   33.1560   42.2370 N   0  0  0  0  0  0  0  0  0  0  0  0
   51.2360   33.3820   42.7970 O   0  0  0  0  0  0  0  0  0  0  0  0
   46.2469   31.0220   44.0533 H   0  0  0  0  0  0  0  0  0  0  0  0
   44.8749   35.1461   43.9376 H   0  0  0  0  0  0  0  0  0  0  0  0
   45.7198   33.2044   47.6343 H   0  0  0  0  0  0  0  0  0  0  0  0
   46.6844   35.4577   41.2570 H   0  0  0  0  0  0  0  0  0  0  0  0
   48.6979   36.8344   41.5613 H   0  0  0  0  0  0  0  0  0  0  0  0
   51.2790   32.4077   42.9675 H   0  0  0  0  0  0  0  0  0  0  0  0
  1  4  1  0
  2  1  2  0
  3  8  2  0
  4  5  2  0
  4  3  1  0
  5  6  1  0
  6  7  2  0
  8  7  1  0
  9 10  1  0
  9  1  1  0
 10 15  2  0
 11 12  2  0
 11 10  1  0
 12 13  1  0
 13 14  2  0
 14 16  1  0
 15 14  1  0
  3 17  1  0
  5 18  1  0
  7 19  1  0
 11 20  1  0
 12 21  1  0
 16 22  1  0
M  ISO  6  17  14  18  14  19  14  20  14  21  14  22   3
M  END
>  <minimizedAffinity>  (1) 
-4.21562672

>  <minimizedRMSD>  (1) 
0.205123186

$$$$
