
     RDKit          3D

 33 35  0  0  0  0  0  0  0  0999 V2000
   46.9180   34.1020   41.4850 C   0  0  0  0  0  0  0  0  0  0  0  0
   47.4460   35.3330   41.8760 C   0  0  0  0  0  0  0  0  0  0  0  0
   48.8140   35.4250   41.9310 C   0  0  0  0  0  0  0  0  0  0  0  0
   49.6490   34.4390   41.6440 N   0  0  0  0  0  0  0  0  0  0  0  0
   49.1130   33.2460   41.2650 C   0  0  0  0  0  0  0  0  0  0  0  0
   47.7730   33.0760   41.1860 N   0  0  0  0  0  0  0  0  0  0  0  0
   49.9470   32.1420   40.9410 N   0  0  0  0  0  0  0  0  0  0  0  0
   49.5590   30.9110   40.2380 C   0  0  0  0  0  0  0  0  0  0  0  0
   50.5970   29.8930   40.5830 C   0  0  0  0  0  0  0  0  0  0  0  0
   51.3390   30.5420   41.7570 C   0  0  0  0  0  0  0  0  0  0  0  0
   51.3590   31.9830   41.2310 C   0  0  0  0  0  0  0  0  0  0  0  0
   45.5290   33.9030   41.3960 O   0  0  0  0  0  0  0  0  0  0  0  0
   44.7350   34.2140   42.5200 C   0  0  0  0  0  0  0  0  0  0  0  0
   43.7560   34.9730   42.3760 O   0  0  0  0  0  0  0  0  0  0  0  0
   45.4890   32.2290   43.8880 C   0  0  0  0  0  0  0  0  0  0  0  0
   45.1630   33.5870   43.7840 C   0  0  0  0  0  0  0  0  0  0  0  0
   45.2310   34.4240   44.8900 C   0  0  0  0  0  0  0  0  0  0  0  0
   45.6320   33.8460   46.0840 N   0  0  0  0  0  0  0  0  0  0  0  0
   45.9360   32.5370   46.1420 C   0  0  0  0  0  0  0  0  0  0  0  0
   45.8670   31.7410   45.0730 N   0  0  0  0  0  0  0  0  0  0  0  0
   46.7987   36.1861   42.1273 H   0  0  0  0  0  0  0  0  0  0  0  0
   49.2484   36.3885   42.2359 H   0  0  0  0  0  0  0  0  0  0  0  0
   49.5381   31.0821   39.1516 H   0  0  0  0  0  0  0  0  0  0  0  0
   48.5540   30.5775   40.5358 H   0  0  0  0  0  0  0  0  0  0  0  0
   50.1334   28.9423   40.8852 H   0  0  0  0  0  0  0  0  0  0  0  0
   51.2561   29.6423   39.7387 H   0  0  0  0  0  0  0  0  0  0  0  0
   50.7829   30.4516   42.7018 H   0  0  0  0  0  0  0  0  0  0  0  0
   52.3179   30.1072   42.0074 H   0  0  0  0  0  0  0  0  0  0  0  0
   51.9788   32.0832   40.3278 H   0  0  0  0  0  0  0  0  0  0  0  0
   51.7867   32.7295   41.9164 H   0  0  0  0  0  0  0  0  0  0  0  0
   45.4346   31.5733   43.0065 H   0  0  0  0  0  0  0  0  0  0  0  0
   44.9791   35.4926   44.8217 H   0  0  0  0  0  0  0  0  0  0  0  0
   46.2525   32.1076   47.1040 H   0  0  0  0  0  0  0  0  0  0  0  0
  1  2  2  0
  2  3  1  0
  4  3  2  0
  5  4  1  0
  6  5  2  0
  6  1  1  0
  7 11  1  0
  7  5  1  0
  8  9  1  0
  8  7  1  0
  9 10  1  0
 11 10  1  0
 12  1  1  0
 12 13  1  0
 13 16  1  0
 14 13  2  0
 15 20  2  0
 16 15  1  0
 16 17  2  0
 17 18  1  0
 18 19  2  0
 20 19  1  0
  2 21  1  0
  3 22  1  0
  8 23  1  0
  8 24  1  0
  9 25  1  0
  9 26  1  0
 10 27  1  0
 10 28  1  0
 11 29  1  0
 11 30  1  0
 15 31  1  0
 17 32  1  0
 19 33  1  0
M  ISO  8  21  14  22  14  23  13  24  13  25  13  26  13  27  13  28  13
M  ISO  5  29  13  30  13  31  14  32  14  33  14
M  END
>  <minimizedAffinity>  (1) 
-4.15826273

>  <minimizedRMSD>  (1) 
2.25159168

$$$$
