
     RDKit          3D

 29 31  0  0  0  0  0  0  0  0999 V2000
   46.3890   33.8000   40.2940 C   0  0  0  0  0  0  0  0  0  0  0  0
   46.7170   33.1020   39.1420 C   0  0  0  0  0  0  0  0  0  0  0  0
   45.6860   32.8590   38.2570 C   0  0  0  0  0  0  0  0  0  0  0  0
   44.4200   33.2410   38.4270 N   0  0  0  0  0  0  0  0  0  0  0  0
   44.1280   33.9210   39.5600 C   0  0  0  0  0  0  0  0  0  0  0  0
   45.0910   34.1930   40.4710 N   0  0  0  0  0  0  0  0  0  0  0  0
   42.7610   34.3700   39.8100 C   0  0  0  0  0  0  0  0  0  0  0  0
   41.8820   34.5420   38.7850 C   0  0  0  0  0  0  0  0  0  0  0  0
   40.5950   34.9710   39.0900 C   0  0  0  0  0  0  0  0  0  0  0  0
   40.2530   35.2040   40.3880 N   0  0  0  0  0  0  0  0  0  0  0  0
   41.1300   35.0310   41.4000 C   0  0  0  0  0  0  0  0  0  0  0  0
   42.3650   34.6150   41.0720 N   0  0  0  0  0  0  0  0  0  0  0  0
   47.3660   34.0970   41.2570 O   0  0  0  0  0  0  0  0  0  0  0  0
   47.7010   33.0970   42.1910 C   0  0  0  0  0  0  0  0  0  0  0  0
   48.4710   32.1810   41.8460 O   0  0  0  0  0  0  0  0  0  0  0  0
   46.2580   34.3110   43.8680 C   0  0  0  0  0  0  0  0  0  0  0  0
   47.0920   33.2410   43.5150 C   0  0  0  0  0  0  0  0  0  0  0  0
   47.3800   32.2330   44.4510 C   0  0  0  0  0  0  0  0  0  0  0  0
   46.8040   32.3690   45.7000 N   0  0  0  0  0  0  0  0  0  0  0  0
   46.0120   33.4100   45.9940 C   0  0  0  0  0  0  0  0  0  0  0  0
   45.7380   34.3710   45.0970 N   0  0  0  0  0  0  0  0  0  0  0  0
   47.7436   32.7602   38.9439 H   0  0  0  0  0  0  0  0  0  0  0  0
   45.9283   32.3058   37.3377 H   0  0  0  0  0  0  0  0  0  0  0  0
   42.1814   34.3471   37.7446 H   0  0  0  0  0  0  0  0  0  0  0  0
   39.8573   35.1214   38.2880 H   0  0  0  0  0  0  0  0  0  0  0  0
   40.8464   35.2219   42.4455 H   0  0  0  0  0  0  0  0  0  0  0  0
   46.0323   35.0993   43.1348 H   0  0  0  0  0  0  0  0  0  0  0  0
   48.0296   31.3807   44.2027 H   0  0  0  0  0  0  0  0  0  0  0  0
   45.5734   33.4790   47.0004 H   0  0  0  0  0  0  0  0  0  0  0  0
  1  6  1  0
  1 13  1  0
  2  1  2  0
  3  4  2  0
  3  2  1  0
  4  5  1  0
  5  7  1  0
  5  6  2  0
  7 12  2  0
  8  9  2  0
  8  7  1  0
  9 10  1  0
 10 11  2  0
 12 11  1  0
 13 14  1  0
 14 17  1  0
 15 14  2  0
 16 21  2  0
 17 16  1  0
 17 18  2  0
 18 19  1  0
 19 20  2  0
 21 20  1  0
  2 22  1  0
  3 23  1  0
  8 24  1  0
  9 25  1  0
 11 26  1  0
 16 27  1  0
 18 28  1  0
 20 29  1  0
M  ISO  8  22  14  23  14  24  14  25  14  26  14  27  14  28  14  29  14
M  END
>  <minimizedAffinity>  (1) 
-4.26762676

>  <minimizedRMSD>  (1) 
7.05982447

$$$$
