
     RDKit          3D

 48 51  0  0  0  0  0  0  0  0999 V2000
   46.5320   32.7160   39.1370 C   0  0  0  0  0  0  0  0  0  0  0  0
   47.5060   33.4340   38.4450 C   0  0  0  0  0  0  0  0  0  0  0  0
   48.1480   34.4190   39.1650 C   0  0  0  0  0  0  0  0  0  0  0  0
   47.9110   34.7180   40.4290 N   0  0  0  0  0  0  0  0  0  0  0  0
   46.9520   33.9930   41.0710 C   0  0  0  0  0  0  0  0  0  0  0  0
   46.2650   33.0060   40.4550 N   0  0  0  0  0  0  0  0  0  0  0  0
   46.6320   34.2520   42.4410 N   0  0  0  0  0  0  0  0  0  0  0  0
   46.1410   35.5320   42.9320 C   0  0  0  0  0  0  0  0  0  0  0  0
   45.1720   35.1930   44.0360 C   0  0  0  0  0  0  0  0  0  0  0  0
   44.5090   33.9230   43.8160 N   0  0  0  0  0  0  0  0  0  0  0  0
   45.3730   32.7900   43.8070 C   0  0  0  0  0  0  0  0  0  0  0  0
   46.7830   33.2230   43.4640 C   0  0  0  0  0  0  0  0  0  0  0  0
   45.8070   31.6800   38.4990 O   0  0  0  0  0  0  0  0  0  0  0  0
   44.6170   32.0200   37.8260 C   0  0  0  0  0  0  0  0  0  0  0  0
   44.5270   31.8130   36.5970 O   0  0  0  0  0  0  0  0  0  0  0  0
   42.9430   31.8840   39.7070 C   0  0  0  0  0  0  0  0  0  0  0  0
   43.5620   32.6060   38.6680 C   0  0  0  0  0  0  0  0  0  0  0  0
   43.1920   33.9110   38.3990 C   0  0  0  0  0  0  0  0  0  0  0  0
   42.2060   34.4730   39.1780 N   0  0  0  0  0  0  0  0  0  0  0  0
   41.6290   33.7660   40.1660 C   0  0  0  0  0  0  0  0  0  0  0  0
   41.9930   32.4980   40.4220 N   0  0  0  0  0  0  0  0  0  0  0  0
   40.5600   34.4000   40.9990 C   0  0  0  0  0  0  0  0  0  0  0  0
   39.6440   35.2790   40.2160 C   0  0  0  0  0  0  0  0  0  0  0  0
   38.6300   34.3180   39.6510 C   0  0  0  0  0  0  0  0  0  0  0  0
   38.7090   33.0510   40.4500 C   0  0  0  0  0  0  0  0  0  0  0  0
   39.6640   33.3170   41.5860 C   0  0  0  0  0  0  0  0  0  0  0  0
   47.7470   33.2279   37.3917 H   0  0  0  0  0  0  0  0  0  0  0  0
   48.9206   35.0034   38.6439 H   0  0  0  0  0  0  0  0  0  0  0  0
   46.9716   36.1387   43.3219 H   0  0  0  0  0  0  0  0  0  0  0  0
   45.6628   36.1196   42.1345 H   0  0  0  0  0  0  0  0  0  0  0  0
   45.7224   35.1445   44.9871 H   0  0  0  0  0  0  0  0  0  0  0  0
   44.3998   35.9761   44.0579 H   0  0  0  0  0  0  0  0  0  0  0  0
   43.8148   33.7903   44.5652 H   0  0  0  0  0  0  0  0  0  0  0  0
   45.3673   32.3185   44.8008 H   0  0  0  0  0  0  0  0  0  0  0  0
   45.0205   32.0704   43.0534 H   0  0  0  0  0  0  0  0  0  0  0  0
   47.3626   32.3736   43.0734 H   0  0  0  0  0  0  0  0  0  0  0  0
   47.3227   33.5980   44.3461 H   0  0  0  0  0  0  0  0  0  0  0  0
   43.2322   30.8452   39.9244 H   0  0  0  0  0  0  0  0  0  0  0  0
   43.6700   34.4814   37.5889 H   0  0  0  0  0  0  0  0  0  0  0  0
   41.0913   34.9939   41.7573 H   0  0  0  0  0  0  0  0  0  0  0  0
   39.1608   36.0223   40.8671 H   0  0  0  0  0  0  0  0  0  0  0  0
   40.1658   35.8565   39.4387 H   0  0  0  0  0  0  0  0  0  0  0  0
   37.6209   34.7486   39.7300 H   0  0  0  0  0  0  0  0  0  0  0  0
   38.8379   34.1181   38.5895 H   0  0  0  0  0  0  0  0  0  0  0  0
   37.7159   32.7875   40.8428 H   0  0  0  0  0  0  0  0  0  0  0  0
   39.0550   32.2114   39.8292 H   0  0  0  0  0  0  0  0  0  0  0  0
   40.2411   32.4163   41.8423 H   0  0  0  0  0  0  0  0  0  0  0  0
   39.1681   33.6110   42.5228 H   0  0  0  0  0  0  0  0  0  0  0  0
  1  6  1  0
  2  1  2  0
  2  3  1  0
  3  4  2  0
  4  5  1  0
  5  7  1  0
  6  5  2  0
  7  8  1  0
  7 12  1  0
  8  9  1  0
 10  9  1  0
 11 10  1  0
 12 11  1  0
 13  1  1  0
 14 13  1  0
 14 17  1  0
 15 14  2  0
 16 21  2  0
 17 16  1  0
 18 17  2  0
 18 19  1  0
 19 20  2  0
 20 21  1  0
 20 22  1  0
 22 26  1  0
 23 22  1  0
 24 23  1  0
 24 25  1  0
 25 26  1  0
  2 27  1  0
  3 28  1  0
  8 29  1  0
  8 30  1  0
  9 31  1  0
  9 32  1  0
 10 33  1  0
 11 34  1  0
 11 35  1  0
 12 36  1  0
 12 37  1  0
 16 38  1  0
 18 39  1  0
 22 40  1  0
 23 41  1  0
 23 42  1  0
 24 43  1  0
 24 44  1  0
 25 45  1  0
 25 46  1  0
 26 47  1  0
 26 48  1  0
M  ISO  8  27  14  28  14  29  13  30  13  31  13  32  13  33   5  34  13
M  ISO  8  35  13  36  13  37  13  38  14  39  14  40  13  41  13  42  13
M  ISO  6  43  13  44  13  45  13  46  13  47  13  48  13
M  END
>  <minimizedAffinity>  (1) 
-5.88212061

>  <minimizedRMSD>  (1) 
1.67512441

$$$$
