
     RDKit          3D

 49 52  0  0  0  0  0  0  0  0999 V2000
   47.0060   33.2730   39.0480 C   0  0  0  0  0  0  0  0  0  0  0  0
   48.0500   34.1090   38.6280 C   0  0  0  0  0  0  0  0  0  0  0  0
   48.5560   34.9630   39.5880 C   0  0  0  0  0  0  0  0  0  0  0  0
   48.1380   35.0430   40.8290 N   0  0  0  0  0  0  0  0  0  0  0  0
   47.1280   34.2250   41.2050 C   0  0  0  0  0  0  0  0  0  0  0  0
   46.5550   33.3470   40.3510 N   0  0  0  0  0  0  0  0  0  0  0  0
   46.6170   34.2520   42.5360 N   0  0  0  0  0  0  0  0  0  0  0  0
   46.0240   35.4320   43.1520 C   0  0  0  0  0  0  0  0  0  0  0  0
   44.9140   34.9040   44.0490 C   0  0  0  0  0  0  0  0  0  0  0  0
   44.3300   33.6850   43.5240 N   0  0  0  0  0  0  0  0  0  0  0  0
   45.2130   32.5840   43.4620 C   0  0  0  0  0  0  0  0  0  0  0  0
   46.6490   33.0820   43.3940 C   0  0  0  0  0  0  0  0  0  0  0  0
   46.4040   32.3570   38.1650 O   0  0  0  0  0  0  0  0  0  0  0  0
   45.2450   32.7630   37.4760 C   0  0  0  0  0  0  0  0  0  0  0  0
   45.3100   33.0400   36.2680 O   0  0  0  0  0  0  0  0  0  0  0  0
   43.4400   31.6590   38.8710 C   0  0  0  0  0  0  0  0  0  0  0  0
   44.0190   32.8200   38.3020 C   0  0  0  0  0  0  0  0  0  0  0  0
   43.4450   34.0740   38.5040 C   0  0  0  0  0  0  0  0  0  0  0  0
   42.3050   34.1480   39.2690 N   0  0  0  0  0  0  0  0  0  0  0  0
   41.7860   33.0140   39.7940 C   0  0  0  0  0  0  0  0  0  0  0  0
   42.3170   31.8150   39.6120 N   0  0  0  0  0  0  0  0  0  0  0  0
   40.6050   33.1990   40.5690 N   0  0  0  0  0  0  0  0  0  0  0  0
   39.6910   34.2880   40.2610 C   0  0  0  0  0  0  0  0  0  0  0  0
   38.3870   33.5700   39.9000 C   0  0  0  0  0  0  0  0  0  0  0  0
   37.9470   32.7020   40.9580 N   0  0  0  0  0  0  0  0  0  0  0  0
   38.9180   31.6880   41.2380 C   0  0  0  0  0  0  0  0  0  0  0  0
   40.2230   32.3560   41.6880 C   0  0  0  0  0  0  0  0  0  0  0  0
   48.4409   34.0862   37.6001 H   0  0  0  0  0  0  0  0  0  0  0  0
   49.3768   35.6309   39.2876 H   0  0  0  0  0  0  0  0  0  0  0  0
   46.7742   35.9742   43.7464 H   0  0  0  0  0  0  0  0  0  0  0  0
   45.6417   36.1380   42.4000 H   0  0  0  0  0  0  0  0  0  0  0  0
   45.3299   34.6985   45.0464 H   0  0  0  0  0  0  0  0  0  0  0  0
   44.1235   35.6672   44.0993 H   0  0  0  0  0  0  0  0  0  0  0  0
   43.5356   33.4252   44.1260 H   0  0  0  0  0  0  0  0  0  0  0  0
   45.0841   31.9609   44.3593 H   0  0  0  0  0  0  0  0  0  0  0  0
   44.9908   31.9887   42.5641 H   0  0  0  0  0  0  0  0  0  0  0  0
   47.3034   32.3090   42.9647 H   0  0  0  0  0  0  0  0  0  0  0  0
   47.0444   33.3205   44.3924 H   0  0  0  0  0  0  0  0  0  0  0  0
   43.8867   30.6658   38.7165 H   0  0  0  0  0  0  0  0  0  0  0  0
   43.8911   34.9782   38.0641 H   0  0  0  0  0  0  0  0  0  0  0  0
   39.5508   34.9423   41.1341 H   0  0  0  0  0  0  0  0  0  0  0  0
   40.0581   34.9401   39.4548 H   0  0  0  0  0  0  0  0  0  0  0  0
   37.6073   34.3220   39.7084 H   0  0  0  0  0  0  0  0  0  0  0  0
   38.5703   32.9554   39.0063 H   0  0  0  0  0  0  0  0  0  0  0  0
   37.7920   33.2619   41.8085 H   0  0  0  0  0  0  0  0  0  0  0  0
   38.5451   31.0313   42.0378 H   0  0  0  0  0  0  0  0  0  0  0  0
   39.1002   31.0886   40.3338 H   0  0  0  0  0  0  0  0  0  0  0  0
   40.9974   31.6008   41.8880 H   0  0  0  0  0  0  0  0  0  0  0  0
   40.1004   32.9279   42.6196 H   0  0  0  0  0  0  0  0  0  0  0  0
  1  6  1  0
  2  1  2  0
  2  3  1  0
  3  4  2  0
  4  5  1  0
  5  7  1  0
  6  5  2  0
  7  8  1  0
  7 12  1  0
  8  9  1  0
 10  9  1  0
 11 10  1  0
 12 11  1  0
 13  1  1  0
 14 13  1  0
 14 17  1  0
 15 14  2  0
 16 21  2  0
 17 18  2  0
 17 16  1  0
 18 19  1  0
 19 20  2  0
 20 22  1  0
 21 20  1  0
 22 27  1  0
 23 22  1  0
 24 23  1  0
 24 25  1  0
 25 26  1  0
 26 27  1  0
  2 28  1  0
  3 29  1  0
  8 30  1  0
  8 31  1  0
  9 32  1  0
  9 33  1  0
 10 34  1  0
 11 35  1  0
 11 36  1  0
 12 37  1  0
 12 38  1  0
 16 39  1  0
 18 40  1  0
 23 41  1  0
 23 42  1  0
 24 43  1  0
 24 44  1  0
 25 45  1  0
 26 46  1  0
 26 47  1  0
 27 48  1  0
 27 49  1  0
M  ISO  8  28  14  29  14  30  13  31  13  32  13  33  13  34   5  35  13
M  ISO  8  36  13  37  13  38  13  39  14  40  14  41  13  42  13  43  13
M  ISO  6  44  13  45   5  46  13  47  13  48  13  49  13
M  END
>  <minimizedAffinity>  (1) 
-6.20115852

>  <minimizedRMSD>  (1) 
1.3160429

$$$$
