
     RDKit          3D

 45 48  0  0  0  0  0  0  0  0999 V2000
   47.3800   32.6890   39.8390 C   0  0  0  0  0  0  0  0  0  0  0  0
   48.2290   33.5550   39.1440 C   0  0  0  0  0  0  0  0  0  0  0  0
   48.4930   34.7680   39.7440 C   0  0  0  0  0  0  0  0  0  0  0  0
   48.0040   35.1570   40.9100 N   0  0  0  0  0  0  0  0  0  0  0  0
   47.1800   34.2970   41.5680 C   0  0  0  0  0  0  0  0  0  0  0  0
   46.8640   33.0820   41.0550 N   0  0  0  0  0  0  0  0  0  0  0  0
   46.6140   34.6370   42.8230 N   0  0  0  0  0  0  0  0  0  0  0  0
   45.7540   35.7760   43.0470 C   0  0  0  0  0  0  0  0  0  0  0  0
   44.7440   35.3390   44.0910 C   0  0  0  0  0  0  0  0  0  0  0  0
   44.4790   33.9190   44.0130 N   0  0  0  0  0  0  0  0  0  0  0  0
   45.5860   33.0750   44.2820 C   0  0  0  0  0  0  0  0  0  0  0  0
   46.8660   33.8390   44.0130 C   0  0  0  0  0  0  0  0  0  0  0  0
   47.0450   31.4260   39.3200 O   0  0  0  0  0  0  0  0  0  0  0  0
   46.1680   31.3690   38.2170 C   0  0  0  0  0  0  0  0  0  0  0  0
   46.5950   30.9750   37.1230 O   0  0  0  0  0  0  0  0  0  0  0  0
   43.9100   31.0420   39.2880 C   0  0  0  0  0  0  0  0  0  0  0  0
   44.7890   31.8010   38.5000 C   0  0  0  0  0  0  0  0  0  0  0  0
   44.3710   33.0040   37.9560 C   0  0  0  0  0  0  0  0  0  0  0  0
   43.0940   33.4230   38.2070 N   0  0  0  0  0  0  0  0  0  0  0  0
   42.2670   32.6600   38.9760 C   0  0  0  0  0  0  0  0  0  0  0  0
   42.6700   31.5110   39.4950 N   0  0  0  0  0  0  0  0  0  0  0  0
   40.9040   33.1450   39.2210 C   0  0  0  0  0  0  0  0  0  0  0  0
   40.3170   33.0150   40.4620 C   0  0  0  0  0  0  0  0  0  0  0  0
   39.0420   33.4480   40.7640 C   0  0  0  0  0  0  0  0  0  0  0  0
   38.3820   34.0340   39.7040 C   0  0  0  0  0  0  0  0  0  0  0  0
   38.8870   34.2080   38.4340 C   0  0  0  0  0  0  0  0  0  0  0  0
   40.1870   33.7460   38.1950 C   0  0  0  0  0  0  0  0  0  0  0  0
   48.6632   33.2833   38.1705 H   0  0  0  0  0  0  0  0  0  0  0  0
   49.1597   35.4639   39.2138 H   0  0  0  0  0  0  0  0  0  0  0  0
   46.3400   36.6305   43.4164 H   0  0  0  0  0  0  0  0  0  0  0  0
   45.2599   36.0964   42.1179 H   0  0  0  0  0  0  0  0  0  0  0  0
   45.1389   35.5742   45.0904 H   0  0  0  0  0  0  0  0  0  0  0  0
   43.8021   35.8758   43.9048 H   0  0  0  0  0  0  0  0  0  0  0  0
   43.7381   33.6968   44.6931 H   0  0  0  0  0  0  0  0  0  0  0  0
   45.5604   32.7576   45.3349 H   0  0  0  0  0  0  0  0  0  0  0  0
   45.5411   32.1861   43.6356 H   0  0  0  0  0  0  0  0  0  0  0  0
   47.6977   33.1411   43.8362 H   0  0  0  0  0  0  0  0  0  0  0  0
   47.1462   34.4699   44.8694 H   0  0  0  0  0  0  0  0  0  0  0  0
   44.2301   30.0850   39.7257 H   0  0  0  0  0  0  0  0  0  0  0  0
   45.0503   33.6081   37.3366 H   0  0  0  0  0  0  0  0  0  0  0  0
   40.9017   32.5362   41.2613 H   0  0  0  0  0  0  0  0  0  0  0  0
   38.5920   33.3358   41.7614 H   0  0  0  0  0  0  0  0  0  0  0  0
   37.3597   34.3952   39.8895 H   0  0  0  0  0  0  0  0  0  0  0  0
   38.2944   34.6891   37.6419 H   0  0  0  0  0  0  0  0  0  0  0  0
   40.6385   33.8587   37.1983 H   0  0  0  0  0  0  0  0  0  0  0  0
  1  6  2  0
  2  3  2  0
  2  1  1  0
  3  4  1  0
  4  5  2  0
  5  7  1  0
  6  5  1  0
  7  8  1  0
  7 12  1  0
  8  9  1  0
 10  9  1  0
 10 11  1  0
 12 11  1  0
 13  1  1  0
 14 17  1  0
 14 13  1  0
 15 14  2  0
 16 21  2  0
 17 16  1  0
 18 19  1  0
 18 17  2  0
 19 20  2  0
 20 22  1  0
 20 21  1  0
 22 23  2  0
 23 24  1  0
 25 24  2  0
 26 25  1  0
 27 26  2  0
 27 22  1  0
  2 28  1  0
  3 29  1  0
  8 30  1  0
  8 31  1  0
  9 32  1  0
  9 33  1  0
 10 34  1  0
 11 35  1  0
 11 36  1  0
 12 37  1  0
 12 38  1  0
 16 39  1  0
 18 40  1  0
 23 41  1  0
 24 42  1  0
 25 43  1  0
 26 44  1  0
 27 45  1  0
M  ISO  8  28  14  29  14  30  13  31  13  32  13  33  13  34   5  35  13
M  ISO  8  36  13  37  13  38  13  39  14  40  14  41  14  42  14  43  14
M  ISO  2  44  14  45  14
M  END
>  <minimizedAffinity>  (1) 
-5.69460917

>  <minimizedRMSD>  (1) 
0.644318044

$$$$
