
     RDKit          3D

 46 50  0  0  0  0  0  0  0  0999 V2000
   46.9720   33.2330   39.0330 C   0  0  0  0  0  0  0  0  0  0  0  0
   48.0240   34.0640   38.6030 C   0  0  0  0  0  0  0  0  0  0  0  0
   48.5310   34.9220   39.5470 C   0  0  0  0  0  0  0  0  0  0  0  0
   48.1100   35.0150   40.7970 N   0  0  0  0  0  0  0  0  0  0  0  0
   47.0950   34.2020   41.1810 C   0  0  0  0  0  0  0  0  0  0  0  0
   46.5280   33.3270   40.3330 N   0  0  0  0  0  0  0  0  0  0  0  0
   46.5850   34.2440   42.5110 N   0  0  0  0  0  0  0  0  0  0  0  0
   46.0010   35.4150   43.1260 C   0  0  0  0  0  0  0  0  0  0  0  0
   44.8880   34.9060   44.0230 C   0  0  0  0  0  0  0  0  0  0  0  0
   44.2990   33.6810   43.4960 N   0  0  0  0  0  0  0  0  0  0  0  0
   45.1800   32.5650   43.4380 C   0  0  0  0  0  0  0  0  0  0  0  0
   46.6120   33.0720   43.3790 C   0  0  0  0  0  0  0  0  0  0  0  0
   46.3770   32.3170   38.1490 O   0  0  0  0  0  0  0  0  0  0  0  0
   45.2930   32.7550   37.3560 C   0  0  0  0  0  0  0  0  0  0  0  0
   45.5120   33.2510   36.2370 O   0  0  0  0  0  0  0  0  0  0  0  0
   43.3190   31.3230   38.0160 C   0  0  0  0  0  0  0  0  0  0  0  0
   43.9660   32.5680   37.9660 C   0  0  0  0  0  0  0  0  0  0  0  0
   43.3550   33.7040   38.5100 C   0  0  0  0  0  0  0  0  0  0  0  0
   42.1240   33.5590   39.0830 N   0  0  0  0  0  0  0  0  0  0  0  0
   41.5210   32.3400   39.1160 C   0  0  0  0  0  0  0  0  0  0  0  0
   42.1050   31.2600   38.5970 N   0  0  0  0  0  0  0  0  0  0  0  0
   40.2380   32.2440   39.7240 N   0  0  0  0  0  0  0  0  0  0  0  0
   39.4180   33.3090   39.8470 C   0  0  0  0  0  0  0  0  0  0  0  0
   38.2580   32.9440   40.4620 N   0  0  0  0  0  0  0  0  0  0  0  0
   38.3370   31.6200   40.7400 C   0  0  0  0  0  0  0  0  0  0  0  0
   37.4790   30.7110   41.3460 C   0  0  0  0  0  0  0  0  0  0  0  0
   37.9460   29.4430   41.4330 N   0  0  0  0  0  0  0  0  0  0  0  0
   39.1300   29.0370   40.9880 C   0  0  0  0  0  0  0  0  0  0  0  0
   39.9580   29.9340   40.3980 N   0  0  0  0  0  0  0  0  0  0  0  0
   39.5780   31.2090   40.2700 C   0  0  0  0  0  0  0  0  0  0  0  0
   48.4150   34.0280   37.5755 H   0  0  0  0  0  0  0  0  0  0  0  0
   49.3530   35.5850   39.2391 H   0  0  0  0  0  0  0  0  0  0  0  0
   46.7557   35.9511   43.7202 H   0  0  0  0  0  0  0  0  0  0  0  0
   45.6199   36.1185   42.3712 H   0  0  0  0  0  0  0  0  0  0  0  0
   45.2985   34.7043   45.0234 H   0  0  0  0  0  0  0  0  0  0  0  0
   44.1029   35.6750   44.0712 H   0  0  0  0  0  0  0  0  0  0  0  0
   43.5009   33.4269   44.0955 H   0  0  0  0  0  0  0  0  0  0  0  0
   45.0456   31.9412   44.3340 H   0  0  0  0  0  0  0  0  0  0  0  0
   44.9604   31.9623   42.5444 H   0  0  0  0  0  0  0  0  0  0  0  0
   47.2743   32.3003   42.9596 H   0  0  0  0  0  0  0  0  0  0  0  0
   46.9947   33.3193   44.3802 H   0  0  0  0  0  0  0  0  0  0  0  0
   43.7902   30.4238   37.5925 H   0  0  0  0  0  0  0  0  0  0  0  0
   43.8520   34.6848   38.4769 H   0  0  0  0  0  0  0  0  0  0  0  0
   39.6526   34.3263   39.5003 H   0  0  0  0  0  0  0  0  0  0  0  0
   36.4893   31.0010   41.7285 H   0  0  0  0  0  0  0  0  0  0  0  0
   39.4350   27.9857   41.0969 H   0  0  0  0  0  0  0  0  0  0  0  0
  1  6  1  0
  2  1  2  0
  2  3  1  0
  3  4  2  0
  4  5  1  0
  5  7  1  0
  6  5  2  0
  7  8  1  0
  7 12  1  0
  8  9  1  0
 10  9  1  0
 11 10  1  0
 12 11  1  0
 13  1  1  0
 14 17  1  0
 14 13  1  0
 15 14  2  0
 16 21  2  0
 17 16  1  0
 17 18  2  0
 18 19  1  0
 19 20  2  0
 20 22  1  0
 21 20  1  0
 22 23  1  0
 22 30  1  0
 23 24  2  0
 24 25  1  0
 25 26  2  0
 26 27  1  0
 28 27  2  0
 29 28  1  0
 30 29  2  0
 30 25  1  0
  2 31  1  0
  3 32  1  0
  8 33  1  0
  8 34  1  0
  9 35  1  0
  9 36  1  0
 10 37  1  0
 11 38  1  0
 11 39  1  0
 12 40  1  0
 12 41  1  0
 16 42  1  0
 18 43  1  0
 23 44  1  0
 26 45  1  0
 28 46  1  0
M  ISO  8  31  14  32  14  33  13  34  13  35  13  36  13  37   5  38  13
M  ISO  8  39  13  40  13  41  13  42  14  43  14  44  14  45  14  46  14
M  END
>  <minimizedAffinity>  (1) 
-5.96611595

>  <minimizedRMSD>  (1) 
1.39664924

$$$$
