
     RDKit          3D

 42 45  0  0  0  0  0  0  0  0999 V2000
   47.1510   32.4640   39.7870 C   0  0  0  0  0  0  0  0  0  0  0  0
   47.9580   33.3050   38.9960 C   0  0  0  0  0  0  0  0  0  0  0  0
   48.2870   34.5130   39.5460 C   0  0  0  0  0  0  0  0  0  0  0  0
   47.9090   34.9360   40.7440 N   0  0  0  0  0  0  0  0  0  0  0  0
   47.1280   34.0950   41.4830 C   0  0  0  0  0  0  0  0  0  0  0  0
   46.7540   32.8870   41.0240 N   0  0  0  0  0  0  0  0  0  0  0  0
   46.6820   34.4740   42.7750 N   0  0  0  0  0  0  0  0  0  0  0  0
   45.8590   35.6380   43.0400 C   0  0  0  0  0  0  0  0  0  0  0  0
   44.9350   35.2530   44.1720 C   0  0  0  0  0  0  0  0  0  0  0  0
   44.6290   33.8300   44.1530 N   0  0  0  0  0  0  0  0  0  0  0  0
   45.7480   32.9710   44.3480 C   0  0  0  0  0  0  0  0  0  0  0  0
   47.0190   33.7110   43.9530 C   0  0  0  0  0  0  0  0  0  0  0  0
   46.7570   31.1940   39.3060 O   0  0  0  0  0  0  0  0  0  0  0  0
   45.7220   31.1290   38.3520 C   0  0  0  0  0  0  0  0  0  0  0  0
   45.8890   30.4860   37.3040 O   0  0  0  0  0  0  0  0  0  0  0  0
   43.6060   31.4130   39.7170 C   0  0  0  0  0  0  0  0  0  0  0  0
   44.5020   31.8610   38.7130 C   0  0  0  0  0  0  0  0  0  0  0  0
   44.2340   33.0510   38.0200 C   0  0  0  0  0  0  0  0  0  0  0  0
   43.0930   33.7480   38.3470 N   0  0  0  0  0  0  0  0  0  0  0  0
   42.2770   33.2770   39.3090 C   0  0  0  0  0  0  0  0  0  0  0  0
   42.5190   32.1400   39.9820 N   0  0  0  0  0  0  0  0  0  0  0  0
   41.1100   34.0360   39.6100 N   0  0  0  0  0  0  0  0  0  0  0  0
   41.2840   35.2250   40.1550 N   0  0  0  0  0  0  0  0  0  0  0  0
   40.0770   35.8200   40.3800 C   0  0  0  0  0  0  0  0  0  0  0  0
   39.1440   34.8880   39.9230 C   0  0  0  0  0  0  0  0  0  0  0  0
   39.8070   33.7590   39.4370 C   0  0  0  0  0  0  0  0  0  0  0  0
   48.3032   33.0075   37.9948 H   0  0  0  0  0  0  0  0  0  0  0  0
   48.9156   35.1877   38.9463 H   0  0  0  0  0  0  0  0  0  0  0  0
   46.4883   36.4907   43.3348 H   0  0  0  0  0  0  0  0  0  0  0  0
   45.2933   35.9404   42.1464 H   0  0  0  0  0  0  0  0  0  0  0  0
   45.4189   35.5014   45.1281 H   0  0  0  0  0  0  0  0  0  0  0  0
   43.9936   35.8092   44.0522 H   0  0  0  0  0  0  0  0  0  0  0  0
   43.9463   33.6400   44.9005 H   0  0  0  0  0  0  0  0  0  0  0  0
   45.8067   32.6771   45.4064 H   0  0  0  0  0  0  0  0  0  0  0  0
   45.6359   32.0697   43.7275 H   0  0  0  0  0  0  0  0  0  0  0  0
   47.8241   32.9959   43.7284 H   0  0  0  0  0  0  0  0  0  0  0  0
   47.3780   34.3597   44.7656 H   0  0  0  0  0  0  0  0  0  0  0  0
   43.8039   30.4818   40.2680 H   0  0  0  0  0  0  0  0  0  0  0  0
   44.9159   33.4164   37.2380 H   0  0  0  0  0  0  0  0  0  0  0  0
   39.8833   36.8089   40.8211 H   0  0  0  0  0  0  0  0  0  0  0  0
   38.0524   35.0223   39.9426 H   0  0  0  0  0  0  0  0  0  0  0  0
   39.3625   32.8483   39.0091 H   0  0  0  0  0  0  0  0  0  0  0  0
  1  6  2  0
  2  3  2  0
  2  1  1  0
  3  4  1  0
  4  5  2  0
  5  7  1  0
  6  5  1  0
  7  8  1  0
  7 12  1  0
  8  9  1  0
 10  9  1  0
 10 11  1  0
 12 11  1  0
 13  1  1  0
 14 17  1  0
 14 13  1  0
 15 14  2  0
 16 21  2  0
 17 16  1  0
 18 19  1  0
 18 17  2  0
 19 20  2  0
 20 22  1  0
 20 21  1  0
 22 23  1  0
 23 24  2  0
 25 24  1  0
 26 22  1  0
 26 25  2  0
  2 27  1  0
  3 28  1  0
  8 29  1  0
  8 30  1  0
  9 31  1  0
  9 32  1  0
 10 33  1  0
 11 34  1  0
 11 35  1  0
 12 36  1  0
 12 37  1  0
 16 38  1  0
 18 39  1  0
 24 40  1  0
 25 41  1  0
 26 42  1  0
M  ISO  8  27  14  28  14  29  13  30  13  31  13  32  13  33   5  34  13
M  ISO  8  35  13  36  13  37  13  38  14  39  14  40  14  41  14  42  14
M  END
>  <minimizedAffinity>  (1) 
-5.55347347

>  <minimizedRMSD>  (1) 
1.04135787

$$$$
