
     RDKit          3D

 45 48  0  0  0  0  0  0  0  0999 V2000
   43.5470   34.6600   41.9850 O   0  0  0  0  0  0  0  0  0  0  0  0
   42.7680   34.5490   40.8560 C   0  0  0  0  0  0  0  0  0  0  0  0
   43.0060   35.2860   39.7130 C   0  0  0  0  0  0  0  0  0  0  0  0
   42.0390   34.9250   38.7840 C   0  0  0  0  0  0  0  0  0  0  0  0
   41.2510   33.9980   39.3710 N   0  0  0  0  0  0  0  0  0  0  0  0
   41.6850   33.7760   40.5970 N   0  0  0  0  0  0  0  0  0  0  0  0
   40.1530   33.4240   38.6650 C   0  0  0  0  0  0  0  0  0  0  0  0
   38.9660   34.0740   38.3260 C   0  0  0  0  0  0  0  0  0  0  0  0
   38.1390   33.1840   37.6390 C   0  0  0  0  0  0  0  0  0  0  0  0
   38.8380   32.0490   37.5850 N   0  0  0  0  0  0  0  0  0  0  0  0
   40.0320   32.1810   38.1900 N   0  0  0  0  0  0  0  0  0  0  0  0
   38.5340   30.7820   37.0170 C   0  0  0  0  0  0  0  0  0  0  0  0
   38.4780   29.5950   37.7550 C   0  0  0  0  0  0  0  0  0  0  0  0
   38.1690   28.4170   37.0780 C   0  0  0  0  0  0  0  0  0  0  0  0
   37.9320   28.4290   35.7620 N   0  0  0  0  0  0  0  0  0  0  0  0
   37.9880   29.5750   35.0610 C   0  0  0  0  0  0  0  0  0  0  0  0
   38.2830   30.7360   35.6760 N   0  0  0  0  0  0  0  0  0  0  0  0
   44.7980   34.0530   41.9890 C   0  0  0  0  0  0  0  0  0  0  0  0
   45.7250   34.8870   42.8650 C   0  0  0  0  0  0  0  0  0  0  0  0
   45.1330   34.4930   45.2380 C   0  0  0  0  0  0  0  0  0  0  0  0
   45.9520   34.1620   44.1340 C   0  0  0  0  0  0  0  0  0  0  0  0
   46.8910   33.1800   44.3670 C   0  0  0  0  0  0  0  0  0  0  0  0
   47.0010   32.5930   45.5640 N   0  0  0  0  0  0  0  0  0  0  0  0
   46.1960   32.9410   46.5880 C   0  0  0  0  0  0  0  0  0  0  0  0
   45.2490   33.9010   46.4260 N   0  0  0  0  0  0  0  0  0  0  0  0
   47.0320   35.1390   42.1710 C   0  0  0  0  0  0  0  0  0  0  0  0
   45.0420   36.1900   43.1370 C   0  0  0  0  0  0  0  0  0  0  0  0
   43.8108   36.0213   39.5658 H   0  0  0  0  0  0  0  0  0  0  0  0
   41.9344   35.3196   37.7625 H   0  0  0  0  0  0  0  0  0  0  0  0
   38.7212   35.1201   38.5622 H   0  0  0  0  0  0  0  0  0  0  0  0
   37.1349   33.3757   37.2327 H   0  0  0  0  0  0  0  0  0  0  0  0
   38.6722   29.5917   38.8377 H   0  0  0  0  0  0  0  0  0  0  0  0
   38.1195   27.4677   37.6316 H   0  0  0  0  0  0  0  0  0  0  0  0
   37.7917   29.5641   33.9787 H   0  0  0  0  0  0  0  0  0  0  0  0
   44.7170   33.0342   42.3958 H   0  0  0  0  0  0  0  0  0  0  0  0
   45.1949   33.9903   40.9650 H   0  0  0  0  0  0  0  0  0  0  0  0
   44.3674   35.2725   45.1107 H   0  0  0  0  0  0  0  0  0  0  0  0
   47.5633   32.8729   43.5523 H   0  0  0  0  0  0  0  0  0  0  0  0
   46.3071   32.4433   47.5627 H   0  0  0  0  0  0  0  0  0  0  0  0
   47.8220   35.2913   42.9211 H   0  0  0  0  0  0  0  0  0  0  0  0
   47.2859   34.2733   41.5417 H   0  0  0  0  0  0  0  0  0  0  0  0
   46.9458   36.0371   41.5417 H   0  0  0  0  0  0  0  0  0  0  0  0
   44.9621   36.3423   44.2235 H   0  0  0  0  0  0  0  0  0  0  0  0
   45.6263   37.0098   42.6938 H   0  0  0  0  0  0  0  0  0  0  0  0
   44.0354   36.1759   42.6938 H   0  0  0  0  0  0  0  0  0  0  0  0
  1 18  1  0
  2  1  1  0
  3  2  1  0
  4  5  1  0
  4  3  2  0
  5  6  1  0
  6  2  2  0
  7  5  1  0
  8  7  1  0
  9  8  2  0
 10  9  1  0
 10 11  1  0
 11  7  2  0
 12 10  1  0
 12 13  2  0
 14 13  1  0
 15 14  2  0
 16 17  2  0
 16 15  1  0
 17 12  1  0
 18 19  1  0
 19 27  1  0
 19 21  1  0
 20 25  2  0
 21 22  2  0
 21 20  1  0
 22 23  1  0
 23 24  2  0
 25 24  1  0
 26 19  1  0
  3 28  1  0
  4 29  1  0
  8 30  1  0
  9 31  1  0
 13 32  1  0
 14 33  1  0
 16 34  1  0
 18 35  1  0
 18 36  1  0
 20 37  1  0
 22 38  1  0
 24 39  1  0
 26 40  1  0
 26 41  1  0
 26 42  1  0
 27 43  1  0
 27 44  1  0
 27 45  1  0
M  ISO  8  28  14  29  14  30  14  31  14  32  14  33  14  34  14  35   8
M  ISO  8  36   8  37  14  38  14  39  14  40   8  41   8  42   8  43   8
M  ISO  2  44   8  45   8
M  END
>  <minimizedAffinity>  (1) 
-5.91036415

>  <minimizedRMSD>  (1) 
2.45780563

$$$$
