
     RDKit          3D

 42 45  0  0  0  0  0  0  0  0999 V2000
   47.3240   32.6470   39.8170 C   0  0  0  0  0  0  0  0  0  0  0  0
   48.1510   33.5180   39.0870 C   0  0  0  0  0  0  0  0  0  0  0  0
   48.4270   34.7100   39.7080 C   0  0  0  0  0  0  0  0  0  0  0  0
   47.9920   35.0850   40.8890 N   0  0  0  0  0  0  0  0  0  0  0  0
   47.1950   34.2140   41.5630 C   0  0  0  0  0  0  0  0  0  0  0  0
   46.8580   33.0130   41.0520 N   0  0  0  0  0  0  0  0  0  0  0  0
   46.6780   34.5390   42.8520 N   0  0  0  0  0  0  0  0  0  0  0  0
   45.8250   35.6790   43.1160 C   0  0  0  0  0  0  0  0  0  0  0  0
   44.8470   35.2240   44.1910 C   0  0  0  0  0  0  0  0  0  0  0  0
   44.5750   33.8100   44.1110 N   0  0  0  0  0  0  0  0  0  0  0  0
   45.7080   32.9620   44.3260 C   0  0  0  0  0  0  0  0  0  0  0  0
   46.9780   33.7330   44.0210 C   0  0  0  0  0  0  0  0  0  0  0  0
   46.9710   31.3840   39.2760 O   0  0  0  0  0  0  0  0  0  0  0  0
   46.0810   31.3350   38.1940 C   0  0  0  0  0  0  0  0  0  0  0  0
   46.4700   30.8980   37.1110 O   0  0  0  0  0  0  0  0  0  0  0  0
   43.7930   31.0830   39.2360 C   0  0  0  0  0  0  0  0  0  0  0  0
   44.7280   31.8290   38.4810 C   0  0  0  0  0  0  0  0  0  0  0  0
   44.3920   33.0870   37.9740 C   0  0  0  0  0  0  0  0  0  0  0  0
   43.1280   33.5780   38.2300 N   0  0  0  0  0  0  0  0  0  0  0  0
   42.2680   32.8360   38.9510 C   0  0  0  0  0  0  0  0  0  0  0  0
   42.5720   31.6260   39.4470 N   0  0  0  0  0  0  0  0  0  0  0  0
   40.9060   33.2330   39.2970 C   0  0  0  0  0  0  0  0  0  0  0  0
   40.1270   33.6920   38.3270 C   0  0  0  0  0  0  0  0  0  0  0  0
   38.8380   34.1220   38.3790 C   0  0  0  0  0  0  0  0  0  0  0  0
   38.4180   33.9820   39.8080 C   0  0  0  0  0  0  0  0  0  0  0  0
   39.9210   33.2760   40.7780 S   0  0  0  0  0  0  0  0  0  0  0  0
   48.5471   33.2633   38.0929 H   0  0  0  0  0  0  0  0  0  0  0  0
   49.0725   35.4171   39.1664 H   0  0  0  0  0  0  0  0  0  0  0  0
   46.4224   36.5293   43.4766 H   0  0  0  0  0  0  0  0  0  0  0  0
   45.3022   36.0130   42.2076 H   0  0  0  0  0  0  0  0  0  0  0  0
   45.2760   35.4477   45.1789 H   0  0  0  0  0  0  0  0  0  0  0  0
   43.8995   35.7613   44.0374 H   0  0  0  0  0  0  0  0  0  0  0  0
   43.8651   33.5807   44.8212 H   0  0  0  0  0  0  0  0  0  0  0  0
   45.7235   32.6287   45.3742 H   0  0  0  0  0  0  0  0  0  0  0  0
   45.6421   32.0853   43.6649 H   0  0  0  0  0  0  0  0  0  0  0  0
   47.8051   33.0401   43.8069 H   0  0  0  0  0  0  0  0  0  0  0  0
   47.2896   34.3547   44.8733 H   0  0  0  0  0  0  0  0  0  0  0  0
   44.0506   30.0924   39.6389 H   0  0  0  0  0  0  0  0  0  0  0  0
   45.1160   33.6705   37.3863 H   0  0  0  0  0  0  0  0  0  0  0  0
   40.5932   33.7307   37.3314 H   0  0  0  0  0  0  0  0  0  0  0  0
   38.2294   34.4959   37.5425 H   0  0  0  0  0  0  0  0  0  0  0  0
   37.4327   34.2357   40.2261 H   0  0  0  0  0  0  0  0  0  0  0  0
  1  6  2  0
  2  3  2  0
  2  1  1  0
  3  4  1  0
  4  5  2  0
  5  7  1  0
  6  5  1  0
  7  8  1  0
  7 12  1  0
  8  9  1  0
 10  9  1  0
 10 11  1  0
 12 11  1  0
 13  1  1  0
 14 17  1  0
 14 13  1  0
 15 14  2  0
 16 21  2  0
 17 16  1  0
 18 19  1  0
 18 17  2  0
 19 20  2  0
 20 22  1  0
 20 21  1  0
 22 26  1  0
 23 24  1  0
 23 22  2  0
 24 25  2  0
 25 26  1  0
  2 27  1  0
  3 28  1  0
  8 29  1  0
  8 30  1  0
  9 31  1  0
  9 32  1  0
 10 33  1  0
 11 34  1  0
 11 35  1  0
 12 36  1  0
 12 37  1  0
 16 38  1  0
 18 39  1  0
 23 40  1  0
 24 41  1  0
 25 42  1  0
M  ISO  8  27  14  28  14  29  13  30  13  31  13  32  13  33   5  34  13
M  ISO  8  35  13  36  13  37  13  38  14  39  14  40  14  41  14  42  14
M  END
>  <minimizedAffinity>  (1) 
-5.216434

>  <minimizedRMSD>  (1) 
0.687511921

$$$$
