
     RDKit          3D

 43 46  0  0  0  0  0  0  0  0999 V2000
   47.4040   32.6710   39.8040 C   0  0  0  0  0  0  0  0  0  0  0  0
   48.2120   33.5590   39.0910 C   0  0  0  0  0  0  0  0  0  0  0  0
   48.4650   34.7590   39.7150 C   0  0  0  0  0  0  0  0  0  0  0  0
   48.0120   35.1130   40.8950 N   0  0  0  0  0  0  0  0  0  0  0  0
   47.2320   34.2350   41.5640 C   0  0  0  0  0  0  0  0  0  0  0  0
   46.9190   33.0230   41.0440 N   0  0  0  0  0  0  0  0  0  0  0  0
   46.6960   34.5350   42.8530 N   0  0  0  0  0  0  0  0  0  0  0  0
   45.8130   35.6510   43.1150 C   0  0  0  0  0  0  0  0  0  0  0  0
   44.8500   35.1750   44.1820 C   0  0  0  0  0  0  0  0  0  0  0  0
   44.6090   33.7490   44.0890 N   0  0  0  0  0  0  0  0  0  0  0  0
   45.7470   32.9240   44.3080 C   0  0  0  0  0  0  0  0  0  0  0  0
   47.0100   33.7200   44.0160 C   0  0  0  0  0  0  0  0  0  0  0  0
   47.0760   31.4060   39.2630 O   0  0  0  0  0  0  0  0  0  0  0  0
   46.1730   31.3500   38.1860 C   0  0  0  0  0  0  0  0  0  0  0  0
   46.5520   30.9530   37.0750 O   0  0  0  0  0  0  0  0  0  0  0  0
   43.9300   31.0480   39.3230 C   0  0  0  0  0  0  0  0  0  0  0  0
   44.8030   31.7940   38.5120 C   0  0  0  0  0  0  0  0  0  0  0  0
   44.3800   33.0060   37.9820 C   0  0  0  0  0  0  0  0  0  0  0  0
   43.1150   33.4510   38.2620 N   0  0  0  0  0  0  0  0  0  0  0  0
   42.3100   32.6890   39.0520 C   0  0  0  0  0  0  0  0  0  0  0  0
   42.7070   31.5320   39.5610 N   0  0  0  0  0  0  0  0  0  0  0  0
   40.9580   33.1450   39.3630 C   0  0  0  0  0  0  0  0  0  0  0  0
   40.2190   33.8910   38.4390 C   0  0  0  0  0  0  0  0  0  0  0  0
   38.9250   34.3430   38.7020 C   0  0  0  0  0  0  0  0  0  0  0  0
   38.3670   34.0420   39.9090 N   0  0  0  0  0  0  0  0  0  0  0  0
   39.0870   33.3240   40.7900 C   0  0  0  0  0  0  0  0  0  0  0  0
   40.3530   32.8720   40.5550 N   0  0  0  0  0  0  0  0  0  0  0  0
   48.6185   33.3158   38.0982 H   0  0  0  0  0  0  0  0  0  0  0  0
   49.0994   35.4815   39.1807 H   0  0  0  0  0  0  0  0  0  0  0  0
   46.3872   36.5169   43.4763 H   0  0  0  0  0  0  0  0  0  0  0  0
   45.2832   35.9697   42.2052 H   0  0  0  0  0  0  0  0  0  0  0  0
   45.2741   35.4011   45.1715 H   0  0  0  0  0  0  0  0  0  0  0  0
   43.8918   35.6950   44.0357 H   0  0  0  0  0  0  0  0  0  0  0  0
   43.8963   33.5005   44.7899 H   0  0  0  0  0  0  0  0  0  0  0  0
   45.7597   32.5860   45.3547 H   0  0  0  0  0  0  0  0  0  0  0  0
   45.7011   32.0494   43.6425 H   0  0  0  0  0  0  0  0  0  0  0  0
   47.8487   33.0431   43.7959 H   0  0  0  0  0  0  0  0  0  0  0  0
   47.3121   34.3357   44.8760 H   0  0  0  0  0  0  0  0  0  0  0  0
   44.2467   30.0862   39.7527 H   0  0  0  0  0  0  0  0  0  0  0  0
   45.0519   33.6008   37.3458 H   0  0  0  0  0  0  0  0  0  0  0  0
   40.6754   34.1308   37.4673 H   0  0  0  0  0  0  0  0  0  0  0  0
   38.3692   34.9275   37.9541 H   0  0  0  0  0  0  0  0  0  0  0  0
   38.6265   33.0865   41.7603 H   0  0  0  0  0  0  0  0  0  0  0  0
  1  6  2  0
  2  3  2  0
  2  1  1  0
  3  4  1  0
  4  5  2  0
  5  7  1  0
  6  5  1  0
  7  8  1  0
  7 12  1  0
  8  9  1  0
 10  9  1  0
 10 11  1  0
 12 11  1  0
 13  1  1  0
 14 17  1  0
 14 13  1  0
 15 14  2  0
 16 21  2  0
 17 16  1  0
 18 19  1  0
 18 17  2  0
 19 20  2  0
 20 22  1  0
 20 21  1  0
 22 27  2  0
 23 24  2  0
 23 22  1  0
 24 25  1  0
 25 26  2  0
 27 26  1  0
  2 28  1  0
  3 29  1  0
  8 30  1  0
  8 31  1  0
  9 32  1  0
  9 33  1  0
 10 34  1  0
 11 35  1  0
 11 36  1  0
 12 37  1  0
 12 38  1  0
 16 39  1  0
 18 40  1  0
 23 41  1  0
 24 42  1  0
 26 43  1  0
M  ISO  8  28  14  29  14  30  13  31  13  32  13  33  13  34   5  35  13
M  ISO  8  36  13  37  13  38  13  39  14  40  14  41  14  42  14  43  14
M  END
>  <minimizedAffinity>  (1) 
-5.27325869

>  <minimizedRMSD>  (1) 
0.65085268

$$$$
