
     RDKit          3D

 41 43  0  0  0  0  0  0  0  0999 V2000
   45.9520   32.6100   39.2310 C   0  0  0  0  0  0  0  0  0  0  0  0
   46.9700   33.1270   38.4360 C   0  0  0  0  0  0  0  0  0  0  0  0
   47.7760   34.0710   39.0140 C   0  0  0  0  0  0  0  0  0  0  0  0
   47.6620   34.5220   40.2580 N   0  0  0  0  0  0  0  0  0  0  0  0
   46.6570   33.9990   41.0190 C   0  0  0  0  0  0  0  0  0  0  0  0
   45.8230   33.0680   40.5210 N   0  0  0  0  0  0  0  0  0  0  0  0
   46.4550   34.4160   42.3570 N   0  0  0  0  0  0  0  0  0  0  0  0
   46.1580   35.7940   42.7360 C   0  0  0  0  0  0  0  0  0  0  0  0
   45.2200   35.6930   43.9250 C   0  0  0  0  0  0  0  0  0  0  0  0
   44.3940   34.5140   43.8490 N   0  0  0  0  0  0  0  0  0  0  0  0
   45.0990   33.2840   43.9180 C   0  0  0  0  0  0  0  0  0  0  0  0
   46.5270   33.4960   43.4700 C   0  0  0  0  0  0  0  0  0  0  0  0
   45.0660   31.6380   38.7390 O   0  0  0  0  0  0  0  0  0  0  0  0
   44.0490   32.0460   37.8450 C   0  0  0  0  0  0  0  0  0  0  0  0
   44.1590   31.8150   36.6350 O   0  0  0  0  0  0  0  0  0  0  0  0
   41.8710   32.0360   39.1310 C   0  0  0  0  0  0  0  0  0  0  0  0
   42.9160   32.7330   38.4810 C   0  0  0  0  0  0  0  0  0  0  0  0
   42.8910   34.1270   38.4290 C   0  0  0  0  0  0  0  0  0  0  0  0
   41.8470   34.7980   39.0140 N   0  0  0  0  0  0  0  0  0  0  0  0
   40.8670   34.0700   39.6260 C   0  0  0  0  0  0  0  0  0  0  0  0
   40.8740   32.7380   39.6860 N   0  0  0  0  0  0  0  0  0  0  0  0
   39.7610   34.8590   40.2430 C   0  0  0  0  0  0  0  0  0  0  0  0
   40.2920   36.2530   40.5720 C   0  0  0  0  0  0  0  0  0  0  0  0
   47.1195   32.7950   37.3980 H   0  0  0  0  0  0  0  0  0  0  0  0
   48.5845   34.4904   38.3972 H   0  0  0  0  0  0  0  0  0  0  0  0
   47.0805   36.3228   43.0177 H   0  0  0  0  0  0  0  0  0  0  0  0
   45.7067   36.3578   41.9063 H   0  0  0  0  0  0  0  0  0  0  0  0
   45.8166   35.6523   44.8482 H   0  0  0  0  0  0  0  0  0  0  0  0
   44.5628   36.5751   43.9214 H   0  0  0  0  0  0  0  0  0  0  0  0
   43.8818   34.5394   42.9557 H   0  0  0  0  0  0  0  0  0  0  0  0
   45.0908   32.9143   44.9540 H   0  0  0  0  0  0  0  0  0  0  0  0
   44.6144   32.5463   43.2615 H   0  0  0  0  0  0  0  0  0  0  0  0
   46.9746   32.5430   43.1516 H   0  0  0  0  0  0  0  0  0  0  0  0
   47.1535   33.8908   44.2834 H   0  0  0  0  0  0  0  0  0  0  0  0
   41.8768   30.9371   39.1800 H   0  0  0  0  0  0  0  0  0  0  0  0
   43.6974   34.6806   37.9258 H   0  0  0  0  0  0  0  0  0  0  0  0
   38.9214   34.9379   39.5367 H   0  0  0  0  0  0  0  0  0  0  0  0
   39.4063   34.3627   41.1584 H   0  0  0  0  0  0  0  0  0  0  0  0
   40.3399   36.3789   41.6637 H   0  0  0  0  0  0  0  0  0  0  0  0
   41.2985   36.3723   40.1446 H   0  0  0  0  0  0  0  0  0  0  0  0
   39.6199   37.0117   40.1446 H   0  0  0  0  0  0  0  0  0  0  0  0
  1  6  2  0
  2  3  2  0
  2  1  1  0
  3  4  1  0
  4  5  2  0
  5  7  1  0
  6  5  1  0
  7  8  1  0
  7 12  1  0
  8  9  1  0
 10 11  1  0
 10  9  1  0
 12 11  1  0
 13  1  1  0
 14 17  1  0
 14 13  1  0
 15 14  2  0
 16 21  2  0
 17 16  1  0
 18 17  2  0
 18 19  1  0
 19 20  2  0
 20 21  1  0
 20 22  1  0
 22 23  1  0
  2 24  1  0
  3 25  1  0
  8 26  1  0
  8 27  1  0
  9 28  1  0
  9 29  1  0
 10 30  1  0
 11 31  1  0
 11 32  1  0
 12 33  1  0
 12 34  1  0
 16 35  1  0
 18 36  1  0
 22 37  1  0
 22 38  1  0
 23 39  1  0
 23 40  1  0
 23 41  1  0
M  ISO  8  24  14  25  14  26  13  27  13  28  13  29  13  30   5  31  13
M  ISO  8  32  13  33  13  34  13  35  14  36  14  37   8  38   8  39   8
M  ISO  2  40   8  41   8
M  END
>  <minimizedAffinity>  (1) 
-4.79923248

>  <minimizedRMSD>  (1) 
1.67504096

$$$$
