
     RDKit          3D

 42 45  0  0  0  0  0  0  0  0999 V2000
   46.3950   32.6400   39.1150 C   0  0  0  0  0  0  0  0  0  0  0  0
   47.3820   33.3370   38.3990 C   0  0  0  0  0  0  0  0  0  0  0  0
   48.0580   34.3020   39.0960 C   0  0  0  0  0  0  0  0  0  0  0  0
   47.8540   34.6190   40.3640 N   0  0  0  0  0  0  0  0  0  0  0  0
   46.8910   33.9290   41.0390 C   0  0  0  0  0  0  0  0  0  0  0  0
   46.1760   32.9630   40.4360 N   0  0  0  0  0  0  0  0  0  0  0  0
   46.6080   34.2050   42.4030 N   0  0  0  0  0  0  0  0  0  0  0  0
   46.1620   35.4890   42.8910 C   0  0  0  0  0  0  0  0  0  0  0  0
   45.2060   35.1850   44.0250 C   0  0  0  0  0  0  0  0  0  0  0  0
   44.5010   33.9320   43.8250 N   0  0  0  0  0  0  0  0  0  0  0  0
   45.3320   32.7880   43.8060 C   0  0  0  0  0  0  0  0  0  0  0  0
   46.7500   33.1830   43.4330 C   0  0  0  0  0  0  0  0  0  0  0  0
   45.6380   31.6280   38.5030 O   0  0  0  0  0  0  0  0  0  0  0  0
   44.4980   32.0020   37.7530 C   0  0  0  0  0  0  0  0  0  0  0  0
   44.4860   31.8080   36.5240 O   0  0  0  0  0  0  0  0  0  0  0  0
   42.5930   31.8640   39.4020 C   0  0  0  0  0  0  0  0  0  0  0  0
   43.4140   32.6010   38.5390 C   0  0  0  0  0  0  0  0  0  0  0  0
   43.2250   33.9730   38.3910 C   0  0  0  0  0  0  0  0  0  0  0  0
   42.2110   34.5630   39.1210 N   0  0  0  0  0  0  0  0  0  0  0  0
   41.4410   33.8230   39.9410 C   0  0  0  0  0  0  0  0  0  0  0  0
   41.6300   32.5020   40.0780 N   0  0  0  0  0  0  0  0  0  0  0  0
   40.3820   34.5210   40.6840 C   0  0  0  0  0  0  0  0  0  0  0  0
   39.9960   35.9160   40.4500 C   0  0  0  0  0  0  0  0  0  0  0  0
   39.1610   34.8320   39.8330 C   0  0  0  0  0  0  0  0  0  0  0  0
   47.5986   33.1206   37.3425 H   0  0  0  0  0  0  0  0  0  0  0  0
   48.8365   34.8610   38.5561 H   0  0  0  0  0  0  0  0  0  0  0  0
   47.0159   36.0784   43.2564 H   0  0  0  0  0  0  0  0  0  0  0  0
   45.6785   36.0795   42.0988 H   0  0  0  0  0  0  0  0  0  0  0  0
   45.7768   35.1247   44.9634 H   0  0  0  0  0  0  0  0  0  0  0  0
   44.4587   35.9913   44.0629 H   0  0  0  0  0  0  0  0  0  0  0  0
   43.8187   33.8213   44.5886 H   0  0  0  0  0  0  0  0  0  0  0  0
   45.3337   32.3222   44.8025 H   0  0  0  0  0  0  0  0  0  0  0  0
   44.9480   32.0748   43.0618 H   0  0  0  0  0  0  0  0  0  0  0  0
   47.3009   32.3153   43.0411 H   0  0  0  0  0  0  0  0  0  0  0  0
   47.3140   33.5530   44.3019 H   0  0  0  0  0  0  0  0  0  0  0  0
   42.7371   30.7801   39.5220 H   0  0  0  0  0  0  0  0  0  0  0  0
   43.8605   34.5659   37.7168 H   0  0  0  0  0  0  0  0  0  0  0  0
   40.6456   34.0019   41.6173 H   0  0  0  0  0  0  0  0  0  0  0  0
   39.5875   36.5150   41.2773 H   0  0  0  0  0  0  0  0  0  0  0  0
   40.5171   36.8016   40.0574 H   0  0  0  0  0  0  0  0  0  0  0  0
   38.1505   34.6242   40.2147 H   0  0  0  0  0  0  0  0  0  0  0  0
   38.8215   34.5788   38.8178 H   0  0  0  0  0  0  0  0  0  0  0  0
  1  6  2  0
  2  3  2  0
  2  1  1  0
  3  4  1  0
  4  5  2  0
  5  7  1  0
  6  5  1  0
  7  8  1  0
  7 12  1  0
  8  9  1  0
 10  9  1  0
 11 10  1  0
 12 11  1  0
 13  1  1  0
 14 13  1  0
 14 17  1  0
 15 14  2  0
 16 21  2  0
 17 16  1  0
 18 17  2  0
 18 19  1  0
 19 20  2  0
 20 21  1  0
 20 22  1  0
 23 22  1  0
 24 23  1  0
 24 22  1  0
  2 25  1  0
  3 26  1  0
  8 27  1  0
  8 28  1  0
  9 29  1  0
  9 30  1  0
 10 31  1  0
 11 32  1  0
 11 33  1  0
 12 34  1  0
 12 35  1  0
 16 36  1  0
 18 37  1  0
 22 38  1  0
 23 39  1  0
 23 40  1  0
 24 41  1  0
 24 42  1  0
M  ISO  8  25  14  26  14  27  13  28  13  29  13  30  13  31   5  32  13
M  ISO  8  33  13  34  13  35  13  36  14  37  14  38  13  39  13  40  13
M  ISO  2  41  13  42  13
M  END
>  <minimizedAffinity>  (1) 
-5.26783705

>  <minimizedRMSD>  (1) 
1.44978654

$$$$
