
     RDKit          3D

 40 43  0  0  0  0  0  0  0  0999 V2000
   47.0540   32.6330   39.7810 C   0  0  0  0  0  0  0  0  0  0  0  0
   47.9300   33.4320   39.0230 C   0  0  0  0  0  0  0  0  0  0  0  0
   48.3180   34.6210   39.6170 C   0  0  0  0  0  0  0  0  0  0  0  0
   47.9220   35.0240   40.8040 N   0  0  0  0  0  0  0  0  0  0  0  0
   47.0780   34.2390   41.5150 C   0  0  0  0  0  0  0  0  0  0  0  0
   46.6480   33.0580   41.0110 N   0  0  0  0  0  0  0  0  0  0  0  0
   46.6150   34.6170   42.8010 N   0  0  0  0  0  0  0  0  0  0  0  0
   45.8560   35.8240   43.0690 C   0  0  0  0  0  0  0  0  0  0  0  0
   44.8810   35.4620   44.1650 C   0  0  0  0  0  0  0  0  0  0  0  0
   44.4920   34.0680   44.1040 N   0  0  0  0  0  0  0  0  0  0  0  0
   45.5630   33.1340   44.3070 C   0  0  0  0  0  0  0  0  0  0  0  0
   46.8780   33.7960   43.9690 C   0  0  0  0  0  0  0  0  0  0  0  0
   46.5980   31.4000   39.2660 O   0  0  0  0  0  0  0  0  0  0  0  0
   45.6660   31.4250   38.2120 C   0  0  0  0  0  0  0  0  0  0  0  0
   45.9720   30.9600   37.1020 O   0  0  0  0  0  0  0  0  0  0  0  0
   43.3950   31.3610   39.3170 C   0  0  0  0  0  0  0  0  0  0  0  0
   44.3540   32.0310   38.5440 C   0  0  0  0  0  0  0  0  0  0  0  0
   44.1100   33.3090   38.0510 C   0  0  0  0  0  0  0  0  0  0  0  0
   42.9000   33.8850   38.3500 N   0  0  0  0  0  0  0  0  0  0  0  0
   42.0000   33.2040   39.1000 C   0  0  0  0  0  0  0  0  0  0  0  0
   42.2280   31.9810   39.5740 N   0  0  0  0  0  0  0  0  0  0  0  0
   40.7080   33.8010   39.4280 C   0  0  0  0  0  0  0  0  0  0  0  0
   40.1700   35.0340   39.4010 N   0  0  0  0  0  0  0  0  0  0  0  0
   38.9270   34.9570   39.8230 O   0  0  0  0  0  0  0  0  0  0  0  0
   38.6210   33.7120   40.1290 C   0  0  0  0  0  0  0  0  0  0  0  0
   39.7340   32.9700   39.8850 N   0  0  0  0  0  0  0  0  0  0  0  0
   48.2829   33.1320   38.0253 H   0  0  0  0  0  0  0  0  0  0  0  0
   49.0047   35.2731   39.0573 H   0  0  0  0  0  0  0  0  0  0  0  0
   46.5249   36.6310   43.4025 H   0  0  0  0  0  0  0  0  0  0  0  0
   45.3374   36.1846   42.1684 H   0  0  0  0  0  0  0  0  0  0  0  0
   45.3529   35.6571   45.1393 H   0  0  0  0  0  0  0  0  0  0  0  0
   43.9767   36.0741   44.0323 H   0  0  0  0  0  0  0  0  0  0  0  0
   43.7804   33.9020   44.8299 H   0  0  0  0  0  0  0  0  0  0  0  0
   45.5742   32.8116   45.3586 H   0  0  0  0  0  0  0  0  0  0  0  0
   45.4149   32.2588   43.6573 H   0  0  0  0  0  0  0  0  0  0  0  0
   47.6417   33.0379   43.7410 H   0  0  0  0  0  0  0  0  0  0  0  0
   47.2591   34.3950   44.8092 H   0  0  0  0  0  0  0  0  0  0  0  0
   43.5919   30.3507   39.7050 H   0  0  0  0  0  0  0  0  0  0  0  0
   44.8590   33.8385   37.4439 H   0  0  0  0  0  0  0  0  0  0  0  0
   37.6553   33.3454   40.5073 H   0  0  0  0  0  0  0  0  0  0  0  0
  1  6  2  0
  2  3  2  0
  2  1  1  0
  3  4  1  0
  4  5  2  0
  5  7  1  0
  6  5  1  0
  7  8  1  0
  7 12  1  0
  8  9  1  0
 10  9  1  0
 10 11  1  0
 12 11  1  0
 13  1  1  0
 14 17  1  0
 14 13  1  0
 15 14  2  0
 16 21  2  0
 17 16  1  0
 18 19  1  0
 18 17  2  0
 19 20  2  0
 20 22  1  0
 20 21  1  0
 22 26  1  0
 23 22  2  0
 23 24  1  0
 24 25  1  0
 26 25  2  0
  2 27  1  0
  3 28  1  0
  8 29  1  0
  8 30  1  0
  9 31  1  0
  9 32  1  0
 10 33  1  0
 11 34  1  0
 11 35  1  0
 12 36  1  0
 12 37  1  0
 16 38  1  0
 18 39  1  0
 25 40  1  0
M  ISO  8  27  14  28  14  29  13  30  13  31  13  32  13  33   5  34  13
M  ISO  6  35  13  36  13  37  13  38  14  39  14  40  14
M  END
>  <minimizedAffinity>  (1) 
-5.13297129

>  <minimizedRMSD>  (1) 
0.970214486

$$$$
