
     RDKit          3D

 43 46  0  0  0  0  0  0  0  0999 V2000
   47.3870   32.6590   39.8130 C   0  0  0  0  0  0  0  0  0  0  0  0
   48.2010   33.5520   39.1040 C   0  0  0  0  0  0  0  0  0  0  0  0
   48.4570   34.7490   39.7200 C   0  0  0  0  0  0  0  0  0  0  0  0
   48.0050   35.1080   40.9010 N   0  0  0  0  0  0  0  0  0  0  0  0
   47.2200   34.2310   41.5690 C   0  0  0  0  0  0  0  0  0  0  0  0
   46.9030   33.0160   41.0510 N   0  0  0  0  0  0  0  0  0  0  0  0
   46.6840   34.5370   42.8540 N   0  0  0  0  0  0  0  0  0  0  0  0
   45.8070   35.6550   43.1170 C   0  0  0  0  0  0  0  0  0  0  0  0
   44.8490   35.1990   44.1800 C   0  0  0  0  0  0  0  0  0  0  0  0
   44.5910   33.7670   44.0960 N   0  0  0  0  0  0  0  0  0  0  0  0
   45.7340   32.9440   44.3110 C   0  0  0  0  0  0  0  0  0  0  0  0
   46.9940   33.7220   44.0230 C   0  0  0  0  0  0  0  0  0  0  0  0
   47.0610   31.4020   39.2720 O   0  0  0  0  0  0  0  0  0  0  0  0
   46.1600   31.3470   38.2050 C   0  0  0  0  0  0  0  0  0  0  0  0
   46.5380   30.9320   37.0900 O   0  0  0  0  0  0  0  0  0  0  0  0
   43.9130   31.0610   39.3170 C   0  0  0  0  0  0  0  0  0  0  0  0
   44.7890   31.8040   38.5150 C   0  0  0  0  0  0  0  0  0  0  0  0
   44.3840   33.0200   37.9760 C   0  0  0  0  0  0  0  0  0  0  0  0
   43.1170   33.4590   38.2540 N   0  0  0  0  0  0  0  0  0  0  0  0
   42.3010   32.7160   39.0290 C   0  0  0  0  0  0  0  0  0  0  0  0
   42.6870   31.5570   39.5440 N   0  0  0  0  0  0  0  0  0  0  0  0
   40.9450   33.1580   39.3420 C   0  0  0  0  0  0  0  0  0  0  0  0
   40.1790   33.8970   38.4650 C   0  0  0  0  0  0  0  0  0  0  0  0
   38.8960   34.3310   38.7260 C   0  0  0  0  0  0  0  0  0  0  0  0
   38.3470   34.0180   39.9160 N   0  0  0  0  0  0  0  0  0  0  0  0
   39.0750   33.2910   40.8010 C   0  0  0  0  0  0  0  0  0  0  0  0
   40.3240   32.8890   40.5030 N   0  0  0  0  0  0  0  0  0  0  0  0
   48.6100   33.3071   38.1127 H   0  0  0  0  0  0  0  0  0  0  0  0
   49.0925   35.4681   39.1824 H   0  0  0  0  0  0  0  0  0  0  0  0
   46.3876   36.5189   43.4728 H   0  0  0  0  0  0  0  0  0  0  0  0
   45.2745   35.9679   42.2068 H   0  0  0  0  0  0  0  0  0  0  0  0
   45.2775   35.4265   45.1672 H   0  0  0  0  0  0  0  0  0  0  0  0
   43.8960   35.7280   44.0320 H   0  0  0  0  0  0  0  0  0  0  0  0
   43.8838   33.5260   44.8050 H   0  0  0  0  0  0  0  0  0  0  0  0
   45.7468   32.6051   45.3574 H   0  0  0  0  0  0  0  0  0  0  0  0
   45.6847   32.0759   43.6372 H   0  0  0  0  0  0  0  0  0  0  0  0
   47.8279   33.0383   43.8059 H   0  0  0  0  0  0  0  0  0  0  0  0
   47.3018   34.3367   44.8817 H   0  0  0  0  0  0  0  0  0  0  0  0
   44.2217   30.0975   39.7488 H   0  0  0  0  0  0  0  0  0  0  0  0
   45.0620   33.6126   37.3442 H   0  0  0  0  0  0  0  0  0  0  0  0
   40.6209   34.1578   37.4920 H   0  0  0  0  0  0  0  0  0  0  0  0
   38.3359   34.9170   37.9824 H   0  0  0  0  0  0  0  0  0  0  0  0
   38.6380   33.0268   41.7753 H   0  0  0  0  0  0  0  0  0  0  0  0
  1  6  2  0
  2  3  2  0
  2  1  1  0
  3  4  1  0
  4  5  2  0
  5  7  1  0
  6  5  1  0
  7  8  1  0
  7 12  1  0
  8  9  1  0
 10  9  1  0
 10 11  1  0
 12 11  1  0
 13  1  1  0
 14 17  1  0
 14 13  1  0
 15 14  2  0
 16 21  2  0
 17 16  1  0
 18 19  1  0
 18 17  2  0
 19 20  2  0
 20 22  1  0
 20 21  1  0
 22 27  2  0
 23 24  2  0
 23 22  1  0
 24 25  1  0
 25 26  2  0
 27 26  1  0
  2 28  1  0
  3 29  1  0
  8 30  1  0
  8 31  1  0
  9 32  1  0
  9 33  1  0
 10 34  1  0
 11 35  1  0
 11 36  1  0
 12 37  1  0
 12 38  1  0
 16 39  1  0
 18 40  1  0
 23 41  1  0
 24 42  1  0
 26 43  1  0
M  ISO  8  28  14  29  14  30  13  31  13  32  13  33  13  34   5  35  13
M  ISO  8  36  13  37  13  38  13  39  14  40  14  41  14  42  14  43  14
M  END
>  <minimizedAffinity>  (1) 
-5.26528883

>  <minimizedRMSD>  (1) 
0.667790294

$$$$
