
     RDKit          3D

 45 48  0  0  0  0  0  0  0  0999 V2000
   43.5860   34.6220   42.0640 O   0  0  0  0  0  0  0  0  0  0  0  0
   42.7740   34.5120   40.9580 C   0  0  0  0  0  0  0  0  0  0  0  0
   42.8860   35.3460   39.8620 C   0  0  0  0  0  0  0  0  0  0  0  0
   41.9170   34.9500   38.9480 C   0  0  0  0  0  0  0  0  0  0  0  0
   41.2560   33.9080   39.4950 N   0  0  0  0  0  0  0  0  0  0  0  0
   41.7600   33.6460   40.6860 N   0  0  0  0  0  0  0  0  0  0  0  0
   40.1890   33.2720   38.7900 C   0  0  0  0  0  0  0  0  0  0  0  0
   38.9310   33.8010   38.5510 C   0  0  0  0  0  0  0  0  0  0  0  0
   38.1660   32.8930   37.8330 C   0  0  0  0  0  0  0  0  0  0  0  0
   38.9820   31.8380   37.6540 N   0  0  0  0  0  0  0  0  0  0  0  0
   40.1770   32.0630   38.2200 N   0  0  0  0  0  0  0  0  0  0  0  0
   38.5480   30.6790   36.9440 C   0  0  0  0  0  0  0  0  0  0  0  0
   38.4290   29.5100   37.6680 C   0  0  0  0  0  0  0  0  0  0  0  0
   38.0030   28.4150   36.9230 C   0  0  0  0  0  0  0  0  0  0  0  0
   37.7280   28.4680   35.6120 N   0  0  0  0  0  0  0  0  0  0  0  0
   37.8600   29.6330   34.9520 C   0  0  0  0  0  0  0  0  0  0  0  0
   38.2750   30.7450   35.6270 N   0  0  0  0  0  0  0  0  0  0  0  0
   44.8550   34.0710   42.0130 C   0  0  0  0  0  0  0  0  0  0  0  0
   45.7640   34.9020   42.9120 C   0  0  0  0  0  0  0  0  0  0  0  0
   45.1050   34.5380   45.2690 C   0  0  0  0  0  0  0  0  0  0  0  0
   45.9500   34.1860   44.1920 C   0  0  0  0  0  0  0  0  0  0  0  0
   46.8750   33.1890   44.4570 C   0  0  0  0  0  0  0  0  0  0  0  0
   46.9360   32.6170   45.6680 N   0  0  0  0  0  0  0  0  0  0  0  0
   46.1100   32.9840   46.6650 C   0  0  0  0  0  0  0  0  0  0  0  0
   45.1810   33.9570   46.4680 N   0  0  0  0  0  0  0  0  0  0  0  0
   47.0920   35.1260   42.2500 C   0  0  0  0  0  0  0  0  0  0  0  0
   45.0890   36.2140   43.1510 C   0  0  0  0  0  0  0  0  0  0  0  0
   43.6061   36.1680   39.7367 H   0  0  0  0  0  0  0  0  0  0  0  0
   41.7247   35.4011   37.9634 H   0  0  0  0  0  0  0  0  0  0  0  0
   38.5895   34.7931   38.8813 H   0  0  0  0  0  0  0  0  0  0  0  0
   37.1279   33.0092   37.4883 H   0  0  0  0  0  0  0  0  0  0  0  0
   38.6522   29.4492   38.7434 H   0  0  0  0  0  0  0  0  0  0  0  0
   37.8851   27.4508   37.4391 H   0  0  0  0  0  0  0  0  0  0  0  0
   37.6353   29.6892   33.8767 H   0  0  0  0  0  0  0  0  0  0  0  0
   44.8254   33.0311   42.3704 H   0  0  0  0  0  0  0  0  0  0  0  0
   45.2323   34.0736   40.9797 H   0  0  0  0  0  0  0  0  0  0  0  0
   44.3523   35.3247   45.1121 H   0  0  0  0  0  0  0  0  0  0  0  0
   47.5663   32.8635   43.6657 H   0  0  0  0  0  0  0  0  0  0  0  0
   46.1870   32.4932   47.6464 H   0  0  0  0  0  0  0  0  0  0  0  0
   47.8676   35.2568   43.0190 H   0  0  0  0  0  0  0  0  0  0  0  0
   47.3403   34.2570   41.6229 H   0  0  0  0  0  0  0  0  0  0  0  0
   47.0415   36.0283   41.6229 H   0  0  0  0  0  0  0  0  0  0  0  0
   44.9993   36.3884   44.2334 H   0  0  0  0  0  0  0  0  0  0  0  0
   45.6841   37.0205   42.6978 H   0  0  0  0  0  0  0  0  0  0  0  0
   44.0868   36.1987   42.6978 H   0  0  0  0  0  0  0  0  0  0  0  0
  2  1  1  0
  3  2  1  0
  4  5  1  0
  4  3  2  0
  5  6  1  0
  6  2  2  0
  7  5  1  0
  8  7  1  0
  9  8  2  0
 10  9  1  0
 10 11  1  0
 11  7  2  0
 12 10  1  0
 12 13  2  0
 14 13  1  0
 15 14  2  0
 16 15  1  0
 16 17  2  0
 17 12  1  0
 18  1  1  0
 18 19  1  0
 19 27  1  0
 19 21  1  0
 20 25  2  0
 21 22  2  0
 21 20  1  0
 22 23  1  0
 23 24  2  0
 25 24  1  0
 26 19  1  0
  3 28  1  0
  4 29  1  0
  8 30  1  0
  9 31  1  0
 13 32  1  0
 14 33  1  0
 16 34  1  0
 18 35  1  0
 18 36  1  0
 20 37  1  0
 22 38  1  0
 24 39  1  0
 26 40  1  0
 26 41  1  0
 26 42  1  0
 27 43  1  0
 27 44  1  0
 27 45  1  0
M  ISO  8  28  14  29  14  30  14  31  14  32  14  33  14  34  14  35   8
M  ISO  8  36   8  37  14  38  14  39  14  40   8  41   8  42   8  43   8
M  ISO  2  44   8  45   8
M  END
>  <minimizedAffinity>  (1) 
-5.84642458

>  <minimizedRMSD>  (1) 
2.29372048

$$$$
