
     RDKit          3D

 38 40  0  0  0  0  0  0  0  0999 V2000
   46.9220   32.5530   39.7380 C   0  0  0  0  0  0  0  0  0  0  0  0
   47.7960   33.3230   38.9530 C   0  0  0  0  0  0  0  0  0  0  0  0
   48.2270   34.4970   39.5280 C   0  0  0  0  0  0  0  0  0  0  0  0
   47.8840   34.9290   40.7230 N   0  0  0  0  0  0  0  0  0  0  0  0
   47.0320   34.1580   41.4590 C   0  0  0  0  0  0  0  0  0  0  0  0
   46.5570   32.9940   40.9850 N   0  0  0  0  0  0  0  0  0  0  0  0
   46.6140   34.5580   42.7620 N   0  0  0  0  0  0  0  0  0  0  0  0
   45.8950   35.7860   43.0370 C   0  0  0  0  0  0  0  0  0  0  0  0
   44.9470   35.4530   44.1640 C   0  0  0  0  0  0  0  0  0  0  0  0
   44.5140   34.0750   44.1250 N   0  0  0  0  0  0  0  0  0  0  0  0
   45.5570   33.1200   44.3120 C   0  0  0  0  0  0  0  0  0  0  0  0
   46.8830   33.7470   43.9300 C   0  0  0  0  0  0  0  0  0  0  0  0
   46.4160   31.3310   39.2530 O   0  0  0  0  0  0  0  0  0  0  0  0
   45.4240   31.3610   38.2690 C   0  0  0  0  0  0  0  0  0  0  0  0
   45.6370   30.8760   37.1430 O   0  0  0  0  0  0  0  0  0  0  0  0
   43.2610   31.4160   39.5860 C   0  0  0  0  0  0  0  0  0  0  0  0
   44.1540   32.0010   38.6820 C   0  0  0  0  0  0  0  0  0  0  0  0
   43.8580   33.2500   38.1240 C   0  0  0  0  0  0  0  0  0  0  0  0
   42.6900   33.8570   38.4910 N   0  0  0  0  0  0  0  0  0  0  0  0
   41.8600   33.2570   39.3660 C   0  0  0  0  0  0  0  0  0  0  0  0
   42.1380   32.0680   39.8980 N   0  0  0  0  0  0  0  0  0  0  0  0
   40.5800   33.8990   39.7820 C   0  0  0  0  0  0  0  0  0  0  0  0
   48.1142   33.0094   37.9478 H   0  0  0  0  0  0  0  0  0  0  0  0
   48.9136   35.1249   38.9413 H   0  0  0  0  0  0  0  0  0  0  0  0
   46.5924   36.5798   43.3428 H   0  0  0  0  0  0  0  0  0  0  0  0
   45.3606   36.1543   42.1489 H   0  0  0  0  0  0  0  0  0  0  0  0
   45.4565   35.6371   45.1213 H   0  0  0  0  0  0  0  0  0  0  0  0
   44.0566   36.0896   44.0550 H   0  0  0  0  0  0  0  0  0  0  0  0
   43.8146   33.9367   44.8683 H   0  0  0  0  0  0  0  0  0  0  0  0
   45.5871   32.8103   45.3671 H   0  0  0  0  0  0  0  0  0  0  0  0
   45.3692   32.2398   43.6795 H   0  0  0  0  0  0  0  0  0  0  0  0
   47.6213   32.9669   43.6928 H   0  0  0  0  0  0  0  0  0  0  0  0
   47.2988   34.3474   44.7526 H   0  0  0  0  0  0  0  0  0  0  0  0
   43.4802   30.4349   40.0326 H   0  0  0  0  0  0  0  0  0  0  0  0
   44.5453   33.7289   37.4111 H   0  0  0  0  0  0  0  0  0  0  0  0
   40.5239   33.9271   40.8802 H   0  0  0  0  0  0  0  0  0  0  0  0
   40.5386   34.9245   39.3863 H   0  0  0  0  0  0  0  0  0  0  0  0
   39.7333   33.3189   39.3863 H   0  0  0  0  0  0  0  0  0  0  0  0
  1  6  2  0
  2  3  2  0
  2  1  1  0
  3  4  1  0
  4  5  2  0
  5  7  1  0
  6  5  1  0
  7  8  1  0
  7 12  1  0
  8  9  1  0
 10  9  1  0
 10 11  1  0
 12 11  1  0
 13  1  1  0
 14 17  1  0
 14 13  1  0
 15 14  2  0
 16 21  2  0
 17 16  1  0
 18 19  1  0
 18 17  2  0
 19 20  2  0
 20 22  1  0
 20 21  1  0
  2 23  1  0
  3 24  1  0
  8 25  1  0
  8 26  1  0
  9 27  1  0
  9 28  1  0
 10 29  1  0
 11 30  1  0
 11 31  1  0
 12 32  1  0
 12 33  1  0
 16 34  1  0
 18 35  1  0
 22 36  1  0
 22 37  1  0
 22 38  1  0
M  ISO  8  23  14  24  14  25  13  26  13  27  13  28  13  29   5  30  13
M  ISO  8  31  13  32  13  33  13  34  14  35  14  36   8  37   8  38   8
M  END
>  <minimizedAffinity>  (1) 
-4.24862099

>  <minimizedRMSD>  (1) 
0.648210943

$$$$
