
     RDKit          3D

 36 38  0  0  0  0  0  0  0  0999 V2000
   46.6880   34.3030   42.0600 C   0  0  0  0  0  0  0  0  0  0  0  0
   44.5550   35.6980   44.8880 C   0  0  0  0  0  0  0  0  0  0  0  0
   45.1340   35.5840   43.6130 C   0  0  0  0  0  0  0  0  0  0  0  0
   46.0220   34.5240   43.3570 C   0  0  0  0  0  0  0  0  0  0  0  0
   46.2770   33.6480   44.3790 N   0  0  0  0  0  0  0  0  0  0  0  0
   45.6990   33.7900   45.6010 C   0  0  0  0  0  0  0  0  0  0  0  0
   44.8500   34.8060   45.8410 N   0  0  0  0  0  0  0  0  0  0  0  0
   45.6510   34.4820   40.9710 C   0  0  0  0  0  0  0  0  0  0  0  0
   47.8740   35.1900   41.8280 C   0  0  0  0  0  0  0  0  0  0  0  0
   47.1780   32.8850   42.0040 C   0  0  0  0  0  0  0  0  0  0  0  0
   47.6780   32.5290   40.7110 N   0  0  0  0  0  0  0  0  0  0  0  0
   46.9280   32.3910   39.6030 C   0  0  0  0  0  0  0  0  0  0  0  0
   47.7110   32.0510   38.5580 N   0  0  0  0  0  0  0  0  0  0  0  0
   48.9810   31.9720   39.0090 C   0  0  0  0  0  0  0  0  0  0  0  0
   50.1340   31.6550   38.3100 C   0  0  0  0  0  0  0  0  0  0  0  0
   50.1160   31.3850   37.0750 O   0  0  0  0  0  0  0  0  0  0  0  0
   51.2650   31.6570   39.0410 N   0  0  0  0  0  0  0  0  0  0  0  0
   51.2600   31.9460   40.3560 C   0  0  0  0  0  0  0  0  0  0  0  0
   52.5100   31.9220   41.0460 N   0  0  0  0  0  0  0  0  0  0  0  0
   50.1270   32.2590   41.0500 N   0  0  0  0  0  0  0  0  0  0  0  0
   48.9560   32.2710   40.3560 C   0  0  0  0  0  0  0  0  0  0  0  0
   43.8583   36.5216   45.1032 H   0  0  0  0  0  0  0  0  0  0  0  0
   44.8959   36.3141   42.8255 H   0  0  0  0  0  0  0  0  0  0  0  0
   45.9270   33.0689   46.3998 H   0  0  0  0  0  0  0  0  0  0  0  0
   44.6650   34.6522   41.4280 H   0  0  0  0  0  0  0  0  0  0  0  0
   45.9201   35.3470   40.3470 H   0  0  0  0  0  0  0  0  0  0  0  0
   45.6146   33.5769   40.3470 H   0  0  0  0  0  0  0  0  0  0  0  0
   48.2926   35.5031   42.7959 H   0  0  0  0  0  0  0  0  0  0  0  0
   48.6377   34.6397   41.2590 H   0  0  0  0  0  0  0  0  0  0  0  0
   47.5619   36.0781   41.2590 H   0  0  0  0  0  0  0  0  0  0  0  0
   47.9853   32.7613   42.7408 H   0  0  0  0  0  0  0  0  0  0  0  0
   46.3245   32.2273   42.2253 H   0  0  0  0  0  0  0  0  0  0  0  0
   45.8384   32.5340   39.5558 H   0  0  0  0  0  0  0  0  0  0  0  0
   52.1587   31.4312   38.5814 H   0  0  0  0  0  0  0  0  0  0  0  0
   52.5469   32.1375   42.0525 H   0  0  0  0  0  0  0  0  0  0  0  0
   53.3747   31.6892   40.5372 H   0  0  0  0  0  0  0  0  0  0  0  0
  1  4  1  0
  2  7  2  0
  3  2  1  0
  4  3  2  0
  4  5  1  0
  5  6  2  0
  6  7  1  0
  8  1  1  0
  9  1  1  0
 10  1  1  0
 11 10  1  0
 12 11  1  0
 13 14  1  0
 13 12  2  0
 14 21  2  0
 15 14  1  0
 15 17  1  0
 16 15  2  0
 17 18  1  0
 18 19  1  0
 18 20  2  0
 21 11  1  0
 21 20  1  0
  2 22  1  0
  3 23  1  0
  6 24  1  0
  8 25  1  0
  8 26  1  0
  8 27  1  0
  9 28  1  0
  9 29  1  0
  9 30  1  0
 10 31  1  0
 10 32  1  0
 12 33  1  0
 17 34  1  0
 19 35  1  0
 19 36  1  0
M  ISO  8  22  14  23  14  24  14  25   8  26   8  27   8  28   8  29   8
M  ISO  5  30   8  31   8  32   8  33  14  34   9
M  END
>  <minimizedAffinity>  (1) 
-5.3447051

>  <minimizedRMSD>  (1) 
1.71585786

$$$$
