
     RDKit          3D

 36 38  0  0  0  0  0  0  0  0999 V2000
   46.9380   32.5630   39.7280 C   0  0  0  0  0  0  0  0  0  0  0  0
   47.8120   33.3440   38.9600 C   0  0  0  0  0  0  0  0  0  0  0  0
   48.2340   34.5080   39.5370 C   0  0  0  0  0  0  0  0  0  0  0  0
   47.8940   34.9510   40.7360 N   0  0  0  0  0  0  0  0  0  0  0  0
   47.0460   34.1700   41.4530 C   0  0  0  0  0  0  0  0  0  0  0  0
   46.5690   32.9940   40.9700 N   0  0  0  0  0  0  0  0  0  0  0  0
   46.6180   34.5570   42.7560 N   0  0  0  0  0  0  0  0  0  0  0  0
   45.9000   35.7790   43.0370 C   0  0  0  0  0  0  0  0  0  0  0  0
   44.9360   35.4510   44.1550 C   0  0  0  0  0  0  0  0  0  0  0  0
   44.5150   34.0670   44.1090 N   0  0  0  0  0  0  0  0  0  0  0  0
   45.5530   33.1200   44.2980 C   0  0  0  0  0  0  0  0  0  0  0  0
   46.8780   33.7360   43.9200 C   0  0  0  0  0  0  0  0  0  0  0  0
   46.4390   31.3450   39.2390 O   0  0  0  0  0  0  0  0  0  0  0  0
   45.4500   31.3810   38.2310 C   0  0  0  0  0  0  0  0  0  0  0  0
   45.6950   30.9420   37.1060 O   0  0  0  0  0  0  0  0  0  0  0  0
   43.2730   31.3310   39.5400 C   0  0  0  0  0  0  0  0  0  0  0  0
   44.1690   31.9690   38.6580 C   0  0  0  0  0  0  0  0  0  0  0  0
   43.8450   33.2330   38.1450 C   0  0  0  0  0  0  0  0  0  0  0  0
   42.6530   33.8070   38.5270 N   0  0  0  0  0  0  0  0  0  0  0  0
   41.8360   33.1540   39.3720 C   0  0  0  0  0  0  0  0  0  0  0  0
   42.1340   31.9510   39.8660 N   0  0  0  0  0  0  0  0  0  0  0  0
   40.6430   33.7520   39.7410 O   0  0  0  0  0  0  0  0  0  0  0  0
   48.1380   33.0386   37.9548 H   0  0  0  0  0  0  0  0  0  0  0  0
   48.9206   35.1354   38.9497 H   0  0  0  0  0  0  0  0  0  0  0  0
   46.5981   36.5678   43.3539 H   0  0  0  0  0  0  0  0  0  0  0  0
   45.3714   36.1487   42.1459 H   0  0  0  0  0  0  0  0  0  0  0  0
   45.4299   35.6417   45.1192 H   0  0  0  0  0  0  0  0  0  0  0  0
   44.0449   36.0850   44.0369 H   0  0  0  0  0  0  0  0  0  0  0  0
   43.8115   33.9220   44.8472 H   0  0  0  0  0  0  0  0  0  0  0  0
   45.5803   32.8132   45.3540 H   0  0  0  0  0  0  0  0  0  0  0  0
   45.3651   32.2416   43.6631 H   0  0  0  0  0  0  0  0  0  0  0  0
   47.6096   32.9509   43.6784 H   0  0  0  0  0  0  0  0  0  0  0  0
   47.2973   34.3290   44.7462 H   0  0  0  0  0  0  0  0  0  0  0  0
   43.5072   30.3389   39.9534 H   0  0  0  0  0  0  0  0  0  0  0  0
   44.5257   33.7530   37.4549 H   0  0  0  0  0  0  0  0  0  0  0  0
   40.0278   33.2875   40.3621 H   0  0  0  0  0  0  0  0  0  0  0  0
  1  6  2  0
  2  3  2  0
  2  1  1  0
  3  4  1  0
  4  5  2  0
  5  7  1  0
  6  5  1  0
  7  8  1  0
  7 12  1  0
  8  9  1  0
 10  9  1  0
 10 11  1  0
 12 11  1  0
 13  1  1  0
 14 17  1  0
 14 13  1  0
 15 14  2  0
 16 21  2  0
 17 16  1  0
 18 19  1  0
 18 17  2  0
 19 20  2  0
 20 22  1  0
 20 21  1  0
  2 23  1  0
  3 24  1  0
  8 25  1  0
  8 26  1  0
  9 27  1  0
  9 28  1  0
 10 29  1  0
 11 30  1  0
 11 31  1  0
 12 32  1  0
 12 33  1  0
 16 34  1  0
 18 35  1  0
 22 36  1  0
M  ISO  8  23  14  24  14  25  13  26  13  27  13  28  13  29   5  30  13
M  ISO  6  31  13  32  13  33  13  34  14  35  14  36   3
M  END
>  <minimizedAffinity>  (1) 
-4.23244667

>  <minimizedRMSD>  (1) 
0.596981466

$$$$
