
     RDKit          3D

 37 39  0  0  0  0  0  0  0  0999 V2000
   46.9420   32.5710   39.7190 C   0  0  0  0  0  0  0  0  0  0  0  0
   47.8130   33.3490   38.9640 C   0  0  0  0  0  0  0  0  0  0  0  0
   48.2390   34.5190   39.5450 C   0  0  0  0  0  0  0  0  0  0  0  0
   47.8900   34.9450   40.7360 N   0  0  0  0  0  0  0  0  0  0  0  0
   47.0400   34.1730   41.4560 C   0  0  0  0  0  0  0  0  0  0  0  0
   46.5630   33.0030   40.9770 N   0  0  0  0  0  0  0  0  0  0  0  0
   46.6120   34.5610   42.7550 N   0  0  0  0  0  0  0  0  0  0  0  0
   45.8890   35.7810   43.0350 C   0  0  0  0  0  0  0  0  0  0  0  0
   44.9330   35.4600   44.1540 C   0  0  0  0  0  0  0  0  0  0  0  0
   44.5210   34.0690   44.1160 N   0  0  0  0  0  0  0  0  0  0  0  0
   45.5480   33.1100   44.2950 C   0  0  0  0  0  0  0  0  0  0  0  0
   46.8810   33.7370   43.9210 C   0  0  0  0  0  0  0  0  0  0  0  0
   46.4300   31.3440   39.2370 O   0  0  0  0  0  0  0  0  0  0  0  0
   45.4450   31.3840   38.2310 C   0  0  0  0  0  0  0  0  0  0  0  0
   45.6920   30.9400   37.1000 O   0  0  0  0  0  0  0  0  0  0  0  0
   43.2790   31.3430   39.5300 C   0  0  0  0  0  0  0  0  0  0  0  0
   44.1680   31.9770   38.6540 C   0  0  0  0  0  0  0  0  0  0  0  0
   43.8510   33.2440   38.1390 C   0  0  0  0  0  0  0  0  0  0  0  0
   42.6620   33.8170   38.5210 N   0  0  0  0  0  0  0  0  0  0  0  0
   41.8460   33.1630   39.3660 C   0  0  0  0  0  0  0  0  0  0  0  0
   42.1390   31.9560   39.8620 N   0  0  0  0  0  0  0  0  0  0  0  0
   40.6060   33.7710   39.7580 N   0  0  0  0  0  0  0  0  0  0  0  0
   48.1420   33.0452   37.9593 H   0  0  0  0  0  0  0  0  0  0  0  0
   48.9285   35.1497   38.9646 H   0  0  0  0  0  0  0  0  0  0  0  0
   46.5857   36.5737   43.3452 H   0  0  0  0  0  0  0  0  0  0  0  0
   45.3542   36.1417   42.1440 H   0  0  0  0  0  0  0  0  0  0  0  0
   45.4276   35.6606   45.1158 H   0  0  0  0  0  0  0  0  0  0  0  0
   44.0385   36.0893   44.0362 H   0  0  0  0  0  0  0  0  0  0  0  0
   43.8242   33.9267   44.8610 H   0  0  0  0  0  0  0  0  0  0  0  0
   45.5736   32.7890   45.3468 H   0  0  0  0  0  0  0  0  0  0  0  0
   45.3559   32.2359   43.6554 H   0  0  0  0  0  0  0  0  0  0  0  0
   47.6175   32.9569   43.6782 H   0  0  0  0  0  0  0  0  0  0  0  0
   47.2994   34.3279   44.7491 H   0  0  0  0  0  0  0  0  0  0  0  0
   43.5164   30.3506   39.9408 H   0  0  0  0  0  0  0  0  0  0  0  0
   44.5341   33.7625   37.4502 H   0  0  0  0  0  0  0  0  0  0  0  0
   39.9731   33.2791   40.4048 H   0  0  0  0  0  0  0  0  0  0  0  0
   40.3493   34.6991   39.3924 H   0  0  0  0  0  0  0  0  0  0  0  0
  1  6  2  0
  2  3  2  0
  2  1  1  0
  3  4  1  0
  4  5  2  0
  5  7  1  0
  6  5  1  0
  7  8  1  0
  7 12  1  0
  8  9  1  0
 10  9  1  0
 10 11  1  0
 12 11  1  0
 13  1  1  0
 14 17  1  0
 14 13  1  0
 15 14  2  0
 16 21  2  0
 17 16  1  0
 18 19  1  0
 18 17  2  0
 19 20  2  0
 20 22  1  0
 20 21  1  0
  2 23  1  0
  3 24  1  0
  8 25  1  0
  8 26  1  0
  9 27  1  0
  9 28  1  0
 10 29  1  0
 11 30  1  0
 11 31  1  0
 12 32  1  0
 12 33  1  0
 16 34  1  0
 18 35  1  0
 22 36  1  0
 22 37  1  0
M  ISO  8  23  14  24  14  25  13  26  13  27  13  28  13  29   5  30  13
M  ISO  5  31  13  32  13  33  13  34  14  35  14
M  END
>  <minimizedAffinity>  (1) 
-4.23710394

>  <minimizedRMSD>  (1) 
0.60279119

$$$$
