
     RDKit          3D

 32 33  0  0  0  0  0  0  0  0999 V2000
   46.8660   34.2780   42.0730 C   0  0  0  0  0  0  0  0  0  0  0  0
   44.5720   36.1650   44.4420 C   0  0  0  0  0  0  0  0  0  0  0  0
   45.2920   35.8770   43.2580 C   0  0  0  0  0  0  0  0  0  0  0  0
   46.0700   34.6950   43.2410 C   0  0  0  0  0  0  0  0  0  0  0  0
   46.0840   33.9070   44.3580 N   0  0  0  0  0  0  0  0  0  0  0  0
   45.3750   34.2260   45.4710 C   0  0  0  0  0  0  0  0  0  0  0  0
   44.6250   35.3460   45.5120 N   0  0  0  0  0  0  0  0  0  0  0  0
   45.9480   34.2690   40.8660 C   0  0  0  0  0  0  0  0  0  0  0  0
   48.0890   35.1100   41.8270 C   0  0  0  0  0  0  0  0  0  0  0  0
   47.3310   32.8610   42.2950 C   0  0  0  0  0  0  0  0  0  0  0  0
   48.7000   32.5990   41.8330 C   0  0  0  0  0  0  0  0  0  0  0  0
   49.8590   32.8820   42.5230 C   0  0  0  0  0  0  0  0  0  0  0  0
   51.0890   32.5810   41.9680 C   0  0  0  0  0  0  0  0  0  0  0  0
   51.1770   31.9900   40.7110 C   0  0  0  0  0  0  0  0  0  0  0  0
   50.0420   31.6920   39.9900 C   0  0  0  0  0  0  0  0  0  0  0  0
   48.8360   32.0080   40.5800 C   0  0  0  0  0  0  0  0  0  0  0  0
   43.9566   37.0755   44.4904 H   0  0  0  0  0  0  0  0  0  0  0  0
   45.2486   36.5455   42.3855 H   0  0  0  0  0  0  0  0  0  0  0  0
   45.4127   33.5639   46.3486 H   0  0  0  0  0  0  0  0  0  0  0  0
   44.9006   34.2587   41.2020 H   0  0  0  0  0  0  0  0  0  0  0  0
   46.1299   35.1690   40.2602 H   0  0  0  0  0  0  0  0  0  0  0  0
   46.1475   33.3728   40.2602 H   0  0  0  0  0  0  0  0  0  0  0  0
   48.5287   35.4091   42.7899 H   0  0  0  0  0  0  0  0  0  0  0  0
   48.8229   34.5230   41.2553 H   0  0  0  0  0  0  0  0  0  0  0  0
   47.8125   36.0082   41.2553 H   0  0  0  0  0  0  0  0  0  0  0  0
   47.2834   32.6469   43.3729 H   0  0  0  0  0  0  0  0  0  0  0  0
   46.6675   32.2134   41.7030 H   0  0  0  0  0  0  0  0  0  0  0  0
   49.8053   33.3485   43.5177 H   0  0  0  0  0  0  0  0  0  0  0  0
   52.0085   32.8112   42.5262 H   0  0  0  0  0  0  0  0  0  0  0  0
   52.1656   31.7580   40.2880 H   0  0  0  0  0  0  0  0  0  0  0  0
   50.0946   31.2260   38.9950 H   0  0  0  0  0  0  0  0  0  0  0  0
   47.9172   31.7768   40.0212 H   0  0  0  0  0  0  0  0  0  0  0  0
  1 10  1  0
  1  4  1  0
  2  7  2  0
  3  2  1  0
  4  3  2  0
  4  5  1  0
  5  6  2  0
  6  7  1  0
  8  1  1  0
  9  1  1  0
 11 10  1  0
 11 12  2  0
 13 12  1  0
 14 13  2  0
 15 16  2  0
 15 14  1  0
 16 11  1  0
  2 17  1  0
  3 18  1  0
  6 19  1  0
  8 20  1  0
  8 21  1  0
  8 22  1  0
  9 23  1  0
  9 24  1  0
  9 25  1  0
 10 26  1  0
 10 27  1  0
 12 28  1  0
 13 29  1  0
 14 30  1  0
 15 31  1  0
 16 32  1  0
M  ISO  8  17  14  18  14  19  14  20   8  21   8  22   8  23   8  24   8
M  ISO  8  25   8  26   8  27   8  28  14  29  14  30  14  31  14  32  14
M  END
>  <minimizedAffinity>  (1) 
-4.65091753

>  <minimizedRMSD>  (1) 
0.895278692

$$$$
