
     RDKit          3D

 32 33  0  0  0  0  0  0  0  0999 V2000
   46.8000   34.2820   42.0330 C   0  0  0  0  0  0  0  0  0  0  0  0
   44.5650   36.1660   44.4510 C   0  0  0  0  0  0  0  0  0  0  0  0
   45.2680   35.8600   43.2710 C   0  0  0  0  0  0  0  0  0  0  0  0
   46.0350   34.6870   43.2210 C   0  0  0  0  0  0  0  0  0  0  0  0
   46.0600   33.8990   44.3270 N   0  0  0  0  0  0  0  0  0  0  0  0
   45.3800   34.2040   45.4550 C   0  0  0  0  0  0  0  0  0  0  0  0
   44.6300   35.3380   45.5250 N   0  0  0  0  0  0  0  0  0  0  0  0
   45.8340   34.2610   40.8460 C   0  0  0  0  0  0  0  0  0  0  0  0
   48.0040   35.0920   41.7340 C   0  0  0  0  0  0  0  0  0  0  0  0
   47.2580   32.8450   42.2290 C   0  0  0  0  0  0  0  0  0  0  0  0
   48.6490   32.6070   41.8330 C   0  0  0  0  0  0  0  0  0  0  0  0
   49.7510   32.9480   42.5910 C   0  0  0  0  0  0  0  0  0  0  0  0
   51.0320   32.6790   42.1220 C   0  0  0  0  0  0  0  0  0  0  0  0
   51.1910   32.0620   40.8810 C   0  0  0  0  0  0  0  0  0  0  0  0
   50.1280   31.7000   40.0820 C   0  0  0  0  0  0  0  0  0  0  0  0
   48.8750   32.0000   40.6140 C   0  0  0  0  0  0  0  0  0  0  0  0
   43.9587   37.0823   44.5036 H   0  0  0  0  0  0  0  0  0  0  0  0
   45.2167   36.5309   42.4008 H   0  0  0  0  0  0  0  0  0  0  0  0
   45.4332   33.5305   46.3231 H   0  0  0  0  0  0  0  0  0  0  0  0
   44.7985   34.2385   41.2164 H   0  0  0  0  0  0  0  0  0  0  0  0
   45.9851   35.1626   40.2343 H   0  0  0  0  0  0  0  0  0  0  0  0
   46.0242   33.3668   40.2343 H   0  0  0  0  0  0  0  0  0  0  0  0
   48.4756   35.4093   42.6758 H   0  0  0  0  0  0  0  0  0  0  0  0
   48.7165   34.4888   41.1521 H   0  0  0  0  0  0  0  0  0  0  0  0
   47.7138   35.9792   41.1521 H   0  0  0  0  0  0  0  0  0  0  0  0
   47.1522   32.5897   43.2937 H   0  0  0  0  0  0  0  0  0  0  0  0
   46.6290   32.2175   41.5804 H   0  0  0  0  0  0  0  0  0  0  0  0
   49.6154   33.4338   43.5686 H   0  0  0  0  0  0  0  0  0  0  0  0
   51.9119   32.9502   42.7239 H   0  0  0  0  0  0  0  0  0  0  0  0
   52.2107   31.8551   40.5241 H   0  0  0  0  0  0  0  0  0  0  0  0
   50.2578   31.2138   39.1039 H   0  0  0  0  0  0  0  0  0  0  0  0
   47.9939   31.7309   40.0130 H   0  0  0  0  0  0  0  0  0  0  0  0
  1 10  1  0
  1  4  1  0
  2  7  2  0
  3  2  1  0
  4  3  2  0
  4  5  1  0
  5  6  2  0
  6  7  1  0
  8  1  1  0
  9  1  1  0
 11 10  1  0
 11 12  2  0
 13 12  1  0
 14 13  2  0
 15 16  2  0
 15 14  1  0
 16 11  1  0
  2 17  1  0
  3 18  1  0
  6 19  1  0
  8 20  1  0
  8 21  1  0
  8 22  1  0
  9 23  1  0
  9 24  1  0
  9 25  1  0
 10 26  1  0
 10 27  1  0
 12 28  1  0
 13 29  1  0
 14 30  1  0
 15 31  1  0
 16 32  1  0
M  ISO  8  17  14  18  14  19  14  20   8  21   8  22   8  23   8  24   8
M  ISO  8  25   8  26   8  27   8  28  14  29  14  30  14  31  14  32  14
M  END
>  <minimizedAffinity>  (1) 
-4.66540003

>  <minimizedRMSD>  (1) 
1.07690406

$$$$
