
     RDKit          3D

 29 30  0  0  0  0  0  0  0  0999 V2000
   47.2160   34.2780   42.1450 C   0  0  0  0  0  0  0  0  0  0  0  0
   44.6430   36.0760   44.2820 C   0  0  0  0  0  0  0  0  0  0  0  0
   45.4720   35.8120   43.1630 C   0  0  0  0  0  0  0  0  0  0  0  0
   46.3000   34.6700   43.2440 C   0  0  0  0  0  0  0  0  0  0  0  0
   46.2730   33.8850   44.3620 N   0  0  0  0  0  0  0  0  0  0  0  0
   45.4510   34.1940   45.4050 C   0  0  0  0  0  0  0  0  0  0  0  0
   44.6440   35.2850   45.3600 N   0  0  0  0  0  0  0  0  0  0  0  0
   46.3970   34.2380   40.8550 C   0  0  0  0  0  0  0  0  0  0  0  0
   48.4200   35.1330   41.9910 C   0  0  0  0  0  0  0  0  0  0  0  0
   47.6730   32.8500   42.3760 C   0  0  0  0  0  0  0  0  0  0  0  0
   49.0170   32.6130   41.7940 C   0  0  0  0  0  0  0  0  0  0  0  0
   50.2710   32.5750   42.3680 C   0  0  0  0  0  0  0  0  0  0  0  0
   51.2020   32.3130   41.3680 C   0  0  0  0  0  0  0  0  0  0  0  0
   50.5050   32.1970   40.2160 N   0  0  0  0  0  0  0  0  0  0  0  0
   49.2170   32.3740   40.4660 N   0  0  0  0  0  0  0  0  0  0  0  0
   43.9815   36.9547   44.2630 H   0  0  0  0  0  0  0  0  0  0  0  0
   45.4708   36.4632   42.2765 H   0  0  0  0  0  0  0  0  0  0  0  0
   45.4415   33.5496   46.2965 H   0  0  0  0  0  0  0  0  0  0  0  0
   45.3263   34.1857   41.1019 H   0  0  0  0  0  0  0  0  0  0  0  0
   46.5938   35.1468   40.2674 H   0  0  0  0  0  0  0  0  0  0  0  0
   46.6815   33.3527   40.2674 H   0  0  0  0  0  0  0  0  0  0  0  0
   48.8050   35.4064   42.9845 H   0  0  0  0  0  0  0  0  0  0  0  0
   49.1935   34.5807   41.4372 H   0  0  0  0  0  0  0  0  0  0  0  0
   48.1535   36.0453   41.4372 H   0  0  0  0  0  0  0  0  0  0  0  0
   47.7121   32.6570   43.4582 H   0  0  0  0  0  0  0  0  0  0  0  0
   46.9581   32.1731   41.8854 H   0  0  0  0  0  0  0  0  0  0  0  0
   50.4962   32.7260   43.4341 H   0  0  0  0  0  0  0  0  0  0  0  0
   52.2911   32.2188   41.4908 H   0  0  0  0  0  0  0  0  0  0  0  0
   50.9115   32.0018   39.2900 H   0  0  0  0  0  0  0  0  0  0  0  0
  1 10  1  0
  1  4  1  0
  2  7  2  0
  3  4  2  0
  3  2  1  0
  4  5  1  0
  5  6  2  0
  7  6  1  0
  8  1  1  0
  9  1  1  0
 11 12  1  0
 11 10  1  0
 13 12  2  0
 14 15  1  0
 14 13  1  0
 15 11  2  0
  2 16  1  0
  3 17  1  0
  6 18  1  0
  8 19  1  0
  8 20  1  0
  8 21  1  0
  9 22  1  0
  9 23  1  0
  9 24  1  0
 10 25  1  0
 10 26  1  0
 12 27  1  0
 13 28  1  0
 14 29  1  0
M  ISO  8  16  14  17  14  18  14  19   8  20   8  21   8  22   8  23   8
M  ISO  6  24   8  25   8  26   8  27  14  28  14  29   9
M  END
>  <minimizedAffinity>  (1) 
-4.5926528

>  <minimizedRMSD>  (1) 
0.714595377

$$$$
