
     RDKit          3D

 29 30  0  0  0  0  0  0  0  0999 V2000
   47.2150   34.2520   42.1590 C   0  0  0  0  0  0  0  0  0  0  0  0
   44.6420   36.0980   44.2660 C   0  0  0  0  0  0  0  0  0  0  0  0
   45.4750   35.8040   43.1730 C   0  0  0  0  0  0  0  0  0  0  0  0
   46.2990   34.6680   43.2360 C   0  0  0  0  0  0  0  0  0  0  0  0
   46.2400   33.9080   44.3730 N   0  0  0  0  0  0  0  0  0  0  0  0
   45.4280   34.2150   45.4110 C   0  0  0  0  0  0  0  0  0  0  0  0
   44.6320   35.3080   45.3560 N   0  0  0  0  0  0  0  0  0  0  0  0
   46.3960   34.1880   40.8740 C   0  0  0  0  0  0  0  0  0  0  0  0
   48.4110   35.1130   41.9930 C   0  0  0  0  0  0  0  0  0  0  0  0
   47.6710   32.8420   42.4330 C   0  0  0  0  0  0  0  0  0  0  0  0
   48.9880   32.5840   41.8830 N   0  0  0  0  0  0  0  0  0  0  0  0
   49.1540   31.9720   40.6980 C   0  0  0  0  0  0  0  0  0  0  0  0
   50.5080   31.8700   40.4480 C   0  0  0  0  0  0  0  0  0  0  0  0
   51.1670   32.4280   41.4960 N   0  0  0  0  0  0  0  0  0  0  0  0
   50.2190   32.8520   42.3510 C   0  0  0  0  0  0  0  0  0  0  0  0
   43.9907   36.9838   44.2305 H   0  0  0  0  0  0  0  0  0  0  0  0
   45.4817   36.4518   42.2840 H   0  0  0  0  0  0  0  0  0  0  0  0
   45.4149   33.5729   46.3040 H   0  0  0  0  0  0  0  0  0  0  0  0
   45.3280   34.1045   41.1237 H   0  0  0  0  0  0  0  0  0  0  0  0
   46.5647   35.1021   40.2858 H   0  0  0  0  0  0  0  0  0  0  0  0
   46.7046   33.3112   40.2858 H   0  0  0  0  0  0  0  0  0  0  0  0
   48.8009   35.3937   42.9825 H   0  0  0  0  0  0  0  0  0  0  0  0
   49.1843   34.5631   41.4367 H   0  0  0  0  0  0  0  0  0  0  0  0
   48.1349   36.0209   41.4367 H   0  0  0  0  0  0  0  0  0  0  0  0
   47.7025   32.6833   43.5210 H   0  0  0  0  0  0  0  0  0  0  0  0
   46.9598   32.1539   41.9528 H   0  0  0  0  0  0  0  0  0  0  0  0
   48.3488   31.6136   40.0398 H   0  0  0  0  0  0  0  0  0  0  0  0
   50.9705   31.4174   39.5585 H   0  0  0  0  0  0  0  0  0  0  0  0
   50.4246   33.3529   43.3085 H   0  0  0  0  0  0  0  0  0  0  0  0
  1 10  1  0
  1  4  1  0
  2  7  2  0
  3  4  2  0
  3  2  1  0
  4  5  1  0
  5  6  2  0
  7  6  1  0
  8  1  1  0
  9  1  1  0
 11 15  1  0
 11 10  1  0
 12 11  1  0
 13 12  2  0
 13 14  1  0
 14 15  2  0
  2 16  1  0
  3 17  1  0
  6 18  1  0
  8 19  1  0
  8 20  1  0
  8 21  1  0
  9 22  1  0
  9 23  1  0
  9 24  1  0
 10 25  1  0
 10 26  1  0
 12 27  1  0
 13 28  1  0
 15 29  1  0
M  ISO  8  16  14  17  14  18  14  19   8  20   8  21   8  22   8  23   8
M  ISO  6  24   8  25   8  26   8  27  14  28  14  29  14
M  END
>  <minimizedAffinity>  (1) 
-4.33643818

>  <minimizedRMSD>  (1) 
0.765761256

$$$$
