
     RDKit          3D

 27 28  0  0  0  0  0  0  0  0999 V2000
   47.2850   34.2530   42.2250 C   0  0  0  0  0  0  0  0  0  0  0  0
   44.6430   36.0910   44.2530 C   0  0  0  0  0  0  0  0  0  0  0  0
   45.5110   35.7910   43.1800 C   0  0  0  0  0  0  0  0  0  0  0  0
   46.3370   34.6610   43.2940 C   0  0  0  0  0  0  0  0  0  0  0  0
   46.2650   33.9130   44.4180 N   0  0  0  0  0  0  0  0  0  0  0  0
   45.4210   34.2170   45.4420 C   0  0  0  0  0  0  0  0  0  0  0  0
   44.6190   35.2980   45.3550 N   0  0  0  0  0  0  0  0  0  0  0  0
   46.4520   34.0150   40.9580 C   0  0  0  0  0  0  0  0  0  0  0  0
   48.4090   35.1860   41.9930 C   0  0  0  0  0  0  0  0  0  0  0  0
   47.8640   32.9070   42.6080 C   0  0  0  0  0  0  0  0  0  0  0  0
   49.2210   32.6920   42.0640 C   0  0  0  0  0  0  0  0  0  0  0  0
   50.4850   33.0240   42.3730 N   0  0  0  0  0  0  0  0  0  0  0  0
   51.3110   32.5470   41.5140 O   0  0  0  0  0  0  0  0  0  0  0  0
   50.6390   31.8960   40.6250 C   0  0  0  0  0  0  0  0  0  0  0  0
   49.3180   31.9600   40.9330 N   0  0  0  0  0  0  0  0  0  0  0  0
   43.9842   36.9700   44.1958 H   0  0  0  0  0  0  0  0  0  0  0  0
   45.5392   36.4242   42.2810 H   0  0  0  0  0  0  0  0  0  0  0  0
   45.3931   33.5816   46.3395 H   0  0  0  0  0  0  0  0  0  0  0  0
   45.4298   33.7230   41.2407 H   0  0  0  0  0  0  0  0  0  0  0  0
   46.4178   34.9393   40.3626 H   0  0  0  0  0  0  0  0  0  0  0  0
   46.9113   33.2121   40.3626 H   0  0  0  0  0  0  0  0  0  0  0  0
   48.8128   35.5212   42.9597 H   0  0  0  0  0  0  0  0  0  0  0  0
   49.1987   34.6743   41.4234 H   0  0  0  0  0  0  0  0  0  0  0  0
   48.0514   36.0564   41.4234 H   0  0  0  0  0  0  0  0  0  0  0  0
   47.9111   32.8439   43.7052 H   0  0  0  0  0  0  0  0  0  0  0  0
   47.2098   32.1317   42.1826 H   0  0  0  0  0  0  0  0  0  0  0  0
   51.0675   31.3733   39.7572 H   0  0  0  0  0  0  0  0  0  0  0  0
  1 10  1  0
  1  4  1  0
  2  7  2  0
  3  4  2  0
  3  2  1  0
  4  5  1  0
  5  6  2  0
  7  6  1  0
  8  1  1  0
  9  1  1  0
 11 12  2  0
 11 10  1  0
 13 12  1  0
 14 15  2  0
 14 13  1  0
 15 11  1  0
  2 16  1  0
  3 17  1  0
  6 18  1  0
  8 19  1  0
  8 20  1  0
  8 21  1  0
  9 22  1  0
  9 23  1  0
  9 24  1  0
 10 25  1  0
 10 26  1  0
 14 27  1  0
M  ISO  8  16  14  17  14  18  14  19   8  20   8  21   8  22   8  23   8
M  ISO  4  24   8  25   8  26   8  27  14
M  END
>  <minimizedAffinity>  (1) 
-4.40478659

>  <minimizedRMSD>  (1) 
0.850890517

$$$$
