
     RDKit          3D

 29 30  0  0  0  0  0  0  0  0999 V2000
   47.2510   34.2430   42.2010 C   0  0  0  0  0  0  0  0  0  0  0  0
   44.6450   36.1860   44.1580 C   0  0  0  0  0  0  0  0  0  0  0  0
   45.5120   35.8540   43.0980 C   0  0  0  0  0  0  0  0  0  0  0  0
   46.3070   34.6970   43.2380 C   0  0  0  0  0  0  0  0  0  0  0  0
   46.1990   33.9660   44.3760 N   0  0  0  0  0  0  0  0  0  0  0  0
   45.3470   34.3250   45.3780 C   0  0  0  0  0  0  0  0  0  0  0  0
   44.5770   35.4300   45.2640 N   0  0  0  0  0  0  0  0  0  0  0  0
   46.4640   34.0970   40.8970 C   0  0  0  0  0  0  0  0  0  0  0  0
   48.4470   35.1170   42.0040 C   0  0  0  0  0  0  0  0  0  0  0  0
   47.7360   32.8670   42.5540 C   0  0  0  0  0  0  0  0  0  0  0  0
   48.9940   32.5120   41.8240 C   0  0  0  0  0  0  0  0  0  0  0  0
   50.2980   32.6140   42.2760 C   0  0  0  0  0  0  0  0  0  0  0  0
   51.2690   32.2140   41.3900 C   0  0  0  0  0  0  0  0  0  0  0  0
   50.9290   31.7550   40.1650 C   0  0  0  0  0  0  0  0  0  0  0  0
   49.1330   31.8510   40.1500 S   0  0  0  0  0  0  0  0  0  0  0  0
   44.0120   37.0820   44.0770 H   0  0  0  0  0  0  0  0  0  0  0  0
   45.5671   36.4757   42.1922 H   0  0  0  0  0  0  0  0  0  0  0  0
   45.2857   33.7096   46.2877 H   0  0  0  0  0  0  0  0  0  0  0  0
   45.4064   33.9008   41.1270 H   0  0  0  0  0  0  0  0  0  0  0  0
   46.5461   35.0257   40.3132 H   0  0  0  0  0  0  0  0  0  0  0  0
   46.8737   33.2595   40.3132 H   0  0  0  0  0  0  0  0  0  0  0  0
   48.8508   35.4121   42.9837 H   0  0  0  0  0  0  0  0  0  0  0  0
   49.2152   34.5660   41.4416 H   0  0  0  0  0  0  0  0  0  0  0  0
   48.1553   36.0163   41.4416 H   0  0  0  0  0  0  0  0  0  0  0  0
   47.9293   32.8252   43.6361 H   0  0  0  0  0  0  0  0  0  0  0  0
   46.9580   32.1467   42.2610 H   0  0  0  0  0  0  0  0  0  0  0  0
   50.5415   32.9911   43.2802 H   0  0  0  0  0  0  0  0  0  0  0  0
   52.3289   32.2676   41.6792 H   0  0  0  0  0  0  0  0  0  0  0  0
   51.5957   31.4042   39.3635 H   0  0  0  0  0  0  0  0  0  0  0  0
  1 10  1  0
  1  4  1  0
  2  7  2  0
  3  4  2  0
  3  2  1  0
  4  5  1  0
  5  6  2  0
  7  6  1  0
  8  1  1  0
  9  1  1  0
 11 12  2  0
 11 10  1  0
 13 12  1  0
 14 13  2  0
 15 14  1  0
 15 11  1  0
  2 16  1  0
  3 17  1  0
  6 18  1  0
  8 19  1  0
  8 20  1  0
  8 21  1  0
  9 22  1  0
  9 23  1  0
  9 24  1  0
 10 25  1  0
 10 26  1  0
 12 27  1  0
 13 28  1  0
 14 29  1  0
M  ISO  8  16  14  17  14  18  14  19   8  20   8  21   8  22   8  23   8
M  ISO  6  24   8  25   8  26   8  27  14  28  14  29  14
M  END
>  <minimizedAffinity>  (1) 
-4.38037205

>  <minimizedRMSD>  (1) 
0.707766593

$$$$
