
     RDKit          3D

 28 29  0  0  0  0  0  0  0  0999 V2000
   46.9680   34.2660   42.2100 C   0  0  0  0  0  0  0  0  0  0  0  0
   44.5620   36.1810   44.4330 C   0  0  0  0  0  0  0  0  0  0  0  0
   45.3420   35.8650   43.2850 C   0  0  0  0  0  0  0  0  0  0  0  0
   46.1210   34.7020   43.3300 C   0  0  0  0  0  0  0  0  0  0  0  0
   46.0980   33.9340   44.4570 N   0  0  0  0  0  0  0  0  0  0  0  0
   45.3430   34.2610   45.5380 C   0  0  0  0  0  0  0  0  0  0  0  0
   44.5790   35.3800   45.5220 N   0  0  0  0  0  0  0  0  0  0  0  0
   46.0820   34.2280   40.9640 C   0  0  0  0  0  0  0  0  0  0  0  0
   48.1910   35.1060   41.9930 C   0  0  0  0  0  0  0  0  0  0  0  0
   47.4190   32.8580   42.4450 C   0  0  0  0  0  0  0  0  0  0  0  0
   48.7540   32.5800   41.8840 C   0  0  0  0  0  0  0  0  0  0  0  0
   48.8820   31.9250   40.5700 C   0  0  0  0  0  0  0  0  0  0  0  0
   50.7280   31.8370   40.3880 S   0  0  0  0  0  0  0  0  0  0  0  0
   50.9840   32.6750   42.0680 C   0  0  0  0  0  0  0  0  0  0  0  0
   49.9200   32.8580   42.4380 N   0  0  0  0  0  0  0  0  0  0  0  0
   43.9384   37.0871   44.4341 H   0  0  0  0  0  0  0  0  0  0  0  0
   45.3332   36.5109   42.3947 H   0  0  0  0  0  0  0  0  0  0  0  0
   45.3519   33.6156   46.4287 H   0  0  0  0  0  0  0  0  0  0  0  0
   45.0254   34.1827   41.2666 H   0  0  0  0  0  0  0  0  0  0  0  0
   46.2532   35.1343   40.3646 H   0  0  0  0  0  0  0  0  0  0  0  0
   46.3301   33.3397   40.3646 H   0  0  0  0  0  0  0  0  0  0  0  0
   48.6138   35.3964   42.9661 H   0  0  0  0  0  0  0  0  0  0  0  0
   48.9367   34.5286   41.4268 H   0  0  0  0  0  0  0  0  0  0  0  0
   47.9197   36.0093   41.4268 H   0  0  0  0  0  0  0  0  0  0  0  0
   47.4495   32.6760   43.5294 H   0  0  0  0  0  0  0  0  0  0  0  0
   46.7038   32.1941   41.9374 H   0  0  0  0  0  0  0  0  0  0  0  0
   48.0956   31.5808   39.8821 H   0  0  0  0  0  0  0  0  0  0  0  0
   51.9316   32.9253   42.5673 H   0  0  0  0  0  0  0  0  0  0  0  0
  1 10  1  0
  1  4  1  0
  2  7  2  0
  3  4  2  0
  3  2  1  0
  4  5  1  0
  5  6  2  0
  7  6  1  0
  8  1  1  0
  9  1  1  0
 11 15  1  0
 11 10  1  0
 12 11  2  0
 13 12  1  0
 13 14  1  0
 14 15  2  0
  2 16  1  0
  3 17  1  0
  6 18  1  0
  8 19  1  0
  8 20  1  0
  8 21  1  0
  9 22  1  0
  9 23  1  0
  9 24  1  0
 10 25  1  0
 10 26  1  0
 12 27  1  0
 14 28  1  0
M  ISO  8  16  14  17  14  18  14  19   8  20   8  21   8  22   8  23   8
M  ISO  5  24   8  25   8  26   8  27  14  28  14
M  END
>  <minimizedAffinity>  (1) 
-4.28826189

>  <minimizedRMSD>  (1) 
1.01335645

$$$$
