
     RDKit          3D

 37 39  0  0  0  0  0  0  0  0999 V2000
   48.3100   34.6570   41.6160 C   0  0  0  0  0  0  0  0  0  0  0  0
   45.1890   35.1280   43.7400 C   0  0  0  0  0  0  0  0  0  0  0  0
   46.1060   35.3180   42.6770 C   0  0  0  0  0  0  0  0  0  0  0  0
   47.2890   34.5480   42.6620 C   0  0  0  0  0  0  0  0  0  0  0  0
   47.4790   33.6650   43.6730 N   0  0  0  0  0  0  0  0  0  0  0  0
   46.5780   33.5050   44.6820 C   0  0  0  0  0  0  0  0  0  0  0  0
   45.4460   34.2350   44.7060 N   0  0  0  0  0  0  0  0  0  0  0  0
   47.6200   34.3720   40.2770 C   0  0  0  0  0  0  0  0  0  0  0  0
   49.0470   35.9330   41.5730 C   0  0  0  0  0  0  0  0  0  0  0  0
   49.3050   33.5310   41.7980 C   0  0  0  0  0  0  0  0  0  0  0  0
   49.1950   32.5400   40.8130 O   0  0  0  0  0  0  0  0  0  0  0  0
   50.3620   32.0390   40.2560 C   0  0  0  0  0  0  0  0  0  0  0  0
   51.5010   31.8270   40.9110 N   0  0  0  0  0  0  0  0  0  0  0  0
   52.6260   31.3480   40.3920 C   0  0  0  0  0  0  0  0  0  0  0  0
   52.6370   31.0410   39.0760 N   0  0  0  0  0  0  0  0  0  0  0  0
   51.5340   31.2120   38.2910 C   0  0  0  0  0  0  0  0  0  0  0  0
   51.5520   30.8970   36.9510 C   0  0  0  0  0  0  0  0  0  0  0  0
   50.3740   31.1170   36.2770 C   0  0  0  0  0  0  0  0  0  0  0  0
   49.2000   31.6070   36.7770 C   0  0  0  0  0  0  0  0  0  0  0  0
   49.2670   31.9000   38.1420 C   0  0  0  0  0  0  0  0  0  0  0  0
   50.4010   31.7170   38.9140 C   0  0  0  0  0  0  0  0  0  0  0  0
   44.2605   35.7169   43.7728 H   0  0  0  0  0  0  0  0  0  0  0  0
   45.9008   36.0491   41.8812 H   0  0  0  0  0  0  0  0  0  0  0  0
   46.7758   32.7758   45.4815 H   0  0  0  0  0  0  0  0  0  0  0  0
   46.6178   33.9580   40.4618 H   0  0  0  0  0  0  0  0  0  0  0  0
   47.5307   35.3069   39.7042 H   0  0  0  0  0  0  0  0  0  0  0  0
   48.2165   33.6466   39.7042 H   0  0  0  0  0  0  0  0  0  0  0  0
   49.2454   36.2766   42.5990 H   0  0  0  0  0  0  0  0  0  0  0  0
   50.0005   35.7881   41.0440 H   0  0  0  0  0  0  0  0  0  0  0  0
   48.4450   36.6865   41.0440 H   0  0  0  0  0  0  0  0  0  0  0  0
   50.3209   33.9512   41.7609 H   0  0  0  0  0  0  0  0  0  0  0  0
   49.0926   33.0570   42.7676 H   0  0  0  0  0  0  0  0  0  0  0  0
   53.5216   31.2055   41.0146 H   0  0  0  0  0  0  0  0  0  0  0  0
   52.4477   30.4966   36.4535 H   0  0  0  0  0  0  0  0  0  0  0  0
   50.3766   30.8686   35.2054 H   0  0  0  0  0  0  0  0  0  0  0  0
   48.2960   31.7554   36.1681 H   0  0  0  0  0  0  0  0  0  0  0  0
   48.3662   32.2992   38.6310 H   0  0  0  0  0  0  0  0  0  0  0  0
  1 10  1  0
  1  4  1  0
  2  7  2  0
  3  2  1  0
  4  3  2  0
  4  5  1  0
  5  6  2  0
  6  7  1  0
  8  1  1  0
  9  1  1  0
 11 10  1  0
 12 11  1  0
 12 13  2  0
 14 13  1  0
 15 14  2  0
 16 21  2  0
 16 15  1  0
 17 16  1  0
 18 19  1  0
 18 17  2  0
 19 20  2  0
 20 21  1  0
 21 12  1  0
  2 22  1  0
  3 23  1  0
  6 24  1  0
  8 25  1  0
  8 26  1  0
  8 27  1  0
  9 28  1  0
  9 29  1  0
  9 30  1  0
 10 31  1  0
 10 32  1  0
 14 33  1  0
 17 34  1  0
 18 35  1  0
 19 36  1  0
 20 37  1  0
M  ISO  8  22  14  23  14  24  14  25   8  26   8  27   8  28   8  29   8
M  ISO  8  30   8  31   8  32   8  33  14  34  14  35  14  36  14  37  14
M  END
>  <minimizedAffinity>  (1) 
-4.99814034

>  <minimizedRMSD>  (1) 
3.97928739

$$$$
