
     RDKit          3D

 37 39  0  0  0  0  0  0  0  0999 V2000
   47.3950   34.4230   42.0300 C   0  0  0  0  0  0  0  0  0  0  0  0
   44.6840   36.0650   44.1030 C   0  0  0  0  0  0  0  0  0  0  0  0
   45.5660   35.8390   43.0350 C   0  0  0  0  0  0  0  0  0  0  0  0
   46.4360   34.7440   43.0930 C   0  0  0  0  0  0  0  0  0  0  0  0
   46.3900   33.9410   44.1860 N   0  0  0  0  0  0  0  0  0  0  0  0
   45.5240   34.1790   45.2130 C   0  0  0  0  0  0  0  0  0  0  0  0
   44.6800   35.2330   45.1690 N   0  0  0  0  0  0  0  0  0  0  0  0
   46.6180   34.1320   40.7650 C   0  0  0  0  0  0  0  0  0  0  0  0
   48.4340   35.4670   41.7820 C   0  0  0  0  0  0  0  0  0  0  0  0
   48.1190   33.1360   42.3900 C   0  0  0  0  0  0  0  0  0  0  0  0
   48.5400   32.4360   41.2560 O   0  0  0  0  0  0  0  0  0  0  0  0
   49.8820   32.1370   41.1000 C   0  0  0  0  0  0  0  0  0  0  0  0
   50.9340   32.0330   41.9880 C   0  0  0  0  0  0  0  0  0  0  0  0
   52.0730   31.7140   41.3460 N   0  0  0  0  0  0  0  0  0  0  0  0
   51.7720   31.6090   40.0400 C   0  0  0  0  0  0  0  0  0  0  0  0
   52.4960   31.3110   38.8850 C   0  0  0  0  0  0  0  0  0  0  0  0
   51.9490   31.2620   37.6240 C   0  0  0  0  0  0  0  0  0  0  0  0
   50.6230   31.5160   37.4610 C   0  0  0  0  0  0  0  0  0  0  0  0
   49.8480   31.8180   38.5610 C   0  0  0  0  0  0  0  0  0  0  0  0
   50.4160   31.8640   39.8350 C   0  0  0  0  0  0  0  0  0  0  0  0
   43.9941   36.9212   44.0729 H   0  0  0  0  0  0  0  0  0  0  0  0
   45.5735   36.5124   42.1652 H   0  0  0  0  0  0  0  0  0  0  0  0
   45.5129   33.5072   46.0840 H   0  0  0  0  0  0  0  0  0  0  0  0
   45.6176   33.7573   41.0272 H   0  0  0  0  0  0  0  0  0  0  0  0
   46.5207   35.0546   40.1740 H   0  0  0  0  0  0  0  0  0  0  0  0
   47.1507   33.3725   40.1740 H   0  0  0  0  0  0  0  0  0  0  0  0
   48.8105   35.8453   42.7438 H   0  0  0  0  0  0  0  0  0  0  0  0
   49.2649   35.0287   41.2098 H   0  0  0  0  0  0  0  0  0  0  0  0
   47.9917   36.2958   41.2098 H   0  0  0  0  0  0  0  0  0  0  0  0
   48.9992   33.3831   43.0016 H   0  0  0  0  0  0  0  0  0  0  0  0
   47.4167   32.4950   42.9430 H   0  0  0  0  0  0  0  0  0  0  0  0
   50.8523   32.1897   43.0737 H   0  0  0  0  0  0  0  0  0  0  0  0
   52.9997   31.5764   41.7741 H   0  0  0  0  0  0  0  0  0  0  0  0
   53.5710   31.1023   38.9895 H   0  0  0  0  0  0  0  0  0  0  0  0
   52.5785   31.0195   36.7551 H   0  0  0  0  0  0  0  0  0  0  0  0
   50.1716   31.4808   36.4585 H   0  0  0  0  0  0  0  0  0  0  0  0
   48.7750   32.0240   38.4334 H   0  0  0  0  0  0  0  0  0  0  0  0
  1 10  1  0
  1  4  1  0
  2  7  2  0
  3  4  2  0
  3  2  1  0
  4  5  1  0
  5  6  2  0
  7  6  1  0
  8  1  1  0
  9  1  1  0
 11 10  1  0
 12 11  1  0
 12 13  2  0
 14 13  1  0
 15 14  1  0
 16 15  2  0
 17 16  1  0
 18 17  2  0
 18 19  1  0
 19 20  2  0
 20 15  1  0
 20 12  1  0
  2 21  1  0
  3 22  1  0
  6 23  1  0
  8 24  1  0
  8 25  1  0
  8 26  1  0
  9 27  1  0
  9 28  1  0
  9 29  1  0
 10 30  1  0
 10 31  1  0
 13 32  1  0
 14 33  1  0
 16 34  1  0
 17 35  1  0
 18 36  1  0
 19 37  1  0
M  ISO  8  21  14  22  14  23  14  24   8  25   8  26   8  27   8  28   8
M  ISO  8  29   8  30   8  31   8  32  14  33   9  34  14  35  14  36  14
M  ISO  1  37  14
M  END
>  <minimizedAffinity>  (1) 
-5.12881804

>  <minimizedRMSD>  (1) 
2.95859265

$$$$
