
     RDKit          3D

 39 41  0  0  0  0  0  0  0  0999 V2000
   47.2950   34.4490   41.9800 C   0  0  0  0  0  0  0  0  0  0  0  0
   44.6660   36.0340   44.2300 C   0  0  0  0  0  0  0  0  0  0  0  0
   45.4940   35.8550   43.0970 C   0  0  0  0  0  0  0  0  0  0  0  0
   46.3770   34.7560   43.0950 C   0  0  0  0  0  0  0  0  0  0  0  0
   46.3760   33.9290   44.1940 N   0  0  0  0  0  0  0  0  0  0  0  0
   45.5600   34.1470   45.2560 C   0  0  0  0  0  0  0  0  0  0  0  0
   44.7130   35.1890   45.2740 N   0  0  0  0  0  0  0  0  0  0  0  0
   46.4360   34.2020   40.7570 C   0  0  0  0  0  0  0  0  0  0  0  0
   48.3290   35.4740   41.7300 C   0  0  0  0  0  0  0  0  0  0  0  0
   48.0000   33.1420   42.3020 C   0  0  0  0  0  0  0  0  0  0  0  0
   48.2660   32.4010   41.1490 O   0  0  0  0  0  0  0  0  0  0  0  0
   49.4920   32.0930   40.6370 C   0  0  0  0  0  0  0  0  0  0  0  0
   50.6510   31.9530   41.3730 C   0  0  0  0  0  0  0  0  0  0  0  0
   51.8680   31.6400   40.8050 C   0  0  0  0  0  0  0  0  0  0  0  0
   51.9470   31.4570   39.4470 C   0  0  0  0  0  0  0  0  0  0  0  0
   50.7960   31.5900   38.6710 C   0  0  0  0  0  0  0  0  0  0  0  0
   50.8920   31.4020   37.3090 C   0  0  0  0  0  0  0  0  0  0  0  0
   49.7420   31.5330   36.5240 C   0  0  0  0  0  0  0  0  0  0  0  0
   48.5070   31.8510   37.0970 C   0  0  0  0  0  0  0  0  0  0  0  0
   48.4710   32.0290   38.4780 C   0  0  0  0  0  0  0  0  0  0  0  0
   49.5970   31.9020   39.2650 C   0  0  0  0  0  0  0  0  0  0  0  0
   43.9681   36.8838   44.2571 H   0  0  0  0  0  0  0  0  0  0  0  0
   45.4503   36.5503   42.2458 H   0  0  0  0  0  0  0  0  0  0  0  0
   45.5928   33.4602   46.1147 H   0  0  0  0  0  0  0  0  0  0  0  0
   45.4234   33.9108   41.0729 H   0  0  0  0  0  0  0  0  0  0  0  0
   46.3822   35.1211   40.1550 H   0  0  0  0  0  0  0  0  0  0  0  0
   46.8786   33.3947   40.1550 H   0  0  0  0  0  0  0  0  0  0  0  0
   48.7103   35.8520   42.6901 H   0  0  0  0  0  0  0  0  0  0  0  0
   49.1556   35.0288   41.1569 H   0  0  0  0  0  0  0  0  0  0  0  0
   47.8910   36.3045   41.1569 H   0  0  0  0  0  0  0  0  0  0  0  0
   48.9501   33.3651   42.8095 H   0  0  0  0  0  0  0  0  0  0  0  0
   47.3386   32.5457   42.9478 H   0  0  0  0  0  0  0  0  0  0  0  0
   50.6018   32.0977   42.4623 H   0  0  0  0  0  0  0  0  0  0  0  0
   52.7653   31.5381   41.4331 H   0  0  0  0  0  0  0  0  0  0  0  0
   52.9090   31.2078   38.9753 H   0  0  0  0  0  0  0  0  0  0  0  0
   51.8584   31.1527   36.8465 H   0  0  0  0  0  0  0  0  0  0  0  0
   49.8104   31.3832   35.4364 H   0  0  0  0  0  0  0  0  0  0  0  0
   47.6008   31.9563   36.4824 H   0  0  0  0  0  0  0  0  0  0  0  0
   47.5129   32.2792   38.9571 H   0  0  0  0  0  0  0  0  0  0  0  0
  1 10  1  0
  1  4  1  0
  2  7  2  0
  3  2  1  0
  4  3  2  0
  4  5  1  0
  5  6  2  0
  6  7  1  0
  8  1  1  0
  9  1  1  0
 11 10  1  0
 12 11  1  0
 12 13  2  0
 14 13  1  0
 15 14  2  0
 16 21  2  0
 16 15  1  0
 17 16  1  0
 18 19  1  0
 18 17  2  0
 19 20  2  0
 20 21  1  0
 21 12  1  0
  2 22  1  0
  3 23  1  0
  6 24  1  0
  8 25  1  0
  8 26  1  0
  8 27  1  0
  9 28  1  0
  9 29  1  0
  9 30  1  0
 10 31  1  0
 10 32  1  0
 13 33  1  0
 14 34  1  0
 15 35  1  0
 17 36  1  0
 18 37  1  0
 19 38  1  0
 20 39  1  0
M  ISO  8  22  14  23  14  24  14  25   8  26   8  27   8  28   8  29   8
M  ISO  8  30   8  31   8  32   8  33  14  34  14  35  14  36  14  37  14
M  ISO  2  38  14  39  14
M  END
>  <minimizedAffinity>  (1) 
-5.07724476

>  <minimizedRMSD>  (1) 
3.04193377

$$$$
