
     RDKit          3D

 31 32  0  0  0  0  0  0  0  0999 V2000
   47.0810   34.4130   42.0640 C   0  0  0  0  0  0  0  0  0  0  0  0
   44.5850   36.1080   44.3740 C   0  0  0  0  0  0  0  0  0  0  0  0
   45.3690   35.8760   43.2320 C   0  0  0  0  0  0  0  0  0  0  0  0
   46.2140   34.7510   43.2130 C   0  0  0  0  0  0  0  0  0  0  0  0
   46.2330   33.9370   44.3040 N   0  0  0  0  0  0  0  0  0  0  0  0
   45.4560   34.1940   45.3970 C   0  0  0  0  0  0  0  0  0  0  0  0
   44.6410   35.2750   45.4230 N   0  0  0  0  0  0  0  0  0  0  0  0
   46.1830   34.2270   40.8490 C   0  0  0  0  0  0  0  0  0  0  0  0
   48.1580   35.4000   41.7790 C   0  0  0  0  0  0  0  0  0  0  0  0
   47.7440   33.0880   42.3340 C   0  0  0  0  0  0  0  0  0  0  0  0
   49.1480   33.1760   42.1730 O   0  0  0  0  0  0  0  0  0  0  0  0
   49.8570   32.5390   41.1990 C   0  0  0  0  0  0  0  0  0  0  0  0
   51.1810   32.2790   41.5620 C   0  0  0  0  0  0  0  0  0  0  0  0
   52.0220   31.6290   40.6570 C   0  0  0  0  0  0  0  0  0  0  0  0
   51.5560   31.2560   39.4400 N   0  0  0  0  0  0  0  0  0  0  0  0
   50.2620   31.5200   39.1070 C   0  0  0  0  0  0  0  0  0  0  0  0
   49.4650   32.1400   39.9750 N   0  0  0  0  0  0  0  0  0  0  0  0
   43.9182   36.9822   44.4081 H   0  0  0  0  0  0  0  0  0  0  0  0
   45.3234   36.5591   42.3710 H   0  0  0  0  0  0  0  0  0  0  0  0
   45.4924   33.5173   46.2635 H   0  0  0  0  0  0  0  0  0  0  0  0
   45.1561   34.0143   41.1811 H   0  0  0  0  0  0  0  0  0  0  0  0
   46.1898   35.1456   40.2439 H   0  0  0  0  0  0  0  0  0  0  0  0
   46.5541   33.3867   40.2439 H   0  0  0  0  0  0  0  0  0  0  0  0
   48.5697   35.7773   42.7267 H   0  0  0  0  0  0  0  0  0  0  0  0
   48.9569   34.9139   41.1998 H   0  0  0  0  0  0  0  0  0  0  0  0
   47.7433   36.2382   41.1998 H   0  0  0  0  0  0  0  0  0  0  0  0
   47.5198   32.7781   43.3654 H   0  0  0  0  0  0  0  0  0  0  0  0
   47.3563   32.3514   41.6149 H   0  0  0  0  0  0  0  0  0  0  0  0
   51.5566   32.5832   42.5501 H   0  0  0  0  0  0  0  0  0  0  0  0
   53.0660   31.4189   40.9323 H   0  0  0  0  0  0  0  0  0  0  0  0
   49.8755   31.2212   38.1214 H   0  0  0  0  0  0  0  0  0  0  0  0
  1 10  1  0
  1  4  1  0
  2  7  2  0
  3  2  1  0
  4  3  2  0
  4  5  1  0
  5  6  2  0
  6  7  1  0
  8  1  1  0
  9  1  1  0
 11 10  1  0
 12 13  2  0
 12 11  1  0
 14 13  1  0
 15 14  2  0
 16 15  1  0
 16 17  2  0
 17 12  1  0
  2 18  1  0
  3 19  1  0
  6 20  1  0
  8 21  1  0
  8 22  1  0
  8 23  1  0
  9 24  1  0
  9 25  1  0
  9 26  1  0
 10 27  1  0
 10 28  1  0
 13 29  1  0
 14 30  1  0
 16 31  1  0
M  ISO  8  18  14  19  14  20  14  21   8  22   8  23   8  24   8  25   8
M  ISO  6  26   8  27   8  28   8  29  14  30  14  31  14
M  END
>  <minimizedAffinity>  (1) 
-4.66263294

>  <minimizedRMSD>  (1) 
2.9767983

$$$$
