
     RDKit          3D

 30 31  0  0  0  0  0  0  0  0999 V2000
   47.3640   34.4450   42.0730 C   0  0  0  0  0  0  0  0  0  0  0  0
   44.6620   36.0490   44.1910 C   0  0  0  0  0  0  0  0  0  0  0  0
   45.5330   35.8620   43.0880 C   0  0  0  0  0  0  0  0  0  0  0  0
   46.4080   34.7620   43.1420 C   0  0  0  0  0  0  0  0  0  0  0  0
   46.3700   33.9550   44.2310 N   0  0  0  0  0  0  0  0  0  0  0  0
   45.5190   34.1680   45.2720 C   0  0  0  0  0  0  0  0  0  0  0  0
   44.6690   35.2180   45.2430 N   0  0  0  0  0  0  0  0  0  0  0  0
   46.5530   34.1450   40.8160 C   0  0  0  0  0  0  0  0  0  0  0  0
   48.3860   35.4920   41.8010 C   0  0  0  0  0  0  0  0  0  0  0  0
   48.0890   33.1720   42.4310 C   0  0  0  0  0  0  0  0  0  0  0  0
   48.6350   32.5360   41.2910 O   0  0  0  0  0  0  0  0  0  0  0  0
   49.9800   32.3350   41.1020 C   0  0  0  0  0  0  0  0  0  0  0  0
   50.3130   31.6080   39.9710 C   0  0  0  0  0  0  0  0  0  0  0  0
   51.6960   31.4860   39.9110 C   0  0  0  0  0  0  0  0  0  0  0  0
   52.1630   32.1360   40.9990 N   0  0  0  0  0  0  0  0  0  0  0  0
   51.1630   32.6210   41.6760 N   0  0  0  0  0  0  0  0  0  0  0  0
   43.9624   36.8978   44.1834 H   0  0  0  0  0  0  0  0  0  0  0  0
   45.5248   36.5473   42.2276 H   0  0  0  0  0  0  0  0  0  0  0  0
   45.5233   33.4864   46.1354 H   0  0  0  0  0  0  0  0  0  0  0  0
   45.5567   33.7765   41.1017 H   0  0  0  0  0  0  0  0  0  0  0  0
   46.4472   35.0635   40.2200 H   0  0  0  0  0  0  0  0  0  0  0  0
   47.0704   33.3788   40.2200 H   0  0  0  0  0  0  0  0  0  0  0  0
   48.7702   35.8856   42.7536 H   0  0  0  0  0  0  0  0  0  0  0  0
   49.2143   35.0548   41.2242 H   0  0  0  0  0  0  0  0  0  0  0  0
   47.9289   36.3095   41.2242 H   0  0  0  0  0  0  0  0  0  0  0  0
   48.9046   33.4118   43.1290 H   0  0  0  0  0  0  0  0  0  0  0  0
   47.3632   32.4843   42.8895 H   0  0  0  0  0  0  0  0  0  0  0  0
   49.6007   31.1956   39.2412 H   0  0  0  0  0  0  0  0  0  0  0  0
   52.2861   30.9690   39.1399 H   0  0  0  0  0  0  0  0  0  0  0  0
   53.1564   32.2328   41.2534 H   0  0  0  0  0  0  0  0  0  0  0  0
  1 10  1  0
  1  4  1  0
  2  7  2  0
  3  4  2  0
  3  2  1  0
  4  5  1  0
  5  6  2  0
  7  6  1  0
  8  1  1  0
  9  1  1  0
 11 10  1  0
 12 11  1  0
 12 16  2  0
 13 12  1  0
 14 13  2  0
 14 15  1  0
 15 16  1  0
  2 17  1  0
  3 18  1  0
  6 19  1  0
  8 20  1  0
  8 21  1  0
  8 22  1  0
  9 23  1  0
  9 24  1  0
  9 25  1  0
 10 26  1  0
 10 27  1  0
 13 28  1  0
 14 29  1  0
 15 30  1  0
M  ISO  8  17  14  18  14  19  14  20   8  21   8  22   8  23   8  24   8
M  ISO  6  25   8  26   8  27   8  28  14  29  14  30   9
M  END
>  <minimizedAffinity>  (1) 
-4.78703785

>  <minimizedRMSD>  (1) 
2.63429785

$$$$
