
     RDKit          3D

 35 35  0  0  0  0  0  0  0  0999 V2000
   47.2790   34.4810   42.0260 C   0  0  0  0  0  0  0  0  0  0  0  0
   44.6590   35.9750   44.3180 C   0  0  0  0  0  0  0  0  0  0  0  0
   45.4780   35.8240   43.1780 C   0  0  0  0  0  0  0  0  0  0  0  0
   46.3820   34.7400   43.1530 C   0  0  0  0  0  0  0  0  0  0  0  0
   46.4110   33.9070   44.2240 N   0  0  0  0  0  0  0  0  0  0  0  0
   45.6040   34.0860   45.3070 C   0  0  0  0  0  0  0  0  0  0  0  0
   44.7350   35.1140   45.3490 N   0  0  0  0  0  0  0  0  0  0  0  0
   46.4010   34.1840   40.8060 C   0  0  0  0  0  0  0  0  0  0  0  0
   48.2590   35.5390   41.7200 C   0  0  0  0  0  0  0  0  0  0  0  0
   48.0370   33.1960   42.3140 C   0  0  0  0  0  0  0  0  0  0  0  0
   48.8090   32.7820   41.2300 O   0  0  0  0  0  0  0  0  0  0  0  0
   50.0030   32.2300   41.5890 C   0  0  0  0  0  0  0  0  0  0  0  0
   50.9180   33.1990   42.3170 C   0  0  0  0  0  0  0  0  0  0  0  0
   49.7210   31.0880   42.5450 C   0  0  0  0  0  0  0  0  0  0  0  0
   50.8040   31.6440   40.4530 C   0  0  0  0  0  0  0  0  0  0  0  0
   43.9461   36.8114   44.3641 H   0  0  0  0  0  0  0  0  0  0  0  0
   45.4138   36.5287   42.3359 H   0  0  0  0  0  0  0  0  0  0  0  0
   45.6627   33.3857   46.1533 H   0  0  0  0  0  0  0  0  0  0  0  0
   45.4086   33.8483   41.1414 H   0  0  0  0  0  0  0  0  0  0  0  0
   46.2942   35.0960   40.2003 H   0  0  0  0  0  0  0  0  0  0  0  0
   46.8698   33.3944   40.2003 H   0  0  0  0  0  0  0  0  0  0  0  0
   48.6490   35.9601   42.6584 H   0  0  0  0  0  0  0  0  0  0  0  0
   49.0885   35.1128   41.1366 H   0  0  0  0  0  0  0  0  0  0  0  0
   47.7707   36.3335   41.1366 H   0  0  0  0  0  0  0  0  0  0  0  0
   48.6990   33.3618   43.1767 H   0  0  0  0  0  0  0  0  0  0  0  0
   47.2973   32.4084   42.5201 H   0  0  0  0  0  0  0  0  0  0  0  0
   50.7976   33.0715   43.4029 H   0  0  0  0  0  0  0  0  0  0  0  0
   51.9626   32.9971   42.0377 H   0  0  0  0  0  0  0  0  0  0  0  0
   50.6566   34.2303   42.0377 H   0  0  0  0  0  0  0  0  0  0  0  0
   49.8096   31.4468   43.5811 H   0  0  0  0  0  0  0  0  0  0  0  0
   48.7024   30.7096   42.3738 H   0  0  0  0  0  0  0  0  0  0  0  0
   50.4463   30.2789   42.3738 H   0  0  0  0  0  0  0  0  0  0  0  0
   51.6290   31.0404   40.8592 H   0  0  0  0  0  0  0  0  0  0  0  0
   50.1532   31.0073   39.8357 H   0  0  0  0  0  0  0  0  0  0  0  0
   51.2138   32.4570   39.8357 H   0  0  0  0  0  0  0  0  0  0  0  0
  1 10  1  0
  1  4  1  0
  2  7  2  0
  3  2  1  0
  4  3  2  0
  4  5  1  0
  5  6  2  0
  6  7  1  0
  8  1  1  0
  9  1  1  0
 11 12  1  0
 11 10  1  0
 12 13  1  0
 12 14  1  0
 15 12  1  0
  2 16  1  0
  3 17  1  0
  6 18  1  0
  8 19  1  0
  8 20  1  0
  8 21  1  0
  9 22  1  0
  9 23  1  0
  9 24  1  0
 10 25  1  0
 10 26  1  0
 13 27  1  0
 13 28  1  0
 13 29  1  0
 14 30  1  0
 14 31  1  0
 14 32  1  0
 15 33  1  0
 15 34  1  0
 15 35  1  0
M  ISO  8  16  14  17  14  18  14  19   8  20   8  21   8  22   8  23   8
M  ISO  8  24   8  25   8  26   8  27   8  28   8  29   8  30   8  31   8
M  ISO  4  32   8  33   8  34   8  35   8
M  END
>  <minimizedAffinity>  (1) 
-4.35519171

>  <minimizedRMSD>  (1) 
1.9847151

$$$$
