
     RDKit          3D

 30 31  0  0  0  0  0  0  0  0999 V2000
   47.3070   34.4550   41.9880 C   0  0  0  0  0  0  0  0  0  0  0  0
   44.6730   36.0140   44.2390 C   0  0  0  0  0  0  0  0  0  0  0  0
   45.5040   35.8290   43.1180 C   0  0  0  0  0  0  0  0  0  0  0  0
   46.3900   34.7480   43.1050 C   0  0  0  0  0  0  0  0  0  0  0  0
   46.4040   33.9150   44.1960 N   0  0  0  0  0  0  0  0  0  0  0  0
   45.5890   34.1220   45.2590 C   0  0  0  0  0  0  0  0  0  0  0  0
   44.7280   35.1650   45.2840 N   0  0  0  0  0  0  0  0  0  0  0  0
   46.4480   34.2140   40.7540 C   0  0  0  0  0  0  0  0  0  0  0  0
   48.3470   35.4850   41.7450 C   0  0  0  0  0  0  0  0  0  0  0  0
   48.0070   33.1500   42.2710 C   0  0  0  0  0  0  0  0  0  0  0  0
   48.1840   32.3590   41.1270 O   0  0  0  0  0  0  0  0  0  0  0  0
   49.4930   32.0500   40.7690 C   0  0  0  0  0  0  0  0  0  0  0  0
   50.5160   32.3070   41.6880 C   0  0  0  0  0  0  0  0  0  0  0  0
   51.6700   31.8960   41.0390 C   0  0  0  0  0  0  0  0  0  0  0  0
   51.3200   31.4250   39.8050 C   0  0  0  0  0  0  0  0  0  0  0  0
   50.0220   31.5350   39.6860 O   0  0  0  0  0  0  0  0  0  0  0  0
   43.9712   36.8607   44.2622 H   0  0  0  0  0  0  0  0  0  0  0  0
   45.4569   36.5236   42.2664 H   0  0  0  0  0  0  0  0  0  0  0  0
   45.6283   33.4314   46.1143 H   0  0  0  0  0  0  0  0  0  0  0  0
   45.4320   33.9289   41.0645 H   0  0  0  0  0  0  0  0  0  0  0  0
   46.4031   35.1342   40.1530 H   0  0  0  0  0  0  0  0  0  0  0  0
   46.8884   33.4047   40.1530 H   0  0  0  0  0  0  0  0  0  0  0  0
   48.7247   35.8590   42.7080 H   0  0  0  0  0  0  0  0  0  0  0  0
   49.1757   35.0416   41.1734 H   0  0  0  0  0  0  0  0  0  0  0  0
   47.9117   36.3179   41.1734 H   0  0  0  0  0  0  0  0  0  0  0  0
   48.9955   33.3695   42.7007 H   0  0  0  0  0  0  0  0  0  0  0  0
   47.3713   32.5820   42.9661 H   0  0  0  0  0  0  0  0  0  0  0  0
   50.4253   32.7373   42.6963 H   0  0  0  0  0  0  0  0  0  0  0  0
   52.6906   31.9412   41.4468 H   0  0  0  0  0  0  0  0  0  0  0  0
   52.0080   31.0243   39.0460 H   0  0  0  0  0  0  0  0  0  0  0  0
  1 10  1  0
  1  4  1  0
  2  7  2  0
  3  2  1  0
  4  3  2  0
  4  5  1  0
  5  6  2  0
  6  7  1  0
  8  1  1  0
  9  1  1  0
 11 10  1  0
 12 11  1  0
 12 13  2  0
 14 13  1  0
 15 14  2  0
 16 15  1  0
 16 12  1  0
  2 17  1  0
  3 18  1  0
  6 19  1  0
  8 20  1  0
  8 21  1  0
  8 22  1  0
  9 23  1  0
  9 24  1  0
  9 25  1  0
 10 26  1  0
 10 27  1  0
 13 28  1  0
 14 29  1  0
 15 30  1  0
M  ISO  8  17  14  18  14  19  14  20   8  21   8  22   8  23   8  24   8
M  ISO  6  25   8  26   8  27   8  28  14  29  14  30  14
M  END
>  <minimizedAffinity>  (1) 
-4.42277193

>  <minimizedRMSD>  (1) 
2.28745818

$$$$
