
     RDKit          3D

 29 30  0  0  0  0  0  0  0  0999 V2000
   47.0920   34.4370   42.0510 C   0  0  0  0  0  0  0  0  0  0  0  0
   44.5900   36.0940   44.3720 C   0  0  0  0  0  0  0  0  0  0  0  0
   45.3770   35.8740   43.2270 C   0  0  0  0  0  0  0  0  0  0  0  0
   46.2290   34.7650   43.1870 C   0  0  0  0  0  0  0  0  0  0  0  0
   46.2440   33.9530   44.2770 N   0  0  0  0  0  0  0  0  0  0  0  0
   45.4770   34.1760   45.3790 C   0  0  0  0  0  0  0  0  0  0  0  0
   44.6540   35.2490   45.4190 N   0  0  0  0  0  0  0  0  0  0  0  0
   46.1920   34.2250   40.8410 C   0  0  0  0  0  0  0  0  0  0  0  0
   48.1570   35.4290   41.7610 C   0  0  0  0  0  0  0  0  0  0  0  0
   47.7630   33.1160   42.3200 C   0  0  0  0  0  0  0  0  0  0  0  0
   49.1710   33.2010   42.2290 O   0  0  0  0  0  0  0  0  0  0  0  0
   49.8890   32.5000   41.2560 C   0  0  0  0  0  0  0  0  0  0  0  0
   51.1690   32.3330   41.7210 C   0  0  0  0  0  0  0  0  0  0  0  0
   52.0030   31.4240   40.3970 S   0  0  0  0  0  0  0  0  0  0  0  0
   50.4030   31.4130   39.3680 C   0  0  0  0  0  0  0  0  0  0  0  0
   49.7260   31.9670   40.0680 N   0  0  0  0  0  0  0  0  0  0  0  0
   43.9169   36.9631   44.4127 H   0  0  0  0  0  0  0  0  0  0  0  0
   45.3232   36.5656   42.3733 H   0  0  0  0  0  0  0  0  0  0  0  0
   45.5261   33.4861   46.2343 H   0  0  0  0  0  0  0  0  0  0  0  0
   45.1732   33.9850   41.1794 H   0  0  0  0  0  0  0  0  0  0  0  0
   46.1704   35.1426   40.2348 H   0  0  0  0  0  0  0  0  0  0  0  0
   46.5823   33.3942   40.2348 H   0  0  0  0  0  0  0  0  0  0  0  0
   48.5684   35.8122   42.7064 H   0  0  0  0  0  0  0  0  0  0  0  0
   48.9581   34.9478   41.1808 H   0  0  0  0  0  0  0  0  0  0  0  0
   47.7338   36.2622   41.1808 H   0  0  0  0  0  0  0  0  0  0  0  0
   47.4935   32.7822   43.3329 H   0  0  0  0  0  0  0  0  0  0  0  0
   47.4190   32.4023   41.5569 H   0  0  0  0  0  0  0  0  0  0  0  0
   51.5910   32.6733   42.6781 H   0  0  0  0  0  0  0  0  0  0  0  0
   50.2011   30.9866   38.3743 H   0  0  0  0  0  0  0  0  0  0  0  0
  1 10  1  0
  1  4  1  0
  2  7  2  0
  3  2  1  0
  4  3  2  0
  4  5  1  0
  5  6  2  0
  6  7  1  0
  8  1  1  0
  9  1  1  0
 11 10  1  0
 12 13  2  0
 12 11  1  0
 14 13  1  0
 15 16  2  0
 15 14  1  0
 16 12  1  0
  2 17  1  0
  3 18  1  0
  6 19  1  0
  8 20  1  0
  8 21  1  0
  8 22  1  0
  9 23  1  0
  9 24  1  0
  9 25  1  0
 10 26  1  0
 10 27  1  0
 13 28  1  0
 15 29  1  0
M  ISO  8  17  14  18  14  19  14  20   8  21   8  22   8  23   8  24   8
M  ISO  5  25   8  26   8  27   8  28  14  29  14
M  END
>  <minimizedAffinity>  (1) 
-4.45356131

>  <minimizedRMSD>  (1) 
2.61741161

$$$$
