
     RDKit          3D

 39 40  0  0  0  0  0  0  0  0999 V2000
   47.7700   34.5580   41.8530 C   0  0  0  0  0  0  0  0  0  0  0  0
   44.8350   35.7470   43.9500 C   0  0  0  0  0  0  0  0  0  0  0  0
   45.7480   35.6930   42.8750 C   0  0  0  0  0  0  0  0  0  0  0  0
   46.7570   34.7120   42.9180 C   0  0  0  0  0  0  0  0  0  0  0  0
   46.8000   33.8720   43.9850 N   0  0  0  0  0  0  0  0  0  0  0  0
   45.9030   33.9520   45.0060 C   0  0  0  0  0  0  0  0  0  0  0  0
   44.9230   34.8870   44.9870 N   0  0  0  0  0  0  0  0  0  0  0  0
   47.0360   34.2480   40.5660 C   0  0  0  0  0  0  0  0  0  0  0  0
   48.6840   35.7280   41.7030 C   0  0  0  0  0  0  0  0  0  0  0  0
   48.6270   33.3550   42.1870 C   0  0  0  0  0  0  0  0  0  0  0  0
   49.9960   33.6240   41.9960 O   0  0  0  0  0  0  0  0  0  0  0  0
   50.6550   32.4200   42.2540 C   0  0  0  0  0  0  0  0  0  0  0  0
   51.4340   31.9840   41.0480 C   0  0  0  0  0  0  0  0  0  0  0  0
   52.0430   30.6360   41.2590 C   0  0  0  0  0  0  0  0  0  0  0  0
   51.4570   29.8610   42.4120 C   0  0  0  0  0  0  0  0  0  0  0  0
   49.9720   30.0000   42.4510 C   0  0  0  0  0  0  0  0  0  0  0  0
   49.5870   31.4280   42.6580 C   0  0  0  0  0  0  0  0  0  0  0  0
   44.0369   36.5039   43.9428 H   0  0  0  0  0  0  0  0  0  0  0  0
   45.6737   36.3946   42.0310 H   0  0  0  0  0  0  0  0  0  0  0  0
   45.9745   33.2527   45.8521 H   0  0  0  0  0  0  0  0  0  0  0  0
   46.0459   33.8298   40.8002 H   0  0  0  0  0  0  0  0  0  0  0  0
   46.9149   35.1718   39.9813 H   0  0  0  0  0  0  0  0  0  0  0  0
   47.6138   33.5171   39.9813 H   0  0  0  0  0  0  0  0  0  0  0  0
   48.9728   36.0976   42.6980 H   0  0  0  0  0  0  0  0  0  0  0  0
   49.5843   35.4215   41.1502 H   0  0  0  0  0  0  0  0  0  0  0  0
   48.1687   36.5273   41.1502 H   0  0  0  0  0  0  0  0  0  0  0  0
   48.4608   33.0794   43.2389 H   0  0  0  0  0  0  0  0  0  0  0  0
   48.3413   32.5322   41.5152 H   0  0  0  0  0  0  0  0  0  0  0  0
   51.3940   32.5146   43.0633 H   0  0  0  0  0  0  0  0  0  0  0  0
   52.2343   32.7134   40.8544 H   0  0  0  0  0  0  0  0  0  0  0  0
   50.7472   31.9266   40.1907 H   0  0  0  0  0  0  0  0  0  0  0  0
   51.9010   30.0469   40.3410 H   0  0  0  0  0  0  0  0  0  0  0  0
   53.1028   30.8048   41.5007 H   0  0  0  0  0  0  0  0  0  0  0  0
   51.7158   28.7978   42.2991 H   0  0  0  0  0  0  0  0  0  0  0  0
   51.8708   30.2614   43.3493 H   0  0  0  0  0  0  0  0  0  0  0  0
   49.5498   29.6453   41.4992 H   0  0  0  0  0  0  0  0  0  0  0  0
   49.5798   29.4006   43.2858 H   0  0  0  0  0  0  0  0  0  0  0  0
   49.3651   31.5748   43.7253 H   0  0  0  0  0  0  0  0  0  0  0  0
   48.7165   31.6187   42.0131 H   0  0  0  0  0  0  0  0  0  0  0  0
  1 10  1  0
  1  4  1  0
  2  7  2  0
  3  4  2  0
  3  2  1  0
  4  5  1  0
  5  6  2  0
  7  6  1  0
  8  1  1  0
  9  1  1  0
 11 10  1  0
 11 12  1  0
 12 17  1  0
 13 14  1  0
 13 12  1  0
 14 15  1  0
 15 16  1  0
 16 17  1  0
  2 18  1  0
  3 19  1  0
  6 20  1  0
  8 21  1  0
  8 22  1  0
  8 23  1  0
  9 24  1  0
  9 25  1  0
  9 26  1  0
 10 27  1  0
 10 28  1  0
 12 29  1  0
 13 30  1  0
 13 31  1  0
 14 32  1  0
 14 33  1  0
 15 34  1  0
 15 35  1  0
 16 36  1  0
 16 37  1  0
 17 38  1  0
 17 39  1  0
M  ISO  8  18  14  19  14  20  14  21   8  22   8  23   8  24   8  25   8
M  ISO  8  26   8  27   8  28   8  29  13  30  13  31  13  32  13  33  13
M  ISO  6  34  13  35  13  36  13  37  13  38  13  39  13
M  END
>  <minimizedAffinity>  (1) 
-4.39176798

>  <minimizedRMSD>  (1) 
2.30596352

$$$$
