
     RDKit          3D

 30 31  0  0  0  0  0  0  0  0999 V2000
   46.9410   34.4130   42.0920 C   0  0  0  0  0  0  0  0  0  0  0  0
   44.5480   36.0490   44.5240 C   0  0  0  0  0  0  0  0  0  0  0  0
   45.2830   35.8440   43.3430 C   0  0  0  0  0  0  0  0  0  0  0  0
   46.1310   34.7240   43.2690 C   0  0  0  0  0  0  0  0  0  0  0  0
   46.1990   33.8930   44.3470 N   0  0  0  0  0  0  0  0  0  0  0  0
   45.4710   34.1250   45.4740 C   0  0  0  0  0  0  0  0  0  0  0  0
   44.6530   35.1920   45.5640 N   0  0  0  0  0  0  0  0  0  0  0  0
   46.0150   34.2730   40.9040 C   0  0  0  0  0  0  0  0  0  0  0  0
   48.0290   35.3910   41.7970 C   0  0  0  0  0  0  0  0  0  0  0  0
   47.5930   33.0650   42.2900 C   0  0  0  0  0  0  0  0  0  0  0  0
   49.0010   33.1710   42.2970 O   0  0  0  0  0  0  0  0  0  0  0  0
   49.8930   32.5960   41.5360 C   0  0  0  0  0  0  0  0  0  0  0  0
   51.2450   32.3030   41.6440 C   0  0  0  0  0  0  0  0  0  0  0  0
   51.9300   31.6690   40.6390 C   0  0  0  0  0  0  0  0  0  0  0  0
   51.1600   31.3280   39.4780 C   0  0  0  0  0  0  0  0  0  0  0  0
   49.4850   31.9260   39.8560 S   0  0  0  0  0  0  0  0  0  0  0  0
   43.8786   36.9184   44.6026 H   0  0  0  0  0  0  0  0  0  0  0  0
   45.1970   36.5424   42.4975 H   0  0  0  0  0  0  0  0  0  0  0  0
   45.5518   33.4311   46.3237 H   0  0  0  0  0  0  0  0  0  0  0  0
   44.9853   34.1173   41.2581 H   0  0  0  0  0  0  0  0  0  0  0  0
   46.0589   35.1880   40.2950 H   0  0  0  0  0  0  0  0  0  0  0  0
   46.3275   33.4119   40.2950 H   0  0  0  0  0  0  0  0  0  0  0  0
   48.4488   35.7683   42.7412 H   0  0  0  0  0  0  0  0  0  0  0  0
   48.8205   34.8948   41.2162 H   0  0  0  0  0  0  0  0  0  0  0  0
   47.6197   36.2307   41.2162 H   0  0  0  0  0  0  0  0  0  0  0  0
   47.2608   32.6441   43.2505 H   0  0  0  0  0  0  0  0  0  0  0  0
   47.2987   32.4116   41.4555 H   0  0  0  0  0  0  0  0  0  0  0  0
   51.7822   32.5870   42.5609 H   0  0  0  0  0  0  0  0  0  0  0  0
   53.0023   31.4367   40.7184 H   0  0  0  0  0  0  0  0  0  0  0  0
   51.5048   30.8197   38.5654 H   0  0  0  0  0  0  0  0  0  0  0  0
  1 10  1  0
  1  4  1  0
  2  7  2  0
  3  2  1  0
  4  3  2  0
  4  5  1  0
  5  6  2  0
  6  7  1  0
  8  1  1  0
  9  1  1  0
 10 11  1  0
 12 13  2  0
 12 11  1  0
 14 13  1  0
 15 16  1  0
 15 14  2  0
 16 12  1  0
  2 17  1  0
  3 18  1  0
  6 19  1  0
  8 20  1  0
  8 21  1  0
  8 22  1  0
  9 23  1  0
  9 24  1  0
  9 25  1  0
 10 26  1  0
 10 27  1  0
 13 28  1  0
 14 29  1  0
 15 30  1  0
M  ISO  8  17  14  18  14  19  14  20   8  21   8  22   8  23   8  24   8
M  ISO  6  25   8  26   8  27   8  28  14  29  14  30  14
M  END
>  <minimizedAffinity>  (1) 
-4.50797987

>  <minimizedRMSD>  (1) 
2.81024408

$$$$
