
     RDKit          3D

 35 36  0  0  1  0  0  0  0  0999 V2000
   46.9250   34.3840   42.0670 C   0  0  0  0  0  0  0  0  0  0  0  0
   44.5610   36.0300   44.5400 C   0  0  0  0  0  0  0  0  0  0  0  0
   45.2840   35.8230   43.3470 C   0  0  0  0  0  0  0  0  0  0  0  0
   46.1240   34.6970   43.2670 C   0  0  0  0  0  0  0  0  0  0  0  0
   46.1960   33.8680   44.3390 N   0  0  0  0  0  0  0  0  0  0  0  0
   45.4830   34.1010   45.4740 C   0  0  0  0  0  0  0  0  0  0  0  0
   44.6710   35.1720   45.5790 N   0  0  0  0  0  0  0  0  0  0  0  0
   45.9720   34.3060   40.8800 C   0  0  0  0  0  0  0  0  0  0  0  0
   48.0470   35.3180   41.8030 C   0  0  0  0  0  0  0  0  0  0  0  0
   47.5120   33.0060   42.2500 C   0  0  0  0  0  0  0  0  0  0  0  0
   47.7920   32.3910   41.0110 O   0  0  0  0  0  0  0  0  0  0  0  0
   50.1370   32.5510   40.6790 N   0  0  0  0  0  0  0  0  0  0  0  0
   51.2020   32.4500   41.6600 C   0  0  0  0  0  0  0  0  0  0  0  0
   50.8280   31.2150   42.4940 C   0  0  0  0  0  0  0  0  0  0  0  0
   49.3270   31.5010   42.6370 C   0  0  0  0  0  0  0  0  0  0  0  0
   49.0250   31.7940   41.1630 C   0  0  1  0  0  0  0  0  0  0  0  0
   43.8974   36.9030   44.6265 H   0  0  0  0  0  0  0  0  0  0  0  0
   45.1938   36.5222   42.5026 H   0  0  0  0  0  0  0  0  0  0  0  0
   45.5705   33.4038   46.3203 H   0  0  0  0  0  0  0  0  0  0  0  0
   44.9378   34.2214   41.2451 H   0  0  0  0  0  0  0  0  0  0  0  0
   46.0720   35.2153   40.2692 H   0  0  0  0  0  0  0  0  0  0  0  0
   46.2185   33.4250   40.2692 H   0  0  0  0  0  0  0  0  0  0  0  0
   48.4661   35.6669   42.7583 H   0  0  0  0  0  0  0  0  0  0  0  0
   48.8280   34.7995   41.2275 H   0  0  0  0  0  0  0  0  0  0  0  0
   47.6788   36.1801   41.2275 H   0  0  0  0  0  0  0  0  0  0  0  0
   48.4454   33.0894   42.8260 H   0  0  0  0  0  0  0  0  0  0  0  0
   46.7753   32.3865   42.7825 H   0  0  0  0  0  0  0  0  0  0  0  0
   50.4545   32.1696   39.7764 H   0  0  0  0  0  0  0  0  0  0  0  0
   52.1749   32.3080   41.1668 H   0  0  0  0  0  0  0  0  0  0  0  0
   51.2996   33.3588   42.2720 H   0  0  0  0  0  0  0  0  0  0  0  0
   51.0238   30.2749   41.9575 H   0  0  0  0  0  0  0  0  0  0  0  0
   51.3853   31.0793   43.4326 H   0  0  0  0  0  0  0  0  0  0  0  0
   48.7704   30.6291   43.0111 H   0  0  0  0  0  0  0  0  0  0  0  0
   49.0516   32.2898   43.3525 H   0  0  0  0  0  0  0  0  0  0  0  0
   48.9300   30.8813   40.5564 H   0  0  0  0  0  0  0  0  0  0  0  0
  1 10  1  0
  1  4  1  0
  2  7  2  0
  3  2  1  0
  4  3  2  0
  4  5  1  0
  5  6  2  0
  6  7  1  0
  8  1  1  0
  9  1  1  0
 11 10  1  0
 12 16  1  0
 12 13  1  0
 13 14  1  0
 14 15  1  0
 16 11  1  0
 16 15  1  0
  2 17  1  0
  3 18  1  0
  6 19  1  0
  8 20  1  0
  8 21  1  0
  8 22  1  0
  9 23  1  0
  9 24  1  0
  9 25  1  0
 10 26  1  0
 10 27  1  0
 12 28  1  0
 13 29  1  0
 13 30  1  0
 14 31  1  0
 14 32  1  0
 15 33  1  0
 15 34  1  0
 16 35  1  6
M  ISO  8  17  14  18  14  19  14  20   8  21   8  22   8  23   8  24   8
M  ISO  8  25   8  26   8  27   8  28   5  29  13  30  13  31  13  32  13
M  ISO  3  33  13  34  13  35  13
M  END
>  <minimizedAffinity>  (1) 
-4.44906807

>  <minimizedRMSD>  (1) 
1.28555453

$$$$
