
     RDKit          3D

 26 26  0  0  0  0  0  0  0  0999 V2000
   47.7130   34.5100   41.8880 C   0  0  0  0  0  0  0  0  0  0  0  0
   44.8130   35.7770   43.9720 C   0  0  0  0  0  0  0  0  0  0  0  0
   45.7170   35.6950   42.9010 C   0  0  0  0  0  0  0  0  0  0  0  0
   46.7120   34.6930   42.9510 C   0  0  0  0  0  0  0  0  0  0  0  0
   46.7500   33.8610   44.0250 N   0  0  0  0  0  0  0  0  0  0  0  0
   45.8520   33.9770   45.0420 C   0  0  0  0  0  0  0  0  0  0  0  0
   44.8930   34.9290   45.0130 N   0  0  0  0  0  0  0  0  0  0  0  0
   46.9690   34.2250   40.5880 C   0  0  0  0  0  0  0  0  0  0  0  0
   48.6720   35.6390   41.7240 C   0  0  0  0  0  0  0  0  0  0  0  0
   48.5360   33.2850   42.1880 C   0  0  0  0  0  0  0  0  0  0  0  0
   49.9210   33.5310   42.0180 O   0  0  0  0  0  0  0  0  0  0  0  0
   50.7550   32.4180   42.1040 C   0  0  0  0  0  0  0  0  0  0  0  0
   50.4340   31.3550   42.7110 O   0  0  0  0  0  0  0  0  0  0  0  0
   52.0050   32.3300   41.5550 O   0  0  0  0  0  0  0  0  0  0  0  0
   44.0272   36.5466   43.9596 H   0  0  0  0  0  0  0  0  0  0  0  0
   45.6527   36.3888   42.0499 H   0  0  0  0  0  0  0  0  0  0  0  0
   45.9077   33.2877   45.8974 H   0  0  0  0  0  0  0  0  0  0  0  0
   45.9644   33.8402   40.8173 H   0  0  0  0  0  0  0  0  0  0  0  0
   46.8817   35.1533   40.0044 H   0  0  0  0  0  0  0  0  0  0  0  0
   47.5242   33.4759   40.0044 H   0  0  0  0  0  0  0  0  0  0  0  0
   48.9818   36.0037   42.7144 H   0  0  0  0  0  0  0  0  0  0  0  0
   49.5555   35.2918   41.1683 H   0  0  0  0  0  0  0  0  0  0  0  0
   48.1865   36.4547   41.1683 H   0  0  0  0  0  0  0  0  0  0  0  0
   48.3532   32.9785   43.2285 H   0  0  0  0  0  0  0  0  0  0  0  0
   48.2394   32.4916   41.4861 H   0  0  0  0  0  0  0  0  0  0  0  0
   52.5353   31.5009   41.6618 H   0  0  0  0  0  0  0  0  0  0  0  0
  1 10  1  0
  1  4  1  0
  2  7  2  0
  3  4  2  0
  3  2  1  0
  4  5  1  0
  5  6  2  0
  7  6  1  0
  8  1  1  0
  9  1  1  0
 11 12  1  0
 11 10  1  0
 12 13  2  0
 14 12  1  0
  2 15  1  0
  3 16  1  0
  6 17  1  0
  8 18  1  0
  8 19  1  0
  8 20  1  0
  9 21  1  0
  9 22  1  0
  9 23  1  0
 10 24  1  0
 10 25  1  0
 14 26  1  0
M  ISO  8  15  14  16  14  17  14  18   8  19   8  20   8  21   8  22   8
M  ISO  4  23   8  24   8  25   8  26   3
M  END
>  <minimizedAffinity>  (1) 
-4.20239067

>  <minimizedRMSD>  (1) 
2.08668876

$$$$
