
     RDKit          3D

 40 42  0  0  0  0  0  0  0  0999 V2000
   44.9390   34.0720   41.9400 C   0  0  0  0  0  0  0  0  0  0  0  0
   45.8280   34.8860   42.8660 C   0  0  0  0  0  0  0  0  0  0  0  0
   45.1960   34.4580   45.2210 C   0  0  0  0  0  0  0  0  0  0  0  0
   46.0280   34.1340   44.1240 C   0  0  0  0  0  0  0  0  0  0  0  0
   46.9500   33.1330   44.3530 C   0  0  0  0  0  0  0  0  0  0  0  0
   47.0290   32.5240   45.5470 N   0  0  0  0  0  0  0  0  0  0  0  0
   46.2180   32.8660   46.5580 C   0  0  0  0  0  0  0  0  0  0  0  0
   45.2880   33.8430   46.4000 N   0  0  0  0  0  0  0  0  0  0  0  0
   47.1540   35.1650   42.2180 C   0  0  0  0  0  0  0  0  0  0  0  0
   45.1250   36.1750   43.1460 C   0  0  0  0  0  0  0  0  0  0  0  0
   43.6300   34.5140   42.0990 O   0  0  0  0  0  0  0  0  0  0  0  0
   42.7920   34.4750   41.0080 C   0  0  0  0  0  0  0  0  0  0  0  0
   42.8540   35.4010   39.9840 C   0  0  0  0  0  0  0  0  0  0  0  0
   41.8680   35.0510   39.0650 C   0  0  0  0  0  0  0  0  0  0  0  0
   41.2480   33.9510   39.5400 N   0  0  0  0  0  0  0  0  0  0  0  0
   41.7910   33.6060   40.6900 N   0  0  0  0  0  0  0  0  0  0  0  0
   40.1770   33.3490   38.8090 C   0  0  0  0  0  0  0  0  0  0  0  0
   38.8980   33.8620   38.6570 C   0  0  0  0  0  0  0  0  0  0  0  0
   38.1380   33.0010   37.8780 C   0  0  0  0  0  0  0  0  0  0  0  0
   38.9710   32.0010   37.5840 N   0  0  0  0  0  0  0  0  0  0  0  0
   40.1900   32.1960   38.1320 N   0  0  0  0  0  0  0  0  0  0  0  0
   38.5900   30.8430   36.7650 C   0  0  0  0  0  0  0  0  0  0  0  0
   45.0067   33.0055   42.2006 H   0  0  0  0  0  0  0  0  0  0  0  0
   45.2597   34.1984   40.8954 H   0  0  0  0  0  0  0  0  0  0  0  0
   44.4425   35.2496   45.0961 H   0  0  0  0  0  0  0  0  0  0  0  0
   47.6311   32.8292   43.5444 H   0  0  0  0  0  0  0  0  0  0  0  0
   46.3066   32.3501   47.5255 H   0  0  0  0  0  0  0  0  0  0  0  0
   47.9155   35.3252   42.9954 H   0  0  0  0  0  0  0  0  0  0  0  0
   47.4437   34.3081   41.5920 H   0  0  0  0  0  0  0  0  0  0  0  0
   47.0739   36.0659   41.5920 H   0  0  0  0  0  0  0  0  0  0  0  0
   45.0456   36.3206   44.2334 H   0  0  0  0  0  0  0  0  0  0  0  0
   45.6945   37.0065   42.7053 H   0  0  0  0  0  0  0  0  0  0  0  0
   44.1175   36.1465   42.7053 H   0  0  0  0  0  0  0  0  0  0  0  0
   43.5484   36.2508   39.9093 H   0  0  0  0  0  0  0  0  0  0  0  0
   41.6373   35.5746   38.1255 H   0  0  0  0  0  0  0  0  0  0  0  0
   38.5398   34.8083   39.0886 H   0  0  0  0  0  0  0  0  0  0  0  0
   37.0877   33.1166   37.5724 H   0  0  0  0  0  0  0  0  0  0  0  0
   38.3141   30.0045   37.4214 H   0  0  0  0  0  0  0  0  0  0  0  0
   37.7321   31.1093   36.1301 H   0  0  0  0  0  0  0  0  0  0  0  0
   39.4384   30.5479   36.1301 H   0  0  0  0  0  0  0  0  0  0  0  0
  1 11  1  0
  1  2  1  0
  2 10  1  0
  2  4  1  0
  3  8  2  0
  4  5  2  0
  4  3  1  0
  5  6  1  0
  6  7  2  0
  8  7  1  0
  9  2  1  0
 12 11  1  0
 13 12  1  0
 14 15  1  0
 14 13  2  0
 15 16  1  0
 16 12  2  0
 17 15  1  0
 18 17  1  0
 19 18  2  0
 20 19  1  0
 20 21  1  0
 21 17  2  0
 22 20  1  0
  1 23  1  0
  1 24  1  0
  3 25  1  0
  5 26  1  0
  7 27  1  0
  9 28  1  0
  9 29  1  0
  9 30  1  0
 10 31  1  0
 10 32  1  0
 10 33  1  0
 13 34  1  0
 14 35  1  0
 18 36  1  0
 19 37  1  0
 22 38  1  0
 22 39  1  0
 22 40  1  0
M  ISO  8  23   8  24   8  25  14  26  14  27  14  28   8  29   8  30   8
M  ISO  8  31   8  32   8  33   8  34  14  35  14  36  14  37  14  38   8
M  ISO  2  39   8  40   8
M  END
>  <minimizedAffinity>  (1) 
-5.55011177

>  <minimizedRMSD>  (1) 
1.14546216

$$$$
