
     RDKit          3D

 30 31  0  0  0  0  0  0  0  0999 V2000
   46.9490   34.3990   42.0710 C   0  0  0  0  0  0  0  0  0  0  0  0
   44.5530   36.0960   44.4840 C   0  0  0  0  0  0  0  0  0  0  0  0
   45.2950   35.8760   43.2980 C   0  0  0  0  0  0  0  0  0  0  0  0
   46.1250   34.7440   43.2470 C   0  0  0  0  0  0  0  0  0  0  0  0
   46.1720   33.9230   44.3380 N   0  0  0  0  0  0  0  0  0  0  0  0
   45.4440   34.1740   45.4520 C   0  0  0  0  0  0  0  0  0  0  0  0
   44.6380   35.2560   45.5260 N   0  0  0  0  0  0  0  0  0  0  0  0
   45.9960   34.2630   40.8840 C   0  0  0  0  0  0  0  0  0  0  0  0
   48.0370   35.3510   41.7620 C   0  0  0  0  0  0  0  0  0  0  0  0
   47.5600   33.0410   42.3050 C   0  0  0  0  0  0  0  0  0  0  0  0
   48.6540   32.8100   41.4580 O   0  0  0  0  0  0  0  0  0  0  0  0
   49.7450   32.2710   42.1250 C   0  0  0  0  0  0  0  0  0  0  0  0
   50.9780   32.1240   41.2480 C   0  0  0  0  0  0  0  0  0  0  0  0
   50.9680   33.1480   42.3300 C   0  0  0  0  0  0  0  0  0  0  0  0
   43.8935   36.9738   44.5519 H   0  0  0  0  0  0  0  0  0  0  0  0
   45.2238   36.5680   42.4459 H   0  0  0  0  0  0  0  0  0  0  0  0
   45.5097   33.4873   46.3088 H   0  0  0  0  0  0  0  0  0  0  0  0
   44.9699   34.1166   41.2525 H   0  0  0  0  0  0  0  0  0  0  0  0
   46.0392   35.1764   40.2726 H   0  0  0  0  0  0  0  0  0  0  0  0
   46.2929   33.3981   40.2726 H   0  0  0  0  0  0  0  0  0  0  0  0
   48.4700   35.7299   42.6995 H   0  0  0  0  0  0  0  0  0  0  0  0
   48.8167   34.8398   41.1783 H   0  0  0  0  0  0  0  0  0  0  0  0
   47.6339   36.1917   41.1783 H   0  0  0  0  0  0  0  0  0  0  0  0
   47.8987   32.9780   43.3496 H   0  0  0  0  0  0  0  0  0  0  0  0
   46.7950   32.2800   42.0913 H   0  0  0  0  0  0  0  0  0  0  0  0
   49.1423   31.6400   42.7948 H   0  0  0  0  0  0  0  0  0  0  0  0
   51.6152   31.2323   41.3428 H   0  0  0  0  0  0  0  0  0  0  0  0
   51.1641   32.1447   40.1641 H   0  0  0  0  0  0  0  0  0  0  0  0
   50.9254   34.2167   42.0728 H   0  0  0  0  0  0  0  0  0  0  0  0
   51.6215   33.3769   43.1847 H   0  0  0  0  0  0  0  0  0  0  0  0
  1 10  1  0
  1  4  1  0
  2  7  2  0
  3  2  1  0
  4  3  2  0
  4  5  1  0
  5  6  2  0
  6  7  1  0
  8  1  1  0
  9  1  1  0
 11 12  1  0
 11 10  1  0
 12 14  1  0
 13 12  1  0
 13 14  1  0
  2 15  1  0
  3 16  1  0
  6 17  1  0
  8 18  1  0
  8 19  1  0
  8 20  1  0
  9 21  1  0
  9 22  1  0
  9 23  1  0
 10 24  1  0
 10 25  1  0
 12 26  1  0
 13 27  1  0
 13 28  1  0
 14 29  1  0
 14 30  1  0
M  ISO  8  15  14  16  14  17  14  18   8  19   8  20   8  21   8  22   8
M  ISO  8  23   8  24   8  25   8  26  13  27  13  28  13  29  13  30  13
M  END
>  <minimizedAffinity>  (1) 
-4.24452925

>  <minimizedRMSD>  (1) 
1.73348355

$$$$
