
     RDKit          3D

 50 53  0  0  0  0  0  0  0  0999 V2000
   44.9680   34.0690   41.8690 C   0  0  0  0  0  0  0  0  0  0  0  0
   45.8390   34.9070   42.8010 C   0  0  0  0  0  0  0  0  0  0  0  0
   45.1830   34.4940   45.1510 C   0  0  0  0  0  0  0  0  0  0  0  0
   46.0270   34.1650   44.0650 C   0  0  0  0  0  0  0  0  0  0  0  0
   46.9500   33.1670   44.3030 C   0  0  0  0  0  0  0  0  0  0  0  0
   47.0150   32.5670   45.5090 N   0  0  0  0  0  0  0  0  0  0  0  0
   46.1900   32.9130   46.5130 C   0  0  0  0  0  0  0  0  0  0  0  0
   45.2620   33.8870   46.3370 N   0  0  0  0  0  0  0  0  0  0  0  0
   47.1700   35.1810   42.1640 C   0  0  0  0  0  0  0  0  0  0  0  0
   45.1250   36.1930   43.0620 C   0  0  0  0  0  0  0  0  0  0  0  0
   43.6710   34.5600   41.9420 O   0  0  0  0  0  0  0  0  0  0  0  0
   42.8380   34.3990   40.8580 C   0  0  0  0  0  0  0  0  0  0  0  0
   42.6950   35.3480   39.8690 C   0  0  0  0  0  0  0  0  0  0  0  0
   41.7800   34.8400   38.9520 C   0  0  0  0  0  0  0  0  0  0  0  0
   41.3980   33.6240   39.3950 N   0  0  0  0  0  0  0  0  0  0  0  0
   42.0220   33.3590   40.5240 N   0  0  0  0  0  0  0  0  0  0  0  0
   40.4550   32.8510   38.6520 C   0  0  0  0  0  0  0  0  0  0  0  0
   39.1040   33.0980   38.5210 C   0  0  0  0  0  0  0  0  0  0  0  0
   38.5330   32.1140   37.7100 C   0  0  0  0  0  0  0  0  0  0  0  0
   39.5460   31.3100   37.3800 N   0  0  0  0  0  0  0  0  0  0  0  0
   40.6930   31.7370   37.9330 N   0  0  0  0  0  0  0  0  0  0  0  0
   39.4930   30.1180   36.5430 C   0  0  0  0  0  0  0  0  0  0  0  0
   38.2050   29.3330   36.8290 C   0  0  0  0  0  0  0  0  0  0  0  0
   38.4190   29.0570   38.3150 C   0  0  0  0  0  0  0  0  0  0  0  0
   39.8890   28.7640   38.4200 C   0  0  0  0  0  0  0  0  0  0  0  0
   40.4920   29.0710   37.0500 C   0  0  0  0  0  0  0  0  0  0  0  0
   44.9874   33.0157   42.1856 H   0  0  0  0  0  0  0  0  0  0  0  0
   45.3432   34.1286   40.8367 H   0  0  0  0  0  0  0  0  0  0  0  0
   44.4297   35.2835   45.0124 H   0  0  0  0  0  0  0  0  0  0  0  0
   47.6383   32.8584   43.5024 H   0  0  0  0  0  0  0  0  0  0  0  0
   46.2681   32.4025   47.4842 H   0  0  0  0  0  0  0  0  0  0  0  0
   47.9263   35.3367   42.9474 H   0  0  0  0  0  0  0  0  0  0  0  0
   47.4607   34.3239   41.5389 H   0  0  0  0  0  0  0  0  0  0  0  0
   47.0985   36.0833   41.5389 H   0  0  0  0  0  0  0  0  0  0  0  0
   45.0377   36.3502   44.1472 H   0  0  0  0  0  0  0  0  0  0  0  0
   45.6910   37.0238   42.6155 H   0  0  0  0  0  0  0  0  0  0  0  0
   44.1205   36.1519   42.6155 H   0  0  0  0  0  0  0  0  0  0  0  0
   43.2061   36.3205   39.8149 H   0  0  0  0  0  0  0  0  0  0  0  0
   41.4321   35.3379   38.0349 H   0  0  0  0  0  0  0  0  0  0  0  0
   38.5621   33.9369   38.9821 H   0  0  0  0  0  0  0  0  0  0  0  0
   37.4789   32.0220   37.4092 H   0  0  0  0  0  0  0  0  0  0  0  0
   39.6358   30.4736   35.5119 H   0  0  0  0  0  0  0  0  0  0  0  0
   37.3043   29.9378   36.6473 H   0  0  0  0  0  0  0  0  0  0  0  0
   38.0431   28.4444   36.2012 H   0  0  0  0  0  0  0  0  0  0  0  0
   38.1511   29.9365   38.9190 H   0  0  0  0  0  0  0  0  0  0  0  0
   37.7943   28.2318   38.6875 H   0  0  0  0  0  0  0  0  0  0  0  0
   40.3494   29.4014   39.1892 H   0  0  0  0  0  0  0  0  0  0  0  0
   40.0662   27.7169   38.7068 H   0  0  0  0  0  0  0  0  0  0  0  0
   40.5117   28.1805   36.4046 H   0  0  0  0  0  0  0  0  0  0  0  0
   41.5399   29.4050   37.0712 H   0  0  0  0  0  0  0  0  0  0  0  0
  1 11  1  0
  1  2  1  0
  2 10  1  0
  2  4  1  0
  3  8  2  0
  4  5  2  0
  4  3  1  0
  5  6  1  0
  6  7  2  0
  8  7  1  0
  9  2  1  0
 12 11  1  0
 13 12  1  0
 14 15  1  0
 14 13  2  0
 15 16  1  0
 16 12  2  0
 17 15  1  0
 18 17  1  0
 19 18  2  0
 20 19  1  0
 20 21  1  0
 21 17  2  0
 22 23  1  0
 22 26  1  0
 22 20  1  0
 23 24  1  0
 24 25  1  0
 26 25  1  0
  1 27  1  0
  1 28  1  0
  3 29  1  0
  5 30  1  0
  7 31  1  0
  9 32  1  0
  9 33  1  0
  9 34  1  0
 10 35  1  0
 10 36  1  0
 10 37  1  0
 13 38  1  0
 14 39  1  0
 18 40  1  0
 19 41  1  0
 22 42  1  0
 23 43  1  0
 23 44  1  0
 24 45  1  0
 24 46  1  0
 25 47  1  0
 25 48  1  0
 26 49  1  0
 26 50  1  0
M  ISO  8  27   8  28   8  29  14  30  14  31  14  32   8  33   8  34   8
M  ISO  8  35   8  36   8  37   8  38  14  39  14  40  14  41  14  42  13
M  ISO  8  43  13  44  13  45  13  46  13  47  13  48  13  49  13  50  13
M  END
>  <minimizedAffinity>  (1) 
-5.48083067

>  <minimizedRMSD>  (1) 
2.1011095

$$$$
