
     RDKit          3D

 35 36  0  0  0  0  0  0  0  0999 V2000
   46.9940   34.4480   42.0950 C   0  0  0  0  0  0  0  0  0  0  0  0
   44.5440   36.0540   44.5170 C   0  0  0  0  0  0  0  0  0  0  0  0
   45.2960   35.8640   43.3460 C   0  0  0  0  0  0  0  0  0  0  0  0
   46.1620   34.7440   43.2730 C   0  0  0  0  0  0  0  0  0  0  0  0
   46.2120   33.9220   44.3460 N   0  0  0  0  0  0  0  0  0  0  0  0
   45.4710   34.1390   45.4610 C   0  0  0  0  0  0  0  0  0  0  0  0
   44.6450   35.1910   45.5510 N   0  0  0  0  0  0  0  0  0  0  0  0
   46.0720   34.2650   40.9120 C   0  0  0  0  0  0  0  0  0  0  0  0
   48.0480   35.4450   41.8000 C   0  0  0  0  0  0  0  0  0  0  0  0
   47.6740   33.1120   42.3360 C   0  0  0  0  0  0  0  0  0  0  0  0
   48.0880   32.5260   41.1370 O   0  0  0  0  0  0  0  0  0  0  0  0
   49.4350   32.2280   40.9690 C   0  0  0  0  0  0  0  0  0  0  0  0
   50.3670   32.6280   41.8690 N   0  0  0  0  0  0  0  0  0  0  0  0
   51.5350   32.2240   41.4820 O   0  0  0  0  0  0  0  0  0  0  0  0
   51.4620   31.5660   40.3620 C   0  0  0  0  0  0  0  0  0  0  0  0
   50.1530   31.5680   40.0420 N   0  0  0  0  0  0  0  0  0  0  0  0
   52.4910   30.9570   39.5970 N   0  0  0  0  0  0  0  0  0  0  0  0
   52.9180   31.5930   38.4000 C   0  0  0  0  0  0  0  0  0  0  0  0
   52.1380   32.3110   37.6900 N   0  0  0  0  0  0  0  0  0  0  0  0
   54.2550   31.4480   37.9390 N   0  0  0  0  0  0  0  0  0  0  0  0
   51.1530   32.5370   37.8430 H   0  0  0  0  0  0  0  0  0  0  0  0
   43.8647   36.9159   44.5928 H   0  0  0  0  0  0  0  0  0  0  0  0
   45.2148   36.5681   42.5048 H   0  0  0  0  0  0  0  0  0  0  0  0
   45.5492   33.4395   46.3063 H   0  0  0  0  0  0  0  0  0  0  0  0
   45.0518   34.0625   41.2701 H   0  0  0  0  0  0  0  0  0  0  0  0
   46.0716   35.1806   40.3023 H   0  0  0  0  0  0  0  0  0  0  0  0
   46.4213   33.4187   40.3023 H   0  0  0  0  0  0  0  0  0  0  0  0
   48.4592   35.8339   42.7432 H   0  0  0  0  0  0  0  0  0  0  0  0
   48.8512   34.9684   41.2188 H   0  0  0  0  0  0  0  0  0  0  0  0
   47.6168   36.2734   41.2188 H   0  0  0  0  0  0  0  0  0  0  0  0
   48.5522   33.2686   42.9796 H   0  0  0  0  0  0  0  0  0  0  0  0
   46.9509   32.4381   42.8187 H   0  0  0  0  0  0  0  0  0  0  0  0
   52.9196   30.0719   39.9033 H   0  0  0  0  0  0  0  0  0  0  0  0
   54.5535   31.9135   37.0700 H   0  0  0  0  0  0  0  0  0  0  0  0
   54.9252   30.8774   38.4740 H   0  0  0  0  0  0  0  0  0  0  0  0
  1 10  1  0
  1  4  1  0
  2  7  2  0
  3  2  1  0
  4  3  2  0
  4  5  1  0
  5  6  2  0
  6  7  1  0
  8  1  1  0
  9  1  1  0
 11 10  1  0
 12 11  1  0
 12 13  2  0
 14 13  1  0
 15 14  1  0
 16 15  2  0
 16 12  1  0
 17 15  1  0
 18 17  1  0
 19 21  1  0
 19 18  2  0
 20 18  1  0
  2 22  1  0
  3 23  1  0
  6 24  1  0
  8 25  1  0
  8 26  1  0
  8 27  1  0
  9 28  1  0
  9 29  1  0
  9 30  1  0
 10 31  1  0
 10 32  1  0
 17 33  1  0
 20 34  1  0
 20 35  1  0
M  ISO  8  22  14  23  14  24  14  25   8  26   8  27   8  28   8  29   8
M  ISO  3  30   8  31   8  32   8
M  END
>  <minimizedAffinity>  (1) 
-5.56574678

>  <minimizedRMSD>  (1) 
0.22507596

$$$$
