
     RDKit          3D

 41 43  0  0  0  0  0  0  0  0999 V2000
   48.0280   33.1230   42.2650 C   0  0  0  0  0  0  0  0  0  0  0  0
   47.3140   34.4210   41.9670 C   0  0  0  0  0  0  0  0  0  0  0  0
   44.6790   35.9890   44.2230 C   0  0  0  0  0  0  0  0  0  0  0  0
   45.5020   35.8080   43.0980 C   0  0  0  0  0  0  0  0  0  0  0  0
   46.3980   34.7140   43.0870 C   0  0  0  0  0  0  0  0  0  0  0  0
   46.4120   33.8910   44.1760 N   0  0  0  0  0  0  0  0  0  0  0  0
   45.6020   34.1040   45.2370 C   0  0  0  0  0  0  0  0  0  0  0  0
   44.7520   35.1280   45.2680 N   0  0  0  0  0  0  0  0  0  0  0  0
   46.4680   34.2020   40.7370 C   0  0  0  0  0  0  0  0  0  0  0  0
   48.3470   35.4650   41.7180 C   0  0  0  0  0  0  0  0  0  0  0  0
   48.4470   32.4880   41.0970 O   0  0  0  0  0  0  0  0  0  0  0  0
   49.8040   32.2310   40.9300 C   0  0  0  0  0  0  0  0  0  0  0  0
   50.7180   32.5710   41.8750 N   0  0  0  0  0  0  0  0  0  0  0  0
   51.9000   32.2240   41.4750 O   0  0  0  0  0  0  0  0  0  0  0  0
   51.8390   31.6570   40.2900 C   0  0  0  0  0  0  0  0  0  0  0  0
   50.5460   31.6590   39.9490 N   0  0  0  0  0  0  0  0  0  0  0  0
   55.0560   30.1210   38.0880 C   0  0  0  0  0  0  0  0  0  0  0  0
   54.8060   29.6350   39.3510 C   0  0  0  0  0  0  0  0  0  0  0  0
   53.7380   30.1540   40.0660 C   0  0  0  0  0  0  0  0  0  0  0  0
   52.9520   31.1350   39.5100 C   0  0  0  0  0  0  0  0  0  0  0  0
   53.1840   31.6370   38.2460 C   0  0  0  0  0  0  0  0  0  0  0  0
   54.2610   31.1170   37.5220 C   0  0  0  0  0  0  0  0  0  0  0  0
   56.4140   29.4650   37.1730 S   0  0  0  0  0  0  0  0  0  0  0  0
   57.6480   30.3010   37.3230 O   0  0  0  0  0  0  0  0  0  0  0  0
   56.0640   29.4860   35.6920 O   0  0  0  0  0  0  0  0  0  0  0  0
   48.9072   33.3348   42.8913 H   0  0  0  0  0  0  0  0  0  0  0  0
   47.3258   32.4559   42.7864 H   0  0  0  0  0  0  0  0  0  0  0  0
   43.9732   36.8321   44.2558 H   0  0  0  0  0  0  0  0  0  0  0  0
   45.4503   36.5014   42.2457 H   0  0  0  0  0  0  0  0  0  0  0  0
   45.6462   33.4158   46.0940 H   0  0  0  0  0  0  0  0  0  0  0  0
   45.4440   33.9369   41.0388 H   0  0  0  0  0  0  0  0  0  0  0  0
   46.4466   35.1242   40.1378 H   0  0  0  0  0  0  0  0  0  0  0  0
   46.8967   33.3852   40.1378 H   0  0  0  0  0  0  0  0  0  0  0  0
   48.7232   35.8452   42.6792 H   0  0  0  0  0  0  0  0  0  0  0  0
   49.1787   35.0287   41.1455 H   0  0  0  0  0  0  0  0  0  0  0  0
   47.9019   36.2921   41.1455 H   0  0  0  0  0  0  0  0  0  0  0  0
   55.4419   28.8493   39.7850 H   0  0  0  0  0  0  0  0  0  0  0  0
   53.5196   29.7811   41.0776 H   0  0  0  0  0  0  0  0  0  0  0  0
   52.5414   32.4221   37.8210 H   0  0  0  0  0  0  0  0  0  0  0  0
   54.4801   31.4916   36.5112 H   0  0  0  0  0  0  0  0  0  0  0  0
   56.6497   28.2015   37.6473 H   0  0  0  0  0  0  0  0  0  0  0  0
  2  1  1  0
  2  5  1  0
  3  8  2  0
  4  3  1  0
  5  4  2  0
  5  6  1  0
  6  7  2  0
  7  8  1  0
  9  2  1  0
 10  2  1  0
 11  1  1  0
 12 11  1  0
 12 13  2  0
 14 13  1  0
 15 14  1  0
 16 15  2  0
 16 12  1  0
 17 18  2  0
 18 19  1  0
 20 19  2  0
 20 15  1  0
 21 20  1  0
 22 17  1  0
 22 21  2  0
 23 24  2  0
 23 17  1  0
 25 23  2  0
  1 26  1  0
  1 27  1  0
  3 28  1  0
  4 29  1  0
  7 30  1  0
  9 31  1  0
  9 32  1  0
  9 33  1  0
 10 34  1  0
 10 35  1  0
 10 36  1  0
 18 37  1  0
 19 38  1  0
 21 39  1  0
 22 40  1  0
 23 41  1  0
M  ISO  8  26   8  27   8  28  14  29  14  30  14  31   8  32   8  33   8
M  ISO  8  34   8  35   8  36   8  37  14  38  14  39  14  40  14  41  11
M  END
>  <minimizedAffinity>  (1) 
-5.335361

>  <minimizedRMSD>  (1) 
0.712730885

$$$$
