
     RDKit          3D

 41 43  0  0  0  0  0  0  0  0999 V2000
   48.4930   33.2540   42.1810 C   0  0  0  0  0  0  0  0  0  0  0  0
   47.6960   34.5020   41.8730 C   0  0  0  0  0  0  0  0  0  0  0  0
   44.8130   35.7780   44.0070 C   0  0  0  0  0  0  0  0  0  0  0  0
   45.7130   35.6990   42.9140 C   0  0  0  0  0  0  0  0  0  0  0  0
   46.7020   34.6960   42.9400 C   0  0  0  0  0  0  0  0  0  0  0  0
   46.7310   33.8580   44.0220 N   0  0  0  0  0  0  0  0  0  0  0  0
   45.8510   33.9670   45.0500 C   0  0  0  0  0  0  0  0  0  0  0  0
   44.9010   34.9150   45.0460 N   0  0  0  0  0  0  0  0  0  0  0  0
   46.9320   34.2300   40.5920 C   0  0  0  0  0  0  0  0  0  0  0  0
   48.6550   35.6150   41.6840 C   0  0  0  0  0  0  0  0  0  0  0  0
   48.6450   32.4400   41.0560 O   0  0  0  0  0  0  0  0  0  0  0  0
   49.9180   32.1180   40.6270 C   0  0  0  0  0  0  0  0  0  0  0  0
   50.9850   32.2540   41.4240 N   0  0  0  0  0  0  0  0  0  0  0  0
   52.0790   31.8960   40.8260 O   0  0  0  0  0  0  0  0  0  0  0  0
   51.7870   31.5060   39.6000 C   0  0  0  0  0  0  0  0  0  0  0  0
   50.4610   31.6450   39.4870 N   0  0  0  0  0  0  0  0  0  0  0  0
   52.3770   31.0070   38.4020 N   0  0  0  0  0  0  0  0  0  0  0  0
   53.7240   30.8900   38.5090 C   0  0  0  0  0  0  0  0  0  0  0  0
   54.4600   30.4150   37.4270 C   0  0  0  0  0  0  0  0  0  0  0  0
   55.9570   30.2660   37.4950 C   0  0  0  0  0  0  0  0  0  0  0  0
   53.8070   30.0780   36.2800 C   0  0  0  0  0  0  0  0  0  0  0  0
   54.4350   29.6390   35.2640 O   0  0  0  0  0  0  0  0  0  0  0  0
   52.4740   30.2100   36.2160 N   0  0  0  0  0  0  0  0  0  0  0  0
   51.7620   30.6660   37.2560 C   0  0  0  0  0  0  0  0  0  0  0  0
   50.5290   30.8210   37.2910 O   0  0  0  0  0  0  0  0  0  0  0  0
   49.4889   33.5489   42.5433 H   0  0  0  0  0  0  0  0  0  0  0  0
   47.9460   32.6808   42.9441 H   0  0  0  0  0  0  0  0  0  0  0  0
   44.0316   36.5522   44.0105 H   0  0  0  0  0  0  0  0  0  0  0  0
   45.6410   36.4008   42.0700 H   0  0  0  0  0  0  0  0  0  0  0  0
   45.9175   33.2690   45.8976 H   0  0  0  0  0  0  0  0  0  0  0  0
   45.9217   33.8703   40.8369 H   0  0  0  0  0  0  0  0  0  0  0  0
   46.8587   35.1573   40.0048 H   0  0  0  0  0  0  0  0  0  0  0  0
   47.4612   33.4650   40.0048 H   0  0  0  0  0  0  0  0  0  0  0  0
   48.9788   35.9907   42.6658 H   0  0  0  0  0  0  0  0  0  0  0  0
   49.5296   35.2541   41.1229 H   0  0  0  0  0  0  0  0  0  0  0  0
   48.1688   36.4266   41.1229 H   0  0  0  0  0  0  0  0  0  0  0  0
   54.2315   31.1685   39.4444 H   0  0  0  0  0  0  0  0  0  0  0  0
   56.2749   30.2344   38.5476 H   0  0  0  0  0  0  0  0  0  0  0  0
   56.2558   29.3337   36.9935 H   0  0  0  0  0  0  0  0  0  0  0  0
   56.4337   31.1211   36.9935 H   0  0  0  0  0  0  0  0  0  0  0  0
   51.9852   29.9546   35.3461 H   0  0  0  0  0  0  0  0  0  0  0  0
  2  1  1  0
  2  5  1  0
  3  8  2  0
  4  5  2  0
  4  3  1  0
  5  6  1  0
  6  7  2  0
  8  7  1  0
  9  2  1  0
 10  2  1  0
 11  1  1  0
 12 11  1  0
 12 13  2  0
 14 13  1  0
 15 14  1  0
 16 15  2  0
 16 12  1  0
 17 18  1  0
 17 15  1  0
 19 20  1  0
 19 18  2  0
 21 19  1  0
 22 21  2  0
 23 21  1  0
 23 24  1  0
 24 25  2  0
 24 17  1  0
  1 26  1  0
  1 27  1  0
  3 28  1  0
  4 29  1  0
  7 30  1  0
  9 31  1  0
  9 32  1  0
  9 33  1  0
 10 34  1  0
 10 35  1  0
 10 36  1  0
 18 37  1  0
 20 38  1  0
 20 39  1  0
 20 40  1  0
 23 41  1  0
M  ISO  8  26   8  27   8  28  14  29  14  30  14  31   8  32   8  33   8
M  ISO  8  34   8  35   8  36   8  37  14  38   8  39   8  40   8  41   9
M  END
>  <minimizedAffinity>  (1) 
-5.6882062

>  <minimizedRMSD>  (1) 
0.86918813

$$$$
