
     RDKit          3D

 35 37  0  0  0  0  0  0  0  0999 V2000
   46.9790   34.4160   42.0830 C   0  0  0  0  0  0  0  0  0  0  0  0
   44.5500   36.0500   44.5130 C   0  0  0  0  0  0  0  0  0  0  0  0
   45.2980   35.8450   43.3380 C   0  0  0  0  0  0  0  0  0  0  0  0
   46.1510   34.7370   43.2510 C   0  0  0  0  0  0  0  0  0  0  0  0
   46.2040   33.9070   44.3400 N   0  0  0  0  0  0  0  0  0  0  0  0
   45.4740   34.1260   45.4610 C   0  0  0  0  0  0  0  0  0  0  0  0
   44.6500   35.1950   45.5430 N   0  0  0  0  0  0  0  0  0  0  0  0
   46.0420   34.2680   40.8910 C   0  0  0  0  0  0  0  0  0  0  0  0
   48.0510   35.3780   41.7800 C   0  0  0  0  0  0  0  0  0  0  0  0
   47.6190   33.0520   42.3050 C   0  0  0  0  0  0  0  0  0  0  0  0
   48.0450   32.4860   41.1010 O   0  0  0  0  0  0  0  0  0  0  0  0
   49.4110   32.2330   40.9310 C   0  0  0  0  0  0  0  0  0  0  0  0
   50.2950   32.4080   41.9490 N   0  0  0  0  0  0  0  0  0  0  0  0
   51.4850   32.1090   41.5370 O   0  0  0  0  0  0  0  0  0  0  0  0
   51.4590   31.7350   40.2840 C   0  0  0  0  0  0  0  0  0  0  0  0
   50.1740   31.8140   39.9120 N   0  0  0  0  0  0  0  0  0  0  0  0
   52.5230   31.3220   39.4300 N   0  0  0  0  0  0  0  0  0  0  0  0
   52.5280   31.5810   38.1100 C   0  0  0  0  0  0  0  0  0  0  0  0
   53.7190   31.0200   37.6400 C   0  0  0  0  0  0  0  0  0  0  0  0
   54.3600   30.4630   38.6720 N   0  0  0  0  0  0  0  0  0  0  0  0
   53.6320   30.6410   39.7880 C   0  0  0  0  0  0  0  0  0  0  0  0
   43.8782   36.9178   44.5876 H   0  0  0  0  0  0  0  0  0  0  0  0
   45.2135   36.5481   42.4963 H   0  0  0  0  0  0  0  0  0  0  0  0
   45.5524   33.4299   46.3091 H   0  0  0  0  0  0  0  0  0  0  0  0
   45.0149   34.1058   41.2499 H   0  0  0  0  0  0  0  0  0  0  0  0
   46.0771   35.1828   40.2812 H   0  0  0  0  0  0  0  0  0  0  0  0
   46.3574   33.4085   40.2812 H   0  0  0  0  0  0  0  0  0  0  0  0
   48.4769   35.7602   42.7194 H   0  0  0  0  0  0  0  0  0  0  0  0
   48.8385   34.8779   41.1971 H   0  0  0  0  0  0  0  0  0  0  0  0
   47.6387   36.2148   41.1971 H   0  0  0  0  0  0  0  0  0  0  0  0
   48.4858   33.1679   42.9723 H   0  0  0  0  0  0  0  0  0  0  0  0
   46.8670   32.3860   42.7533 H   0  0  0  0  0  0  0  0  0  0  0  0
   51.7631   32.1165   37.5284 H   0  0  0  0  0  0  0  0  0  0  0  0
   54.0693   31.0345   36.5974 H   0  0  0  0  0  0  0  0  0  0  0  0
   53.8908   30.2971   40.8003 H   0  0  0  0  0  0  0  0  0  0  0  0
  1 10  1  0
  1  4  1  0
  2  7  2  0
  3  2  1  0
  4  3  2  0
  4  5  1  0
  5  6  2  0
  6  7  1  0
  8  1  1  0
  9  1  1  0
 11 10  1  0
 12 11  1  0
 12 13  2  0
 14 13  1  0
 15 14  1  0
 16 15  2  0
 16 12  1  0
 17 21  1  0
 17 15  1  0
 18 17  1  0
 19 18  2  0
 19 20  1  0
 20 21  2  0
  2 22  1  0
  3 23  1  0
  6 24  1  0
  8 25  1  0
  8 26  1  0
  8 27  1  0
  9 28  1  0
  9 29  1  0
  9 30  1  0
 10 31  1  0
 10 32  1  0
 18 33  1  0
 19 34  1  0
 21 35  1  0
M  ISO  8  22  14  23  14  24  14  25   8  26   8  27   8  28   8  29   8
M  ISO  6  30   8  31   8  32   8  33  14  34  14  35  14
M  END
>  <minimizedAffinity>  (1) 
-5.19552374

>  <minimizedRMSD>  (1) 
0.38790369

$$$$
