
     RDKit          3D

 43 45  0  0  0  0  0  0  0  0999 V2000
   44.9520   34.0780   41.9490 C   0  0  0  0  0  0  0  0  0  0  0  0
   45.8430   34.8890   42.8770 C   0  0  0  0  0  0  0  0  0  0  0  0
   45.2050   34.4510   45.2310 C   0  0  0  0  0  0  0  0  0  0  0  0
   46.0370   34.1360   44.1310 C   0  0  0  0  0  0  0  0  0  0  0  0
   46.9590   33.1340   44.3580 C   0  0  0  0  0  0  0  0  0  0  0  0
   47.0330   32.5220   45.5530 N   0  0  0  0  0  0  0  0  0  0  0  0
   46.2170   32.8570   46.5720 C   0  0  0  0  0  0  0  0  0  0  0  0
   45.2910   33.8360   46.4060 N   0  0  0  0  0  0  0  0  0  0  0  0
   47.1690   35.1660   42.2320 C   0  0  0  0  0  0  0  0  0  0  0  0
   45.1450   36.1790   43.1620 C   0  0  0  0  0  0  0  0  0  0  0  0
   43.6480   34.5140   42.1090 O   0  0  0  0  0  0  0  0  0  0  0  0
   42.8050   34.4890   41.0220 C   0  0  0  0  0  0  0  0  0  0  0  0
   42.8320   35.4420   40.0170 C   0  0  0  0  0  0  0  0  0  0  0  0
   41.8440   35.0880   39.0990 C   0  0  0  0  0  0  0  0  0  0  0  0
   41.2580   33.9600   39.5560 N   0  0  0  0  0  0  0  0  0  0  0  0
   41.8230   33.5970   40.7000 N   0  0  0  0  0  0  0  0  0  0  0  0
   40.1980   33.3450   38.8270 C   0  0  0  0  0  0  0  0  0  0  0  0
   38.9070   33.8540   38.6750 C   0  0  0  0  0  0  0  0  0  0  0  0
   38.1570   32.9730   37.8950 C   0  0  0  0  0  0  0  0  0  0  0  0
   38.9980   31.9790   37.6050 N   0  0  0  0  0  0  0  0  0  0  0  0
   40.2120   32.1910   38.1540 N   0  0  0  0  0  0  0  0  0  0  0  0
   38.5780   30.8450   36.7910 C   0  0  0  0  0  0  0  0  0  0  0  0
   38.4230   29.6220   37.6480 C   0  0  0  0  0  0  0  0  0  0  0  0
   45.0215   33.0105   42.2053 H   0  0  0  0  0  0  0  0  0  0  0  0
   45.2710   34.2111   40.9047 H   0  0  0  0  0  0  0  0  0  0  0  0
   44.4511   35.2425   45.1079 H   0  0  0  0  0  0  0  0  0  0  0  0
   47.6423   32.8322   43.5505 H   0  0  0  0  0  0  0  0  0  0  0  0
   46.3012   32.3374   47.5379 H   0  0  0  0  0  0  0  0  0  0  0  0
   47.9295   35.3249   43.0107 H   0  0  0  0  0  0  0  0  0  0  0  0
   47.4585   34.3089   41.6062 H   0  0  0  0  0  0  0  0  0  0  0  0
   47.0912   36.0673   41.6062 H   0  0  0  0  0  0  0  0  0  0  0  0
   45.0679   36.3216   44.2500 H   0  0  0  0  0  0  0  0  0  0  0  0
   45.7166   37.0100   42.7229 H   0  0  0  0  0  0  0  0  0  0  0  0
   44.1367   36.1551   42.7229 H   0  0  0  0  0  0  0  0  0  0  0  0
   43.5037   36.3109   39.9551 H   0  0  0  0  0  0  0  0  0  0  0  0
   41.5892   35.6270   38.1746 H   0  0  0  0  0  0  0  0  0  0  0  0
   38.5396   34.7988   39.1020 H   0  0  0  0  0  0  0  0  0  0  0  0
   37.1058   33.0754   37.5876 H   0  0  0  0  0  0  0  0  0  0  0  0
   37.6154   31.0778   36.3123 H   0  0  0  0  0  0  0  0  0  0  0  0
   39.3416   30.6514   36.0232 H   0  0  0  0  0  0  0  0  0  0  0  0
   38.4596   29.9106   38.7088 H   0  0  0  0  0  0  0  0  0  0  0  0
   37.4569   29.1426   37.4315 H   0  0  0  0  0  0  0  0  0  0  0  0
   39.2389   28.9168   37.4315 H   0  0  0  0  0  0  0  0  0  0  0  0
  1 11  1  0
  1  2  1  0
  2 10  1  0
  2  4  1  0
  3  8  2  0
  4  5  2  0
  4  3  1  0
  5  6  1  0
  6  7  2  0
  8  7  1  0
  9  2  1  0
 12 11  1  0
 13 12  1  0
 14 15  1  0
 14 13  2  0
 15 16  1  0
 16 12  2  0
 17 15  1  0
 18 17  1  0
 19 18  2  0
 20 19  1  0
 20 21  1  0
 21 17  2  0
 22 20  1  0
 22 23  1  0
  1 24  1  0
  1 25  1  0
  3 26  1  0
  5 27  1  0
  7 28  1  0
  9 29  1  0
  9 30  1  0
  9 31  1  0
 10 32  1  0
 10 33  1  0
 10 34  1  0
 13 35  1  0
 14 36  1  0
 18 37  1  0
 19 38  1  0
 22 39  1  0
 22 40  1  0
 23 41  1  0
 23 42  1  0
 23 43  1  0
M  ISO  8  24   8  25   8  26  14  27  14  28  14  29   8  30   8  31   8
M  ISO  8  32   8  33   8  34   8  35  14  36  14  37  14  38  14  39   8
M  ISO  4  40   8  41   8  42   8  43   8
M  END
>  <minimizedAffinity>  (1) 
-5.46116495

>  <minimizedRMSD>  (1) 
1.30020952

$$$$
