
     RDKit          3D

 37 39  0  0  0  0  0  0  0  0999 V2000
   46.9710   34.4180   42.0630 C   0  0  0  0  0  0  0  0  0  0  0  0
   44.5540   36.0420   44.5130 C   0  0  0  0  0  0  0  0  0  0  0  0
   45.2950   35.8440   43.3300 C   0  0  0  0  0  0  0  0  0  0  0  0
   46.1510   34.7300   43.2390 C   0  0  0  0  0  0  0  0  0  0  0  0
   46.2120   33.8930   44.3210 N   0  0  0  0  0  0  0  0  0  0  0  0
   45.4820   34.1220   45.4360 C   0  0  0  0  0  0  0  0  0  0  0  0
   44.6630   35.1810   45.5360 N   0  0  0  0  0  0  0  0  0  0  0  0
   46.0300   34.2610   40.8860 C   0  0  0  0  0  0  0  0  0  0  0  0
   48.0370   35.4100   41.7620 C   0  0  0  0  0  0  0  0  0  0  0  0
   47.6400   33.0870   42.2870 C   0  0  0  0  0  0  0  0  0  0  0  0
   48.1500   32.5500   41.0990 O   0  0  0  0  0  0  0  0  0  0  0  0
   49.5040   32.3140   40.9860 C   0  0  0  0  0  0  0  0  0  0  0  0
   50.3570   32.6690   41.9640 N   0  0  0  0  0  0  0  0  0  0  0  0
   51.5770   32.3480   41.6390 O   0  0  0  0  0  0  0  0  0  0  0  0
   51.5770   31.7760   40.4510 C   0  0  0  0  0  0  0  0  0  0  0  0
   50.3010   31.7580   40.0570 N   0  0  0  0  0  0  0  0  0  0  0  0
   52.6740   31.2370   39.6370 C   0  0  0  0  0  0  0  0  0  0  0  0
   52.8560   31.5880   38.2930 C   0  0  0  0  0  0  0  0  0  0  0  0
   53.9390   30.9910   37.6640 C   0  0  0  0  0  0  0  0  0  0  0  0
   54.7670   30.1100   38.3440 C   0  0  0  0  0  0  0  0  0  0  0  0
   54.5500   29.7900   39.6730 C   0  0  0  0  0  0  0  0  0  0  0  0
   53.5070   30.3760   40.2480 N   0  0  0  0  0  0  0  0  0  0  0  0
   43.8818   36.9086   44.5978 H   0  0  0  0  0  0  0  0  0  0  0  0
   45.2056   36.5494   42.4907 H   0  0  0  0  0  0  0  0  0  0  0  0
   45.5612   33.4233   46.2819 H   0  0  0  0  0  0  0  0  0  0  0  0
   45.0076   34.0904   41.2542 H   0  0  0  0  0  0  0  0  0  0  0  0
   46.0518   35.1752   40.2746 H   0  0  0  0  0  0  0  0  0  0  0  0
   46.3474   33.4034   40.2746 H   0  0  0  0  0  0  0  0  0  0  0  0
   48.4535   35.7976   42.7034 H   0  0  0  0  0  0  0  0  0  0  0  0
   48.8349   34.9256   41.1800 H   0  0  0  0  0  0  0  0  0  0  0  0
   47.6112   36.2406   41.1800 H   0  0  0  0  0  0  0  0  0  0  0  0
   48.4668   33.2206   43.0001 H   0  0  0  0  0  0  0  0  0  0  0  0
   46.8855   32.3891   42.6790 H   0  0  0  0  0  0  0  0  0  0  0  0
   52.1865   32.2885   37.7724 H   0  0  0  0  0  0  0  0  0  0  0  0
   54.1446   31.2202   36.6080 H   0  0  0  0  0  0  0  0  0  0  0  0
   55.6167   29.6546   37.8142 H   0  0  0  0  0  0  0  0  0  0  0  0
   55.2021   29.0926   40.2193 H   0  0  0  0  0  0  0  0  0  0  0  0
  1 10  1  0
  1  4  1  0
  2  7  2  0
  3  2  1  0
  4  3  2  0
  4  5  1  0
  5  6  2  0
  6  7  1  0
  8  1  1  0
  9  1  1  0
 11 10  1  0
 12 11  1  0
 12 13  2  0
 14 13  1  0
 15 14  1  0
 16 15  2  0
 16 12  1  0
 17 22  1  0
 17 15  1  0
 18 17  2  0
 19 18  1  0
 19 20  2  0
 20 21  1  0
 21 22  2  0
  2 23  1  0
  3 24  1  0
  6 25  1  0
  8 26  1  0
  8 27  1  0
  8 28  1  0
  9 29  1  0
  9 30  1  0
  9 31  1  0
 10 32  1  0
 10 33  1  0
 18 34  1  0
 19 35  1  0
 20 36  1  0
 21 37  1  0
M  ISO  8  23  14  24  14  25  14  26   8  27   8  28   8  29   8  30   8
M  ISO  7  31   8  32   8  33   8  34  14  35  14  36  14  37  14
M  END
>  <minimizedAffinity>  (1) 
-5.15338469

>  <minimizedRMSD>  (1) 
0.469473839

$$$$
