
     RDKit          3D

 44 46  0  0  0  0  0  0  0  0999 V2000
   46.9810   34.4580   42.1020 C   0  0  0  0  0  0  0  0  0  0  0  0
   44.5370   36.0580   44.5360 C   0  0  0  0  0  0  0  0  0  0  0  0
   45.2880   35.8720   43.3530 C   0  0  0  0  0  0  0  0  0  0  0  0
   46.1510   34.7540   43.2810 C   0  0  0  0  0  0  0  0  0  0  0  0
   46.2080   33.9260   44.3530 N   0  0  0  0  0  0  0  0  0  0  0  0
   45.4730   34.1340   45.4730 C   0  0  0  0  0  0  0  0  0  0  0  0
   44.6410   35.1960   45.5650 N   0  0  0  0  0  0  0  0  0  0  0  0
   46.0440   34.2810   40.9190 C   0  0  0  0  0  0  0  0  0  0  0  0
   48.0490   35.4480   41.8050 C   0  0  0  0  0  0  0  0  0  0  0  0
   47.6460   33.1080   42.3320 C   0  0  0  0  0  0  0  0  0  0  0  0
   47.9730   32.4750   41.1320 O   0  0  0  0  0  0  0  0  0  0  0  0
   49.2840   32.0800   40.9030 C   0  0  0  0  0  0  0  0  0  0  0  0
   50.3070   32.6490   41.5680 N   0  0  0  0  0  0  0  0  0  0  0  0
   51.4290   32.1260   41.1930 O   0  0  0  0  0  0  0  0  0  0  0  0
   51.2130   31.2060   40.2830 C   0  0  0  0  0  0  0  0  0  0  0  0
   49.8750   31.1710   40.0940 N   0  0  0  0  0  0  0  0  0  0  0  0
   52.1860   30.3340   39.5540 C   0  0  0  0  0  0  0  0  0  0  0  0
   53.6190   30.6050   40.0210 C   0  0  0  0  0  0  0  0  0  0  0  0
   54.5330   30.0430   38.9520 C   0  0  0  0  0  0  0  0  0  0  0  0
   54.5290   31.0530   37.8070 C   0  0  0  0  0  0  0  0  0  0  0  0
   53.1360   31.6040   37.5990 C   0  0  0  0  0  0  0  0  0  0  0  0
   52.0890   30.5990   38.0870 C   0  0  0  0  0  0  0  0  0  0  0  0
   43.8578   36.9195   44.6171 H   0  0  0  0  0  0  0  0  0  0  0  0
   45.2036   36.5766   42.5126 H   0  0  0  0  0  0  0  0  0  0  0  0
   45.5543   33.4316   46.3156 H   0  0  0  0  0  0  0  0  0  0  0  0
   45.0245   34.0884   41.2844 H   0  0  0  0  0  0  0  0  0  0  0  0
   46.0479   35.1958   40.3081 H   0  0  0  0  0  0  0  0  0  0  0  0
   46.3813   33.4307   40.3081 H   0  0  0  0  0  0  0  0  0  0  0  0
   48.4645   35.8331   42.7479 H   0  0  0  0  0  0  0  0  0  0  0  0
   48.8471   34.9631   41.2236 H   0  0  0  0  0  0  0  0  0  0  0  0
   47.6259   36.2805   41.2236 H   0  0  0  0  0  0  0  0  0  0  0  0
   48.5660   33.2601   42.9155 H   0  0  0  0  0  0  0  0  0  0  0  0
   46.9341   32.4662   42.8717 H   0  0  0  0  0  0  0  0  0  0  0  0
   51.9388   29.2835   39.7668 H   0  0  0  0  0  0  0  0  0  0  0  0
   53.7843   31.6868   40.1321 H   0  0  0  0  0  0  0  0  0  0  0  0
   53.8143   30.1376   40.9974 H   0  0  0  0  0  0  0  0  0  0  0  0
   55.5519   29.9211   39.3482 H   0  0  0  0  0  0  0  0  0  0  0  0
   54.1896   29.0545   38.6130 H   0  0  0  0  0  0  0  0  0  0  0  0
   55.2137   31.8791   38.0493 H   0  0  0  0  0  0  0  0  0  0  0  0
   54.8567   30.5505   36.8850 H   0  0  0  0  0  0  0  0  0  0  0  0
   53.0289   32.5423   38.1630 H   0  0  0  0  0  0  0  0  0  0  0  0
   52.9811   31.7897   36.5259 H   0  0  0  0  0  0  0  0  0  0  0  0
   51.0880   30.9983   37.8667 H   0  0  0  0  0  0  0  0  0  0  0  0
   52.2711   29.6484   37.5643 H   0  0  0  0  0  0  0  0  0  0  0  0
  1 10  1  0
  1  4  1  0
  2  7  2  0
  3  2  1  0
  4  3  2  0
  4  5  1  0
  5  6  2  0
  6  7  1  0
  8  1  1  0
  9  1  1  0
 11 10  1  0
 12 11  1  0
 12 13  2  0
 14 13  1  0
 15 14  1  0
 16 15  2  0
 16 12  1  0
 17 18  1  0
 17 15  1  0
 19 18  1  0
 20 19  1  0
 21 20  1  0
 21 22  1  0
 22 17  1  0
  2 23  1  0
  3 24  1  0
  6 25  1  0
  8 26  1  0
  8 27  1  0
  8 28  1  0
  9 29  1  0
  9 30  1  0
  9 31  1  0
 10 32  1  0
 10 33  1  0
 17 34  1  0
 18 35  1  0
 18 36  1  0
 19 37  1  0
 19 38  1  0
 20 39  1  0
 20 40  1  0
 21 41  1  0
 21 42  1  0
 22 43  1  0
 22 44  1  0
M  ISO  8  23  14  24  14  25  14  26   8  27   8  28   8  29   8  30   8
M  ISO  8  31   8  32   8  33   8  34  13  35  13  36  13  37  13  38  13
M  ISO  6  39  13  40  13  41  13  42  13  43  13  44  13
M  END
>  <minimizedAffinity>  (1) 
-5.00787306

>  <minimizedRMSD>  (1) 
0.55380404

$$$$
