
     RDKit          3D

 35 37  0  0  0  0  0  0  0  0999 V2000
   47.5350   34.4690   41.9360 C   0  0  0  0  0  0  0  0  0  0  0  0
   44.7580   35.9060   44.0940 C   0  0  0  0  0  0  0  0  0  0  0  0
   45.6380   35.7660   43.0070 C   0  0  0  0  0  0  0  0  0  0  0  0
   46.5700   34.7150   43.0100 C   0  0  0  0  0  0  0  0  0  0  0  0
   46.5580   33.8850   44.0860 N   0  0  0  0  0  0  0  0  0  0  0  0
   45.6950   34.0480   45.1200 C   0  0  0  0  0  0  0  0  0  0  0  0
   44.8020   35.0500   45.1250 N   0  0  0  0  0  0  0  0  0  0  0  0
   46.7460   34.2160   40.6660 C   0  0  0  0  0  0  0  0  0  0  0  0
   48.5360   35.5480   41.7350 C   0  0  0  0  0  0  0  0  0  0  0  0
   48.2810   33.1870   42.2520 C   0  0  0  0  0  0  0  0  0  0  0  0
   48.4610   32.3900   41.1100 O   0  0  0  0  0  0  0  0  0  0  0  0
   49.7560   32.1150   40.6900 C   0  0  0  0  0  0  0  0  0  0  0  0
   50.8250   32.3080   41.4820 N   0  0  0  0  0  0  0  0  0  0  0  0
   51.9100   31.9730   40.8510 O   0  0  0  0  0  0  0  0  0  0  0  0
   51.6140   31.5580   39.6550 C   0  0  0  0  0  0  0  0  0  0  0  0
   50.2870   31.6440   39.5530 N   0  0  0  0  0  0  0  0  0  0  0  0
   52.5100   31.1000   38.6390 C   0  0  0  0  0  0  0  0  0  0  0  0
   53.8170   31.3890   38.5000 C   0  0  0  0  0  0  0  0  0  0  0  0
   54.5700   30.8910   37.4890 C   0  0  0  0  0  0  0  0  0  0  0  0
   53.7990   30.0070   36.5730 C   0  0  0  0  0  0  0  0  0  0  0  0
   52.0900   30.0430   37.3370 S   0  0  0  0  0  0  0  0  0  0  0  0
   44.0254   36.7266   44.0989 H   0  0  0  0  0  0  0  0  0  0  0  0
   45.5973   36.4712   42.1638 H   0  0  0  0  0  0  0  0  0  0  0  0
   45.7276   33.3478   45.9678 H   0  0  0  0  0  0  0  0  0  0  0  0
   45.7281   33.8896   40.9256 H   0  0  0  0  0  0  0  0  0  0  0  0
   46.6945   35.1427   40.0756 H   0  0  0  0  0  0  0  0  0  0  0  0
   47.2430   33.4322   40.0756 H   0  0  0  0  0  0  0  0  0  0  0  0
   48.8785   35.9172   42.7129 H   0  0  0  0  0  0  0  0  0  0  0  0
   49.3938   35.1521   41.1716 H   0  0  0  0  0  0  0  0  0  0  0  0
   48.0769   36.3737   41.1716 H   0  0  0  0  0  0  0  0  0  0  0  0
   49.2675   33.4426   42.6662 H   0  0  0  0  0  0  0  0  0  0  0  0
   47.6827   32.6144   42.9760 H   0  0  0  0  0  0  0  0  0  0  0  0
   54.2925   32.0550   39.2351 H   0  0  0  0  0  0  0  0  0  0  0  0
   55.6388   31.1165   37.3592 H   0  0  0  0  0  0  0  0  0  0  0  0
   54.1445   29.4703   35.6771 H   0  0  0  0  0  0  0  0  0  0  0  0
  1 10  1  0
  1  4  1  0
  2  7  2  0
  3  4  2  0
  3  2  1  0
  4  5  1  0
  5  6  2  0
  6  7  1  0
  8  1  1  0
  9  1  1  0
 11 10  1  0
 12 11  1  0
 12 13  2  0
 14 13  1  0
 15 14  1  0
 16 15  2  0
 16 12  1  0
 17 15  1  0
 18 17  2  0
 19 18  1  0
 20 21  1  0
 20 19  2  0
 21 17  1  0
  2 22  1  0
  3 23  1  0
  6 24  1  0
  8 25  1  0
  8 26  1  0
  8 27  1  0
  9 28  1  0
  9 29  1  0
  9 30  1  0
 10 31  1  0
 10 32  1  0
 18 33  1  0
 19 34  1  0
 20 35  1  0
M  ISO  8  22  14  23  14  24  14  25   8  26   8  27   8  28   8  29   8
M  ISO  6  30   8  31   8  32   8  33  14  34  14  35  14
M  END
>  <minimizedAffinity>  (1) 
-5.05116081

>  <minimizedRMSD>  (1) 
0.674766898

$$$$
