
     RDKit          3D

 53 56  0  0  0  0  0  0  0  0999 V2000
   45.0100   34.0980   41.8390 C   0  0  0  0  0  0  0  0  0  0  0  0
   45.8820   34.9220   42.7810 C   0  0  0  0  0  0  0  0  0  0  0  0
   45.1960   34.5050   45.1230 C   0  0  0  0  0  0  0  0  0  0  0  0
   46.0490   34.1780   44.0450 C   0  0  0  0  0  0  0  0  0  0  0  0
   46.9640   33.1760   44.2950 C   0  0  0  0  0  0  0  0  0  0  0  0
   47.0150   32.5690   45.4950 N   0  0  0  0  0  0  0  0  0  0  0  0
   46.1830   32.9150   46.4860 C   0  0  0  0  0  0  0  0  0  0  0  0
   45.2580   33.8940   46.3050 N   0  0  0  0  0  0  0  0  0  0  0  0
   47.2220   35.1920   42.1600 C   0  0  0  0  0  0  0  0  0  0  0  0
   45.1680   36.2110   43.0380 C   0  0  0  0  0  0  0  0  0  0  0  0
   43.7180   34.6100   41.8890 O   0  0  0  0  0  0  0  0  0  0  0  0
   42.8860   34.3970   40.8060 C   0  0  0  0  0  0  0  0  0  0  0  0
   42.6690   35.3400   39.8200 C   0  0  0  0  0  0  0  0  0  0  0  0
   41.7890   34.7710   38.9140 C   0  0  0  0  0  0  0  0  0  0  0  0
   41.4930   33.5270   39.3540 N   0  0  0  0  0  0  0  0  0  0  0  0
   42.1420   33.2980   40.4780 N   0  0  0  0  0  0  0  0  0  0  0  0
   40.6000   32.6940   38.6180 C   0  0  0  0  0  0  0  0  0  0  0  0
   39.2190   32.8590   38.5140 C   0  0  0  0  0  0  0  0  0  0  0  0
   38.7030   31.8540   37.7120 C   0  0  0  0  0  0  0  0  0  0  0  0
   39.7580   31.1190   37.3550 N   0  0  0  0  0  0  0  0  0  0  0  0
   40.8960   31.6140   37.8910 N   0  0  0  0  0  0  0  0  0  0  0  0
   39.6500   29.9360   36.4880 C   0  0  0  0  0  0  0  0  0  0  0  0
   38.2500   29.4890   36.2670 C   0  0  0  0  0  0  0  0  0  0  0  0
   37.7440   28.3910   37.1240 C   0  0  0  0  0  0  0  0  0  0  0  0
   38.7450   27.3840   37.5830 C   0  0  0  0  0  0  0  0  0  0  0  0
   40.0580   27.9620   38.0070 C   0  0  0  0  0  0  0  0  0  0  0  0
   40.6060   28.8610   36.9340 C   0  0  0  0  0  0  0  0  0  0  0  0
   45.0068   33.0455   42.1586 H   0  0  0  0  0  0  0  0  0  0  0  0
   45.4018   34.1507   40.8125 H   0  0  0  0  0  0  0  0  0  0  0  0
   44.4481   35.2988   44.9798 H   0  0  0  0  0  0  0  0  0  0  0  0
   47.6618   32.8689   43.5021 H   0  0  0  0  0  0  0  0  0  0  0  0
   46.2491   32.4014   47.4565 H   0  0  0  0  0  0  0  0  0  0  0  0
   47.9698   35.3427   42.9526 H   0  0  0  0  0  0  0  0  0  0  0  0
   47.5164   34.3351   41.5362 H   0  0  0  0  0  0  0  0  0  0  0  0
   47.1616   36.0960   41.5362 H   0  0  0  0  0  0  0  0  0  0  0  0
   45.0793   36.3711   44.1227 H   0  0  0  0  0  0  0  0  0  0  0  0
   45.7355   37.0401   42.5902 H   0  0  0  0  0  0  0  0  0  0  0  0
   44.1641   36.1697   42.5902 H   0  0  0  0  0  0  0  0  0  0  0  0
   43.1092   36.3466   39.7650 H   0  0  0  0  0  0  0  0  0  0  0  0
   41.4008   35.2457   38.0008 H   0  0  0  0  0  0  0  0  0  0  0  0
   38.6337   33.6584   38.9918 H   0  0  0  0  0  0  0  0  0  0  0  0
   37.6514   31.6961   37.4305 H   0  0  0  0  0  0  0  0  0  0  0  0
   39.9711   30.2245   35.4762 H   0  0  0  0  0  0  0  0  0  0  0  0
   37.5963   30.3595   36.4249 H   0  0  0  0  0  0  0  0  0  0  0  0
   38.2426   29.0775   35.2469 H   0  0  0  0  0  0  0  0  0  0  0  0
   37.2949   28.8465   38.0189 H   0  0  0  0  0  0  0  0  0  0  0  0
   37.0398   27.8311   36.4911 H   0  0  0  0  0  0  0  0  0  0  0  0
   38.3173   26.8396   38.4378 H   0  0  0  0  0  0  0  0  0  0  0  0
   38.9535   26.7348   36.7198 H   0  0  0  0  0  0  0  0  0  0  0  0
   39.9168   28.5436   38.9299 H   0  0  0  0  0  0  0  0  0  0  0  0
   40.7691   27.1413   38.1823 H   0  0  0  0  0  0  0  0  0  0  0  0
   40.8619   28.2420   36.0615 H   0  0  0  0  0  0  0  0  0  0  0  0
   41.4811   29.3713   37.3627 H   0  0  0  0  0  0  0  0  0  0  0  0
  1 11  1  0
  1  2  1  0
  2 10  1  0
  2  4  1  0
  3  8  2  0
  4  5  2  0
  4  3  1  0
  5  6  1  0
  6  7  2  0
  8  7  1  0
  9  2  1  0
 12 11  1  0
 13 12  1  0
 14 15  1  0
 14 13  2  0
 15 16  1  0
 16 12  2  0
 17 15  1  0
 18 17  1  0
 19 18  2  0
 20 19  1  0
 20 21  1  0
 21 17  2  0
 22 27  1  0
 22 20  1  0
 23 22  1  0
 23 24  1  0
 24 25  1  0
 25 26  1  0
 27 26  1  0
  1 28  1  0
  1 29  1  0
  3 30  1  0
  5 31  1  0
  7 32  1  0
  9 33  1  0
  9 34  1  0
  9 35  1  0
 10 36  1  0
 10 37  1  0
 10 38  1  0
 13 39  1  0
 14 40  1  0
 18 41  1  0
 19 42  1  0
 22 43  1  0
 23 44  1  0
 23 45  1  0
 24 46  1  0
 24 47  1  0
 25 48  1  0
 25 49  1  0
 26 50  1  0
 26 51  1  0
 27 52  1  0
 27 53  1  0
M  ISO  8  28   8  29   8  30  14  31  14  32  14  33   8  34   8  35   8
M  ISO  8  36   8  37   8  38   8  39  14  40  14  41  14  42  14  43  13
M  ISO  8  44  13  45  13  46  13  47  13  48  13  49  13  50  13  51  13
M  ISO  2  52  13  53  13
M  END
>  <minimizedAffinity>  (1) 
-5.44492912

>  <minimizedRMSD>  (1) 
2.45171261

$$$$
