
     RDKit          3D

 30 31  0  0  0  0  0  0  0  0999 V2000
   46.9780   34.4210   42.1290 C   0  0  0  0  0  0  0  0  0  0  0  0
   44.5360   35.8850   44.6460 C   0  0  0  0  0  0  0  0  0  0  0  0
   45.2610   35.7390   43.4490 C   0  0  0  0  0  0  0  0  0  0  0  0
   46.1640   34.6740   43.3350 C   0  0  0  0  0  0  0  0  0  0  0  0
   46.2900   33.8350   44.3930 N   0  0  0  0  0  0  0  0  0  0  0  0
   45.5740   34.0050   45.5370 C   0  0  0  0  0  0  0  0  0  0  0  0
   44.7060   35.0140   45.6690 N   0  0  0  0  0  0  0  0  0  0  0  0
   46.0130   34.2740   40.9610 C   0  0  0  0  0  0  0  0  0  0  0  0
   48.0100   35.4270   41.8410 C   0  0  0  0  0  0  0  0  0  0  0  0
   47.6580   33.0750   42.2920 C   0  0  0  0  0  0  0  0  0  0  0  0
   48.0520   32.5300   41.0820 O   0  0  0  0  0  0  0  0  0  0  0  0
   49.3840   32.2510   40.8410 C   0  0  0  0  0  0  0  0  0  0  0  0
   50.3410   32.6420   41.7170 N   0  0  0  0  0  0  0  0  0  0  0  0
   51.5110   32.2820   41.3000 O   0  0  0  0  0  0  0  0  0  0  0  0
   51.4030   31.6530   40.1650 C   0  0  0  0  0  0  0  0  0  0  0  0
   50.0810   31.6320   39.8770 N   0  0  0  0  0  0  0  0  0  0  0  0
   52.4660   31.1130   39.4100 N   0  0  0  0  0  0  0  0  0  0  0  0
   43.8231   36.7160   44.7521 H   0  0  0  0  0  0  0  0  0  0  0  0
   45.1215   36.4472   42.6190 H   0  0  0  0  0  0  0  0  0  0  0  0
   45.7115   33.2992   46.3694 H   0  0  0  0  0  0  0  0  0  0  0  0
   44.9939   34.1188   41.3447 H   0  0  0  0  0  0  0  0  0  0  0  0
   46.0386   35.1864   40.3471 H   0  0  0  0  0  0  0  0  0  0  0  0
   46.3092   33.4106   40.3471 H   0  0  0  0  0  0  0  0  0  0  0  0
   48.4130   35.8198   42.7861 H   0  0  0  0  0  0  0  0  0  0  0  0
   48.8216   34.9639   41.2607 H   0  0  0  0  0  0  0  0  0  0  0  0
   47.5678   36.2502   41.2607 H   0  0  0  0  0  0  0  0  0  0  0  0
   48.5469   33.2035   42.9271 H   0  0  0  0  0  0  0  0  0  0  0  0
   46.9313   32.3865   42.7478 H   0  0  0  0  0  0  0  0  0  0  0  0
   52.2731   30.6315   38.5202 H   0  0  0  0  0  0  0  0  0  0  0  0
   53.4348   31.2004   39.7488 H   0  0  0  0  0  0  0  0  0  0  0  0
  1 10  1  0
  1  4  1  0
  2  7  2  0
  3  2  1  0
  4  3  2  0
  4  5  1  0
  5  6  2  0
  6  7  1  0
  8  1  1  0
  9  1  1  0
 11 10  1  0
 12 11  1  0
 12 13  2  0
 14 13  1  0
 15 14  1  0
 16 15  2  0
 16 12  1  0
 17 15  1  0
  2 18  1  0
  3 19  1  0
  6 20  1  0
  8 21  1  0
  8 22  1  0
  8 23  1  0
  9 24  1  0
  9 25  1  0
  9 26  1  0
 10 27  1  0
 10 28  1  0
 17 29  1  0
 17 30  1  0
M  ISO  8  18  14  19  14  20  14  21   8  22   8  23   8  24   8  25   8
M  ISO  3  26   8  27   8  28   8
M  END
>  <minimizedAffinity>  (1) 
-4.50523615

>  <minimizedRMSD>  (1) 
0.0642877519

$$$$
