
     RDKit          3D

 31 32  0  0  0  0  0  0  0  0999 V2000
   47.3190   34.4510   41.9950 C   0  0  0  0  0  0  0  0  0  0  0  0
   44.6690   36.0080   44.2430 C   0  0  0  0  0  0  0  0  0  0  0  0
   45.5070   35.8320   43.1120 C   0  0  0  0  0  0  0  0  0  0  0  0
   46.4030   34.7430   43.1010 C   0  0  0  0  0  0  0  0  0  0  0  0
   46.4070   33.9210   44.1870 N   0  0  0  0  0  0  0  0  0  0  0  0
   45.5920   34.1170   45.2560 C   0  0  0  0  0  0  0  0  0  0  0  0
   44.7290   35.1560   45.2790 N   0  0  0  0  0  0  0  0  0  0  0  0
   46.4620   34.2020   40.7620 C   0  0  0  0  0  0  0  0  0  0  0  0
   48.3430   35.4830   41.7290 C   0  0  0  0  0  0  0  0  0  0  0  0
   48.0280   33.1420   42.2970 C   0  0  0  0  0  0  0  0  0  0  0  0
   48.2850   32.4200   41.1300 O   0  0  0  0  0  0  0  0  0  0  0  0
   49.6010   32.1520   40.7810 C   0  0  0  0  0  0  0  0  0  0  0  0
   50.6240   32.4050   41.6340 N   0  0  0  0  0  0  0  0  0  0  0  0
   51.7440   32.0680   41.0700 O   0  0  0  0  0  0  0  0  0  0  0  0
   51.5290   31.5970   39.8730 C   0  0  0  0  0  0  0  0  0  0  0  0
   50.2080   31.6450   39.6840 N   0  0  0  0  0  0  0  0  0  0  0  0
   52.5470   31.1050   38.9050 C   0  0  0  0  0  0  0  0  0  0  0  0
   43.9629   36.8510   44.2715 H   0  0  0  0  0  0  0  0  0  0  0  0
   45.4590   36.5293   42.2626 H   0  0  0  0  0  0  0  0  0  0  0  0
   45.6351   33.4243   46.1094 H   0  0  0  0  0  0  0  0  0  0  0  0
   45.4488   33.9076   41.0731 H   0  0  0  0  0  0  0  0  0  0  0  0
   46.4083   35.1217   40.1609 H   0  0  0  0  0  0  0  0  0  0  0  0
   46.9095   33.3967   40.1609 H   0  0  0  0  0  0  0  0  0  0  0  0
   48.7285   35.8715   42.6832 H   0  0  0  0  0  0  0  0  0  0  0  0
   49.1689   35.0402   41.1529 H   0  0  0  0  0  0  0  0  0  0  0  0
   47.8938   36.3054   41.1529 H   0  0  0  0  0  0  0  0  0  0  0  0
   48.9815   33.3595   42.8004 H   0  0  0  0  0  0  0  0  0  0  0  0
   47.3750   32.5358   42.9420 H   0  0  0  0  0  0  0  0  0  0  0  0
   53.4050   30.6903   39.4543 H   0  0  0  0  0  0  0  0  0  0  0  0
   52.1033   30.3219   38.2726 H   0  0  0  0  0  0  0  0  0  0  0  0
   52.8850   31.9392   38.2726 H   0  0  0  0  0  0  0  0  0  0  0  0
  1 10  1  0
  1  4  1  0
  2  7  2  0
  3  2  1  0
  4  3  2  0
  4  5  1  0
  5  6  2  0
  6  7  1  0
  8  1  1  0
  9  1  1  0
 11 10  1  0
 12 11  1  0
 12 13  2  0
 14 13  1  0
 15 14  1  0
 16 15  2  0
 16 12  1  0
 17 15  1  0
  2 18  1  0
  3 19  1  0
  6 20  1  0
  8 21  1  0
  8 22  1  0
  8 23  1  0
  9 24  1  0
  9 25  1  0
  9 26  1  0
 10 27  1  0
 10 28  1  0
 17 29  1  0
 17 30  1  0
 17 31  1  0
M  ISO  8  18  14  19  14  20  14  21   8  22   8  23   8  24   8  25   8
M  ISO  6  26   8  27   8  28   8  29   8  30   8  31   8
M  END
>  <minimizedAffinity>  (1) 
-4.54006433

>  <minimizedRMSD>  (1) 
0.347357124

$$$$
