
     RDKit          3D

 35 37  0  0  0  0  0  0  0  0999 V2000
   47.6830   34.5070   41.8840 C   0  0  0  0  0  0  0  0  0  0  0  0
   44.8120   35.7870   44.0060 C   0  0  0  0  0  0  0  0  0  0  0  0
   45.7080   35.7020   42.9250 C   0  0  0  0  0  0  0  0  0  0  0  0
   46.6990   34.6910   42.9500 C   0  0  0  0  0  0  0  0  0  0  0  0
   46.7150   33.8650   44.0270 N   0  0  0  0  0  0  0  0  0  0  0  0
   45.8300   33.9830   45.0500 C   0  0  0  0  0  0  0  0  0  0  0  0
   44.8860   34.9310   45.0460 N   0  0  0  0  0  0  0  0  0  0  0  0
   46.9260   34.2390   40.5980 C   0  0  0  0  0  0  0  0  0  0  0  0
   48.6510   35.6130   41.6980 C   0  0  0  0  0  0  0  0  0  0  0  0
   48.4770   33.2530   42.1930 C   0  0  0  0  0  0  0  0  0  0  0  0
   48.6050   32.4330   41.0650 O   0  0  0  0  0  0  0  0  0  0  0  0
   49.8830   32.0770   40.6390 C   0  0  0  0  0  0  0  0  0  0  0  0
   50.9630   32.3330   41.3920 N   0  0  0  0  0  0  0  0  0  0  0  0
   52.0400   31.9110   40.7920 O   0  0  0  0  0  0  0  0  0  0  0  0
   51.7230   31.3720   39.6450 C   0  0  0  0  0  0  0  0  0  0  0  0
   50.3870   31.4760   39.5530 N   0  0  0  0  0  0  0  0  0  0  0  0
   52.5620   30.7540   38.6010 C   0  0  0  0  0  0  0  0  0  0  0  0
   53.6910   31.6530   38.0860 C   0  0  0  0  0  0  0  0  0  0  0  0
   54.0380   30.4830   38.9680 C   0  0  0  0  0  0  0  0  0  0  0  0
   44.0359   36.5666   44.0033 H   0  0  0  0  0  0  0  0  0  0  0  0
   45.6404   36.4039   42.0807 H   0  0  0  0  0  0  0  0  0  0  0  0
   45.8904   33.2856   45.8985 H   0  0  0  0  0  0  0  0  0  0  0  0
   45.9137   33.8806   40.8363 H   0  0  0  0  0  0  0  0  0  0  0  0
   46.8578   35.1676   40.0123 H   0  0  0  0  0  0  0  0  0  0  0  0
   47.4573   33.4743   40.0123 H   0  0  0  0  0  0  0  0  0  0  0  0
   48.9763   35.9847   42.6809 H   0  0  0  0  0  0  0  0  0  0  0  0
   49.5235   35.2462   41.1375 H   0  0  0  0  0  0  0  0  0  0  0  0
   48.1719   36.4293   41.1375 H   0  0  0  0  0  0  0  0  0  0  0  0
   49.4800   33.5420   42.5400 H   0  0  0  0  0  0  0  0  0  0  0  0
   47.9402   32.6885   42.9697 H   0  0  0  0  0  0  0  0  0  0  0  0
   51.7511   30.1547   38.1613 H   0  0  0  0  0  0  0  0  0  0  0  0
   53.9623   31.6338   37.0202 H   0  0  0  0  0  0  0  0  0  0  0  0
   53.8941   32.7335   38.1228 H   0  0  0  0  0  0  0  0  0  0  0  0
   54.3888   30.6554   39.9962 H   0  0  0  0  0  0  0  0  0  0  0  0
   54.7133   29.6190   38.8812 H   0  0  0  0  0  0  0  0  0  0  0  0
  1 10  1  0
  1  4  1  0
  2  7  2  0
  3  4  2  0
  3  2  1  0
  4  5  1  0
  5  6  2  0
  7  6  1  0
  8  1  1  0
  9  1  1  0
 11 10  1  0
 12 11  1  0
 12 13  2  0
 14 13  1  0
 15 14  1  0
 16 15  2  0
 16 12  1  0
 17 19  1  0
 17 15  1  0
 18 17  1  0
 18 19  1  0
  2 20  1  0
  3 21  1  0
  6 22  1  0
  8 23  1  0
  8 24  1  0
  8 25  1  0
  9 26  1  0
  9 27  1  0
  9 28  1  0
 10 29  1  0
 10 30  1  0
 17 31  1  0
 18 32  1  0
 18 33  1  0
 19 34  1  0
 19 35  1  0
M  ISO  8  20  14  21  14  22  14  23   8  24   8  25   8  26   8  27   8
M  ISO  8  28   8  29   8  30   8  31  13  32  13  33  13  34  13  35  13
M  END
>  <minimizedAffinity>  (1) 
-4.75864315

>  <minimizedRMSD>  (1) 
0.691791773

$$$$
