
     RDKit          3D

 43 46  0  0  0  0  0  0  0  0999 V2000
   47.8760   33.1170   42.2110 C   0  0  0  0  0  0  0  0  0  0  0  0
   47.1840   34.4550   41.9980 C   0  0  0  0  0  0  0  0  0  0  0  0
   44.6360   35.9520   44.3620 C   0  0  0  0  0  0  0  0  0  0  0  0
   45.4180   35.8070   43.1950 C   0  0  0  0  0  0  0  0  0  0  0  0
   46.3170   34.7150   43.1500 C   0  0  0  0  0  0  0  0  0  0  0  0
   46.3760   33.8820   44.2150 N   0  0  0  0  0  0  0  0  0  0  0  0
   45.6000   34.0680   45.3110 C   0  0  0  0  0  0  0  0  0  0  0  0
   44.7390   35.0950   45.3820 N   0  0  0  0  0  0  0  0  0  0  0  0
   46.2710   34.2340   40.7820 C   0  0  0  0  0  0  0  0  0  0  0  0
   48.2050   35.4620   41.7040 C   0  0  0  0  0  0  0  0  0  0  0  0
   48.3680   32.5800   41.0270 O   0  0  0  0  0  0  0  0  0  0  0  0
   49.7230   32.3070   40.9200 C   0  0  0  0  0  0  0  0  0  0  0  0
   50.6210   32.7450   41.8570 N   0  0  0  0  0  0  0  0  0  0  0  0
   51.8080   32.3570   41.5250 O   0  0  0  0  0  0  0  0  0  0  0  0
   51.7680   31.6740   40.4030 C   0  0  0  0  0  0  0  0  0  0  0  0
   50.4940   31.6440   40.0360 N   0  0  0  0  0  0  0  0  0  0  0  0
   52.8560   31.0990   39.7410 O   0  0  0  0  0  0  0  0  0  0  0  0
   52.6700   30.5720   38.4700 C   0  0  0  0  0  0  0  0  0  0  0  0
   51.5380   30.0780   37.8410 C   0  0  0  0  0  0  0  0  0  0  0  0
   51.8710   29.6800   36.6000 N   0  0  0  0  0  0  0  0  0  0  0  0
   53.1830   29.8960   36.3930 C   0  0  0  0  0  0  0  0  0  0  0  0
   53.8930   29.6230   35.2590 C   0  0  0  0  0  0  0  0  0  0  0  0
   55.2430   29.9130   35.2220 C   0  0  0  0  0  0  0  0  0  0  0  0
   55.8020   30.4730   36.3630 C   0  0  0  0  0  0  0  0  0  0  0  0
   55.0660   30.7430   37.5030 C   0  0  0  0  0  0  0  0  0  0  0  0
   53.7120   30.4520   37.5420 C   0  0  0  0  0  0  0  0  0  0  0  0
   48.7140   33.2600   42.9090 H   0  0  0  0  0  0  0  0  0  0  0  0
   47.1312   32.4147   42.6135 H   0  0  0  0  0  0  0  0  0  0  0  0
   43.9261   36.7893   44.4329 H   0  0  0  0  0  0  0  0  0  0  0  0
   45.3319   36.5133   42.3561 H   0  0  0  0  0  0  0  0  0  0  0  0
   45.6773   33.3666   46.1548 H   0  0  0  0  0  0  0  0  0  0  0  0
   45.2555   33.9882   41.1258 H   0  0  0  0  0  0  0  0  0  0  0  0
   46.2407   35.1507   40.1748 H   0  0  0  0  0  0  0  0  0  0  0  0
   46.6633   33.4049   40.1748 H   0  0  0  0  0  0  0  0  0  0  0  0
   48.6090   35.8605   42.6463 H   0  0  0  0  0  0  0  0  0  0  0  0
   49.0173   35.0016   41.1224 H   0  0  0  0  0  0  0  0  0  0  0  0
   47.7559   36.2806   41.1224 H   0  0  0  0  0  0  0  0  0  0  0  0
   50.5327   30.0208   38.2838 H   0  0  0  0  0  0  0  0  0  0  0  0
   51.2209   29.2721   35.9130 H   0  0  0  0  0  0  0  0  0  0  0  0
   53.3956   29.1773   34.3850 H   0  0  0  0  0  0  0  0  0  0  0  0
   55.8492   29.7091   34.3271 H   0  0  0  0  0  0  0  0  0  0  0  0
   56.8757   30.7121   36.3604 H   0  0  0  0  0  0  0  0  0  0  0  0
   55.5569   31.1896   38.3802 H   0  0  0  0  0  0  0  0  0  0  0  0
  2  1  1  0
  2  5  1  0
  3  8  2  0
  4  3  1  0
  5  4  2  0
  5  6  1  0
  6  7  2  0
  7  8  1  0
  9  2  1  0
 10  2  1  0
 11  1  1  0
 12 11  1  0
 12 13  2  0
 14 13  1  0
 15 14  1  0
 16 15  2  0
 16 12  1  0
 17 15  1  0
 18 17  1  0
 19 18  2  0
 20 19  1  0
 21 20  1  0
 21 26  2  0
 22 21  1  0
 23 22  2  0
 23 24  1  0
 24 25  2  0
 25 26  1  0
 26 18  1  0
  1 27  1  0
  1 28  1  0
  3 29  1  0
  4 30  1  0
  7 31  1  0
  9 32  1  0
  9 33  1  0
  9 34  1  0
 10 35  1  0
 10 36  1  0
 10 37  1  0
 19 38  1  0
 20 39  1  0
 22 40  1  0
 23 41  1  0
 24 42  1  0
 25 43  1  0
M  ISO  8  27   8  28   8  29  14  30  14  31  14  32   8  33   8  34   8
M  ISO  8  35   8  36   8  37   8  38  14  39   9  40  14  41  14  42  14
M  ISO  1  43  14
M  END
>  <minimizedAffinity>  (1) 
-5.30543709

>  <minimizedRMSD>  (1) 
0.80445087

$$$$
