
     RDKit          3D

 43 46  0  0  0  0  0  0  0  0999 V2000
   47.7790   33.1020   42.2750 C   0  0  0  0  0  0  0  0  0  0  0  0
   47.0990   34.4330   42.0310 C   0  0  0  0  0  0  0  0  0  0  0  0
   44.5990   36.0450   44.3900 C   0  0  0  0  0  0  0  0  0  0  0  0
   45.3740   35.8540   43.2260 C   0  0  0  0  0  0  0  0  0  0  0  0
   46.2460   34.7330   43.1850 C   0  0  0  0  0  0  0  0  0  0  0  0
   46.2810   33.9170   44.2630 N   0  0  0  0  0  0  0  0  0  0  0  0
   45.5130   34.1480   45.3570 C   0  0  0  0  0  0  0  0  0  0  0  0
   44.6850   35.1940   45.4210 N   0  0  0  0  0  0  0  0  0  0  0  0
   46.1890   34.2210   40.8250 C   0  0  0  0  0  0  0  0  0  0  0  0
   48.1510   35.4360   41.7400 C   0  0  0  0  0  0  0  0  0  0  0  0
   48.1970   32.5030   41.0950 O   0  0  0  0  0  0  0  0  0  0  0  0
   49.5430   32.2710   40.8820 C   0  0  0  0  0  0  0  0  0  0  0  0
   50.4870   32.6820   41.7850 N   0  0  0  0  0  0  0  0  0  0  0  0
   51.6600   32.3520   41.3640 O   0  0  0  0  0  0  0  0  0  0  0  0
   51.5720   31.7320   40.2130 C   0  0  0  0  0  0  0  0  0  0  0  0
   50.2650   31.6780   39.9110 N   0  0  0  0  0  0  0  0  0  0  0  0
   52.6350   31.2290   39.4620 O   0  0  0  0  0  0  0  0  0  0  0  0
   52.4040   30.8550   38.1530 C   0  0  0  0  0  0  0  0  0  0  0  0
   51.2250   30.7920   37.5210 N   0  0  0  0  0  0  0  0  0  0  0  0
   51.1730   30.4060   36.2350 C   0  0  0  0  0  0  0  0  0  0  0  0
   52.2790   30.0730   35.5390 N   0  0  0  0  0  0  0  0  0  0  0  0
   53.4980   30.1150   36.1140 C   0  0  0  0  0  0  0  0  0  0  0  0
   54.6170   29.7790   35.4100 C   0  0  0  0  0  0  0  0  0  0  0  0
   55.8640   29.8210   35.9950 C   0  0  0  0  0  0  0  0  0  0  0  0
   55.9590   30.2140   37.3210 C   0  0  0  0  0  0  0  0  0  0  0  0
   54.8210   30.5510   38.0190 C   0  0  0  0  0  0  0  0  0  0  0  0
   53.5550   30.5150   37.4440 C   0  0  0  0  0  0  0  0  0  0  0  0
   48.6554   33.2648   42.9195 H   0  0  0  0  0  0  0  0  0  0  0  0
   47.0491   32.4325   42.7536 H   0  0  0  0  0  0  0  0  0  0  0  0
   43.9151   36.9043   44.4514 H   0  0  0  0  0  0  0  0  0  0  0  0
   45.3051   36.5508   42.3776 H   0  0  0  0  0  0  0  0  0  0  0  0
   45.5736   33.4578   46.2113 H   0  0  0  0  0  0  0  0  0  0  0  0
   45.1718   33.9840   41.1703 H   0  0  0  0  0  0  0  0  0  0  0  0
   46.1657   35.1378   40.2176 H   0  0  0  0  0  0  0  0  0  0  0  0
   46.5733   33.3883   40.2176 H   0  0  0  0  0  0  0  0  0  0  0  0
   48.5586   35.8246   42.6849 H   0  0  0  0  0  0  0  0  0  0  0  0
   48.9573   34.9638   41.1596 H   0  0  0  0  0  0  0  0  0  0  0  0
   47.7178   36.2639   41.1596 H   0  0  0  0  0  0  0  0  0  0  0  0
   50.1953   30.3601   35.7330 H   0  0  0  0  0  0  0  0  0  0  0  0
   54.5225   29.4696   34.3586 H   0  0  0  0  0  0  0  0  0  0  0  0
   56.7633   29.5489   35.4230 H   0  0  0  0  0  0  0  0  0  0  0  0
   56.9412   30.2565   37.8144 H   0  0  0  0  0  0  0  0  0  0  0  0
   54.9166   30.8602   39.0703 H   0  0  0  0  0  0  0  0  0  0  0  0
  2  1  1  0
  2  5  1  0
  3  8  2  0
  4  3  1  0
  5  4  2  0
  5  6  1  0
  6  7  2  0
  7  8  1  0
  9  2  1  0
 10  2  1  0
 11  1  1  0
 12 11  1  0
 12 13  2  0
 14 13  1  0
 15 14  1  0
 16 15  2  0
 16 12  1  0
 17 15  1  0
 18 17  1  0
 19 18  2  0
 20 19  1  0
 21 22  1  0
 21 20  2  0
 22 27  2  0
 23 24  2  0
 23 22  1  0
 24 25  1  0
 25 26  2  0
 27 26  1  0
 27 18  1  0
  1 28  1  0
  1 29  1  0
  3 30  1  0
  4 31  1  0
  7 32  1  0
  9 33  1  0
  9 34  1  0
  9 35  1  0
 10 36  1  0
 10 37  1  0
 10 38  1  0
 20 39  1  0
 23 40  1  0
 24 41  1  0
 25 42  1  0
 26 43  1  0
M  ISO  8  28   8  29   8  30  14  31  14  32  14  33   8  34   8  35   8
M  ISO  8  36   8  37   8  38   8  39  14  40  14  41  14  42  14  43  14
M  END
>  <minimizedAffinity>  (1) 
-5.4560051

>  <minimizedRMSD>  (1) 
0.827901363

$$$$
