
     RDKit          3D

 40 42  0  0  0  0  0  0  0  0999 V2000
   45.9090   34.1010   41.5330 C   0  0  0  0  0  0  0  0  0  0  0  0
   46.6940   34.7620   42.6520 C   0  0  0  0  0  0  0  0  0  0  0  0
   45.7150   34.3120   44.8850 C   0  0  0  0  0  0  0  0  0  0  0  0
   46.6090   33.9180   43.8620 C   0  0  0  0  0  0  0  0  0  0  0  0
   47.3270   32.7570   44.1040 C   0  0  0  0  0  0  0  0  0  0  0  0
   47.1580   32.0750   45.2500 N   0  0  0  0  0  0  0  0  0  0  0  0
   46.2940   32.4910   46.1960 C   0  0  0  0  0  0  0  0  0  0  0  0
   45.5640   33.6200   46.0130 N   0  0  0  0  0  0  0  0  0  0  0  0
   48.1290   34.9510   42.2550 C   0  0  0  0  0  0  0  0  0  0  0  0
   46.0710   36.0940   42.9190 C   0  0  0  0  0  0  0  0  0  0  0  0
   44.7980   33.4870   42.0910 O   0  0  0  0  0  0  0  0  0  0  0  0
   43.5490   33.9040   41.6920 C   0  0  0  0  0  0  0  0  0  0  0  0
   43.0530   35.1620   41.9850 C   0  0  0  0  0  0  0  0  0  0  0  0
   41.7760   35.2390   41.4330 C   0  0  0  0  0  0  0  0  0  0  0  0
   41.5360   34.0530   40.8340 N   0  0  0  0  0  0  0  0  0  0  0  0
   42.5840   33.2500   40.9820 N   0  0  0  0  0  0  0  0  0  0  0  0
   40.2950   33.8090   40.1670 C   0  0  0  0  0  0  0  0  0  0  0  0
   39.0580   33.6330   40.7850 C   0  0  0  0  0  0  0  0  0  0  0  0
   38.0840   33.4230   39.8130 C   0  0  0  0  0  0  0  0  0  0  0  0
   38.7480   33.4780   38.6570 N   0  0  0  0  0  0  0  0  0  0  0  0
   40.0630   33.7070   38.8550 N   0  0  0  0  0  0  0  0  0  0  0  0
   38.2370   33.3250   37.3020 C   0  0  0  0  0  0  0  0  0  0  0  0
   36.8760   33.6040   37.2820 F   0  0  0  0  0  0  0  0  0  0  0  0
   38.9630   34.1190   36.4660 F   0  0  0  0  0  0  0  0  0  0  0  0
   38.3820   31.9920   36.9190 F   0  0  0  0  0  0  0  0  0  0  0  0
   46.5366   33.3505   41.0301 H   0  0  0  0  0  0  0  0  0  0  0  0
   45.5976   34.8511   40.7911 H   0  0  0  0  0  0  0  0  0  0  0  0
   45.1206   35.2267   44.7432 H   0  0  0  0  0  0  0  0  0  0  0  0
   48.0411   32.3907   43.3518 H   0  0  0  0  0  0  0  0  0  0  0  0
   46.1794   31.9112   47.1237 H   0  0  0  0  0  0  0  0  0  0  0  0
   48.7516   35.0330   43.1582 H   0  0  0  0  0  0  0  0  0  0  0  0
   48.4609   34.0888   41.6579 H   0  0  0  0  0  0  0  0  0  0  0  0
   48.2263   35.8697   41.6579 H   0  0  0  0  0  0  0  0  0  0  0  0
   45.9967   36.2530   44.0049 H   0  0  0  0  0  0  0  0  0  0  0  0
   46.6925   36.8852   42.4743 H   0  0  0  0  0  0  0  0  0  0  0  0
   45.0653   36.1242   42.4743 H   0  0  0  0  0  0  0  0  0  0  0  0
   43.5699   35.9530   42.5481 H   0  0  0  0  0  0  0  0  0  0  0  0
   41.0940   36.1009   41.4768 H   0  0  0  0  0  0  0  0  0  0  0  0
   38.8796   33.6564   41.8702 H   0  0  0  0  0  0  0  0  0  0  0  0
   37.0082   33.2504   39.9640 H   0  0  0  0  0  0  0  0  0  0  0  0
  1 11  1  0
  1  2  1  0
  2 10  1  0
  2  4  1  0
  3  8  2  0
  4  5  2  0
  4  3  1  0
  5  6  1  0
  6  7  2  0
  8  7  1  0
  9  2  1  0
 12 13  1  0
 12 11  1  0
 14 13  2  0
 15 16  1  0
 15 14  1  0
 16 12  2  0
 17 18  1  0
 17 15  1  0
 19 18  2  0
 20 21  1  0
 20 19  1  0
 21 17  2  0
 22 20  1  0
 23 22  1  0
 24 22  1  0
 25 22  1  0
  1 26  1  0
  1 27  1  0
  3 28  1  0
  5 29  1  0
  7 30  1  0
  9 31  1  0
  9 32  1  0
  9 33  1  0
 10 34  1  0
 10 35  1  0
 10 36  1  0
 13 37  1  0
 14 38  1  0
 18 39  1  0
 19 40  1  0
M  ISO  8  26   8  27   8  28  14  29  14  30  14  31   8  32   8  33   8
M  ISO  7  34   8  35   8  36   8  37  14  38  14  39  14  40  14
M  END
>  <minimizedAffinity>  (1) 
-5.33075762

>  <minimizedRMSD>  (1) 
1.07547176

$$$$
