
     RDKit          3D

 41 43  0  0  1  0  0  0  0  0999 V2000
   47.6920   34.4930   41.8990 C   0  0  0  0  0  0  0  0  0  0  0  0
   44.8100   35.7820   44.0040 C   0  0  0  0  0  0  0  0  0  0  0  0
   45.7130   35.6970   42.9220 C   0  0  0  0  0  0  0  0  0  0  0  0
   46.7030   34.6860   42.9520 C   0  0  0  0  0  0  0  0  0  0  0  0
   46.7200   33.8540   44.0340 N   0  0  0  0  0  0  0  0  0  0  0  0
   45.8240   33.9850   45.0460 C   0  0  0  0  0  0  0  0  0  0  0  0
   44.8900   34.9300   45.0310 N   0  0  0  0  0  0  0  0  0  0  0  0
   46.9390   34.1880   40.6050 C   0  0  0  0  0  0  0  0  0  0  0  0
   48.6450   35.6110   41.7120 C   0  0  0  0  0  0  0  0  0  0  0  0
   48.5000   33.2430   42.2190 C   0  0  0  0  0  0  0  0  0  0  0  0
   48.6170   32.4030   41.1170 O   0  0  0  0  0  0  0  0  0  0  0  0
   49.8640   32.0920   40.6260 C   0  0  0  0  0  0  0  0  0  0  0  0
   50.9790   32.2340   41.4000 N   0  0  0  0  0  0  0  0  0  0  0  0
   52.0210   31.8790   40.7190 O   0  0  0  0  0  0  0  0  0  0  0  0
   51.6890   31.5000   39.5150 C   0  0  0  0  0  0  0  0  0  0  0  0
   50.3680   31.6310   39.4580 N   0  0  0  0  0  0  0  0  0  0  0  0
   52.5270   31.0530   38.4980 O   0  0  0  0  0  0  0  0  0  0  0  0
   54.1230   29.4080   39.1140 N   0  0  0  0  0  0  0  0  0  0  0  0
   55.5810   29.2900   38.9610 C   0  0  0  0  0  0  0  0  0  0  0  0
   55.8730   30.0860   37.7020 C   0  0  0  0  0  0  0  0  0  0  0  0
   54.6530   30.9530   37.4690 C   0  0  0  0  0  0  0  0  0  0  0  0
   53.8910   30.7860   38.7660 C   0  0  1  0  0  0  0  0  0  0  0  0
   44.0311   36.5588   44.0019 H   0  0  0  0  0  0  0  0  0  0  0  0
   45.6487   36.3986   42.0773 H   0  0  0  0  0  0  0  0  0  0  0  0
   45.8726   33.2920   45.8989 H   0  0  0  0  0  0  0  0  0  0  0  0
   45.9442   33.7851   40.8459 H   0  0  0  0  0  0  0  0  0  0  0  0
   46.8282   35.1121   40.0187 H   0  0  0  0  0  0  0  0  0  0  0  0
   47.5025   33.4472   40.0187 H   0  0  0  0  0  0  0  0  0  0  0  0
   48.9659   35.9875   42.6945 H   0  0  0  0  0  0  0  0  0  0  0  0
   49.5220   35.2553   41.1513 H   0  0  0  0  0  0  0  0  0  0  0  0
   48.1550   36.4206   41.1513 H   0  0  0  0  0  0  0  0  0  0  0  0
   49.5066   33.5443   42.5445 H   0  0  0  0  0  0  0  0  0  0  0  0
   47.9740   32.6919   43.0125 H   0  0  0  0  0  0  0  0  0  0  0  0
   53.6276   28.7724   38.4726 H   0  0  0  0  0  0  0  0  0  0  0  0
   56.1031   29.7208   39.8281 H   0  0  0  0  0  0  0  0  0  0  0  0
   55.9209   28.2459   38.8952 H   0  0  0  0  0  0  0  0  0  0  0  0
   56.7664   30.7120   37.8433 H   0  0  0  0  0  0  0  0  0  0  0  0
   56.0712   29.4273   36.8436 H   0  0  0  0  0  0  0  0  0  0  0  0
   54.9354   32.0033   37.3045 H   0  0  0  0  0  0  0  0  0  0  0  0
   54.0743   30.6712   36.5770 H   0  0  0  0  0  0  0  0  0  0  0  0
   54.1952   31.4552   39.5844 H   0  0  0  0  0  0  0  0  0  0  0  0
  1 10  1  0
  1  4  1  0
  2  7  2  0
  3  4  2  0
  3  2  1  0
  4  5  1  0
  5  6  2  0
  7  6  1  0
  8  1  1  0
  9  1  1  0
 11 10  1  0
 12 11  1  0
 12 13  2  0
 14 13  1  0
 15 14  1  0
 16 15  2  0
 16 12  1  0
 17 15  1  0
 19 18  1  0
 20 19  1  0
 21 20  1  0
 21 22  1  0
 22 17  1  0
 22 18  1  0
  2 23  1  0
  3 24  1  0
  6 25  1  0
  8 26  1  0
  8 27  1  0
  8 28  1  0
  9 29  1  0
  9 30  1  0
  9 31  1  0
 10 32  1  0
 10 33  1  0
 18 34  1  0
 19 35  1  0
 19 36  1  0
 20 37  1  0
 20 38  1  0
 21 39  1  0
 21 40  1  0
 22 41  1  1
M  ISO  8  23  14  24  14  25  14  26   8  27   8  28   8  29   8  30   8
M  ISO  8  31   8  32   8  33   8  34   5  35  13  36  13  37  13  38  13
M  ISO  3  39  13  40  13  41  13
M  END
>  <minimizedAffinity>  (1) 
-4.89833927

>  <minimizedRMSD>  (1) 
0.951962292

$$$$
