
     RDKit          3D

 36 38  0  0  0  0  0  0  0  0999 V2000
   47.2070   34.4200   42.0190 C   0  0  0  0  0  0  0  0  0  0  0  0
   44.6560   35.9870   44.3440 C   0  0  0  0  0  0  0  0  0  0  0  0
   45.4480   35.8080   43.2000 C   0  0  0  0  0  0  0  0  0  0  0  0
   46.3350   34.7020   43.1610 C   0  0  0  0  0  0  0  0  0  0  0  0
   46.3650   33.8810   44.2340 N   0  0  0  0  0  0  0  0  0  0  0  0
   45.5790   34.0950   45.3200 C   0  0  0  0  0  0  0  0  0  0  0  0
   44.7360   35.1360   45.3710 N   0  0  0  0  0  0  0  0  0  0  0  0
   46.3200   34.2070   40.7970 C   0  0  0  0  0  0  0  0  0  0  0  0
   48.2380   35.4400   41.7310 C   0  0  0  0  0  0  0  0  0  0  0  0
   47.9060   33.0920   42.2730 C   0  0  0  0  0  0  0  0  0  0  0  0
   47.8460   32.2510   41.1670 O   0  0  0  0  0  0  0  0  0  0  0  0
   49.0000   32.0530   40.4220 C   0  0  0  0  0  0  0  0  0  0  0  0
   50.1740   31.6920   40.9830 N   0  0  0  0  0  0  0  0  0  0  0  0
   51.0700   31.5790   40.0620 O   0  0  0  0  0  0  0  0  0  0  0  0
   50.5730   31.8450   38.8750 C   0  0  0  0  0  0  0  0  0  0  0  0
   49.2990   32.1360   39.1050 N   0  0  0  0  0  0  0  0  0  0  0  0
   51.2160   31.8320   37.6520 O   0  0  0  0  0  0  0  0  0  0  0  0
   52.4720   31.2740   37.5040 C   0  0  0  0  0  0  0  0  0  0  0  0
   52.7450   30.0790   36.8720 C   0  0  0  0  0  0  0  0  0  0  0  0
   54.1250   29.9700   36.9900 C   0  0  0  0  0  0  0  0  0  0  0  0
   54.6140   31.0440   37.6520 N   0  0  0  0  0  0  0  0  0  0  0  0
   53.6030   31.8260   37.9580 N   0  0  0  0  0  0  0  0  0  0  0  0
   43.9609   36.8380   44.3962 H   0  0  0  0  0  0  0  0  0  0  0  0
   45.3827   36.5082   42.3541 H   0  0  0  0  0  0  0  0  0  0  0  0
   45.6348   33.4023   46.1727 H   0  0  0  0  0  0  0  0  0  0  0  0
   45.2986   33.9617   41.1236 H   0  0  0  0  0  0  0  0  0  0  0  0
   46.3011   35.1261   40.1930 H   0  0  0  0  0  0  0  0  0  0  0  0
   46.7205   33.3795   40.1930 H   0  0  0  0  0  0  0  0  0  0  0  0
   48.6373   35.8350   42.6768 H   0  0  0  0  0  0  0  0  0  0  0  0
   49.0535   34.9834   41.1510 H   0  0  0  0  0  0  0  0  0  0  0  0
   47.7902   36.2604   41.1510 H   0  0  0  0  0  0  0  0  0  0  0  0
   48.9614   33.2868   42.5140 H   0  0  0  0  0  0  0  0  0  0  0  0
   47.3925   32.5923   43.1077 H   0  0  0  0  0  0  0  0  0  0  0  0
   52.0420   29.3824   36.3919 H   0  0  0  0  0  0  0  0  0  0  0  0
   54.7292   29.1360   36.6034 H   0  0  0  0  0  0  0  0  0  0  0  0
   55.6041   31.2180   37.8765 H   0  0  0  0  0  0  0  0  0  0  0  0
  1 10  1  0
  1  4  1  0
  2  7  2  0
  3  2  1  0
  4  3  2  0
  4  5  1  0
  5  6  2  0
  6  7  1  0
  8  1  1  0
  9  1  1  0
 11 10  1  0
 12 13  2  0
 12 11  1  0
 14 13  1  0
 15 16  2  0
 15 14  1  0
 16 12  1  0
 17 15  1  0
 18 17  1  0
 18 22  2  0
 19 20  2  0
 19 18  1  0
 20 21  1  0
 21 22  1  0
  2 23  1  0
  3 24  1  0
  6 25  1  0
  8 26  1  0
  8 27  1  0
  8 28  1  0
  9 29  1  0
  9 30  1  0
  9 31  1  0
 10 32  1  0
 10 33  1  0
 19 34  1  0
 20 35  1  0
 21 36  1  0
M  ISO  8  23  14  24  14  25  14  26   8  27   8  28   8  29   8  30   8
M  ISO  6  31   8  32   8  33   8  34  14  35  14  36   9
M  END
>  <minimizedAffinity>  (1) 
-4.73737621

>  <minimizedRMSD>  (1) 
1.75854981

$$$$
