
     RDKit          3D

 44 46  0  0  0  0  0  0  0  0999 V2000
   47.3730   34.4310   42.0290 C   0  0  0  0  0  0  0  0  0  0  0  0
   44.6840   35.9990   44.2060 C   0  0  0  0  0  0  0  0  0  0  0  0
   45.5400   35.8160   43.1010 C   0  0  0  0  0  0  0  0  0  0  0  0
   46.4390   34.7250   43.1120 C   0  0  0  0  0  0  0  0  0  0  0  0
   46.4270   33.9130   44.1950 N   0  0  0  0  0  0  0  0  0  0  0  0
   45.5880   34.1240   45.2380 C   0  0  0  0  0  0  0  0  0  0  0  0
   44.7280   35.1580   45.2390 N   0  0  0  0  0  0  0  0  0  0  0  0
   46.5330   34.1710   40.7750 C   0  0  0  0  0  0  0  0  0  0  0  0
   48.3860   35.4730   41.7410 C   0  0  0  0  0  0  0  0  0  0  0  0
   48.0850   33.1360   42.3310 C   0  0  0  0  0  0  0  0  0  0  0  0
   48.2980   32.3770   41.1760 O   0  0  0  0  0  0  0  0  0  0  0  0
   49.6010   32.1390   40.7620 C   0  0  0  0  0  0  0  0  0  0  0  0
   50.6630   32.2800   41.6140 N   0  0  0  0  0  0  0  0  0  0  0  0
   51.7570   32.0020   40.9910 O   0  0  0  0  0  0  0  0  0  0  0  0
   51.5000   31.6740   39.7480 C   0  0  0  0  0  0  0  0  0  0  0  0
   50.1830   31.7570   39.6040 N   0  0  0  0  0  0  0  0  0  0  0  0
   52.4040   31.3060   38.7500 O   0  0  0  0  0  0  0  0  0  0  0  0
   55.2370   28.2610   39.1760 N   0  0  0  0  0  0  0  0  0  0  0  0
   55.6280   29.5410   38.6490 C   0  0  0  0  0  0  0  0  0  0  0  0
   54.4620   30.2570   37.9790 C   0  0  0  0  0  0  0  0  0  0  0  0
   53.4150   30.4130   39.0860 C   0  0  0  0  0  0  0  0  0  0  0  0
   52.9510   29.0200   39.4140 C   0  0  0  0  0  0  0  0  0  0  0  0
   54.1230   28.3090   40.0710 C   0  0  0  0  0  0  0  0  0  0  0  0
   43.9758   36.8406   44.2157 H   0  0  0  0  0  0  0  0  0  0  0  0
   45.5090   36.5085   42.2469 H   0  0  0  0  0  0  0  0  0  0  0  0
   45.6107   33.4384   46.0979 H   0  0  0  0  0  0  0  0  0  0  0  0
   45.5207   33.8577   41.0702 H   0  0  0  0  0  0  0  0  0  0  0  0
   46.4719   35.0923   40.1771 H   0  0  0  0  0  0  0  0  0  0  0  0
   47.0030   33.3763   40.1771 H   0  0  0  0  0  0  0  0  0  0  0  0
   48.7772   35.8754   42.6870 H   0  0  0  0  0  0  0  0  0  0  0  0
   49.2104   35.0326   41.1611 H   0  0  0  0  0  0  0  0  0  0  0  0
   47.9225   36.2847   41.1611 H   0  0  0  0  0  0  0  0  0  0  0  0
   49.0577   33.3638   42.7914 H   0  0  0  0  0  0  0  0  0  0  0  0
   47.4516   32.5494   43.0127 H   0  0  0  0  0  0  0  0  0  0  0  0
   56.0403   27.8613   39.6818 H   0  0  0  0  0  0  0  0  0  0  0  0
   56.0034   30.1657   39.4729 H   0  0  0  0  0  0  0  0  0  0  0  0
   56.4082   29.3751   37.8915 H   0  0  0  0  0  0  0  0  0  0  0  0
   54.7764   31.2409   37.6008 H   0  0  0  0  0  0  0  0  0  0  0  0
   54.0733   29.7005   37.1134 H   0  0  0  0  0  0  0  0  0  0  0  0
   53.8402   30.8784   39.9874 H   0  0  0  0  0  0  0  0  0  0  0  0
   52.0961   29.0587   40.1051 H   0  0  0  0  0  0  0  0  0  0  0  0
   52.6257   28.4890   38.5072 H   0  0  0  0  0  0  0  0  0  0  0  0
   53.8243   27.2836   40.3345 H   0  0  0  0  0  0  0  0  0  0  0  0
   54.4145   28.8602   40.9772 H   0  0  0  0  0  0  0  0  0  0  0  0
  1 10  1  0
  1  4  1  0
  2  7  2  0
  3  4  2  0
  3  2  1  0
  4  5  1  0
  5  6  2  0
  6  7  1  0
  8  1  1  0
  9  1  1  0
 11 10  1  0
 12 11  1  0
 12 13  2  0
 14 13  1  0
 15 14  1  0
 16 15  2  0
 16 12  1  0
 17 21  1  0
 17 15  1  0
 18 23  1  0
 19 18  1  0
 20 19  1  0
 20 21  1  0
 21 22  1  0
 22 23  1  0
  2 24  1  0
  3 25  1  0
  6 26  1  0
  8 27  1  0
  8 28  1  0
  8 29  1  0
  9 30  1  0
  9 31  1  0
  9 32  1  0
 10 33  1  0
 10 34  1  0
 18 35  1  0
 19 36  1  0
 19 37  1  0
 20 38  1  0
 20 39  1  0
 21 40  1  0
 22 41  1  0
 22 42  1  0
 23 43  1  0
 23 44  1  0
M  ISO  8  24  14  25  14  26  14  27   8  28   8  29   8  30   8  31   8
M  ISO  8  32   8  33   8  34   8  35   5  36  13  37  13  38  13  39  13
M  ISO  5  40  13  41  13  42  13  43  13  44  13
M  END
>  <minimizedAffinity>  (1) 
-4.5883646

>  <minimizedRMSD>  (1) 
1.30549943

$$$$
