
     RDKit          3D

 32 33  0  0  0  0  0  0  0  0999 V2000
   47.7530   34.5250   41.8760 C   0  0  0  0  0  0  0  0  0  0  0  0
   44.8370   35.7500   43.9730 C   0  0  0  0  0  0  0  0  0  0  0  0
   45.7390   35.6930   42.8910 C   0  0  0  0  0  0  0  0  0  0  0  0
   46.7450   34.6930   42.9390 C   0  0  0  0  0  0  0  0  0  0  0  0
   46.7800   33.8630   44.0040 N   0  0  0  0  0  0  0  0  0  0  0  0
   45.8930   33.9580   45.0140 C   0  0  0  0  0  0  0  0  0  0  0  0
   44.9310   34.8890   45.0050 N   0  0  0  0  0  0  0  0  0  0  0  0
   47.0100   34.2710   40.5770 C   0  0  0  0  0  0  0  0  0  0  0  0
   48.6850   35.6690   41.7180 C   0  0  0  0  0  0  0  0  0  0  0  0
   48.5700   33.2960   42.1800 C   0  0  0  0  0  0  0  0  0  0  0  0
   48.6340   32.4320   41.0860 O   0  0  0  0  0  0  0  0  0  0  0  0
   49.8840   32.0200   40.6380 C   0  0  0  0  0  0  0  0  0  0  0  0
   51.0300   32.3360   41.3070 N   0  0  0  0  0  0  0  0  0  0  0  0
   52.0340   31.8260   40.6710 O   0  0  0  0  0  0  0  0  0  0  0  0
   51.6590   31.1800   39.6080 C   0  0  0  0  0  0  0  0  0  0  0  0
   50.3260   31.2960   39.5820 N   0  0  0  0  0  0  0  0  0  0  0  0
   52.4220   30.5050   38.6760 O   0  0  0  0  0  0  0  0  0  0  0  0
   53.8170   30.7220   38.6660 C   0  0  0  0  0  0  0  0  0  0  0  0
   54.3220   30.4640   39.9150 F   0  0  0  0  0  0  0  0  0  0  0  0
   54.3480   29.9060   37.6790 F   0  0  0  0  0  0  0  0  0  0  0  0
   54.0510   32.0520   38.3570 F   0  0  0  0  0  0  0  0  0  0  0  0
   44.0425   36.5108   43.9747 H   0  0  0  0  0  0  0  0  0  0  0  0
   45.6662   36.3934   42.0459 H   0  0  0  0  0  0  0  0  0  0  0  0
   45.9605   33.2586   45.8603 H   0  0  0  0  0  0  0  0  0  0  0  0
   45.9907   33.9225   40.7997 H   0  0  0  0  0  0  0  0  0  0  0  0
   46.9599   35.2030   39.9950 H   0  0  0  0  0  0  0  0  0  0  0  0
   47.5410   33.5033   39.9950 H   0  0  0  0  0  0  0  0  0  0  0  0
   48.9850   36.0373   42.7102 H   0  0  0  0  0  0  0  0  0  0  0  0
   49.5767   35.3416   41.1634 H   0  0  0  0  0  0  0  0  0  0  0  0
   48.1841   36.4761   41.1634 H   0  0  0  0  0  0  0  0  0  0  0  0
   49.5907   33.6049   42.4499 H   0  0  0  0  0  0  0  0  0  0  0  0
   48.0861   32.7608   43.0103 H   0  0  0  0  0  0  0  0  0  0  0  0
  1 10  1  0
  1  4  1  0
  2  7  2  0
  3  4  2  0
  3  2  1  0
  4  5  1  0
  5  6  2  0
  7  6  1  0
  8  1  1  0
  9  1  1  0
 11 10  1  0
 12 11  1  0
 12 13  2  0
 14 13  1  0
 15 14  1  0
 16 15  2  0
 16 12  1  0
 17 15  1  0
 18 17  1  0
 18 19  1  0
 20 18  1  0
 21 18  1  0
  2 22  1  0
  3 23  1  0
  6 24  1  0
  8 25  1  0
  8 26  1  0
  8 27  1  0
  9 28  1  0
  9 29  1  0
  9 30  1  0
 10 31  1  0
 10 32  1  0
M  ISO  8  22  14  23  14  24  14  25   8  26   8  27   8  28   8  29   8
M  ISO  3  30   8  31   8  32   8
M  END
>  <minimizedAffinity>  (1) 
-4.62633562

>  <minimizedRMSD>  (1) 
0.989885092

$$$$
