
     RDKit          3D

 38 39  0  0  0  0  0  0  0  0999 V2000
   47.1450   34.4620   42.0720 C   0  0  0  0  0  0  0  0  0  0  0  0
   44.5960   36.0830   44.3660 C   0  0  0  0  0  0  0  0  0  0  0  0
   45.4020   35.8780   43.2290 C   0  0  0  0  0  0  0  0  0  0  0  0
   46.2660   34.7730   43.1960 C   0  0  0  0  0  0  0  0  0  0  0  0
   46.2760   33.9560   44.2790 N   0  0  0  0  0  0  0  0  0  0  0  0
   45.4880   34.1800   45.3610 C   0  0  0  0  0  0  0  0  0  0  0  0
   44.6610   35.2280   45.4030 N   0  0  0  0  0  0  0  0  0  0  0  0
   46.2510   34.2260   40.8550 C   0  0  0  0  0  0  0  0  0  0  0  0
   48.1840   35.4550   41.7700 C   0  0  0  0  0  0  0  0  0  0  0  0
   47.8210   33.1300   42.3360 C   0  0  0  0  0  0  0  0  0  0  0  0
   48.0620   32.4000   41.1850 O   0  0  0  0  0  0  0  0  0  0  0  0
   49.3630   32.1020   40.8290 C   0  0  0  0  0  0  0  0  0  0  0  0
   50.4250   32.5150   41.5840 N   0  0  0  0  0  0  0  0  0  0  0  0
   51.5230   32.1070   41.0310 O   0  0  0  0  0  0  0  0  0  0  0  0
   51.2770   31.4320   39.9330 C   0  0  0  0  0  0  0  0  0  0  0  0
   49.9460   31.4310   39.8100 N   0  0  0  0  0  0  0  0  0  0  0  0
   52.1770   30.8400   39.0680 O   0  0  0  0  0  0  0  0  0  0  0  0
   53.5450   31.1210   39.2040 C   0  0  0  0  0  0  0  0  0  0  0  0
   54.1740   29.9050   39.8550 C   0  0  0  0  0  0  0  0  0  0  0  0
   54.1350   31.4080   37.8550 C   0  0  0  0  0  0  0  0  0  0  0  0
   43.9122   36.9437   44.4062 H   0  0  0  0  0  0  0  0  0  0  0  0
   45.3547   36.5745   42.3789 H   0  0  0  0  0  0  0  0  0  0  0  0
   45.5310   33.4887   46.2155 H   0  0  0  0  0  0  0  0  0  0  0  0
   45.2381   33.9586   41.1904 H   0  0  0  0  0  0  0  0  0  0  0  0
   46.2065   35.1432   40.2493 H   0  0  0  0  0  0  0  0  0  0  0  0
   46.6650   33.4064   40.2493 H   0  0  0  0  0  0  0  0  0  0  0  0
   48.5976   35.8503   42.7095 H   0  0  0  0  0  0  0  0  0  0  0  0
   48.9869   34.9800   41.1871 H   0  0  0  0  0  0  0  0  0  0  0  0
   47.7458   36.2785   41.1871 H   0  0  0  0  0  0  0  0  0  0  0  0
   48.7819   33.3195   42.8367 H   0  0  0  0  0  0  0  0  0  0  0  0
   47.1376   32.5363   42.9608 H   0  0  0  0  0  0  0  0  0  0  0  0
   53.7277   32.0101   39.8253 H   0  0  0  0  0  0  0  0  0  0  0  0
   54.1215   30.0065   40.9491 H   0  0  0  0  0  0  0  0  0  0  0  0
   53.6307   29.0004   39.5442 H   0  0  0  0  0  0  0  0  0  0  0  0
   55.2262   29.8257   39.5442 H   0  0  0  0  0  0  0  0  0  0  0  0
   55.1179   31.8861   37.9789 H   0  0  0  0  0  0  0  0  0  0  0  0
   54.2528   30.4665   37.2985 H   0  0  0  0  0  0  0  0  0  0  0  0
   53.4670   32.0818   37.2985 H   0  0  0  0  0  0  0  0  0  0  0  0
  1 10  1  0
  1  4  1  0
  2  7  2  0
  3  2  1  0
  4  3  2  0
  4  5  1  0
  5  6  2  0
  6  7  1  0
  8  1  1  0
  9  1  1  0
 11 10  1  0
 12 11  1  0
 12 13  2  0
 14 13  1  0
 15 14  1  0
 16 15  2  0
 16 12  1  0
 17 18  1  0
 17 15  1  0
 18 19  1  0
 20 18  1  0
  2 21  1  0
  3 22  1  0
  6 23  1  0
  8 24  1  0
  8 25  1  0
  8 26  1  0
  9 27  1  0
  9 28  1  0
  9 29  1  0
 10 30  1  0
 10 31  1  0
 18 32  1  0
 19 33  1  0
 19 34  1  0
 19 35  1  0
 20 36  1  0
 20 37  1  0
 20 38  1  0
M  ISO  8  21  14  22  14  23  14  24   8  25   8  26   8  27   8  28   8
M  ISO  8  29   8  30   8  31   8  32   8  33   8  34   8  35   8  36   8
M  ISO  2  37   8  38   8
M  END
>  <minimizedAffinity>  (1) 
-4.68327665

>  <minimizedRMSD>  (1) 
0.375159681

$$$$
