
     RDKit          3D

 34 36  0  0  0  0  0  0  0  0999 V2000
   47.1830   34.4350   42.0220 C   0  0  0  0  0  0  0  0  0  0  0  0
   44.6350   35.9770   44.3760 C   0  0  0  0  0  0  0  0  0  0  0  0
   45.4230   35.8080   43.2210 C   0  0  0  0  0  0  0  0  0  0  0  0
   46.3100   34.7250   43.1620 C   0  0  0  0  0  0  0  0  0  0  0  0
   46.3580   33.8910   44.2340 N   0  0  0  0  0  0  0  0  0  0  0  0
   45.5830   34.0840   45.3360 C   0  0  0  0  0  0  0  0  0  0  0  0
   44.7320   35.1220   45.3950 N   0  0  0  0  0  0  0  0  0  0  0  0
   46.2710   34.2120   40.8040 C   0  0  0  0  0  0  0  0  0  0  0  0
   48.2140   35.4390   41.7330 C   0  0  0  0  0  0  0  0  0  0  0  0
   47.8790   33.1110   42.2580 C   0  0  0  0  0  0  0  0  0  0  0  0
   47.8310   32.2800   41.1340 O   0  0  0  0  0  0  0  0  0  0  0  0
   48.9900   32.0860   40.4010 C   0  0  0  0  0  0  0  0  0  0  0  0
   50.1780   31.7800   41.0040 N   0  0  0  0  0  0  0  0  0  0  0  0
   51.0920   31.6510   40.1020 O   0  0  0  0  0  0  0  0  0  0  0  0
   50.5950   31.8530   38.9080 C   0  0  0  0  0  0  0  0  0  0  0  0
   49.2920   32.1240   39.0800 N   0  0  0  0  0  0  0  0  0  0  0  0
   51.2560   31.8050   37.6780 O   0  0  0  0  0  0  0  0  0  0  0  0
   52.5180   31.2010   37.6160 C   0  0  0  0  0  0  0  0  0  0  0  0
   52.7670   29.9430   37.2460 N   0  0  0  0  0  0  0  0  0  0  0  0
   54.0520   29.7640   37.3190 O   0  0  0  0  0  0  0  0  0  0  0  0
   54.6570   30.8680   37.7270 C   0  0  0  0  0  0  0  0  0  0  0  0
   53.6880   31.7640   37.9100 N   0  0  0  0  0  0  0  0  0  0  0  0
   43.9332   36.8218   44.4382 H   0  0  0  0  0  0  0  0  0  0  0  0
   45.3435   36.5133   42.3806 H   0  0  0  0  0  0  0  0  0  0  0  0
   45.6538   33.3861   46.1833 H   0  0  0  0  0  0  0  0  0  0  0  0
   45.2557   33.9637   41.1467 H   0  0  0  0  0  0  0  0  0  0  0  0
   46.2392   35.1288   40.1970 H   0  0  0  0  0  0  0  0  0  0  0  0
   46.6658   33.3839   40.1970 H   0  0  0  0  0  0  0  0  0  0  0  0
   48.6178   35.8323   42.6776 H   0  0  0  0  0  0  0  0  0  0  0  0
   49.0250   34.9751   41.1524 H   0  0  0  0  0  0  0  0  0  0  0  0
   47.7718   36.2620   41.1524 H   0  0  0  0  0  0  0  0  0  0  0  0
   48.9320   33.3046   42.5104 H   0  0  0  0  0  0  0  0  0  0  0  0
   47.3577   32.5977   43.0794 H   0  0  0  0  0  0  0  0  0  0  0  0
   55.7359   31.0153   37.8827 H   0  0  0  0  0  0  0  0  0  0  0  0
  1 10  1  0
  1  4  1  0
  2  7  2  0
  3  2  1  0
  4  3  2  0
  4  5  1  0
  5  6  2  0
  6  7  1  0
  8  1  1  0
  9  1  1  0
 11 10  1  0
 12 13  2  0
 12 11  1  0
 14 13  1  0
 15 16  2  0
 15 14  1  0
 16 12  1  0
 17 15  1  0
 18 17  1  0
 18 22  1  0
 19 20  1  0
 19 18  2  0
 20 21  1  0
 21 22  2  0
  2 23  1  0
  3 24  1  0
  6 25  1  0
  8 26  1  0
  8 27  1  0
  8 28  1  0
  9 29  1  0
  9 30  1  0
  9 31  1  0
 10 32  1  0
 10 33  1  0
 21 34  1  0
M  ISO  8  23  14  24  14  25  14  26   8  27   8  28   8  29   8  30   8
M  ISO  4  31   8  32   8  33   8  34  14
M  END
>  <minimizedAffinity>  (1) 
-4.68581247

>  <minimizedRMSD>  (1) 
1.72888327

$$$$
