
     RDKit          3D

 50 53  0  0  0  0  0  0  0  0999 V2000
   48.2070   33.2130   42.4520 C   0  0  0  0  0  0  0  0  0  0  0  0
   47.4410   34.4730   42.0810 C   0  0  0  0  0  0  0  0  0  0  0  0
   44.6880   36.0130   44.1900 C   0  0  0  0  0  0  0  0  0  0  0  0
   45.5730   35.8500   43.0900 C   0  0  0  0  0  0  0  0  0  0  0  0
   46.4740   34.7650   43.1340 C   0  0  0  0  0  0  0  0  0  0  0  0
   46.4360   33.9490   44.2230 N   0  0  0  0  0  0  0  0  0  0  0  0
   45.5650   34.1600   45.2420 C   0  0  0  0  0  0  0  0  0  0  0  0
   44.7030   35.1750   45.2280 N   0  0  0  0  0  0  0  0  0  0  0  0
   46.6420   34.1230   40.8140 C   0  0  0  0  0  0  0  0  0  0  0  0
   48.4170   35.5430   41.7840 C   0  0  0  0  0  0  0  0  0  0  0  0
   48.1800   32.2810   41.4210 O   0  0  0  0  0  0  0  0  0  0  0  0
   49.3580   31.9580   40.7740 C   0  0  0  0  0  0  0  0  0  0  0  0
   50.5850   32.2930   41.2940 N   0  0  0  0  0  0  0  0  0  0  0  0
   51.5010   31.8700   40.4900 O   0  0  0  0  0  0  0  0  0  0  0  0
   50.9890   31.2690   39.4590 C   0  0  0  0  0  0  0  0  0  0  0  0
   49.6810   31.3210   39.6290 N   0  0  0  0  0  0  0  0  0  0  0  0
   51.6580   30.6870   38.3920 O   0  0  0  0  0  0  0  0  0  0  0  0
   51.5450   30.4550   34.9770 N   0  0  0  0  0  0  0  0  0  0  0  0
   52.0280   30.2670   36.2020 N   0  0  0  0  0  0  0  0  0  0  0  0
   51.1950   30.8530   37.1130 C   0  0  0  0  0  0  0  0  0  0  0  0
   50.1760   31.4130   36.3990 C   0  0  0  0  0  0  0  0  0  0  0  0
   50.3940   31.1630   35.0670 C   0  0  0  0  0  0  0  0  0  0  0  0
   49.5820   31.5660   33.9770 N   0  0  0  0  0  0  0  0  0  0  0  0
   49.9120   32.5350   32.9460 C   0  0  0  0  0  0  0  0  0  0  0  0
   48.7210   32.6690   32.0230 C   0  0  0  0  0  0  0  0  0  0  0  0
   47.4950   32.9910   32.6800 N   0  0  0  0  0  0  0  0  0  0  0  0
   47.2990   32.1710   33.8370 C   0  0  0  0  0  0  0  0  0  0  0  0
   48.2620   30.9750   33.8330 C   0  0  0  0  0  0  0  0  0  0  0  0
   49.2525   33.4797   42.6661 H   0  0  0  0  0  0  0  0  0  0  0  0
   47.7295   32.7652   43.3361 H   0  0  0  0  0  0  0  0  0  0  0  0
   43.9739   36.8497   44.1855 H   0  0  0  0  0  0  0  0  0  0  0  0
   45.5562   36.5436   42.2364 H   0  0  0  0  0  0  0  0  0  0  0  0
   45.5711   33.4745   46.1023 H   0  0  0  0  0  0  0  0  0  0  0  0
   45.6691   33.6968   41.1001 H   0  0  0  0  0  0  0  0  0  0  0  0
   46.4824   35.0336   40.2179 H   0  0  0  0  0  0  0  0  0  0  0  0
   47.2031   33.3883   40.2179 H   0  0  0  0  0  0  0  0  0  0  0  0
   48.7995   35.9623   42.7263 H   0  0  0  0  0  0  0  0  0  0  0  0
   49.2524   35.1261   41.2024 H   0  0  0  0  0  0  0  0  0  0  0  0
   47.9253   36.3367   41.2024 H   0  0  0  0  0  0  0  0  0  0  0  0
   51.9753   30.1178   34.1041 H   0  0  0  0  0  0  0  0  0  0  0  0
   49.3253   31.9696   36.8190 H   0  0  0  0  0  0  0  0  0  0  0  0
   50.1363   33.5079   33.4077 H   0  0  0  0  0  0  0  0  0  0  0  0
   50.7947   32.2017   32.3805 H   0  0  0  0  0  0  0  0  0  0  0  0
   48.5868   31.7136   31.4946 H   0  0  0  0  0  0  0  0  0  0  0  0
   48.9427   33.5077   31.3467 H   0  0  0  0  0  0  0  0  0  0  0  0
   47.5175   33.9796   32.9683 H   0  0  0  0  0  0  0  0  0  0  0  0
   47.4777   32.7738   34.7396 H   0  0  0  0  0  0  0  0  0  0  0  0
   46.2671   31.7902   33.8261 H   0  0  0  0  0  0  0  0  0  0  0  0
   48.0454   30.2993   34.6735 H   0  0  0  0  0  0  0  0  0  0  0  0
   48.1731   30.3712   32.9178 H   0  0  0  0  0  0  0  0  0  0  0  0
  2  1  1  0
  2  5  1  0
  3  8  2  0
  4  5  2  0
  4  3  1  0
  5  6  1  0
  6  7  2  0
  8  7  1  0
  9  2  1  0
 10  2  1  0
 11  1  1  0
 12 13  2  0
 12 11  1  0
 14 13  1  0
 15 16  2  0
 15 14  1  0
 16 12  1  0
 17 15  1  0
 18 22  1  0
 18 19  1  0
 19 20  2  0
 20 17  1  0
 21 20  1  0
 22 21  2  0
 23 22  1  0
 24 23  1  0
 25 26  1  0
 25 24  1  0
 26 27  1  0
 28 27  1  0
 28 23  1  0
  1 29  1  0
  1 30  1  0
  3 31  1  0
  4 32  1  0
  7 33  1  0
  9 34  1  0
  9 35  1  0
  9 36  1  0
 10 37  1  0
 10 38  1  0
 10 39  1  0
 18 40  1  0
 21 41  1  0
 24 42  1  0
 24 43  1  0
 25 44  1  0
 25 45  1  0
 26 46  1  0
 27 47  1  0
 27 48  1  0
 28 49  1  0
 28 50  1  0
M  ISO  8  29   8  30   8  31  14  32  14  33  14  34   8  35   8  36   8
M  ISO  8  37   8  38   8  39   8  40   9  41  14  42  13  43  13  44  13
M  ISO  6  45  13  46   5  47  13  48  13  49  13  50  13
M  END
>  <minimizedAffinity>  (1) 
-5.98073149

>  <minimizedRMSD>  (1) 
0.891714573

$$$$
