
     RDKit          3D

 47 50  0  0  0  0  0  0  0  0999 V2000
   49.3580   32.0390   40.7120 C   0  0  0  0  0  0  0  0  0  0  0  0
   50.4720   32.4890   41.3850 N   0  0  0  0  0  0  0  0  0  0  0  0
   51.5230   32.0270   40.8010 O   0  0  0  0  0  0  0  0  0  0  0  0
   51.2220   31.2980   39.7850 C   0  0  0  0  0  0  0  0  0  0  0  0
   49.9040   31.3010   39.7240 N   0  0  0  0  0  0  0  0  0  0  0  0
   48.0790   32.3760   41.1140 O   0  0  0  0  0  0  0  0  0  0  0  0
   47.9120   33.1060   42.2910 C   0  0  0  0  0  0  0  0  0  0  0  0
   47.2320   34.4330   42.0460 C   0  0  0  0  0  0  0  0  0  0  0  0
   44.6490   35.9980   44.3390 C   0  0  0  0  0  0  0  0  0  0  0  0
   45.4620   35.8180   43.1990 C   0  0  0  0  0  0  0  0  0  0  0  0
   46.3450   34.7220   43.1660 C   0  0  0  0  0  0  0  0  0  0  0  0
   46.3610   33.9050   44.2360 N   0  0  0  0  0  0  0  0  0  0  0  0
   45.5610   34.1190   45.3090 C   0  0  0  0  0  0  0  0  0  0  0  0
   44.7180   35.1500   45.3620 N   0  0  0  0  0  0  0  0  0  0  0  0
   46.3450   34.2130   40.8110 C   0  0  0  0  0  0  0  0  0  0  0  0
   48.2510   35.4490   41.7450 C   0  0  0  0  0  0  0  0  0  0  0  0
   52.0690   30.6330   38.9110 O   0  0  0  0  0  0  0  0  0  0  0  0
   52.4340   29.8920   35.5730 N   0  0  0  0  0  0  0  0  0  0  0  0
   52.7270   29.8550   36.8760 N   0  0  0  0  0  0  0  0  0  0  0  0
   51.8220   30.6240   37.5590 C   0  0  0  0  0  0  0  0  0  0  0  0
   50.9660   31.1320   36.6210 C   0  0  0  0  0  0  0  0  0  0  0  0
   51.3550   30.6710   35.3850 C   0  0  0  0  0  0  0  0  0  0  0  0
   50.5990   31.0750   34.2500 N   0  0  0  0  0  0  0  0  0  0  0  0
   49.3230   31.4640   34.4690 C   0  0  0  0  0  0  0  0  0  0  0  0
   48.4610   31.8860   33.4690 C   0  0  0  0  0  0  0  0  0  0  0  0
   49.0210   31.8780   32.1990 C   0  0  0  0  0  0  0  0  0  0  0  0
   48.2100   32.2960   31.1010 N   0  0  0  0  0  0  0  0  0  0  0  0
   50.2880   31.4900   31.9940 N   0  0  0  0  0  0  0  0  0  0  0  0
   51.0830   31.0910   32.9940 C   0  0  0  0  0  0  0  0  0  0  0  0
   52.2750   30.7210   32.8480 O   0  0  0  0  0  0  0  0  0  0  0  0
   47.2993   32.5172   42.9895 H   0  0  0  0  0  0  0  0  0  0  0  0
   48.9095   33.3088   42.7079 H   0  0  0  0  0  0  0  0  0  0  0  0
   43.9517   36.8476   44.3820 H   0  0  0  0  0  0  0  0  0  0  0  0
   45.4067   36.5198   42.3538 H   0  0  0  0  0  0  0  0  0  0  0  0
   45.6088   33.4228   46.1593 H   0  0  0  0  0  0  0  0  0  0  0  0
   45.3242   33.9598   41.1332 H   0  0  0  0  0  0  0  0  0  0  0  0
   46.3217   35.1326   40.2078 H   0  0  0  0  0  0  0  0  0  0  0  0
   46.7541   33.3891   40.2078 H   0  0  0  0  0  0  0  0  0  0  0  0
   48.6555   35.8523   42.6850 H   0  0  0  0  0  0  0  0  0  0  0  0
   49.0641   34.9914   41.1624 H   0  0  0  0  0  0  0  0  0  0  0  0
   47.7958   36.2635   41.1624 H   0  0  0  0  0  0  0  0  0  0  0  0
   52.9526   29.4015   34.8305 H   0  0  0  0  0  0  0  0  0  0  0  0
   50.1121   31.7960   36.8210 H   0  0  0  0  0  0  0  0  0  0  0  0
   48.9464   31.4445   35.5023 H   0  0  0  0  0  0  0  0  0  0  0  0
   47.4249   32.1995   33.6645 H   0  0  0  0  0  0  0  0  0  0  0  0
   48.5978   32.3008   30.1468 H   0  0  0  0  0  0  0  0  0  0  0  0
   47.2371   32.5928   31.2630 H   0  0  0  0  0  0  0  0  0  0  0  0
  1  6  1  0
  1  2  2  0
  3  2  1  0
  4  3  1  0
  5  4  2  0
  5  1  1  0
  6  7  1  0
  8  7  1  0
  8 11  1  0
  9 14  2  0
 10  9  1  0
 11 10  2  0
 11 12  1  0
 12 13  2  0
 13 14  1  0
 15  8  1  0
 16  8  1  0
 17  4  1  0
 18 19  1  0
 19 20  2  0
 20 17  1  0
 21 20  1  0
 22 18  1  0
 22 21  2  0
 23 24  1  0
 23 22  1  0
 25 24  2  0
 26 25  1  0
 27 26  1  0
 28 26  2  0
 28 29  1  0
 29 23  1  0
 30 29  2  0
  7 31  1  0
  7 32  1  0
  9 33  1  0
 10 34  1  0
 13 35  1  0
 15 36  1  0
 15 37  1  0
 15 38  1  0
 16 39  1  0
 16 40  1  0
 16 41  1  0
 18 42  1  0
 21 43  1  0
 24 44  1  0
 25 45  1  0
 27 46  1  0
 27 47  1  0
M  ISO  8  31   8  32   8  33  14  34  14  35  14  36   8  37   8  38   8
M  ISO  7  39   8  40   8  41   8  42   9  43  14  44  14  45  14
M  END
>  <minimizedAffinity>  (1) 
-6.04657078

>  <minimizedRMSD>  (1) 
0.53376168

$$$$
