
     RDKit          3D

 52 55  0  0  0  0  0  0  0  0999 V2000
   47.9630   33.1370   42.3500 C   0  0  0  0  0  0  0  0  0  0  0  0
   47.2660   34.4350   42.0650 C   0  0  0  0  0  0  0  0  0  0  0  0
   44.6480   36.0480   44.2860 C   0  0  0  0  0  0  0  0  0  0  0  0
   45.4820   35.8610   43.1510 C   0  0  0  0  0  0  0  0  0  0  0  0
   46.3570   34.7480   43.1570 C   0  0  0  0  0  0  0  0  0  0  0  0
   46.3400   33.9450   44.2310 N   0  0  0  0  0  0  0  0  0  0  0  0
   45.5210   34.1690   45.2900 C   0  0  0  0  0  0  0  0  0  0  0  0
   44.6890   35.2070   45.3150 N   0  0  0  0  0  0  0  0  0  0  0  0
   46.4060   34.1860   40.8120 C   0  0  0  0  0  0  0  0  0  0  0  0
   48.2800   35.4700   41.7470 C   0  0  0  0  0  0  0  0  0  0  0  0
   48.0340   32.3160   41.2230 O   0  0  0  0  0  0  0  0  0  0  0  0
   49.2780   32.0020   40.7050 C   0  0  0  0  0  0  0  0  0  0  0  0
   50.4470   32.3880   41.3220 N   0  0  0  0  0  0  0  0  0  0  0  0
   51.4360   31.9630   40.6240 O   0  0  0  0  0  0  0  0  0  0  0  0
   51.0530   31.3190   39.5800 C   0  0  0  0  0  0  0  0  0  0  0  0
   49.7340   31.3390   39.6210 N   0  0  0  0  0  0  0  0  0  0  0  0
   51.8210   30.7160   38.5940 O   0  0  0  0  0  0  0  0  0  0  0  0
   51.9170   30.1980   35.2040 N   0  0  0  0  0  0  0  0  0  0  0  0
   52.3440   30.1040   36.4800 N   0  0  0  0  0  0  0  0  0  0  0  0
   51.4510   30.7670   37.2760 C   0  0  0  0  0  0  0  0  0  0  0  0
   50.4760   31.2640   36.4580 C   0  0  0  0  0  0  0  0  0  0  0  0
   50.7630   30.9100   35.1600 C   0  0  0  0  0  0  0  0  0  0  0  0
   49.9420   31.2670   34.0060 C   0  0  0  0  0  0  0  0  0  0  0  0
   49.0570   32.4750   34.2320 C   0  0  0  0  0  0  0  0  0  0  0  0
   48.0610   32.4950   33.0920 C   0  0  0  0  0  0  0  0  0  0  0  0
   48.6810   32.4740   31.7380 C   0  0  0  0  0  0  0  0  0  0  0  0
   49.8740   31.5690   31.5970 C   0  0  0  0  0  0  0  0  0  0  0  0
   50.7990   31.6500   32.7920 C   0  0  0  0  0  0  0  0  0  0  0  0
   48.9848   33.3525   42.6958 H   0  0  0  0  0  0  0  0  0  0  0  0
   47.3831   32.6049   43.1185 H   0  0  0  0  0  0  0  0  0  0  0  0
   43.9566   36.9031   44.3139 H   0  0  0  0  0  0  0  0  0  0  0  0
   45.4490   36.5556   42.2987 H   0  0  0  0  0  0  0  0  0  0  0  0
   45.5456   33.4779   46.1454 H   0  0  0  0  0  0  0  0  0  0  0  0
   45.3907   33.8920   41.1166 H   0  0  0  0  0  0  0  0  0  0  0  0
   46.3567   35.1068   40.2122 H   0  0  0  0  0  0  0  0  0  0  0  0
   46.8563   33.3813   40.2122 H   0  0  0  0  0  0  0  0  0  0  0  0
   48.6862   35.8846   42.6814 H   0  0  0  0  0  0  0  0  0  0  0  0
   49.0944   35.0179   41.1619 H   0  0  0  0  0  0  0  0  0  0  0  0
   47.8113   36.2750   41.1619 H   0  0  0  0  0  0  0  0  0  0  0  0
   52.3945   29.7911   34.3871 H   0  0  0  0  0  0  0  0  0  0  0  0
   49.6046   31.8509   36.7838 H   0  0  0  0  0  0  0  0  0  0  0  0
   49.3381   30.3629   33.8390 H   0  0  0  0  0  0  0  0  0  0  0  0
   48.5318   32.3870   35.1945 H   0  0  0  0  0  0  0  0  0  0  0  0
   49.6480   33.4023   34.2612 H   0  0  0  0  0  0  0  0  0  0  0  0
   47.4104   31.6131   33.1870 H   0  0  0  0  0  0  0  0  0  0  0  0
   47.5089   33.4431   33.1717 H   0  0  0  0  0  0  0  0  0  0  0  0
   47.9168   32.1453   31.0183 H   0  0  0  0  0  0  0  0  0  0  0  0
   49.0469   33.4947   31.5525 H   0  0  0  0  0  0  0  0  0  0  0  0
   49.5215   30.5323   31.4918 H   0  0  0  0  0  0  0  0  0  0  0  0
   50.4394   31.8922   30.7105 H   0  0  0  0  0  0  0  0  0  0  0  0
   51.6371   30.9469   32.6768 H   0  0  0  0  0  0  0  0  0  0  0  0
   51.2337   32.6545   32.9021 H   0  0  0  0  0  0  0  0  0  0  0  0
  2  1  1  0
  2  5  1  0
  3  8  2  0
  4  5  2  0
  4  3  1  0
  5  6  1  0
  6  7  2  0
  7  8  1  0
  9  2  1  0
 10  2  1  0
 11  1  1  0
 12 11  1  0
 12 13  2  0
 14 13  1  0
 15 16  2  0
 15 14  1  0
 16 12  1  0
 17 15  1  0
 18 19  1  0
 19 20  2  0
 20 17  1  0
 21 20  1  0
 22 18  1  0
 22 21  2  0
 23 24  1  0
 23 22  1  0
 25 24  1  0
 26 25  1  0
 27 26  1  0
 27 28  1  0
 28 23  1  0
  1 29  1  0
  1 30  1  0
  3 31  1  0
  4 32  1  0
  7 33  1  0
  9 34  1  0
  9 35  1  0
  9 36  1  0
 10 37  1  0
 10 38  1  0
 10 39  1  0
 18 40  1  0
 21 41  1  0
 23 42  1  0
 24 43  1  0
 24 44  1  0
 25 45  1  0
 25 46  1  0
 26 47  1  0
 26 48  1  0
 27 49  1  0
 27 50  1  0
 28 51  1  0
 28 52  1  0
M  ISO  8  29   8  30   8  31  14  32  14  33  14  34   8  35   8  36   8
M  ISO  8  37   8  38   8  39   8  40   9  41  14  42  13  43  13  44  13
M  ISO  8  45  13  46  13  47  13  48  13  49  13  50  13  51  13  52  13
M  END
>  <minimizedAffinity>  (1) 
-5.76672554

>  <minimizedRMSD>  (1) 
0.65989399

$$$$
