
     RDKit          3D

 44 47  0  0  0  0  0  0  0  0999 V2000
   47.9220   33.0800   42.2230 C   0  0  0  0  0  0  0  0  0  0  0  0
   47.2430   34.4100   42.0060 C   0  0  0  0  0  0  0  0  0  0  0  0
   44.6690   35.9300   44.3350 C   0  0  0  0  0  0  0  0  0  0  0  0
   45.4640   35.7780   43.1680 C   0  0  0  0  0  0  0  0  0  0  0  0
   46.3700   34.6800   43.1430 C   0  0  0  0  0  0  0  0  0  0  0  0
   46.4160   33.8670   44.2140 N   0  0  0  0  0  0  0  0  0  0  0  0
   45.6280   34.0690   45.2980 C   0  0  0  0  0  0  0  0  0  0  0  0
   44.7690   35.0790   45.3630 N   0  0  0  0  0  0  0  0  0  0  0  0
   46.3460   34.2200   40.7720 C   0  0  0  0  0  0  0  0  0  0  0  0
   48.2710   35.4220   41.7150 C   0  0  0  0  0  0  0  0  0  0  0  0
   47.7990   32.2380   41.1180 O   0  0  0  0  0  0  0  0  0  0  0  0
   48.9470   31.8210   40.4670 C   0  0  0  0  0  0  0  0  0  0  0  0
   50.2010   32.2540   40.8450 N   0  0  0  0  0  0  0  0  0  0  0  0
   51.0750   31.7080   40.0700 O   0  0  0  0  0  0  0  0  0  0  0  0
   50.5270   30.9420   39.1950 C   0  0  0  0  0  0  0  0  0  0  0  0
   49.2300   31.0050   39.4300 N   0  0  0  0  0  0  0  0  0  0  0  0
   51.1290   30.1900   38.1990 O   0  0  0  0  0  0  0  0  0  0  0  0
   51.7330   30.3210   34.8200 N   0  0  0  0  0  0  0  0  0  0  0  0
   51.9610   29.9790   36.1050 N   0  0  0  0  0  0  0  0  0  0  0  0
   50.9590   30.4980   36.8730 C   0  0  0  0  0  0  0  0  0  0  0  0
   50.1180   31.1600   36.0230 C   0  0  0  0  0  0  0  0  0  0  0  0
   50.6100   31.0430   34.7490 C   0  0  0  0  0  0  0  0  0  0  0  0
   49.9760   31.6250   33.5750 C   0  0  0  0  0  0  0  0  0  0  0  0
   49.0330   32.6240   33.6780 C   0  0  0  0  0  0  0  0  0  0  0  0
   48.5300   33.0660   32.4720 C   0  0  0  0  0  0  0  0  0  0  0  0
   48.8820   32.6080   31.2660 N   0  0  0  0  0  0  0  0  0  0  0  0
   49.8200   31.6180   31.2190 C   0  0  0  0  0  0  0  0  0  0  0  0
   50.3420   31.1520   32.3690 N   0  0  0  0  0  0  0  0  0  0  0  0
   48.9904   33.2555   42.4172 H   0  0  0  0  0  0  0  0  0  0  0  0
   47.4346   32.5881   43.0777 H   0  0  0  0  0  0  0  0  0  0  0  0
   43.9557   36.7652   44.3952 H   0  0  0  0  0  0  0  0  0  0  0  0
   45.3835   36.4766   42.3222 H   0  0  0  0  0  0  0  0  0  0  0  0
   45.7024   33.3758   46.1488 H   0  0  0  0  0  0  0  0  0  0  0  0
   45.3177   34.0022   41.0962 H   0  0  0  0  0  0  0  0  0  0  0  0
   46.3531   35.1396   40.1684 H   0  0  0  0  0  0  0  0  0  0  0  0
   46.7254   33.3823   40.1684 H   0  0  0  0  0  0  0  0  0  0  0  0
   48.6733   35.8180   42.6591 H   0  0  0  0  0  0  0  0  0  0  0  0
   49.0842   34.9622   41.1342 H   0  0  0  0  0  0  0  0  0  0  0  0
   47.8240   36.2423   41.1342 H   0  0  0  0  0  0  0  0  0  0  0  0
   52.3298   30.0662   34.0201 H   0  0  0  0  0  0  0  0  0  0  0  0
   49.2018   31.6957   36.3122 H   0  0  0  0  0  0  0  0  0  0  0  0
   48.7073   33.0362   34.6444 H   0  0  0  0  0  0  0  0  0  0  0  0
   47.7739   33.8643   32.5052 H   0  0  0  0  0  0  0  0  0  0  0  0
   50.1458   31.2056   30.2527 H   0  0  0  0  0  0  0  0  0  0  0  0
  2  1  1  0
  2  5  1  0
  3  8  2  0
  4  3  1  0
  5  4  2  0
  5  6  1  0
  6  7  2  0
  7  8  1  0
  9  2  1  0
 10  2  1  0
 11  1  1  0
 12 13  2  0
 12 11  1  0
 14 13  1  0
 15 16  2  0
 15 14  1  0
 16 12  1  0
 17 15  1  0
 18 19  1  0
 19 20  2  0
 20 17  1  0
 21 20  1  0
 22 18  1  0
 22 21  2  0
 23 24  2  0
 23 22  1  0
 25 24  1  0
 26 25  2  0
 27 26  1  0
 27 28  2  0
 28 23  1  0
  1 29  1  0
  1 30  1  0
  3 31  1  0
  4 32  1  0
  7 33  1  0
  9 34  1  0
  9 35  1  0
  9 36  1  0
 10 37  1  0
 10 38  1  0
 10 39  1  0
 18 40  1  0
 21 41  1  0
 24 42  1  0
 25 43  1  0
 27 44  1  0
M  ISO  8  29   8  30   8  31  14  32  14  33  14  34   8  35   8  36   8
M  ISO  8  37   8  38   8  39   8  40   9  41  14  42  14  43  14  44  14
M  END
>  <minimizedAffinity>  (1) 
-5.64734554

>  <minimizedRMSD>  (1) 
1.08081424

$$$$
