
     RDKit          3D

 45 48  0  0  0  0  0  0  0  0999 V2000
   47.8960   33.0670   42.2170 C   0  0  0  0  0  0  0  0  0  0  0  0
   47.2230   34.3930   42.0070 C   0  0  0  0  0  0  0  0  0  0  0  0
   44.6650   35.9340   44.3470 C   0  0  0  0  0  0  0  0  0  0  0  0
   45.4550   35.7690   43.1820 C   0  0  0  0  0  0  0  0  0  0  0  0
   46.3500   34.6880   43.1310 C   0  0  0  0  0  0  0  0  0  0  0  0
   46.3980   33.8780   44.2000 N   0  0  0  0  0  0  0  0  0  0  0  0
   45.6240   34.0650   45.3040 C   0  0  0  0  0  0  0  0  0  0  0  0
   44.7670   35.0880   45.3670 N   0  0  0  0  0  0  0  0  0  0  0  0
   46.3280   34.2280   40.7710 C   0  0  0  0  0  0  0  0  0  0  0  0
   48.2540   35.4210   41.7210 C   0  0  0  0  0  0  0  0  0  0  0  0
   47.7750   32.2240   41.1040 O   0  0  0  0  0  0  0  0  0  0  0  0
   48.9290   31.8130   40.4610 C   0  0  0  0  0  0  0  0  0  0  0  0
   50.1770   32.2640   40.8330 N   0  0  0  0  0  0  0  0  0  0  0  0
   51.0590   31.7210   40.0680 O   0  0  0  0  0  0  0  0  0  0  0  0
   50.5220   30.9360   39.2040 C   0  0  0  0  0  0  0  0  0  0  0  0
   49.2240   30.9860   39.4370 N   0  0  0  0  0  0  0  0  0  0  0  0
   51.1410   30.1790   38.2200 O   0  0  0  0  0  0  0  0  0  0  0  0
   51.7710   30.3160   34.8370 N   0  0  0  0  0  0  0  0  0  0  0  0
   51.9930   29.9810   36.1180 N   0  0  0  0  0  0  0  0  0  0  0  0
   50.9800   30.4830   36.8890 C   0  0  0  0  0  0  0  0  0  0  0  0
   50.1360   31.1320   36.0300 C   0  0  0  0  0  0  0  0  0  0  0  0
   50.6400   31.0230   34.7550 C   0  0  0  0  0  0  0  0  0  0  0  0
   50.0140   31.5890   33.5840 C   0  0  0  0  0  0  0  0  0  0  0  0
   49.0710   32.5870   33.6620 C   0  0  0  0  0  0  0  0  0  0  0  0
   48.5410   33.0520   32.4920 C   0  0  0  0  0  0  0  0  0  0  0  0
   48.9210   32.5560   31.2630 C   0  0  0  0  0  0  0  0  0  0  0  0
   49.8830   31.5460   31.2680 C   0  0  0  0  0  0  0  0  0  0  0  0
   50.3990   31.0920   32.4030 N   0  0  0  0  0  0  0  0  0  0  0  0
   48.9642   33.2404   42.4143 H   0  0  0  0  0  0  0  0  0  0  0  0
   47.4040   32.5722   43.0674 H   0  0  0  0  0  0  0  0  0  0  0  0
   43.9575   36.7741   44.4079 H   0  0  0  0  0  0  0  0  0  0  0  0
   45.3693   36.4702   42.3388 H   0  0  0  0  0  0  0  0  0  0  0  0
   45.7048   33.3681   46.1512 H   0  0  0  0  0  0  0  0  0  0  0  0
   45.2929   34.0372   41.0907 H   0  0  0  0  0  0  0  0  0  0  0  0
   46.3620   35.1475   40.1683 H   0  0  0  0  0  0  0  0  0  0  0  0
   46.6877   33.3810   40.1683 H   0  0  0  0  0  0  0  0  0  0  0  0
   48.6503   35.8162   42.6680 H   0  0  0  0  0  0  0  0  0  0  0  0
   49.0722   34.9685   41.1415 H   0  0  0  0  0  0  0  0  0  0  0  0
   47.8038   36.2405   41.1415 H   0  0  0  0  0  0  0  0  0  0  0  0
   52.3772   30.0672   34.0423 H   0  0  0  0  0  0  0  0  0  0  0  0
   49.2095   31.6536   36.3118 H   0  0  0  0  0  0  0  0  0  0  0  0
   48.7546   32.9965   34.6327 H   0  0  0  0  0  0  0  0  0  0  0  0
   47.7848   33.8499   32.5318 H   0  0  0  0  0  0  0  0  0  0  0  0
   48.4877   32.9372   30.3265 H   0  0  0  0  0  0  0  0  0  0  0  0
   50.2204   31.1176   30.3127 H   0  0  0  0  0  0  0  0  0  0  0  0
  2  1  1  0
  2  5  1  0
  3  8  2  0
  4  3  1  0
  5  4  2  0
  5  6  1  0
  6  7  2  0
  7  8  1  0
  9  2  1  0
 10  2  1  0
 11  1  1  0
 12 13  2  0
 12 11  1  0
 14 13  1  0
 15 16  2  0
 15 14  1  0
 16 12  1  0
 17 15  1  0
 18 19  1  0
 19 20  2  0
 20 17  1  0
 21 20  1  0
 22 18  1  0
 22 21  2  0
 23 24  2  0
 23 22  1  0
 25 24  1  0
 26 27  1  0
 26 25  2  0
 27 28  2  0
 28 23  1  0
  1 29  1  0
  1 30  1  0
  3 31  1  0
  4 32  1  0
  7 33  1  0
  9 34  1  0
  9 35  1  0
  9 36  1  0
 10 37  1  0
 10 38  1  0
 10 39  1  0
 18 40  1  0
 21 41  1  0
 24 42  1  0
 25 43  1  0
 26 44  1  0
 27 45  1  0
M  ISO  8  29   8  30   8  31  14  32  14  33  14  34   8  35   8  36   8
M  ISO  8  37   8  38   8  39   8  40   9  41  14  42  14  43  14  44  14
M  ISO  1  45  14
M  END
>  <minimizedAffinity>  (1) 
-5.6692872

>  <minimizedRMSD>  (1) 
1.0781424

$$$$
