
     RDKit          3D

 42 45  0  0  0  0  0  0  0  0999 V2000
   47.9470   33.1280   42.3380 C   0  0  0  0  0  0  0  0  0  0  0  0
   47.2560   34.4320   42.0550 C   0  0  0  0  0  0  0  0  0  0  0  0
   44.6470   36.0470   44.2850 C   0  0  0  0  0  0  0  0  0  0  0  0
   45.4780   35.8600   43.1450 C   0  0  0  0  0  0  0  0  0  0  0  0
   46.3500   34.7450   43.1530 C   0  0  0  0  0  0  0  0  0  0  0  0
   46.3370   33.9420   44.2270 N   0  0  0  0  0  0  0  0  0  0  0  0
   45.5230   34.1680   45.2880 C   0  0  0  0  0  0  0  0  0  0  0  0
   44.6910   35.2050   45.3160 N   0  0  0  0  0  0  0  0  0  0  0  0
   46.3920   34.1920   40.8040 C   0  0  0  0  0  0  0  0  0  0  0  0
   48.2780   35.4580   41.7380 C   0  0  0  0  0  0  0  0  0  0  0  0
   48.0110   32.3170   41.2060 O   0  0  0  0  0  0  0  0  0  0  0  0
   49.2480   32.0240   40.6630 C   0  0  0  0  0  0  0  0  0  0  0  0
   50.4180   32.3450   41.3030 N   0  0  0  0  0  0  0  0  0  0  0  0
   51.3980   31.9570   40.5730 O   0  0  0  0  0  0  0  0  0  0  0  0
   51.0090   31.3970   39.4840 C   0  0  0  0  0  0  0  0  0  0  0  0
   49.6890   31.4340   39.5310 N   0  0  0  0  0  0  0  0  0  0  0  0
   51.7670   30.8560   38.4560 O   0  0  0  0  0  0  0  0  0  0  0  0
   51.7370   30.3970   35.0580 N   0  0  0  0  0  0  0  0  0  0  0  0
   52.2380   30.3620   36.2960 N   0  0  0  0  0  0  0  0  0  0  0  0
   51.3080   30.8630   37.1640 C   0  0  0  0  0  0  0  0  0  0  0  0
   50.2190   31.2030   36.4110 C   0  0  0  0  0  0  0  0  0  0  0  0
   50.4950   30.9090   35.0950 C   0  0  0  0  0  0  0  0  0  0  0  0
   49.4970   31.1820   34.1180 N   0  0  0  0  0  0  0  0  0  0  0  0
   48.8330   30.4910   33.1740 C   0  0  0  0  0  0  0  0  0  0  0  0
   47.9830   31.3290   32.5470 N   0  0  0  0  0  0  0  0  0  0  0  0
   48.1240   32.5520   33.1120 C   0  0  0  0  0  0  0  0  0  0  0  0
   49.0680   32.4540   34.0920 N   0  0  0  0  0  0  0  0  0  0  0  0
   48.9700   33.3356   42.6850 H   0  0  0  0  0  0  0  0  0  0  0  0
   47.3679   32.5952   43.1066 H   0  0  0  0  0  0  0  0  0  0  0  0
   43.9559   36.9023   44.3152 H   0  0  0  0  0  0  0  0  0  0  0  0
   45.4441   36.5538   42.2921 H   0  0  0  0  0  0  0  0  0  0  0  0
   45.5517   33.4782   46.1444 H   0  0  0  0  0  0  0  0  0  0  0  0
   45.3740   33.9092   41.1102 H   0  0  0  0  0  0  0  0  0  0  0  0
   46.3519   35.1130   40.2039 H   0  0  0  0  0  0  0  0  0  0  0  0
   46.8326   33.3822   40.2039 H   0  0  0  0  0  0  0  0  0  0  0  0
   48.6873   35.8689   42.6727 H   0  0  0  0  0  0  0  0  0  0  0  0
   49.0889   34.9994   41.1530 H   0  0  0  0  0  0  0  0  0  0  0  0
   47.8162   36.2671   41.1530 H   0  0  0  0  0  0  0  0  0  0  0  0
   52.2260   30.0811   34.2083 H   0  0  0  0  0  0  0  0  0  0  0  0
   49.2827   31.6371   36.7915 H   0  0  0  0  0  0  0  0  0  0  0  0
   48.9619   29.4216   32.9510 H   0  0  0  0  0  0  0  0  0  0  0  0
   47.5748   33.4626   32.8306 H   0  0  0  0  0  0  0  0  0  0  0  0
  2  1  1  0
  2  5  1  0
  3  8  2  0
  4  5  2  0
  4  3  1  0
  5  6  1  0
  6  7  2  0
  7  8  1  0
  9  2  1  0
 10  2  1  0
 11  1  1  0
 12 11  1  0
 12 13  2  0
 14 13  1  0
 15 16  2  0
 15 14  1  0
 16 12  1  0
 17 15  1  0
 18 22  1  0
 18 19  1  0
 19 20  2  0
 20 17  1  0
 21 20  1  0
 22 21  2  0
 23 22  1  0
 24 23  1  0
 25 26  1  0
 25 24  2  0
 26 27  2  0
 27 23  1  0
  1 28  1  0
  1 29  1  0
  3 30  1  0
  4 31  1  0
  7 32  1  0
  9 33  1  0
  9 34  1  0
  9 35  1  0
 10 36  1  0
 10 37  1  0
 10 38  1  0
 18 39  1  0
 21 40  1  0
 24 41  1  0
 26 42  1  0
M  ISO  8  28   8  29   8  30  14  31  14  32  14  33   8  34   8  35   8
M  ISO  7  36   8  37   8  38   8  39   9  40  14  41  14  42  14
M  END
>  <minimizedAffinity>  (1) 
-5.36325407

>  <minimizedRMSD>  (1) 
0.659315884

$$$$
