
     RDKit          3D

 43 46  0  0  0  0  0  0  0  0999 V2000
   47.4950   32.9710   42.1300 C   0  0  0  0  0  0  0  0  0  0  0  0
   46.9200   34.3590   42.0920 C   0  0  0  0  0  0  0  0  0  0  0  0
   44.5730   35.8030   44.7040 C   0  0  0  0  0  0  0  0  0  0  0  0
   45.2520   35.6780   43.4620 C   0  0  0  0  0  0  0  0  0  0  0  0
   46.1540   34.6140   43.3010 C   0  0  0  0  0  0  0  0  0  0  0  0
   46.3180   33.7780   44.3370 N   0  0  0  0  0  0  0  0  0  0  0  0
   45.6510   33.9260   45.5150 C   0  0  0  0  0  0  0  0  0  0  0  0
   44.7900   34.9320   45.6840 N   0  0  0  0  0  0  0  0  0  0  0  0
   45.9210   34.3680   40.9200 C   0  0  0  0  0  0  0  0  0  0  0  0
   48.0020   35.3260   41.8010 C   0  0  0  0  0  0  0  0  0  0  0  0
   47.1650   32.2360   40.9940 O   0  0  0  0  0  0  0  0  0  0  0  0
   48.1650   31.9050   40.0970 C   0  0  0  0  0  0  0  0  0  0  0  0
   49.4640   32.3260   40.2630 N   0  0  0  0  0  0  0  0  0  0  0  0
   50.1750   31.8760   39.2870 O   0  0  0  0  0  0  0  0  0  0  0  0
   49.4720   31.1820   38.4680 C   0  0  0  0  0  0  0  0  0  0  0  0
   48.2460   31.1950   38.9540 N   0  0  0  0  0  0  0  0  0  0  0  0
   49.8730   30.5370   37.3070 O   0  0  0  0  0  0  0  0  0  0  0  0
   50.5360   31.4900   34.0710 N   0  0  0  0  0  0  0  0  0  0  0  0
   50.7710   30.8870   35.2530 N   0  0  0  0  0  0  0  0  0  0  0  0
   49.7060   31.1220   36.0760 C   0  0  0  0  0  0  0  0  0  0  0  0
   48.8240   31.8820   35.3600 C   0  0  0  0  0  0  0  0  0  0  0  0
   49.3470   32.1060   34.1140 C   0  0  0  0  0  0  0  0  0  0  0  0
   48.6230   32.9090   33.0870 C   0  0  0  0  0  0  0  0  0  0  0  0
   48.8530   32.5220   31.6440 C   0  0  0  0  0  0  0  0  0  0  0  0
   49.4320   33.8040   32.1520 C   0  0  0  0  0  0  0  0  0  0  0  0
   48.5904   33.0427   42.2003 H   0  0  0  0  0  0  0  0  0  0  0  0
   47.0721   32.4529   43.0034 H   0  0  0  0  0  0  0  0  0  0  0  0
   43.8614   36.6280   44.8556 H   0  0  0  0  0  0  0  0  0  0  0  0
   45.0756   36.3962   42.6477 H   0  0  0  0  0  0  0  0  0  0  0  0
   45.8230   33.2113   46.3333 H   0  0  0  0  0  0  0  0  0  0  0  0
   44.8939   34.3773   41.3137 H   0  0  0  0  0  0  0  0  0  0  0  0
   46.0858   35.2647   40.3046 H   0  0  0  0  0  0  0  0  0  0  0  0
   46.0697   33.4685   40.3046 H   0  0  0  0  0  0  0  0  0  0  0  0
   48.4221   35.7014   42.7458 H   0  0  0  0  0  0  0  0  0  0  0  0
   48.7925   34.8280   41.2205 H   0  0  0  0  0  0  0  0  0  0  0  0
   47.5955   36.1673   41.2205 H   0  0  0  0  0  0  0  0  0  0  0  0
   51.1716   31.4790   33.2606 H   0  0  0  0  0  0  0  0  0  0  0  0
   47.8544   32.2525   35.7242 H   0  0  0  0  0  0  0  0  0  0  0  0
   47.7528   33.0641   33.7417 H   0  0  0  0  0  0  0  0  0  0  0  0
   48.0154   32.5443   30.9313 H   0  0  0  0  0  0  0  0  0  0  0  0
   49.2646   31.6359   31.1387 H   0  0  0  0  0  0  0  0  0  0  0  0
   50.5193   33.9008   32.2876 H   0  0  0  0  0  0  0  0  0  0  0  0
   49.3765   34.8585   31.8438 H   0  0  0  0  0  0  0  0  0  0  0  0
  2  1  1  0
  2  5  1  0
  3  8  2  0
  4  3  1  0
  5  4  2  0
  5  6  1  0
  6  7  2  0
  7  8  1  0
  9  2  1  0
 10  2  1  0
 11  1  1  0
 12 13  2  0
 12 11  1  0
 14 13  1  0
 15 16  2  0
 15 14  1  0
 16 12  1  0
 17 15  1  0
 18 22  1  0
 18 19  1  0
 19 20  2  0
 20 17  1  0
 21 20  1  0
 22 21  2  0
 23 22  1  0
 24 25  1  0
 24 23  1  0
 25 23  1  0
  1 26  1  0
  1 27  1  0
  3 28  1  0
  4 29  1  0
  7 30  1  0
  9 31  1  0
  9 32  1  0
  9 33  1  0
 10 34  1  0
 10 35  1  0
 10 36  1  0
 18 37  1  0
 21 38  1  0
 23 39  1  0
 24 40  1  0
 24 41  1  0
 25 42  1  0
 25 43  1  0
M  ISO  8  26   8  27   8  28  14  29  14  30  14  31   8  32   8  33   8
M  ISO  8  34   8  35   8  36   8  37   9  38  14  39  13  40  13  41  13
M  ISO  2  42  13  43  13
M  END
>  <minimizedAffinity>  (1) 
-5.35444307

>  <minimizedRMSD>  (1) 
1.96248567

$$$$
