
     RDKit          3D

 30 32  0  0  1  0  0  0  0  0999 V2000
   46.6690   32.5830   44.7770 N   0  0  0  0  0  0  0  0  0  0  0  0
   47.5060   31.7750   44.1150 C   0  0  0  0  0  0  0  0  0  0  0  0
   47.8130   30.7030   44.8680 N   0  0  0  0  0  0  0  0  0  0  0  0
   47.1460   30.8640   46.0210 C   0  0  0  0  0  0  0  0  0  0  0  0
   46.4350   32.0220   45.9750 N   0  0  0  0  0  0  0  0  0  0  0  0
   45.4590   35.7400   43.1460 C   0  0  0  0  0  0  0  0  0  0  0  0
   46.1470   34.5270   43.3060 C   0  0  0  0  0  0  0  0  0  0  0  0
   46.0250   33.8160   44.5000 C   0  0  0  0  0  0  0  0  0  0  0  0
   45.2220   34.3540   45.4710 N   0  0  0  0  0  0  0  0  0  0  0  0
   44.5680   35.5310   45.2930 C   0  0  0  0  0  0  0  0  0  0  0  0
   44.6950   36.2000   44.1410 N   0  0  0  0  0  0  0  0  0  0  0  0
   47.2420   29.8610   47.1190 C   0  0  1  0  0  0  0  0  0  0  0  0
   47.9430   30.3740   48.3420 C   0  0  0  0  0  0  0  0  0  0  0  0
   47.1030   31.3710   49.0660 C   0  0  0  0  0  0  0  0  0  0  0  0
   45.6790   30.9950   49.2790 C   0  0  0  0  0  0  0  0  0  0  0  0
   45.0710   29.9690   48.4340 C   0  0  0  0  0  0  0  0  0  0  0  0
   45.8870   29.2910   47.4110 C   0  0  0  0  0  0  0  0  0  0  0  0
   47.8882   31.9608   43.1004 H   0  0  0  0  0  0  0  0  0  0  0  0
   45.5482   36.3078   42.2081 H   0  0  0  0  0  0  0  0  0  0  0  0
   46.7793   34.1390   42.4938 H   0  0  0  0  0  0  0  0  0  0  0  0
   43.9337   35.9345   46.0961 H   0  0  0  0  0  0  0  0  0  0  0  0
   47.8878   29.0432   46.7668 H   0  0  0  0  0  0  0  0  0  0  0  0
   48.1570   29.5296   49.0138 H   0  0  0  0  0  0  0  0  0  0  0  0
   48.8756   30.8659   48.0286 H   0  0  0  0  0  0  0  0  0  0  0  0
   47.5575   31.5397   50.0534 H   0  0  0  0  0  0  0  0  0  0  0  0
   47.0803   32.2622   48.4216 H   0  0  0  0  0  0  0  0  0  0  0  0
   45.0883   31.4856   50.0666 H   0  0  0  0  0  0  0  0  0  0  0  0
   44.0108   29.7045   48.5608 H   0  0  0  0  0  0  0  0  0  0  0  0
   45.3148   29.3030   46.4716 H   0  0  0  0  0  0  0  0  0  0  0  0
   46.0861   28.2924   47.8271 H   0  0  0  0  0  0  0  0  0  0  0  0
  1  5  1  0
  2  1  1  0
  2  3  2  0
  3  4  1  0
  5  4  2  0
  6  7  2  0
  6 11  1  0
  7  8  1  0
  8  1  1  0
  8  9  2  0
 10  9  1  0
 11 10  2  0
 12  4  1  0
 12 17  1  0
 12 13  1  0
 13 14  1  0
 14 15  1  0
 16 15  2  0
 17 16  1  0
  2 18  1  0
  6 19  1  0
  7 20  1  0
 10 21  1  0
 12 22  1  6
 13 23  1  0
 13 24  1  0
 14 25  1  0
 14 26  1  0
 15 27  1  0
 16 28  1  0
 17 29  1  0
 17 30  1  0
M  ISO  8  18  14  19  14  20  14  21  14  22  13  23  13  24  13  25  13
M  ISO  5  26  13  27  13  28  13  29  13  30  13
M  END
>  <minimizedAffinity>  (1) 
-5.08662319

>  <minimizedRMSD>  (1) 
7.41186762

$$$$
