
     RDKit          3D

 42 45  0  0  0  0  0  0  0  0999 V2000
   47.7300   33.0280   42.1760 C   0  0  0  0  0  0  0  0  0  0  0  0
   47.0880   34.3880   41.9830 C   0  0  0  0  0  0  0  0  0  0  0  0
   44.6280   35.9600   44.3990 C   0  0  0  0  0  0  0  0  0  0  0  0
   45.3790   35.7940   43.1990 C   0  0  0  0  0  0  0  0  0  0  0  0
   46.2590   34.6870   43.1400 C   0  0  0  0  0  0  0  0  0  0  0  0
   46.3250   33.8660   44.2200 N   0  0  0  0  0  0  0  0  0  0  0  0
   45.5800   34.0820   45.3340 C   0  0  0  0  0  0  0  0  0  0  0  0
   44.7440   35.1150   45.4200 N   0  0  0  0  0  0  0  0  0  0  0  0
   46.1620   34.2570   40.7700 C   0  0  0  0  0  0  0  0  0  0  0  0
   48.1700   35.3690   41.7030 C   0  0  0  0  0  0  0  0  0  0  0  0
   47.5810   32.2310   41.0440 O   0  0  0  0  0  0  0  0  0  0  0  0
   48.7110   31.8030   40.3740 C   0  0  0  0  0  0  0  0  0  0  0  0
   49.9580   32.2750   40.6810 N   0  0  0  0  0  0  0  0  0  0  0  0
   50.8160   31.7110   39.9070 O   0  0  0  0  0  0  0  0  0  0  0  0
   50.2620   30.8880   39.0910 C   0  0  0  0  0  0  0  0  0  0  0  0
   48.9730   30.9390   39.3700 N   0  0  0  0  0  0  0  0  0  0  0  0
   50.8480   30.0970   38.1130 O   0  0  0  0  0  0  0  0  0  0  0  0
   51.7650   30.4080   34.8230 N   0  0  0  0  0  0  0  0  0  0  0  0
   51.8810   30.0440   36.0940 N   0  0  0  0  0  0  0  0  0  0  0  0
   50.7820   30.4450   36.7910 C   0  0  0  0  0  0  0  0  0  0  0  0
   49.9810   31.0730   35.8870 C   0  0  0  0  0  0  0  0  0  0  0  0
   50.5840   31.0580   34.6510 C   0  0  0  0  0  0  0  0  0  0  0  0
   50.0070   31.6510   33.4180 C   0  0  0  0  0  0  0  0  0  0  0  0
   50.3810   31.2030   32.1440 C   0  0  0  0  0  0  0  0  0  0  0  0
   49.3570   32.2880   31.0820 S   0  0  0  0  0  0  0  0  0  0  0  0
   48.5900   33.1700   32.5800 C   0  0  0  0  0  0  0  0  0  0  0  0
   49.1200   32.6210   33.5580 N   0  0  0  0  0  0  0  0  0  0  0  0
   48.8024   33.1640   42.3794 H   0  0  0  0  0  0  0  0  0  0  0  0
   47.2333   32.5271   43.0201 H   0  0  0  0  0  0  0  0  0  0  0  0
   43.9341   36.8093   44.4831 H   0  0  0  0  0  0  0  0  0  0  0  0
   45.2792   36.4945   42.3568 H   0  0  0  0  0  0  0  0  0  0  0  0
   45.6687   33.3891   46.1837 H   0  0  0  0  0  0  0  0  0  0  0  0
   45.1271   34.1106   41.1129 H   0  0  0  0  0  0  0  0  0  0  0  0
   46.2211   35.1725   40.1630 H   0  0  0  0  0  0  0  0  0  0  0  0
   46.4727   33.3939   40.1630 H   0  0  0  0  0  0  0  0  0  0  0  0
   48.5814   35.7420   42.6525 H   0  0  0  0  0  0  0  0  0  0  0  0
   48.9677   34.8799   41.1247 H   0  0  0  0  0  0  0  0  0  0  0  0
   47.7612   36.2107   41.1247 H   0  0  0  0  0  0  0  0  0  0  0  0
   52.4596   30.2267   34.0844 H   0  0  0  0  0  0  0  0  0  0  0  0
   49.0025   31.5230   36.1106 H   0  0  0  0  0  0  0  0  0  0  0  0
   51.0943   30.4153   31.8597 H   0  0  0  0  0  0  0  0  0  0  0  0
   47.8468   33.9810   32.5800 H   0  0  0  0  0  0  0  0  0  0  0  0
  2  1  1  0
  2  5  1  0
  3  8  2  0
  4  3  1  0
  5  4  2  0
  5  6  1  0
  6  7  2  0
  7  8  1  0
  9  2  1  0
 10  2  1  0
 11  1  1  0
 12 13  2  0
 12 11  1  0
 14 13  1  0
 15 16  2  0
 15 14  1  0
 16 12  1  0
 17 15  1  0
 18 19  1  0
 19 20  2  0
 20 17  1  0
 21 20  1  0
 22 18  1  0
 22 21  2  0
 23 27  1  0
 23 22  1  0
 24 23  2  0
 25 24  1  0
 25 26  1  0
 26 27  2  0
  1 28  1  0
  1 29  1  0
  3 30  1  0
  4 31  1  0
  7 32  1  0
  9 33  1  0
  9 34  1  0
  9 35  1  0
 10 36  1  0
 10 37  1  0
 10 38  1  0
 18 39  1  0
 21 40  1  0
 24 41  1  0
 26 42  1  0
M  ISO  8  28   8  29   8  30  14  31  14  32  14  33   8  34   8  35   8
M  ISO  7  36   8  37   8  38   8  39   9  40  14  41  14  42  14
M  END
>  <minimizedAffinity>  (1) 
-5.39600945

>  <minimizedRMSD>  (1) 
1.14315438

$$$$
