
     RDKit          3D

 43 46  0  0  0  0  0  0  0  0999 V2000
   47.9390   33.1080   42.2890 C   0  0  0  0  0  0  0  0  0  0  0  0
   47.2480   34.4190   42.0450 C   0  0  0  0  0  0  0  0  0  0  0  0
   44.6630   35.9860   44.3340 C   0  0  0  0  0  0  0  0  0  0  0  0
   45.4730   35.8160   43.1830 C   0  0  0  0  0  0  0  0  0  0  0  0
   46.3560   34.7240   43.1510 C   0  0  0  0  0  0  0  0  0  0  0  0
   46.3740   33.9120   44.2200 N   0  0  0  0  0  0  0  0  0  0  0  0
   45.5810   34.1060   45.3090 C   0  0  0  0  0  0  0  0  0  0  0  0
   44.7360   35.1340   45.3590 N   0  0  0  0  0  0  0  0  0  0  0  0
   46.3670   34.2060   40.8010 C   0  0  0  0  0  0  0  0  0  0  0  0
   48.2660   35.4510   41.7400 C   0  0  0  0  0  0  0  0  0  0  0  0
   47.7940   32.2290   41.2160 O   0  0  0  0  0  0  0  0  0  0  0  0
   48.9270   31.8240   40.5300 C   0  0  0  0  0  0  0  0  0  0  0  0
   50.1850   32.2460   40.8850 N   0  0  0  0  0  0  0  0  0  0  0  0
   51.0450   31.7160   40.0810 O   0  0  0  0  0  0  0  0  0  0  0  0
   50.4770   30.9670   39.2060 C   0  0  0  0  0  0  0  0  0  0  0  0
   49.1860   31.0270   39.4740 N   0  0  0  0  0  0  0  0  0  0  0  0
   51.0550   30.2310   38.1820 O   0  0  0  0  0  0  0  0  0  0  0  0
   51.5950   30.4300   34.7910 N   0  0  0  0  0  0  0  0  0  0  0  0
   51.8380   30.0440   36.0600 N   0  0  0  0  0  0  0  0  0  0  0  0
   50.8730   30.5790   36.8670 C   0  0  0  0  0  0  0  0  0  0  0  0
   50.0390   31.2960   36.0550 C   0  0  0  0  0  0  0  0  0  0  0  0
   50.4960   31.1980   34.7610 C   0  0  0  0  0  0  0  0  0  0  0  0
   49.8510   31.8350   33.6650 N   0  0  0  0  0  0  0  0  0  0  0  0
   48.8960   32.7470   33.5810 N   0  0  0  0  0  0  0  0  0  0  0  0
   48.6270   33.0260   32.2880 C   0  0  0  0  0  0  0  0  0  0  0  0
   49.4710   32.2340   31.5120 C   0  0  0  0  0  0  0  0  0  0  0  0
   50.2190   31.5040   32.3990 C   0  0  0  0  0  0  0  0  0  0  0  0
   49.0106   33.2968   42.4501 H   0  0  0  0  0  0  0  0  0  0  0  0
   47.4777   32.6421   43.1723 H   0  0  0  0  0  0  0  0  0  0  0  0
   43.9633   36.8334   44.3832 H   0  0  0  0  0  0  0  0  0  0  0  0
   45.4118   36.5190   42.3392 H   0  0  0  0  0  0  0  0  0  0  0  0
   45.6387   33.4067   46.1562 H   0  0  0  0  0  0  0  0  0  0  0  0
   45.3424   33.9583   41.1154 H   0  0  0  0  0  0  0  0  0  0  0  0
   46.3534   35.1267   40.1993 H   0  0  0  0  0  0  0  0  0  0  0  0
   46.7756   33.3808   40.1993 H   0  0  0  0  0  0  0  0  0  0  0  0
   48.6679   35.8585   42.6794 H   0  0  0  0  0  0  0  0  0  0  0  0
   49.0824   34.9997   41.1571 H   0  0  0  0  0  0  0  0  0  0  0  0
   47.8036   36.2612   41.1571 H   0  0  0  0  0  0  0  0  0  0  0  0
   52.1649   30.1746   33.9719 H   0  0  0  0  0  0  0  0  0  0  0  0
   49.1512   31.8573   36.3816 H   0  0  0  0  0  0  0  0  0  0  0  0
   47.8812   33.7441   31.9164 H   0  0  0  0  0  0  0  0  0  0  0  0
   49.5258   32.2013   30.4138 H   0  0  0  0  0  0  0  0  0  0  0  0
   50.9920   30.7692   32.1298 H   0  0  0  0  0  0  0  0  0  0  0  0
  2  1  1  0
  2  5  1  0
  3  8  2  0
  4  3  1  0
  5  4  2  0
  5  6  1  0
  6  7  2  0
  7  8  1  0
  9  2  1  0
 10  2  1  0
 11  1  1  0
 12 13  2  0
 12 11  1  0
 14 13  1  0
 15 16  2  0
 15 14  1  0
 16 12  1  0
 17 15  1  0
 18 19  1  0
 19 20  2  0
 20 17  1  0
 21 20  1  0
 22 18  1  0
 22 21  2  0
 23 22  1  0
 24 23  1  0
 25 24  2  0
 26 25  1  0
 26 27  2  0
 27 23  1  0
  1 28  1  0
  1 29  1  0
  3 30  1  0
  4 31  1  0
  7 32  1  0
  9 33  1  0
  9 34  1  0
  9 35  1  0
 10 36  1  0
 10 37  1  0
 10 38  1  0
 18 39  1  0
 21 40  1  0
 25 41  1  0
 26 42  1  0
 27 43  1  0
M  ISO  8  28   8  29   8  30  14  31  14  32  14  33   8  34   8  35   8
M  ISO  8  36   8  37   8  38   8  39   9  40  14  41  14  42  14  43  14
M  END
>  <minimizedAffinity>  (1) 
-5.38122177

>  <minimizedRMSD>  (1) 
1.11647701

$$$$
