
     RDKit          3D

 45 47  0  0  0  0  0  0  0  0999 V2000
   47.9460   33.1450   42.3610 C   0  0  0  0  0  0  0  0  0  0  0  0
   47.2530   34.4560   42.0690 C   0  0  0  0  0  0  0  0  0  0  0  0
   44.6380   36.0630   44.2970 C   0  0  0  0  0  0  0  0  0  0  0  0
   45.4740   35.8660   43.1750 C   0  0  0  0  0  0  0  0  0  0  0  0
   46.3450   34.7610   43.1720 C   0  0  0  0  0  0  0  0  0  0  0  0
   46.3280   33.9560   44.2440 N   0  0  0  0  0  0  0  0  0  0  0  0
   45.5090   34.1810   45.3010 C   0  0  0  0  0  0  0  0  0  0  0  0
   44.6780   35.2210   45.3240 N   0  0  0  0  0  0  0  0  0  0  0  0
   46.3780   34.1880   40.8310 C   0  0  0  0  0  0  0  0  0  0  0  0
   48.2630   35.4730   41.7450 C   0  0  0  0  0  0  0  0  0  0  0  0
   47.8990   32.2720   41.2760 O   0  0  0  0  0  0  0  0  0  0  0  0
   49.0670   31.9890   40.5940 C   0  0  0  0  0  0  0  0  0  0  0  0
   50.2920   32.1900   41.1470 N   0  0  0  0  0  0  0  0  0  0  0  0
   51.1970   31.8430   40.2950 O   0  0  0  0  0  0  0  0  0  0  0  0
   50.6820   31.4180   39.1970 C   0  0  0  0  0  0  0  0  0  0  0  0
   49.3760   31.5040   39.3720 N   0  0  0  0  0  0  0  0  0  0  0  0
   51.3190   30.9590   38.0540 O   0  0  0  0  0  0  0  0  0  0  0  0
   50.9930   30.9290   34.6420 N   0  0  0  0  0  0  0  0  0  0  0  0
   51.6010   30.7520   35.8120 N   0  0  0  0  0  0  0  0  0  0  0  0
   50.7460   31.1170   36.8150 C   0  0  0  0  0  0  0  0  0  0  0  0
   49.5900   31.5240   36.2130 C   0  0  0  0  0  0  0  0  0  0  0  0
   49.7480   31.4050   34.8520 C   0  0  0  0  0  0  0  0  0  0  0  0
   48.6560   31.7730   33.8950 C   0  0  0  0  0  0  0  0  0  0  0  0
   47.3860   32.1210   34.6450 C   0  0  0  0  0  0  0  0  0  0  0  0
   49.0460   33.0270   33.1080 C   0  0  0  0  0  0  0  0  0  0  0  0
   48.9987   33.3479   42.6072 H   0  0  0  0  0  0  0  0  0  0  0  0
   47.4233   32.6666   43.2024 H   0  0  0  0  0  0  0  0  0  0  0  0
   43.9488   36.9200   44.3204 H   0  0  0  0  0  0  0  0  0  0  0  0
   45.4445   36.5610   42.3229 H   0  0  0  0  0  0  0  0  0  0  0  0
   45.5316   33.4903   46.1568 H   0  0  0  0  0  0  0  0  0  0  0  0
   45.3722   33.8799   41.1526 H   0  0  0  0  0  0  0  0  0  0  0  0
   46.3053   35.1051   40.2279 H   0  0  0  0  0  0  0  0  0  0  0  0
   46.8313   33.3875   40.2279 H   0  0  0  0  0  0  0  0  0  0  0  0
   48.6761   35.8890   42.6757 H   0  0  0  0  0  0  0  0  0  0  0  0
   49.0717   35.0128   41.1584 H   0  0  0  0  0  0  0  0  0  0  0  0
   47.7972   36.2785   41.1584 H   0  0  0  0  0  0  0  0  0  0  0  0
   51.4079   30.7332   33.7198 H   0  0  0  0  0  0  0  0  0  0  0  0
   48.6875   31.8850   36.7280 H   0  0  0  0  0  0  0  0  0  0  0  0
   48.4996   30.9110   33.2298 H   0  0  0  0  0  0  0  0  0  0  0  0
   47.5737   32.0696   35.7276 H   0  0  0  0  0  0  0  0  0  0  0  0
   47.0686   33.1392   34.3759 H   0  0  0  0  0  0  0  0  0  0  0  0
   46.5938   31.4068   34.3759 H   0  0  0  0  0  0  0  0  0  0  0  0
   49.2977   33.8364   33.8091 H   0  0  0  0  0  0  0  0  0  0  0  0
   49.9179   32.8061   32.4747 H   0  0  0  0  0  0  0  0  0  0  0  0
   48.2026   33.3395   32.4747 H   0  0  0  0  0  0  0  0  0  0  0  0
  2  1  1  0
  2  5  1  0
  3  8  2  0
  4  3  1  0
  5  4  2  0
  5  6  1  0
  6  7  2  0
  7  8  1  0
  9  2  1  0
 10  2  1  0
 11  1  1  0
 12 13  2  0
 12 11  1  0
 14 13  1  0
 15 16  2  0
 15 14  1  0
 16 12  1  0
 17 15  1  0
 18 22  1  0
 18 19  1  0
 19 20  2  0
 20 17  1  0
 21 20  1  0
 22 21  2  0
 23 24  1  0
 23 22  1  0
 25 23  1  0
  1 26  1  0
  1 27  1  0
  3 28  1  0
  4 29  1  0
  7 30  1  0
  9 31  1  0
  9 32  1  0
  9 33  1  0
 10 34  1  0
 10 35  1  0
 10 36  1  0
 18 37  1  0
 21 38  1  0
 23 39  1  0
 24 40  1  0
 24 41  1  0
 24 42  1  0
 25 43  1  0
 25 44  1  0
 25 45  1  0
M  ISO  8  26   8  27   8  28  14  29  14  30  14  31   8  32   8  33   8
M  ISO  8  34   8  35   8  36   8  37   9  38  14  39   8  40   8  41   8
M  ISO  4  42   8  43   8  44   8  45   8
M  END
>  <minimizedAffinity>  (1) 
-5.16045523

>  <minimizedRMSD>  (1) 
1.15991938

$$$$
