
     RDKit          3D

 43 46  0  0  0  0  0  0  0  0999 V2000
   47.9260   33.0900   42.2480 C   0  0  0  0  0  0  0  0  0  0  0  0
   47.2450   34.4160   42.0160 C   0  0  0  0  0  0  0  0  0  0  0  0
   44.6710   35.9640   44.3300 C   0  0  0  0  0  0  0  0  0  0  0  0
   45.4700   35.8070   43.1640 C   0  0  0  0  0  0  0  0  0  0  0  0
   46.3660   34.6990   43.1440 C   0  0  0  0  0  0  0  0  0  0  0  0
   46.3950   33.8870   44.2130 N   0  0  0  0  0  0  0  0  0  0  0  0
   45.6050   34.0890   45.2980 C   0  0  0  0  0  0  0  0  0  0  0  0
   44.7540   35.1100   45.3610 N   0  0  0  0  0  0  0  0  0  0  0  0
   46.3550   34.2260   40.7860 C   0  0  0  0  0  0  0  0  0  0  0  0
   48.2760   35.4370   41.7210 C   0  0  0  0  0  0  0  0  0  0  0  0
   47.7940   32.2270   41.1520 O   0  0  0  0  0  0  0  0  0  0  0  0
   48.9500   31.8190   40.5010 C   0  0  0  0  0  0  0  0  0  0  0  0
   50.2010   32.2610   40.8690 N   0  0  0  0  0  0  0  0  0  0  0  0
   51.0710   31.7150   40.0890 O   0  0  0  0  0  0  0  0  0  0  0  0
   50.5240   30.9400   39.2200 C   0  0  0  0  0  0  0  0  0  0  0  0
   49.2290   30.9990   39.4680 N   0  0  0  0  0  0  0  0  0  0  0  0
   51.1220   30.1860   38.2250 O   0  0  0  0  0  0  0  0  0  0  0  0
   51.7250   30.3020   34.8530 N   0  0  0  0  0  0  0  0  0  0  0  0
   51.9450   29.9650   36.1240 N   0  0  0  0  0  0  0  0  0  0  0  0
   50.9530   30.4960   36.8970 C   0  0  0  0  0  0  0  0  0  0  0  0
   50.1190   31.1710   36.0490 C   0  0  0  0  0  0  0  0  0  0  0  0
   50.6230   31.0330   34.7900 C   0  0  0  0  0  0  0  0  0  0  0  0
   49.9810   31.6330   33.6080 C   0  0  0  0  0  0  0  0  0  0  0  0
   49.0680   32.6330   33.4020 C   0  0  0  0  0  0  0  0  0  0  0  0
   48.6810   32.9400   32.1520 C   0  0  0  0  0  0  0  0  0  0  0  0
   49.2300   32.2150   31.0220 C   0  0  0  0  0  0  0  0  0  0  0  0
   50.3950   31.0000   31.8970 S   0  0  0  0  0  0  0  0  0  0  0  0
   48.9958   33.2687   42.4310 H   0  0  0  0  0  0  0  0  0  0  0  0
   47.4455   32.6112   43.1140 H   0  0  0  0  0  0  0  0  0  0  0  0
   43.9670   36.8072   44.3878 H   0  0  0  0  0  0  0  0  0  0  0  0
   45.3998   36.5070   42.3184 H   0  0  0  0  0  0  0  0  0  0  0  0
   45.6698   33.3915   46.1461 H   0  0  0  0  0  0  0  0  0  0  0  0
   45.3264   34.0064   41.1081 H   0  0  0  0  0  0  0  0  0  0  0  0
   46.3619   35.1459   40.1828 H   0  0  0  0  0  0  0  0  0  0  0  0
   46.7369   33.3891   40.1828 H   0  0  0  0  0  0  0  0  0  0  0  0
   48.6781   35.8352   42.6642 H   0  0  0  0  0  0  0  0  0  0  0  0
   49.0899   34.9790   41.1398 H   0  0  0  0  0  0  0  0  0  0  0  0
   47.8259   36.2553   41.1398 H   0  0  0  0  0  0  0  0  0  0  0  0
   52.3154   30.0371   34.0517 H   0  0  0  0  0  0  0  0  0  0  0  0
   49.2101   31.7229   36.3306 H   0  0  0  0  0  0  0  0  0  0  0  0
   48.6521   33.1841   34.2583 H   0  0  0  0  0  0  0  0  0  0  0  0
   47.9469   33.7422   31.9857 H   0  0  0  0  0  0  0  0  0  0  0  0
   49.0260   32.3368   29.9480 H   0  0  0  0  0  0  0  0  0  0  0  0
  2  1  1  0
  2  5  1  0
  3  8  2  0
  4  3  1  0
  5  4  2  0
  5  6  1  0
  6  7  2  0
  7  8  1  0
  9  2  1  0
 10  2  1  0
 11  1  1  0
 12 13  2  0
 12 11  1  0
 14 13  1  0
 15 16  2  0
 15 14  1  0
 16 12  1  0
 17 15  1  0
 18 19  1  0
 19 20  2  0
 20 17  1  0
 21 20  1  0
 22 18  1  0
 22 21  2  0
 23 22  1  0
 24 23  2  0
 25 24  1  0
 26 27  1  0
 26 25  2  0
 27 23  1  0
  1 28  1  0
  1 29  1  0
  3 30  1  0
  4 31  1  0
  7 32  1  0
  9 33  1  0
  9 34  1  0
  9 35  1  0
 10 36  1  0
 10 37  1  0
 10 38  1  0
 18 39  1  0
 21 40  1  0
 24 41  1  0
 25 42  1  0
 26 43  1  0
M  ISO  8  28   8  29   8  30  14  31  14  32  14  33   8  34   8  35   8
M  ISO  8  36   8  37   8  38   8  39   9  40  14  41  14  42  14  43  14
M  END
>  <minimizedAffinity>  (1) 
-5.44181585

>  <minimizedRMSD>  (1) 
1.06421232

$$$$
