
     RDKit          3D

 37 39  0  0  0  0  0  0  0  0999 V2000
   48.0490   33.1530   42.3400 C   0  0  0  0  0  0  0  0  0  0  0  0
   47.3390   34.4450   42.0430 C   0  0  0  0  0  0  0  0  0  0  0  0
   44.6700   36.0240   44.2250 C   0  0  0  0  0  0  0  0  0  0  0  0
   45.5210   35.8420   43.1110 C   0  0  0  0  0  0  0  0  0  0  0  0
   46.4090   34.7540   43.1170 C   0  0  0  0  0  0  0  0  0  0  0  0
   46.3890   33.9500   44.1910 N   0  0  0  0  0  0  0  0  0  0  0  0
   45.5560   34.1530   45.2470 C   0  0  0  0  0  0  0  0  0  0  0  0
   44.7070   35.1850   45.2540 N   0  0  0  0  0  0  0  0  0  0  0  0
   46.5040   34.1900   40.7770 C   0  0  0  0  0  0  0  0  0  0  0  0
   48.3480   35.4890   41.7460 C   0  0  0  0  0  0  0  0  0  0  0  0
   48.2250   32.3790   41.1970 O   0  0  0  0  0  0  0  0  0  0  0  0
   49.5080   32.0730   40.7860 C   0  0  0  0  0  0  0  0  0  0  0  0
   50.6020   32.4780   41.4830 N   0  0  0  0  0  0  0  0  0  0  0  0
   51.6620   32.0560   40.8760 O   0  0  0  0  0  0  0  0  0  0  0  0
   51.3710   31.3920   39.8140 C   0  0  0  0  0  0  0  0  0  0  0  0
   50.0520   31.3980   39.7500 N   0  0  0  0  0  0  0  0  0  0  0  0
   52.2240   30.7830   38.9020 O   0  0  0  0  0  0  0  0  0  0  0  0
   52.4520   29.9800   35.5720 N   0  0  0  0  0  0  0  0  0  0  0  0
   52.8280   30.0110   36.8620 N   0  0  0  0  0  0  0  0  0  0  0  0
   51.8940   30.7130   37.5720 C   0  0  0  0  0  0  0  0  0  0  0  0
   50.9400   31.1040   36.6750 C   0  0  0  0  0  0  0  0  0  0  0  0
   51.2970   30.6440   35.4330 C   0  0  0  0  0  0  0  0  0  0  0  0
   50.2750   30.9710   34.0040 S   0  0  0  0  0  0  0  0  0  0  0  0
   49.0356   33.3808   42.7697 H   0  0  0  0  0  0  0  0  0  0  0  0
   47.4297   32.5800   43.0457 H   0  0  0  0  0  0  0  0  0  0  0  0
   43.9684   36.8711   44.2398 H   0  0  0  0  0  0  0  0  0  0  0  0
   45.4884   36.5368   42.2588 H   0  0  0  0  0  0  0  0  0  0  0  0
   45.5814   33.4619   46.1024 H   0  0  0  0  0  0  0  0  0  0  0  0
   45.4884   33.8798   41.0639 H   0  0  0  0  0  0  0  0  0  0  0  0
   46.4509   35.1129   40.1808 H   0  0  0  0  0  0  0  0  0  0  0  0
   46.9755   33.3949   40.1808 H   0  0  0  0  0  0  0  0  0  0  0  0
   48.7421   35.8968   42.6886 H   0  0  0  0  0  0  0  0  0  0  0  0
   49.1712   35.0484   41.1645 H   0  0  0  0  0  0  0  0  0  0  0  0
   47.8796   36.2967   41.1645 H   0  0  0  0  0  0  0  0  0  0  0  0
   52.9701   29.5186   34.8107 H   0  0  0  0  0  0  0  0  0  0  0  0
   50.0383   31.6888   36.9094 H   0  0  0  0  0  0  0  0  0  0  0  0
   49.0301   31.3693   34.4144 H   0  0  0  0  0  0  0  0  0  0  0  0
  2  1  1  0
  2  5  1  0
  3  8  2  0
  4  5  2  0
  4  3  1  0
  5  6  1  0
  6  7  2  0
  7  8  1  0
  9  2  1  0
 10  2  1  0
 11  1  1  0
 12 11  1  0
 12 13  2  0
 14 13  1  0
 15 14  1  0
 16 15  2  0
 16 12  1  0
 17 15  1  0
 18 19  1  0
 19 20  2  0
 20 17  1  0
 21 20  1  0
 22 18  1  0
 22 21  2  0
 23 22  1  0
  1 24  1  0
  1 25  1  0
  3 26  1  0
  4 27  1  0
  7 28  1  0
  9 29  1  0
  9 30  1  0
  9 31  1  0
 10 32  1  0
 10 33  1  0
 10 34  1  0
 18 35  1  0
 21 36  1  0
 23 37  1  0
M  ISO  8  24   8  25   8  26  14  27  14  28  14  29   8  30   8  31   8
M  ISO  6  32   8  33   8  34   8  35   9  36  14  37  11
M  END
>  <minimizedAffinity>  (1) 
-4.83202267

>  <minimizedRMSD>  (1) 
0.111614138

$$$$
