
     RDKit          3D

 19 20  0  0  0  0  0  0  0  0999 V2000
   45.6510   34.1020   41.7750 N   0  0  0  0  0  0  0  0  0  0  0  0
   45.0420   33.3860   40.8250 C   0  0  0  0  0  0  0  0  0  0  0  0
   45.8160   33.3190   39.7260 N   0  0  0  0  0  0  0  0  0  0  0  0
   46.9260   34.0100   40.0080 C   0  0  0  0  0  0  0  0  0  0  0  0
   46.8340   34.5000   41.2740 N   0  0  0  0  0  0  0  0  0  0  0  0
   44.4410   35.9530   44.7980 C   0  0  0  0  0  0  0  0  0  0  0  0
   44.7010   35.6870   43.4460 C   0  0  0  0  0  0  0  0  0  0  0  0
   45.3300   34.4970   43.0970 C   0  0  0  0  0  0  0  0  0  0  0  0
   45.6660   33.6390   44.1200 N   0  0  0  0  0  0  0  0  0  0  0  0
   45.3990   33.9300   45.4210 C   0  0  0  0  0  0  0  0  0  0  0  0
   44.7880   35.0890   45.7460 N   0  0  0  0  0  0  0  0  0  0  0  0
   48.1360   34.2700   39.1500 C   0  0  0  0  0  0  0  0  0  0  0  0
   49.0090   33.2090   39.3080 F   0  0  0  0  0  0  0  0  0  0  0  0
   47.7960   34.4140   37.8410 F   0  0  0  0  0  0  0  0  0  0  0  0
   48.7610   35.4470   39.5780 F   0  0  0  0  0  0  0  0  0  0  0  0
   44.0513   32.9189   40.9266 H   0  0  0  0  0  0  0  0  0  0  0  0
   43.9417   36.8922   45.0784 H   0  0  0  0  0  0  0  0  0  0  0  0
   44.4108   36.4112   42.6706 H   0  0  0  0  0  0  0  0  0  0  0  0
   45.6817   33.2188   46.2111 H   0  0  0  0  0  0  0  0  0  0  0  0
  1  8  1  0
  2  1  1  0
  3  4  1  0
  3  2  2  0
  4  5  2  0
  5  1  1  0
  6 11  2  0
  7  6  1  0
  8  7  2  0
  8  9  1  0
  9 10  2  0
 10 11  1  0
 12 13  1  0
 12 15  1  0
 12  4  1  0
 14 12  1  0
  2 16  1  0
  6 17  1  0
  7 18  1  0
 10 19  1  0
M  ISO  4  16  14  17  14  18  14  19  14
M  END
>  <minimizedAffinity>  (1) 
-4.441401

>  <minimizedRMSD>  (1) 
1.71477711

$$$$
