
     RDKit          3D

 25 25  0  0  0  0  0  0  0  0999 V2000
   48.3630   35.0930   41.1550 C   0  0  0  0  0  0  0  0  0  0  0  0
   47.6470   34.4090   42.1630 C   0  0  0  0  0  0  0  0  0  0  0  0
   46.8490   33.3210   41.7790 C   0  0  0  0  0  0  0  0  0  0  0  0
   46.8070   32.9900   40.4650 N   0  0  0  0  0  0  0  0  0  0  0  0
   47.5100   33.6740   39.5330 C   0  0  0  0  0  0  0  0  0  0  0  0
   48.2890   34.7260   39.8640 N   0  0  0  0  0  0  0  0  0  0  0  0
   49.2110   36.2510   41.5850 C   0  0  0  0  0  0  0  0  0  0  0  0
   47.3950   33.2290   38.1190 C   0  0  0  0  0  0  0  0  0  0  0  0
   48.0560   34.2430   37.2240 C   0  0  0  0  0  0  0  0  0  0  0  0
   45.9300   33.1160   37.6890 C   0  0  0  0  0  0  0  0  0  0  0  0
   48.0250   31.8860   37.8820 C   0  0  0  0  0  0  0  0  0  0  0  0
   47.7133   34.7200   43.2160 H   0  0  0  0  0  0  0  0  0  0  0  0
   46.2731   32.7520   42.5237 H   0  0  0  0  0  0  0  0  0  0  0  0
   49.2427   36.2942   42.6837 H   0  0  0  0  0  0  0  0  0  0  0  0
   50.2311   36.1238   41.1935 H   0  0  0  0  0  0  0  0  0  0  0  0
   48.7818   37.1851   41.1935 H   0  0  0  0  0  0  0  0  0  0  0  0
   48.5537   35.0065   37.8399 H   0  0  0  0  0  0  0  0  0  0  0  0
   48.8010   33.7412   36.5891 H   0  0  0  0  0  0  0  0  0  0  0  0
   47.2962   34.7222   36.5891 H   0  0  0  0  0  0  0  0  0  0  0  0
   45.2887   33.0665   38.5814 H   0  0  0  0  0  0  0  0  0  0  0  0
   45.6553   33.9956   37.0883 H   0  0  0  0  0  0  0  0  0  0  0  0
   45.7934   32.2047   37.0883 H   0  0  0  0  0  0  0  0  0  0  0  0
   48.2483   31.4101   38.8483 H   0  0  0  0  0  0  0  0  0  0  0  0
   47.3309   31.2508   37.3121 H   0  0  0  0  0  0  0  0  0  0  0  0
   48.9572   32.0137   37.3121 H   0  0  0  0  0  0  0  0  0  0  0  0
  1  7  1  0
  1  2  2  0
  3  2  1  0
  4  3  2  0
  5  6  2  0
  5  4  1  0
  6  1  1  0
  8  5  1  0
  9  8  1  0
 10  8  1  0
 11  8  1  0
  2 12  1  0
  3 13  1  0
  7 14  1  0
  7 15  1  0
  7 16  1  0
  9 17  1  0
  9 18  1  0
  9 19  1  0
 10 20  1  0
 10 21  1  0
 10 22  1  0
 11 23  1  0
 11 24  1  0
 11 25  1  0
M  ISO  8  12  14  13  14  14   8  15   8  16   8  17   8  18   8  19   8
M  ISO  6  20   8  21   8  22   8  23   8  24   8  25   8
M  END
>  <minimizedAffinity>  (1) 
-3.24331212

>  <minimizedRMSD>  (1) 
6.60227633

$$$$
