
     RDKit          3D

 15 15  0  0  0  0  0  0  0  0999 V2000
   48.0810   35.2090   41.4160 C   0  0  0  0  0  0  0  0  0  0  0  0
   48.0840   34.5040   40.2070 C   0  0  0  0  0  0  0  0  0  0  0  0
   46.9310   33.8050   39.8360 C   0  0  0  0  0  0  0  0  0  0  0  0
   45.8550   33.8420   40.6730 N   0  0  0  0  0  0  0  0  0  0  0  0
   45.8940   34.5340   41.8300 C   0  0  0  0  0  0  0  0  0  0  0  0
   46.9820   35.2180   42.2190 N   0  0  0  0  0  0  0  0  0  0  0  0
   49.3080   35.9470   41.7990 C   0  0  0  0  0  0  0  0  0  0  0  0
   44.6820   34.5040   42.6460 C   0  0  0  0  0  0  0  0  0  0  0  0
   44.5420   35.3720   43.5470 O   0  0  0  0  0  0  0  0  0  0  0  0
   48.9749   34.4998   39.5619 H   0  0  0  0  0  0  0  0  0  0  0  0
   46.8930   33.2398   38.8931 H   0  0  0  0  0  0  0  0  0  0  0  0
   49.3819   35.9914   42.8956 H   0  0  0  0  0  0  0  0  0  0  0  0
   50.1893   35.4290   41.3928 H   0  0  0  0  0  0  0  0  0  0  0  0
   49.2634   36.9683   41.3928 H   0  0  0  0  0  0  0  0  0  0  0  0
   43.9091   33.7398   42.4767 H   0  0  0  0  0  0  0  0  0  0  0  0
  1  7  1  0
  1  6  2  0
  2  1  1  0
  3  2  2  0
  3  4  1  0
  4  5  2  0
  5  6  1  0
  5  8  1  0
  8  9  2  0
  2 10  1  0
  3 11  1  0
  7 12  1  0
  7 13  1  0
  7 14  1  0
  8 15  1  0
M  ISO  6  10  14  11  14  12   8  13   8  14   8  15   6
M  END
>  <minimizedAffinity>  (1) 
-3.14703918

>  <minimizedRMSD>  (1) 
3.74161029

$$$$
