
     RDKit          3D

 36 39  0  0  1  0  0  0  0  0999 V2000
   43.3850   34.4550   41.6720 C   0  0  1  0  0  0  0  0  0  0  0  0
   42.6410   35.7420   41.2960 C   0  0  0  0  0  0  0  0  0  0  0  0
   42.4610   34.4940   40.5080 C   0  0  2  0  0  0  0  0  0  0  0  0
   41.2390   33.6640   40.6490 C   0  0  0  0  0  0  0  0  0  0  0  0
   40.9710   32.8380   41.7220 C   0  0  0  0  0  0  0  0  0  0  0  0
   39.8250   32.0780   41.8230 C   0  0  0  0  0  0  0  0  0  0  0  0
   38.9200   32.1860   40.7600 C   0  0  0  0  0  0  0  0  0  0  0  0
   39.1540   33.0010   39.6690 C   0  0  0  0  0  0  0  0  0  0  0  0
   38.2300   33.0690   38.6490 C   0  0  0  0  0  0  0  0  0  0  0  0
   38.4240   33.8600   37.5600 C   0  0  0  0  0  0  0  0  0  0  0  0
   39.5800   34.6070   37.4890 C   0  0  0  0  0  0  0  0  0  0  0  0
   40.5120   34.5470   38.5040 C   0  0  0  0  0  0  0  0  0  0  0  0
   40.3230   33.7400   39.6240 C   0  0  0  0  0  0  0  0  0  0  0  0
   46.6630   33.9090   40.1100 C   0  0  0  0  0  0  0  0  0  0  0  0
   47.5620   34.4680   41.0420 C   0  0  0  0  0  0  0  0  0  0  0  0
   47.0200   35.0470   42.2110 C   0  0  0  0  0  0  0  0  0  0  0  0
   45.6670   35.0260   42.3620 N   0  0  0  0  0  0  0  0  0  0  0  0
   44.8530   34.4820   41.4460 C   0  0  0  0  0  0  0  0  0  0  0  0
   45.3330   33.9110   40.2990 N   0  0  0  0  0  0  0  0  0  0  0  0
   47.2510   33.2870   38.8900 C   0  0  0  0  0  0  0  0  0  0  0  0
   43.4731   33.7978   42.5497 H   0  0  0  0  0  0  0  0  0  0  0  0
   41.8261   36.1158   41.9333 H   0  0  0  0  0  0  0  0  0  0  0  0
   42.9325   36.7779   41.0680 H   0  0  0  0  0  0  0  0  0  0  0  0
   42.5231   34.2992   39.4272 H   0  0  0  0  0  0  0  0  0  0  0  0
   41.7081   32.7834   42.5367 H   0  0  0  0  0  0  0  0  0  0  0  0
   39.6330   31.4255   42.6875 H   0  0  0  0  0  0  0  0  0  0  0  0
   37.9892   31.6009   40.7947 H   0  0  0  0  0  0  0  0  0  0  0  0
   37.3114   32.4677   38.7174 H   0  0  0  0  0  0  0  0  0  0  0  0
   37.6759   33.9026   36.7547 H   0  0  0  0  0  0  0  0  0  0  0  0
   39.7603   35.2545   36.6182 H   0  0  0  0  0  0  0  0  0  0  0  0
   41.4277   35.1516   38.4273 H   0  0  0  0  0  0  0  0  0  0  0  0
   48.6475   34.4536   40.8647 H   0  0  0  0  0  0  0  0  0  0  0  0
   47.6698   35.5000   42.9743 H   0  0  0  0  0  0  0  0  0  0  0  0
   47.9789   32.5170   39.1855 H   0  0  0  0  0  0  0  0  0  0  0  0
   46.4514   32.8254   38.2920 H   0  0  0  0  0  0  0  0  0  0  0  0
   47.7567   34.0594   38.2920 H   0  0  0  0  0  0  0  0  0  0  0  0
  2  1  1  0
  3  4  1  0
  3  2  1  0
  3  1  1  0
  4  5  2  0
  5  6  1  0
  7  6  2  0
  8  7  1  0
  9  8  2  0
 10  9  1  0
 11 10  2  0
 11 12  1  0
 12 13  2  0
 13  8  1  0
 13  4  1  0
 14 19  2  0
 14 15  1  0
 15 16  2  0
 16 17  1  0
 18  1  1  0
 18 17  2  0
 19 18  1  0
 20 14  1  0
  1 21  1  1
  2 22  1  0
  2 23  1  0
  3 24  1  6
  5 25  1  0
  6 26  1  0
  7 27  1  0
  9 28  1  0
 10 29  1  0
 11 30  1  0
 12 31  1  0
 15 32  1  0
 16 33  1  0
 20 34  1  0
 20 35  1  0
 20 36  1  0
M  ISO  8  21  13  22  13  23  13  24  13  25  14  26  14  27  14  28  14
M  ISO  8  29  14  30  14  31  14  32  14  33  14  34   8  35   8  36   8
M  END
>  <minimizedAffinity>  (1) 
-5.92777681

>  <minimizedRMSD>  (1) 
2.42879534

$$$$
