
     RDKit          3D

 30 32  0  0  1  0  0  0  0  0999 V2000
   41.9920   34.8120   41.4790 C   0  0  1  0  0  0  0  0  0  0  0  0
   41.2600   36.1560   41.4100 C   0  0  0  0  0  0  0  0  0  0  0  0
   41.4620   35.3280   40.1900 C   0  0  2  0  0  0  0  0  0  0  0  0
   40.3220   34.6960   39.4990 C   0  0  0  0  0  0  0  0  0  0  0  0
   40.2030   34.7230   38.1110 C   0  0  0  0  0  0  0  0  0  0  0  0
   39.1350   34.1300   37.4680 C   0  0  0  0  0  0  0  0  0  0  0  0
   38.1520   33.4920   38.1960 C   0  0  0  0  0  0  0  0  0  0  0  0
   38.2490   33.4530   39.5730 C   0  0  0  0  0  0  0  0  0  0  0  0
   39.3250   34.0500   40.2200 C   0  0  0  0  0  0  0  0  0  0  0  0
   45.6110   34.3910   41.0670 C   0  0  0  0  0  0  0  0  0  0  0  0
   46.1520   35.0060   42.2040 C   0  0  0  0  0  0  0  0  0  0  0  0
   45.2410   35.5890   43.1300 C   0  0  0  0  0  0  0  0  0  0  0  0
   43.9180   35.5110   42.8510 N   0  0  0  0  0  0  0  0  0  0  0  0
   43.4530   34.9090   41.7470 C   0  0  0  0  0  0  0  0  0  0  0  0
   44.2820   34.3330   40.8240 N   0  0  0  0  0  0  0  0  0  0  0  0
   46.5760   33.7710   40.1140 C   0  0  0  0  0  0  0  0  0  0  0  0
   41.8835   33.8601   42.0195 H   0  0  0  0  0  0  0  0  0  0  0  0
   40.2558   36.2618   41.8465 H   0  0  0  0  0  0  0  0  0  0  0  0
   41.4916   37.1908   41.7024 H   0  0  0  0  0  0  0  0  0  0  0  0
   41.9098   35.5059   39.2011 H   0  0  0  0  0  0  0  0  0  0  0  0
   40.9771   35.2279   37.5145 H   0  0  0  0  0  0  0  0  0  0  0  0
   39.0675   34.1663   36.3707 H   0  0  0  0  0  0  0  0  0  0  0  0
   37.3001   33.0195   37.6851 H   0  0  0  0  0  0  0  0  0  0  0  0
   37.4700   32.9464   40.1616 H   0  0  0  0  0  0  0  0  0  0  0  0
   39.3880   34.0105   41.3175 H   0  0  0  0  0  0  0  0  0  0  0  0
   47.2383   35.0371   42.3745 H   0  0  0  0  0  0  0  0  0  0  0  0
   45.6002   36.0868   44.0428 H   0  0  0  0  0  0  0  0  0  0  0  0
   47.3709   33.2603   40.6774 H   0  0  0  0  0  0  0  0  0  0  0  0
   46.0490   33.0421   39.4808 H   0  0  0  0  0  0  0  0  0  0  0  0
   47.0200   34.5533   39.4808 H   0  0  0  0  0  0  0  0  0  0  0  0
  1 14  1  0
  2  1  1  0
  3  2  1  0
  3  1  1  0
  4  3  1  0
  4  9  1  0
  5  4  2  0
  6  5  1  0
  6  7  2  0
  7  8  1  0
  8  9  2  0
 10 11  2  0
 11 12  1  0
 13 12  2  0
 14 13  1  0
 15 10  1  0
 15 14  2  0
 16 10  1  0
  1 17  1  1
  2 18  1  0
  2 19  1  0
  3 20  1  6
  5 21  1  0
  6 22  1  0
  7 23  1  0
  8 24  1  0
  9 25  1  0
 11 26  1  0
 12 27  1  0
 16 28  1  0
 16 29  1  0
 16 30  1  0
M  ISO  8  17  13  18  13  19  13  20  13  21  14  22  14  23  14  24  14
M  ISO  6  25  14  26  14  27  14  28   8  29   8  30   8
M  END
>  <minimizedAffinity>  (1) 
-5.53467607

>  <minimizedRMSD>  (1) 
2.40083337

$$$$
