
     RDKit          3D

 33 35  0  0  1  0  0  0  0  0999 V2000
   42.4810   34.4750   41.3360 C   0  0  1  0  0  0  0  0  0  0  0  0
   41.5400   35.6110   41.7640 C   0  0  0  0  0  0  0  0  0  0  0  0
   41.8500   35.3750   40.3370 C   0  0  2  0  0  0  0  0  0  0  0  0
   40.8770   34.8550   39.4000 N   0  0  0  0  0  0  0  0  0  0  0  0
   40.1120   33.8730   39.9310 C   0  0  0  0  0  0  0  0  0  0  0  0
   39.1250   33.2460   39.2010 C   0  0  0  0  0  0  0  0  0  0  0  0
   38.2680   32.1720   39.7370 C   0  0  0  0  0  0  0  0  0  0  0  0
   38.9840   33.7040   37.8870 C   0  0  0  0  0  0  0  0  0  0  0  0
   38.0770   33.1380   37.1930 O   0  0  0  0  0  0  0  0  0  0  0  0
   39.7510   34.6740   37.3870 N   0  0  0  0  0  0  0  0  0  0  0  0
   40.7080   35.2670   38.1300 C   0  0  0  0  0  0  0  0  0  0  0  0
   41.4630   36.1840   37.7220 O   0  0  0  0  0  0  0  0  0  0  0  0
   46.1630   34.5070   41.1220 C   0  0  0  0  0  0  0  0  0  0  0  0
   46.5520   35.0390   42.3700 C   0  0  0  0  0  0  0  0  0  0  0  0
   45.5180   35.3930   43.2840 C   0  0  0  0  0  0  0  0  0  0  0  0
   44.2340   35.2000   42.9060 N   0  0  0  0  0  0  0  0  0  0  0  0
   43.9030   34.6910   41.7070 C   0  0  0  0  0  0  0  0  0  0  0  0
   44.8710   34.3400   40.8050 N   0  0  0  0  0  0  0  0  0  0  0  0
   47.2410   34.1300   40.1810 C   0  0  0  0  0  0  0  0  0  0  0  0
   42.5398   33.3817   41.4417 H   0  0  0  0  0  0  0  0  0  0  0  0
   40.5389   35.3809   42.1576 H   0  0  0  0  0  0  0  0  0  0  0  0
   41.6080   36.4687   42.4493 H   0  0  0  0  0  0  0  0  0  0  0  0
   42.2208   36.0287   39.5338 H   0  0  0  0  0  0  0  0  0  0  0  0
   40.2825   33.5668   40.9737 H   0  0  0  0  0  0  0  0  0  0  0  0
   38.2900   32.1996   40.8364 H   0  0  0  0  0  0  0  0  0  0  0  0
   37.2354   32.3179   39.3872 H   0  0  0  0  0  0  0  0  0  0  0  0
   38.6394   31.1975   39.3872 H   0  0  0  0  0  0  0  0  0  0  0  0
   39.6095   34.9767   36.4127 H   0  0  0  0  0  0  0  0  0  0  0  0
   47.6128   35.1751   42.6272 H   0  0  0  0  0  0  0  0  0  0  0  0
   45.7580   35.8127   44.2721 H   0  0  0  0  0  0  0  0  0  0  0  0
   48.1306   33.8189   40.7482 H   0  0  0  0  0  0  0  0  0  0  0  0
   46.9004   33.2976   39.5476 H   0  0  0  0  0  0  0  0  0  0  0  0
   47.4933   34.9932   39.5476 H   0  0  0  0  0  0  0  0  0  0  0  0
  1 17  1  0
  1  2  1  0
  3  1  1  0
  3  2  1  0
  4  5  1  0
  4  3  1  0
  6  7  1  0
  6  5  2  0
  8  6  1  0
  9  8  2  0
 10  8  1  0
 10 11  1  0
 11  4  1  0
 12 11  2  0
 13 14  2  0
 14 15  1  0
 16 15  2  0
 17 16  1  0
 18 13  1  0
 18 17  2  0
 19 13  1  0
  1 20  1  6
  2 21  1  0
  2 22  1  0
  3 23  1  6
  5 24  1  0
  7 25  1  0
  7 26  1  0
  7 27  1  0
 10 28  1  0
 14 29  1  0
 15 30  1  0
 19 31  1  0
 19 32  1  0
 19 33  1  0
M  ISO  8  20  13  21  13  22  13  23  13  24  14  25   8  26   8  27   8
M  ISO  6  28   9  29  14  30  14  31   8  32   8  33   8
M  END
>  <minimizedAffinity>  (1) 
-5.59774208

>  <minimizedRMSD>  (1) 
2.71058273

$$$$
