
     RDKit          3D

 33 35  0  0  1  0  0  0  0  0999 V2000
   45.5900   34.4430   41.1420 C   0  0  0  0  0  0  0  0  0  0  0  0
   45.9980   35.0790   42.3140 C   0  0  0  0  0  0  0  0  0  0  0  0
   44.9940   35.6090   43.1740 C   0  0  0  0  0  0  0  0  0  0  0  0
   43.6960   35.4620   42.7990 N   0  0  0  0  0  0  0  0  0  0  0  0
   43.3440   34.8430   41.6640 C   0  0  0  0  0  0  0  0  0  0  0  0
   44.2940   34.3280   40.8240 N   0  0  0  0  0  0  0  0  0  0  0  0
   41.9130   34.6730   41.3010 C   0  0  1  0  0  0  0  0  0  0  0  0
   41.1220   35.9770   41.1460 C   0  0  0  0  0  0  0  0  0  0  0  0
   41.4520   35.1480   39.9690 C   0  0  2  0  0  0  0  0  0  0  0  0
   40.4630   34.3250   39.2330 C   0  0  0  0  0  0  0  0  0  0  0  0
   39.1160   34.4410   39.9270 C   0  0  0  0  0  0  0  0  0  0  0  0
   38.3110   33.5530   38.9900 C   0  0  0  0  0  0  0  0  0  0  0  0
   38.7720   34.0320   37.6370 C   0  0  0  0  0  0  0  0  0  0  0  0
   40.1240   34.7270   37.8490 C   0  0  0  0  0  0  0  0  0  0  0  0
   46.6470   33.8840   40.2620 C   0  0  0  0  0  0  0  0  0  0  0  0
   47.0647   35.1688   42.5671 H   0  0  0  0  0  0  0  0  0  0  0  0
   45.2604   36.1204   44.1108 H   0  0  0  0  0  0  0  0  0  0  0  0
   41.8122   33.7279   41.8547 H   0  0  0  0  0  0  0  0  0  0  0  0
   40.0838   36.0390   41.5042 H   0  0  0  0  0  0  0  0  0  0  0  0
   41.2803   37.0271   41.4327 H   0  0  0  0  0  0  0  0  0  0  0  0
   41.9197   35.4003   39.0059 H   0  0  0  0  0  0  0  0  0  0  0  0
   40.9519   33.3398   39.2129 H   0  0  0  0  0  0  0  0  0  0  0  0
   39.1419   34.0465   40.9535 H   0  0  0  0  0  0  0  0  0  0  0  0
   38.7340   35.4630   40.0668 H   0  0  0  0  0  0  0  0  0  0  0  0
   38.5507   32.4902   39.1414 H   0  0  0  0  0  0  0  0  0  0  0  0
   37.2232   33.6199   39.1388 H   0  0  0  0  0  0  0  0  0  0  0  0
   38.0432   34.7414   37.2180 H   0  0  0  0  0  0  0  0  0  0  0  0
   38.8662   33.1926   36.9324 H   0  0  0  0  0  0  0  0  0  0  0  0
   40.8760   34.3654   37.1322 H   0  0  0  0  0  0  0  0  0  0  0  0
   40.0911   35.8162   37.6990 H   0  0  0  0  0  0  0  0  0  0  0  0
   47.4515   33.4586   40.8799 H   0  0  0  0  0  0  0  0  0  0  0  0
   46.2165   33.0957   39.6270 H   0  0  0  0  0  0  0  0  0  0  0  0
   47.0562   34.6836   39.6270 H   0  0  0  0  0  0  0  0  0  0  0  0
  1  2  2  0
  2  3  1  0
  4  3  2  0
  5  4  1  0
  6  1  1  0
  6  5  2  0
  7  5  1  0
  8  7  1  0
  9  8  1  0
  9  7  1  0
 10 11  1  0
 10  9  1  0
 12 11  1  0
 13 14  1  0
 13 12  1  0
 14 10  1  0
 15  1  1  0
  2 16  1  0
  3 17  1  0
  7 18  1  1
  8 19  1  0
  8 20  1  0
  9 21  1  6
 10 22  1  0
 11 23  1  0
 11 24  1  0
 12 25  1  0
 12 26  1  0
 13 27  1  0
 13 28  1  0
 14 29  1  0
 14 30  1  0
 15 31  1  0
 15 32  1  0
 15 33  1  0
M  ISO  8  16  14  17  14  18  13  19  13  20  13  21  13  22  13  23  13
M  ISO  8  24  13  25  13  26  13  27  13  28  13  29  13  30  13  31   8
M  ISO  2  32   8  33   8
M  END
>  <minimizedAffinity>  (1) 
-5.32141829

>  <minimizedRMSD>  (1) 
2.28214121

$$$$
