
     RDKit          3D

 27 29  0  0  1  0  0  0  0  0999 V2000
   43.6900   34.1640   41.5140 C   0  0  1  0  0  0  0  0  0  0  0  0
   42.7930   35.3680   41.8320 C   0  0  0  0  0  0  0  0  0  0  0  0
   43.3200   35.1420   40.4610 C   0  0  2  0  0  0  0  0  0  0  0  0
   47.2990   34.7460   41.8830 C   0  0  0  0  0  0  0  0  0  0  0  0
   47.5750   34.3240   43.1890 C   0  0  0  0  0  0  0  0  0  0  0  0
   46.4790   33.8370   43.9580 C   0  0  0  0  0  0  0  0  0  0  0  0
   45.2560   33.8100   43.3900 N   0  0  0  0  0  0  0  0  0  0  0  0
   45.0440   34.2320   42.1200 C   0  0  0  0  0  0  0  0  0  0  0  0
   46.0650   34.7070   41.3470 N   0  0  0  0  0  0  0  0  0  0  0  0
   48.4560   35.2320   41.0990 C   0  0  0  0  0  0  0  0  0  0  0  0
   42.3050   34.8190   39.4330 C   0  0  0  0  0  0  0  0  0  0  0  0
   41.1690   35.5690   39.1120 C   0  0  0  0  0  0  0  0  0  0  0  0
   40.4830   34.9120   38.0900 C   0  0  0  0  0  0  0  0  0  0  0  0
   41.2200   33.7990   37.8290 N   0  0  0  0  0  0  0  0  0  0  0  0
   42.2730   33.7690   38.6230 N   0  0  0  0  0  0  0  0  0  0  0  0
   43.6326   33.0677   41.5834 H   0  0  0  0  0  0  0  0  0  0  0  0
   41.7240   35.2205   42.0451 H   0  0  0  0  0  0  0  0  0  0  0  0
   42.8183   36.1959   42.5558 H   0  0  0  0  0  0  0  0  0  0  0  0
   43.9305   35.7018   39.7372 H   0  0  0  0  0  0  0  0  0  0  0  0
   48.5932   34.3666   43.6032 H   0  0  0  0  0  0  0  0  0  0  0  0
   46.6269   33.4908   44.9916 H   0  0  0  0  0  0  0  0  0  0  0  0
   49.2493   35.5652   41.7843 H   0  0  0  0  0  0  0  0  0  0  0  0
   48.8372   34.4180   40.4649 H   0  0  0  0  0  0  0  0  0  0  0  0
   48.1416   36.0741   40.4649 H   0  0  0  0  0  0  0  0  0  0  0  0
   40.8677   36.5155   39.5847 H   0  0  0  0  0  0  0  0  0  0  0  0
   39.5488   35.2260   37.6014 H   0  0  0  0  0  0  0  0  0  0  0  0
   40.9909   33.0881   37.1197 H   0  0  0  0  0  0  0  0  0  0  0  0
  1  2  1  0
  1  8  1  0
  3  1  1  0
  3  2  1  0
  4  5  2  0
  5  6  1  0
  7  6  2  0
  8  7  1  0
  9  4  1  0
  9  8  2  0
 10  4  1  0
 11  3  1  0
 12 11  1  0
 13 12  2  0
 14 13  1  0
 14 15  1  0
 15 11  2  0
  1 16  1  6
  2 17  1  0
  2 18  1  0
  3 19  1  6
  5 20  1  0
  6 21  1  0
 10 22  1  0
 10 23  1  0
 10 24  1  0
 12 25  1  0
 13 26  1  0
 14 27  1  0
M  ISO  8  16  13  17  13  18  13  19  13  20  14  21  14  22   8  23   8
M  ISO  4  24   8  25  14  26  14  27   9
M  END
>  <minimizedAffinity>  (1) 
-4.76617813

>  <minimizedRMSD>  (1) 
2.00619531

$$$$
