
     RDKit          3D

 23 24  0  0  1  0  0  0  0  0999 V2000
   46.1170   34.6460   41.8610 C   0  0  0  0  0  0  0  0  0  0  0  0
   45.9620   35.1050   43.1870 C   0  0  0  0  0  0  0  0  0  0  0  0
   44.6720   35.5610   43.5820 C   0  0  0  0  0  0  0  0  0  0  0  0
   43.6830   35.5240   42.6570 N   0  0  0  0  0  0  0  0  0  0  0  0
   43.8790   35.0800   41.4070 C   0  0  0  0  0  0  0  0  0  0  0  0
   45.1030   34.6330   40.9900 N   0  0  0  0  0  0  0  0  0  0  0  0
   42.7580   35.0260   40.4290 C   0  0  1  0  0  0  0  0  0  0  0  0
   41.9070   33.7510   40.4890 C   0  0  0  0  0  0  0  0  0  0  0  0
   41.3600   35.0570   40.9310 C   0  0  2  0  0  0  0  0  0  0  0  0
   40.2910   35.7900   40.1880 C   0  0  0  0  0  0  0  0  0  0  0  0
   40.8640   36.2050   38.9800 F   0  0  0  0  0  0  0  0  0  0  0  0
   39.2130   34.9820   39.9120 F   0  0  0  0  0  0  0  0  0  0  0  0
   39.9590   36.9430   40.8720 F   0  0  0  0  0  0  0  0  0  0  0  0
   47.4640   34.1630   41.4810 C   0  0  0  0  0  0  0  0  0  0  0  0
   46.8078   35.1102   43.8903 H   0  0  0  0  0  0  0  0  0  0  0  0
   44.4854   35.9299   44.6014 H   0  0  0  0  0  0  0  0  0  0  0  0
   43.3063   35.5974   39.6656 H   0  0  0  0  0  0  0  0  0  0  0  0
   41.5435   33.2848   39.5614 H   0  0  0  0  0  0  0  0  0  0  0  0
   42.0188   32.7545   40.9412 H   0  0  0  0  0  0  0  0  0  0  0  0
   40.8736   35.3932   41.8586 H   0  0  0  0  0  0  0  0  0  0  0  0
   48.0481   33.9535   42.3892 H   0  0  0  0  0  0  0  0  0  0  0  0
   47.3692   33.2429   40.8857 H   0  0  0  0  0  0  0  0  0  0  0  0
   47.9755   34.9337   40.8857 H   0  0  0  0  0  0  0  0  0  0  0  0
  1  2  2  0
  2  3  1  0
  4  3  2  0
  5  4  1  0
  6  5  2  0
  6  1  1  0
  7  8  1  0
  7  9  1  0
  7  5  1  0
  8  9  1  0
 10 13  1  0
 10  9  1  0
 11 10  1  0
 12 10  1  0
 14  1  1  0
  2 15  1  0
  3 16  1  0
  7 17  1  6
  8 18  1  0
  8 19  1  0
  9 20  1  1
 14 21  1  0
 14 22  1  0
 14 23  1  0
M  ISO  8  15  14  16  14  17  13  18  13  19  13  20  13  21   8  22   8
M  ISO  1  23   8
M  END
>  <minimizedAffinity>  (1) 
-4.80730963

>  <minimizedRMSD>  (1) 
2.7209456

$$$$
