
     RDKit          3D

 28 30  0  0  1  0  0  0  0  0999 V2000
   40.7260   35.7080   39.6720 C   0  0  1  0  0  0  0  0  0  0  0  0
   39.9660   34.9190   38.5950 C   0  0  0  0  0  0  0  0  0  0  0  0
   39.4760   34.9840   40.0000 C   0  0  1  0  0  0  0  0  0  0  0  0
   43.8150   35.1620   41.5610 C   0  0  0  0  0  0  0  0  0  0  0  0
   44.4990   34.2010   40.7920 C   0  0  0  0  0  0  0  0  0  0  0  0
   43.8930   33.7270   39.6180 C   0  0  0  0  0  0  0  0  0  0  0  0
   42.6760   34.2320   39.3000 N   0  0  0  0  0  0  0  0  0  0  0  0
   42.0510   35.1470   40.0540 C   0  0  0  0  0  0  0  0  0  0  0  0
   42.6190   35.6100   41.1820 N   0  0  0  0  0  0  0  0  0  0  0  0
   44.5010   35.6430   42.7780 C   0  0  0  0  0  0  0  0  0  0  0  0
   39.4410   33.6720   40.6800 C   0  0  0  0  0  0  0  0  0  0  0  0
   38.4640   32.8010   40.1810 C   0  0  0  0  0  0  0  0  0  0  0  0
   38.2890   31.5120   40.6890 C   0  0  0  0  0  0  0  0  0  0  0  0
   39.0750   31.0740   41.6910 N   0  0  0  0  0  0  0  0  0  0  0  0
   39.9920   31.9120   42.1490 C   0  0  0  0  0  0  0  0  0  0  0  0
   40.1710   33.1490   41.6720 N   0  0  0  0  0  0  0  0  0  0  0  0
   41.0622   36.7419   39.8392 H   0  0  0  0  0  0  0  0  0  0  0  0
   39.4281   35.4498   37.7957 H   0  0  0  0  0  0  0  0  0  0  0  0
   40.2157   34.1158   37.8861 H   0  0  0  0  0  0  0  0  0  0  0  0
   38.5850   35.3270   40.5464 H   0  0  0  0  0  0  0  0  0  0  0  0
   45.4863   33.8300   41.1044 H   0  0  0  0  0  0  0  0  0  0  0  0
   44.3855   32.9766   38.9822 H   0  0  0  0  0  0  0  0  0  0  0  0
   43.9718   35.2719   43.6681 H   0  0  0  0  0  0  0  0  0  0  0  0
   45.5366   35.2722   42.7860 H   0  0  0  0  0  0  0  0  0  0  0  0
   44.5053   36.7430   42.7860 H   0  0  0  0  0  0  0  0  0  0  0  0
   37.8136   33.1434   39.3626 H   0  0  0  0  0  0  0  0  0  0  0  0
   37.5109   30.8559   40.2717 H   0  0  0  0  0  0  0  0  0  0  0  0
   40.6433   31.5720   42.9677 H   0  0  0  0  0  0  0  0  0  0  0  0
  1  3  1  0
  1  8  1  0
  2  1  1  0
  2  3  1  0
  3 11  1  0
  4 10  1  0
  5  4  2  0
  6  5  1  0
  7  6  2  0
  7  8  1  0
  8  9  2  0
  9  4  1  0
 11 16  1  0
 12 11  2  0
 12 13  1  0
 13 14  2  0
 14 15  1  0
 16 15  2  0
  1 17  1  6
  2 18  1  0
  2 19  1  0
  3 20  1  6
  5 21  1  0
  6 22  1  0
 10 23  1  0
 10 24  1  0
 10 25  1  0
 12 26  1  0
 13 27  1  0
 15 28  1  0
M  ISO  8  17  13  18  13  19  13  20  13  21  14  22  14  23   8  24   8
M  ISO  4  25   8  26  14  27  14  28  14
M  END
>  <minimizedAffinity>  (1) 
-5.03491068

>  <minimizedRMSD>  (1) 
5.39338589

$$$$
