
     RDKit          3D

 27 29  0  0  1  0  0  0  0  0999 V2000
   40.7550   35.7350   40.3430 C   0  0  1  0  0  0  0  0  0  0  0  0
   40.1000   35.0880   39.1230 C   0  0  0  0  0  0  0  0  0  0  0  0
   39.6020   34.8160   40.4760 C   0  0  1  0  0  0  0  0  0  0  0  0
   43.9110   35.2490   42.1520 C   0  0  0  0  0  0  0  0  0  0  0  0
   44.6810   34.4790   41.2640 C   0  0  0  0  0  0  0  0  0  0  0  0
   44.0910   34.1190   40.0230 C   0  0  0  0  0  0  0  0  0  0  0  0
   42.8270   34.5360   39.7660 N   0  0  0  0  0  0  0  0  0  0  0  0
   42.1250   35.2730   40.6460 C   0  0  0  0  0  0  0  0  0  0  0  0
   42.6700   35.6250   41.8320 N   0  0  0  0  0  0  0  0  0  0  0  0
   44.5240   35.6270   43.4440 C   0  0  0  0  0  0  0  0  0  0  0  0
   39.7240   33.4180   40.9330 C   0  0  0  0  0  0  0  0  0  0  0  0
   39.7530   32.1770   40.3310 C   0  0  0  0  0  0  0  0  0  0  0  0
   39.8920   31.1840   41.2250 N   0  0  0  0  0  0  0  0  0  0  0  0
   39.9570   31.7680   42.4350 C   0  0  0  0  0  0  0  0  0  0  0  0
   39.8560   33.0890   42.2540 N   0  0  0  0  0  0  0  0  0  0  0  0
   40.9639   36.7476   40.7186 H   0  0  0  0  0  0  0  0  0  0  0  0
   39.5045   35.6977   38.4276 H   0  0  0  0  0  0  0  0  0  0  0  0
   40.4503   34.4743   38.2800 H   0  0  0  0  0  0  0  0  0  0  0  0
   38.6573   34.9270   41.0285 H   0  0  0  0  0  0  0  0  0  0  0  0
   45.7039   34.1662   41.5206 H   0  0  0  0  0  0  0  0  0  0  0  0
   44.6461   33.5167   39.2887 H   0  0  0  0  0  0  0  0  0  0  0  0
   43.9049   35.2452   44.2692 H   0  0  0  0  0  0  0  0  0  0  0  0
   45.5329   35.1940   43.5118 H   0  0  0  0  0  0  0  0  0  0  0  0
   44.5901   36.7229   43.5118 H   0  0  0  0  0  0  0  0  0  0  0  0
   39.6718   32.0190   39.2454 H   0  0  0  0  0  0  0  0  0  0  0  0
   40.0724   31.2519   43.3995 H   0  0  0  0  0  0  0  0  0  0  0  0
   39.8753   33.7779   43.0195 H   0  0  0  0  0  0  0  0  0  0  0  0
  1  3  1  0
  1  8  1  0
  2  1  1  0
  2  3  1  0
  3 11  1  0
  4 10  1  0
  5  4  2  0
  6  5  1  0
  7  6  2  0
  7  8  1  0
  8  9  2  0
  9  4  1  0
 11 15  1  0
 12 11  2  0
 12 13  1  0
 13 14  2  0
 15 14  1  0
  1 16  1  6
  2 17  1  0
  2 18  1  0
  3 19  1  6
  5 20  1  0
  6 21  1  0
 10 22  1  0
 10 23  1  0
 10 24  1  0
 12 25  1  0
 14 26  1  0
 15 27  1  0
M  ISO  8  16  13  17  13  18  13  19  13  20  14  21  14  22   8  23   8
M  ISO  4  24   8  25  14  26  14  27   9
M  END
>  <minimizedAffinity>  (1) 
-4.5747447

>  <minimizedRMSD>  (1) 
4.83876705

$$$$
