
     RDKit          3D

 33 35  0  0  1  0  0  0  0  0999 V2000
   42.3590   34.2590   40.8100 C   0  0  1  0  0  0  0  0  0  0  0  0
   41.6780   35.3690   39.9970 C   0  0  0  0  0  0  0  0  0  0  0  0
   42.2750   34.1800   39.3290 C   0  0  2  0  0  0  0  0  0  0  0  0
   45.9670   34.6320   41.3820 C   0  0  0  0  0  0  0  0  0  0  0  0
   46.0350   35.3420   42.5770 C   0  0  0  0  0  0  0  0  0  0  0  0
   44.8140   35.7150   43.2050 C   0  0  0  0  0  0  0  0  0  0  0  0
   43.6640   35.3510   42.5940 N   0  0  0  0  0  0  0  0  0  0  0  0
   43.6460   34.6640   41.4380 C   0  0  0  0  0  0  0  0  0  0  0  0
   44.8080   34.2960   40.8160 N   0  0  0  0  0  0  0  0  0  0  0  0
   47.2680   34.2420   40.7600 C   0  0  0  0  0  0  0  0  0  0  0  0
   39.8640   31.2330   37.4160 C   0  0  0  0  0  0  0  0  0  0  0  0
   41.2420   31.0420   37.5060 C   0  0  0  0  0  0  0  0  0  0  0  0
   41.9800   32.0270   38.1360 C   0  0  0  0  0  0  0  0  0  0  0  0
   41.4060   33.1760   38.6700 C   0  0  0  0  0  0  0  0  0  0  0  0
   40.0590   33.3380   38.5680 C   0  0  0  0  0  0  0  0  0  0  0  0
   39.2910   32.3680   37.9420 C   0  0  0  0  0  0  0  0  0  0  0  0
   38.9680   29.9680   36.6140 S   0  0  0  0  0  0  0  0  0  0  0  0
   38.0920   29.2280   37.5850 O   0  0  0  0  0  0  0  0  0  0  0  0
   38.1830   30.5860   35.4930 O   0  0  0  0  0  0  0  0  0  0  0  0
   42.0910   33.5667   41.6218 H   0  0  0  0  0  0  0  0  0  0  0  0
   40.5855   35.4918   40.0351 H   0  0  0  0  0  0  0  0  0  0  0  0
   41.7929   36.4593   39.9077 H   0  0  0  0  0  0  0  0  0  0  0  0
   43.0179   34.0407   38.5298 H   0  0  0  0  0  0  0  0  0  0  0  0
   47.0048   35.6072   43.0232 H   0  0  0  0  0  0  0  0  0  0  0  0
   44.8059   36.2774   44.1504 H   0  0  0  0  0  0  0  0  0  0  0  0
   48.0010   34.0223   41.5502 H   0  0  0  0  0  0  0  0  0  0  0  0
   47.1226   33.3479   40.1359 H   0  0  0  0  0  0  0  0  0  0  0  0
   47.6384   35.0686   40.1359 H   0  0  0  0  0  0  0  0  0  0  0  0
   41.7230   30.1434   37.0923 H   0  0  0  0  0  0  0  0  0  0  0  0
   43.0691   31.8962   38.2186 H   0  0  0  0  0  0  0  0  0  0  0  0
   39.5797   34.2375   38.9817 H   0  0  0  0  0  0  0  0  0  0  0  0
   38.2028   32.5086   37.8644 H   0  0  0  0  0  0  0  0  0  0  0  0
   39.8261   29.0353   36.0937 H   0  0  0  0  0  0  0  0  0  0  0  0
  1  8  1  0
  2  1  1  0
  3  2  1  0
  3  1  1  0
  4  5  2  0
  5  6  1  0
  7  6  2  0
  8  7  1  0
  9  4  1  0
  9  8  2  0
 10  4  1  0
 11 12  2  0
 11 16  1  0
 12 13  1  0
 13 14  2  0
 14  3  1  0
 15 14  1  0
 16 15  2  0
 17 11  1  0
 17 18  2  0
 19 17  2  0
  1 20  1  1
  2 21  1  0
  2 22  1  0
  3 23  1  6
  5 24  1  0
  6 25  1  0
 10 26  1  0
 10 27  1  0
 10 28  1  0
 12 29  1  0
 13 30  1  0
 15 31  1  0
 16 32  1  0
 17 33  1  0
M  ISO  8  20  13  21  13  22  13  23  13  24  14  25  14  26   8  27   8
M  ISO  6  28   8  29  14  30  14  31  14  32  14  33  11
M  END
>  <minimizedAffinity>  (1) 
-4.46972656

>  <minimizedRMSD>  (1) 
1.00284564

$$$$
