
     RDKit          3D

 25 26  0  0  1  0  0  0  0  0999 V2000
   43.2880   34.8070   41.6110 C   0  0  0  0  0  0  0  0  0  0  0  0
   43.4100   33.4140   41.6920 C   0  0  0  0  0  0  0  0  0  0  0  0
   42.4610   32.6220   40.9820 C   0  0  0  0  0  0  0  0  0  0  0  0
   41.5030   33.2620   40.2750 N   0  0  0  0  0  0  0  0  0  0  0  0
   41.4300   34.6130   40.2310 C   0  0  0  0  0  0  0  0  0  0  0  0
   42.3270   35.4000   40.9020 N   0  0  0  0  0  0  0  0  0  0  0  0
   40.3680   35.2730   39.4150 C   0  0  0  0  0  0  0  0  0  0  0  0
   39.7700   34.3730   38.3260 C   0  0  0  0  0  0  0  0  0  0  0  0
   38.9750   34.7580   39.5230 C   0  0  2  0  0  0  0  0  0  0  0  0
   38.6980   33.6550   40.4780 C   0  0  0  0  0  0  0  0  0  0  0  0
   38.1000   33.5770   39.3510 O   0  0  0  0  0  0  0  0  0  0  0  0
   38.3460   32.5710   41.2540 O   0  0  0  0  0  0  0  0  0  0  0  0
   44.2970   35.6060   42.3480 C   0  0  0  0  0  0  0  0  0  0  0  0
   44.2112   32.9469   42.2836 H   0  0  0  0  0  0  0  0  0  0  0  0
   42.5069   31.5233   41.0086 H   0  0  0  0  0  0  0  0  0  0  0  0
   39.5573   35.5855   40.0896 H   0  0  0  0  0  0  0  0  0  0  0  0
   40.8421   36.1225   38.9017 H   0  0  0  0  0  0  0  0  0  0  0  0
   39.5207   34.7905   37.3393 H   0  0  0  0  0  0  0  0  0  0  0  0
   40.0573   33.4248   37.8481 H   0  0  0  0  0  0  0  0  0  0  0  0
   39.1207   35.8355   39.6893 H   0  0  0  0  0  0  0  0  0  0  0  0
   37.8538   34.2257   40.8923 H   0  0  0  0  0  0  0  0  0  0  0  0
   38.4240   32.8112   42.2112 H   0  0  0  0  0  0  0  0  0  0  0  0
   44.1424   35.4836   43.4302 H   0  0  0  0  0  0  0  0  0  0  0  0
   45.3060   35.2594   42.0802 H   0  0  0  0  0  0  0  0  0  0  0  0
   44.1909   36.6676   42.0802 H   0  0  0  0  0  0  0  0  0  0  0  0
  1  2  2  0
  1 13  1  0
  3  2  1  0
  4  3  2  0
  5  4  1  0
  5  6  2  0
  6  1  1  0
  7  5  1  0
  8  7  1  0
  8  9  1  0
  9 10  1  0
 10 12  1  0
 11  9  1  0
 11 10  1  0
  2 14  1  0
  3 15  1  0
  7 16  1  0
  7 17  1  0
  8 18  1  0
  8 19  1  0
  9 20  1  6
 10 21  1  0
 12 22  1  0
 13 23  1  0
 13 24  1  0
 13 25  1  0
M  ISO  8  14  14  15  14  16   8  17   8  18   8  19   8  20  13  21  13
M  ISO  4  22   3  23   8  24   8  25   8
M  END
>  <minimizedAffinity>  (1) 
-4.4576354

>  <minimizedRMSD>  (1) 
4.54722738

$$$$
