
     RDKit          3D

 27 29  0  0  1  0  0  0  0  0999 V2000
   42.9630   34.9810   40.6010 C   0  0  0  0  0  0  0  0  0  0  0  0
   43.6520   34.1980   39.6500 C   0  0  0  0  0  0  0  0  0  0  0  0
   42.8930   33.6370   38.5840 C   0  0  0  0  0  0  0  0  0  0  0  0
   41.5630   33.8920   38.5550 N   0  0  0  0  0  0  0  0  0  0  0  0
   40.9520   34.6430   39.4820 C   0  0  0  0  0  0  0  0  0  0  0  0
   41.6490   35.1830   40.4980 N   0  0  0  0  0  0  0  0  0  0  0  0
   39.4950   34.9150   39.3940 C   0  0  1  0  0  0  0  0  0  0  0  0
   38.6980   33.9600   38.4950 C   0  0  0  0  0  0  0  0  0  0  0  0
   38.5260   33.9390   39.9690 C   0  0  1  0  0  0  0  0  0  0  0  0
   39.0210   32.7240   40.6560 C   0  0  0  0  0  0  0  0  0  0  0  0
   39.7230   32.4510   41.8000 C   0  0  0  0  0  0  0  0  0  0  0  0
   40.0070   31.1770   42.1810 C   0  0  0  0  0  0  0  0  0  0  0  0
   39.5380   30.0980   41.3240 C   0  0  0  0  0  0  0  0  0  0  0  0
   38.6610   31.0100   39.9370 S   0  0  0  0  0  0  0  0  0  0  0  0
   43.7720   35.5640   41.6950 C   0  0  0  0  0  0  0  0  0  0  0  0
   44.7358   34.0274   39.7295 H   0  0  0  0  0  0  0  0  0  0  0  0
   43.3704   33.0176   37.8104 H   0  0  0  0  0  0  0  0  0  0  0  0
   39.6349   36.0010   39.4987 H   0  0  0  0  0  0  0  0  0  0  0  0
   37.8955   34.3485   37.8508 H   0  0  0  0  0  0  0  0  0  0  0  0
   38.9506   33.2154   37.7257 H   0  0  0  0  0  0  0  0  0  0  0  0
   37.6850   34.0548   40.6685 H   0  0  0  0  0  0  0  0  0  0  0  0
   40.0667   33.2860   42.4283 H   0  0  0  0  0  0  0  0  0  0  0  0
   40.5703   30.9695   43.1027 H   0  0  0  0  0  0  0  0  0  0  0  0
   39.6661   29.0136   41.4566 H   0  0  0  0  0  0  0  0  0  0  0  0
   43.3506   35.2603   42.6646 H   0  0  0  0  0  0  0  0  0  0  0  0
   44.8084   35.2038   41.6167 H   0  0  0  0  0  0  0  0  0  0  0  0
   43.7582   36.6611   41.6167 H   0  0  0  0  0  0  0  0  0  0  0  0
  1 15  1  0
  2  1  2  0
  3  2  1  0
  4  3  2  0
  4  5  1  0
  5  6  2  0
  6  1  1  0
  7  5  1  0
  7  9  1  0
  8  7  1  0
  8  9  1  0
  9 10  1  0
 10 11  2  0
 11 12  1  0
 13 12  2  0
 14 10  1  0
 14 13  1  0
  2 16  1  0
  3 17  1  0
  7 18  1  6
  8 19  1  0
  8 20  1  0
  9 21  1  6
 11 22  1  0
 12 23  1  0
 13 24  1  0
 15 25  1  0
 15 26  1  0
 15 27  1  0
M  ISO  8  16  14  17  14  18  13  19  13  20  13  21  13  22  14  23  14
M  ISO  4  24  14  25   8  26   8  27   8
M  END
>  <minimizedAffinity>  (1) 
-4.48421335

>  <minimizedRMSD>  (1) 
5.69704199

$$$$
