
     RDKit          3D

 26 28  0  0  1  0  0  0  0  0999 V2000
   41.8540   34.7720   41.3290 C   0  0  1  0  0  0  0  0  0  0  0  0
   41.1160   36.1120   41.2360 C   0  0  0  0  0  0  0  0  0  0  0  0
   41.3480   35.2800   40.0250 C   0  0  2  0  0  0  0  0  0  0  0  0
   45.4850   34.3470   41.0040 C   0  0  0  0  0  0  0  0  0  0  0  0
   45.9970   34.9730   42.1530 C   0  0  0  0  0  0  0  0  0  0  0  0
   45.0630   35.5620   43.0470 C   0  0  0  0  0  0  0  0  0  0  0  0
   43.7480   35.4800   42.7360 N   0  0  0  0  0  0  0  0  0  0  0  0
   43.3090   34.8700   41.6240 C   0  0  0  0  0  0  0  0  0  0  0  0
   44.1600   34.2920   40.7370 N   0  0  0  0  0  0  0  0  0  0  0  0
   46.4710   33.7190   40.0800 C   0  0  0  0  0  0  0  0  0  0  0  0
   40.2060   34.6010   39.3340 C   0  0  0  0  0  0  0  0  0  0  0  0
   40.0880   34.4930   37.8910 C   0  0  0  0  0  0  0  0  0  0  0  0
   38.5340   33.5900   37.6990 S   0  0  0  0  0  0  0  0  0  0  0  0
   38.2840   33.4950   39.5820 C   0  0  0  0  0  0  0  0  0  0  0  0
   39.2140   34.0440   40.0390 N   0  0  0  0  0  0  0  0  0  0  0  0
   41.7384   33.8243   41.8753 H   0  0  0  0  0  0  0  0  0  0  0  0
   40.1021   36.2145   41.6502 H   0  0  0  0  0  0  0  0  0  0  0  0
   41.3360   37.1496   41.5277 H   0  0  0  0  0  0  0  0  0  0  0  0
   41.8096   35.4679   39.0444 H   0  0  0  0  0  0  0  0  0  0  0  0
   47.0783   35.0058   42.3525 H   0  0  0  0  0  0  0  0  0  0  0  0
   45.3981   36.0691   43.9638 H   0  0  0  0  0  0  0  0  0  0  0  0
   47.2560   33.2190   40.6663 H   0  0  0  0  0  0  0  0  0  0  0  0
   45.9599   32.9797   39.4458 H   0  0  0  0  0  0  0  0  0  0  0  0
   46.9249   34.4947   39.4458 H   0  0  0  0  0  0  0  0  0  0  0  0
   40.7704   34.8657   37.1129 H   0  0  0  0  0  0  0  0  0  0  0  0
   37.4491   33.0271   40.1242 H   0  0  0  0  0  0  0  0  0  0  0  0
  1  8  1  0
  2  1  1  0
  3  2  1  0
  3  1  1  0
  4  5  2  0
  5  6  1  0
  7  6  2  0
  8  7  1  0
  9  4  1  0
  9  8  2  0
 10  4  1  0
 11  3  1  0
 11 15  1  0
 12 11  2  0
 13 12  1  0
 13 14  1  0
 14 15  2  0
  1 16  1  1
  2 17  1  0
  2 18  1  0
  3 19  1  6
  5 20  1  0
  6 21  1  0
 10 22  1  0
 10 23  1  0
 10 24  1  0
 12 25  1  0
 14 26  1  0
M  ISO  8  16  13  17  13  18  13  19  13  20  14  21  14  22   8  23   8
M  ISO  3  24   8  25  14  26  14
M  END
>  <minimizedAffinity>  (1) 
-4.52304173

>  <minimizedRMSD>  (1) 
2.387357

$$$$
