
     RDKit          3D

 22 23  0  0  0  0  0  0  0  0999 V2000
   44.6020   35.8780   44.3250 C   0  0  0  0  0  0  0  0  0  0  0  0
   45.5350   35.5880   43.3160 C   0  0  0  0  0  0  0  0  0  0  0  0
   46.4230   34.5370   43.5100 C   0  0  0  0  0  0  0  0  0  0  0  0
   46.3480   33.8260   44.6860 N   0  0  0  0  0  0  0  0  0  0  0  0
   45.4330   34.1300   45.6440 C   0  0  0  0  0  0  0  0  0  0  0  0
   44.5730   35.1530   45.4480 N   0  0  0  0  0  0  0  0  0  0  0  0
   47.4190   34.1400   42.5650 N   0  0  0  0  0  0  0  0  0  0  0  0
   47.4770   34.0120   41.2390 C   0  0  0  0  0  0  0  0  0  0  0  0
   48.7020   33.5880   40.8690 N   0  0  0  0  0  0  0  0  0  0  0  0
   49.4090   33.4540   42.0040 C   0  0  0  0  0  0  0  0  0  0  0  0
   48.6250   33.7930   43.0590 N   0  0  0  0  0  0  0  0  0  0  0  0
   50.8350   33.0000   42.0480 C   0  0  0  0  0  0  0  0  0  0  0  0
   50.8430   31.5260   42.3940 C   0  0  0  0  0  0  0  0  0  0  0  0
   43.8910   36.7065   44.1905 H   0  0  0  0  0  0  0  0  0  0  0  0
   45.5622   36.1814   42.3902 H   0  0  0  0  0  0  0  0  0  0  0  0
   45.3930   33.5454   46.5750 H   0  0  0  0  0  0  0  0  0  0  0  0
   46.6470   34.2216   40.5483 H   0  0  0  0  0  0  0  0  0  0  0  0
   51.3075   33.1563   41.0670 H   0  0  0  0  0  0  0  0  0  0  0  0
   51.3969   33.5734   42.8000 H   0  0  0  0  0  0  0  0  0  0  0  0
   50.8437   31.4060   43.4874 H   0  0  0  0  0  0  0  0  0  0  0  0
   49.9474   31.0457   41.9730 H   0  0  0  0  0  0  0  0  0  0  0  0
   51.7437   31.0554   41.9730 H   0  0  0  0  0  0  0  0  0  0  0  0
  1  6  2  0
  2  3  2  0
  2  1  1  0
  3  4  1  0
  4  5  2  0
  6  5  1  0
  7 11  1  0
  7  3  1  0
  8  7  1  0
  9  8  2  0
  9 10  1  0
 10 12  1  0
 10 11  2  0
 12 13  1  0
  1 14  1  0
  2 15  1  0
  5 16  1  0
  8 17  1  0
 12 18  1  0
 12 19  1  0
 13 20  1  0
 13 21  1  0
 13 22  1  0
M  ISO  8  14  14  15  14  16  14  17  14  18   8  19   8  20   8  21   8
M  ISO  1  22   8
M  END
>  <minimizedAffinity>  (1) 
-3.96848345

>  <minimizedRMSD>  (1) 
1.78979897

$$$$
