
     RDKit          3D

 27 29  0  0  1  0  0  0  0  0999 V2000
   41.7020   31.6750   40.7890 C   0  0  0  0  0  0  0  0  0  0  0  0
   40.9410   31.8190   41.9430 C   0  0  0  0  0  0  0  0  0  0  0  0
   39.6390   32.3770   41.8100 C   0  0  0  0  0  0  0  0  0  0  0  0
   39.2290   32.7310   40.5710 N   0  0  0  0  0  0  0  0  0  0  0  0
   40.0050   32.5720   39.4820 C   0  0  0  0  0  0  0  0  0  0  0  0
   41.2620   32.0370   39.5860 N   0  0  0  0  0  0  0  0  0  0  0  0
   39.5100   32.9560   38.1350 C   0  0  1  0  0  0  0  0  0  0  0  0
   38.4680   34.0790   38.1340 C   0  0  0  0  0  0  0  0  0  0  0  0
   39.8440   34.2990   37.5980 C   0  0  1  0  0  0  0  0  0  0  0  0
   40.6730   35.2690   38.3890 C   0  0  0  0  0  0  0  0  0  0  0  0
   41.3550   36.3200   37.5150 C   0  0  0  0  0  0  0  0  0  0  0  0
   42.1380   35.3300   38.3330 C   0  0  0  0  0  0  0  0  0  0  0  0
   43.0640   31.0730   40.9480 C   0  0  0  0  0  0  0  0  0  0  0  0
   41.3315   31.5124   42.9246 H   0  0  0  0  0  0  0  0  0  0  0  0
   38.9878   32.5158   42.6856 H   0  0  0  0  0  0  0  0  0  0  0  0
   39.6002   31.9362   37.7326 H   0  0  0  0  0  0  0  0  0  0  0  0
   37.6079   34.0353   37.4496 H   0  0  0  0  0  0  0  0  0  0  0  0
   37.8342   34.5625   38.8920 H   0  0  0  0  0  0  0  0  0  0  0  0
   40.2980   34.6090   36.6452 H   0  0  0  0  0  0  0  0  0  0  0  0
   39.9949   35.2056   39.2528 H   0  0  0  0  0  0  0  0  0  0  0  0
   41.3307   37.3818   37.8014 H   0  0  0  0  0  0  0  0  0  0  0  0
   41.3150   36.6132   36.4556 H   0  0  0  0  0  0  0  0  0  0  0  0
   42.6977   34.5284   37.8288 H   0  0  0  0  0  0  0  0  0  0  0  0
   42.9312   35.4180   39.0900 H   0  0  0  0  0  0  0  0  0  0  0  0
   43.2968   30.9701   42.0182 H   0  0  0  0  0  0  0  0  0  0  0  0
   43.0847   30.0819   40.4713 H   0  0  0  0  0  0  0  0  0  0  0  0
   43.8109   31.7248   40.4713 H   0  0  0  0  0  0  0  0  0  0  0  0
  1 13  1  0
  1  2  2  0
  3  2  1  0
  4  3  2  0
  5  6  2  0
  5  4  1  0
  6  1  1  0
  7  5  1  0
  8  7  1  0
  9  8  1  0
  9  7  1  0
  9 10  1  0
 11 12  1  0
 11 10  1  0
 12 10  1  0
  2 14  1  0
  3 15  1  0
  7 16  1  6
  8 17  1  0
  8 18  1  0
  9 19  1  6
 10 20  1  0
 11 21  1  0
 11 22  1  0
 12 23  1  0
 12 24  1  0
 13 25  1  0
 13 26  1  0
 13 27  1  0
M  ISO  8  14  14  15  14  16  13  17  13  18  13  19  13  20  13  21  13
M  ISO  6  22  13  23  13  24  13  25   8  26   8  27   8
M  END
>  <minimizedAffinity>  (1) 
-3.82195067

>  <minimizedRMSD>  (1) 
4.93248558

$$$$
