
     RDKit          3D

 28 29  0  0  0  0  0  0  0  0999 V2000
   45.4650   34.0830   41.7120 N   0  0  0  0  0  0  0  0  0  0  0  0
   44.7350   33.5260   40.7390 C   0  0  0  0  0  0  0  0  0  0  0  0
   45.4810   33.3580   39.6380 N   0  0  0  0  0  0  0  0  0  0  0  0
   46.6930   33.8240   39.9420 C   0  0  0  0  0  0  0  0  0  0  0  0
   46.7050   34.2810   41.2340 N   0  0  0  0  0  0  0  0  0  0  0  0
   44.4380   35.9760   44.7820 C   0  0  0  0  0  0  0  0  0  0  0  0
   44.6220   35.7060   43.4130 C   0  0  0  0  0  0  0  0  0  0  0  0
   45.2200   34.4830   43.0510 C   0  0  0  0  0  0  0  0  0  0  0  0
   45.5770   33.6430   44.0630 N   0  0  0  0  0  0  0  0  0  0  0  0
   45.3860   33.9310   45.3740 C   0  0  0  0  0  0  0  0  0  0  0  0
   44.8160   35.1000   45.7090 N   0  0  0  0  0  0  0  0  0  0  0  0
   47.8390   33.8340   39.0120 C   0  0  0  0  0  0  0  0  0  0  0  0
   48.7060   35.0400   39.2710 C   0  0  0  0  0  0  0  0  0  0  0  0
   47.4300   33.7080   37.5720 C   0  0  0  0  0  0  0  0  0  0  0  0
   48.7270   32.6180   39.3060 C   0  0  0  0  0  0  0  0  0  0  0  0
   43.6751   33.2461   40.8295 H   0  0  0  0  0  0  0  0  0  0  0  0
   43.9749   36.9251   45.0899 H   0  0  0  0  0  0  0  0  0  0  0  0
   44.3075   36.4300   42.6469 H   0  0  0  0  0  0  0  0  0  0  0  0
   45.6936   33.2172   46.1524 H   0  0  0  0  0  0  0  0  0  0  0  0
   48.8129   35.1886   40.3557 H   0  0  0  0  0  0  0  0  0  0  0  0
   49.6981   34.8814   38.8232 H   0  0  0  0  0  0  0  0  0  0  0  0
   48.2396   35.9299   38.8232 H   0  0  0  0  0  0  0  0  0  0  0  0
   46.3801   33.3846   37.5160 H   0  0  0  0  0  0  0  0  0  0  0  0
   47.5408   34.6819   37.0728 H   0  0  0  0  0  0  0  0  0  0  0  0
   48.0696   32.9652   37.0728 H   0  0  0  0  0  0  0  0  0  0  0  0
   48.8220   32.4879   40.3941 H   0  0  0  0  0  0  0  0  0  0  0  0
   48.2725   31.7174   38.8673 H   0  0  0  0  0  0  0  0  0  0  0  0
   49.7232   32.7768   38.8673 H   0  0  0  0  0  0  0  0  0  0  0  0
  1  8  1  0
  2  1  1  0
  3  4  1  0
  3  2  2  0
  4  5  2  0
  5  1  1  0
  6 11  2  0
  7  6  1  0
  8  7  2  0
  8  9  1  0
  9 10  2  0
 10 11  1  0
 12 13  1  0
 12 15  1  0
 12  4  1  0
 14 12  1  0
  2 16  1  0
  6 17  1  0
  7 18  1  0
 10 19  1  0
 13 20  1  0
 13 21  1  0
 13 22  1  0
 14 23  1  0
 14 24  1  0
 14 25  1  0
 15 26  1  0
 15 27  1  0
 15 28  1  0
M  ISO  8  16  14  17  14  18  14  19  14  20   8  21   8  22   8  23   8
M  ISO  5  24   8  25   8  26   8  27   8  28   8
M  END
>  <minimizedAffinity>  (1) 
-3.92086244

>  <minimizedRMSD>  (1) 
1.99662828

$$$$
