
     RDKit          3D

 36 38  0  0  1  0  0  0  0  0999 V2000
   42.4660   34.4330   41.2070 C   0  0  1  0  0  0  0  0  0  0  0  0
   41.5830   35.6510   40.9170 C   0  0  0  0  0  0  0  0  0  0  0  0
   42.1010   34.8010   39.8140 C   0  0  2  0  0  0  0  0  0  0  0  0
   46.1370   34.6600   41.3600 C   0  0  0  0  0  0  0  0  0  0  0  0
   46.3680   35.2570   42.6160 C   0  0  0  0  0  0  0  0  0  0  0  0
   45.2340   35.5930   43.4120 C   0  0  0  0  0  0  0  0  0  0  0  0
   44.0050   35.3190   42.9120 N   0  0  0  0  0  0  0  0  0  0  0  0
   43.8280   34.7480   41.7100 C   0  0  0  0  0  0  0  0  0  0  0  0
   44.8870   34.4110   40.9160 N   0  0  0  0  0  0  0  0  0  0  0  0
   47.3200   34.3020   40.5510 C   0  0  0  0  0  0  0  0  0  0  0  0
   41.1680   33.9550   38.9860 C   0  0  0  0  0  0  0  0  0  0  0  0
   40.2710   34.8370   38.1630 C   0  0  0  0  0  0  0  0  0  0  0  0
   39.0080   34.1410   37.7160 C   0  0  0  0  0  0  0  0  0  0  0  0
   38.1820   33.7770   38.9280 C   0  0  0  0  0  0  0  0  0  0  0  0
   39.0540   33.7200   40.1840 C   0  0  0  0  0  0  0  0  0  0  0  0
   40.3310   33.0180   39.7850 C   0  0  0  0  0  0  0  0  0  0  0  0
   42.3957   33.5034   41.7908 H   0  0  0  0  0  0  0  0  0  0  0  0
   40.5136   35.6322   41.1739 H   0  0  0  0  0  0  0  0  0  0  0  0
   41.6195   36.7222   41.1643 H   0  0  0  0  0  0  0  0  0  0  0  0
   42.6842   34.9922   38.9011 H   0  0  0  0  0  0  0  0  0  0  0  0
   47.3900   35.4571   42.9703 H   0  0  0  0  0  0  0  0  0  0  0  0
   45.3531   36.0599   44.4008 H   0  0  0  0  0  0  0  0  0  0  0  0
   48.1573   34.0486   41.2179 H   0  0  0  0  0  0  0  0  0  0  0  0
   47.0817   33.4357   39.9163 H   0  0  0  0  0  0  0  0  0  0  0  0
   47.6020   35.1550   39.9163 H   0  0  0  0  0  0  0  0  0  0  0  0
   41.8119   33.3363   38.3437 H   0  0  0  0  0  0  0  0  0  0  0  0
   39.9933   35.7143   38.7657 H   0  0  0  0  0  0  0  0  0  0  0  0
   40.8285   35.1203   37.2580 H   0  0  0  0  0  0  0  0  0  0  0  0
   38.4291   34.8127   37.0651 H   0  0  0  0  0  0  0  0  0  0  0  0
   39.2677   33.2283   37.1597 H   0  0  0  0  0  0  0  0  0  0  0  0
   37.3960   34.5335   39.0689 H   0  0  0  0  0  0  0  0  0  0  0  0
   37.7349   32.7854   38.7645 H   0  0  0  0  0  0  0  0  0  0  0  0
   39.2744   34.7370   40.5407 H   0  0  0  0  0  0  0  0  0  0  0  0
   38.5439   33.1868   40.9998 H   0  0  0  0  0  0  0  0  0  0  0  0
   40.0911   32.1306   39.1809 H   0  0  0  0  0  0  0  0  0  0  0  0
   40.8798   32.7035   40.6849 H   0  0  0  0  0  0  0  0  0  0  0  0
  1  8  1  0
  2  1  1  0
  3  2  1  0
  3  1  1  0
  4  5  2  0
  5  6  1  0
  7  6  2  0
  8  7  1  0
  9  4  1  0
  9  8  2  0
 10  4  1  0
 11 16  1  0
 11  3  1  0
 12 11  1  0
 13 12  1  0
 13 14  1  0
 14 15  1  0
 16 15  1  0
  1 17  1  1
  2 18  1  0
  2 19  1  0
  3 20  1  6
  5 21  1  0
  6 22  1  0
 10 23  1  0
 10 24  1  0
 10 25  1  0
 11 26  1  0
 12 27  1  0
 12 28  1  0
 13 29  1  0
 13 30  1  0
 14 31  1  0
 14 32  1  0
 15 33  1  0
 15 34  1  0
 16 35  1  0
 16 36  1  0
M  ISO  8  17  13  18  13  19  13  20  13  21  14  22  14  23   8  24   8
M  ISO  8  25   8  26  13  27  13  28  13  29  13  30  13  31  13  32  13
M  ISO  4  33  13  34  13  35  13  36  13
M  END
>  <minimizedAffinity>  (1) 
-5.31231833

>  <minimizedRMSD>  (1) 
2.79675436

$$$$
