
     RDKit          3D

 50 54  0  0  1  0  0  0  0  0999 V2000
   41.1540   33.9830   39.0920 C   0  0  2  0  0  0  0  0  0  0  0  0
   40.4930   34.8770   38.0800 C   0  0  0  0  0  0  0  0  0  0  0  0
   39.1990   34.3250   37.5470 C   0  0  0  0  0  0  0  0  0  0  0  0
   38.2220   34.1250   38.6510 C   0  0  0  0  0  0  0  0  0  0  0  0
   38.9190   34.1440   40.0030 C   0  0  0  0  0  0  0  0  0  0  0  0
   40.1110   33.2880   39.9040 C   0  0  1  0  0  0  0  0  0  0  0  0
   39.9720   31.8820   39.5520 C   0  0  0  0  0  0  0  0  0  0  0  0
   40.6030   30.9820   38.7280 C   0  0  0  0  0  0  0  0  0  0  0  0
   40.1180   29.7340   38.7310 N   0  0  0  0  0  0  0  0  0  0  0  0
   39.0920   29.7360   39.5960 C   0  0  0  0  0  0  0  0  0  0  0  0
   38.2260   28.7440   40.0040 C   0  0  0  0  0  0  0  0  0  0  0  0
   37.2280   28.9780   40.9230 C   0  0  0  0  0  0  0  0  0  0  0  0
   37.0880   30.2410   41.4520 C   0  0  0  0  0  0  0  0  0  0  0  0
   37.9720   31.2050   41.0200 C   0  0  0  0  0  0  0  0  0  0  0  0
   38.9950   31.0120   40.0920 C   0  0  0  0  0  0  0  0  0  0  0  0
   42.4810   34.4350   41.3210 C   0  0  1  0  0  0  0  0  0  0  0  0
   41.6150   35.6890   41.0220 C   0  0  0  0  0  0  0  0  0  0  0  0
   42.0630   34.8030   39.9910 C   0  0  2  0  0  0  0  0  0  0  0  0
   46.1620   34.6780   41.4040 C   0  0  0  0  0  0  0  0  0  0  0  0
   46.4030   35.2570   42.6630 C   0  0  0  0  0  0  0  0  0  0  0  0
   45.2730   35.5840   43.4830 C   0  0  0  0  0  0  0  0  0  0  0  0
   44.0430   35.3130   42.9890 N   0  0  0  0  0  0  0  0  0  0  0  0
   43.8680   34.7570   41.7770 C   0  0  0  0  0  0  0  0  0  0  0  0
   44.9070   34.4310   40.9640 N   0  0  0  0  0  0  0  0  0  0  0  0
   47.3300   34.3340   40.5690 C   0  0  0  0  0  0  0  0  0  0  0  0
   41.7621   33.2289   38.5708 H   0  0  0  0  0  0  0  0  0  0  0  0
   40.2883   35.8482   38.5542 H   0  0  0  0  0  0  0  0  0  0  0  0
   41.1825   34.9664   37.2276 H   0  0  0  0  0  0  0  0  0  0  0  0
   38.7787   35.0309   36.8155 H   0  0  0  0  0  0  0  0  0  0  0  0
   39.3973   33.3547   37.0682 H   0  0  0  0  0  0  0  0  0  0  0  0
   37.4739   34.9308   38.6202 H   0  0  0  0  0  0  0  0  0  0  0  0
   37.7381   33.1460   38.5189 H   0  0  0  0  0  0  0  0  0  0  0  0
   39.2163   35.1722   40.2568 H   0  0  0  0  0  0  0  0  0  0  0  0
   38.2441   33.7751   40.7894 H   0  0  0  0  0  0  0  0  0  0  0  0
   40.4145   33.1684   40.9545 H   0  0  0  0  0  0  0  0  0  0  0  0
   41.4592   31.2706   38.1006 H   0  0  0  0  0  0  0  0  0  0  0  0
   40.4626   28.9343   38.1808 H   0  0  0  0  0  0  0  0  0  0  0  0
   38.3358   27.7341   39.5821 H   0  0  0  0  0  0  0  0  0  0  0  0
   36.5517   28.1667   41.2303 H   0  0  0  0  0  0  0  0  0  0  0  0
   36.3037   30.4707   42.1883 H   0  0  0  0  0  0  0  0  0  0  0  0
   37.8615   32.2142   41.4435 H   0  0  0  0  0  0  0  0  0  0  0  0
   42.4228   33.5072   41.9090 H   0  0  0  0  0  0  0  0  0  0  0  0
   40.5541   35.7146   41.3116 H   0  0  0  0  0  0  0  0  0  0  0  0
   41.6871   36.7676   41.2253 H   0  0  0  0  0  0  0  0  0  0  0  0
   42.6173   34.9600   39.0539 H   0  0  0  0  0  0  0  0  0  0  0  0
   47.4287   35.4533   43.0086 H   0  0  0  0  0  0  0  0  0  0  0  0
   45.4014   36.0382   44.4766 H   0  0  0  0  0  0  0  0  0  0  0  0
   48.1827   34.0829   41.2169 H   0  0  0  0  0  0  0  0  0  0  0  0
   47.0850   33.4699   39.9340 H   0  0  0  0  0  0  0  0  0  0  0  0
   47.5925   35.1930   39.9340 H   0  0  0  0  0  0  0  0  0  0  0  0
  1  6  1  0
  1 18  1  0
  2  1  1  0
  3  2  1  0
  3  4  1  0
  4  5  1  0
  6  5  1  0
  7  6  1  0
  7 15  1  0
  8  9  1  0
  8  7  2  0
  9 10  1  0
 10 11  1  0
 10 15  2  0
 11 12  2  0
 12 13  1  0
 14 13  2  0
 15 14  1  0
 16 23  1  0
 17 16  1  0
 18 17  1  0
 18 16  1  0
 19 20  2  0
 20 21  1  0
 22 21  2  0
 23 22  1  0
 24 19  1  0
 24 23  2  0
 25 19  1  0
  1 26  1  6
  2 27  1  0
  2 28  1  0
  3 29  1  0
  3 30  1  0
  4 31  1  0
  4 32  1  0
  5 33  1  0
  5 34  1  0
  6 35  1  1
  8 36  1  0
  9 37  1  0
 11 38  1  0
 12 39  1  0
 13 40  1  0
 14 41  1  0
 16 42  1  1
 17 43  1  0
 17 44  1  0
 18 45  1  6
 20 46  1  0
 21 47  1  0
 25 48  1  0
 25 49  1  0
 25 50  1  0
M  ISO  8  26  13  27  13  28  13  29  13  30  13  31  13  32  13  33  13
M  ISO  8  34  13  35  13  36  14  37   9  38  14  39  14  40  14  41  14
M  ISO  8  42  13  43  13  44  13  45  13  46  14  47  14  48   8  49   8
M  ISO  1  50   8
M  END
>  <minimizedAffinity>  (1) 
-6.77473259

>  <minimizedRMSD>  (1) 
0.966393948

$$$$
