
     RDKit          3D

 49 53  0  0  1  0  0  0  0  0999 V2000
   41.1820   33.8810   39.1990 C   0  0  2  0  0  0  0  0  0  0  0  0
   40.5340   34.7820   38.1680 C   0  0  0  0  0  0  0  0  0  0  0  0
   39.2050   34.2760   37.6870 C   0  0  0  0  0  0  0  0  0  0  0  0
   38.2520   34.1460   38.8330 C   0  0  0  0  0  0  0  0  0  0  0  0
   38.9920   34.1580   40.1650 C   0  0  0  0  0  0  0  0  0  0  0  0
   40.1480   33.2690   40.0370 C   0  0  1  0  0  0  0  0  0  0  0  0
   39.7520   31.9780   39.5140 N   0  0  0  0  0  0  0  0  0  0  0  0
   40.1960   31.2710   38.4630 C   0  0  0  0  0  0  0  0  0  0  0  0
   39.5440   30.0970   38.3460 N   0  0  0  0  0  0  0  0  0  0  0  0
   38.6280   30.0110   39.3570 C   0  0  0  0  0  0  0  0  0  0  0  0
   37.7500   28.9860   39.6230 C   0  0  0  0  0  0  0  0  0  0  0  0
   36.9620   29.1810   40.6980 N   0  0  0  0  0  0  0  0  0  0  0  0
   37.0870   30.3340   41.4170 C   0  0  0  0  0  0  0  0  0  0  0  0
   37.9500   31.3180   41.1360 N   0  0  0  0  0  0  0  0  0  0  0  0
   38.7730   31.2010   40.0800 C   0  0  0  0  0  0  0  0  0  0  0  0
   37.7200   27.8370   38.7960 N   0  0  0  0  0  0  0  0  0  0  0  0
   42.6340   34.3350   41.3490 C   0  0  1  0  0  0  0  0  0  0  0  0
   41.7930   35.6080   41.0610 C   0  0  0  0  0  0  0  0  0  0  0  0
   42.1680   34.6950   40.0250 C   0  0  2  0  0  0  0  0  0  0  0  0
   46.3100   34.5400   41.2250 C   0  0  0  0  0  0  0  0  0  0  0  0
   46.6420   35.0480   42.4850 C   0  0  0  0  0  0  0  0  0  0  0  0
   45.5710   35.3380   43.3860 C   0  0  0  0  0  0  0  0  0  0  0  0
   44.2940   35.1020   42.9690 N   0  0  0  0  0  0  0  0  0  0  0  0
   44.0350   34.6170   41.7560 C   0  0  0  0  0  0  0  0  0  0  0  0
   45.0300   34.3250   40.8560 N   0  0  0  0  0  0  0  0  0  0  0  0
   47.4260   34.2300   40.3000 C   0  0  0  0  0  0  0  0  0  0  0  0
   41.7359   33.0696   38.7042 H   0  0  0  0  0  0  0  0  0  0  0  0
   40.3876   35.7759   38.6160 H   0  0  0  0  0  0  0  0  0  0  0  0
   41.2046   34.8141   37.2966 H   0  0  0  0  0  0  0  0  0  0  0  0
   38.7929   34.9820   36.9509 H   0  0  0  0  0  0  0  0  0  0  0  0
   39.3449   33.2877   37.2247 H   0  0  0  0  0  0  0  0  0  0  0  0
   37.5431   34.9868   38.8081 H   0  0  0  0  0  0  0  0  0  0  0  0
   37.7190   33.1885   38.7377 H   0  0  0  0  0  0  0  0  0  0  0  0
   39.3281   35.1791   40.3982 H   0  0  0  0  0  0  0  0  0  0  0  0
   38.3318   33.8188   40.9768 H   0  0  0  0  0  0  0  0  0  0  0  0
   40.5716   33.1107   41.0397 H   0  0  0  0  0  0  0  0  0  0  0  0
   40.9921   31.6074   37.7825 H   0  0  0  0  0  0  0  0  0  0  0  0
   36.4313   30.4643   42.2905 H   0  0  0  0  0  0  0  0  0  0  0  0
   37.0604   27.0727   39.0001 H   0  0  0  0  0  0  0  0  0  0  0  0
   38.3578   27.7655   37.9904 H   0  0  0  0  0  0  0  0  0  0  0  0
   42.5759   33.4165   41.9515 H   0  0  0  0  0  0  0  0  0  0  0  0
   40.7468   35.6701   41.3950 H   0  0  0  0  0  0  0  0  0  0  0  0
   41.9065   36.6871   41.2418 H   0  0  0  0  0  0  0  0  0  0  0  0
   42.6850   34.8226   39.0625 H   0  0  0  0  0  0  0  0  0  0  0  0
   47.6900   35.2183   42.7724 H   0  0  0  0  0  0  0  0  0  0  0  0
   45.7714   35.7411   44.3897 H   0  0  0  0  0  0  0  0  0  0  0  0
   48.3256   33.9801   40.8816 H   0  0  0  0  0  0  0  0  0  0  0  0
   47.1499   33.3745   39.6660 H   0  0  0  0  0  0  0  0  0  0  0  0
   47.6307   35.1053   39.6660 H   0  0  0  0  0  0  0  0  0  0  0  0
  1 19  1  0
  1  6  1  0
  2  1  1  0
  3  2  1  0
  3  4  1  0
  4  5  1  0
  6  5  1  0
  7  6  1  0
  7 15  1  0
  8  7  1  0
  9  8  2  0
  9 10  1  0
 10 11  2  0
 10 15  1  0
 11 12  1  0
 12 13  2  0
 14 13  1  0
 15 14  2  0
 16 11  1  0
 17 24  1  0
 18 17  1  0
 19 18  1  0
 19 17  1  0
 20 21  2  0
 21 22  1  0
 23 22  2  0
 24 23  1  0
 25 20  1  0
 25 24  2  0
 26 20  1  0
  1 27  1  6
  2 28  1  0
  2 29  1  0
  3 30  1  0
  3 31  1  0
  4 32  1  0
  4 33  1  0
  5 34  1  0
  5 35  1  0
  6 36  1  1
  8 37  1  0
 13 38  1  0
 16 39  1  0
 16 40  1  0
 17 41  1  1
 18 42  1  0
 18 43  1  0
 19 44  1  6
 21 45  1  0
 22 46  1  0
 26 47  1  0
 26 48  1  0
 26 49  1  0
M  ISO  8  27  13  28  13  29  13  30  13  31  13  32  13  33  13  34  13
M  ISO  8  35  13  36  13  37  14  38  14  41  13  42  13  43  13  44  13
M  ISO  5  45  14  46  14  47   8  48   8  49   8
M  END
>  <minimizedAffinity>  (1) 
-6.67015076

>  <minimizedRMSD>  (1) 
1.71935475

$$$$
