
     RDKit          3D

 18 19  0  0  0  0  0  0  0  0999 V2000
   44.4630   35.9870   44.7250 C   0  0  0  0  0  0  0  0  0  0  0  0
   44.7900   35.7270   43.3900 C   0  0  0  0  0  0  0  0  0  0  0  0
   45.4560   34.5350   43.0610 C   0  0  0  0  0  0  0  0  0  0  0  0
   45.7560   33.6810   44.0730 N   0  0  0  0  0  0  0  0  0  0  0  0
   45.4270   33.9580   45.3650 C   0  0  0  0  0  0  0  0  0  0  0  0
   44.7930   35.0920   45.6780 N   0  0  0  0  0  0  0  0  0  0  0  0
   45.8260   34.1750   41.7430 N   0  0  0  0  0  0  0  0  0  0  0  0
   45.2200   33.4830   40.7480 C   0  0  0  0  0  0  0  0  0  0  0  0
   46.0320   33.4340   39.6670 N   0  0  0  0  0  0  0  0  0  0  0  0
   47.1460   34.1110   40.0260 C   0  0  0  0  0  0  0  0  0  0  0  0
   47.0150   34.5630   41.3000 N   0  0  0  0  0  0  0  0  0  0  0  0
   48.3400   34.3410   39.1840 C   0  0  0  0  0  0  0  0  0  0  0  0
   48.2080   34.5280   37.9270 O   0  0  0  0  0  0  0  0  0  0  0  0
   43.9398   36.9160   44.9957 H   0  0  0  0  0  0  0  0  0  0  0  0
   44.5276   36.4504   42.6040 H   0  0  0  0  0  0  0  0  0  0  0  0
   45.6856   33.2415   46.1586 H   0  0  0  0  0  0  0  0  0  0  0  0
   44.2196   33.0298   40.8098 H   0  0  0  0  0  0  0  0  0  0  0  0
   49.3411   34.3511   39.6397 H   0  0  0  0  0  0  0  0  0  0  0  0
  1  6  2  0
  2  1  1  0
  3  2  2  0
  3  4  1  0
  4  5  2  0
  5  6  1  0
  7  3  1  0
  8  7  1  0
  9 10  1  0
  9  8  2  0
 10 11  2  0
 11  7  1  0
 12 10  1  0
 13 12  2  0
  1 14  1  0
  2 15  1  0
  5 16  1  0
  8 17  1  0
 12 18  1  0
M  ISO  5  14  14  15  14  16  14  17  14  18   6
M  END
>  <minimizedAffinity>  (1) 
-3.77935576

>  <minimizedRMSD>  (1) 
1.36242115

$$$$
