
     RDKit          3D

 44 47  0  0  1  0  0  0  0  0999 V2000
   41.1340   33.8470   39.1660 C   0  0  2  0  0  0  0  0  0  0  0  0
   40.3110   34.7040   38.2180 C   0  0  0  0  0  0  0  0  0  0  0  0
   39.0240   34.0780   37.7840 C   0  0  0  0  0  0  0  0  0  0  0  0
   38.1290   33.9020   38.9980 C   0  0  0  0  0  0  0  0  0  0  0  0
   38.9920   33.7850   40.2810 C   0  0  0  0  0  0  0  0  0  0  0  0
   40.2250   33.0370   39.9310 C   0  0  2  0  0  0  0  0  0  0  0  0
   42.4510   34.4620   41.3280 C   0  0  1  0  0  0  0  0  0  0  0  0
   41.6140   35.7040   40.9200 C   0  0  0  0  0  0  0  0  0  0  0  0
   42.0400   34.7200   39.9820 C   0  0  2  0  0  0  0  0  0  0  0  0
   46.1320   34.6710   41.3730 C   0  0  0  0  0  0  0  0  0  0  0  0
   46.3820   35.2810   42.6290 C   0  0  0  0  0  0  0  0  0  0  0  0
   45.2700   35.6270   43.4340 C   0  0  0  0  0  0  0  0  0  0  0  0
   44.0240   35.3580   42.9610 N   0  0  0  0  0  0  0  0  0  0  0  0
   43.8360   34.7780   41.7650 C   0  0  0  0  0  0  0  0  0  0  0  0
   44.8790   34.4250   40.9470 N   0  0  0  0  0  0  0  0  0  0  0  0
   47.2980   34.3030   40.5430 C   0  0  0  0  0  0  0  0  0  0  0  0
   40.6270   31.9830   40.8550 C   0  0  0  0  0  0  0  0  0  0  0  0
   40.1830   31.7640   42.1700 C   0  0  0  0  0  0  0  0  0  0  0  0
   40.6430   30.7270   42.9520 C   0  0  0  0  0  0  0  0  0  0  0  0
   41.5570   29.8670   42.4760 N   0  0  0  0  0  0  0  0  0  0  0  0
   41.9990   30.0590   41.2140 C   0  0  0  0  0  0  0  0  0  0  0  0
   41.5450   31.0720   40.4560 N   0  0  0  0  0  0  0  0  0  0  0  0
   41.8061   33.1593   38.6319 H   0  0  0  0  0  0  0  0  0  0  0  0
   40.0793   35.6528   38.7242 H   0  0  0  0  0  0  0  0  0  0  0  0
   40.9169   34.8411   37.3102 H   0  0  0  0  0  0  0  0  0  0  0  0
   38.5263   34.7282   37.0494 H   0  0  0  0  0  0  0  0  0  0  0  0
   39.2224   33.0996   37.3221 H   0  0  0  0  0  0  0  0  0  0  0  0
   37.4605   34.7710   39.0867 H   0  0  0  0  0  0  0  0  0  0  0  0
   37.5343   32.9844   38.8781 H   0  0  0  0  0  0  0  0  0  0  0  0
   39.2543   34.7881   40.6484 H   0  0  0  0  0  0  0  0  0  0  0  0
   38.4357   33.2607   41.0720 H   0  0  0  0  0  0  0  0  0  0  0  0
   40.0516   32.2610   39.1709 H   0  0  0  0  0  0  0  0  0  0  0  0
   42.3739   33.5894   41.9933 H   0  0  0  0  0  0  0  0  0  0  0  0
   40.5544   35.7803   41.2053 H   0  0  0  0  0  0  0  0  0  0  0  0
   41.7100   36.7948   41.0245 H   0  0  0  0  0  0  0  0  0  0  0  0
   42.5936   34.7845   39.0337 H   0  0  0  0  0  0  0  0  0  0  0  0
   47.4096   35.4794   42.9676 H   0  0  0  0  0  0  0  0  0  0  0  0
   45.4104   36.1011   44.4166 H   0  0  0  0  0  0  0  0  0  0  0  0
   48.1428   34.0364   41.1951 H   0  0  0  0  0  0  0  0  0  0  0  0
   47.0393   33.4428   39.9080 H   0  0  0  0  0  0  0  0  0  0  0  0
   47.5799   35.1558   39.9080 H   0  0  0  0  0  0  0  0  0  0  0  0
   39.4353   32.4506   42.5938 H   0  0  0  0  0  0  0  0  0  0  0  0
   40.2580   30.6029   43.9749 H   0  0  0  0  0  0  0  0  0  0  0  0
   42.7482   29.3700   40.7968 H   0  0  0  0  0  0  0  0  0  0  0  0
  1  6  1  0
  1  9  1  0
  2  1  1  0
  3  2  1  0
  3  4  1  0
  4  5  1  0
  6  5  1  0
  6 17  1  0
  7 14  1  0
  8  7  1  0
  9  8  1  0
  9  7  1  0
 10 11  2  0
 11 12  1  0
 13 12  2  0
 14 13  1  0
 15 10  1  0
 15 14  2  0
 16 10  1  0
 17 18  2  0
 18 19  1  0
 20 19  2  0
 21 20  1  0
 22 17  1  0
 22 21  2  0
  1 23  1  6
  2 24  1  0
  2 25  1  0
  3 26  1  0
  3 27  1  0
  4 28  1  0
  4 29  1  0
  5 30  1  0
  5 31  1  0
  6 32  1  6
  7 33  1  1
  8 34  1  0
  8 35  1  0
  9 36  1  6
 11 37  1  0
 12 38  1  0
 16 39  1  0
 16 40  1  0
 16 41  1  0
 18 42  1  0
 19 43  1  0
 21 44  1  0
M  ISO  8  23  13  24  13  25  13  26  13  27  13  28  13  29  13  30  13
M  ISO  8  31  13  32  13  33  13  34  13  35  13  36  13  37  14  38  14
M  ISO  6  39   8  40   8  41   8  42  14  43  14  44  14
M  END
>  <minimizedAffinity>  (1) 
-5.98611879

>  <minimizedRMSD>  (1) 
0.234160259

$$$$
