
     RDKit          3D

 49 52  0  0  1  0  0  0  0  0999 V2000
   40.9690   33.4300   39.5270 C   0  0  2  0  0  0  0  0  0  0  0  0
   40.5330   33.8520   38.1550 C   0  0  0  0  0  0  0  0  0  0  0  0
   39.1740   33.4010   37.7530 C   0  0  0  0  0  0  0  0  0  0  0  0
   38.1390   33.8310   38.7500 C   0  0  0  0  0  0  0  0  0  0  0  0
   38.7920   34.3310   40.0260 C   0  0  0  0  0  0  0  0  0  0  0  0
   39.8150   33.3470   40.4170 C   0  0  1  0  0  0  0  0  0  0  0  0
   42.3530   34.5780   41.4530 C   0  0  1  0  0  0  0  0  0  0  0  0
   41.7190   35.7030   40.5920 C   0  0  0  0  0  0  0  0  0  0  0  0
   42.0110   34.4080   40.0590 C   0  0  2  0  0  0  0  0  0  0  0  0
   46.0370   34.6360   41.3720 C   0  0  0  0  0  0  0  0  0  0  0  0
   46.3590   35.2530   42.6090 C   0  0  0  0  0  0  0  0  0  0  0  0
   45.2870   35.6580   43.4530 C   0  0  0  0  0  0  0  0  0  0  0  0
   44.0110   35.4320   43.0300 N   0  0  0  0  0  0  0  0  0  0  0  0
   43.7600   34.8470   41.8560 C   0  0  0  0  0  0  0  0  0  0  0  0
   44.7600   34.4420   41.0110 N   0  0  0  0  0  0  0  0  0  0  0  0
   47.1610   34.2140   40.5270 C   0  0  0  0  0  0  0  0  0  0  0  0
   38.6710   29.1910   40.6960 C   0  0  0  0  0  0  0  0  0  0  0  0
   37.7550   30.1460   41.0740 C   0  0  0  0  0  0  0  0  0  0  0  0
   38.0960   31.4720   40.9880 C   0  0  0  0  0  0  0  0  0  0  0  0
   39.3000   31.9760   40.5500 C   0  0  0  0  0  0  0  0  0  0  0  0
   40.1650   30.9240   40.1890 C   0  0  0  0  0  0  0  0  0  0  0  0
   39.9100   29.5700   40.2400 C   0  0  0  0  0  0  0  0  0  0  0  0
   38.3070   27.4850   40.7790 S   0  0  0  0  0  0  0  0  0  0  0  0
   39.1490   26.7820   41.7980 O   0  0  0  0  0  0  0  0  0  0  0  0
   36.8560   27.3460   41.1390 O   0  0  0  0  0  0  0  0  0  0  0  0
   41.4278   32.4316   39.4762 H   0  0  0  0  0  0  0  0  0  0  0  0
   40.5518   34.9511   38.1156 H   0  0  0  0  0  0  0  0  0  0  0  0
   41.2321   33.3737   37.4532 H   0  0  0  0  0  0  0  0  0  0  0  0
   38.9284   33.8343   36.7722 H   0  0  0  0  0  0  0  0  0  0  0  0
   39.1735   32.3021   37.7046 H   0  0  0  0  0  0  0  0  0  0  0  0
   37.5332   34.6394   38.3146 H   0  0  0  0  0  0  0  0  0  0  0  0
   37.5054   32.9658   38.9947 H   0  0  0  0  0  0  0  0  0  0  0  0
   39.2614   35.3099   39.8486 H   0  0  0  0  0  0  0  0  0  0  0  0
   38.0432   34.4478   40.8233 H   0  0  0  0  0  0  0  0  0  0  0  0
   40.1440   33.6148   41.4319 H   0  0  0  0  0  0  0  0  0  0  0  0
   42.1337   34.0026   42.3645 H   0  0  0  0  0  0  0  0  0  0  0  0
   40.6771   36.0125   40.7614 H   0  0  0  0  0  0  0  0  0  0  0  0
   41.9764   36.7407   40.3334 H   0  0  0  0  0  0  0  0  0  0  0  0
   42.5869   34.0704   39.1847 H   0  0  0  0  0  0  0  0  0  0  0  0
   47.4058   35.4134   42.9065 H   0  0  0  0  0  0  0  0  0  0  0  0
   45.4831   36.1409   44.4217 H   0  0  0  0  0  0  0  0  0  0  0  0
   48.0005   33.8988   41.1641 H   0  0  0  0  0  0  0  0  0  0  0  0
   46.8466   33.3727   39.8919 H   0  0  0  0  0  0  0  0  0  0  0  0
   47.4780   35.0543   39.8919 H   0  0  0  0  0  0  0  0  0  0  0  0
   36.7612   29.8496   41.4407 H   0  0  0  0  0  0  0  0  0  0  0  0
   37.3346   32.2025   41.2987 H   0  0  0  0  0  0  0  0  0  0  0  0
   41.1603   31.2173   39.8237 H   0  0  0  0  0  0  0  0  0  0  0  0
   40.6621   28.8294   39.9306 H   0  0  0  0  0  0  0  0  0  0  0  0
   38.5788   26.9087   39.5662 H   0  0  0  0  0  0  0  0  0  0  0  0
  1  9  1  0
  1  6  1  0
  2  1  1  0
  3  2  1  0
  3  4  1  0
  4  5  1  0
  5  6  1  0
  6 20  1  0
  7 14  1  0
  8  7  1  0
  9  8  1  0
  9  7  1  0
 10 11  2  0
 11 12  1  0
 13 12  2  0
 14 13  1  0
 15 10  1  0
 15 14  2  0
 16 10  1  0
 17 23  1  0
 17 18  2  0
 19 18  1  0
 20 19  2  0
 21 22  2  0
 21 20  1  0
 22 17  1  0
 23 25  2  0
 23 24  2  0
  1 26  1  6
  2 27  1  0
  2 28  1  0
  3 29  1  0
  3 30  1  0
  4 31  1  0
  4 32  1  0
  5 33  1  0
  5 34  1  0
  6 35  1  1
  7 36  1  1
  8 37  1  0
  8 38  1  0
  9 39  1  6
 11 40  1  0
 12 41  1  0
 16 42  1  0
 16 43  1  0
 16 44  1  0
 18 45  1  0
 19 46  1  0
 21 47  1  0
 22 48  1  0
 23 49  1  0
M  ISO  8  26  13  27  13  28  13  29  13  30  13  31  13  32  13  33  13
M  ISO  8  34  13  35  13  36  13  37  13  38  13  39  13  40  14  41  14
M  ISO  8  42   8  43   8  44   8  45  14  46  14  47  14  48  14  49  11
M  END
>  <minimizedAffinity>  (1) 
-6.08226681

>  <minimizedRMSD>  (1) 
1.84512329

$$$$
