
     RDKit          3D

 49 52  0  0  1  0  0  0  0  0999 V2000
   41.1100   33.8580   39.1190 C   0  0  2  0  0  0  0  0  0  0  0  0
   40.2900   34.7280   38.2210 C   0  0  0  0  0  0  0  0  0  0  0  0
   39.0010   34.1260   37.7860 C   0  0  0  0  0  0  0  0  0  0  0  0
   38.1580   33.7300   38.9450 C   0  0  0  0  0  0  0  0  0  0  0  0
   38.9780   33.7550   40.2470 C   0  0  0  0  0  0  0  0  0  0  0  0
   40.2250   33.0330   39.9790 C   0  0  1  0  0  0  0  0  0  0  0  0
   42.4530   34.4320   41.3140 C   0  0  1  0  0  0  0  0  0  0  0  0
   41.6020   35.6660   40.9190 C   0  0  0  0  0  0  0  0  0  0  0  0
   42.0450   34.6910   39.9580 C   0  0  2  0  0  0  0  0  0  0  0  0
   46.1330   34.6620   41.3710 C   0  0  0  0  0  0  0  0  0  0  0  0
   46.3860   35.2600   42.6210 C   0  0  0  0  0  0  0  0  0  0  0  0
   45.2550   35.6020   43.4380 C   0  0  0  0  0  0  0  0  0  0  0  0
   44.0130   35.3300   42.9590 N   0  0  0  0  0  0  0  0  0  0  0  0
   43.8270   34.7590   41.7650 C   0  0  0  0  0  0  0  0  0  0  0  0
   44.8770   34.4150   40.9490 N   0  0  0  0  0  0  0  0  0  0  0  0
   47.3010   34.3110   40.5430 C   0  0  0  0  0  0  0  0  0  0  0  0
   39.9990   31.6370   39.4460 C   0  0  0  0  0  0  0  0  0  0  0  0
   40.9440   31.3430   38.3010 C   0  0  0  0  0  0  0  0  0  0  0  0
   40.1050   30.6730   37.2340 C   0  0  0  0  0  0  0  0  0  0  0  0
   38.6800   31.0100   37.5060 C   0  0  0  0  0  0  0  0  0  0  0  0
   38.5980   31.6390   38.8560 C   0  0  0  0  0  0  0  0  0  0  0  0
   41.7191   33.1857   38.4970 H   0  0  0  0  0  0  0  0  0  0  0  0
   40.0689   35.6628   38.7569 H   0  0  0  0  0  0  0  0  0  0  0  0
   40.8851   34.8847   37.3092 H   0  0  0  0  0  0  0  0  0  0  0  0
   38.4510   34.8613   37.1803 H   0  0  0  0  0  0  0  0  0  0  0  0
   39.2258   33.2216   37.2016 H   0  0  0  0  0  0  0  0  0  0  0  0
   37.3155   34.4314   39.0352 H   0  0  0  0  0  0  0  0  0  0  0  0
   37.7871   32.7077   38.7799 H   0  0  0  0  0  0  0  0  0  0  0  0
   39.1969   34.7935   40.5362 H   0  0  0  0  0  0  0  0  0  0  0  0
   38.4213   33.2863   41.0719 H   0  0  0  0  0  0  0  0  0  0  0  0
   40.7418   32.8736   40.9369 H   0  0  0  0  0  0  0  0  0  0  0  0
   42.3836   33.5521   41.9704 H   0  0  0  0  0  0  0  0  0  0  0  0
   40.5412   35.7252   41.2038 H   0  0  0  0  0  0  0  0  0  0  0  0
   41.6846   36.7565   41.0374 H   0  0  0  0  0  0  0  0  0  0  0  0
   42.6188   34.7399   39.0208 H   0  0  0  0  0  0  0  0  0  0  0  0
   47.4136   35.4582   42.9597 H   0  0  0  0  0  0  0  0  0  0  0  0
   45.3907   36.0709   44.4237 H   0  0  0  0  0  0  0  0  0  0  0  0
   48.1494   34.0560   41.1951 H   0  0  0  0  0  0  0  0  0  0  0  0
   47.0541   33.4474   39.9080 H   0  0  0  0  0  0  0  0  0  0  0  0
   47.5711   35.1677   39.9080 H   0  0  0  0  0  0  0  0  0  0  0  0
   40.1483   30.8980   40.2470 H   0  0  0  0  0  0  0  0  0  0  0  0
   41.3801   32.2763   37.9152 H   0  0  0  0  0  0  0  0  0  0  0  0
   41.7792   30.7023   38.6203 H   0  0  0  0  0  0  0  0  0  0  0  0
   40.2472   29.5830   37.2742 H   0  0  0  0  0  0  0  0  0  0  0  0
   40.4009   31.0217   36.2336 H   0  0  0  0  0  0  0  0  0  0  0  0
   38.3121   31.7136   36.7447 H   0  0  0  0  0  0  0  0  0  0  0  0
   38.0621   30.1006   37.4730 H   0  0  0  0  0  0  0  0  0  0  0  0
   38.2290   32.6715   38.7676 H   0  0  0  0  0  0  0  0  0  0  0  0
   37.9043   31.0811   39.5022 H   0  0  0  0  0  0  0  0  0  0  0  0
  1  9  1  0
  1  6  1  0
  2  1  1  0
  3  2  1  0
  3  4  1  0
  4  5  1  0
  6  5  1  0
  7 14  1  0
  8  7  1  0
  9  8  1  0
  9  7  1  0
 10 11  2  0
 11 12  1  0
 13 12  2  0
 14 13  1  0
 15 10  1  0
 15 14  2  0
 16 10  1  0
 17  6  1  0
 18 17  1  0
 19 20  1  0
 19 18  1  0
 20 21  1  0
 21 17  1  0
  1 22  1  6
  2 23  1  0
  2 24  1  0
  3 25  1  0
  3 26  1  0
  4 27  1  0
  4 28  1  0
  5 29  1  0
  5 30  1  0
  6 31  1  1
  7 32  1  1
  8 33  1  0
  8 34  1  0
  9 35  1  6
 11 36  1  0
 12 37  1  0
 16 38  1  0
 16 39  1  0
 16 40  1  0
 17 41  1  0
 18 42  1  0
 18 43  1  0
 19 44  1  0
 19 45  1  0
 20 46  1  0
 20 47  1  0
 21 48  1  0
 21 49  1  0
M  ISO  8  22  13  23  13  24  13  25  13  26  13  27  13  28  13  29  13
M  ISO  8  30  13  31  13  32  13  33  13  34  13  35  13  36  14  37  14
M  ISO  8  38   8  39   8  40   8  41  13  42  13  43  13  44  13  45  13
M  ISO  4  46  13  47  13  48  13  49  13
M  END
>  <minimizedAffinity>  (1) 
-6.05080223

>  <minimizedRMSD>  (1) 
0.30346486

$$$$
