
     RDKit          3D

 43 46  0  0  1  0  0  0  0  0999 V2000
   41.1530   33.9770   38.9740 C   0  0  2  0  0  0  0  0  0  0  0  0
   40.2790   34.8750   38.1490 C   0  0  0  0  0  0  0  0  0  0  0  0
   39.0040   34.2490   37.6810 C   0  0  0  0  0  0  0  0  0  0  0  0
   38.1840   33.8000   38.8490 C   0  0  0  0  0  0  0  0  0  0  0  0
   39.0470   33.6870   40.1090 C   0  0  0  0  0  0  0  0  0  0  0  0
   40.3080   33.0620   39.7520 C   0  0  1  0  0  0  0  0  0  0  0  0
   42.4620   34.4300   41.2060 C   0  0  1  0  0  0  0  0  0  0  0  0
   41.5920   35.6810   40.9080 C   0  0  0  0  0  0  0  0  0  0  0  0
   42.0540   34.8100   39.8670 C   0  0  2  0  0  0  0  0  0  0  0  0
   46.1380   34.6330   41.3270 C   0  0  0  0  0  0  0  0  0  0  0  0
   46.3690   35.2200   42.5990 C   0  0  0  0  0  0  0  0  0  0  0  0
   45.2340   35.5530   43.3970 C   0  0  0  0  0  0  0  0  0  0  0  0
   43.9980   35.2890   42.8940 N   0  0  0  0  0  0  0  0  0  0  0  0
   43.8300   34.7370   41.6920 C   0  0  0  0  0  0  0  0  0  0  0  0
   44.8870   34.3970   40.8840 N   0  0  0  0  0  0  0  0  0  0  0  0
   47.3180   34.2820   40.5260 C   0  0  0  0  0  0  0  0  0  0  0  0
   40.0580   31.8630   38.9690 N   0  0  0  0  0  0  0  0  0  0  0  0
   40.6680   31.4400   37.8500 N   0  0  0  0  0  0  0  0  0  0  0  0
   40.1770   30.2900   37.4200 C   0  0  0  0  0  0  0  0  0  0  0  0
   39.1810   29.8950   38.2750 C   0  0  0  0  0  0  0  0  0  0  0  0
   39.1410   30.8980   39.2210 C   0  0  0  0  0  0  0  0  0  0  0  0
   41.8014   33.3745   38.3209 H   0  0  0  0  0  0  0  0  0  0  0  0
   40.0252   35.7571   38.7552 H   0  0  0  0  0  0  0  0  0  0  0  0
   40.8539   35.1221   37.2443 H   0  0  0  0  0  0  0  0  0  0  0  0
   38.4314   34.9853   37.0978 H   0  0  0  0  0  0  0  0  0  0  0  0
   39.2435   33.3758   37.0564 H   0  0  0  0  0  0  0  0  0  0  0  0
   37.3802   34.5295   39.0269 H   0  0  0  0  0  0  0  0  0  0  0  0
   37.7603   32.8105   38.6223 H   0  0  0  0  0  0  0  0  0  0  0  0
   39.2339   34.6895   40.5214 H   0  0  0  0  0  0  0  0  0  0  0  0
   38.5284   33.0812   40.8667 H   0  0  0  0  0  0  0  0  0  0  0  0
   40.8342   32.8032   40.6827 H   0  0  0  0  0  0  0  0  0  0  0  0
   42.4031   33.4956   41.7834 H   0  0  0  0  0  0  0  0  0  0  0  0
   40.5282   35.6973   41.1875 H   0  0  0  0  0  0  0  0  0  0  0  0
   41.6571   36.7577   41.1236 H   0  0  0  0  0  0  0  0  0  0  0  0
   42.6112   34.9886   38.9356 H   0  0  0  0  0  0  0  0  0  0  0  0
   47.3909   35.4120   42.9580 H   0  0  0  0  0  0  0  0  0  0  0  0
   45.3550   36.0100   44.3902 H   0  0  0  0  0  0  0  0  0  0  0  0
   48.1547   34.0331   41.1953 H   0  0  0  0  0  0  0  0  0  0  0  0
   47.0855   33.4141   39.8914 H   0  0  0  0  0  0  0  0  0  0  0  0
   47.5976   35.1359   39.8914 H   0  0  0  0  0  0  0  0  0  0  0  0
   40.5115   29.7424   36.5265 H   0  0  0  0  0  0  0  0  0  0  0  0
   38.5589   28.9895   38.2196 H   0  0  0  0  0  0  0  0  0  0  0  0
   38.4489   30.9126   40.0759 H   0  0  0  0  0  0  0  0  0  0  0  0
  1  6  1  0
  1  9  1  0
  2  1  1  0
  3  2  1  0
  3  4  1  0
  4  5  1  0
  6  5  1  0
  7 14  1  0
  8  7  1  0
  9  8  1  0
  9  7  1  0
 10 11  2  0
 11 12  1  0
 13 12  2  0
 14 13  1  0
 15 10  1  0
 15 14  2  0
 16 10  1  0
 17 21  1  0
 17  6  1  0
 18 17  1  0
 19 18  2  0
 19 20  1  0
 20 21  2  0
  1 22  1  6
  2 23  1  0
  2 24  1  0
  3 25  1  0
  3 26  1  0
  4 27  1  0
  4 28  1  0
  5 29  1  0
  5 30  1  0
  6 31  1  1
  7 32  1  1
  8 33  1  0
  8 34  1  0
  9 35  1  6
 11 36  1  0
 12 37  1  0
 16 38  1  0
 16 39  1  0
 16 40  1  0
 19 41  1  0
 20 42  1  0
 21 43  1  0
M  ISO  8  22  13  23  13  24  13  25  13  26  13  27  13  28  13  29  13
M  ISO  8  30  13  31  13  32  13  33  13  34  13  35  13  36  14  37  14
M  ISO  6  38   8  39   8  40   8  41  14  42  14  43  14
M  END
>  <minimizedAffinity>  (1) 
-5.72291756

>  <minimizedRMSD>  (1) 
0.108288445

$$$$
