
     RDKit          3D

 42 44  0  0  1  0  0  0  0  0999 V2000
   42.5000   34.4210   41.0840 C   0  0  1  0  0  0  0  0  0  0  0  0
   41.5830   35.6490   40.8450 C   0  0  0  0  0  0  0  0  0  0  0  0
   42.1240   34.8710   39.7690 C   0  0  2  0  0  0  0  0  0  0  0  0
   41.2930   34.0930   38.7640 C   0  0  2  0  0  0  0  0  0  0  0  0
   40.3050   35.0050   38.1010 C   0  0  0  0  0  0  0  0  0  0  0  0
   39.0810   34.3310   37.5650 C   0  0  0  0  0  0  0  0  0  0  0  0
   38.3660   33.5990   38.6450 C   0  0  0  0  0  0  0  0  0  0  0  0
   39.2640   33.3960   39.8630 C   0  0  0  0  0  0  0  0  0  0  0  0
   40.5880   32.9790   39.4040 C   0  0  1  0  0  0  0  0  0  0  0  0
   40.5940   31.7580   38.5490 C   0  0  0  0  0  0  0  0  0  0  0  0
   41.8680   31.6530   37.6950 C   0  0  0  0  0  0  0  0  0  0  0  0
   46.1510   34.7040   41.4440 C   0  0  0  0  0  0  0  0  0  0  0  0
   46.3040   35.2990   42.7050 C   0  0  0  0  0  0  0  0  0  0  0  0
   45.1100   35.6220   43.4310 C   0  0  0  0  0  0  0  0  0  0  0  0
   43.9120   35.3300   42.8510 N   0  0  0  0  0  0  0  0  0  0  0  0
   43.8330   34.7620   41.6440 C   0  0  0  0  0  0  0  0  0  0  0  0
   44.9490   34.4370   40.9140 N   0  0  0  0  0  0  0  0  0  0  0  0
   47.3950   34.3560   40.7050 C   0  0  0  0  0  0  0  0  0  0  0  0
   42.4671   33.4446   41.5894 H   0  0  0  0  0  0  0  0  0  0  0  0
   40.5106   35.5981   41.0845 H   0  0  0  0  0  0  0  0  0  0  0  0
   41.5879   36.7098   41.1359 H   0  0  0  0  0  0  0  0  0  0  0  0
   42.7152   35.1225   38.8761 H   0  0  0  0  0  0  0  0  0  0  0  0
   41.9758   33.6778   38.0081 H   0  0  0  0  0  0  0  0  0  0  0  0
   39.9855   35.7557   38.8388 H   0  0  0  0  0  0  0  0  0  0  0  0
   40.8222   35.4381   37.2321 H   0  0  0  0  0  0  0  0  0  0  0  0
   38.4091   35.0899   37.1376 H   0  0  0  0  0  0  0  0  0  0  0  0
   39.3851   33.6102   36.7917 H   0  0  0  0  0  0  0  0  0  0  0  0
   37.4800   34.1779   38.9450 H   0  0  0  0  0  0  0  0  0  0  0  0
   38.0722   32.6111   38.2605 H   0  0  0  0  0  0  0  0  0  0  0  0
   39.3464   34.3389   40.4236 H   0  0  0  0  0  0  0  0  0  0  0  0
   38.8353   32.6257   40.5209 H   0  0  0  0  0  0  0  0  0  0  0  0
   41.1358   32.6842   40.3112 H   0  0  0  0  0  0  0  0  0  0  0  0
   40.5279   30.8716   39.1969 H   0  0  0  0  0  0  0  0  0  0  0  0
   39.7339   31.8199   37.8660 H   0  0  0  0  0  0  0  0  0  0  0  0
   42.7460   31.5806   38.3537 H   0  0  0  0  0  0  0  0  0  0  0  0
   41.8110   30.7565   37.0601 H   0  0  0  0  0  0  0  0  0  0  0  0
   41.9586   32.5467   37.0601 H   0  0  0  0  0  0  0  0  0  0  0  0
   47.3004   35.5096   43.1207 H   0  0  0  0  0  0  0  0  0  0  0  0
   45.1598   36.0908   44.4249 H   0  0  0  0  0  0  0  0  0  0  0  0
   48.1974   34.1315   41.4231 H   0  0  0  0  0  0  0  0  0  0  0  0
   47.2116   33.4747   40.0728 H   0  0  0  0  0  0  0  0  0  0  0  0
   47.6955   35.2046   40.0728 H   0  0  0  0  0  0  0  0  0  0  0  0
  1 16  1  0
  2  1  1  0
  3  2  1  0
  3  1  1  0
  4  9  1  0
  4  3  1  0
  5  4  1  0
  6  5  1  0
  6  7  1  0
  7  8  1  0
  9  8  1  0
 10  9  1  0
 11 10  1  0
 12 13  2  0
 13 14  1  0
 15 14  2  0
 16 15  1  0
 17 12  1  0
 17 16  2  0
 18 12  1  0
  1 19  1  1
  2 20  1  0
  2 21  1  0
  3 22  1  6
  4 23  1  6
  5 24  1  0
  5 25  1  0
  6 26  1  0
  6 27  1  0
  7 28  1  0
  7 29  1  0
  8 30  1  0
  8 31  1  0
  9 32  1  1
 10 33  1  0
 10 34  1  0
 11 35  1  0
 11 36  1  0
 11 37  1  0
 13 38  1  0
 14 39  1  0
 18 40  1  0
 18 41  1  0
 18 42  1  0
M  ISO  8  19  13  20  13  21  13  22  13  23  13  24  13  25  13  26  13
M  ISO  8  27  13  28  13  29  13  30  13  31  13  32  13  33   8  34   8
M  ISO  8  35   8  36   8  37   8  38  14  39  14  40   8  41   8  42   8
M  END
>  <minimizedAffinity>  (1) 
-5.39259577

>  <minimizedRMSD>  (1) 
0.456479609

$$$$
