
     RDKit          3D

 45 47  0  0  1  0  0  0  0  0999 V2000
   42.4540   34.4120   41.2280 C   0  0  1  0  0  0  0  0  0  0  0  0
   41.5850   35.6530   40.8950 C   0  0  0  0  0  0  0  0  0  0  0  0
   42.0500   34.7400   39.8890 C   0  0  2  0  0  0  0  0  0  0  0  0
   41.1520   33.8980   39.0090 C   0  0  2  0  0  0  0  0  0  0  0  0
   40.3000   34.8150   38.1550 C   0  0  0  0  0  0  0  0  0  0  0  0
   39.0320   34.1970   37.6750 C   0  0  0  0  0  0  0  0  0  0  0  0
   38.2050   33.7130   38.8150 C   0  0  0  0  0  0  0  0  0  0  0  0
   39.0230   33.6830   40.1190 C   0  0  0  0  0  0  0  0  0  0  0  0
   40.2870   33.0230   39.8030 C   0  0  1  0  0  0  0  0  0  0  0  0
   40.0680   31.6460   39.1910 C   0  0  0  0  0  0  0  0  0  0  0  0
   38.5600   31.5580   38.9170 C   0  0  0  0  0  0  0  0  0  0  0  0
   40.7170   31.5680   37.8250 C   0  0  0  0  0  0  0  0  0  0  0  0
   46.1320   34.6590   41.3600 C   0  0  0  0  0  0  0  0  0  0  0  0
   46.3620   35.2550   42.6040 C   0  0  0  0  0  0  0  0  0  0  0  0
   45.2200   35.5910   43.4030 C   0  0  0  0  0  0  0  0  0  0  0  0
   43.9840   35.3110   42.9020 N   0  0  0  0  0  0  0  0  0  0  0  0
   43.8220   34.7410   41.7060 C   0  0  0  0  0  0  0  0  0  0  0  0
   44.8870   34.4020   40.9080 N   0  0  0  0  0  0  0  0  0  0  0  0
   47.3160   34.2990   40.5430 C   0  0  0  0  0  0  0  0  0  0  0  0
   42.3959   33.4953   41.8332 H   0  0  0  0  0  0  0  0  0  0  0  0
   40.5214   35.6797   41.1745 H   0  0  0  0  0  0  0  0  0  0  0  0
   41.6486   36.7366   41.0730 H   0  0  0  0  0  0  0  0  0  0  0  0
   42.6153   34.8724   38.9547 H   0  0  0  0  0  0  0  0  0  0  0  0
   41.7851   33.2597   38.3751 H   0  0  0  0  0  0  0  0  0  0  0  0
   40.0467   35.7046   38.7504 H   0  0  0  0  0  0  0  0  0  0  0  0
   40.8931   35.0564   37.2606 H   0  0  0  0  0  0  0  0  0  0  0  0
   38.4593   34.9462   37.1086 H   0  0  0  0  0  0  0  0  0  0  0  0
   39.2828   33.3373   37.0362 H   0  0  0  0  0  0  0  0  0  0  0  0
   37.3446   34.3857   38.9459 H   0  0  0  0  0  0  0  0  0  0  0  0
   37.8657   32.6908   38.5916 H   0  0  0  0  0  0  0  0  0  0  0  0
   39.2081   34.7073   40.4747 H   0  0  0  0  0  0  0  0  0  0  0  0
   38.4833   33.1472   40.9138 H   0  0  0  0  0  0  0  0  0  0  0  0
   40.8274   32.8356   40.7426 H   0  0  0  0  0  0  0  0  0  0  0  0
   40.4695   30.8669   39.8557 H   0  0  0  0  0  0  0  0  0  0  0  0
   38.0151   31.5262   39.8720 H   0  0  0  0  0  0  0  0  0  0  0  0
   38.2399   32.4390   38.3413 H   0  0  0  0  0  0  0  0  0  0  0  0
   38.3445   30.6458   38.3413 H   0  0  0  0  0  0  0  0  0  0  0  0
   41.8030   31.4375   37.9419 H   0  0  0  0  0  0  0  0  0  0  0  0
   40.3026   30.7132   37.2704 H   0  0  0  0  0  0  0  0  0  0  0  0
   40.5169   32.4967   37.2704 H   0  0  0  0  0  0  0  0  0  0  0  0
   47.3836   35.4589   42.9572 H   0  0  0  0  0  0  0  0  0  0  0  0
   45.3379   36.0607   44.3907 H   0  0  0  0  0  0  0  0  0  0  0  0
   48.1554   34.0438   41.2065 H   0  0  0  0  0  0  0  0  0  0  0  0
   47.0742   33.4338   39.9082 H   0  0  0  0  0  0  0  0  0  0  0  0
   47.5967   35.1524   39.9082 H   0  0  0  0  0  0  0  0  0  0  0  0
  1 17  1  0
  2  1  1  0
  3  2  1  0
  3  1  1  0
  4  9  1  0
  4  3  1  0
  5  4  1  0
  6  5  1  0
  6  7  1  0
  7  8  1  0
  9  8  1  0
 10  9  1  0
 11 10  1  0
 12 10  1  0
 13 14  2  0
 14 15  1  0
 16 15  2  0
 17 16  1  0
 18 13  1  0
 18 17  2  0
 19 13  1  0
  1 20  1  1
  2 21  1  0
  2 22  1  0
  3 23  1  6
  4 24  1  6
  5 25  1  0
  5 26  1  0
  6 27  1  0
  6 28  1  0
  7 29  1  0
  7 30  1  0
  8 31  1  0
  8 32  1  0
  9 33  1  1
 10 34  1  0
 11 35  1  0
 11 36  1  0
 11 37  1  0
 12 38  1  0
 12 39  1  0
 12 40  1  0
 14 41  1  0
 15 42  1  0
 19 43  1  0
 19 44  1  0
 19 45  1  0
M  ISO  8  20  13  21  13  22  13  23  13  24  13  25  13  26  13  27  13
M  ISO  8  28  13  29  13  30  13  31  13  32  13  33  13  34   8  35   8
M  ISO  8  36   8  37   8  38   8  39   8  40   8  41  14  42  14  43   8
M  ISO  2  44   8  45   8
M  END
>  <minimizedAffinity>  (1) 
-5.67499399

>  <minimizedRMSD>  (1) 
0.338205367

$$$$
