
     RDKit          3D

 38 40  0  0  1  0  0  0  0  0999 V2000
   42.4550   34.4510   41.2820 C   0  0  1  0  0  0  0  0  0  0  0  0
   41.6110   35.7030   40.9200 C   0  0  0  0  0  0  0  0  0  0  0  0
   42.0550   34.7600   39.9410 C   0  0  2  0  0  0  0  0  0  0  0  0
   41.1570   33.9070   39.0760 C   0  0  2  0  0  0  0  0  0  0  0  0
   40.2310   34.8000   38.2700 C   0  0  0  0  0  0  0  0  0  0  0  0
   38.9770   34.1100   37.8180 C   0  0  0  0  0  0  0  0  0  0  0  0
   38.1630   33.7160   39.0300 C   0  0  0  0  0  0  0  0  0  0  0  0
   39.0740   33.6430   40.2820 C   0  0  0  0  0  0  0  0  0  0  0  0
   40.3390   32.9840   39.8460 C   0  0  2  0  0  0  0  0  0  0  0  0
   40.9300   32.1170   40.8120 N   0  0  0  0  0  0  0  0  0  0  0  0
   46.1330   34.6750   41.3860 C   0  0  0  0  0  0  0  0  0  0  0  0
   46.3780   35.2610   42.6360 C   0  0  0  0  0  0  0  0  0  0  0  0
   45.2510   35.5940   43.4370 C   0  0  0  0  0  0  0  0  0  0  0  0
   44.0080   35.3260   42.9500 N   0  0  0  0  0  0  0  0  0  0  0  0
   43.8340   34.7660   41.7500 C   0  0  0  0  0  0  0  0  0  0  0  0
   44.8880   34.4280   40.9400 N   0  0  0  0  0  0  0  0  0  0  0  0
   47.3100   34.3150   40.5520 C   0  0  0  0  0  0  0  0  0  0  0  0
   42.3798   33.5490   41.9071 H   0  0  0  0  0  0  0  0  0  0  0  0
   40.5484   35.7586   41.1988 H   0  0  0  0  0  0  0  0  0  0  0  0
   41.6969   36.7891   41.0720 H   0  0  0  0  0  0  0  0  0  0  0  0
   42.6163   34.8683   39.0012 H   0  0  0  0  0  0  0  0  0  0  0  0
   41.8168   33.3158   38.4241 H   0  0  0  0  0  0  0  0  0  0  0  0
   39.9490   35.6616   38.8929 H   0  0  0  0  0  0  0  0  0  0  0  0
   40.7788   35.1009   37.3648 H   0  0  0  0  0  0  0  0  0  0  0  0
   38.3893   34.7917   37.1856 H   0  0  0  0  0  0  0  0  0  0  0  0
   39.2372   33.2116   37.2390 H   0  0  0  0  0  0  0  0  0  0  0  0
   37.3739   34.4639   39.1972 H   0  0  0  0  0  0  0  0  0  0  0  0
   37.7113   32.7284   38.8551 H   0  0  0  0  0  0  0  0  0  0  0  0
   39.2830   34.6548   40.6597 H   0  0  0  0  0  0  0  0  0  0  0  0
   38.5908   33.0796   41.0939 H   0  0  0  0  0  0  0  0  0  0  0  0
   40.1228   32.1976   39.1078 H   0  0  0  0  0  0  0  0  0  0  0  0
   40.7018   32.4518   41.7590 H   0  0  0  0  0  0  0  0  0  0  0  0
   40.5626   31.1629   40.6873 H   0  0  0  0  0  0  0  0  0  0  0  0
   47.4032   35.4558   42.9840 H   0  0  0  0  0  0  0  0  0  0  0  0
   45.3804   36.0570   44.4264 H   0  0  0  0  0  0  0  0  0  0  0  0
   48.1566   34.0561   41.2049 H   0  0  0  0  0  0  0  0  0  0  0  0
   47.0594   33.4524   39.9170 H   0  0  0  0  0  0  0  0  0  0  0  0
   47.5848   35.1702   39.9170 H   0  0  0  0  0  0  0  0  0  0  0  0
  1 15  1  0
  2  1  1  0
  3  2  1  0
  3  1  1  0
  4  9  1  0
  4  3  1  0
  5  4  1  0
  6  5  1  0
  6  7  1  0
  7  8  1  0
  9  8  1  0
  9 10  1  0
 11 12  2  0
 12 13  1  0
 14 13  2  0
 15 14  1  0
 16 11  1  0
 16 15  2  0
 17 11  1  0
  1 18  1  1
  2 19  1  0
  2 20  1  0
  3 21  1  6
  4 22  1  6
  5 23  1  0
  5 24  1  0
  6 25  1  0
  6 26  1  0
  7 27  1  0
  7 28  1  0
  8 29  1  0
  8 30  1  0
  9 31  1  6
 10 32  1  0
 10 33  1  0
 12 34  1  0
 13 35  1  0
 17 36  1  0
 17 37  1  0
 17 38  1  0
M  ISO  8  18  13  19  13  20  13  21  13  22  13  23  13  24  13  25  13
M  ISO  8  26  13  27  13  28  13  29  13  30  13  31  13  32   5  33   5
M  ISO  5  34  14  35  14  36   8  37   8  38   8
M  END
>  <minimizedAffinity>  (1) 
-5.44383955

>  <minimizedRMSD>  (1) 
0.0786111131

$$$$
