
     RDKit          3D

 37 39  0  0  1  0  0  0  0  0999 V2000
   42.4610   34.4380   41.3060 C   0  0  1  0  0  0  0  0  0  0  0  0
   41.6120   35.6810   40.9210 C   0  0  0  0  0  0  0  0  0  0  0  0
   42.0550   34.7240   39.9520 C   0  0  2  0  0  0  0  0  0  0  0  0
   41.1420   33.8570   39.1120 C   0  0  2  0  0  0  0  0  0  0  0  0
   40.2430   34.7380   38.2700 C   0  0  0  0  0  0  0  0  0  0  0  0
   38.9800   34.0530   37.8380 C   0  0  0  0  0  0  0  0  0  0  0  0
   38.1460   33.7490   39.0540 C   0  0  0  0  0  0  0  0  0  0  0  0
   39.0500   33.6330   40.3040 C   0  0  0  0  0  0  0  0  0  0  0  0
   40.3010   32.9810   39.9180 C   0  0  2  0  0  0  0  0  0  0  0  0
   40.9140   32.1710   40.8550 O   0  0  0  0  0  0  0  0  0  0  0  0
   46.1320   34.6770   41.3860 C   0  0  0  0  0  0  0  0  0  0  0  0
   46.3880   35.2710   42.6330 C   0  0  0  0  0  0  0  0  0  0  0  0
   45.2580   35.6070   43.4520 C   0  0  0  0  0  0  0  0  0  0  0  0
   44.0230   35.3280   42.9670 N   0  0  0  0  0  0  0  0  0  0  0  0
   43.8370   34.7640   41.7760 C   0  0  0  0  0  0  0  0  0  0  0  0
   44.8780   34.4220   40.9500 N   0  0  0  0  0  0  0  0  0  0  0  0
   47.3020   34.3140   40.5580 C   0  0  0  0  0  0  0  0  0  0  0  0
   42.3910   33.5454   41.9450 H   0  0  0  0  0  0  0  0  0  0  0  0
   40.5499   35.7382   41.2016 H   0  0  0  0  0  0  0  0  0  0  0  0
   41.6964   36.7696   41.0546 H   0  0  0  0  0  0  0  0  0  0  0  0
   42.6156   34.8154   39.0100 H   0  0  0  0  0  0  0  0  0  0  0  0
   41.7882   33.2266   38.4834 H   0  0  0  0  0  0  0  0  0  0  0  0
   39.9744   35.6275   38.8588 H   0  0  0  0  0  0  0  0  0  0  0  0
   40.8014   34.9986   37.3588 H   0  0  0  0  0  0  0  0  0  0  0  0
   38.4170   34.7112   37.1599 H   0  0  0  0  0  0  0  0  0  0  0  0
   39.2255   33.1182   37.3128 H   0  0  0  0  0  0  0  0  0  0  0  0
   37.4167   34.5582   39.2064 H   0  0  0  0  0  0  0  0  0  0  0  0
   37.6203   32.7950   38.9004 H   0  0  0  0  0  0  0  0  0  0  0  0
   39.2627   34.6363   40.7016 H   0  0  0  0  0  0  0  0  0  0  0  0
   38.5426   33.0415   41.0803 H   0  0  0  0  0  0  0  0  0  0  0  0
   40.0102   32.1704   39.2336 H   0  0  0  0  0  0  0  0  0  0  0  0
   40.6785   32.4822   41.7648 H   0  0  0  0  0  0  0  0  0  0  0  0
   47.4160   35.4712   42.9693 H   0  0  0  0  0  0  0  0  0  0  0  0
   45.3895   36.0746   44.4389 H   0  0  0  0  0  0  0  0  0  0  0  0
   48.1468   34.0519   41.2119 H   0  0  0  0  0  0  0  0  0  0  0  0
   47.0487   33.4522   39.9231 H   0  0  0  0  0  0  0  0  0  0  0  0
   47.5809   35.1678   39.9231 H   0  0  0  0  0  0  0  0  0  0  0  0
  1 15  1  0
  2  1  1  0
  3  2  1  0
  3  1  1  0
  4  9  1  0
  4  3  1  0
  5  4  1  0
  6  5  1  0
  6  7  1  0
  7  8  1  0
  9  8  1  0
  9 10  1  0
 11 12  2  0
 12 13  1  0
 14 13  2  0
 15 14  1  0
 16 11  1  0
 16 15  2  0
 17 11  1  0
  1 18  1  1
  2 19  1  0
  2 20  1  0
  3 21  1  6
  4 22  1  6
  5 23  1  0
  5 24  1  0
  6 25  1  0
  6 26  1  0
  7 27  1  0
  7 28  1  0
  8 29  1  0
  8 30  1  0
  9 31  1  6
 10 32  1  0
 12 33  1  0
 13 34  1  0
 17 35  1  0
 17 36  1  0
 17 37  1  0
M  ISO  8  18  13  19  13  20  13  21  13  22  13  23  13  24  13  25  13
M  ISO  8  26  13  27  13  28  13  29  13  30  13  31  13  32   3  33  14
M  ISO  4  34  14  35   8  36   8  37   8
M  END
>  <minimizedAffinity>  (1) 
-5.416399

>  <minimizedRMSD>  (1) 
0.108733281

$$$$
