
     RDKit          3D

 32 35  0  0  0  0  0  0  0  0999 V2000
   45.8030   34.3530   41.7310 N   0  0  0  0  0  0  0  0  0  0  0  0
   45.1540   33.9150   40.6340 C   0  0  0  0  0  0  0  0  0  0  0  0
   46.0170   33.7630   39.6180 N   0  0  0  0  0  0  0  0  0  0  0  0
   47.2330   34.1160   40.1020 C   0  0  0  0  0  0  0  0  0  0  0  0
   47.0980   34.4810   41.4110 N   0  0  0  0  0  0  0  0  0  0  0  0
   48.5120   34.1370   39.4520 N   0  0  0  0  0  0  0  0  0  0  0  0
   43.7430   33.6890   40.6950 N   0  0  0  0  0  0  0  0  0  0  0  0
   43.1270   32.8790   41.6000 C   0  0  0  0  0  0  0  0  0  0  0  0
   41.8040   32.8690   41.4080 N   0  0  0  0  0  0  0  0  0  0  0  0
   41.5390   33.6700   40.3760 C   0  0  0  0  0  0  0  0  0  0  0  0
   40.3610   34.0360   39.7430 C   0  0  0  0  0  0  0  0  0  0  0  0
   39.2800   33.5610   40.1630 O   0  0  0  0  0  0  0  0  0  0  0  0
   40.4580   34.8820   38.7140 N   0  0  0  0  0  0  0  0  0  0  0  0
   41.6310   35.3820   38.2770 C   0  0  0  0  0  0  0  0  0  0  0  0
   41.5450   36.2740   37.1630 N   0  0  0  0  0  0  0  0  0  0  0  0
   42.7960   35.0340   38.8880 N   0  0  0  0  0  0  0  0  0  0  0  0
   42.7250   34.1730   39.9400 C   0  0  0  0  0  0  0  0  0  0  0  0
   44.4680   36.0490   44.7770 C   0  0  0  0  0  0  0  0  0  0  0  0
   44.7860   35.8420   43.4390 C   0  0  0  0  0  0  0  0  0  0  0  0
   45.4260   34.6810   43.0590 C   0  0  0  0  0  0  0  0  0  0  0  0
   45.7260   33.7590   44.0460 N   0  0  0  0  0  0  0  0  0  0  0  0
   45.4060   33.9790   45.3510 C   0  0  0  0  0  0  0  0  0  0  0  0
   44.7860   35.1120   45.6970 N   0  0  0  0  0  0  0  0  0  0  0  0
   49.3491   34.4365   39.9720 H   0  0  0  0  0  0  0  0  0  0  0  0
   48.5930   33.8526   38.4654 H   0  0  0  0  0  0  0  0  0  0  0  0
   43.6480   32.3095   42.3837 H   0  0  0  0  0  0  0  0  0  0  0  0
   39.5940   35.1663   38.2307 H   0  0  0  0  0  0  0  0  0  0  0  0
   42.4003   36.6958   36.7738 H   0  0  0  0  0  0  0  0  0  0  0  0
   40.6278   36.4948   36.7497 H   0  0  0  0  0  0  0  0  0  0  0  0
   43.9586   36.9738   45.0857 H   0  0  0  0  0  0  0  0  0  0  0  0
   44.5279   36.6017   42.6865 H   0  0  0  0  0  0  0  0  0  0  0  0
   45.6560   33.2292   46.1160 H   0  0  0  0  0  0  0  0  0  0  0  0
  1 20  1  0
  2  7  1  0
  2  1  1  0
  3  4  1  0
  3  2  2  0
  4  5  2  0
  5  1  1  0
  6  4  1  0
  7  8  1  0
  9  8  2  0
 10  9  1  0
 11 12  2  0
 11 10  1  0
 13 11  1  0
 14 13  1  0
 14 16  2  0
 15 14  1  0
 16 17  1  0
 17 10  2  0
 17  7  1  0
 18 23  2  0
 19 18  1  0
 20 19  2  0
 20 21  1  0
 21 22  2  0
 22 23  1  0
  6 24  1  0
  6 25  1  0
  8 26  1  0
 13 27  1  0
 15 28  1  0
 15 29  1  0
 18 30  1  0
 19 31  1  0
 22 32  1  0
M  ISO  5  26  14  27   9  30  14  31  14  32  14
M  END
>  <minimizedAffinity>  (1) 
-6.79542446

>  <minimizedRMSD>  (1) 
1.29956722

$$$$
