
     RDKit          3D

 54 57  0  0  1  0  0  0  0  0999 V2000
   41.0480   33.8230   39.1610 C   0  0  2  0  0  0  0  0  0  0  0  0
   40.2250   34.6570   38.2130 C   0  0  0  0  0  0  0  0  0  0  0  0
   38.9320   33.9810   37.8340 C   0  0  0  0  0  0  0  0  0  0  0  0
   38.0960   33.8120   39.0530 C   0  0  0  0  0  0  0  0  0  0  0  0
   38.9480   33.8340   40.3160 C   0  0  0  0  0  0  0  0  0  0  0  0
   40.1670   33.0830   40.0610 C   0  0  1  0  0  0  0  0  0  0  0  0
   42.4000   34.5060   41.2960 C   0  0  1  0  0  0  0  0  0  0  0  0
   41.6850   35.7800   40.7220 C   0  0  0  0  0  0  0  0  0  0  0  0
   42.0300   34.6790   39.9200 C   0  0  2  0  0  0  0  0  0  0  0  0
   46.0830   34.6090   41.3170 C   0  0  0  0  0  0  0  0  0  0  0  0
   46.3680   35.1930   42.5800 C   0  0  0  0  0  0  0  0  0  0  0  0
   45.2750   35.5480   43.4000 C   0  0  0  0  0  0  0  0  0  0  0  0
   44.0220   35.3140   42.9370 N   0  0  0  0  0  0  0  0  0  0  0  0
   43.8000   34.7650   41.7450 C   0  0  0  0  0  0  0  0  0  0  0  0
   44.8190   34.3940   40.8950 N   0  0  0  0  0  0  0  0  0  0  0  0
   47.2300   34.2090   40.4430 C   0  0  0  0  0  0  0  0  0  0  0  0
   39.8400   31.7590   39.4700 C   0  0  0  0  0  0  0  0  0  0  0  0
   38.9540   30.9110   39.6760 O   0  0  0  0  0  0  0  0  0  0  0  0
   40.7540   31.4240   38.4590 O   0  0  0  0  0  0  0  0  0  0  0  0
   39.4450   28.7180   35.5150 N   0  0  0  0  0  0  0  0  0  0  0  0
   38.7890   29.9650   35.6570 C   0  0  0  0  0  0  0  0  0  0  0  0
   38.9140   30.5520   37.0710 C   0  0  0  0  0  0  0  0  0  0  0  0
   40.3820   30.5840   37.3310 C   0  0  0  0  0  0  0  0  0  0  0  0
   40.9080   29.2080   37.4520 C   0  0  0  0  0  0  0  0  0  0  0  0
   40.7080   28.5540   36.0990 C   0  0  0  0  0  0  0  0  0  0  0  0
   41.6364   33.0967   38.5812 H   0  0  0  0  0  0  0  0  0  0  0  0
   39.9939   35.6179   38.6961 H   0  0  0  0  0  0  0  0  0  0  0  0
   40.8121   34.8013   37.2941 H   0  0  0  0  0  0  0  0  0  0  0  0
   38.3938   34.5999   37.1010 H   0  0  0  0  0  0  0  0  0  0  0  0
   39.1442   32.9970   37.3906 H   0  0  0  0  0  0  0  0  0  0  0  0
   37.3629   34.6307   39.1010 H   0  0  0  0  0  0  0  0  0  0  0  0
   37.5883   32.8380   38.9936 H   0  0  0  0  0  0  0  0  0  0  0  0
   39.1993   34.8727   40.5765 H   0  0  0  0  0  0  0  0  0  0  0  0
   38.3946   33.3831   41.1529 H   0  0  0  0  0  0  0  0  0  0  0  0
   40.6868   32.9320   41.0186 H   0  0  0  0  0  0  0  0  0  0  0  0
   42.2379   33.7076   42.0351 H   0  0  0  0  0  0  0  0  0  0  0  0
   40.6317   35.9844   40.9643 H   0  0  0  0  0  0  0  0  0  0  0  0
   41.8820   36.8622   40.7103 H   0  0  0  0  0  0  0  0  0  0  0  0
   42.6098   34.5926   38.9892 H   0  0  0  0  0  0  0  0  0  0  0  0
   47.4042   35.3628   42.9078 H   0  0  0  0  0  0  0  0  0  0  0  0
   45.4355   36.0026   44.3887 H   0  0  0  0  0  0  0  0  0  0  0  0
   48.0829   33.9115   41.0707 H   0  0  0  0  0  0  0  0  0  0  0  0
   46.9293   33.3627   39.8079 H   0  0  0  0  0  0  0  0  0  0  0  0
   47.5208   35.0588   39.8079 H   0  0  0  0  0  0  0  0  0  0  0  0
   38.8269   28.0017   35.9222 H   0  0  0  0  0  0  0  0  0  0  0  0
   39.2292   30.6759   34.9423 H   0  0  0  0  0  0  0  0  0  0  0  0
   37.7191   29.7975   35.4639 H   0  0  0  0  0  0  0  0  0  0  0  0
   38.4896   31.5660   37.1104 H   0  0  0  0  0  0  0  0  0  0  0  0
   38.3683   29.9599   37.8205 H   0  0  0  0  0  0  0  0  0  0  0  0
   40.8569   31.0616   36.4613 H   0  0  0  0  0  0  0  0  0  0  0  0
   41.9772   29.2305   37.7096 H   0  0  0  0  0  0  0  0  0  0  0  0
   40.3889   28.6505   38.2455 H   0  0  0  0  0  0  0  0  0  0  0  0
   40.8856   27.4750   36.2179 H   0  0  0  0  0  0  0  0  0  0  0  0
   41.4140   29.0562   35.4212 H   0  0  0  0  0  0  0  0  0  0  0  0
  1  9  1  0
  1  6  1  0
  2  1  1  0
  3  2  1  0
  3  4  1  0
  4  5  1  0
  6  5  1  0
  7 14  1  0
  8  7  1  0
  9  8  1  0
  9  7  1  0
 10 11  2  0
 11 12  1  0
 13 12  2  0
 14 13  1  0
 15 10  1  0
 15 14  2  0
 16 10  1  0
 17 18  2  0
 17  6  1  0
 19 17  1  0
 20 21  1  0
 20 25  1  0
 21 22  1  0
 22 23  1  0
 23 24  1  0
 23 19  1  0
 25 24  1  0
  1 26  1  6
  2 27  1  0
  2 28  1  0
  3 29  1  0
  3 30  1  0
  4 31  1  0
  4 32  1  0
  5 33  1  0
  5 34  1  0
  6 35  1  1
  7 36  1  1
  8 37  1  0
  8 38  1  0
  9 39  1  6
 11 40  1  0
 12 41  1  0
 16 42  1  0
 16 43  1  0
 16 44  1  0
 20 45  1  0
 21 46  1  0
 21 47  1  0
 22 48  1  0
 22 49  1  0
 23 50  1  0
 24 51  1  0
 24 52  1  0
 25 53  1  0
 25 54  1  0
M  ISO  8  26  13  27  13  28  13  29  13  30  13  31  13  32  13  33  13
M  ISO  8  34  13  35  13  36  13  37  13  38  13  39  13  40  14  41  14
M  ISO  8  42   8  43   8  44   8  45   5  46  13  47  13  48  13  49  13
M  ISO  5  50  13  51  13  52  13  53  13  54  13
M  END
>  <minimizedAffinity>  (1) 
-5.54779673

>  <minimizedRMSD>  (1) 
1.02159381

$$$$
