
     RDKit          3D

 48 50  0  0  1  0  0  0  0  0999 V2000
   41.8700   34.1960   39.0900 C   0  0  2  0  0  0  0  0  0  0  0  0
   41.2710   35.2820   38.2280 C   0  0  0  0  0  0  0  0  0  0  0  0
   39.9970   34.8370   37.5570 C   0  0  0  0  0  0  0  0  0  0  0  0
   38.9760   34.5380   38.5980 C   0  0  0  0  0  0  0  0  0  0  0  0
   39.6290   34.2320   39.9400 C   0  0  0  0  0  0  0  0  0  0  0  0
   40.8040   33.4100   39.7050 C   0  0  1  0  0  0  0  0  0  0  0  0
   43.1710   34.1650   41.3640 C   0  0  1  0  0  0  0  0  0  0  0  0
   42.3810   35.5150   41.2520 C   0  0  0  0  0  0  0  0  0  0  0  0
   42.7960   34.7840   40.1250 C   0  0  2  0  0  0  0  0  0  0  0  0
   46.8320   34.5600   41.5060 C   0  0  0  0  0  0  0  0  0  0  0  0
   47.0960   34.5800   42.8850 C   0  0  0  0  0  0  0  0  0  0  0  0
   45.9830   34.4670   43.7670 C   0  0  0  0  0  0  0  0  0  0  0  0
   44.7430   34.3460   43.2250 N   0  0  0  0  0  0  0  0  0  0  0  0
   44.5510   34.3330   41.9110 C   0  0  0  0  0  0  0  0  0  0  0  0
   45.5800   34.4390   40.9990 N   0  0  0  0  0  0  0  0  0  0  0  0
   47.9950   34.6600   40.5680 C   0  0  0  0  0  0  0  0  0  0  0  0
   40.4570   32.2630   38.8260 C   0  0  0  0  0  0  0  0  0  0  0  0
   40.9600   31.7510   37.8120 O   0  0  0  0  0  0  0  0  0  0  0  0
   39.2780   31.6320   39.2750 O   0  0  0  0  0  0  0  0  0  0  0  0
   39.3460   30.8230   40.5240 C   0  0  0  0  0  0  0  0  0  0  0  0
   37.9630   30.9530   41.1090 C   0  0  0  0  0  0  0  0  0  0  0  0
   39.5300   29.3780   40.1190 C   0  0  0  0  0  0  0  0  0  0  0  0
   42.4723   33.5255   38.4594 H   0  0  0  0  0  0  0  0  0  0  0  0
   41.0525   36.1557   38.8596 H   0  0  0  0  0  0  0  0  0  0  0  0
   41.9990   35.5294   37.4413 H   0  0  0  0  0  0  0  0  0  0  0  0
   39.6284   35.6377   36.8990 H   0  0  0  0  0  0  0  0  0  0  0  0
   40.1898   33.9350   36.9576 H   0  0  0  0  0  0  0  0  0  0  0  0
   38.3140   35.4091   38.7117 H   0  0  0  0  0  0  0  0  0  0  0  0
   38.4037   33.6540   38.2801 H   0  0  0  0  0  0  0  0  0  0  0  0
   39.9252   35.1707   40.4310 H   0  0  0  0  0  0  0  0  0  0  0  0
   38.9204   33.6988   40.5908 H   0  0  0  0  0  0  0  0  0  0  0  0
   41.1597   33.0315   40.6747 H   0  0  0  0  0  0  0  0  0  0  0  0
   43.0565   33.1509   41.7746 H   0  0  0  0  0  0  0  0  0  0  0  0
   41.3164   35.5617   41.5246 H   0  0  0  0  0  0  0  0  0  0  0  0
   42.5107   36.5426   41.6223 H   0  0  0  0  0  0  0  0  0  0  0  0
   43.3841   35.0575   39.2365 H   0  0  0  0  0  0  0  0  0  0  0  0
   48.1220   34.6790   43.2692 H   0  0  0  0  0  0  0  0  0  0  0  0
   46.1238   34.4774   44.8579 H   0  0  0  0  0  0  0  0  0  0  0  0
   48.9270   34.7401   41.1467 H   0  0  0  0  0  0  0  0  0  0  0  0
   48.0331   33.7618   39.9341 H   0  0  0  0  0  0  0  0  0  0  0  0
   47.8792   35.5515   39.9341 H   0  0  0  0  0  0  0  0  0  0  0  0
   40.1485   31.1343   41.2089 H   0  0  0  0  0  0  0  0  0  0  0  0
   38.0273   30.9470   42.2071 H   0  0  0  0  0  0  0  0  0  0  0  0
   37.5102   31.8977   40.7734 H   0  0  0  0  0  0  0  0  0  0  0  0
   37.3421   30.1093   40.7734 H   0  0  0  0  0  0  0  0  0  0  0  0
   39.6097   28.7520   41.0200 H   0  0  0  0  0  0  0  0  0  0  0  0
   38.6661   29.0519   39.5212 H   0  0  0  0  0  0  0  0  0  0  0  0
   40.4480   29.2788   39.5212 H   0  0  0  0  0  0  0  0  0  0  0  0
  1  6  1  0
  1  9  1  0
  2  1  1  0
  3  2  1  0
  3  4  1  0
  4  5  1  0
  6  5  1  0
  7 14  1  0
  8  7  1  0
  9  8  1  0
  9  7  1  0
 10 11  2  0
 11 12  1  0
 13 12  2  0
 14 13  1  0
 15 10  1  0
 15 14  2  0
 16 10  1  0
 17 19  1  0
 17  6  1  0
 18 17  2  0
 19 20  1  0
 20 21  1  0
 22 20  1  0
  1 23  1  6
  2 24  1  0
  2 25  1  0
  3 26  1  0
  3 27  1  0
  4 28  1  0
  4 29  1  0
  5 30  1  0
  5 31  1  0
  6 32  1  1
  7 33  1  1
  8 34  1  0
  8 35  1  0
  9 36  1  6
 11 37  1  0
 12 38  1  0
 16 39  1  0
 16 40  1  0
 16 41  1  0
 20 42  1  0
 21 43  1  0
 21 44  1  0
 21 45  1  0
 22 46  1  0
 22 47  1  0
 22 48  1  0
M  ISO  8  23  13  24  13  25  13  26  13  27  13  28  13  29  13  30  13
M  ISO  8  31  13  32  13  33  13  34  13  35  13  36  13  37  14  38  14
M  ISO  8  39   8  40   8  41   8  42   8  43   8  44   8  45   8  46   8
M  ISO  2  47   8  48   8
M  END
>  <minimizedAffinity>  (1) 
-5.49260807

>  <minimizedRMSD>  (1) 
2.04563403

$$$$
