
     RDKit          3D

 31 34  0  0  0  0  0  0  0  0999 V2000
   45.6820   34.2790   41.8730 N   0  0  0  0  0  0  0  0  0  0  0  0
   45.0110   33.7470   40.8320 C   0  0  0  0  0  0  0  0  0  0  0  0
   45.8010   33.6210   39.7670 N   0  0  0  0  0  0  0  0  0  0  0  0
   47.0080   34.0920   40.1580 C   0  0  0  0  0  0  0  0  0  0  0  0
   46.9390   34.5040   41.4730 N   0  0  0  0  0  0  0  0  0  0  0  0
   48.2510   34.2070   39.4310 N   0  0  0  0  0  0  0  0  0  0  0  0
   43.6370   33.4000   40.9650 N   0  0  0  0  0  0  0  0  0  0  0  0
   43.2790   32.0970   41.1240 C   0  0  0  0  0  0  0  0  0  0  0  0
   41.9300   32.0000   41.2300 N   0  0  0  0  0  0  0  0  0  0  0  0
   41.4120   33.2490   41.1380 C   0  0  0  0  0  0  0  0  0  0  0  0
   40.1630   33.8390   41.1660 C   0  0  0  0  0  0  0  0  0  0  0  0
   40.0550   35.1720   41.0370 N   0  0  0  0  0  0  0  0  0  0  0  0
   41.1180   35.9800   40.8790 C   0  0  0  0  0  0  0  0  0  0  0  0
   42.3490   35.4230   40.8490 N   0  0  0  0  0  0  0  0  0  0  0  0
   42.4830   34.0930   40.9750 C   0  0  0  0  0  0  0  0  0  0  0  0
   44.4600   36.0130   44.9510 C   0  0  0  0  0  0  0  0  0  0  0  0
   44.7330   35.7990   43.5860 C   0  0  0  0  0  0  0  0  0  0  0  0
   45.3500   34.6220   43.2090 C   0  0  0  0  0  0  0  0  0  0  0  0
   45.6710   33.7090   44.1910 N   0  0  0  0  0  0  0  0  0  0  0  0
   45.3900   33.9520   45.5090 C   0  0  0  0  0  0  0  0  0  0  0  0
   44.7970   35.0850   45.8680 N   0  0  0  0  0  0  0  0  0  0  0  0
   39.0490   32.9710   41.3340 N   0  0  0  0  0  0  0  0  0  0  0  0
   49.0847   34.5957   39.8945 H   0  0  0  0  0  0  0  0  0  0  0  0
   48.3036   33.9003   38.4491 H   0  0  0  0  0  0  0  0  0  0  0  0
   43.9787   31.2491   41.1611 H   0  0  0  0  0  0  0  0  0  0  0  0
   40.9889   37.0676   40.7767 H   0  0  0  0  0  0  0  0  0  0  0  0
   43.9685   36.9437   45.2706 H   0  0  0  0  0  0  0  0  0  0  0  0
   44.4601   36.5546   42.8346 H   0  0  0  0  0  0  0  0  0  0  0  0
   45.6562   33.2066   46.2728 H   0  0  0  0  0  0  0  0  0  0  0  0
   38.0946   33.3574   41.3620 H   0  0  0  0  0  0  0  0  0  0  0  0
   39.1966   31.9559   41.4277 H   0  0  0  0  0  0  0  0  0  0  0  0
  1 18  1  0
  2  7  1  0
  2  1  1  0
  3  4  1  0
  3  2  2  0
  4  5  2  0
  5  1  1  0
  6  4  1  0
  7 15  1  0
  7  8  1  0
  8  9  2  0
 10 11  2  0
 10  9  1  0
 11 22  1  0
 12 11  1  0
 13 12  2  0
 14 13  1  0
 14 15  2  0
 15 10  1  0
 16 21  2  0
 17 16  1  0
 18 17  2  0
 18 19  1  0
 19 20  2  0
 20 21  1  0
  6 23  1  0
  6 24  1  0
  8 25  1  0
 13 26  1  0
 16 27  1  0
 17 28  1  0
 20 29  1  0
 22 30  1  0
 22 31  1  0
M  ISO  5  25  14  26  14  27  14  28  14  29  14
M  END
>  <minimizedAffinity>  (1) 
-6.45533514

>  <minimizedRMSD>  (1) 
0.980014503

$$$$
