
     RDKit          3D

 46 49  0  0  1  0  0  0  0  0999 V2000
   41.1800   33.8170   39.4320 C   0  0  2  0  0  0  0  0  0  0  0  0
   40.1980   34.7510   38.7580 C   0  0  0  0  0  0  0  0  0  0  0  0
   38.8670   34.0930   38.5120 C   0  0  0  0  0  0  0  0  0  0  0  0
   38.2510   33.7380   39.8210 C   0  0  0  0  0  0  0  0  0  0  0  0
   39.3070   33.6190   40.9140 C   0  0  0  0  0  0  0  0  0  0  0  0
   40.4770   32.9430   40.3680 C   0  0  1  0  0  0  0  0  0  0  0  0
   42.7850   34.3430   41.4360 C   0  0  1  0  0  0  0  0  0  0  0  0
   42.0530   35.6660   41.0150 C   0  0  0  0  0  0  0  0  0  0  0  0
   42.2690   34.6010   40.1230 C   0  0  2  0  0  0  0  0  0  0  0  0
   46.4450   34.4310   40.9990 C   0  0  0  0  0  0  0  0  0  0  0  0
   46.8950   34.8790   42.2580 C   0  0  0  0  0  0  0  0  0  0  0  0
   45.9150   35.1550   43.2530 C   0  0  0  0  0  0  0  0  0  0  0  0
   44.6190   34.9710   42.9310 N   0  0  0  0  0  0  0  0  0  0  0  0
   44.2380   34.5470   41.7310 C   0  0  0  0  0  0  0  0  0  0  0  0
   45.1320   34.2610   40.7200 N   0  0  0  0  0  0  0  0  0  0  0  0
   47.4710   34.1290   39.9520 C   0  0  0  0  0  0  0  0  0  0  0  0
   40.0580   31.7030   39.6690 C   0  0  0  0  0  0  0  0  0  0  0  0
   39.2480   30.7860   39.8940 O   0  0  0  0  0  0  0  0  0  0  0  0
   40.7690   31.5540   38.4570 O   0  0  0  0  0  0  0  0  0  0  0  0
   40.1560   30.7530   37.4020 C   0  0  0  0  0  0  0  0  0  0  0  0
   38.8730   30.9050   36.9190 C   0  0  0  0  0  0  0  0  0  0  0  0
   38.8170   29.9010   35.9450 C   0  0  0  0  0  0  0  0  0  0  0  0
   40.0390   29.2190   35.8990 C   0  0  0  0  0  0  0  0  0  0  0  0
   40.7920   29.7830   36.7970 O   0  0  0  0  0  0  0  0  0  0  0  0
   41.6581   33.1870   38.6674 H   0  0  0  0  0  0  0  0  0  0  0  0
   40.0454   35.6297   39.4018 H   0  0  0  0  0  0  0  0  0  0  0  0
   40.6188   35.0382   37.7831 H   0  0  0  0  0  0  0  0  0  0  0  0
   38.2073   34.7868   37.9703 H   0  0  0  0  0  0  0  0  0  0  0  0
   39.0082   33.1836   37.9094 H   0  0  0  0  0  0  0  0  0  0  0  0
   37.5304   34.5201   40.1021 H   0  0  0  0  0  0  0  0  0  0  0  0
   37.7475   32.7656   39.7163 H   0  0  0  0  0  0  0  0  0  0  0  0
   39.5903   34.6224   41.2646 H   0  0  0  0  0  0  0  0  0  0  0  0
   38.9045   33.0427   41.7601 H   0  0  0  0  0  0  0  0  0  0  0  0
   41.1553   32.6887   41.1958 H   0  0  0  0  0  0  0  0  0  0  0  0
   42.6809   33.5091   42.1458 H   0  0  0  0  0  0  0  0  0  0  0  0
   41.0411   35.8854   41.3863 H   0  0  0  0  0  0  0  0  0  0  0  0
   42.2832   36.7414   41.0370 H   0  0  0  0  0  0  0  0  0  0  0  0
   42.7379   34.5481   39.1293 H   0  0  0  0  0  0  0  0  0  0  0  0
   47.9674   35.0108   42.4644 H   0  0  0  0  0  0  0  0  0  0  0  0
   46.2063   35.5074   44.2535 H   0  0  0  0  0  0  0  0  0  0  0  0
   48.4183   33.8502   40.4366 H   0  0  0  0  0  0  0  0  0  0  0  0
   47.1208   33.2958   39.3250 H   0  0  0  0  0  0  0  0  0  0  0  0
   47.6280   35.0190   39.3250 H   0  0  0  0  0  0  0  0  0  0  0  0
   38.0980   31.6253   37.2199 H   0  0  0  0  0  0  0  0  0  0  0  0
   37.9449   29.6812   35.3116 H   0  0  0  0  0  0  0  0  0  0  0  0
   40.3067   28.3800   35.2399 H   0  0  0  0  0  0  0  0  0  0  0  0
  1  9  1  0
  1  6  1  0
  2  1  1  0
  3  2  1  0
  3  4  1  0
  4  5  1  0
  6  5  1  0
  7 14  1  0
  8  7  1  0
  9  8  1  0
  9  7  1  0
 10 11  2  0
 11 12  1  0
 13 12  2  0
 14 13  1  0
 15 10  1  0
 15 14  2  0
 16 10  1  0
 17 18  2  0
 17  6  1  0
 19 17  1  0
 20 19  1  0
 21 20  2  0
 22 21  1  0
 23 22  2  0
 23 24  1  0
 24 20  1  0
  1 25  1  6
  2 26  1  0
  2 27  1  0
  3 28  1  0
  3 29  1  0
  4 30  1  0
  4 31  1  0
  5 32  1  0
  5 33  1  0
  6 34  1  1
  7 35  1  1
  8 36  1  0
  8 37  1  0
  9 38  1  6
 11 39  1  0
 12 40  1  0
 16 41  1  0
 16 42  1  0
 16 43  1  0
 21 44  1  0
 22 45  1  0
 23 46  1  0
M  ISO  8  25  13  26  13  27  13  28  13  29  13  30  13  31  13  32  13
M  ISO  8  33  13  34  13  35  13  36  13  37  13  38  13  39  14  40  14
M  ISO  6  41   8  42   8  43   8  44  14  45  14  46  14
M  END
>  <minimizedAffinity>  (1) 
-5.51726532

>  <minimizedRMSD>  (1) 
1.1154542

$$$$
