
     RDKit          3D

 46 49  0  0  1  0  0  0  0  0999 V2000
   41.0630   33.8530   39.1900 C   0  0  2  0  0  0  0  0  0  0  0  0
   40.1820   34.7230   38.3190 C   0  0  0  0  0  0  0  0  0  0  0  0
   38.9020   34.0260   37.9340 C   0  0  0  0  0  0  0  0  0  0  0  0
   38.1100   33.7480   39.1640 C   0  0  0  0  0  0  0  0  0  0  0  0
   38.9990   33.7320   40.4030 C   0  0  0  0  0  0  0  0  0  0  0  0
   40.2380   33.0370   40.0780 C   0  0  1  0  0  0  0  0  0  0  0  0
   42.4260   34.4980   41.3340 C   0  0  1  0  0  0  0  0  0  0  0  0
   41.6820   35.7740   40.8070 C   0  0  0  0  0  0  0  0  0  0  0  0
   42.0380   34.7030   39.9690 C   0  0  2  0  0  0  0  0  0  0  0  0
   46.1100   34.6290   41.3420 C   0  0  0  0  0  0  0  0  0  0  0  0
   46.3940   35.2120   42.5990 C   0  0  0  0  0  0  0  0  0  0  0  0
   45.3010   35.5620   43.4220 C   0  0  0  0  0  0  0  0  0  0  0  0
   44.0460   35.3210   42.9660 N   0  0  0  0  0  0  0  0  0  0  0  0
   43.8270   34.7710   41.7770 C   0  0  0  0  0  0  0  0  0  0  0  0
   44.8400   34.4040   40.9190 N   0  0  0  0  0  0  0  0  0  0  0  0
   47.2560   34.2380   40.4630 C   0  0  0  0  0  0  0  0  0  0  0  0
   39.9350   31.7440   39.4170 C   0  0  0  0  0  0  0  0  0  0  0  0
   39.0820   30.8470   39.5630 O   0  0  0  0  0  0  0  0  0  0  0  0
   40.8510   31.4920   38.3720 O   0  0  0  0  0  0  0  0  0  0  0  0
   40.3970   30.6120   37.2820 C   0  0  0  0  0  0  0  0  0  0  0  0
   41.1770   29.6640   36.6730 C   0  0  0  0  0  0  0  0  0  0  0  0
   40.3830   29.1040   35.7530 N   0  0  0  0  0  0  0  0  0  0  0  0
   39.1740   29.6980   35.8130 C   0  0  0  0  0  0  0  0  0  0  0  0
   39.1390   30.6550   36.7620 N   0  0  0  0  0  0  0  0  0  0  0  0
   41.6480   33.1765   38.5496 H   0  0  0  0  0  0  0  0  0  0  0  0
   39.9338   35.6416   38.8708 H   0  0  0  0  0  0  0  0  0  0  0  0
   40.7356   34.9499   37.3960 H   0  0  0  0  0  0  0  0  0  0  0  0
   38.3201   34.6708   37.2590 H   0  0  0  0  0  0  0  0  0  0  0  0
   39.1342   33.0810   37.4211 H   0  0  0  0  0  0  0  0  0  0  0  0
   37.3449   34.5295   39.2819 H   0  0  0  0  0  0  0  0  0  0  0  0
   37.6419   32.7581   39.0595 H   0  0  0  0  0  0  0  0  0  0  0  0
   39.2230   34.7638   40.7116 H   0  0  0  0  0  0  0  0  0  0  0  0
   38.4846   33.2168   41.2276 H   0  0  0  0  0  0  0  0  0  0  0  0
   40.7890   32.8528   41.0120 H   0  0  0  0  0  0  0  0  0  0  0  0
   42.2870   33.6749   42.0504 H   0  0  0  0  0  0  0  0  0  0  0  0
   40.6280   35.9517   41.0669 H   0  0  0  0  0  0  0  0  0  0  0  0
   41.8590   36.8595   40.8253 H   0  0  0  0  0  0  0  0  0  0  0  0
   42.6094   34.6521   39.0304 H   0  0  0  0  0  0  0  0  0  0  0  0
   47.4302   35.3867   42.9242 H   0  0  0  0  0  0  0  0  0  0  0  0
   45.4632   36.0191   44.4093 H   0  0  0  0  0  0  0  0  0  0  0  0
   48.1134   33.9455   41.0869 H   0  0  0  0  0  0  0  0  0  0  0  0
   46.9585   33.3905   39.8280 H   0  0  0  0  0  0  0  0  0  0  0  0
   47.5385   35.0906   39.8280 H   0  0  0  0  0  0  0  0  0  0  0  0
   42.2263   29.4174   36.8925 H   0  0  0  0  0  0  0  0  0  0  0  0
   38.3226   29.4347   35.1682 H   0  0  0  0  0  0  0  0  0  0  0  0
   38.3547   31.2673   37.0280 H   0  0  0  0  0  0  0  0  0  0  0  0
  1  9  1  0
  1  6  1  0
  2  1  1  0
  3  2  1  0
  3  4  1  0
  4  5  1  0
  6  5  1  0
  7 14  1  0
  8  7  1  0
  9  8  1  0
  9  7  1  0
 10 11  2  0
 11 12  1  0
 13 12  2  0
 14 13  1  0
 15 10  1  0
 15 14  2  0
 16 10  1  0
 17 18  2  0
 17  6  1  0
 19 17  1  0
 20 19  1  0
 21 20  2  0
 22 23  2  0
 22 21  1  0
 23 24  1  0
 24 20  1  0
  1 25  1  6
  2 26  1  0
  2 27  1  0
  3 28  1  0
  3 29  1  0
  4 30  1  0
  4 31  1  0
  5 32  1  0
  5 33  1  0
  6 34  1  1
  7 35  1  1
  8 36  1  0
  8 37  1  0
  9 38  1  6
 11 39  1  0
 12 40  1  0
 16 41  1  0
 16 42  1  0
 16 43  1  0
 21 44  1  0
 23 45  1  0
 24 46  1  0
M  ISO  8  25  13  26  13  27  13  28  13  29  13  30  13  31  13  32  13
M  ISO  8  33  13  34  13  35  13  36  13  37  13  38  13  39  14  40  14
M  ISO  6  41   8  42   8  43   8  44  14  45  14  46   9
M  END
>  <minimizedAffinity>  (1) 
-5.42720413

>  <minimizedRMSD>  (1) 
0.802326977

$$$$
