
     RDKit          3D

 31 33  0  0  0  0  0  0  0  0999 V2000
   45.7610   34.3360   41.8110 N   0  0  0  0  0  0  0  0  0  0  0  0
   45.0980   34.0090   40.7070 C   0  0  0  0  0  0  0  0  0  0  0  0
   45.9480   33.8200   39.6840 N   0  0  0  0  0  0  0  0  0  0  0  0
   47.1890   34.0430   40.1910 C   0  0  0  0  0  0  0  0  0  0  0  0
   47.0840   34.3680   41.5190 N   0  0  0  0  0  0  0  0  0  0  0  0
   48.4720   33.9760   39.5550 N   0  0  0  0  0  0  0  0  0  0  0  0
   43.6770   33.9030   40.7290 N   0  0  0  0  0  0  0  0  0  0  0  0
   43.0710   34.7240   39.8460 C   0  0  0  0  0  0  0  0  0  0  0  0
   41.6980   34.7490   39.7360 C   0  0  0  0  0  0  0  0  0  0  0  0
   40.9740   35.6360   38.7780 C   0  0  0  0  0  0  0  0  0  0  0  0
   40.9360   33.9200   40.5420 C   0  0  0  0  0  0  0  0  0  0  0  0
   39.6660   33.9160   40.4690 O   0  0  0  0  0  0  0  0  0  0  0  0
   41.5880   33.1210   41.4070 N   0  0  0  0  0  0  0  0  0  0  0  0
   42.9300   33.1010   41.5090 C   0  0  0  0  0  0  0  0  0  0  0  0
   43.5770   32.3690   42.3040 O   0  0  0  0  0  0  0  0  0  0  0  0
   44.4440   35.9610   44.9170 C   0  0  0  0  0  0  0  0  0  0  0  0
   44.7300   35.7730   43.5690 C   0  0  0  0  0  0  0  0  0  0  0  0
   45.4090   34.6430   43.1600 C   0  0  0  0  0  0  0  0  0  0  0  0
   45.7850   33.7280   44.1290 N   0  0  0  0  0  0  0  0  0  0  0  0
   45.4920   33.9360   45.4490 C   0  0  0  0  0  0  0  0  0  0  0  0
   44.8310   35.0420   45.8140 N   0  0  0  0  0  0  0  0  0  0  0  0
   49.3256   34.1784   40.0948 H   0  0  0  0  0  0  0  0  0  0  0  0
   48.5403   33.7255   38.5583 H   0  0  0  0  0  0  0  0  0  0  0  0
   43.6800   35.3805   39.2071 H   0  0  0  0  0  0  0  0  0  0  0  0
   40.3754   36.3694   39.3381 H   0  0  0  0  0  0  0  0  0  0  0  0
   41.7024   36.1640   38.1450 H   0  0  0  0  0  0  0  0  0  0  0  0
   40.3108   35.0281   38.1450 H   0  0  0  0  0  0  0  0  0  0  0  0
   41.0372   32.4992   42.0160 H   0  0  0  0  0  0  0  0  0  0  0  0
   43.9024   36.8600   45.2463 H   0  0  0  0  0  0  0  0  0  0  0  0
   44.4154   36.5241   42.8295 H   0  0  0  0  0  0  0  0  0  0  0  0
   45.7976   33.1990   46.2062 H   0  0  0  0  0  0  0  0  0  0  0  0
  1 18  1  0
  2  7  1  0
  2  1  1  0
  3  4  1  0
  3  2  2  0
  4  5  2  0
  5  1  1  0
  6  4  1  0
  7 14  1  0
  8  7  1  0
  9  8  2  0
  9 11  1  0
 10  9  1  0
 11 13  1  0
 12 11  2  0
 13 14  1  0
 14 15  2  0
 16 21  2  0
 17 16  1  0
 18 17  2  0
 18 19  1  0
 19 20  2  0
 20 21  1  0
  6 22  1  0
  6 23  1  0
  8 24  1  0
 10 25  1  0
 10 26  1  0
 10 27  1  0
 13 28  1  0
 16 29  1  0
 17 30  1  0
 20 31  1  0
M  ISO  8  24  14  25   8  26   8  27   8  28   9  29  14  30  14  31  14
M  END
>  <minimizedAffinity>  (1) 
-6.20658398

>  <minimizedRMSD>  (1) 
1.40348232

$$$$
