
     RDKit          3D

 42 44  0  0  1  0  0  0  0  0999 V2000
   41.0710   33.8240   39.1960 C   0  0  2  0  0  0  0  0  0  0  0  0
   40.2780   34.6660   38.2210 C   0  0  0  0  0  0  0  0  0  0  0  0
   38.9910   33.9980   37.8100 C   0  0  0  0  0  0  0  0  0  0  0  0
   38.1200   33.8300   39.0050 C   0  0  0  0  0  0  0  0  0  0  0  0
   38.9400   33.8570   40.2920 C   0  0  0  0  0  0  0  0  0  0  0  0
   40.1650   33.0970   40.0810 C   0  0  1  0  0  0  0  0  0  0  0  0
   42.4240   34.4840   41.3390 C   0  0  1  0  0  0  0  0  0  0  0  0
   41.6650   35.7520   40.8140 C   0  0  0  0  0  0  0  0  0  0  0  0
   42.0330   34.6880   39.9740 C   0  0  2  0  0  0  0  0  0  0  0  0
   46.1040   34.6450   41.3560 C   0  0  0  0  0  0  0  0  0  0  0  0
   46.3840   35.2400   42.6070 C   0  0  0  0  0  0  0  0  0  0  0  0
   45.2850   35.5860   43.4250 C   0  0  0  0  0  0  0  0  0  0  0  0
   44.0340   35.3320   42.9680 N   0  0  0  0  0  0  0  0  0  0  0  0
   43.8210   34.7710   41.7840 C   0  0  0  0  0  0  0  0  0  0  0  0
   44.8390   34.4060   40.9290 N   0  0  0  0  0  0  0  0  0  0  0  0
   47.2570   34.2490   40.4850 C   0  0  0  0  0  0  0  0  0  0  0  0
   39.8420   31.7760   39.4840 C   0  0  0  0  0  0  0  0  0  0  0  0
   38.8670   31.0040   39.5110 O   0  0  0  0  0  0  0  0  0  0  0  0
   40.9240   31.3100   38.7030 O   0  0  0  0  0  0  0  0  0  0  0  0
   40.5500   30.5760   37.4490 C   0  0  0  0  0  0  0  0  0  0  0  0
   39.3470   31.1010   37.0370 F   0  0  0  0  0  0  0  0  0  0  0  0
   41.5610   30.6910   36.5440 F   0  0  0  0  0  0  0  0  0  0  0  0
   40.4080   29.2430   37.7770 F   0  0  0  0  0  0  0  0  0  0  0  0
   41.6645   33.0851   38.6376 H   0  0  0  0  0  0  0  0  0  0  0  0
   40.0414   35.6297   38.6956 H   0  0  0  0  0  0  0  0  0  0  0  0
   40.8905   34.8051   37.3179 H   0  0  0  0  0  0  0  0  0  0  0  0
   38.4755   34.6211   37.0644 H   0  0  0  0  0  0  0  0  0  0  0  0
   39.2107   33.0127   37.3730 H   0  0  0  0  0  0  0  0  0  0  0  0
   37.3842   34.6473   39.0308 H   0  0  0  0  0  0  0  0  0  0  0  0
   37.6141   32.8558   38.9339 H   0  0  0  0  0  0  0  0  0  0  0  0
   39.1893   34.8968   40.5504 H   0  0  0  0  0  0  0  0  0  0  0  0
   38.3606   33.4134   41.1151 H   0  0  0  0  0  0  0  0  0  0  0  0
   40.6582   32.9506   41.0533 H   0  0  0  0  0  0  0  0  0  0  0  0
   42.2949   33.6578   42.0536 H   0  0  0  0  0  0  0  0  0  0  0  0
   40.6090   35.9167   41.0743 H   0  0  0  0  0  0  0  0  0  0  0  0
   41.8293   36.8395   40.8344 H   0  0  0  0  0  0  0  0  0  0  0  0
   42.6029   34.6492   39.0340 H   0  0  0  0  0  0  0  0  0  0  0  0
   47.4183   35.4267   42.9316 H   0  0  0  0  0  0  0  0  0  0  0  0
   45.4408   36.0507   44.4098 H   0  0  0  0  0  0  0  0  0  0  0  0
   48.1094   33.9563   41.1157 H   0  0  0  0  0  0  0  0  0  0  0  0
   46.9623   33.4006   39.8499 H   0  0  0  0  0  0  0  0  0  0  0  0
   47.5458   35.0994   39.8499 H   0  0  0  0  0  0  0  0  0  0  0  0
  1  9  1  0
  1  6  1  0
  2  1  1  0
  3  2  1  0
  3  4  1  0
  4  5  1  0
  6  5  1  0
  7 14  1  0
  8  7  1  0
  9  8  1  0
  9  7  1  0
 10 11  2  0
 11 12  1  0
 13 12  2  0
 14 13  1  0
 15 10  1  0
 15 14  2  0
 16 10  1  0
 17 18  2  0
 17  6  1  0
 19 17  1  0
 20 23  1  0
 20 19  1  0
 21 20  1  0
 22 20  1  0
  1 24  1  6
  2 25  1  0
  2 26  1  0
  3 27  1  0
  3 28  1  0
  4 29  1  0
  4 30  1  0
  5 31  1  0
  5 32  1  0
  6 33  1  1
  7 34  1  1
  8 35  1  0
  8 36  1  0
  9 37  1  6
 11 38  1  0
 12 39  1  0
 16 40  1  0
 16 41  1  0
 16 42  1  0
M  ISO  8  24  13  25  13  26  13  27  13  28  13  29  13  30  13  31  13
M  ISO  8  32  13  33  13  34  13  35  13  36  13  37  13  38  14  39  14
M  ISO  3  40   8  41   8  42   8
M  END
>  <minimizedAffinity>  (1) 
-5.34738922

>  <minimizedRMSD>  (1) 
0.742777646

$$$$
