
     RDKit          3D

 43 45  0  0  1  0  0  0  0  0999 V2000
   42.1680   34.3900   39.2690 C   0  0  2  0  0  0  0  0  0  0  0  0
   41.3510   35.5350   38.7150 C   0  0  0  0  0  0  0  0  0  0  0  0
   40.1070   35.0580   38.0150 C   0  0  0  0  0  0  0  0  0  0  0  0
   39.2250   34.3680   38.9950 C   0  0  0  0  0  0  0  0  0  0  0  0
   40.0230   33.8730   40.2000 C   0  0  0  0  0  0  0  0  0  0  0  0
   41.2840   33.3230   39.7270 C   0  0  1  0  0  0  0  0  0  0  0  0
   43.4220   34.1380   41.5560 C   0  0  1  0  0  0  0  0  0  0  0  0
   42.6450   35.5020   41.5550 C   0  0  0  0  0  0  0  0  0  0  0  0
   43.0750   34.8760   40.3740 C   0  0  2  0  0  0  0  0  0  0  0  0
   47.0630   34.6270   41.8140 C   0  0  0  0  0  0  0  0  0  0  0  0
   47.3120   34.3780   43.1840 C   0  0  0  0  0  0  0  0  0  0  0  0
   46.2060   34.0520   44.0010 C   0  0  0  0  0  0  0  0  0  0  0  0
   44.9810   33.9960   43.4320 N   0  0  0  0  0  0  0  0  0  0  0  0
   44.7940   34.2370   42.1400 C   0  0  0  0  0  0  0  0  0  0  0  0
   45.8130   34.5590   41.2900 N   0  0  0  0  0  0  0  0  0  0  0  0
   48.2270   34.9530   40.9310 C   0  0  0  0  0  0  0  0  0  0  0  0
   41.0370   32.3700   38.6120 C   0  0  0  0  0  0  0  0  0  0  0  0
   40.1540   31.5410   38.3470 O   0  0  0  0  0  0  0  0  0  0  0  0
   42.0630   32.4590   37.6530 O   0  0  0  0  0  0  0  0  0  0  0  0
   42.8030   31.2310   37.3220 C   0  0  0  0  0  0  0  0  0  0  0  0
   42.9930   30.9580   35.9190 N   0  0  0  0  0  0  0  0  0  0  0  0
   43.2370   30.4740   38.2280 O   0  0  0  0  0  0  0  0  0  0  0  0
   42.8076   33.9818   38.4726 H   0  0  0  0  0  0  0  0  0  0  0  0
   41.0596   36.1963   39.5443 H   0  0  0  0  0  0  0  0  0  0  0  0
   41.9707   36.0671   37.9782 H   0  0  0  0  0  0  0  0  0  0  0  0
   39.5748   35.9189   37.5842 H   0  0  0  0  0  0  0  0  0  0  0  0
   40.3816   34.3595   37.2109 H   0  0  0  0  0  0  0  0  0  0  0  0
   38.4524   35.0709   39.3400 H   0  0  0  0  0  0  0  0  0  0  0  0
   38.7649   33.4999   38.5002 H   0  0  0  0  0  0  0  0  0  0  0  0
   40.2180   34.7112   40.8851 H   0  0  0  0  0  0  0  0  0  0  0  0
   39.4533   33.0998   40.7363 H   0  0  0  0  0  0  0  0  0  0  0  0
   41.7668   32.7934   40.5615 H   0  0  0  0  0  0  0  0  0  0  0  0
   43.2909   33.0915   41.8687 H   0  0  0  0  0  0  0  0  0  0  0  0
   41.5757   35.5341   41.8109 H   0  0  0  0  0  0  0  0  0  0  0  0
   42.7763   36.4893   42.0218 H   0  0  0  0  0  0  0  0  0  0  0  0
   43.6798   35.2305   39.5264 H   0  0  0  0  0  0  0  0  0  0  0  0
   48.3294   34.4360   43.5983 H   0  0  0  0  0  0  0  0  0  0  0  0
   46.3386   33.8487   45.0739 H   0  0  0  0  0  0  0  0  0  0  0  0
   49.1012   35.1978   41.5522 H   0  0  0  0  0  0  0  0  0  0  0  0
   48.4598   34.0855   40.2960 H   0  0  0  0  0  0  0  0  0  0  0  0
   47.9754   35.8152   40.2960 H   0  0  0  0  0  0  0  0  0  0  0  0
   43.5032   30.1136   35.6231 H   0  0  0  0  0  0  0  0  0  0  0  0
   42.6186   31.6074   35.2126 H   0  0  0  0  0  0  0  0  0  0  0  0
  1  6  1  0
  1  9  1  0
  2  1  1  0
  3  2  1  0
  3  4  1  0
  4  5  1  0
  6  5  1  0
  7 14  1  0
  8  7  1  0
  9  8  1  0
  9  7  1  0
 10 11  2  0
 11 12  1  0
 13 12  2  0
 14 13  1  0
 15 10  1  0
 15 14  2  0
 16 10  1  0
 17  6  1  0
 18 17  2  0
 19 17  1  0
 20 19  1  0
 20 22  2  0
 21 20  1  0
  1 23  1  6
  2 24  1  0
  2 25  1  0
  3 26  1  0
  3 27  1  0
  4 28  1  0
  4 29  1  0
  5 30  1  0
  5 31  1  0
  6 32  1  1
  7 33  1  6
  8 34  1  0
  8 35  1  0
  9 36  1  6
 11 37  1  0
 12 38  1  0
 16 39  1  0
 16 40  1  0
 16 41  1  0
 21 42  1  0
 21 43  1  0
M  ISO  8  23  13  24  13  25  13  26  13  27  13  28  13  29  13  30  13
M  ISO  8  31  13  32  13  33  13  34  13  35  13  36  13  37  14  38  14
M  ISO  3  39   8  40   8  41   8
M  END
>  <minimizedAffinity>  (1) 
-5.27659988

>  <minimizedRMSD>  (1) 
1.36574817

$$$$
