
     RDKit          3D

 45 48  0  0  1  0  0  0  0  0999 V2000
   41.1120   33.9280   39.0140 C   0  0  2  0  0  0  0  0  0  0  0  0
   40.2130   34.8300   38.1980 C   0  0  0  0  0  0  0  0  0  0  0  0
   38.9700   34.1180   37.7300 C   0  0  0  0  0  0  0  0  0  0  0  0
   38.1670   33.7070   38.9120 C   0  0  0  0  0  0  0  0  0  0  0  0
   39.0340   33.6140   40.1640 C   0  0  0  0  0  0  0  0  0  0  0  0
   40.3080   33.0020   39.8060 C   0  0  1  0  0  0  0  0  0  0  0  0
   42.4340   34.4160   41.2220 C   0  0  1  0  0  0  0  0  0  0  0  0
   41.6170   35.6970   40.8280 C   0  0  0  0  0  0  0  0  0  0  0  0
   42.0360   34.7450   39.8850 C   0  0  2  0  0  0  0  0  0  0  0  0
   46.1110   34.6300   41.3190 C   0  0  0  0  0  0  0  0  0  0  0  0
   46.3470   35.2380   42.5810 C   0  0  0  0  0  0  0  0  0  0  0  0
   45.2280   35.5690   43.3720 C   0  0  0  0  0  0  0  0  0  0  0  0
   43.9950   35.2910   42.8870 N   0  0  0  0  0  0  0  0  0  0  0  0
   43.8180   34.7220   41.7000 C   0  0  0  0  0  0  0  0  0  0  0  0
   44.8600   34.3700   40.8720 N   0  0  0  0  0  0  0  0  0  0  0  0
   47.2920   34.2570   40.4800 C   0  0  0  0  0  0  0  0  0  0  0  0
   40.0660   31.7590   39.0280 C   0  0  0  0  0  0  0  0  0  0  0  0
   39.2340   30.8440   39.0600 O   0  0  0  0  0  0  0  0  0  0  0  0
   41.0390   31.6160   38.0150 O   0  0  0  0  0  0  0  0  0  0  0  0
   41.0360   30.3480   37.2850 C   0  0  0  0  0  0  0  0  0  0  0  0
   41.9380   29.4650   37.6120 C   0  0  0  0  0  0  0  0  0  0  0  0
   41.5390   28.0530   36.4350 S   0  0  0  0  0  0  0  0  0  0  0  0
   40.1140   29.0780   35.7040 C   0  0  0  0  0  0  0  0  0  0  0  0
   40.1770   30.0270   36.3060 N   0  0  0  0  0  0  0  0  0  0  0  0
   41.7395   33.3359   38.3316 H   0  0  0  0  0  0  0  0  0  0  0  0
   39.9174   35.6901   38.8168 H   0  0  0  0  0  0  0  0  0  0  0  0
   40.7740   35.1525   37.3084 H   0  0  0  0  0  0  0  0  0  0  0  0
   38.3750   34.7937   37.0980 H   0  0  0  0  0  0  0  0  0  0  0  0
   39.2512   33.2285   37.1471 H   0  0  0  0  0  0  0  0  0  0  0  0
   37.3719   34.4482   39.0807 H   0  0  0  0  0  0  0  0  0  0  0  0
   37.7368   32.7145   38.7123 H   0  0  0  0  0  0  0  0  0  0  0  0
   39.2083   34.6217   40.5692 H   0  0  0  0  0  0  0  0  0  0  0  0
   38.5268   33.0049   40.9267 H   0  0  0  0  0  0  0  0  0  0  0  0
   40.8545   32.7571   40.7287 H   0  0  0  0  0  0  0  0  0  0  0  0
   42.3424   33.5143   41.8454 H   0  0  0  0  0  0  0  0  0  0  0  0
   40.5540   35.7846   41.0970 H   0  0  0  0  0  0  0  0  0  0  0  0
   41.7302   36.7828   40.9632 H   0  0  0  0  0  0  0  0  0  0  0  0
   42.6110   34.8291   38.9510 H   0  0  0  0  0  0  0  0  0  0  0  0
   47.3697   35.4439   42.9297 H   0  0  0  0  0  0  0  0  0  0  0  0
   45.3535   36.0409   44.3577 H   0  0  0  0  0  0  0  0  0  0  0  0
   48.1361   33.9904   41.1330 H   0  0  0  0  0  0  0  0  0  0  0  0
   47.0337   33.3967   39.8450 H   0  0  0  0  0  0  0  0  0  0  0  0
   47.5746   35.1096   39.8450 H   0  0  0  0  0  0  0  0  0  0  0  0
   42.7263   29.5291   38.3765 H   0  0  0  0  0  0  0  0  0  0  0  0
   39.4106   28.8124   34.9011 H   0  0  0  0  0  0  0  0  0  0  0  0
  1  6  1  0
  1  9  1  0
  2  1  1  0
  3  2  1  0
  3  4  1  0
  4  5  1  0
  6  5  1  0
  7 14  1  0
  8  7  1  0
  9  8  1  0
  9  7  1  0
 10 11  2  0
 11 12  1  0
 13 12  2  0
 14 13  1  0
 15 10  1  0
 15 14  2  0
 16 10  1  0
 17 18  2  0
 17  6  1  0
 19 17  1  0
 20 21  2  0
 20 19  1  0
 22 21  1  0
 23 24  2  0
 23 22  1  0
 24 20  1  0
  1 25  1  6
  2 26  1  0
  2 27  1  0
  3 28  1  0
  3 29  1  0
  4 30  1  0
  4 31  1  0
  5 32  1  0
  5 33  1  0
  6 34  1  1
  7 35  1  1
  8 36  1  0
  8 37  1  0
  9 38  1  6
 11 39  1  0
 12 40  1  0
 16 41  1  0
 16 42  1  0
 16 43  1  0
 21 44  1  0
 23 45  1  0
M  ISO  8  25  13  26  13  27  13  28  13  29  13  30  13  31  13  32  13
M  ISO  8  33  13  34  13  35  13  36  13  37  13  38  13  39  14  40  14
M  ISO  5  41   8  42   8  43   8  44  14  45  14
M  END
>  <minimizedAffinity>  (1) 
-5.33737803

>  <minimizedRMSD>  (1) 
0.474590272

$$$$
