
     RDKit          3D

 34 38  0  0  0  0  0  0  0  0999 V2000
   48.5670   35.1360   40.7620 C   0  0  0  0  0  0  0  0  0  0  0  0
   48.3490   33.9340   40.0270 C   0  0  0  0  0  0  0  0  0  0  0  0
   47.3150   33.0900   40.4230 C   0  0  0  0  0  0  0  0  0  0  0  0
   46.5580   33.4650   41.5090 N   0  0  0  0  0  0  0  0  0  0  0  0
   46.8040   34.6170   42.1750 C   0  0  0  0  0  0  0  0  0  0  0  0
   47.7840   35.4360   41.8140 N   0  0  0  0  0  0  0  0  0  0  0  0
   45.9600   34.9340   43.3040 N   0  0  0  0  0  0  0  0  0  0  0  0
   45.0620   35.8950   43.5700 C   0  0  0  0  0  0  0  0  0  0  0  0
   44.5660   35.7070   44.7970 N   0  0  0  0  0  0  0  0  0  0  0  0
   45.1630   34.5970   45.3250 C   0  0  0  0  0  0  0  0  0  0  0  0
   44.9770   34.0090   46.5620 C   0  0  0  0  0  0  0  0  0  0  0  0
   45.7060   32.9040   46.8350 N   0  0  0  0  0  0  0  0  0  0  0  0
   46.5690   32.4070   45.9380 C   0  0  0  0  0  0  0  0  0  0  0  0
   46.7330   32.9940   44.7440 N   0  0  0  0  0  0  0  0  0  0  0  0
   46.0500   34.0970   44.3890 C   0  0  0  0  0  0  0  0  0  0  0  0
   47.3670   31.2490   46.1590 N   0  0  0  0  0  0  0  0  0  0  0  0
   47.5780   30.3720   45.1350 C   0  0  0  0  0  0  0  0  0  0  0  0
   48.3530   29.3630   45.5700 N   0  0  0  0  0  0  0  0  0  0  0  0
   48.6500   29.5680   46.8540 C   0  0  0  0  0  0  0  0  0  0  0  0
   49.3680   28.9610   47.8750 C   0  0  0  0  0  0  0  0  0  0  0  0
   49.4230   29.5210   49.1020 N   0  0  0  0  0  0  0  0  0  0  0  0
   48.8070   30.6730   49.4200 C   0  0  0  0  0  0  0  0  0  0  0  0
   48.1000   31.2870   48.4460 N   0  0  0  0  0  0  0  0  0  0  0  0
   48.0310   30.7490   47.2160 C   0  0  0  0  0  0  0  0  0  0  0  0
   44.0810   34.5080   47.5190 N   0  0  0  0  0  0  0  0  0  0  0  0
   49.3772   35.8196   40.4683 H   0  0  0  0  0  0  0  0  0  0  0  0
   48.9840   33.6790   39.1657 H   0  0  0  0  0  0  0  0  0  0  0  0
   47.1097   32.1530   39.8847 H   0  0  0  0  0  0  0  0  0  0  0  0
   44.7788   36.7089   42.8864 H   0  0  0  0  0  0  0  0  0  0  0  0
   47.1776   30.4743   44.1156 H   0  0  0  0  0  0  0  0  0  0  0  0
   49.8966   28.0157   47.6827 H   0  0  0  0  0  0  0  0  0  0  0  0
   48.8758   31.0984   50.4321 H   0  0  0  0  0  0  0  0  0  0  0  0
   43.9794   34.0322   48.4268 H   0  0  0  0  0  0  0  0  0  0  0  0
   43.5247   35.3502   47.3139 H   0  0  0  0  0  0  0  0  0  0  0  0
  1  6  2  0
  2  3  2  0
  2  1  1  0
  3  4  1  0
  4  5  2  0
  5  7  1  0
  6  5  1  0
  7  8  1  0
  7 15  1  0
  8  9  2  0
  9 10  1  0
 10 11  2  0
 11 12  1  0
 11 25  1  0
 13 16  1  0
 13 12  2  0
 14 13  1  0
 15 14  2  0
 15 10  1  0
 16 24  1  0
 17 18  2  0
 17 16  1  0
 18 19  1  0
 19 24  2  0
 19 20  1  0
 20 21  2  0
 21 22  1  0
 23 22  2  0
 24 23  1  0
  1 26  1  0
  2 27  1  0
  3 28  1  0
  8 29  1  0
 17 30  1  0
 20 31  1  0
 22 32  1  0
 25 33  1  0
 25 34  1  0
M  ISO  7  26  14  27  14  28  14  29  14  30  14  31  14  32  14
M  END
>  <minimizedAffinity>  (1) 
-7.3393898

>  <minimizedRMSD>  (1) 
0.846085131

$$$$
