
     RDKit          3D

 23 25  0  0  0  0  0  0  0  0999 V2000
   48.4260   35.2990   40.8060 C   0  0  0  0  0  0  0  0  0  0  0  0
   48.1980   34.2020   39.9370 C   0  0  0  0  0  0  0  0  0  0  0  0
   47.2350   33.2550   40.3150 C   0  0  0  0  0  0  0  0  0  0  0  0
   46.5760   33.4500   41.5010 N   0  0  0  0  0  0  0  0  0  0  0  0
   46.8270   34.5080   42.2930 C   0  0  0  0  0  0  0  0  0  0  0  0
   47.7390   35.4270   41.9580 N   0  0  0  0  0  0  0  0  0  0  0  0
   46.0850   34.6330   43.5240 N   0  0  0  0  0  0  0  0  0  0  0  0
   45.1720   35.5170   43.9830 C   0  0  0  0  0  0  0  0  0  0  0  0
   44.8030   35.1450   45.2210 N   0  0  0  0  0  0  0  0  0  0  0  0
   45.4920   34.0130   45.5450 C   0  0  0  0  0  0  0  0  0  0  0  0
   45.4490   33.2660   46.7060 C   0  0  0  0  0  0  0  0  0  0  0  0
   46.2420   32.1760   46.7710 N   0  0  0  0  0  0  0  0  0  0  0  0
   47.0400   31.8380   45.7400 C   0  0  0  0  0  0  0  0  0  0  0  0
   47.0590   32.5870   44.6230 N   0  0  0  0  0  0  0  0  0  0  0  0
   46.3010   33.6840   44.4810 C   0  0  0  0  0  0  0  0  0  0  0  0
   44.6230   33.5990   47.7960 N   0  0  0  0  0  0  0  0  0  0  0  0
   49.1754   36.0574   40.5354 H   0  0  0  0  0  0  0  0  0  0  0  0
   48.7585   34.0971   38.9964 H   0  0  0  0  0  0  0  0  0  0  0  0
   47.0156   32.3839   39.6802 H   0  0  0  0  0  0  0  0  0  0  0  0
   44.7943   36.3934   43.4359 H   0  0  0  0  0  0  0  0  0  0  0  0
   47.6790   30.9455   45.8118 H   0  0  0  0  0  0  0  0  0  0  0  0
   44.6247   33.0113   48.6419 H   0  0  0  0  0  0  0  0  0  0  0  0
   44.0169   34.4304   47.7477 H   0  0  0  0  0  0  0  0  0  0  0  0
  1  6  2  0
  2  3  2  0
  2  1  1  0
  3  4  1  0
  4  5  2  0
  5  7  1  0
  6  5  1  0
  7  8  1  0
  7 15  1  0
  8  9  2  0
  9 10  1  0
 10 11  2  0
 11 12  1  0
 11 16  1  0
 13 12  2  0
 14 13  1  0
 15 14  2  0
 15 10  1  0
  1 17  1  0
  2 18  1  0
  3 19  1  0
  8 20  1  0
 13 21  1  0
 16 22  1  0
 16 23  1  0
M  ISO  5  17  14  18  14  19  14  20  14  21  14
M  END
>  <minimizedAffinity>  (1) 
-5.66207743

>  <minimizedRMSD>  (1) 
3.97994685

$$$$
