
     RDKit          3D

 32 35  0  0  0  0  0  0  0  0999 V2000
   45.9070   34.2560   41.8110 N   0  0  0  0  0  0  0  0  0  0  0  0
   45.3540   33.5470   40.8040 C   0  0  0  0  0  0  0  0  0  0  0  0
   46.2250   33.5270   39.7860 N   0  0  0  0  0  0  0  0  0  0  0  0
   47.3040   34.2160   40.1620 C   0  0  0  0  0  0  0  0  0  0  0  0
   47.1110   34.6730   41.4240 N   0  0  0  0  0  0  0  0  0  0  0  0
   48.5130   34.4780   39.4360 N   0  0  0  0  0  0  0  0  0  0  0  0
   44.0170   33.0260   41.1000 C   0  0  0  0  0  0  0  0  0  0  0  0
   43.7350   31.9150   41.8380 N   0  0  0  0  0  0  0  0  0  0  0  0
   42.5260   31.4590   42.0960 C   0  0  0  0  0  0  0  0  0  0  0  0
   41.4380   32.0670   41.6410 N   0  0  0  0  0  0  0  0  0  0  0  0
   41.5710   33.1950   40.8870 C   0  0  0  0  0  0  0  0  0  0  0  0
   40.4460   33.8050   40.4290 C   0  0  0  0  0  0  0  0  0  0  0  0
   40.5420   34.9400   39.6680 C   0  0  0  0  0  0  0  0  0  0  0  0
   41.8090   35.4210   39.3960 C   0  0  0  0  0  0  0  0  0  0  0  0
   42.9140   34.7610   39.8860 C   0  0  0  0  0  0  0  0  0  0  0  0
   42.8620   33.6270   40.6480 C   0  0  0  0  0  0  0  0  0  0  0  0
   44.4490   36.0300   44.7780 C   0  0  0  0  0  0  0  0  0  0  0  0
   44.8070   35.7860   43.4500 C   0  0  0  0  0  0  0  0  0  0  0  0
   45.4810   34.6240   43.1300 C   0  0  0  0  0  0  0  0  0  0  0  0
   45.7720   33.7480   44.1600 N   0  0  0  0  0  0  0  0  0  0  0  0
   45.4050   34.0210   45.4420 C   0  0  0  0  0  0  0  0  0  0  0  0
   44.7570   35.1450   45.7270 N   0  0  0  0  0  0  0  0  0  0  0  0
   49.2639   35.0339   39.8696 H   0  0  0  0  0  0  0  0  0  0  0  0
   48.6303   34.1102   38.4811 H   0  0  0  0  0  0  0  0  0  0  0  0
   42.4157   30.5497   42.7051 H   0  0  0  0  0  0  0  0  0  0  0  0
   39.4575   33.3868   40.6697 H   0  0  0  0  0  0  0  0  0  0  0  0
   39.6444   35.4495   39.2876 H   0  0  0  0  0  0  0  0  0  0  0  0
   41.9345   36.3297   38.7890 H   0  0  0  0  0  0  0  0  0  0  0  0
   43.9054   35.1741   39.6482 H   0  0  0  0  0  0  0  0  0  0  0  0
   43.9123   36.9534   45.0414 H   0  0  0  0  0  0  0  0  0  0  0  0
   44.5539   36.5139   42.6651 H   0  0  0  0  0  0  0  0  0  0  0  0
   45.6458   33.3085   46.2447 H   0  0  0  0  0  0  0  0  0  0  0  0
  1 19  1  0
  2  7  1  0
  2  1  1  0
  3  4  1  0
  3  2  2  0
  4  5  2  0
  5  1  1  0
  6  4  1  0
  7  8  2  0
  8  9  1  0
 10  9  2  0
 11 10  1  0
 12 11  2  0
 13 12  1  0
 14 13  2  0
 14 15  1  0
 15 16  2  0
 16 11  1  0
 16  7  1  0
 17 22  2  0
 18 17  1  0
 19 18  2  0
 19 20  1  0
 20 21  2  0
 21 22  1  0
  6 23  1  0
  6 24  1  0
  9 25  1  0
 12 26  1  0
 13 27  1  0
 14 28  1  0
 15 29  1  0
 17 30  1  0
 18 31  1  0
 21 32  1  0
M  ISO  8  25  14  26  14  27  14  28  14  29  14  30  14  31  14  32  14
M  END
>  <minimizedAffinity>  (1) 
-6.17458248

>  <minimizedRMSD>  (1) 
1.36975431

$$$$
