
     RDKit          3D

 33 36  0  0  0  0  0  0  0  0999 V2000
   48.4870   35.2270   40.7600 C   0  0  0  0  0  0  0  0  0  0  0  0
   48.2230   34.1070   39.9350 C   0  0  0  0  0  0  0  0  0  0  0  0
   47.1960   33.2470   40.3140 C   0  0  0  0  0  0  0  0  0  0  0  0
   46.5020   33.5330   41.4650 N   0  0  0  0  0  0  0  0  0  0  0  0
   46.7910   34.6130   42.2180 C   0  0  0  0  0  0  0  0  0  0  0  0
   47.7660   35.4400   41.8660 N   0  0  0  0  0  0  0  0  0  0  0  0
   46.0130   34.8410   43.4100 N   0  0  0  0  0  0  0  0  0  0  0  0
   45.1430   35.7900   43.7940 C   0  0  0  0  0  0  0  0  0  0  0  0
   44.7070   35.5080   45.0250 N   0  0  0  0  0  0  0  0  0  0  0  0
   45.3080   34.3570   45.4340 C   0  0  0  0  0  0  0  0  0  0  0  0
   45.1840   33.6580   46.6280 C   0  0  0  0  0  0  0  0  0  0  0  0
   45.9050   32.5360   46.7700 N   0  0  0  0  0  0  0  0  0  0  0  0
   46.7170   32.1050   45.7860 C   0  0  0  0  0  0  0  0  0  0  0  0
   46.8280   32.7900   44.6390 N   0  0  0  0  0  0  0  0  0  0  0  0
   46.1380   33.9270   44.4170 C   0  0  0  0  0  0  0  0  0  0  0  0
   47.5060   30.9230   45.8780 N   0  0  0  0  0  0  0  0  0  0  0  0
   47.7260   30.0880   44.8510 C   0  0  0  0  0  0  0  0  0  0  0  0
   48.5010   28.9490   44.9860 C   0  0  0  0  0  0  0  0  0  0  0  0
   49.0710   28.6600   46.2290 C   0  0  0  0  0  0  0  0  0  0  0  0
   49.7710   27.6010   46.2930 O   0  0  0  0  0  0  0  0  0  0  0  0
   48.8410   29.5060   47.2490 N   0  0  0  0  0  0  0  0  0  0  0  0
   48.0780   30.6050   47.0700 C   0  0  0  0  0  0  0  0  0  0  0  0
   47.8850   31.3730   48.0400 O   0  0  0  0  0  0  0  0  0  0  0  0
   44.3410   34.0960   47.6600 N   0  0  0  0  0  0  0  0  0  0  0  0
   49.2911   35.9271   40.4892 H   0  0  0  0  0  0  0  0  0  0  0  0
   48.8107   33.9223   39.0237 H   0  0  0  0  0  0  0  0  0  0  0  0
   46.9469   32.3629   39.7088 H   0  0  0  0  0  0  0  0  0  0  0  0
   44.8388   36.6589   43.1920 H   0  0  0  0  0  0  0  0  0  0  0  0
   47.2772   30.3153   43.8728 H   0  0  0  0  0  0  0  0  0  0  0  0
   48.6658   28.2812   44.1276 H   0  0  0  0  0  0  0  0  0  0  0  0
   49.2505   29.3137   48.1743 H   0  0  0  0  0  0  0  0  0  0  0  0
   44.2718   33.5543   48.5333 H   0  0  0  0  0  0  0  0  0  0  0  0
   43.7912   34.9593   47.5445 H   0  0  0  0  0  0  0  0  0  0  0  0
  1  6  2  0
  2  3  2  0
  2  1  1  0
  3  4  1  0
  4  5  2  0
  5  7  1  0
  6  5  1  0
  7  8  1  0
  7 15  1  0
  8  9  2  0
  9 10  1  0
 10 11  2  0
 11 12  1  0
 11 24  1  0
 13 16  1  0
 13 12  2  0
 14 13  1  0
 15 14  2  0
 15 10  1  0
 16 22  1  0
 17 18  2  0
 17 16  1  0
 18 19  1  0
 19 20  2  0
 19 21  1  0
 22 21  1  0
 22 23  2  0
  1 25  1  0
  2 26  1  0
  3 27  1  0
  8 28  1  0
 17 29  1  0
 18 30  1  0
 21 31  1  0
 24 32  1  0
 24 33  1  0
M  ISO  7  25  14  26  14  27  14  28  14  29  14  30  14  31   9
M  END
>  <minimizedAffinity>  (1) 
-6.72877169

>  <minimizedRMSD>  (1) 
0.427570522

$$$$
