
     RDKit          3D

 30 33  0  0  0  0  0  0  0  0999 V2000
   48.4930   35.2450   40.7430 C   0  0  0  0  0  0  0  0  0  0  0  0
   48.2460   34.1260   39.9300 C   0  0  0  0  0  0  0  0  0  0  0  0
   47.2330   33.2380   40.3100 C   0  0  0  0  0  0  0  0  0  0  0  0
   46.5430   33.5210   41.4640 N   0  0  0  0  0  0  0  0  0  0  0  0
   46.8160   34.6110   42.2130 C   0  0  0  0  0  0  0  0  0  0  0  0
   47.7740   35.4620   41.8650 N   0  0  0  0  0  0  0  0  0  0  0  0
   46.0370   34.8210   43.4050 N   0  0  0  0  0  0  0  0  0  0  0  0
   45.1410   35.7570   43.7910 C   0  0  0  0  0  0  0  0  0  0  0  0
   44.7110   35.4660   45.0240 N   0  0  0  0  0  0  0  0  0  0  0  0
   45.3420   34.3240   45.4320 C   0  0  0  0  0  0  0  0  0  0  0  0
   45.2280   33.6330   46.6270 C   0  0  0  0  0  0  0  0  0  0  0  0
   45.9800   32.5190   46.7670 N   0  0  0  0  0  0  0  0  0  0  0  0
   46.7970   32.1070   45.7880 C   0  0  0  0  0  0  0  0  0  0  0  0
   46.8810   32.8040   44.6400 N   0  0  0  0  0  0  0  0  0  0  0  0
   46.1700   33.9220   44.4190 C   0  0  0  0  0  0  0  0  0  0  0  0
   47.5840   30.9300   45.9500 N   0  0  0  0  0  0  0  0  0  0  0  0
   48.0370   30.1370   44.9620 C   0  0  0  0  0  0  0  0  0  0  0  0
   48.7470   29.1220   45.5620 C   0  0  0  0  0  0  0  0  0  0  0  0
   48.7000   29.3310   46.8950 N   0  0  0  0  0  0  0  0  0  0  0  0
   47.9940   30.4290   47.1290 C   0  0  0  0  0  0  0  0  0  0  0  0
   44.3690   34.0610   47.6620 N   0  0  0  0  0  0  0  0  0  0  0  0
   49.2843   35.9552   40.4611 H   0  0  0  0  0  0  0  0  0  0  0  0
   48.8344   33.9520   39.0170 H   0  0  0  0  0  0  0  0  0  0  0  0
   46.9983   32.3478   39.7079 H   0  0  0  0  0  0  0  0  0  0  0  0
   44.8177   36.6187   43.1885 H   0  0  0  0  0  0  0  0  0  0  0  0
   47.8718   30.2735   43.8831 H   0  0  0  0  0  0  0  0  0  0  0  0
   49.2583   28.2935   45.0500 H   0  0  0  0  0  0  0  0  0  0  0  0
   47.7800   30.8573   48.1193 H   0  0  0  0  0  0  0  0  0  0  0  0
   44.3095   33.5221   48.5378 H   0  0  0  0  0  0  0  0  0  0  0  0
   43.8017   34.9122   47.5415 H   0  0  0  0  0  0  0  0  0  0  0  0
  1  6  2  0
  2  3  2  0
  2  1  1  0
  3  4  1  0
  4  5  2  0
  5  7  1  0
  6  5  1  0
  7  8  1  0
  7 15  1  0
  8  9  2  0
  9 10  1  0
 10 11  2  0
 11 12  1  0
 11 21  1  0
 13 16  1  0
 13 12  2  0
 14 13  1  0
 15 14  2  0
 15 10  1  0
 16 20  1  0
 17 18  2  0
 17 16  1  0
 18 19  1  0
 19 20  2  0
  1 22  1  0
  2 23  1  0
  3 24  1  0
  8 25  1  0
 17 26  1  0
 18 27  1  0
 20 28  1  0
 21 29  1  0
 21 30  1  0
M  ISO  7  22  14  23  14  24  14  25  14  26  14  27  14  28  14
M  END
>  <minimizedAffinity>  (1) 
-6.44415331

>  <minimizedRMSD>  (1) 
0.345443189

$$$$
