
     RDKit          3D

 30 33  0  0  0  0  0  0  0  0999 V2000
   48.4780   35.2450   40.7640 C   0  0  0  0  0  0  0  0  0  0  0  0
   48.2280   34.1300   39.9240 C   0  0  0  0  0  0  0  0  0  0  0  0
   47.1970   33.2430   40.3020 C   0  0  0  0  0  0  0  0  0  0  0  0
   46.5180   33.5310   41.4540 N   0  0  0  0  0  0  0  0  0  0  0  0
   46.7840   34.5920   42.2190 C   0  0  0  0  0  0  0  0  0  0  0  0
   47.7620   35.4560   41.8850 N   0  0  0  0  0  0  0  0  0  0  0  0
   46.0150   34.8090   43.4140 N   0  0  0  0  0  0  0  0  0  0  0  0
   45.1450   35.7470   43.8160 C   0  0  0  0  0  0  0  0  0  0  0  0
   44.7260   35.4440   45.0560 N   0  0  0  0  0  0  0  0  0  0  0  0
   45.3380   34.2970   45.4470 C   0  0  0  0  0  0  0  0  0  0  0  0
   45.2320   33.5960   46.6260 C   0  0  0  0  0  0  0  0  0  0  0  0
   45.9610   32.4710   46.7560 N   0  0  0  0  0  0  0  0  0  0  0  0
   46.7700   32.0470   45.7590 C   0  0  0  0  0  0  0  0  0  0  0  0
   46.8520   32.7550   44.6190 N   0  0  0  0  0  0  0  0  0  0  0  0
   46.1550   33.8880   44.4150 C   0  0  0  0  0  0  0  0  0  0  0  0
   47.5510   30.8620   45.8680 N   0  0  0  0  0  0  0  0  0  0  0  0
   48.1440   30.4100   46.9740 N   0  0  0  0  0  0  0  0  0  0  0  0
   48.7810   29.2580   46.6370 C   0  0  0  0  0  0  0  0  0  0  0  0
   48.5830   28.9820   45.2840 C   0  0  0  0  0  0  0  0  0  0  0  0
   47.7940   30.0240   44.8250 C   0  0  0  0  0  0  0  0  0  0  0  0
   44.3950   34.0290   47.6770 N   0  0  0  0  0  0  0  0  0  0  0  0
   49.2748   35.9536   40.4938 H   0  0  0  0  0  0  0  0  0  0  0  0
   48.8168   33.9623   39.0101 H   0  0  0  0  0  0  0  0  0  0  0  0
   46.9503   32.3585   39.6964 H   0  0  0  0  0  0  0  0  0  0  0  0
   44.8269   36.6203   43.2276 H   0  0  0  0  0  0  0  0  0  0  0  0
   49.3665   28.6349   47.3291 H   0  0  0  0  0  0  0  0  0  0  0  0
   48.9679   28.1268   44.7092 H   0  0  0  0  0  0  0  0  0  0  0  0
   47.4277   30.1514   43.7956 H   0  0  0  0  0  0  0  0  0  0  0  0
   44.3371   33.4821   48.5479 H   0  0  0  0  0  0  0  0  0  0  0  0
   43.8422   34.8918   47.5730 H   0  0  0  0  0  0  0  0  0  0  0  0
  1  6  2  0
  2  3  2  0
  2  1  1  0
  3  4  1  0
  4  5  2  0
  5  7  1  0
  6  5  1  0
  7  8  1  0
  7 15  1  0
  8  9  2  0
  9 10  1  0
 10 11  2  0
 11 12  1  0
 11 21  1  0
 13 16  1  0
 13 12  2  0
 14 13  1  0
 15 14  2  0
 15 10  1  0
 16 17  1  0
 18 17  2  0
 19 18  1  0
 20 19  2  0
 20 16  1  0
  1 22  1  0
  2 23  1  0
  3 24  1  0
  8 25  1  0
 18 26  1  0
 19 27  1  0
 20 28  1  0
 21 29  1  0
 21 30  1  0
M  ISO  7  22  14  23  14  24  14  25  14  26  14  27  14  28  14
M  END
>  <minimizedAffinity>  (1) 
-6.40961885

>  <minimizedRMSD>  (1) 
0.325739384

$$$$
