
     RDKit          3D

 29 32  0  0  0  0  0  0  0  0999 V2000
   48.4770   35.2300   40.7530 C   0  0  0  0  0  0  0  0  0  0  0  0
   48.2160   34.1290   39.9160 C   0  0  0  0  0  0  0  0  0  0  0  0
   47.1870   33.2750   40.3020 C   0  0  0  0  0  0  0  0  0  0  0  0
   46.4950   33.5500   41.4540 N   0  0  0  0  0  0  0  0  0  0  0  0
   46.7840   34.6150   42.2160 C   0  0  0  0  0  0  0  0  0  0  0  0
   47.7640   35.4490   41.8730 N   0  0  0  0  0  0  0  0  0  0  0  0
   46.0160   34.8360   43.4080 N   0  0  0  0  0  0  0  0  0  0  0  0
   45.1460   35.7910   43.8050 C   0  0  0  0  0  0  0  0  0  0  0  0
   44.7150   35.4960   45.0410 N   0  0  0  0  0  0  0  0  0  0  0  0
   45.3230   34.3310   45.4370 C   0  0  0  0  0  0  0  0  0  0  0  0
   45.1890   33.6490   46.6250 C   0  0  0  0  0  0  0  0  0  0  0  0
   45.9110   32.5200   46.7560 N   0  0  0  0  0  0  0  0  0  0  0  0
   46.7170   32.0930   45.7670 C   0  0  0  0  0  0  0  0  0  0  0  0
   46.8290   32.7770   44.6190 N   0  0  0  0  0  0  0  0  0  0  0  0
   46.1400   33.9170   44.4130 C   0  0  0  0  0  0  0  0  0  0  0  0
   47.5060   30.9100   45.8420 N   0  0  0  0  0  0  0  0  0  0  0  0
   47.8530   29.9450   44.9750 C   0  0  0  0  0  0  0  0  0  0  0  0
   48.6300   29.0730   45.6420 N   0  0  0  0  0  0  0  0  0  0  0  0
   48.7710   29.4840   46.9230 C   0  0  0  0  0  0  0  0  0  0  0  0
   48.0610   30.6330   47.0240 N   0  0  0  0  0  0  0  0  0  0  0  0
   44.3550   34.0730   47.6640 N   0  0  0  0  0  0  0  0  0  0  0  0
   49.2835   35.9285   40.4851 H   0  0  0  0  0  0  0  0  0  0  0  0
   48.7981   33.9517   38.9996 H   0  0  0  0  0  0  0  0  0  0  0  0
   46.9330   32.3945   39.6936 H   0  0  0  0  0  0  0  0  0  0  0  0
   44.8413   36.6662   43.2123 H   0  0  0  0  0  0  0  0  0  0  0  0
   47.5572   29.8799   43.9175 H   0  0  0  0  0  0  0  0  0  0  0  0
   49.3446   28.9870   47.7193 H   0  0  0  0  0  0  0  0  0  0  0  0
   44.2936   33.5225   48.5324 H   0  0  0  0  0  0  0  0  0  0  0  0
   43.8020   34.9359   47.5610 H   0  0  0  0  0  0  0  0  0  0  0  0
  1  6  2  0
  2  3  2  0
  2  1  1  0
  3  4  1  0
  4  5  2  0
  5  7  1  0
  6  5  1  0
  7  8  1  0
  7 15  1  0
  8  9  2  0
  9 10  1  0
 10 11  2  0
 11 12  1  0
 11 21  1  0
 13 16  1  0
 13 12  2  0
 14 13  1  0
 15 14  2  0
 15 10  1  0
 16 20  1  0
 17 18  2  0
 17 16  1  0
 18 19  1  0
 19 20  2  0
  1 22  1  0
  2 23  1  0
  3 24  1  0
  8 25  1  0
 17 26  1  0
 19 27  1  0
 21 28  1  0
 21 29  1  0
M  ISO  6  22  14  23  14  24  14  25  14  26  14  27  14
M  END
>  <minimizedAffinity>  (1) 
-6.38922453

>  <minimizedRMSD>  (1) 
0.375852227

$$$$
