
     RDKit          3D

 36 39  0  0  0  0  0  0  0  0999 V2000
   48.5570   35.1490   40.6980 C   0  0  0  0  0  0  0  0  0  0  0  0
   48.3080   33.9650   39.9380 C   0  0  0  0  0  0  0  0  0  0  0  0
   47.2550   33.1390   40.3410 C   0  0  0  0  0  0  0  0  0  0  0  0
   46.5250   33.5140   41.4390 N   0  0  0  0  0  0  0  0  0  0  0  0
   46.8040   34.6500   42.1260 C   0  0  0  0  0  0  0  0  0  0  0  0
   47.7980   35.4530   41.7670 N   0  0  0  0  0  0  0  0  0  0  0  0
   45.9850   34.9650   43.2650 N   0  0  0  0  0  0  0  0  0  0  0  0
   45.1040   35.9650   43.5390 C   0  0  0  0  0  0  0  0  0  0  0  0
   44.6080   35.7750   44.7700 N   0  0  0  0  0  0  0  0  0  0  0  0
   45.1760   34.6480   45.2860 C   0  0  0  0  0  0  0  0  0  0  0  0
   44.9850   34.0530   46.5100 C   0  0  0  0  0  0  0  0  0  0  0  0
   45.6870   32.9220   46.7680 N   0  0  0  0  0  0  0  0  0  0  0  0
   46.5390   32.4080   45.8550 C   0  0  0  0  0  0  0  0  0  0  0  0
   46.7040   33.0140   44.6660 N   0  0  0  0  0  0  0  0  0  0  0  0
   46.0410   34.1400   44.3390 C   0  0  0  0  0  0  0  0  0  0  0  0
   47.2950   31.1690   46.1640 C   0  0  0  0  0  0  0  0  0  0  0  0
   47.7320   31.0680   47.5950 C   0  0  0  0  0  0  0  0  0  0  0  0
   47.9630   29.5750   47.7230 C   0  0  0  0  0  0  0  0  0  0  0  0
   46.7170   29.0010   47.0920 C   0  0  0  0  0  0  0  0  0  0  0  0
   46.4460   29.9270   45.9530 C   0  0  0  0  0  0  0  0  0  0  0  0
   44.1070   34.5570   47.4740 N   0  0  0  0  0  0  0  0  0  0  0  0
   49.3785   35.8198   40.4060 H   0  0  0  0  0  0  0  0  0  0  0  0
   48.9254   33.7116   39.0636 H   0  0  0  0  0  0  0  0  0  0  0  0
   47.0189   32.2149   39.7930 H   0  0  0  0  0  0  0  0  0  0  0  0
   44.8421   36.7921   42.8627 H   0  0  0  0  0  0  0  0  0  0  0  0
   48.1606   31.2247   45.4876 H   0  0  0  0  0  0  0  0  0  0  0  0
   48.6560   31.6366   47.7762 H   0  0  0  0  0  0  0  0  0  0  0  0
   47.0126   31.4789   48.3186 H   0  0  0  0  0  0  0  0  0  0  0  0
   48.8657   29.2634   47.1771 H   0  0  0  0  0  0  0  0  0  0  0  0
   48.1257   29.2418   48.7586 H   0  0  0  0  0  0  0  0  0  0  0  0
   46.8943   27.9766   46.7325 H   0  0  0  0  0  0  0  0  0  0  0  0
   45.8745   28.9285   47.7955 H   0  0  0  0  0  0  0  0  0  0  0  0
   45.3803   30.1989   45.9351 H   0  0  0  0  0  0  0  0  0  0  0  0
   46.6931   29.4463   44.9949 H   0  0  0  0  0  0  0  0  0  0  0  0
   44.0002   34.0727   48.3767 H   0  0  0  0  0  0  0  0  0  0  0  0
   43.5669   35.4127   47.2816 H   0  0  0  0  0  0  0  0  0  0  0  0
  1  6  2  0
  2  3  2  0
  2  1  1  0
  3  4  1  0
  4  5  2  0
  5  7  1  0
  6  5  1  0
  7  8  1  0
  7 15  1  0
  8  9  2  0
  9 10  1  0
 10 11  2  0
 11 12  1  0
 11 21  1  0
 13 16  1  0
 13 12  2  0
 14 13  1  0
 15 14  2  0
 15 10  1  0
 16 17  1  0
 17 18  1  0
 19 18  1  0
 20 16  1  0
 20 19  1  0
  1 22  1  0
  2 23  1  0
  3 24  1  0
  8 25  1  0
 16 26  1  0
 17 27  1  0
 17 28  1  0
 18 29  1  0
 18 30  1  0
 19 31  1  0
 19 32  1  0
 20 33  1  0
 20 34  1  0
 21 35  1  0
 21 36  1  0
M  ISO  8  22  14  23  14  24  14  25  14  26  13  27  13  28  13  29  13
M  ISO  5  30  13  31  13  32  13  33  13  34  13
M  END
>  <minimizedAffinity>  (1) 
-6.34279585

>  <minimizedRMSD>  (1) 
0.788310766

$$$$
