
     RDKit          3D

 39 42  0  0  0  0  0  0  0  0999 V2000
   48.5640   35.2580   40.6860 C   0  0  0  0  0  0  0  0  0  0  0  0
   48.3210   34.1120   39.9010 C   0  0  0  0  0  0  0  0  0  0  0  0
   47.2520   33.2750   40.2850 C   0  0  0  0  0  0  0  0  0  0  0  0
   46.5150   33.6190   41.3910 N   0  0  0  0  0  0  0  0  0  0  0  0
   46.8000   34.7350   42.1020 C   0  0  0  0  0  0  0  0  0  0  0  0
   47.8030   35.5340   41.7530 N   0  0  0  0  0  0  0  0  0  0  0  0
   45.9780   35.0310   43.2520 N   0  0  0  0  0  0  0  0  0  0  0  0
   45.1080   36.0180   43.5510 C   0  0  0  0  0  0  0  0  0  0  0  0
   44.6170   35.7990   44.7830 N   0  0  0  0  0  0  0  0  0  0  0  0
   45.1890   34.6550   45.2650 C   0  0  0  0  0  0  0  0  0  0  0  0
   44.9940   34.0360   46.4820 C   0  0  0  0  0  0  0  0  0  0  0  0
   45.6980   32.8940   46.7060 N   0  0  0  0  0  0  0  0  0  0  0  0
   46.5410   32.4050   45.7800 C   0  0  0  0  0  0  0  0  0  0  0  0
   46.6980   33.0430   44.6110 N   0  0  0  0  0  0  0  0  0  0  0  0
   46.0480   34.1700   44.2990 C   0  0  0  0  0  0  0  0  0  0  0  0
   47.3060   31.1670   46.0230 C   0  0  0  0  0  0  0  0  0  0  0  0
   47.7310   30.9550   47.4370 C   0  0  0  0  0  0  0  0  0  0  0  0
   47.7300   29.5000   47.8250 C   0  0  0  0  0  0  0  0  0  0  0  0
   48.1820   28.5970   46.7050 C   0  0  0  0  0  0  0  0  0  0  0  0
   47.4120   28.8220   45.4320 C   0  0  0  0  0  0  0  0  0  0  0  0
   46.4250   29.9660   45.6530 C   0  0  0  0  0  0  0  0  0  0  0  0
   44.1220   34.5300   47.4570 N   0  0  0  0  0  0  0  0  0  0  0  0
   49.3894   35.9341   40.4185 H   0  0  0  0  0  0  0  0  0  0  0  0
   48.9412   33.8795   39.0228 H   0  0  0  0  0  0  0  0  0  0  0  0
   47.0144   32.3672   39.7111 H   0  0  0  0  0  0  0  0  0  0  0  0
   44.8444   36.8613   42.8958 H   0  0  0  0  0  0  0  0  0  0  0  0
   48.2158   31.2634   45.4122 H   0  0  0  0  0  0  0  0  0  0  0  0
   48.7484   31.3536   47.5636 H   0  0  0  0  0  0  0  0  0  0  0  0
   47.0106   31.4753   48.0852 H   0  0  0  0  0  0  0  0  0  0  0  0
   48.4070   29.3640   48.6813 H   0  0  0  0  0  0  0  0  0  0  0  0
   46.6950   29.2245   48.0758 H   0  0  0  0  0  0  0  0  0  0  0  0
   49.2480   28.7851   46.5096 H   0  0  0  0  0  0  0  0  0  0  0  0
   48.0040   27.5589   47.0223 H   0  0  0  0  0  0  0  0  0  0  0  0
   46.8639   27.9067   45.1642 H   0  0  0  0  0  0  0  0  0  0  0  0
   48.1037   29.0761   44.6153 H   0  0  0  0  0  0  0  0  0  0  0  0
   45.8546   30.1703   44.7349 H   0  0  0  0  0  0  0  0  0  0  0  0
   45.6840   29.7347   46.4324 H   0  0  0  0  0  0  0  0  0  0  0  0
   44.0119   34.0297   48.3506 H   0  0  0  0  0  0  0  0  0  0  0  0
   43.5897   35.3942   47.2816 H   0  0  0  0  0  0  0  0  0  0  0  0
  1  6  2  0
  2  3  2  0
  2  1  1  0
  3  4  1  0
  4  5  2  0
  5  7  1  0
  6  5  1  0
  7  8  1  0
  7 15  1  0
  8  9  2  0
  9 10  1  0
 10 11  2  0
 11 12  1  0
 11 22  1  0
 13 16  1  0
 13 12  2  0
 14 13  1  0
 15 14  2  0
 15 10  1  0
 16 17  1  0
 17 18  1  0
 19 18  1  0
 20 21  1  0
 20 19  1  0
 21 16  1  0
  1 23  1  0
  2 24  1  0
  3 25  1  0
  8 26  1  0
 16 27  1  0
 17 28  1  0
 17 29  1  0
 18 30  1  0
 18 31  1  0
 19 32  1  0
 19 33  1  0
 20 34  1  0
 20 35  1  0
 21 36  1  0
 21 37  1  0
 22 38  1  0
 22 39  1  0
M  ISO  8  23  14  24  14  25  14  26  14  27  13  28  13  29  13  30  13
M  ISO  7  31  13  32  13  33  13  34  13  35  13  36  13  37  13
M  END
>  <minimizedAffinity>  (1) 
-6.35466909

>  <minimizedRMSD>  (1) 
0.774154484

$$$$
