
     RDKit          3D

 35 37  0  0  0  0  0  0  0  0999 V2000
   48.4460   35.0650   40.4250 C   0  0  0  0  0  0  0  0  0  0  0  0
   48.0160   33.9780   39.6180 C   0  0  0  0  0  0  0  0  0  0  0  0
   46.8700   33.2640   40.0220 C   0  0  0  0  0  0  0  0  0  0  0  0
   46.2550   33.6800   41.1700 N   0  0  0  0  0  0  0  0  0  0  0  0
   46.6850   34.7080   41.9060 C   0  0  0  0  0  0  0  0  0  0  0  0
   47.7660   35.3920   41.5370 N   0  0  0  0  0  0  0  0  0  0  0  0
   45.9600   35.0590   43.0950 N   0  0  0  0  0  0  0  0  0  0  0  0
   45.2290   36.1430   43.4590 C   0  0  0  0  0  0  0  0  0  0  0  0
   44.7660   35.9350   44.7120 N   0  0  0  0  0  0  0  0  0  0  0  0
   45.2160   34.7120   45.1300 C   0  0  0  0  0  0  0  0  0  0  0  0
   45.0070   34.0650   46.3340 C   0  0  0  0  0  0  0  0  0  0  0  0
   45.5690   32.8550   46.4940 N   0  0  0  0  0  0  0  0  0  0  0  0
   46.3040   32.2990   45.5170 C   0  0  0  0  0  0  0  0  0  0  0  0
   46.4910   32.9480   44.3550 N   0  0  0  0  0  0  0  0  0  0  0  0
   45.9690   34.1490   44.1180 C   0  0  0  0  0  0  0  0  0  0  0  0
   46.9330   30.9550   45.6840 C   0  0  0  0  0  0  0  0  0  0  0  0
   47.9200   30.6430   44.5810 C   0  0  0  0  0  0  0  0  0  0  0  0
   45.8410   29.8780   45.6940 C   0  0  0  0  0  0  0  0  0  0  0  0
   47.6540   30.8080   47.0070 C   0  0  0  0  0  0  0  0  0  0  0  0
   44.2380   34.6370   47.3670 N   0  0  0  0  0  0  0  0  0  0  0  0
   49.3384   35.6409   40.1388 H   0  0  0  0  0  0  0  0  0  0  0  0
   48.5618   33.7014   38.7039 H   0  0  0  0  0  0  0  0  0  0  0  0
   46.4882   32.4117   39.4407 H   0  0  0  0  0  0  0  0  0  0  0  0
   45.0453   37.0351   42.8422 H   0  0  0  0  0  0  0  0  0  0  0  0
   48.8803   30.3394   45.0233 H   0  0  0  0  0  0  0  0  0  0  0  0
   47.5280   29.8250   43.9588 H   0  0  0  0  0  0  0  0  0  0  0  0
   48.0694   31.5377   43.9588 H   0  0  0  0  0  0  0  0  0  0  0  0
   45.5848   29.6253   46.7335 H   0  0  0  0  0  0  0  0  0  0  0  0
   44.9469   30.2576   45.1779 H   0  0  0  0  0  0  0  0  0  0  0  0
   46.2082   28.9787   45.1779 H   0  0  0  0  0  0  0  0  0  0  0  0
   46.9406   30.9535   47.8315 H   0  0  0  0  0  0  0  0  0  0  0  0
   48.0932   29.8018   47.0754 H   0  0  0  0  0  0  0  0  0  0  0  0
   48.4521   31.5619   47.0754 H   0  0  0  0  0  0  0  0  0  0  0  0
   44.1028   34.1267   48.2514 H   0  0  0  0  0  0  0  0  0  0  0  0
   43.8111   35.5654   47.2376 H   0  0  0  0  0  0  0  0  0  0  0  0
  1  6  2  0
  2  3  2  0
  2  1  1  0
  3  4  1  0
  4  5  2  0
  5  7  1  0
  6  5  1  0
  7  8  1  0
  7 15  1  0
  8  9  2  0
  9 10  1  0
 10 11  2  0
 11 12  1  0
 11 20  1  0
 13 16  1  0
 13 12  2  0
 14 13  1  0
 15 14  2  0
 15 10  1  0
 16 18  1  0
 16 19  1  0
 17 16  1  0
  1 21  1  0
  2 22  1  0
  3 23  1  0
  8 24  1  0
 17 25  1  0
 17 26  1  0
 17 27  1  0
 18 28  1  0
 18 29  1  0
 18 30  1  0
 19 31  1  0
 19 32  1  0
 19 33  1  0
 20 34  1  0
 20 35  1  0
M  ISO  8  21  14  22  14  23  14  24  14  25   8  26   8  27   8  28   8
M  ISO  5  29   8  30   8  31   8  32   8  33   8
M  END
>  <minimizedAffinity>  (1) 
-5.95230389

>  <minimizedRMSD>  (1) 
0.873171628

$$$$
