
     RDKit          3D

 29 32  0  0  0  0  0  0  0  0999 V2000
   48.5380   35.2220   40.7050 C   0  0  0  0  0  0  0  0  0  0  0  0
   48.3020   34.0650   39.9310 C   0  0  0  0  0  0  0  0  0  0  0  0
   47.2550   33.2260   40.3220 C   0  0  0  0  0  0  0  0  0  0  0  0
   46.5230   33.5750   41.4320 N   0  0  0  0  0  0  0  0  0  0  0  0
   46.7950   34.6990   42.1390 C   0  0  0  0  0  0  0  0  0  0  0  0
   47.7850   35.5090   41.7810 N   0  0  0  0  0  0  0  0  0  0  0  0
   45.9780   34.9880   43.2850 N   0  0  0  0  0  0  0  0  0  0  0  0
   45.1010   35.9570   43.5930 C   0  0  0  0  0  0  0  0  0  0  0  0
   44.6120   35.7360   44.8290 N   0  0  0  0  0  0  0  0  0  0  0  0
   45.1950   34.5960   45.3120 C   0  0  0  0  0  0  0  0  0  0  0  0
   45.0160   33.9730   46.5210 C   0  0  0  0  0  0  0  0  0  0  0  0
   45.7160   32.8540   46.7540 N   0  0  0  0  0  0  0  0  0  0  0  0
   46.5690   32.3640   45.8210 C   0  0  0  0  0  0  0  0  0  0  0  0
   46.7240   32.9980   44.6440 N   0  0  0  0  0  0  0  0  0  0  0  0
   46.0570   34.1190   44.3450 C   0  0  0  0  0  0  0  0  0  0  0  0
   47.3690   31.1360   46.0190 C   0  0  0  0  0  0  0  0  0  0  0  0
   47.7510   30.4860   44.8680 C   0  0  0  0  0  0  0  0  0  0  0  0
   48.7050   29.0390   45.4930 S   0  0  0  0  0  0  0  0  0  0  0  0
   48.3970   29.6090   47.2810 C   0  0  0  0  0  0  0  0  0  0  0  0
   47.7900   30.5410   47.1250 N   0  0  0  0  0  0  0  0  0  0  0  0
   44.1440   34.4520   47.5040 N   0  0  0  0  0  0  0  0  0  0  0  0
   49.3546   35.9024   40.4218 H   0  0  0  0  0  0  0  0  0  0  0  0
   48.9203   33.8322   39.0515 H   0  0  0  0  0  0  0  0  0  0  0  0
   47.0229   32.3112   39.7569 H   0  0  0  0  0  0  0  0  0  0  0  0
   44.8254   36.7980   42.9398 H   0  0  0  0  0  0  0  0  0  0  0  0
   47.5380   30.7636   43.8251 H   0  0  0  0  0  0  0  0  0  0  0  0
   48.7273   29.1464   48.2227 H   0  0  0  0  0  0  0  0  0  0  0  0
   44.0458   33.9464   48.3960 H   0  0  0  0  0  0  0  0  0  0  0  0
   43.6000   35.3103   47.3359 H   0  0  0  0  0  0  0  0  0  0  0  0
  1  6  2  0
  2  3  2  0
  2  1  1  0
  3  4  1  0
  4  5  2  0
  5  7  1  0
  6  5  1  0
  7  8  1  0
  7 15  1  0
  8  9  2  0
  9 10  1  0
 10 11  2  0
 11 12  1  0
 11 21  1  0
 13 16  1  0
 13 12  2  0
 14 13  1  0
 15 14  2  0
 15 10  1  0
 16 20  1  0
 17 18  1  0
 17 16  2  0
 18 19  1  0
 20 19  2  0
  1 22  1  0
  2 23  1  0
  3 24  1  0
  8 25  1  0
 17 26  1  0
 19 27  1  0
 21 28  1  0
 21 29  1  0
M  ISO  6  22  14  23  14  24  14  25  14  26  14  27  14
M  END
>  <minimizedAffinity>  (1) 
-6.12977886

>  <minimizedRMSD>  (1) 
0.855226934

$$$$
