
     RDKit          3D

 34 37  0  0  0  0  0  0  0  0999 V2000
   45.7840   34.2090   41.7550 N   0  0  0  0  0  0  0  0  0  0  0  0
   45.2180   33.5520   40.7540 C   0  0  0  0  0  0  0  0  0  0  0  0
   46.0940   33.5130   39.7270 N   0  0  0  0  0  0  0  0  0  0  0  0
   47.1960   34.1450   40.0980 C   0  0  0  0  0  0  0  0  0  0  0  0
   47.0230   34.5890   41.3650 N   0  0  0  0  0  0  0  0  0  0  0  0
   48.3950   34.3670   39.3500 N   0  0  0  0  0  0  0  0  0  0  0  0
   43.8810   32.9840   40.8200 C   0  0  0  0  0  0  0  0  0  0  0  0
   43.5510   31.7650   41.3560 C   0  0  0  0  0  0  0  0  0  0  0  0
   42.3190   31.2000   41.4260 C   0  0  0  0  0  0  0  0  0  0  0  0
   41.2320   31.8780   40.9190 C   0  0  0  0  0  0  0  0  0  0  0  0
   41.4700   33.1070   40.3620 C   0  0  0  0  0  0  0  0  0  0  0  0
   40.3700   33.7650   39.8610 C   0  0  0  0  0  0  0  0  0  0  0  0
   40.5290   35.0020   39.2850 C   0  0  0  0  0  0  0  0  0  0  0  0
   41.7890   35.5750   39.2150 C   0  0  0  0  0  0  0  0  0  0  0  0
   42.8300   34.8460   39.7420 C   0  0  0  0  0  0  0  0  0  0  0  0
   42.7600   33.6190   40.3280 C   0  0  0  0  0  0  0  0  0  0  0  0
   44.4550   36.0240   44.7570 C   0  0  0  0  0  0  0  0  0  0  0  0
   44.7590   35.7910   43.3990 C   0  0  0  0  0  0  0  0  0  0  0  0
   45.4140   34.5880   43.0790 C   0  0  0  0  0  0  0  0  0  0  0  0
   45.7210   33.7140   44.1140 N   0  0  0  0  0  0  0  0  0  0  0  0
   45.4050   33.9940   45.3990 C   0  0  0  0  0  0  0  0  0  0  0  0
   44.7850   35.1240   45.7080 N   0  0  0  0  0  0  0  0  0  0  0  0
   49.1793   34.8819   39.7751 H   0  0  0  0  0  0  0  0  0  0  0  0
   48.4740   34.0119   38.3864 H   0  0  0  0  0  0  0  0  0  0  0  0
   44.3803   31.1780   41.7775 H   0  0  0  0  0  0  0  0  0  0  0  0
   42.1893   30.2083   41.8840 H   0  0  0  0  0  0  0  0  0  0  0  0
   40.2187   31.4518   40.9596 H   0  0  0  0  0  0  0  0  0  0  0  0
   39.3727   33.3047   39.9212 H   0  0  0  0  0  0  0  0  0  0  0  0
   39.6574   35.5370   38.8799 H   0  0  0  0  0  0  0  0  0  0  0  0
   41.9489   36.5639   38.7605 H   0  0  0  0  0  0  0  0  0  0  0  0
   43.8281   35.3046   39.6835 H   0  0  0  0  0  0  0  0  0  0  0  0
   43.9413   36.9530   45.0454 H   0  0  0  0  0  0  0  0  0  0  0  0
   44.4941   36.5218   42.6207 H   0  0  0  0  0  0  0  0  0  0  0  0
   45.6644   33.2787   46.1934 H   0  0  0  0  0  0  0  0  0  0  0  0
  1 19  1  0
  2  7  1  0
  2  1  1  0
  3  4  1  0
  3  2  2  0
  4  5  2  0
  5  1  1  0
  6  4  1  0
  7  8  2  0
  8  9  1  0
 10  9  2  0
 11 10  1  0
 12 11  2  0
 13 12  1  0
 14 13  2  0
 14 15  1  0
 15 16  2  0
 16 11  1  0
 16  7  1  0
 17 22  2  0
 18 17  1  0
 19 18  2  0
 19 20  1  0
 20 21  2  0
 21 22  1  0
  6 23  1  0
  6 24  1  0
  8 25  1  0
  9 26  1  0
 10 27  1  0
 12 28  1  0
 13 29  1  0
 14 30  1  0
 15 31  1  0
 17 32  1  0
 18 33  1  0
 21 34  1  0
M  ISO  8  25  14  26  14  27  14  28  14  29  14  30  14  31  14  32  14
M  ISO  2  33  14  34  14
M  END
>  <minimizedAffinity>  (1) 
-5.8866396

>  <minimizedRMSD>  (1) 
0.670918763

$$$$
