
     RDKit          3D

 25 27  0  0  0  0  0  0  0  0999 V2000
   48.4610   35.2550   40.7340 C   0  0  0  0  0  0  0  0  0  0  0  0
   48.1820   34.1450   39.8850 C   0  0  0  0  0  0  0  0  0  0  0  0
   47.1640   33.2550   40.2740 C   0  0  0  0  0  0  0  0  0  0  0  0
   46.5040   33.5160   41.4460 N   0  0  0  0  0  0  0  0  0  0  0  0
   46.8040   34.5730   42.2100 C   0  0  0  0  0  0  0  0  0  0  0  0
   47.7700   35.4470   41.8740 N   0  0  0  0  0  0  0  0  0  0  0  0
   46.0540   34.7620   43.4250 N   0  0  0  0  0  0  0  0  0  0  0  0
   45.1820   35.7110   43.8540 C   0  0  0  0  0  0  0  0  0  0  0  0
   44.7750   35.3880   45.0940 N   0  0  0  0  0  0  0  0  0  0  0  0
   45.3900   34.2340   45.4490 C   0  0  0  0  0  0  0  0  0  0  0  0
   45.2860   33.5190   46.6230 C   0  0  0  0  0  0  0  0  0  0  0  0
   46.0140   32.3850   46.7240 N   0  0  0  0  0  0  0  0  0  0  0  0
   46.8130   31.9750   45.7070 C   0  0  0  0  0  0  0  0  0  0  0  0
   46.8840   32.7020   44.5820 N   0  0  0  0  0  0  0  0  0  0  0  0
   46.1890   33.8430   44.4070 C   0  0  0  0  0  0  0  0  0  0  0  0
   44.4660   33.9250   47.6930 N   0  0  0  0  0  0  0  0  0  0  0  0
   47.5890   30.7440   45.8410 C   0  0  0  0  0  0  0  0  0  0  0  0
   48.0190   30.4010   46.9740 O   0  0  0  0  0  0  0  0  0  0  0  0
   49.2526   35.9657   40.4541 H   0  0  0  0  0  0  0  0  0  0  0  0
   48.7456   33.9886   38.9534 H   0  0  0  0  0  0  0  0  0  0  0  0
   46.9070   32.3802   39.6587 H   0  0  0  0  0  0  0  0  0  0  0  0
   44.8625   36.5952   43.2829 H   0  0  0  0  0  0  0  0  0  0  0  0
   44.4207   33.3574   48.5513 H   0  0  0  0  0  0  0  0  0  0  0  0
   43.9114   34.7896   47.6175 H   0  0  0  0  0  0  0  0  0  0  0  0
   47.7962   30.1212   44.9583 H   0  0  0  0  0  0  0  0  0  0  0  0
  1  6  2  0
  2  3  2  0
  2  1  1  0
  3  4  1  0
  4  5  2  0
  5  7  1  0
  6  5  1  0
  7  8  1  0
  7 15  1  0
  8  9  2  0
  9 10  1  0
 10 11  2  0
 11 12  1  0
 11 16  1  0
 13 17  1  0
 13 12  2  0
 14 13  1  0
 15 14  2  0
 15 10  1  0
 17 18  2  0
  1 19  1  0
  2 20  1  0
  3 21  1  0
  8 22  1  0
 16 23  1  0
 16 24  1  0
 17 25  1  0
M  ISO  5  19  14  20  14  21  14  22  14  25   6
M  END
>  <minimizedAffinity>  (1) 
-5.6686058

>  <minimizedRMSD>  (1) 
0.331312031

$$$$
