
     RDKit          3D

 25 27  0  0  0  0  0  0  0  0999 V2000
   48.4270   35.2930   40.8250 C   0  0  0  0  0  0  0  0  0  0  0  0
   48.1550   34.2230   39.9320 C   0  0  0  0  0  0  0  0  0  0  0  0
   47.1660   33.3080   40.2890 C   0  0  0  0  0  0  0  0  0  0  0  0
   46.5090   33.4900   41.4820 N   0  0  0  0  0  0  0  0  0  0  0  0
   46.7930   34.5100   42.2940 C   0  0  0  0  0  0  0  0  0  0  0  0
   47.7430   35.4100   41.9770 N   0  0  0  0  0  0  0  0  0  0  0  0
   46.0660   34.6440   43.5320 N   0  0  0  0  0  0  0  0  0  0  0  0
   45.1920   35.5430   44.0140 C   0  0  0  0  0  0  0  0  0  0  0  0
   44.8260   35.1630   45.2490 N   0  0  0  0  0  0  0  0  0  0  0  0
   45.4810   34.0010   45.5490 C   0  0  0  0  0  0  0  0  0  0  0  0
   45.4250   33.2380   46.6940 C   0  0  0  0  0  0  0  0  0  0  0  0
   46.1850   32.1190   46.7290 N   0  0  0  0  0  0  0  0  0  0  0  0
   46.9560   31.7760   45.6870 C   0  0  0  0  0  0  0  0  0  0  0  0
   46.9900   32.5410   44.5820 N   0  0  0  0  0  0  0  0  0  0  0  0
   46.2600   33.6700   44.4760 C   0  0  0  0  0  0  0  0  0  0  0  0
   47.7500   30.5980   45.7350 N   0  0  0  0  0  0  0  0  0  0  0  0
   44.6190   33.5900   47.7960 N   0  0  0  0  0  0  0  0  0  0  0  0
   49.2025   36.0312   40.5728 H   0  0  0  0  0  0  0  0  0  0  0  0
   48.7082   34.1193   38.9869 H   0  0  0  0  0  0  0  0  0  0  0  0
   46.9177   32.4614   39.6321 H   0  0  0  0  0  0  0  0  0  0  0  0
   44.8359   36.4398   43.4859 H   0  0  0  0  0  0  0  0  0  0  0  0
   48.3397   30.3413   44.9305 H   0  0  0  0  0  0  0  0  0  0  0  0
   47.7357   30.0011   46.5743 H   0  0  0  0  0  0  0  0  0  0  0  0
   44.6044   32.9927   48.6350 H   0  0  0  0  0  0  0  0  0  0  0  0
   44.0448   34.4444   47.7620 H   0  0  0  0  0  0  0  0  0  0  0  0
  1  6  2  0
  2  3  2  0
  2  1  1  0
  3  4  1  0
  4  5  2  0
  5  7  1  0
  6  5  1  0
  7  8  1  0
  7 15  1  0
  8  9  2  0
  9 10  1  0
 10 11  2  0
 11 12  1  0
 11 17  1  0
 13 16  1  0
 13 12  2  0
 14 13  1  0
 15 14  2  0
 15 10  1  0
  1 18  1  0
  2 19  1  0
  3 20  1  0
  8 21  1  0
 16 22  1  0
 16 23  1  0
 17 24  1  0
 17 25  1  0
M  ISO  4  18  14  19  14  20  14  21  14
M  END
>  <minimizedAffinity>  (1) 
-5.82253361

>  <minimizedRMSD>  (1) 
0.0705665424

$$$$
