
     RDKit          3D

 26 28  0  0  0  0  0  0  0  0999 V2000
   48.4160   35.2690   40.8100 C   0  0  0  0  0  0  0  0  0  0  0  0
   48.1180   34.1950   39.9170 C   0  0  0  0  0  0  0  0  0  0  0  0
   47.1180   33.2840   40.2800 C   0  0  0  0  0  0  0  0  0  0  0  0
   46.4900   33.4900   41.4770 N   0  0  0  0  0  0  0  0  0  0  0  0
   46.8040   34.5240   42.2960 C   0  0  0  0  0  0  0  0  0  0  0  0
   47.7470   35.3980   41.9740 N   0  0  0  0  0  0  0  0  0  0  0  0
   46.0820   34.6490   43.5360 N   0  0  0  0  0  0  0  0  0  0  0  0
   45.2140   35.5560   44.0220 C   0  0  0  0  0  0  0  0  0  0  0  0
   44.8410   35.1650   45.2560 N   0  0  0  0  0  0  0  0  0  0  0  0
   45.4860   33.9940   45.5490 C   0  0  0  0  0  0  0  0  0  0  0  0
   45.4240   33.2200   46.6900 C   0  0  0  0  0  0  0  0  0  0  0  0
   46.1670   32.1050   46.7190 N   0  0  0  0  0  0  0  0  0  0  0  0
   46.9420   31.7610   45.6760 C   0  0  0  0  0  0  0  0  0  0  0  0
   46.9850   32.5300   44.5780 N   0  0  0  0  0  0  0  0  0  0  0  0
   46.2690   33.6630   44.4690 C   0  0  0  0  0  0  0  0  0  0  0  0
   44.6080   33.5770   47.7930 N   0  0  0  0  0  0  0  0  0  0  0  0
   47.7790   30.5110   45.7050 C   0  0  0  0  0  0  0  0  0  0  0  0
   49.1975   35.9969   40.5463 H   0  0  0  0  0  0  0  0  0  0  0  0
   48.6610   34.0859   38.9666 H   0  0  0  0  0  0  0  0  0  0  0  0
   46.8492   32.4386   39.6296 H   0  0  0  0  0  0  0  0  0  0  0  0
   44.8686   36.4611   43.5009 H   0  0  0  0  0  0  0  0  0  0  0  0
   44.5835   32.9781   48.6306 H   0  0  0  0  0  0  0  0  0  0  0  0
   44.0397   34.4353   47.7567 H   0  0  0  0  0  0  0  0  0  0  0  0
   47.9718   30.2230   46.7490 H   0  0  0  0  0  0  0  0  0  0  0  0
   47.2422   29.6984   45.1936 H   0  0  0  0  0  0  0  0  0  0  0  0
   48.7348   30.6978   45.1936 H   0  0  0  0  0  0  0  0  0  0  0  0
  1  6  2  0
  2  3  2  0
  2  1  1  0
  3  4  1  0
  4  5  2  0
  5  7  1  0
  6  5  1  0
  7  8  1  0
  7 15  1  0
  8  9  2  0
  9 10  1  0
 10 11  2  0
 11 12  1  0
 11 16  1  0
 13 17  1  0
 13 12  2  0
 14 13  1  0
 15 14  2  0
 15 10  1  0
  1 18  1  0
  2 19  1  0
  3 20  1  0
  8 21  1  0
 16 22  1  0
 16 23  1  0
 17 24  1  0
 17 25  1  0
 17 26  1  0
M  ISO  7  18  14  19  14  20  14  21  14  24   8  25   8  26   8
M  END
>  <minimizedAffinity>  (1) 
-5.81124163

>  <minimizedRMSD>  (1) 
0.0912456214

$$$$
