
     RDKit          3D

 29 30  0  0  0  0  0  0  0  0999 V2000
   48.5920   34.3750   41.9300 C   0  0  0  0  0  0  0  0  0  0  0  0
   46.3820   33.5280   44.7510 C   0  0  0  0  0  0  0  0  0  0  0  0
   45.2910   34.4130   44.5950 C   0  0  0  0  0  0  0  0  0  0  0  0
   45.3230   35.3040   43.5090 C   0  0  0  0  0  0  0  0  0  0  0  0
   46.4020   35.2670   42.6670 N   0  0  0  0  0  0  0  0  0  0  0  0
   47.4260   34.4010   42.8570 C   0  0  0  0  0  0  0  0  0  0  0  0
   47.4040   33.5410   43.8960 N   0  0  0  0  0  0  0  0  0  0  0  0
   49.0310   32.9450   41.7650 C   0  0  0  0  0  0  0  0  0  0  0  0
   49.7510   35.1120   42.5280 C   0  0  0  0  0  0  0  0  0  0  0  0
   48.2120   34.9410   40.5780 C   0  0  0  0  0  0  0  0  0  0  0  0
   48.2400   33.8390   39.5600 C   0  0  0  0  0  0  0  0  0  0  0  0
   48.1520   34.0940   38.0990 C   0  0  0  0  0  0  0  0  0  0  0  0
   46.9560   33.5970   38.8280 C   0  0  0  0  0  0  0  0  0  0  0  0
   46.3875   32.8177   45.5909 H   0  0  0  0  0  0  0  0  0  0  0  0
   44.4462   34.4045   45.2994 H   0  0  0  0  0  0  0  0  0  0  0  0
   44.5006   36.0145   43.3393 H   0  0  0  0  0  0  0  0  0  0  0  0
   49.1713   32.4879   42.7556 H   0  0  0  0  0  0  0  0  0  0  0  0
   48.2627   32.3874   41.2094 H   0  0  0  0  0  0  0  0  0  0  0  0
   49.9799   32.9145   41.2094 H   0  0  0  0  0  0  0  0  0  0  0  0
   49.6853   35.0702   43.6252 H   0  0  0  0  0  0  0  0  0  0  0  0
   50.6913   34.6456   42.1989 H   0  0  0  0  0  0  0  0  0  0  0  0
   49.7274   36.1614   42.1989 H   0  0  0  0  0  0  0  0  0  0  0  0
   47.2003   35.3698   40.6292 H   0  0  0  0  0  0  0  0  0  0  0  0
   48.9247   35.7286   40.2919 H   0  0  0  0  0  0  0  0  0  0  0  0
   48.9570   33.2683   40.1685 H   0  0  0  0  0  0  0  0  0  0  0  0
   48.6785   33.4336   37.3942 H   0  0  0  0  0  0  0  0  0  0  0  0
   48.3601   34.9568   37.4492 H   0  0  0  0  0  0  0  0  0  0  0  0
   46.0950   34.2618   38.9916 H   0  0  0  0  0  0  0  0  0  0  0  0
   46.2730   32.7423   38.7139 H   0  0  0  0  0  0  0  0  0  0  0  0
  1  9  1  0
  1  6  1  0
  3  2  2  0
  4  3  1  0
  5  6  1  0
  5  4  2  0
  6  7  2  0
  7  2  1  0
  8  1  1  0
 10  1  1  0
 11 10  1  0
 12 13  1  0
 12 11  1  0
 13 11  1  0
  2 14  1  0
  3 15  1  0
  4 16  1  0
  8 17  1  0
  8 18  1  0
  8 19  1  0
  9 20  1  0
  9 21  1  0
  9 22  1  0
 10 23  1  0
 10 24  1  0
 11 25  1  0
 12 26  1  0
 12 27  1  0
 13 28  1  0
 13 29  1  0
M  ISO  8  14  14  15  14  16  14  17   8  18   8  19   8  20   8  21   8
M  ISO  8  22   8  23   8  24   8  25  13  26  13  27  13  28  13  29  13
M  END
>  <minimizedAffinity>  (1) 
-4.12319708

>  <minimizedRMSD>  (1) 
2.90105009

$$$$
