
     RDKit          3D

 29 31  0  0  0  0  0  0  0  0999 V2000
   45.7870   34.3130   41.7820 N   0  0  0  0  0  0  0  0  0  0  0  0
   45.1340   34.0000   40.6640 C   0  0  0  0  0  0  0  0  0  0  0  0
   45.9710   33.8100   39.6510 N   0  0  0  0  0  0  0  0  0  0  0  0
   47.2090   34.0150   40.1580 C   0  0  0  0  0  0  0  0  0  0  0  0
   47.1040   34.3290   41.4870 N   0  0  0  0  0  0  0  0  0  0  0  0
   48.5130   33.9490   39.5250 N   0  0  0  0  0  0  0  0  0  0  0  0
   43.7120   33.9070   40.6710 N   0  0  0  0  0  0  0  0  0  0  0  0
   43.1610   34.7470   39.7460 C   0  0  0  0  0  0  0  0  0  0  0  0
   41.7870   34.8210   39.5790 C   0  0  0  0  0  0  0  0  0  0  0  0
   40.9950   34.0150   40.3820 C   0  0  0  0  0  0  0  0  0  0  0  0
   39.5800   34.0570   40.2460 N   0  0  0  0  0  0  0  0  0  0  0  0
   41.5810   33.2110   41.2700 N   0  0  0  0  0  0  0  0  0  0  0  0
   42.9110   33.1400   41.4310 C   0  0  0  0  0  0  0  0  0  0  0  0
   43.5360   32.4180   42.2360 O   0  0  0  0  0  0  0  0  0  0  0  0
   44.4490   35.9350   44.8700 C   0  0  0  0  0  0  0  0  0  0  0  0
   44.7360   35.7660   43.5110 C   0  0  0  0  0  0  0  0  0  0  0  0
   45.4290   34.6130   43.1240 C   0  0  0  0  0  0  0  0  0  0  0  0
   45.7840   33.7260   44.0980 N   0  0  0  0  0  0  0  0  0  0  0  0
   45.4870   33.9250   45.4070 C   0  0  0  0  0  0  0  0  0  0  0  0
   44.8300   35.0160   45.7810 N   0  0  0  0  0  0  0  0  0  0  0  0
   49.3628   34.1386   40.0753 H   0  0  0  0  0  0  0  0  0  0  0  0
   48.5889   33.7126   38.5254 H   0  0  0  0  0  0  0  0  0  0  0  0
   43.8171   35.3740   39.1244 H   0  0  0  0  0  0  0  0  0  0  0  0
   41.3402   35.4964   38.8345 H   0  0  0  0  0  0  0  0  0  0  0  0
   38.9875   33.4599   40.8405 H   0  0  0  0  0  0  0  0  0  0  0  0
   39.1476   34.6845   39.5530 H   0  0  0  0  0  0  0  0  0  0  0  0
   43.9041   36.8315   45.2007 H   0  0  0  0  0  0  0  0  0  0  0  0
   44.4263   36.5167   42.7690 H   0  0  0  0  0  0  0  0  0  0  0  0
   45.7909   33.1817   46.1587 H   0  0  0  0  0  0  0  0  0  0  0  0
  1 17  1  0
  2  7  1  0
  2  1  1  0
  3  4  1  0
  3  2  2  0
  4  5  2  0
  5  1  1  0
  6  4  1  0
  7 13  1  0
  8  7  1  0
  9  8  2  0
  9 10  1  0
 10 12  2  0
 11 10  1  0
 12 13  1  0
 13 14  2  0
 15 20  2  0
 16 15  1  0
 17 16  2  0
 17 18  1  0
 18 19  2  0
 19 20  1  0
  6 21  1  0
  6 22  1  0
  8 23  1  0
  9 24  1  0
 11 25  1  0
 11 26  1  0
 15 27  1  0
 16 28  1  0
 19 29  1  0
M  ISO  5  23  14  24  14  27  14  28  14  29  14
M  END
>  <minimizedAffinity>  (1) 
-5.67426252

>  <minimizedRMSD>  (1) 
1.34556222

$$$$
