
     RDKit          3D

 39 40  0  0  0  0  0  0  0  0999 V2000
   45.9200   34.3740   42.3580 C   0  0  0  0  0  0  0  0  0  0  0  0
   49.4390   33.4500   42.9000 C   0  0  0  0  0  0  0  0  0  0  0  0
   50.1380   34.5990   42.4800 C   0  0  0  0  0  0  0  0  0  0  0  0
   49.3930   35.6840   42.0130 C   0  0  0  0  0  0  0  0  0  0  0  0
   48.0200   35.5690   41.9890 N   0  0  0  0  0  0  0  0  0  0  0  0
   47.3990   34.4470   42.4030 C   0  0  0  0  0  0  0  0  0  0  0  0
   48.1100   33.4100   42.8490 N   0  0  0  0  0  0  0  0  0  0  0  0
   45.3420   35.7090   42.7890 C   0  0  0  0  0  0  0  0  0  0  0  0
   45.4390   33.3790   43.3960 C   0  0  0  0  0  0  0  0  0  0  0  0
   45.3870   34.0540   41.0040 C   0  0  0  0  0  0  0  0  0  0  0  0
   43.9290   33.9100   40.9210 C   0  0  0  0  0  0  0  0  0  0  0  0
   43.0440   33.0980   41.5180 N   0  0  0  0  0  0  0  0  0  0  0  0
   41.8230   33.3760   41.0910 O   0  0  0  0  0  0  0  0  0  0  0  0
   41.8930   34.3640   40.2190 C   0  0  0  0  0  0  0  0  0  0  0  0
   43.1790   34.7000   40.1060 N   0  0  0  0  0  0  0  0  0  0  0  0
   40.7590   35.0010   39.4860 C   0  0  0  0  0  0  0  0  0  0  0  0
   39.7810   33.9630   38.9760 C   0  0  0  0  0  0  0  0  0  0  0  0
   39.9760   35.9300   40.3790 C   0  0  0  0  0  0  0  0  0  0  0  0
   41.3360   35.7530   38.3050 C   0  0  0  0  0  0  0  0  0  0  0  0
   49.9968   32.5785   43.2733 H   0  0  0  0  0  0  0  0  0  0  0  0
   51.2365   34.6402   42.5187 H   0  0  0  0  0  0  0  0  0  0  0  0
   49.8887   36.6054   41.6735 H   0  0  0  0  0  0  0  0  0  0  0  0
   45.3194   35.7613   43.8875 H   0  0  0  0  0  0  0  0  0  0  0  0
   45.9680   36.5236   42.3960 H   0  0  0  0  0  0  0  0  0  0  0  0
   44.3196   35.8099   42.3960 H   0  0  0  0  0  0  0  0  0  0  0  0
   45.6317   33.7776   44.4030 H   0  0  0  0  0  0  0  0  0  0  0  0
   44.3596   33.2097   43.2691 H   0  0  0  0  0  0  0  0  0  0  0  0
   45.9768   32.4279   43.2691 H   0  0  0  0  0  0  0  0  0  0  0  0
   45.6880   34.8619   40.3208 H   0  0  0  0  0  0  0  0  0  0  0  0
   45.8049   33.0721   40.7373 H   0  0  0  0  0  0  0  0  0  0  0  0
   39.3048   33.4576   39.8291 H   0  0  0  0  0  0  0  0  0  0  0  0
   39.0103   34.4547   38.3643 H   0  0  0  0  0  0  0  0  0  0  0  0
   40.3177   33.2229   38.3643 H   0  0  0  0  0  0  0  0  0  0  0  0
   40.1814   35.6863   41.4318 H   0  0  0  0  0  0  0  0  0  0  0  0
   40.2744   36.9696   40.1783 H   0  0  0  0  0  0  0  0  0  0  0  0
   38.9009   35.8119   40.1783 H   0  0  0  0  0  0  0  0  0  0  0  0
   41.9681   36.5768   38.6682 H   0  0  0  0  0  0  0  0  0  0  0  0
   41.9421   35.0675   37.6945 H   0  0  0  0  0  0  0  0  0  0  0  0
   40.5170   36.1610   37.6945 H   0  0  0  0  0  0  0  0  0  0  0  0
  1  6  1  0
  1  8  1  0
  1  9  1  0
  3  2  2  0
  4  3  1  0
  5  4  2  0
  5  6  1  0
  6  7  2  0
  7  2  1  0
 10  1  1  0
 11 10  1  0
 11 12  2  0
 13 12  1  0
 14 13  1  0
 15 14  2  0
 15 11  1  0
 16 14  1  0
 16 18  1  0
 17 16  1  0
 19 16  1  0
  2 20  1  0
  3 21  1  0
  4 22  1  0
  8 23  1  0
  8 24  1  0
  8 25  1  0
  9 26  1  0
  9 27  1  0
  9 28  1  0
 10 29  1  0
 10 30  1  0
 17 31  1  0
 17 32  1  0
 17 33  1  0
 18 34  1  0
 18 35  1  0
 18 36  1  0
 19 37  1  0
 19 38  1  0
 19 39  1  0
M  ISO  8  20  14  21  14  22  14  23   8  24   8  25   8  26   8  27   8
M  ISO  8  28   8  29   8  30   8  31   8  32   8  33   8  34   8  35   8
M  ISO  4  36   8  37   8  38   8  39   8
M  END
>  <minimizedAffinity>  (1) 
-5.18309116

>  <minimizedRMSD>  (1) 
7.04712439

$$$$
