
     RDKit          3D

 40 43  0  0  0  0  0  0  0  0999 V2000
   47.0080   34.5890   41.3120 C   0  0  0  0  0  0  0  0  0  0  0  0
   48.2050   33.8020   41.6000 C   0  0  0  0  0  0  0  0  0  0  0  0
   48.8540   33.4750   42.7240 N   0  0  0  0  0  0  0  0  0  0  0  0
   49.9060   32.7330   42.4660 O   0  0  0  0  0  0  0  0  0  0  0  0
   49.9790   32.5520   41.1650 C   0  0  0  0  0  0  0  0  0  0  0  0
   48.9410   33.2040   40.6290 N   0  0  0  0  0  0  0  0  0  0  0  0
   50.9450   31.8180   40.4040 N   0  0  0  0  0  0  0  0  0  0  0  0
   52.0810   31.2590   40.9040 C   0  0  0  0  0  0  0  0  0  0  0  0
   52.7390   30.6490   39.8860 N   0  0  0  0  0  0  0  0  0  0  0  0
   52.0220   30.8260   38.7610 C   0  0  0  0  0  0  0  0  0  0  0  0
   52.1560   30.4580   37.4400 C   0  0  0  0  0  0  0  0  0  0  0  0
   51.2370   30.7980   36.5220 N   0  0  0  0  0  0  0  0  0  0  0  0
   50.1400   31.5110   36.8320 C   0  0  0  0  0  0  0  0  0  0  0  0
   50.0090   31.8700   38.1180 N   0  0  0  0  0  0  0  0  0  0  0  0
   50.8940   31.5570   39.0710 C   0  0  0  0  0  0  0  0  0  0  0  0
   53.2890   29.7030   37.0330 N   0  0  0  0  0  0  0  0  0  0  0  0
   45.7180   33.9800   41.7860 C   0  0  0  0  0  0  0  0  0  0  0  0
   45.3940   33.8550   45.4440 C   0  0  0  0  0  0  0  0  0  0  0  0
   44.7670   35.0750   45.7540 C   0  0  0  0  0  0  0  0  0  0  0  0
   44.4500   35.9530   44.7070 C   0  0  0  0  0  0  0  0  0  0  0  0
   44.7780   35.5540   43.4280 N   0  0  0  0  0  0  0  0  0  0  0  0
   45.3810   34.3670   43.1860 C   0  0  0  0  0  0  0  0  0  0  0  0
   45.6850   33.5330   44.1760 N   0  0  0  0  0  0  0  0  0  0  0  0
   44.6170   34.4580   40.8730 C   0  0  0  0  0  0  0  0  0  0  0  0
   45.7390   32.4690   41.6740 C   0  0  0  0  0  0  0  0  0  0  0  0
   47.1202   35.5704   41.7961 H   0  0  0  0  0  0  0  0  0  0  0  0
   46.9355   34.6484   40.2160 H   0  0  0  0  0  0  0  0  0  0  0  0
   52.4093   31.2955   41.9532 H   0  0  0  0  0  0  0  0  0  0  0  0
   49.3918   31.7847   36.0736 H   0  0  0  0  0  0  0  0  0  0  0  0
   53.3953   29.4247   36.0470 H   0  0  0  0  0  0  0  0  0  0  0  0
   54.0040   29.4341   37.7240 H   0  0  0  0  0  0  0  0  0  0  0  0
   45.6491   33.1553   46.2535 H   0  0  0  0  0  0  0  0  0  0  0  0
   44.5300   35.3354   46.7961 H   0  0  0  0  0  0  0  0  0  0  0  0
   43.9603   36.9193   44.8979 H   0  0  0  0  0  0  0  0  0  0  0  0
   43.7734   34.8243   41.4765 H   0  0  0  0  0  0  0  0  0  0  0  0
   44.9949   35.2731   40.2383 H   0  0  0  0  0  0  0  0  0  0  0  0
   44.2796   33.6253   40.2383 H   0  0  0  0  0  0  0  0  0  0  0  0
   45.7451   32.0267   42.6812 H   0  0  0  0  0  0  0  0  0  0  0  0
   44.8455   32.1292   41.1298 H   0  0  0  0  0  0  0  0  0  0  0  0
   46.6416   32.1542   41.1298 H   0  0  0  0  0  0  0  0  0  0  0  0
  1  2  1  0
  1 17  1  0
  2  3  2  0
  4  3  1  0
  5  4  1  0
  6  5  2  0
  6  2  1  0
  7  8  1  0
  7  5  1  0
  9  8  2  0
 10 15  2  0
 10  9  1  0
 11 10  1  0
 12 13  1  0
 12 11  2  0
 13 14  2  0
 14 15  1  0
 15  7  1  0
 16 11  1  0
 17 22  1  0
 18 19  2  0
 20 19  1  0
 21 20  2  0
 22 21  1  0
 22 23  2  0
 23 18  1  0
 24 17  1  0
 25 17  1  0
  1 26  1  0
  1 27  1  0
  8 28  1  0
 13 29  1  0
 16 30  1  0
 16 31  1  0
 18 32  1  0
 19 33  1  0
 20 34  1  0
 24 35  1  0
 24 36  1  0
 24 37  1  0
 25 38  1  0
 25 39  1  0
 25 40  1  0
M  ISO  8  26   8  27   8  28  14  29  14  32  14  33  14  34  14  35   8
M  ISO  5  36   8  37   8  38   8  39   8  40   8
M  END
>  <minimizedAffinity>  (1) 
-5.14661026

>  <minimizedRMSD>  (1) 
3.47989392

$$$$
