
     RDKit          3D

 33 35  0  0  0  0  0  0  0  0999 V2000
   45.9770   33.9540   41.7160 C   0  0  0  0  0  0  0  0  0  0  0  0
   45.4130   33.9880   45.3430 C   0  0  0  0  0  0  0  0  0  0  0  0
   44.7490   35.2130   45.5630 C   0  0  0  0  0  0  0  0  0  0  0  0
   44.4960   36.0310   44.4430 C   0  0  0  0  0  0  0  0  0  0  0  0
   44.9110   35.5900   43.2030 N   0  0  0  0  0  0  0  0  0  0  0  0
   45.5440   34.4010   43.0650 C   0  0  0  0  0  0  0  0  0  0  0  0
   45.7880   33.6200   44.1200 N   0  0  0  0  0  0  0  0  0  0  0  0
   44.8860   34.2960   40.7160 C   0  0  0  0  0  0  0  0  0  0  0  0
   46.1300   32.4570   41.7020 C   0  0  0  0  0  0  0  0  0  0  0  0
   47.2360   34.6360   41.2630 C   0  0  0  0  0  0  0  0  0  0  0  0
   48.4840   34.0130   41.7000 C   0  0  0  0  0  0  0  0  0  0  0  0
   49.2410   34.1250   42.8100 N   0  0  0  0  0  0  0  0  0  0  0  0
   50.2860   33.3450   42.7300 O   0  0  0  0  0  0  0  0  0  0  0  0
   50.2510   32.7060   41.5850 C   0  0  0  0  0  0  0  0  0  0  0  0
   49.1440   33.1070   40.9370 N   0  0  0  0  0  0  0  0  0  0  0  0
   51.2770   31.7840   41.2370 N   0  0  0  0  0  0  0  0  0  0  0  0
   52.0880   31.5600   40.1920 C   0  0  0  0  0  0  0  0  0  0  0  0
   52.8810   30.4950   40.4680 N   0  0  0  0  0  0  0  0  0  0  0  0
   52.5460   30.0660   41.6960 C   0  0  0  0  0  0  0  0  0  0  0  0
   51.5610   30.8640   42.1610 N   0  0  0  0  0  0  0  0  0  0  0  0
   45.6243   33.3262   46.1959 H   0  0  0  0  0  0  0  0  0  0  0  0
   44.4394   35.5193   46.5731 H   0  0  0  0  0  0  0  0  0  0  0  0
   43.9808   36.9964   44.5547 H   0  0  0  0  0  0  0  0  0  0  0  0
   43.9711   34.5828   41.2552 H   0  0  0  0  0  0  0  0  0  0  0  0
   45.2170   35.1335   40.0843 H   0  0  0  0  0  0  0  0  0  0  0  0
   44.6797   33.4194   40.0843 H   0  0  0  0  0  0  0  0  0  0  0  0
   46.1683   32.0827   42.7356 H   0  0  0  0  0  0  0  0  0  0  0  0
   45.2733   32.0057   41.1801 H   0  0  0  0  0  0  0  0  0  0  0  0
   47.0603   32.1884   41.1801 H   0  0  0  0  0  0  0  0  0  0  0  0
   47.2196   35.6666   41.6471 H   0  0  0  0  0  0  0  0  0  0  0  0
   47.2353   34.5706   40.1649 H   0  0  0  0  0  0  0  0  0  0  0  0
   52.1067   32.1458   39.2612 H   0  0  0  0  0  0  0  0  0  0  0  0
   52.9949   29.2148   42.2288 H   0  0  0  0  0  0  0  0  0  0  0  0
  1  6  1  0
  2  3  2  0
  4  3  1  0
  5  4  2  0
  6  5  1  0
  6  7  2  0
  7  2  1  0
  8  1  1  0
  9  1  1  0
 10 11  1  0
 10  1  1  0
 11 12  2  0
 13 12  1  0
 14 13  1  0
 15 14  2  0
 15 11  1  0
 16 14  1  0
 16 20  1  0
 17 18  2  0
 17 16  1  0
 18 19  1  0
 19 20  2  0
  2 21  1  0
  3 22  1  0
  4 23  1  0
  8 24  1  0
  8 25  1  0
  8 26  1  0
  9 27  1  0
  9 28  1  0
  9 29  1  0
 10 30  1  0
 10 31  1  0
 17 32  1  0
 19 33  1  0
M  ISO  8  21  14  22  14  23  14  24   8  25   8  26   8  27   8  28   8
M  ISO  5  29   8  30   8  31   8  32  14  33  14
M  END
>  <minimizedAffinity>  (1) 
-4.73462439

>  <minimizedRMSD>  (1) 
1.98402047

$$$$
