
     RDKit          3D

 42 44  0  0  0  0  0  0  0  0999 V2000
   45.9450   33.8960   41.6480 C   0  0  0  0  0  0  0  0  0  0  0  0
   45.4280   33.9710   45.2840 C   0  0  0  0  0  0  0  0  0  0  0  0
   44.7700   35.2180   45.4870 C   0  0  0  0  0  0  0  0  0  0  0  0
   44.5140   36.0160   44.3670 C   0  0  0  0  0  0  0  0  0  0  0  0
   44.9130   35.5470   43.1410 N   0  0  0  0  0  0  0  0  0  0  0  0
   45.5350   34.3550   42.9960 C   0  0  0  0  0  0  0  0  0  0  0  0
   45.7830   33.5910   44.0510 N   0  0  0  0  0  0  0  0  0  0  0  0
   44.8020   34.1320   40.6740 C   0  0  0  0  0  0  0  0  0  0  0  0
   46.1650   32.3980   41.6660 C   0  0  0  0  0  0  0  0  0  0  0  0
   47.1330   34.6270   41.1220 C   0  0  0  0  0  0  0  0  0  0  0  0
   48.4220   34.1770   41.6630 C   0  0  0  0  0  0  0  0  0  0  0  0
   49.2540   34.6720   42.5940 N   0  0  0  0  0  0  0  0  0  0  0  0
   50.3080   33.8810   42.7240 O   0  0  0  0  0  0  0  0  0  0  0  0
   50.1880   32.8810   41.9020 C   0  0  0  0  0  0  0  0  0  0  0  0
   49.0420   33.0300   41.2370 N   0  0  0  0  0  0  0  0  0  0  0  0
   51.1400   31.8320   41.7740 N   0  0  0  0  0  0  0  0  0  0  0  0
   51.2310   30.8020   42.7910 C   0  0  0  0  0  0  0  0  0  0  0  0
   50.6180   29.5430   42.1790 C   0  0  0  0  0  0  0  0  0  0  0  0
   51.2200   29.3840   40.8140 C   0  0  0  0  0  0  0  0  0  0  0  0
   52.4410   30.2580   40.5990 C   0  0  0  0  0  0  0  0  0  0  0  0
   52.0470   31.7400   40.6440 C   0  0  0  0  0  0  0  0  0  0  0  0
   45.6448   33.3188   46.1429 H   0  0  0  0  0  0  0  0  0  0  0  0
   44.4721   35.5437   46.4945 H   0  0  0  0  0  0  0  0  0  0  0  0
   44.0091   36.9882   44.4661 H   0  0  0  0  0  0  0  0  0  0  0  0
   43.8755   34.3233   41.2353 H   0  0  0  0  0  0  0  0  0  0  0  0
   45.0333   35.0013   40.0409 H   0  0  0  0  0  0  0  0  0  0  0  0
   44.6701   33.2421   40.0409 H   0  0  0  0  0  0  0  0  0  0  0  0
   46.2165   32.0475   42.7074 H   0  0  0  0  0  0  0  0  0  0  0  0
   45.3306   31.8986   41.1518 H   0  0  0  0  0  0  0  0  0  0  0  0
   47.1078   32.1597   41.1518 H   0  0  0  0  0  0  0  0  0  0  0  0
   47.1571   34.4997   40.0297 H   0  0  0  0  0  0  0  0  0  0  0  0
   47.0150   35.6751   41.4342 H   0  0  0  0  0  0  0  0  0  0  0  0
   52.2827   30.6225   43.0589 H   0  0  0  0  0  0  0  0  0  0  0  0
   50.7040   31.0984   43.7099 H   0  0  0  0  0  0  0  0  0  0  0  0
   50.8539   28.6668   42.8008 H   0  0  0  0  0  0  0  0  0  0  0  0
   49.5229   29.6277   42.1188 H   0  0  0  0  0  0  0  0  0  0  0  0
   51.5139   28.3324   40.6809 H   0  0  0  0  0  0  0  0  0  0  0  0
   50.4604   29.6941   40.0813 H   0  0  0  0  0  0  0  0  0  0  0  0
   52.8832   30.0293   39.6181 H   0  0  0  0  0  0  0  0  0  0  0  0
   53.1712   30.0566   41.3966 H   0  0  0  0  0  0  0  0  0  0  0  0
   52.9317   32.3745   40.8009 H   0  0  0  0  0  0  0  0  0  0  0  0
   51.5875   32.0830   39.7053 H   0  0  0  0  0  0  0  0  0  0  0  0
  1  9  1  0
  1  6  1  0
  2  3  2  0
  4  3  1  0
  5  4  2  0
  6  5  1  0
  6  7  2  0
  7  2  1  0
  8  1  1  0
 10  1  1  0
 10 11  1  0
 11 12  2  0
 12 13  1  0
 14 13  1  0
 15 11  1  0
 15 14  2  0
 16 14  1  0
 16 17  1  0
 18 17  1  0
 19 18  1  0
 20 21  1  0
 20 19  1  0
 21 16  1  0
  2 22  1  0
  3 23  1  0
  4 24  1  0
  8 25  1  0
  8 26  1  0
  8 27  1  0
  9 28  1  0
  9 29  1  0
  9 30  1  0
 10 31  1  0
 10 32  1  0
 17 33  1  0
 17 34  1  0
 18 35  1  0
 18 36  1  0
 19 37  1  0
 19 38  1  0
 20 39  1  0
 20 40  1  0
 21 41  1  0
 21 42  1  0
M  ISO  8  22  14  23  14  24  14  25   8  26   8  27   8  28   8  29   8
M  ISO  8  30   8  31   8  32   8  33  13  34  13  35  13  36  13  37  13
M  ISO  5  38  13  39  13  40  13  41  13  42  13
M  END
>  <minimizedAffinity>  (1) 
-4.85677147

>  <minimizedRMSD>  (1) 
1.66083932

$$$$
