
     RDKit          3D

 39 41  0  0  0  0  0  0  0  0999 V2000
   46.4750   33.9940   41.8270 C   0  0  0  0  0  0  0  0  0  0  0  0
   45.4010   34.0790   45.3440 C   0  0  0  0  0  0  0  0  0  0  0  0
   44.7190   35.3140   45.4500 C   0  0  0  0  0  0  0  0  0  0  0  0
   44.6320   36.1210   44.2920 C   0  0  0  0  0  0  0  0  0  0  0  0
   45.2190   35.6460   43.1430 N   0  0  0  0  0  0  0  0  0  0  0  0
   45.8580   34.4530   43.1090 C   0  0  0  0  0  0  0  0  0  0  0  0
   45.9440   33.6890   44.1890 N   0  0  0  0  0  0  0  0  0  0  0  0
   45.4590   34.1230   40.7150 C   0  0  0  0  0  0  0  0  0  0  0  0
   46.7940   32.5130   41.9510 C   0  0  0  0  0  0  0  0  0  0  0  0
   47.6730   34.7900   41.4510 C   0  0  0  0  0  0  0  0  0  0  0  0
   48.9660   34.1970   41.8010 C   0  0  0  0  0  0  0  0  0  0  0  0
   49.9480   34.5090   42.6690 N   0  0  0  0  0  0  0  0  0  0  0  0
   50.9220   33.6230   42.5870 O   0  0  0  0  0  0  0  0  0  0  0  0
   50.6090   32.7350   41.6880 C   0  0  0  0  0  0  0  0  0  0  0  0
   49.4170   33.0560   41.1870 N   0  0  0  0  0  0  0  0  0  0  0  0
   51.3930   31.6110   41.2990 N   0  0  0  0  0  0  0  0  0  0  0  0
   52.3940   31.5340   40.2510 C   0  0  0  0  0  0  0  0  0  0  0  0
   52.0140   30.2030   39.6210 C   0  0  0  0  0  0  0  0  0  0  0  0
   51.8980   29.3350   40.8570 C   0  0  0  0  0  0  0  0  0  0  0  0
   51.3540   30.2810   41.8780 C   0  0  0  0  0  0  0  0  0  0  0  0
   45.4851   33.4297   46.2279 H   0  0  0  0  0  0  0  0  0  0  0  0
   44.2712   35.6359   46.4018 H   0  0  0  0  0  0  0  0  0  0  0  0
   44.1145   37.0915   44.3098 H   0  0  0  0  0  0  0  0  0  0  0  0
   44.4558   34.2504   41.1479 H   0  0  0  0  0  0  0  0  0  0  0  0
   45.7041   34.9972   40.0940 H   0  0  0  0  0  0  0  0  0  0  0  0
   45.4778   33.2153   40.0940 H   0  0  0  0  0  0  0  0  0  0  0  0
   46.8531   32.2385   43.0145 H   0  0  0  0  0  0  0  0  0  0  0  0
   46.0018   31.9253   41.4641 H   0  0  0  0  0  0  0  0  0  0  0  0
   47.7579   32.3035   41.4641 H   0  0  0  0  0  0  0  0  0  0  0  0
   47.6017   35.7658   41.9538 H   0  0  0  0  0  0  0  0  0  0  0  0
   47.6591   34.8515   40.3528 H   0  0  0  0  0  0  0  0  0  0  0  0
   52.3018   32.3651   39.5364 H   0  0  0  0  0  0  0  0  0  0  0  0
   53.4354   31.6017   40.5988 H   0  0  0  0  0  0  0  0  0  0  0  0
   51.0587   30.2681   39.0795 H   0  0  0  0  0  0  0  0  0  0  0  0
   52.7245   29.8337   38.8668 H   0  0  0  0  0  0  0  0  0  0  0  0
   51.2079   28.4953   40.6878 H   0  0  0  0  0  0  0  0  0  0  0  0
   52.8510   28.8739   41.1555 H   0  0  0  0  0  0  0  0  0  0  0  0
   51.9713   30.2484   42.7879 H   0  0  0  0  0  0  0  0  0  0  0  0
   50.3251   30.0066   42.1536 H   0  0  0  0  0  0  0  0  0  0  0  0
  1  9  1  0
  1  6  1  0
  2  3  2  0
  4  3  1  0
  5  4  2  0
  6  5  1  0
  6  7  2  0
  7  2  1  0
  8  1  1  0
 10 11  1  0
 10  1  1  0
 11 12  2  0
 13 12  1  0
 14 13  1  0
 15 14  2  0
 15 11  1  0
 16 14  1  0
 16 20  1  0
 17 16  1  0
 18 17  1  0
 18 19  1  0
 19 20  1  0
  2 21  1  0
  3 22  1  0
  4 23  1  0
  8 24  1  0
  8 25  1  0
  8 26  1  0
  9 27  1  0
  9 28  1  0
  9 29  1  0
 10 30  1  0
 10 31  1  0
 17 32  1  0
 17 33  1  0
 18 34  1  0
 18 35  1  0
 19 36  1  0
 19 37  1  0
 20 38  1  0
 20 39  1  0
M  ISO  8  21  14  22  14  23  14  24   8  25   8  26   8  27   8  28   8
M  ISO  8  29   8  30   8  31   8  32  13  33  13  34  13  35  13  36  13
M  ISO  3  37  13  38  13  39  13
M  END
>  <minimizedAffinity>  (1) 
-5.06686544

>  <minimizedRMSD>  (1) 
1.89857352

$$$$
