
     RDKit          3D

 30 31  0  0  0  0  0  0  0  0999 V2000
   45.9290   33.8940   41.6150 C   0  0  0  0  0  0  0  0  0  0  0  0
   45.3750   34.0000   45.2350 C   0  0  0  0  0  0  0  0  0  0  0  0
   44.7680   35.2600   45.4400 C   0  0  0  0  0  0  0  0  0  0  0  0
   44.5570   36.0660   44.3190 C   0  0  0  0  0  0  0  0  0  0  0  0
   44.9510   35.5770   43.1010 N   0  0  0  0  0  0  0  0  0  0  0  0
   45.5240   34.3690   42.9580 C   0  0  0  0  0  0  0  0  0  0  0  0
   45.7270   33.6000   44.0170 N   0  0  0  0  0  0  0  0  0  0  0  0
   44.7830   34.1240   40.6460 C   0  0  0  0  0  0  0  0  0  0  0  0
   46.1440   32.3950   41.6530 C   0  0  0  0  0  0  0  0  0  0  0  0
   47.1260   34.6120   41.0800 C   0  0  0  0  0  0  0  0  0  0  0  0
   48.4080   34.1860   41.6430 C   0  0  0  0  0  0  0  0  0  0  0  0
   49.1580   34.5880   42.6800 N   0  0  0  0  0  0  0  0  0  0  0  0
   50.2510   33.8570   42.7640 O   0  0  0  0  0  0  0  0  0  0  0  0
   50.2480   32.9750   41.8040 C   0  0  0  0  0  0  0  0  0  0  0  0
   49.1290   33.1550   41.1030 N   0  0  0  0  0  0  0  0  0  0  0  0
   51.2720   31.9700   41.5360 C   0  0  0  0  0  0  0  0  0  0  0  0
   51.1610   30.7910   41.9620 O   0  0  0  0  0  0  0  0  0  0  0  0
   52.4000   32.2950   40.7970 O   0  0  0  0  0  0  0  0  0  0  0  0
   45.5588   33.3406   46.0961 H   0  0  0  0  0  0  0  0  0  0  0  0
   44.4726   35.5936   46.4457 H   0  0  0  0  0  0  0  0  0  0  0  0
   44.0910   37.0582   44.4106 H   0  0  0  0  0  0  0  0  0  0  0  0
   43.8573   34.3098   41.2104 H   0  0  0  0  0  0  0  0  0  0  0  0
   45.0074   34.9950   40.0128 H   0  0  0  0  0  0  0  0  0  0  0  0
   44.6540   33.2338   40.0128 H   0  0  0  0  0  0  0  0  0  0  0  0
   46.1923   32.0579   42.6990 H   0  0  0  0  0  0  0  0  0  0  0  0
   45.3088   31.8918   41.1438 H   0  0  0  0  0  0  0  0  0  0  0  0
   47.0869   32.1468   41.1438 H   0  0  0  0  0  0  0  0  0  0  0  0
   47.1614   34.4521   39.9923 H   0  0  0  0  0  0  0  0  0  0  0  0
   47.0023   35.6676   41.3636 H   0  0  0  0  0  0  0  0  0  0  0  0
   53.0903   31.6079   40.6193 H   0  0  0  0  0  0  0  0  0  0  0  0
  1  9  1  0
  1  6  1  0
  2  3  2  0
  4  3  1  0
  5  4  2  0
  6  5  1  0
  6  7  2  0
  7  2  1  0
  8  1  1  0
 10  1  1  0
 10 11  1  0
 11 12  2  0
 12 13  1  0
 14 13  1  0
 15 11  1  0
 15 14  2  0
 16 14  1  0
 16 17  2  0
 18 16  1  0
  2 19  1  0
  3 20  1  0
  4 21  1  0
  8 22  1  0
  8 23  1  0
  8 24  1  0
  9 25  1  0
  9 26  1  0
  9 27  1  0
 10 28  1  0
 10 29  1  0
 18 30  1  0
M  ISO  8  19  14  20  14  21  14  22   8  23   8  24   8  25   8  26   8
M  ISO  4  27   8  28   8  29   8  30   3
M  END
>  <minimizedAffinity>  (1) 
-4.72604799

>  <minimizedRMSD>  (1) 
1.20553267

$$$$
