
     RDKit          3D

 34 36  0  0  0  0  0  0  0  0999 V2000
   47.9660   34.4780   41.3230 C   0  0  0  0  0  0  0  0  0  0  0  0
   48.8680   31.1490   42.5890 C   0  0  0  0  0  0  0  0  0  0  0  0
   50.2730   31.1960   42.6830 C   0  0  0  0  0  0  0  0  0  0  0  0
   50.9020   32.3870   42.3060 C   0  0  0  0  0  0  0  0  0  0  0  0
   50.1260   33.4440   41.8650 N   0  0  0  0  0  0  0  0  0  0  0  0
   48.7780   33.3160   41.8050 C   0  0  0  0  0  0  0  0  0  0  0  0
   48.1570   32.1880   42.1600 N   0  0  0  0  0  0  0  0  0  0  0  0
   48.8840   35.6350   41.0460 C   0  0  0  0  0  0  0  0  0  0  0  0
   47.0500   34.9330   42.4480 C   0  0  0  0  0  0  0  0  0  0  0  0
   47.2010   34.1710   40.0760 C   0  0  0  0  0  0  0  0  0  0  0  0
   48.0110   33.9040   38.9010 C   0  0  0  0  0  0  0  0  0  0  0  0
   48.3390   34.6400   37.8120 N   0  0  0  0  0  0  0  0  0  0  0  0
   49.1100   33.9440   37.0130 O   0  0  0  0  0  0  0  0  0  0  0  0
   49.3140   32.7530   37.5380 C   0  0  0  0  0  0  0  0  0  0  0  0
   48.6440   32.7220   38.6920 N   0  0  0  0  0  0  0  0  0  0  0  0
   50.1390   31.7200   36.8930 C   0  0  0  0  0  0  0  0  0  0  0  0
   49.5850   30.7450   36.0740 C   0  0  0  0  0  0  0  0  0  0  0  0
   50.6340   29.9750   35.6630 N   0  0  0  0  0  0  0  0  0  0  0  0
   51.7500   30.4800   36.2180 C   0  0  0  0  0  0  0  0  0  0  0  0
   51.4850   31.5540   36.9810 N   0  0  0  0  0  0  0  0  0  0  0  0
   48.3439   30.2263   42.8788 H   0  0  0  0  0  0  0  0  0  0  0  0
   50.8519   30.3309   43.0386 H   0  0  0  0  0  0  0  0  0  0  0  0
   51.9966   32.4818   42.3593 H   0  0  0  0  0  0  0  0  0  0  0  0
   49.2268   36.0671   41.9977 H   0  0  0  0  0  0  0  0  0  0  0  0
   49.7522   35.2842   40.4688 H   0  0  0  0  0  0  0  0  0  0  0  0
   48.3450   36.4007   40.4688 H   0  0  0  0  0  0  0  0  0  0  0  0
   47.5164   34.7014   43.4169 H   0  0  0  0  0  0  0  0  0  0  0  0
   46.8850   36.0178   42.3705 H   0  0  0  0  0  0  0  0  0  0  0  0
   46.0859   34.4090   42.3705 H   0  0  0  0  0  0  0  0  0  0  0  0
   46.5789   33.2845   40.2685 H   0  0  0  0  0  0  0  0  0  0  0  0
   46.6195   35.0758   39.8454 H   0  0  0  0  0  0  0  0  0  0  0  0
   48.5241   30.6197   35.8118 H   0  0  0  0  0  0  0  0  0  0  0  0
   52.7571   30.0645   36.0659 H   0  0  0  0  0  0  0  0  0  0  0  0
   52.1548   32.1258   37.5152 H   0  0  0  0  0  0  0  0  0  0  0  0
  1  6  1  0
  1  9  1  0
  2  3  2  0
  4  3  1  0
  5  4  2  0
  6  5  1  0
  6  7  2  0
  7  2  1  0
  8  1  1  0
 10  1  1  0
 11 10  1  0
 12 11  2  0
 13 14  1  0
 13 12  1  0
 14 15  2  0
 15 11  1  0
 16 20  1  0
 16 14  1  0
 17 16  2  0
 18 17  1  0
 18 19  2  0
 19 20  1  0
  2 21  1  0
  3 22  1  0
  4 23  1  0
  8 24  1  0
  8 25  1  0
  8 26  1  0
  9 27  1  0
  9 28  1  0
  9 29  1  0
 10 30  1  0
 10 31  1  0
 17 32  1  0
 19 33  1  0
 20 34  1  0
M  ISO  8  21  14  22  14  23  14  24   8  25   8  26   8  27   8  28   8
M  ISO  6  29   8  30   8  31   8  32  14  33  14  34   9
M  END
>  <minimizedAffinity>  (1) 
-4.52977133

>  <minimizedRMSD>  (1) 
5.46620083

$$$$
