
     RDKit          3D

 41 44  0  0  0  0  0  0  0  0999 V2000
   42.8350   31.0590   39.4740 C   0  0  0  0  0  0  0  0  0  0  0  0
   44.0060   31.9210   39.2730 C   0  0  0  0  0  0  0  0  0  0  0  0
   44.3930   32.7690   38.2950 N   0  0  0  0  0  0  0  0  0  0  0  0
   45.5450   33.3150   38.5880 O   0  0  0  0  0  0  0  0  0  0  0  0
   45.9450   32.8490   39.7540 C   0  0  0  0  0  0  0  0  0  0  0  0
   45.0130   31.9970   40.1810 N   0  0  0  0  0  0  0  0  0  0  0  0
   47.1710   33.2520   40.3550 N   0  0  0  0  0  0  0  0  0  0  0  0
   47.6390   34.5260   40.2460 C   0  0  0  0  0  0  0  0  0  0  0  0
   48.8200   34.5820   40.9260 N   0  0  0  0  0  0  0  0  0  0  0  0
   49.0950   33.3780   41.4520 C   0  0  0  0  0  0  0  0  0  0  0  0
   50.0850   32.7910   42.2130 C   0  0  0  0  0  0  0  0  0  0  0  0
   51.0570   33.5330   42.5630 O   0  0  0  0  0  0  0  0  0  0  0  0
   50.0550   31.4980   42.5870 N   0  0  0  0  0  0  0  0  0  0  0  0
   49.0180   30.7200   42.2100 C   0  0  0  0  0  0  0  0  0  0  0  0
   49.1140   29.3770   42.6720 N   0  0  0  0  0  0  0  0  0  0  0  0
   48.0040   31.2350   41.4560 N   0  0  0  0  0  0  0  0  0  0  0  0
   48.0430   32.5340   41.0870 C   0  0  0  0  0  0  0  0  0  0  0  0
   41.6900   31.6930   40.1850 C   0  0  0  0  0  0  0  0  0  0  0  0
   41.4360   35.3490   40.0750 C   0  0  0  0  0  0  0  0  0  0  0  0
   40.8530   35.6000   38.8170 C   0  0  0  0  0  0  0  0  0  0  0  0
   40.5460   34.5050   38.0040 C   0  0  0  0  0  0  0  0  0  0  0  0
   40.8340   33.2420   38.4830 N   0  0  0  0  0  0  0  0  0  0  0  0
   41.3950   33.0670   39.7030 C   0  0  0  0  0  0  0  0  0  0  0  0
   41.6880   34.1070   40.4790 N   0  0  0  0  0  0  0  0  0  0  0  0
   40.4650   30.8300   39.9670 C   0  0  0  0  0  0  0  0  0  0  0  0
   41.9270   31.7240   41.6840 C   0  0  0  0  0  0  0  0  0  0  0  0
   43.1544   30.1833   40.0581 H   0  0  0  0  0  0  0  0  0  0  0  0
   42.4664   30.8088   38.4683 H   0  0  0  0  0  0  0  0  0  0  0  0
   47.1549   35.3554   39.7096 H   0  0  0  0  0  0  0  0  0  0  0  0
   50.8178   31.1051   43.1567 H   0  0  0  0  0  0  0  0  0  0  0  0
   48.3744   28.6986   42.4404 H   0  0  0  0  0  0  0  0  0  0  0  0
   49.9231   29.0836   43.2379 H   0  0  0  0  0  0  0  0  0  0  0  0
   41.6867   36.1937   40.7335 H   0  0  0  0  0  0  0  0  0  0  0  0
   40.6455   36.6277   38.4843 H   0  0  0  0  0  0  0  0  0  0  0  0
   40.0891   34.6450   37.0132 H   0  0  0  0  0  0  0  0  0  0  0  0
   40.0463   30.5350   40.9405 H   0  0  0  0  0  0  0  0  0  0  0  0
   39.7121   31.3983   39.4011 H   0  0  0  0  0  0  0  0  0  0  0  0
   40.7467   29.9298   39.4011 H   0  0  0  0  0  0  0  0  0  0  0  0
   40.9687   31.5987   42.2094 H   0  0  0  0  0  0  0  0  0  0  0  0
   42.6085   30.9073   41.9644 H   0  0  0  0  0  0  0  0  0  0  0  0
   42.3755   32.6885   41.9644 H   0  0  0  0  0  0  0  0  0  0  0  0
  1 18  1  0
  2  1  1  0
  2  6  1  0
  3  4  1  0
  3  2  2  0
  4  5  1  0
  5  6  2  0
  5  7  1  0
  7 17  1  0
  8  7  1  0
  8  9  2  0
  9 10  1  0
 10 11  1  0
 11 12  2  0
 11 13  1  0
 14 13  1  0
 14 15  1  0
 16 14  2  0
 17 10  2  0
 17 16  1  0
 18 26  1  0
 19 24  2  0
 20 19  1  0
 21 22  1  0
 21 20  2  0
 22 23  2  0
 23 18  1  0
 23 24  1  0
 25 18  1  0
  1 27  1  0
  1 28  1  0
  8 29  1  0
 13 30  1  0
 15 31  1  0
 15 32  1  0
 19 33  1  0
 20 34  1  0
 21 35  1  0
 25 36  1  0
 25 37  1  0
 25 38  1  0
 26 39  1  0
 26 40  1  0
 26 41  1  0
M  ISO  8  27   8  28   8  29  14  30   9  33  14  34  14  35  14  36   8
M  ISO  5  37   8  38   8  39   8  40   8  41   8
M  END
>  <minimizedAffinity>  (1) 
-4.51724911

>  <minimizedRMSD>  (1) 
5.30264091

$$$$
