
     RDKit          3D

 34 36  0  0  0  0  0  0  0  0999 V2000
   45.8000   33.8490   41.5020 C   0  0  0  0  0  0  0  0  0  0  0  0
   45.3860   33.9240   45.1520 C   0  0  0  0  0  0  0  0  0  0  0  0
   44.8380   35.2040   45.3990 C   0  0  0  0  0  0  0  0  0  0  0  0
   44.6130   36.0430   44.2920 C   0  0  0  0  0  0  0  0  0  0  0  0
   44.9410   35.5600   43.0410 N   0  0  0  0  0  0  0  0  0  0  0  0
   45.4620   34.3260   42.8740 C   0  0  0  0  0  0  0  0  0  0  0  0
   45.6800   33.5200   43.9130 N   0  0  0  0  0  0  0  0  0  0  0  0
   44.6430   34.1600   40.5750 C   0  0  0  0  0  0  0  0  0  0  0  0
   45.9380   32.3480   41.5130 C   0  0  0  0  0  0  0  0  0  0  0  0
   47.0150   34.5150   40.9520 C   0  0  0  0  0  0  0  0  0  0  0  0
   48.2730   34.1720   41.6120 C   0  0  0  0  0  0  0  0  0  0  0  0
   49.0430   34.7770   42.5210 N   0  0  0  0  0  0  0  0  0  0  0  0
   50.1060   34.0430   42.8060 O   0  0  0  0  0  0  0  0  0  0  0  0
   50.0430   32.9590   42.0930 C   0  0  0  0  0  0  0  0  0  0  0  0
   48.9420   32.9990   41.3530 N   0  0  0  0  0  0  0  0  0  0  0  0
   50.9610   31.8130   42.0220 C   0  0  0  0  0  0  0  0  0  0  0  0
   51.3640   30.7890   42.8930 C   0  0  0  0  0  0  0  0  0  0  0  0
   52.2730   29.9330   42.3340 C   0  0  0  0  0  0  0  0  0  0  0  0
   52.7210   30.0630   41.1020 C   0  0  0  0  0  0  0  0  0  0  0  0
   51.8960   31.5360   40.3990 S   0  0  0  0  0  0  0  0  0  0  0  0
   45.5742   33.2466   45.9980 H   0  0  0  0  0  0  0  0  0  0  0  0
   44.5961   35.5323   46.4206 H   0  0  0  0  0  0  0  0  0  0  0  0
   44.1898   37.0503   44.4192 H   0  0  0  0  0  0  0  0  0  0  0  0
   43.7501   34.4000   41.1709 H   0  0  0  0  0  0  0  0  0  0  0  0
   44.9025   35.0203   39.9405 H   0  0  0  0  0  0  0  0  0  0  0  0
   44.4362   33.2855   39.9405 H   0  0  0  0  0  0  0  0  0  0  0  0
   45.9709   31.9904   42.5527 H   0  0  0  0  0  0  0  0  0  0  0  0
   45.0775   31.8969   40.9971 H   0  0  0  0  0  0  0  0  0  0  0  0
   46.8663   32.0613   40.9971 H   0  0  0  0  0  0  0  0  0  0  0  0
   47.1024   34.2382   39.8910 H   0  0  0  0  0  0  0  0  0  0  0  0
   46.8704   35.5927   41.1183 H   0  0  0  0  0  0  0  0  0  0  0  0
   50.9871   30.6852   43.9212 H   0  0  0  0  0  0  0  0  0  0  0  0
   52.6476   29.0964   42.9421 H   0  0  0  0  0  0  0  0  0  0  0  0
   53.4491   29.4126   40.5951 H   0  0  0  0  0  0  0  0  0  0  0  0
  1  9  1  0
  1  6  1  0
  2  3  2  0
  4  3  1  0
  5  4  2  0
  6  5  1  0
  6  7  2  0
  7  2  1  0
  8  1  1  0
 10  1  1  0
 10 11  1  0
 11 12  2  0
 12 13  1  0
 14 13  1  0
 15 11  1  0
 15 14  2  0
 16 14  1  0
 16 17  2  0
 18 17  1  0
 19 18  2  0
 20 19  1  0
 20 16  1  0
  2 21  1  0
  3 22  1  0
  4 23  1  0
  8 24  1  0
  8 25  1  0
  8 26  1  0
  9 27  1  0
  9 28  1  0
  9 29  1  0
 10 30  1  0
 10 31  1  0
 17 32  1  0
 18 33  1  0
 19 34  1  0
M  ISO  8  21  14  22  14  23  14  24   8  25   8  26   8  27   8  28   8
M  ISO  6  29   8  30   8  31   8  32  14  33  14  34  14
M  END
>  <minimizedAffinity>  (1) 
-4.51905918

>  <minimizedRMSD>  (1) 
1.3346293

$$$$
