
     RDKit          3D

 32 34  0  0  0  0  0  0  0  0999 V2000
   41.5930   32.2640   39.2490 C   0  0  0  0  0  0  0  0  0  0  0  0
   40.4720   34.8940   41.5550 C   0  0  0  0  0  0  0  0  0  0  0  0
   40.3380   36.0220   40.7190 C   0  0  0  0  0  0  0  0  0  0  0  0
   40.6360   35.8730   39.3500 C   0  0  0  0  0  0  0  0  0  0  0  0
   41.0370   34.6400   38.9230 N   0  0  0  0  0  0  0  0  0  0  0  0
   41.1490   33.5890   39.7690 C   0  0  0  0  0  0  0  0  0  0  0  0
   40.8720   33.7200   41.0540 N   0  0  0  0  0  0  0  0  0  0  0  0
   40.3940   31.5600   38.6270 C   0  0  0  0  0  0  0  0  0  0  0  0
   42.0410   31.3930   40.4020 C   0  0  0  0  0  0  0  0  0  0  0  0
   42.6470   32.3690   38.2020 C   0  0  0  0  0  0  0  0  0  0  0  0
   44.0230   32.3630   38.6990 C   0  0  0  0  0  0  0  0  0  0  0  0
   45.0070   31.4330   38.7520 N   0  0  0  0  0  0  0  0  0  0  0  0
   46.0800   31.9370   39.3080 O   0  0  0  0  0  0  0  0  0  0  0  0
   45.8500   33.1820   39.6330 C   0  0  0  0  0  0  0  0  0  0  0  0
   44.5830   33.4740   39.2670 N   0  0  0  0  0  0  0  0  0  0  0  0
   46.8490   34.0330   40.2750 C   0  0  0  0  0  0  0  0  0  0  0  0
   48.0280   34.5440   39.8760 N   0  0  0  0  0  0  0  0  0  0  0  0
   48.5560   35.2540   40.8290 O   0  0  0  0  0  0  0  0  0  0  0  0
   47.7590   35.2360   41.8720 C   0  0  0  0  0  0  0  0  0  0  0  0
   46.6720   34.4750   41.5570 N   0  0  0  0  0  0  0  0  0  0  0  0
   40.2457   34.9804   42.6280 H   0  0  0  0  0  0  0  0  0  0  0  0
   40.0101   36.9906   41.1243 H   0  0  0  0  0  0  0  0  0  0  0  0
   40.5488   36.7184   38.6516 H   0  0  0  0  0  0  0  0  0  0  0  0
   39.7402   31.1761   39.4240 H   0  0  0  0  0  0  0  0  0  0  0  0
   39.8332   32.2723   38.0039 H   0  0  0  0  0  0  0  0  0  0  0  0
   40.7427   30.7232   38.0039 H   0  0  0  0  0  0  0  0  0  0  0  0
   41.7881   31.8848   41.3529 H   0  0  0  0  0  0  0  0  0  0  0  0
   41.5317   30.4197   40.3457 H   0  0  0  0  0  0  0  0  0  0  0  0
   43.1290   31.2413   40.3457 H   0  0  0  0  0  0  0  0  0  0  0  0
   42.4880   33.3085   37.6524 H   0  0  0  0  0  0  0  0  0  0  0  0
   42.5452   31.4703   37.5759 H   0  0  0  0  0  0  0  0  0  0  0  0
   47.9366   35.7449   42.8309 H   0  0  0  0  0  0  0  0  0  0  0  0
  1  6  1  0
  1  9  1  0
  3  2  2  0
  4  3  1  0
  5  4  2  0
  5  6  1  0
  6  7  2  0
  7  2  1  0
  8  1  1  0
 10 11  1  0
 10  1  1  0
 11 12  2  0
 11 15  1  0
 12 13  1  0
 13 14  1  0
 14 16  1  0
 15 14  2  0
 16 20  1  0
 17 16  2  0
 17 18  1  0
 18 19  1  0
 20 19  2  0
  2 21  1  0
  3 22  1  0
  4 23  1  0
  8 24  1  0
  8 25  1  0
  8 26  1  0
  9 27  1  0
  9 28  1  0
  9 29  1  0
 10 30  1  0
 10 31  1  0
 19 32  1  0
M  ISO  8  21  14  22  14  23  14  24   8  25   8  26   8  27   8  28   8
M  ISO  4  29   8  30   8  31   8  32  14
M  END
>  <minimizedAffinity>  (1) 
-4.18411064

>  <minimizedRMSD>  (1) 
5.59993267

$$$$
