
     RDKit          3D

 28 30  0  0  0  0  0  0  0  0999 V2000
   45.8700   34.3960   41.8130 N   0  0  0  0  0  0  0  0  0  0  0  0
   45.2630   34.0590   40.6820 C   0  0  0  0  0  0  0  0  0  0  0  0
   46.1320   33.8690   39.6950 N   0  0  0  0  0  0  0  0  0  0  0  0
   47.3520   34.1020   40.2470 C   0  0  0  0  0  0  0  0  0  0  0  0
   47.1880   34.4280   41.5580 N   0  0  0  0  0  0  0  0  0  0  0  0
   48.6620   34.0560   39.6380 N   0  0  0  0  0  0  0  0  0  0  0  0
   44.4800   36.0740   44.8420 C   0  0  0  0  0  0  0  0  0  0  0  0
   44.8250   35.8860   43.5100 C   0  0  0  0  0  0  0  0  0  0  0  0
   45.4630   34.7100   43.1470 C   0  0  0  0  0  0  0  0  0  0  0  0
   45.7330   33.7650   44.1210 N   0  0  0  0  0  0  0  0  0  0  0  0
   45.3680   34.0080   45.4180 C   0  0  0  0  0  0  0  0  0  0  0  0
   44.7580   35.1340   45.7630 N   0  0  0  0  0  0  0  0  0  0  0  0
   43.7990   33.9510   40.6830 C   0  0  0  0  0  0  0  0  0  0  0  0
   43.0400   32.8710   41.0790 C   0  0  0  0  0  0  0  0  0  0  0  0
   41.6660   32.9410   41.0130 C   0  0  0  0  0  0  0  0  0  0  0  0
   41.0240   34.0580   40.5620 C   0  0  0  0  0  0  0  0  0  0  0  0
   41.7770   35.1370   40.1660 C   0  0  0  0  0  0  0  0  0  0  0  0
   43.1450   35.0990   40.2190 C   0  0  0  0  0  0  0  0  0  0  0  0
   49.4994   34.2614   40.2015 H   0  0  0  0  0  0  0  0  0  0  0  0
   48.7582   33.8178   38.6405 H   0  0  0  0  0  0  0  0  0  0  0  0
   43.9739   37.0017   45.1472 H   0  0  0  0  0  0  0  0  0  0  0  0
   44.5965   36.6552   42.7576 H   0  0  0  0  0  0  0  0  0  0  0  0
   45.5850   33.2543   46.1893 H   0  0  0  0  0  0  0  0  0  0  0  0
   43.5294   31.9569   41.4462 H   0  0  0  0  0  0  0  0  0  0  0  0
   41.0700   32.0734   41.3323 H   0  0  0  0  0  0  0  0  0  0  0  0
   39.9255   34.0937   40.5165 H   0  0  0  0  0  0  0  0  0  0  0  0
   41.2737   36.0445   39.8011 H   0  0  0  0  0  0  0  0  0  0  0  0
   43.7312   35.9721   39.8964 H   0  0  0  0  0  0  0  0  0  0  0  0
  1  9  1  0
  2 13  1  0
  2  1  1  0
  3  4  1  0
  3  2  2  0
  4  5  2  0
  5  1  1  0
  6  4  1  0
  7 12  2  0
  8  7  1  0
  9  8  2  0
  9 10  1  0
 10 11  2  0
 11 12  1  0
 13 14  2  0
 15 14  1  0
 16 15  2  0
 17 18  2  0
 17 16  1  0
 18 13  1  0
  6 19  1  0
  6 20  1  0
  7 21  1  0
  8 22  1  0
 11 23  1  0
 14 24  1  0
 15 25  1  0
 16 26  1  0
 17 27  1  0
 18 28  1  0
M  ISO  8  21  14  22  14  23  14  24  14  25  14  26  14  27  14  28  14
M  END
>  <minimizedAffinity>  (1) 
-5.13999987

>  <minimizedRMSD>  (1) 
1.3190788

$$$$
