
     RDKit          3D

 28 29  0  0  0  0  0  0  0  0999 V2000
   45.8270   33.6980   41.3340 C   0  0  0  0  0  0  0  0  0  0  0  0
   45.3350   34.0710   44.9510 C   0  0  0  0  0  0  0  0  0  0  0  0
   44.8480   35.3860   45.0860 C   0  0  0  0  0  0  0  0  0  0  0  0
   44.6900   36.1440   43.9190 C   0  0  0  0  0  0  0  0  0  0  0  0
   45.0180   35.5630   42.7190 N   0  0  0  0  0  0  0  0  0  0  0  0
   45.4820   34.2940   42.6520 C   0  0  0  0  0  0  0  0  0  0  0  0
   45.6380   33.5590   43.7600 N   0  0  0  0  0  0  0  0  0  0  0  0
   44.6130   33.7820   40.4340 C   0  0  0  0  0  0  0  0  0  0  0  0
   46.1250   32.2340   41.4970 C   0  0  0  0  0  0  0  0  0  0  0  0
   46.9500   34.4150   40.6410 C   0  0  0  0  0  0  0  0  0  0  0  0
   48.1780   34.5460   41.4280 C   0  0  0  0  0  0  0  0  0  0  0  0
   48.6740   35.5170   42.2240 N   0  0  0  0  0  0  0  0  0  0  0  0
   49.8350   35.1430   42.7090 O   0  0  0  0  0  0  0  0  0  0  0  0
   50.1280   33.9410   42.2550 C   0  0  0  0  0  0  0  0  0  0  0  0
   49.1140   33.5680   41.4670 N   0  0  0  0  0  0  0  0  0  0  0  0
   51.3350   33.4010   42.6780 O   0  0  0  0  0  0  0  0  0  0  0  0
   45.4681   33.4526   45.8509 H   0  0  0  0  0  0  0  0  0  0  0  0
   44.6005   35.8028   46.0734 H   0  0  0  0  0  0  0  0  0  0  0  0
   44.3134   37.1766   43.9626 H   0  0  0  0  0  0  0  0  0  0  0  0
   43.7037   33.8449   41.0498 H   0  0  0  0  0  0  0  0  0  0  0  0
   44.6885   34.6771   39.7991 H   0  0  0  0  0  0  0  0  0  0  0  0
   44.5645   32.8851   39.7991 H   0  0  0  0  0  0  0  0  0  0  0  0
   46.1753   31.9870   42.5677 H   0  0  0  0  0  0  0  0  0  0  0  0
   45.3288   31.6426   41.0213 H   0  0  0  0  0  0  0  0  0  0  0  0
   47.0890   32.0009   41.0213 H   0  0  0  0  0  0  0  0  0  0  0  0
   47.1914   33.8628   39.7208 H   0  0  0  0  0  0  0  0  0  0  0  0
   46.5931   35.4386   40.4543 H   0  0  0  0  0  0  0  0  0  0  0  0
   51.6096   32.5010   42.3702 H   0  0  0  0  0  0  0  0  0  0  0  0
  1  9  1  0
  1  6  1  0
  2  3  2  0
  4  3  1  0
  5  4  2  0
  6  5  1  0
  6  7  2  0
  7  2  1  0
  8  1  1  0
 10  1  1  0
 10 11  1  0
 11 15  1  0
 11 12  2  0
 12 13  1  0
 14 16  1  0
 14 13  1  0
 15 14  2  0
  2 17  1  0
  3 18  1  0
  4 19  1  0
  8 20  1  0
  8 21  1  0
  8 22  1  0
  9 23  1  0
  9 24  1  0
  9 25  1  0
 10 26  1  0
 10 27  1  0
 16 28  1  0
M  ISO  8  17  14  18  14  19  14  20   8  21   8  22   8  23   8  24   8
M  ISO  4  25   8  26   8  27   8  28   3
M  END
>  <minimizedAffinity>  (1) 
-4.6363678

>  <minimizedRMSD>  (1) 
0.292263836

$$$$
