
     RDKit          3D

 34 36  0  0  0  0  0  0  0  0999 V2000
   46.5390   34.0290   41.9580 C   0  0  0  0  0  0  0  0  0  0  0  0
   45.3670   34.1430   45.4290 C   0  0  0  0  0  0  0  0  0  0  0  0
   44.6710   35.3610   45.5050 C   0  0  0  0  0  0  0  0  0  0  0  0
   44.6040   36.1460   44.3550 C   0  0  0  0  0  0  0  0  0  0  0  0
   45.2240   35.6820   43.2190 N   0  0  0  0  0  0  0  0  0  0  0  0
   45.8840   34.4910   43.2060 C   0  0  0  0  0  0  0  0  0  0  0  0
   45.9500   33.7400   44.3020 N   0  0  0  0  0  0  0  0  0  0  0  0
   45.5860   34.2410   40.7960 C   0  0  0  0  0  0  0  0  0  0  0  0
   46.7980   32.5520   42.0340 C   0  0  0  0  0  0  0  0  0  0  0  0
   47.7970   34.7970   41.6360 C   0  0  0  0  0  0  0  0  0  0  0  0
   49.0330   34.0410   41.8000 C   0  0  0  0  0  0  0  0  0  0  0  0
   50.1230   34.1930   42.5640 N   0  0  0  0  0  0  0  0  0  0  0  0
   50.9830   33.2240   42.3450 O   0  0  0  0  0  0  0  0  0  0  0  0
   50.4790   32.4080   41.4280 C   0  0  0  0  0  0  0  0  0  0  0  0
   49.2970   32.9200   41.1100 N   0  0  0  0  0  0  0  0  0  0  0  0
   51.2740   31.3330   41.0890 O   0  0  0  0  0  0  0  0  0  0  0  0
   52.0800   31.3400   39.9380 C   0  0  0  0  0  0  0  0  0  0  0  0
   53.4870   31.1000   39.8990 C   0  0  0  0  0  0  0  0  0  0  0  0
   53.7600   31.2900   38.0510 S   0  0  0  0  0  0  0  0  0  0  0  0
   51.9390   31.6500   37.7320 C   0  0  0  0  0  0  0  0  0  0  0  0
   51.3550   31.6090   38.8420 N   0  0  0  0  0  0  0  0  0  0  0  0
   45.4319   33.5061   46.3235 H   0  0  0  0  0  0  0  0  0  0  0  0
   44.1942   35.6848   46.4419 H   0  0  0  0  0  0  0  0  0  0  0  0
   44.0709   37.1082   44.3564 H   0  0  0  0  0  0  0  0  0  0  0  0
   44.5807   34.4646   41.1824 H   0  0  0  0  0  0  0  0  0  0  0  0
   45.9383   35.0827   40.1817 H   0  0  0  0  0  0  0  0  0  0  0  0
   45.5483   33.3293   40.1817 H   0  0  0  0  0  0  0  0  0  0  0  0
   46.8522   32.2430   43.0883 H   0  0  0  0  0  0  0  0  0  0  0  0
   45.9811   32.0103   41.5347 H   0  0  0  0  0  0  0  0  0  0  0  0
   47.7504   32.3206   41.5347 H   0  0  0  0  0  0  0  0  0  0  0  0
   47.8417   35.6740   42.2984 H   0  0  0  0  0  0  0  0  0  0  0  0
   47.7345   35.0614   40.5701 H   0  0  0  0  0  0  0  0  0  0  0  0
   54.1970   30.8724   40.7078 H   0  0  0  0  0  0  0  0  0  0  0  0
   51.4748   31.8572   36.7565 H   0  0  0  0  0  0  0  0  0  0  0  0
  1  9  1  0
  1  6  1  0
  2  3  2  0
  4  3  1  0
  5  4  2  0
  6  5  1  0
  6  7  2  0
  7  2  1  0
  8  1  1  0
 10 11  1  0
 10  1  1  0
 11 12  2  0
 13 12  1  0
 14 13  1  0
 15 14  2  0
 15 11  1  0
 16 14  1  0
 17 16  1  0
 18 17  2  0
 19 18  1  0
 20 19  1  0
 20 21  2  0
 21 17  1  0
  2 22  1  0
  3 23  1  0
  4 24  1  0
  8 25  1  0
  8 26  1  0
  8 27  1  0
  9 28  1  0
  9 29  1  0
  9 30  1  0
 10 31  1  0
 10 32  1  0
 18 33  1  0
 20 34  1  0
M  ISO  8  22  14  23  14  24  14  25   8  26   8  27   8  28   8  29   8
M  ISO  5  30   8  31   8  32   8  33  14  34  14
M  END
>  <minimizedAffinity>  (1) 
-5.08470201

>  <minimizedRMSD>  (1) 
1.91916084

$$$$
