
     RDKit          3D

 35 37  0  0  0  0  0  0  0  0999 V2000
   46.5280   34.0210   41.8890 C   0  0  0  0  0  0  0  0  0  0  0  0
   45.4010   34.0950   45.3680 C   0  0  0  0  0  0  0  0  0  0  0  0
   44.7060   35.3250   45.4600 C   0  0  0  0  0  0  0  0  0  0  0  0
   44.6290   36.1260   44.3080 C   0  0  0  0  0  0  0  0  0  0  0  0
   45.2340   35.6640   43.1760 N   0  0  0  0  0  0  0  0  0  0  0  0
   45.8860   34.4900   43.1320 C   0  0  0  0  0  0  0  0  0  0  0  0
   45.9680   33.7100   44.2250 N   0  0  0  0  0  0  0  0  0  0  0  0
   45.5630   34.1990   40.7410 C   0  0  0  0  0  0  0  0  0  0  0  0
   46.8130   32.5440   41.9530 C   0  0  0  0  0  0  0  0  0  0  0  0
   47.7750   34.8010   41.5360 C   0  0  0  0  0  0  0  0  0  0  0  0
   49.0260   34.0900   41.7940 C   0  0  0  0  0  0  0  0  0  0  0  0
   50.0510   34.2880   42.6530 N   0  0  0  0  0  0  0  0  0  0  0  0
   50.9540   33.3570   42.4910 O   0  0  0  0  0  0  0  0  0  0  0  0
   50.5600   32.5350   41.5430 C   0  0  0  0  0  0  0  0  0  0  0  0
   49.3840   32.9800   41.1170 N   0  0  0  0  0  0  0  0  0  0  0  0
   51.4340   31.4820   41.2620 O   0  0  0  0  0  0  0  0  0  0  0  0
   52.3780   31.5850   37.8340 N   0  0  0  0  0  0  0  0  0  0  0  0
   51.4430   31.6930   38.7690 N   0  0  0  0  0  0  0  0  0  0  0  0
   51.9900   31.4790   39.9880 C   0  0  0  0  0  0  0  0  0  0  0  0
   53.3270   31.2300   39.7580 C   0  0  0  0  0  0  0  0  0  0  0  0
   53.5930   31.2940   38.3860 C   0  0  0  0  0  0  0  0  0  0  0  0
   45.4742   33.4469   46.2538 H   0  0  0  0  0  0  0  0  0  0  0  0
   44.2406   35.6439   46.4043 H   0  0  0  0  0  0  0  0  0  0  0  0
   44.1001   37.0905   44.3186 H   0  0  0  0  0  0  0  0  0  0  0  0
   44.5535   34.3852   41.1361 H   0  0  0  0  0  0  0  0  0  0  0  0
   45.8793   35.0540   40.1254 H   0  0  0  0  0  0  0  0  0  0  0  0
   45.5534   33.2875   40.1254 H   0  0  0  0  0  0  0  0  0  0  0  0
   46.8741   32.2276   43.0047 H   0  0  0  0  0  0  0  0  0  0  0  0
   46.0047   31.9925   41.4505 H   0  0  0  0  0  0  0  0  0  0  0  0
   47.7685   32.3328   41.4505 H   0  0  0  0  0  0  0  0  0  0  0  0
   47.7788   35.7291   42.1265 H   0  0  0  0  0  0  0  0  0  0  0  0
   47.7351   34.9823   40.4518 H   0  0  0  0  0  0  0  0  0  0  0  0
   52.2098   31.7048   36.8249 H   0  0  0  0  0  0  0  0  0  0  0  0
   54.0728   31.0134   40.5370 H   0  0  0  0  0  0  0  0  0  0  0  0
   54.5544   31.1450   37.8726 H   0  0  0  0  0  0  0  0  0  0  0  0
  1  9  1  0
  1  6  1  0
  2  3  2  0
  4  3  1  0
  5  4  2  0
  6  5  1  0
  6  7  2  0
  7  2  1  0
  8  1  1  0
 10 11  1  0
 10  1  1  0
 11 12  2  0
 13 12  1  0
 14 13  1  0
 15 14  2  0
 15 11  1  0
 16 14  1  0
 17 21  1  0
 17 18  1  0
 18 19  2  0
 19 16  1  0
 20 19  1  0
 21 20  2  0
  2 22  1  0
  3 23  1  0
  4 24  1  0
  8 25  1  0
  8 26  1  0
  8 27  1  0
  9 28  1  0
  9 29  1  0
  9 30  1  0
 10 31  1  0
 10 32  1  0
 17 33  1  0
 20 34  1  0
 21 35  1  0
M  ISO  8  22  14  23  14  24  14  25   8  26   8  27   8  28   8  29   8
M  ISO  6  30   8  31   8  32   8  33   9  34  14  35  14
M  END
>  <minimizedAffinity>  (1) 
-5.12440348

>  <minimizedRMSD>  (1) 
1.85431755

$$$$
