
     RDKit          3D

 41 43  0  0  0  0  0  0  0  0999 V2000
   45.6260   33.7980   41.6200 C   0  0  0  0  0  0  0  0  0  0  0  0
   45.3510   33.9400   45.2720 C   0  0  0  0  0  0  0  0  0  0  0  0
   44.7800   35.2080   45.5070 C   0  0  0  0  0  0  0  0  0  0  0  0
   44.4940   36.0050   44.4020 C   0  0  0  0  0  0  0  0  0  0  0  0
   44.7860   35.5060   43.1610 N   0  0  0  0  0  0  0  0  0  0  0  0
   45.3330   34.2850   42.9850 C   0  0  0  0  0  0  0  0  0  0  0  0
   45.6100   33.5140   44.0430 N   0  0  0  0  0  0  0  0  0  0  0  0
   44.4060   34.0150   40.7540 C   0  0  0  0  0  0  0  0  0  0  0  0
   45.8550   32.3060   41.6600 C   0  0  0  0  0  0  0  0  0  0  0  0
   46.7750   34.5050   40.9800 C   0  0  0  0  0  0  0  0  0  0  0  0
   48.0740   34.2990   41.6180 C   0  0  0  0  0  0  0  0  0  0  0  0
   48.6600   34.8160   42.7170 N   0  0  0  0  0  0  0  0  0  0  0  0
   49.8570   34.3060   42.8820 O   0  0  0  0  0  0  0  0  0  0  0  0
   50.0780   33.4480   41.8970 C   0  0  0  0  0  0  0  0  0  0  0  0
   48.9920   33.4440   41.1300 N   0  0  0  0  0  0  0  0  0  0  0  0
   51.3230   32.8180   41.9360 O   0  0  0  0  0  0  0  0  0  0  0  0
   51.3690   31.5490   41.2760 C   0  0  0  0  0  0  0  0  0  0  0  0
   52.4510   31.5040   40.2380 C   0  0  0  0  0  0  0  0  0  0  0  0
   53.3730   30.3490   40.6420 C   0  0  0  0  0  0  0  0  0  0  0  0
   52.3540   29.4290   41.3260 C   0  0  0  0  0  0  0  0  0  0  0  0
   51.6530   30.4300   42.2220 C   0  0  0  0  0  0  0  0  0  0  0  0
   45.5868   33.2897   46.1273 H   0  0  0  0  0  0  0  0  0  0  0  0
   44.5678   35.5555   46.5289 H   0  0  0  0  0  0  0  0  0  0  0  0
   44.0479   37.0033   44.5221 H   0  0  0  0  0  0  0  0  0  0  0  0
   43.5252   34.1717   41.3940 H   0  0  0  0  0  0  0  0  0  0  0  0
   44.5598   34.8999   40.1189 H   0  0  0  0  0  0  0  0  0  0  0  0
   44.2453   33.1313   40.1189 H   0  0  0  0  0  0  0  0  0  0  0  0
   45.9064   31.9709   42.7064 H   0  0  0  0  0  0  0  0  0  0  0  0
   45.0249   31.7939   41.1513 H   0  0  0  0  0  0  0  0  0  0  0  0
   46.8004   32.0664   41.1513 H   0  0  0  0  0  0  0  0  0  0  0  0
   46.5586   35.5834   40.9919 H   0  0  0  0  0  0  0  0  0  0  0  0
   46.8646   34.0823   39.9684 H   0  0  0  0  0  0  0  0  0  0  0  0
   50.3751   31.4281   40.8205 H   0  0  0  0  0  0  0  0  0  0  0  0
   53.0086   32.4521   40.2252 H   0  0  0  0  0  0  0  0  0  0  0  0
   52.0372   31.3565   39.2295 H   0  0  0  0  0  0  0  0  0  0  0  0
   53.8349   29.8688   39.7667 H   0  0  0  0  0  0  0  0  0  0  0  0
   54.2328   30.6360   41.2652 H   0  0  0  0  0  0  0  0  0  0  0  0
   51.6620   28.9761   40.6007 H   0  0  0  0  0  0  0  0  0  0  0  0
   52.7891   28.5649   41.8494 H   0  0  0  0  0  0  0  0  0  0  0  0
   52.3071   30.7576   43.0435 H   0  0  0  0  0  0  0  0  0  0  0  0
   50.7559   30.0296   42.7169 H   0  0  0  0  0  0  0  0  0  0  0  0
  1  9  1  0
  1  6  1  0
  2  3  2  0
  4  3  1  0
  5  4  2  0
  6  5  1  0
  6  7  2  0
  7  2  1  0
  8  1  1  0
 10 11  1  0
 10  1  1  0
 11 12  2  0
 12 13  1  0
 14 16  1  0
 14 13  1  0
 15 11  1  0
 15 14  2  0
 17 16  1  0
 17 21  1  0
 18 19  1  0
 18 17  1  0
 19 20  1  0
 20 21  1  0
  2 22  1  0
  3 23  1  0
  4 24  1  0
  8 25  1  0
  8 26  1  0
  8 27  1  0
  9 28  1  0
  9 29  1  0
  9 30  1  0
 10 31  1  0
 10 32  1  0
 17 33  1  0
 18 34  1  0
 18 35  1  0
 19 36  1  0
 19 37  1  0
 20 38  1  0
 20 39  1  0
 21 40  1  0
 21 41  1  0
M  ISO  8  22  14  23  14  24  14  25   8  26   8  27   8  28   8  29   8
M  ISO  8  30   8  31   8  32   8  33  13  34  13  35  13  36  13  37  13
M  ISO  4  38  13  39  13  40  13  41  13
M  END
>  <minimizedAffinity>  (1) 
-4.51145315

>  <minimizedRMSD>  (1) 
0.896064162

$$$$
