
     RDKit          3D

 35 37  0  0  0  0  0  0  0  0999 V2000
   45.7310   33.9100   41.6420 C   0  0  0  0  0  0  0  0  0  0  0  0
   45.3620   33.9640   45.2860 C   0  0  0  0  0  0  0  0  0  0  0  0
   44.7660   35.2030   45.5410 C   0  0  0  0  0  0  0  0  0  0  0  0
   44.4890   36.0270   44.4560 C   0  0  0  0  0  0  0  0  0  0  0  0
   44.8140   35.5810   43.1970 N   0  0  0  0  0  0  0  0  0  0  0  0
   45.3900   34.3720   43.0040 C   0  0  0  0  0  0  0  0  0  0  0  0
   45.6570   33.5770   44.0470 N   0  0  0  0  0  0  0  0  0  0  0  0
   44.5490   34.1970   40.7310 C   0  0  0  0  0  0  0  0  0  0  0  0
   45.9180   32.4190   41.6330 C   0  0  0  0  0  0  0  0  0  0  0  0
   46.9120   34.6100   41.0570 C   0  0  0  0  0  0  0  0  0  0  0  0
   48.2030   34.2430   41.6500 C   0  0  0  0  0  0  0  0  0  0  0  0
   48.8650   34.6010   42.7820 N   0  0  0  0  0  0  0  0  0  0  0  0
   50.0110   33.9680   42.8380 O   0  0  0  0  0  0  0  0  0  0  0  0
   50.1300   33.2020   41.7810 C   0  0  0  0  0  0  0  0  0  0  0  0
   49.0290   33.3540   41.0360 N   0  0  0  0  0  0  0  0  0  0  0  0
   51.3050   32.4560   41.6890 O   0  0  0  0  0  0  0  0  0  0  0  0
   51.5180   31.5100   40.6950 C   0  0  0  0  0  0  0  0  0  0  0  0
   52.7840   31.4300   40.1030 C   0  0  0  0  0  0  0  0  0  0  0  0
   52.6990   30.4040   39.1550 C   0  0  0  0  0  0  0  0  0  0  0  0
   51.4310   29.9110   39.1980 N   0  0  0  0  0  0  0  0  0  0  0  0
   50.7150   30.5670   40.1200 N   0  0  0  0  0  0  0  0  0  0  0  0
   45.5921   33.2944   46.1278 H   0  0  0  0  0  0  0  0  0  0  0  0
   44.5240   35.5158   46.5675 H   0  0  0  0  0  0  0  0  0  0  0  0
   44.0212   37.0119   44.6015 H   0  0  0  0  0  0  0  0  0  0  0  0
   43.6597   34.4129   41.3413 H   0  0  0  0  0  0  0  0  0  0  0  0
   44.7778   35.0657   40.0962 H   0  0  0  0  0  0  0  0  0  0  0  0
   44.3540   33.3201   40.0962 H   0  0  0  0  0  0  0  0  0  0  0  0
   45.9644   32.0490   42.6679 H   0  0  0  0  0  0  0  0  0  0  0  0
   45.0721   31.9465   41.1123 H   0  0  0  0  0  0  0  0  0  0  0  0
   46.8544   32.1700   41.1123 H   0  0  0  0  0  0  0  0  0  0  0  0
   46.9504   34.3762   39.9828 H   0  0  0  0  0  0  0  0  0  0  0  0
   46.7702   35.6809   41.2643 H   0  0  0  0  0  0  0  0  0  0  0  0
   53.6647   32.0468   40.3352 H   0  0  0  0  0  0  0  0  0  0  0  0
   53.5090   30.0590   38.4956 H   0  0  0  0  0  0  0  0  0  0  0  0
   51.0746   29.1457   38.6080 H   0  0  0  0  0  0  0  0  0  0  0  0
  1  6  1  0
  2  3  2  0
  4  3  1  0
  5  4  2  0
  6  5  1  0
  6  7  2  0
  7  2  1  0
  8  1  1  0
  9  1  1  0
 10  1  1  0
 10 11  1  0
 11 12  2  0
 12 13  1  0
 14 13  1  0
 15 11  1  0
 15 14  2  0
 16 14  1  0
 17 16  1  0
 18 17  1  0
 19 20  1  0
 19 18  2  0
 20 21  1  0
 21 17  2  0
  2 22  1  0
  3 23  1  0
  4 24  1  0
  8 25  1  0
  8 26  1  0
  8 27  1  0
  9 28  1  0
  9 29  1  0
  9 30  1  0
 10 31  1  0
 10 32  1  0
 18 33  1  0
 19 34  1  0
 20 35  1  0
M  ISO  8  22  14  23  14  24  14  25   8  26   8  27   8  28   8  29   8
M  ISO  6  30   8  31   8  32   8  33  14  34  14  35   9
M  END
>  <minimizedAffinity>  (1) 
-4.4786911

>  <minimizedRMSD>  (1) 
1.21419644

$$$$
