
     RDKit          3D

 42 45  0  0  0  0  0  0  0  0999 V2000
   47.6020   34.7950   41.4630 C   0  0  0  0  0  0  0  0  0  0  0  0
   48.8870   34.1850   41.7920 C   0  0  0  0  0  0  0  0  0  0  0  0
   49.8280   34.4410   42.7290 N   0  0  0  0  0  0  0  0  0  0  0  0
   50.8190   33.5860   42.6020 O   0  0  0  0  0  0  0  0  0  0  0  0
   50.5580   32.7750   41.6070 C   0  0  0  0  0  0  0  0  0  0  0  0
   49.3820   33.1250   41.0990 N   0  0  0  0  0  0  0  0  0  0  0  0
   51.5110   31.7970   41.3270 O   0  0  0  0  0  0  0  0  0  0  0  0
   51.9040   31.4730   40.0320 C   0  0  0  0  0  0  0  0  0  0  0  0
   53.2720   31.2410   39.8010 C   0  0  0  0  0  0  0  0  0  0  0  0
   53.3540   30.9440   38.4300 C   0  0  0  0  0  0  0  0  0  0  0  0
   52.1040   31.0030   37.9080 N   0  0  0  0  0  0  0  0  0  0  0  0
   51.2150   31.3220   38.8600 N   0  0  0  0  0  0  0  0  0  0  0  0
   51.8090   30.7580   36.5370 C   0  0  0  0  0  0  0  0  0  0  0  0
   52.5070   29.9230   35.6870 C   0  0  0  0  0  0  0  0  0  0  0  0
   51.8750   29.9970   34.4850 N   0  0  0  0  0  0  0  0  0  0  0  0
   50.8360   30.8440   34.6060 C   0  0  0  0  0  0  0  0  0  0  0  0
   50.7710   31.3350   35.8780 N   0  0  0  0  0  0  0  0  0  0  0  0
   46.3960   34.0170   41.8660 C   0  0  0  0  0  0  0  0  0  0  0  0
   45.3530   34.1120   45.3840 C   0  0  0  0  0  0  0  0  0  0  0  0
   44.6950   35.3300   45.4990 C   0  0  0  0  0  0  0  0  0  0  0  0
   44.6020   36.1300   44.3750 C   0  0  0  0  0  0  0  0  0  0  0  0
   45.1650   35.6780   43.2060 N   0  0  0  0  0  0  0  0  0  0  0  0
   45.7960   34.4900   43.1310 C   0  0  0  0  0  0  0  0  0  0  0  0
   45.8850   33.7130   44.2280 N   0  0  0  0  0  0  0  0  0  0  0  0
   45.3710   34.1800   40.7660 C   0  0  0  0  0  0  0  0  0  0  0  0
   46.6990   32.5530   41.9540 C   0  0  0  0  0  0  0  0  0  0  0  0
   47.5549   35.7742   41.9619 H   0  0  0  0  0  0  0  0  0  0  0  0
   47.5692   34.8523   40.3650 H   0  0  0  0  0  0  0  0  0  0  0  0
   54.0941   31.2827   40.5307 H   0  0  0  0  0  0  0  0  0  0  0  0
   54.2736   30.7049   37.8758 H   0  0  0  0  0  0  0  0  0  0  0  0
   53.3940   29.3204   35.9323 H   0  0  0  0  0  0  0  0  0  0  0  0
   50.1389   31.1035   33.7957 H   0  0  0  0  0  0  0  0  0  0  0  0
   50.0823   32.0006   36.2569 H   0  0  0  0  0  0  0  0  0  0  0  0
   45.4372   33.4615   46.2670 H   0  0  0  0  0  0  0  0  0  0  0  0
   44.2600   35.6492   46.4576 H   0  0  0  0  0  0  0  0  0  0  0  0
   44.0906   37.1030   44.4157 H   0  0  0  0  0  0  0  0  0  0  0  0
   44.3775   34.3380   41.2110 H   0  0  0  0  0  0  0  0  0  0  0  0
   45.6360   35.0473   40.1434 H   0  0  0  0  0  0  0  0  0  0  0  0
   45.3539   33.2733   40.1434 H   0  0  0  0  0  0  0  0  0  0  0  0
   46.7608   32.2542   43.0108 H   0  0  0  0  0  0  0  0  0  0  0  0
   45.8999   31.9827   41.4579 H   0  0  0  0  0  0  0  0  0  0  0  0
   47.6589   32.3468   41.4579 H   0  0  0  0  0  0  0  0  0  0  0  0
  1  2  1  0
  1 18  1  0
  2  3  2  0
  4  3  1  0
  5  4  1  0
  6  5  2  0
  6  2  1  0
  7  5  1  0
  8  7  1  0
  9  8  1  0
 10  9  2  0
 11 10  1  0
 11 12  1  0
 12  8  2  0
 13 11  1  0
 14 13  2  0
 15 16  2  0
 15 14  1  0
 16 17  1  0
 17 13  1  0
 18 26  1  0
 18 23  1  0
 19 20  2  0
 21 20  1  0
 22 21  2  0
 23 22  1  0
 23 24  2  0
 24 19  1  0
 25 18  1  0
  1 27  1  0
  1 28  1  0
  9 29  1  0
 10 30  1  0
 14 31  1  0
 16 32  1  0
 17 33  1  0
 19 34  1  0
 20 35  1  0
 21 36  1  0
 25 37  1  0
 25 38  1  0
 25 39  1  0
 26 40  1  0
 26 41  1  0
 26 42  1  0
M  ISO  8  27   8  28   8  29  14  30  14  31  14  32  14  33   9  34  14
M  ISO  8  35  14  36  14  37   8  38   8  39   8  40   8  41   8  42   8
M  END
>  <minimizedAffinity>  (1) 
-5.55226469

>  <minimizedRMSD>  (1) 
1.75141025

$$$$
