
     RDKit          3D

 42 45  0  0  0  0  0  0  0  0999 V2000
   47.5560   34.8410   41.4100 C   0  0  0  0  0  0  0  0  0  0  0  0
   48.8550   34.2690   41.7790 C   0  0  0  0  0  0  0  0  0  0  0  0
   49.8000   34.6250   42.6790 N   0  0  0  0  0  0  0  0  0  0  0  0
   50.8000   33.7700   42.6240 O   0  0  0  0  0  0  0  0  0  0  0  0
   50.5340   32.8590   41.7080 C   0  0  0  0  0  0  0  0  0  0  0  0
   49.3360   33.1580   41.1810 N   0  0  0  0  0  0  0  0  0  0  0  0
   51.5000   31.8700   41.5210 O   0  0  0  0  0  0  0  0  0  0  0  0
   51.9460   31.4900   40.2630 C   0  0  0  0  0  0  0  0  0  0  0  0
   53.2910   31.1840   40.0710 C   0  0  0  0  0  0  0  0  0  0  0  0
   53.4340   30.8410   38.7240 C   0  0  0  0  0  0  0  0  0  0  0  0
   52.2050   30.9480   38.1580 N   0  0  0  0  0  0  0  0  0  0  0  0
   51.3040   31.3330   39.0590 N   0  0  0  0  0  0  0  0  0  0  0  0
   51.9340   30.0960   34.6740 N   0  0  0  0  0  0  0  0  0  0  0  0
   52.6580   30.0940   35.7930 N   0  0  0  0  0  0  0  0  0  0  0  0
   51.9500   30.6770   36.7850 C   0  0  0  0  0  0  0  0  0  0  0  0
   50.7140   31.0620   36.2550 C   0  0  0  0  0  0  0  0  0  0  0  0
   50.7260   30.6840   34.9140 C   0  0  0  0  0  0  0  0  0  0  0  0
   46.3680   34.0360   41.8380 C   0  0  0  0  0  0  0  0  0  0  0  0
   45.3510   34.1100   45.3490 C   0  0  0  0  0  0  0  0  0  0  0  0
   44.7030   35.3330   45.4860 C   0  0  0  0  0  0  0  0  0  0  0  0
   44.6110   36.1430   44.3610 C   0  0  0  0  0  0  0  0  0  0  0  0
   45.1580   35.7080   43.1780 N   0  0  0  0  0  0  0  0  0  0  0  0
   45.7820   34.4970   43.1120 C   0  0  0  0  0  0  0  0  0  0  0  0
   45.8710   33.7200   44.1850 N   0  0  0  0  0  0  0  0  0  0  0  0
   45.3150   34.1770   40.7410 C   0  0  0  0  0  0  0  0  0  0  0  0
   46.6940   32.5700   41.9150 C   0  0  0  0  0  0  0  0  0  0  0  0
   47.4779   35.8368   41.8707 H   0  0  0  0  0  0  0  0  0  0  0  0
   47.5314   34.8666   40.3106 H   0  0  0  0  0  0  0  0  0  0  0  0
   54.0856   31.2077   40.8313 H   0  0  0  0  0  0  0  0  0  0  0  0
   54.3643   30.5416   38.2191 H   0  0  0  0  0  0  0  0  0  0  0  0
   52.2391   29.7129   33.7679 H   0  0  0  0  0  0  0  0  0  0  0  0
   49.8948   31.5638   36.7908 H   0  0  0  0  0  0  0  0  0  0  0  0
   49.9147   30.8317   34.1860 H   0  0  0  0  0  0  0  0  0  0  0  0
   45.4366   33.4478   46.2231 H   0  0  0  0  0  0  0  0  0  0  0  0
   44.2785   35.6477   46.4507 H   0  0  0  0  0  0  0  0  0  0  0  0
   44.1071   37.1192   44.4166 H   0  0  0  0  0  0  0  0  0  0  0  0
   44.3238   34.3097   41.1991 H   0  0  0  0  0  0  0  0  0  0  0  0
   45.5506   35.0516   40.1169 H   0  0  0  0  0  0  0  0  0  0  0  0
   45.3122   33.2712   40.1169 H   0  0  0  0  0  0  0  0  0  0  0  0
   46.7620   32.2644   42.9695 H   0  0  0  0  0  0  0  0  0  0  0  0
   45.9025   31.9917   41.4159 H   0  0  0  0  0  0  0  0  0  0  0  0
   47.6560   32.3816   41.4159 H   0  0  0  0  0  0  0  0  0  0  0  0
  1  2  1  0
  1 18  1  0
  2  3  2  0
  4  3  1  0
  5  4  1  0
  6  5  2  0
  6  2  1  0
  7  5  1  0
  8  7  1  0
  9  8  1  0
 10  9  2  0
 11 10  1  0
 11 12  1  0
 12  8  2  0
 13 17  1  0
 13 14  1  0
 14 15  2  0
 15 11  1  0
 16 15  1  0
 17 16  2  0
 18 26  1  0
 18 23  1  0
 19 20  2  0
 21 20  1  0
 22 21  2  0
 23 22  1  0
 23 24  2  0
 24 19  1  0
 25 18  1  0
  1 27  1  0
  1 28  1  0
  9 29  1  0
 10 30  1  0
 13 31  1  0
 16 32  1  0
 17 33  1  0
 19 34  1  0
 20 35  1  0
 21 36  1  0
 25 37  1  0
 25 38  1  0
 25 39  1  0
 26 40  1  0
 26 41  1  0
 26 42  1  0
M  ISO  8  27   8  28   8  29  14  30  14  31   9  32  14  33  14  34  14
M  ISO  8  35  14  36  14  37   8  38   8  39   8  40   8  41   8  42   8
M  END
>  <minimizedAffinity>  (1) 
-5.62427902

>  <minimizedRMSD>  (1) 
1.64848638

$$$$
