
     RDKit          3D

 25 27  0  0  0  0  0  0  0  0999 V2000
   45.9780   34.4050   41.9480 N   0  0  0  0  0  0  0  0  0  0  0  0
   45.4100   34.1040   40.7850 C   0  0  0  0  0  0  0  0  0  0  0  0
   46.3370   33.9160   39.8330 N   0  0  0  0  0  0  0  0  0  0  0  0
   47.5210   34.1090   40.4350 C   0  0  0  0  0  0  0  0  0  0  0  0
   47.3170   34.4160   41.7580 N   0  0  0  0  0  0  0  0  0  0  0  0
   48.8680   34.0390   39.9010 N   0  0  0  0  0  0  0  0  0  0  0  0
   43.9920   34.0190   40.6830 N   0  0  0  0  0  0  0  0  0  0  0  0
   43.3330   35.1290   40.3900 N   0  0  0  0  0  0  0  0  0  0  0  0
   42.0020   34.9080   40.3250 C   0  0  0  0  0  0  0  0  0  0  0  0
   41.8200   33.5470   40.5990 C   0  0  0  0  0  0  0  0  0  0  0  0
   43.0890   33.0480   40.8130 C   0  0  0  0  0  0  0  0  0  0  0  0
   44.4550   36.0360   44.9440 C   0  0  0  0  0  0  0  0  0  0  0  0
   44.8480   35.8590   43.6210 C   0  0  0  0  0  0  0  0  0  0  0  0
   45.5280   34.6980   43.2610 C   0  0  0  0  0  0  0  0  0  0  0  0
   45.7700   33.7890   44.2480 N   0  0  0  0  0  0  0  0  0  0  0  0
   45.3820   33.9730   45.5360 C   0  0  0  0  0  0  0  0  0  0  0  0
   44.7260   35.1010   45.8640 N   0  0  0  0  0  0  0  0  0  0  0  0
   49.6753   34.2189   40.5148 H   0  0  0  0  0  0  0  0  0  0  0  0
   49.0171   33.8094   38.9080 H   0  0  0  0  0  0  0  0  0  0  0  0
   41.2192   35.6479   40.1019 H   0  0  0  0  0  0  0  0  0  0  0  0
   40.8697   32.9942   40.6358 H   0  0  0  0  0  0  0  0  0  0  0  0
   43.3211   32.0005   41.0557 H   0  0  0  0  0  0  0  0  0  0  0  0
   43.9179   36.9503   45.2364 H   0  0  0  0  0  0  0  0  0  0  0  0
   44.6239   36.6281   42.8672 H   0  0  0  0  0  0  0  0  0  0  0  0
   45.6005   33.2118   46.2994 H   0  0  0  0  0  0  0  0  0  0  0  0
  1 14  1  0
  2  1  1  0
  3  4  1  0
  3  2  2  0
  4  5  2  0
  5  1  1  0
  6  4  1  0
  7  2  1  0
  7 11  1  0
  8  7  1  0
  9  8  2  0
  9 10  1  0
 10 11  2  0
 12 17  2  0
 13 12  1  0
 14 13  2  0
 14 15  1  0
 15 16  2  0
 16 17  1  0
  6 18  1  0
  6 19  1  0
  9 20  1  0
 10 21  1  0
 11 22  1  0
 12 23  1  0
 13 24  1  0
 16 25  1  0
M  ISO  6  20  14  21  14  22  14  23  14  24  14  25  14
M  END
>  <minimizedAffinity>  (1) 
-5.03280926

>  <minimizedRMSD>  (1) 
1.05967653

$$$$
