
     RDKit          3D

 48 51  0  0  0  0  0  0  0  0999 V2000
   47.5770   34.8130   41.4210 C   0  0  0  0  0  0  0  0  0  0  0  0
   48.8680   34.2260   41.7760 C   0  0  0  0  0  0  0  0  0  0  0  0
   49.8170   34.5470   42.6850 N   0  0  0  0  0  0  0  0  0  0  0  0
   50.8110   33.6890   42.6110 O   0  0  0  0  0  0  0  0  0  0  0  0
   50.5410   32.8120   41.6770 C   0  0  0  0  0  0  0  0  0  0  0  0
   49.3580   33.1210   41.1550 N   0  0  0  0  0  0  0  0  0  0  0  0
   51.5030   31.8160   41.4630 O   0  0  0  0  0  0  0  0  0  0  0  0
   51.9730   31.4870   40.2080 C   0  0  0  0  0  0  0  0  0  0  0  0
   53.3160   31.1390   40.0360 C   0  0  0  0  0  0  0  0  0  0  0  0
   53.4780   30.8630   38.6640 C   0  0  0  0  0  0  0  0  0  0  0  0
   52.2730   31.0480   38.0810 N   0  0  0  0  0  0  0  0  0  0  0  0
   51.3660   31.4190   38.9820 N   0  0  0  0  0  0  0  0  0  0  0  0
   52.0410   30.8580   36.6610 C   0  0  0  0  0  0  0  0  0  0  0  0
   50.5760   30.9790   36.3740 C   0  0  0  0  0  0  0  0  0  0  0  0
   50.1730   29.7350   35.6160 C   0  0  0  0  0  0  0  0  0  0  0  0
   51.2410   28.7060   35.8890 C   0  0  0  0  0  0  0  0  0  0  0  0
   52.4980   29.5030   36.1670 C   0  0  0  0  0  0  0  0  0  0  0  0
   46.3810   34.0230   41.8430 C   0  0  0  0  0  0  0  0  0  0  0  0
   45.3550   34.1100   45.3490 C   0  0  0  0  0  0  0  0  0  0  0  0
   44.7030   35.3290   45.4800 C   0  0  0  0  0  0  0  0  0  0  0  0
   44.6130   36.1290   44.3580 C   0  0  0  0  0  0  0  0  0  0  0  0
   45.1680   35.6880   43.1760 N   0  0  0  0  0  0  0  0  0  0  0  0
   45.7920   34.4850   43.1130 C   0  0  0  0  0  0  0  0  0  0  0  0
   45.8760   33.7180   44.1930 N   0  0  0  0  0  0  0  0  0  0  0  0
   45.3390   34.1650   40.7400 C   0  0  0  0  0  0  0  0  0  0  0  0
   46.6950   32.5550   41.9140 C   0  0  0  0  0  0  0  0  0  0  0  0
   47.5131   35.8049   41.8922 H   0  0  0  0  0  0  0  0  0  0  0  0
   47.5487   34.8458   40.3219 H   0  0  0  0  0  0  0  0  0  0  0  0
   54.0907   31.0904   40.8154 H   0  0  0  0  0  0  0  0  0  0  0  0
   54.4078   30.5556   38.1630 H   0  0  0  0  0  0  0  0  0  0  0  0
   52.6248   31.6315   36.1405 H   0  0  0  0  0  0  0  0  0  0  0  0
   50.0106   31.0484   37.3150 H   0  0  0  0  0  0  0  0  0  0  0  0
   50.3633   31.8843   35.7865 H   0  0  0  0  0  0  0  0  0  0  0  0
   50.1162   29.9478   34.5383 H   0  0  0  0  0  0  0  0  0  0  0  0
   49.1830   29.3767   35.9347 H   0  0  0  0  0  0  0  0  0  0  0  0
   50.9720   28.0930   36.7618 H   0  0  0  0  0  0  0  0  0  0  0  0
   51.3712   28.0142   35.0437 H   0  0  0  0  0  0  0  0  0  0  0  0
   53.1044   29.0019   36.9359 H   0  0  0  0  0  0  0  0  0  0  0  0
   53.1205   29.5954   35.2648 H   0  0  0  0  0  0  0  0  0  0  0  0
   45.4419   33.4521   46.2262 H   0  0  0  0  0  0  0  0  0  0  0  0
   44.2740   35.6457   46.4421 H   0  0  0  0  0  0  0  0  0  0  0  0
   44.1058   37.1039   44.4069 H   0  0  0  0  0  0  0  0  0  0  0  0
   44.3446   34.3005   41.1903 H   0  0  0  0  0  0  0  0  0  0  0  0
   45.5814   35.0384   40.1168 H   0  0  0  0  0  0  0  0  0  0  0  0
   45.3389   33.2586   40.1168 H   0  0  0  0  0  0  0  0  0  0  0  0
   46.7614   32.2448   42.9673 H   0  0  0  0  0  0  0  0  0  0  0  0
   45.8985   31.9850   41.4134 H   0  0  0  0  0  0  0  0  0  0  0  0
   47.6550   32.3607   41.4134 H   0  0  0  0  0  0  0  0  0  0  0  0
  1  2  1  0
  1 18  1  0
  2  3  2  0
  4  3  1  0
  5  4  1  0
  6  5  2  0
  6  2  1  0
  7  5  1  0
  8  7  1  0
  9  8  1  0
 10  9  2  0
 11 10  1  0
 11 12  1  0
 12  8  2  0
 13 11  1  0
 14 13  1  0
 15 16  1  0
 15 14  1  0
 16 17  1  0
 17 13  1  0
 18 26  1  0
 18 23  1  0
 19 20  2  0
 21 20  1  0
 22 21  2  0
 23 22  1  0
 23 24  2  0
 24 19  1  0
 25 18  1  0
  1 27  1  0
  1 28  1  0
  9 29  1  0
 10 30  1  0
 13 31  1  0
 14 32  1  0
 14 33  1  0
 15 34  1  0
 15 35  1  0
 16 36  1  0
 16 37  1  0
 17 38  1  0
 17 39  1  0
 19 40  1  0
 20 41  1  0
 21 42  1  0
 25 43  1  0
 25 44  1  0
 25 45  1  0
 26 46  1  0
 26 47  1  0
 26 48  1  0
M  ISO  8  27   8  28   8  29  14  30  14  31  13  32  13  33  13  34  13
M  ISO  8  35  13  36  13  37  13  38  13  39  13  40  14  41  14  42  14
M  ISO  6  43   8  44   8  45   8  46   8  47   8  48   8
M  END
>  <minimizedAffinity>  (1) 
-5.17481089

>  <minimizedRMSD>  (1) 
1.70327044

$$$$
