
     RDKit          3D

 51 54  0  0  0  0  0  0  0  0999 V2000
   47.5600   34.8090   41.3940 C   0  0  0  0  0  0  0  0  0  0  0  0
   48.8620   34.2480   41.7850 C   0  0  0  0  0  0  0  0  0  0  0  0
   49.8090   34.6290   42.6620 N   0  0  0  0  0  0  0  0  0  0  0  0
   50.8010   33.7710   42.6350 O   0  0  0  0  0  0  0  0  0  0  0  0
   50.5300   32.8300   41.7570 C   0  0  0  0  0  0  0  0  0  0  0  0
   49.3400   33.1060   41.2220 N   0  0  0  0  0  0  0  0  0  0  0  0
   51.4790   31.8260   41.5940 O   0  0  0  0  0  0  0  0  0  0  0  0
   52.0270   31.4880   40.3760 C   0  0  0  0  0  0  0  0  0  0  0  0
   53.3310   30.9820   40.3310 C   0  0  0  0  0  0  0  0  0  0  0  0
   53.6040   30.7370   38.9810 C   0  0  0  0  0  0  0  0  0  0  0  0
   52.5050   31.0860   38.2710 N   0  0  0  0  0  0  0  0  0  0  0  0
   51.5550   31.5380   39.1090 N   0  0  0  0  0  0  0  0  0  0  0  0
   52.4060   30.9740   36.8270 C   0  0  0  0  0  0  0  0  0  0  0  0
   53.1810   29.7870   36.3100 C   0  0  0  0  0  0  0  0  0  0  0  0
   52.4700   29.0620   35.2110 C   0  0  0  0  0  0  0  0  0  0  0  0
   51.8600   30.0900   34.2790 C   0  0  0  0  0  0  0  0  0  0  0  0
   50.6980   30.7020   35.0060 C   0  0  0  0  0  0  0  0  0  0  0  0
   50.9460   30.7920   36.4670 C   0  0  0  0  0  0  0  0  0  0  0  0
   46.3750   34.0210   41.8210 C   0  0  0  0  0  0  0  0  0  0  0  0
   45.3630   34.1000   45.3340 C   0  0  0  0  0  0  0  0  0  0  0  0
   44.7090   35.3270   45.4740 C   0  0  0  0  0  0  0  0  0  0  0  0
   44.6170   36.1320   44.3520 C   0  0  0  0  0  0  0  0  0  0  0  0
   45.1670   35.6840   43.1740 N   0  0  0  0  0  0  0  0  0  0  0  0
   45.7900   34.4830   43.0960 C   0  0  0  0  0  0  0  0  0  0  0  0
   45.8790   33.7100   44.1740 N   0  0  0  0  0  0  0  0  0  0  0  0
   45.3290   34.1890   40.7310 C   0  0  0  0  0  0  0  0  0  0  0  0
   46.6880   32.5600   41.9020 C   0  0  0  0  0  0  0  0  0  0  0  0
   47.4767   35.8136   41.8344 H   0  0  0  0  0  0  0  0  0  0  0  0
   47.5461   34.8074   40.2941 H   0  0  0  0  0  0  0  0  0  0  0  0
   54.0045   30.8115   41.1839 H   0  0  0  0  0  0  0  0  0  0  0  0
   54.5416   30.3339   38.5706 H   0  0  0  0  0  0  0  0  0  0  0  0
   52.8250   31.8839   36.3725 H   0  0  0  0  0  0  0  0  0  0  0  0
   54.1503   30.1399   35.9281 H   0  0  0  0  0  0  0  0  0  0  0  0
   53.3027   29.0824   37.1459 H   0  0  0  0  0  0  0  0  0  0  0  0
   53.1837   28.4347   34.6568 H   0  0  0  0  0  0  0  0  0  0  0  0
   51.6838   28.4165   35.6296 H   0  0  0  0  0  0  0  0  0  0  0  0
   51.5146   29.6045   33.3543 H   0  0  0  0  0  0  0  0  0  0  0  0
   52.5983   30.8564   34.0006 H   0  0  0  0  0  0  0  0  0  0  0  0
   50.5245   31.7140   34.6115 H   0  0  0  0  0  0  0  0  0  0  0  0
   49.8194   30.0594   34.8477 H   0  0  0  0  0  0  0  0  0  0  0  0
   50.3813   31.6490   36.8629 H   0  0  0  0  0  0  0  0  0  0  0  0
   50.6231   29.8370   36.9072 H   0  0  0  0  0  0  0  0  0  0  0  0
   45.4529   33.4390   46.2086 H   0  0  0  0  0  0  0  0  0  0  0  0
   44.2838   35.6409   46.4387 H   0  0  0  0  0  0  0  0  0  0  0  0
   44.1146   37.1093   44.4015 H   0  0  0  0  0  0  0  0  0  0  0  0
   44.3424   34.3475   41.1909 H   0  0  0  0  0  0  0  0  0  0  0  0
   45.5862   35.0573   40.1067 H   0  0  0  0  0  0  0  0  0  0  0  0
   45.3014   33.2838   40.1067 H   0  0  0  0  0  0  0  0  0  0  0  0
   46.7529   32.2569   42.9574 H   0  0  0  0  0  0  0  0  0  0  0  0
   45.8924   31.9864   41.4041 H   0  0  0  0  0  0  0  0  0  0  0  0
   47.6488   32.3627   41.4041 H   0  0  0  0  0  0  0  0  0  0  0  0
  1  2  1  0
  1 19  1  0
  2  3  2  0
  4  3  1  0
  5  4  1  0
  6  5  2  0
  6  2  1  0
  7  5  1  0
  8  7  1  0
  9  8  1  0
 10  9  2  0
 11 10  1  0
 11 12  1  0
 12  8  2  0
 13 11  1  0
 14 13  1  0
 15 14  1  0
 16 17  1  0
 16 15  1  0
 17 18  1  0
 18 13  1  0
 19 27  1  0
 19 24  1  0
 20 21  2  0
 22 21  1  0
 23 22  2  0
 24 23  1  0
 24 25  2  0
 25 20  1  0
 26 19  1  0
  1 28  1  0
  1 29  1  0
  9 30  1  0
 10 31  1  0
 13 32  1  0
 14 33  1  0
 14 34  1  0
 15 35  1  0
 15 36  1  0
 16 37  1  0
 16 38  1  0
 17 39  1  0
 17 40  1  0
 18 41  1  0
 18 42  1  0
 20 43  1  0
 21 44  1  0
 22 45  1  0
 26 46  1  0
 26 47  1  0
 26 48  1  0
 27 49  1  0
 27 50  1  0
 27 51  1  0
M  ISO  8  28   8  29   8  30  14  31  14  32  13  33  13  34  13  35  13
M  ISO  8  36  13  37  13  38  13  39  13  40  13  41  13  42  13  43  14
M  ISO  8  44  14  45  14  46   8  47   8  48   8  49   8  50   8  51   8
M  END
>  <minimizedAffinity>  (1) 
-5.41080952

>  <minimizedRMSD>  (1) 
2.09559441

$$$$
