
     RDKit          3D

 42 45  0  0  0  0  0  0  0  0999 V2000
   47.7430   34.8350   41.5890 C   0  0  0  0  0  0  0  0  0  0  0  0
   49.0260   34.1640   41.8390 C   0  0  0  0  0  0  0  0  0  0  0  0
   50.0140   34.3280   42.7390 N   0  0  0  0  0  0  0  0  0  0  0  0
   50.9690   33.4480   42.5320 O   0  0  0  0  0  0  0  0  0  0  0  0
   50.6250   32.7010   41.5070 C   0  0  0  0  0  0  0  0  0  0  0  0
   49.4380   33.1250   41.0690 N   0  0  0  0  0  0  0  0  0  0  0  0
   51.5360   31.6970   41.1410 O   0  0  0  0  0  0  0  0  0  0  0  0
   51.8530   31.4300   39.8240 C   0  0  0  0  0  0  0  0  0  0  0  0
   53.1970   31.2590   39.4580 C   0  0  0  0  0  0  0  0  0  0  0  0
   53.2130   31.0040   38.0870 C   0  0  0  0  0  0  0  0  0  0  0  0
   51.9070   31.0260   37.6690 N   0  0  0  0  0  0  0  0  0  0  0  0
   51.1070   31.2790   38.7020 N   0  0  0  0  0  0  0  0  0  0  0  0
   51.3930   30.8260   36.3750 C   0  0  0  0  0  0  0  0  0  0  0  0
   51.9390   30.3080   35.2690 C   0  0  0  0  0  0  0  0  0  0  0  0
   51.2290   30.2160   34.1010 C   0  0  0  0  0  0  0  0  0  0  0  0
   49.8850   30.7090   34.1640 C   0  0  0  0  0  0  0  0  0  0  0  0
   49.7280   31.2760   35.9060 S   0  0  0  0  0  0  0  0  0  0  0  0
   46.5340   34.0390   41.9480 C   0  0  0  0  0  0  0  0  0  0  0  0
   45.3720   34.1280   45.4260 C   0  0  0  0  0  0  0  0  0  0  0  0
   44.6760   35.3470   45.5060 C   0  0  0  0  0  0  0  0  0  0  0  0
   44.6070   36.1410   44.3590 C   0  0  0  0  0  0  0  0  0  0  0  0
   45.2190   35.6870   43.2250 N   0  0  0  0  0  0  0  0  0  0  0  0
   45.8760   34.5140   43.1870 C   0  0  0  0  0  0  0  0  0  0  0  0
   45.9460   33.7440   44.2880 N   0  0  0  0  0  0  0  0  0  0  0  0
   45.5440   34.1750   40.8070 C   0  0  0  0  0  0  0  0  0  0  0  0
   46.8540   32.5670   42.0660 C   0  0  0  0  0  0  0  0  0  0  0  0
   47.7250   35.7657   42.1750 H   0  0  0  0  0  0  0  0  0  0  0  0
   47.6899   35.0011   40.5029 H   0  0  0  0  0  0  0  0  0  0  0  0
   54.0702   31.3153   40.1246 H   0  0  0  0  0  0  0  0  0  0  0  0
   54.1000   30.8209   37.4627 H   0  0  0  0  0  0  0  0  0  0  0  0
   52.9783   29.9489   35.2980 H   0  0  0  0  0  0  0  0  0  0  0  0
   51.6597   29.7940   33.1810 H   0  0  0  0  0  0  0  0  0  0  0  0
   49.1304   30.7406   33.3643 H   0  0  0  0  0  0  0  0  0  0  0  0
   45.4431   33.4837   46.3147 H   0  0  0  0  0  0  0  0  0  0  0  0
   44.1996   35.6661   46.4447 H   0  0  0  0  0  0  0  0  0  0  0  0
   44.0753   37.1039   44.3684 H   0  0  0  0  0  0  0  0  0  0  0  0
   44.5318   34.3141   41.2145 H   0  0  0  0  0  0  0  0  0  0  0  0
   45.8134   35.0446   40.1895 H   0  0  0  0  0  0  0  0  0  0  0  0
   45.5689   33.2650   40.1895 H   0  0  0  0  0  0  0  0  0  0  0  0
   46.9144   32.2889   43.1286 H   0  0  0  0  0  0  0  0  0  0  0  0
   46.0626   31.9794   41.5777 H   0  0  0  0  0  0  0  0  0  0  0  0
   47.8179   32.3610   41.5777 H   0  0  0  0  0  0  0  0  0  0  0  0
  1  2  1  0
  1 18  1  0
  2  3  2  0
  4  3  1  0
  5  4  1  0
  6  5  2  0
  6  2  1  0
  7  5  1  0
  8  7  1  0
  9  8  1  0
 10  9  2  0
 11 10  1  0
 11 12  1  0
 12  8  2  0
 13 11  1  0
 14 13  2  0
 15 16  2  0
 15 14  1  0
 16 17  1  0
 17 13  1  0
 18 26  1  0
 18 23  1  0
 19 20  2  0
 21 20  1  0
 22 21  2  0
 23 22  1  0
 23 24  2  0
 24 19  1  0
 25 18  1  0
  1 27  1  0
  1 28  1  0
  9 29  1  0
 10 30  1  0
 14 31  1  0
 15 32  1  0
 16 33  1  0
 19 34  1  0
 20 35  1  0
 21 36  1  0
 25 37  1  0
 25 38  1  0
 25 39  1  0
 26 40  1  0
 26 41  1  0
 26 42  1  0
M  ISO  8  27   8  28   8  29  14  30  14  31  14  32  14  33  14  34  14
M  ISO  8  35  14  36  14  37   8  38   8  39   8  40   8  41   8  42   8
M  END
>  <minimizedAffinity>  (1) 
-5.34752178

>  <minimizedRMSD>  (1) 
1.98363125

$$$$
