
     RDKit          3D

 41 44  0  0  0  0  0  0  0  0999 V2000
   47.2530   34.7810   41.3030 C   0  0  0  0  0  0  0  0  0  0  0  0
   48.5440   34.2550   41.7480 C   0  0  0  0  0  0  0  0  0  0  0  0
   49.3790   34.5620   42.7730 N   0  0  0  0  0  0  0  0  0  0  0  0
   50.4340   33.7790   42.7360 O   0  0  0  0  0  0  0  0  0  0  0  0
   50.3190   32.9640   41.7160 C   0  0  0  0  0  0  0  0  0  0  0  0
   49.1700   33.2390   41.0990 N   0  0  0  0  0  0  0  0  0  0  0  0
   51.3670   32.0570   41.5330 O   0  0  0  0  0  0  0  0  0  0  0  0
   51.7830   31.6370   40.2800 C   0  0  0  0  0  0  0  0  0  0  0  0
   53.1030   31.2300   40.0910 C   0  0  0  0  0  0  0  0  0  0  0  0
   53.2220   30.8680   38.7420 C   0  0  0  0  0  0  0  0  0  0  0  0
   52.0070   31.0610   38.1810 N   0  0  0  0  0  0  0  0  0  0  0  0
   51.1350   31.5180   39.0750 N   0  0  0  0  0  0  0  0  0  0  0  0
   51.5240   30.8630   36.8350 C   0  0  0  0  0  0  0  0  0  0  0  0
   52.2550   30.2100   35.8220 C   0  0  0  0  0  0  0  0  0  0  0  0
   51.1300   30.2830   34.4000 S   0  0  0  0  0  0  0  0  0  0  0  0
   49.8260   31.2040   35.4340 C   0  0  0  0  0  0  0  0  0  0  0  0
   50.3350   31.2870   36.4430 N   0  0  0  0  0  0  0  0  0  0  0  0
   46.0590   34.0210   41.7810 C   0  0  0  0  0  0  0  0  0  0  0  0
   45.4050   34.0260   45.3790 C   0  0  0  0  0  0  0  0  0  0  0  0
   44.7270   35.2270   45.5930 C   0  0  0  0  0  0  0  0  0  0  0  0
   44.4930   36.0380   44.5000 C   0  0  0  0  0  0  0  0  0  0  0  0
   44.9380   35.6240   43.2600 N   0  0  0  0  0  0  0  0  0  0  0  0
   45.5890   34.4530   43.1060 C   0  0  0  0  0  0  0  0  0  0  0  0
   45.8130   33.6720   44.1620 N   0  0  0  0  0  0  0  0  0  0  0  0
   44.9440   34.2700   40.7700 C   0  0  0  0  0  0  0  0  0  0  0  0
   46.3190   32.5480   41.7680 C   0  0  0  0  0  0  0  0  0  0  0  0
   47.1645   35.8164   41.6638 H   0  0  0  0  0  0  0  0  0  0  0  0
   47.2501   34.6968   40.2062 H   0  0  0  0  0  0  0  0  0  0  0  0
   53.8965   31.1990   40.8522 H   0  0  0  0  0  0  0  0  0  0  0  0
   54.1274   30.4989   38.2380 H   0  0  0  0  0  0  0  0  0  0  0  0
   53.2597   29.7657   35.8793 H   0  0  0  0  0  0  0  0  0  0  0  0
   48.8320   31.5640   35.1302 H   0  0  0  0  0  0  0  0  0  0  0  0
   45.6059   33.3599   46.2310 H   0  0  0  0  0  0  0  0  0  0  0  0
   44.3902   35.5179   46.5989 H   0  0  0  0  0  0  0  0  0  0  0  0
   43.9626   36.9948   44.6148 H   0  0  0  0  0  0  0  0  0  0  0  0
   44.0053   34.4796   41.3037 H   0  0  0  0  0  0  0  0  0  0  0  0
   45.2071   35.1315   40.1387 H   0  0  0  0  0  0  0  0  0  0  0  0
   44.8156   33.3784   40.1387 H   0  0  0  0  0  0  0  0  0  0  0  0
   46.3843   32.1781   42.8019 H   0  0  0  0  0  0  0  0  0  0  0  0
   45.4975   32.0352   41.2463 H   0  0  0  0  0  0  0  0  0  0  0  0
   47.2664   32.3475   41.2463 H   0  0  0  0  0  0  0  0  0  0  0  0
  1  2  1  0
  1 18  1  0
  2  3  2  0
  4  3  1  0
  5  4  1  0
  6  5  2  0
  6  2  1  0
  7  5  1  0
  8  7  1  0
  9  8  1  0
 10  9  2  0
 11 10  1  0
 11 12  1  0
 12  8  2  0
 13 11  1  0
 14 13  2  0
 15 16  1  0
 15 14  1  0
 16 17  2  0
 17 13  1  0
 18 23  1  0
 19 20  2  0
 21 20  1  0
 22 21  2  0
 23 22  1  0
 23 24  2  0
 24 19  1  0
 25 18  1  0
 26 18  1  0
  1 27  1  0
  1 28  1  0
  9 29  1  0
 10 30  1  0
 14 31  1  0
 16 32  1  0
 19 33  1  0
 20 34  1  0
 21 35  1  0
 25 36  1  0
 25 37  1  0
 25 38  1  0
 26 39  1  0
 26 40  1  0
 26 41  1  0
M  ISO  8  27   8  28   8  29  14  30  14  31  14  32  14  33  14  34  14
M  ISO  7  35  14  36   8  37   8  38   8  39   8  40   8  41   8
M  END
>  <minimizedAffinity>  (1) 
-5.2146101

>  <minimizedRMSD>  (1) 
1.64331424

$$$$
