
     RDKit          3D

 44 46  0  0  0  0  0  0  0  0999 V2000
   47.5780   34.8210   41.4340 C   0  0  0  0  0  0  0  0  0  0  0  0
   48.8700   34.2340   41.7870 C   0  0  0  0  0  0  0  0  0  0  0  0
   49.8170   34.5490   42.6980 N   0  0  0  0  0  0  0  0  0  0  0  0
   50.8120   33.6910   42.6140 O   0  0  0  0  0  0  0  0  0  0  0  0
   50.5570   32.8210   41.6800 C   0  0  0  0  0  0  0  0  0  0  0  0
   49.3670   33.1390   41.1600 N   0  0  0  0  0  0  0  0  0  0  0  0
   51.5140   31.8320   41.4540 O   0  0  0  0  0  0  0  0  0  0  0  0
   51.9600   31.4920   40.1850 C   0  0  0  0  0  0  0  0  0  0  0  0
   53.3010   31.1540   40.0000 C   0  0  0  0  0  0  0  0  0  0  0  0
   53.4380   30.8650   38.6270 C   0  0  0  0  0  0  0  0  0  0  0  0
   52.2260   31.0350   38.0610 N   0  0  0  0  0  0  0  0  0  0  0  0
   51.3340   31.4090   38.9800 N   0  0  0  0  0  0  0  0  0  0  0  0
   51.9570   30.8330   36.6540 C   0  0  0  0  0  0  0  0  0  0  0  0
   50.4900   30.9750   36.3610 C   0  0  0  0  0  0  0  0  0  0  0  0
   52.5390   29.5160   36.1420 C   0  0  0  0  0  0  0  0  0  0  0  0
   46.3860   34.0170   41.8580 C   0  0  0  0  0  0  0  0  0  0  0  0
   45.3560   34.1060   45.3730 C   0  0  0  0  0  0  0  0  0  0  0  0
   44.7010   35.3280   45.4900 C   0  0  0  0  0  0  0  0  0  0  0  0
   44.6080   36.1300   44.3600 C   0  0  0  0  0  0  0  0  0  0  0  0
   45.1660   35.6770   43.1910 N   0  0  0  0  0  0  0  0  0  0  0  0
   45.7940   34.4860   43.1190 C   0  0  0  0  0  0  0  0  0  0  0  0
   45.8780   33.7190   44.2120 N   0  0  0  0  0  0  0  0  0  0  0  0
   45.3410   34.1690   40.7580 C   0  0  0  0  0  0  0  0  0  0  0  0
   46.6990   32.5570   41.9370 C   0  0  0  0  0  0  0  0  0  0  0  0
   47.5102   35.8105   41.9096 H   0  0  0  0  0  0  0  0  0  0  0  0
   47.5473   34.8648   40.3353 H   0  0  0  0  0  0  0  0  0  0  0  0
   54.0887   31.1200   40.7671 H   0  0  0  0  0  0  0  0  0  0  0  0
   54.3611   30.5582   38.1134 H   0  0  0  0  0  0  0  0  0  0  0  0
   52.4745   31.6263   36.0947 H   0  0  0  0  0  0  0  0  0  0  0  0
   49.9308   31.0291   37.3067 H   0  0  0  0  0  0  0  0  0  0  0  0
   50.3192   31.8939   35.7809 H   0  0  0  0  0  0  0  0  0  0  0  0
   50.1461   30.1059   35.7809 H   0  0  0  0  0  0  0  0  0  0  0  0
   52.8191   28.8822   36.9963 H   0  0  0  0  0  0  0  0  0  0  0  0
   51.7869   28.9959   35.5306 H   0  0  0  0  0  0  0  0  0  0  0  0
   53.4299   29.7219   35.5306 H   0  0  0  0  0  0  0  0  0  0  0  0
   45.4434   33.4510   46.2524 H   0  0  0  0  0  0  0  0  0  0  0  0
   44.2695   35.6494   46.4494 H   0  0  0  0  0  0  0  0  0  0  0  0
   44.0995   37.1045   44.4010 H   0  0  0  0  0  0  0  0  0  0  0  0
   44.3494   34.3132   41.2117 H   0  0  0  0  0  0  0  0  0  0  0  0
   45.5892   35.0405   40.1344 H   0  0  0  0  0  0  0  0  0  0  0  0
   45.3306   33.2629   40.1344 H   0  0  0  0  0  0  0  0  0  0  0  0
   46.7643   32.2526   42.9920 H   0  0  0  0  0  0  0  0  0  0  0  0
   45.9033   31.9839   41.4386 H   0  0  0  0  0  0  0  0  0  0  0  0
   47.6597   32.3605   41.4386 H   0  0  0  0  0  0  0  0  0  0  0  0
  1  2  1  0
  1 16  1  0
  2  3  2  0
  4  3  1  0
  5  4  1  0
  6  5  2  0
  6  2  1  0
  7  5  1  0
  8  7  1  0
  9  8  1  0
 10  9  2  0
 11 10  1  0
 11 12  1  0
 12  8  2  0
 13 11  1  0
 14 13  1  0
 15 13  1  0
 16 24  1  0
 16 21  1  0
 17 18  2  0
 19 18  1  0
 20 19  2  0
 21 20  1  0
 21 22  2  0
 22 17  1  0
 23 16  1  0
  1 25  1  0
  1 26  1  0
  9 27  1  0
 10 28  1  0
 13 29  1  0
 14 30  1  0
 14 31  1  0
 14 32  1  0
 15 33  1  0
 15 34  1  0
 15 35  1  0
 17 36  1  0
 18 37  1  0
 19 38  1  0
 23 39  1  0
 23 40  1  0
 23 41  1  0
 24 42  1  0
 24 43  1  0
 24 44  1  0
M  ISO  8  25   8  26   8  27  14  28  14  29   8  30   8  31   8  32   8
M  ISO  8  33   8  34   8  35   8  36  14  37  14  38  14  39   8  40   8
M  ISO  4  41   8  42   8  43   8  44   8
M  END
>  <minimizedAffinity>  (1) 
-5.08632421

>  <minimizedRMSD>  (1) 
1.33181894

$$$$
