
     RDKit          3D

 36 37  0  0  1  0  0  0  0  0999 V2000
   45.5970   33.8420   43.1720 C   0  0  2  0  0  0  0  0  0  0  0  0
   45.4120   35.2690   43.5870 C   0  0  0  0  0  0  0  0  0  0  0  0
   44.5420   36.1500   42.8180 C   0  0  0  0  0  0  0  0  0  0  0  0
   43.8480   35.6320   41.6470 C   0  0  0  0  0  0  0  0  0  0  0  0
   44.1110   34.2510   41.2480 C   0  0  0  0  0  0  0  0  0  0  0  0
   44.4170   33.3840   42.3730 C   0  0  0  0  0  0  0  0  0  0  0  0
   46.0790   33.5760   45.6240 C   0  0  0  0  0  0  0  0  0  0  0  0
   45.7810   33.0180   44.3800 C   0  0  0  0  0  0  0  0  0  0  0  0
   45.7350   31.6260   44.3630 C   0  0  0  0  0  0  0  0  0  0  0  0
   45.9750   30.9190   45.5020 N   0  0  0  0  0  0  0  0  0  0  0  0
   46.2580   31.5020   46.6660 C   0  0  0  0  0  0  0  0  0  0  0  0
   46.3100   32.8310   46.7290 N   0  0  0  0  0  0  0  0  0  0  0  0
   46.9440   33.6950   42.4800 C   0  0  0  0  0  0  0  0  0  0  0  0
   46.9910   32.8890   41.2400 C   0  0  0  0  0  0  0  0  0  0  0  0
   48.0140   33.2050   43.4210 C   0  0  0  0  0  0  0  0  0  0  0  0
   47.4360   35.0850   42.0910 C   0  0  0  0  0  0  0  0  0  0  0  0
   45.9345   35.6536   44.4753 H   0  0  0  0  0  0  0  0  0  0  0  0
   44.4104   37.1995   43.1201 H   0  0  0  0  0  0  0  0  0  0  0  0
   42.7688   35.7159   41.8428 H   0  0  0  0  0  0  0  0  0  0  0  0
   44.2305   36.2367   40.8115 H   0  0  0  0  0  0  0  0  0  0  0  0
   43.2206   33.8586   40.7350 H   0  0  0  0  0  0  0  0  0  0  0  0
   44.9927   34.2605   40.5903 H   0  0  0  0  0  0  0  0  0  0  0  0
   43.5395   33.3493   43.0354 H   0  0  0  0  0  0  0  0  0  0  0  0
   44.6669   32.3946   41.9623 H   0  0  0  0  0  0  0  0  0  0  0  0
   46.1283   34.6715   45.7097 H   0  0  0  0  0  0  0  0  0  0  0  0
   45.5042   31.0962   43.4270 H   0  0  0  0  0  0  0  0  0  0  0  0
   46.4462   30.8936   47.5629 H   0  0  0  0  0  0  0  0  0  0  0  0
   47.0532   31.8216   41.4986 H   0  0  0  0  0  0  0  0  0  0  0  0
   46.0807   33.0708   40.6498 H   0  0  0  0  0  0  0  0  0  0  0  0
   47.8740   33.1754   40.6498 H   0  0  0  0  0  0  0  0  0  0  0  0
   47.6855   33.3554   44.4600 H   0  0  0  0  0  0  0  0  0  0  0  0
   48.1948   32.1343   43.2450 H   0  0  0  0  0  0  0  0  0  0  0  0
   48.9428   33.7675   43.2450 H   0  0  0  0  0  0  0  0  0  0  0  0
   47.6426   35.6686   43.0002 H   0  0  0  0  0  0  0  0  0  0  0  0
   48.3568   34.9948   41.4961 H   0  0  0  0  0  0  0  0  0  0  0  0
   46.6635   35.5942   41.4961 H   0  0  0  0  0  0  0  0  0  0  0  0
  1 13  1  6
  1  2  1  0
  1  8  1  0
  3  2  2  0
  4  3  1  0
  5  4  1  0
  5  6  1  0
  6  1  1  0
  7 12  2  0
  8  7  1  0
  9  8  2  0
  9 10  1  0
 10 11  2  0
 11 12  1  0
 13 15  1  0
 14 13  1  0
 16 13  1  0
  2 17  1  0
  3 18  1  0
  4 19  1  0
  4 20  1  0
  5 21  1  0
  5 22  1  0
  6 23  1  0
  6 24  1  0
  7 25  1  0
  9 26  1  0
 11 27  1  0
 14 28  1  0
 14 29  1  0
 14 30  1  0
 15 31  1  0
 15 32  1  0
 15 33  1  0
 16 34  1  0
 16 35  1  0
 16 36  1  0
M  ISO  8  17  13  18  13  19  13  20  13  21  13  22  13  23  13  24  13
M  ISO  8  25  14  26  14  27  14  28   8  29   8  30   8  31   8  32   8
M  ISO  4  33   8  34   8  35   8  36   8
M  END
>  <minimizedAffinity>  (1) 
-4.29792786

>  <minimizedRMSD>  (1) 
2.659724

$$$$
