
     RDKit          3D

 25 26  0  0  1  0  0  0  0  0999 V2000
   45.6930   33.6490   44.1600 C   0  0  2  0  0  0  0  0  0  0  0  0
   45.2200   34.9810   44.6840 C   0  0  0  0  0  0  0  0  0  0  0  0
   44.5840   35.8840   43.7420 C   0  0  0  0  0  0  0  0  0  0  0  0
   44.4240   35.4830   42.3340 C   0  0  0  0  0  0  0  0  0  0  0  0
   45.0550   34.2110   41.9290 C   0  0  0  0  0  0  0  0  0  0  0  0
   44.8280   33.1790   43.0300 C   0  0  0  0  0  0  0  0  0  0  0  0
   45.6660   33.1430   46.5950 C   0  0  0  0  0  0  0  0  0  0  0  0
   45.7990   32.7020   45.2760 C   0  0  0  0  0  0  0  0  0  0  0  0
   46.0340   31.3310   45.1040 C   0  0  0  0  0  0  0  0  0  0  0  0
   46.1190   30.5240   46.1880 N   0  0  0  0  0  0  0  0  0  0  0  0
   45.9880   30.9820   47.4350 C   0  0  0  0  0  0  0  0  0  0  0  0
   45.7620   32.2840   47.6330 N   0  0  0  0  0  0  0  0  0  0  0  0
   47.3490   33.9720   43.4430 S   0  0  0  0  0  0  0  0  0  0  0  0
   45.3518   35.2582   45.7403 H   0  0  0  0  0  0  0  0  0  0  0  0
   44.2221   36.8664   44.0794 H   0  0  0  0  0  0  0  0  0  0  0  0
   43.3459   35.3989   42.1322 H   0  0  0  0  0  0  0  0  0  0  0  0
   44.9422   36.2597   41.7525 H   0  0  0  0  0  0  0  0  0  0  0  0
   44.6036   33.8563   40.9907 H   0  0  0  0  0  0  0  0  0  0  0  0
   46.1335   34.3610   41.7729 H   0  0  0  0  0  0  0  0  0  0  0  0
   43.7704   33.1568   43.3316 H   0  0  0  0  0  0  0  0  0  0  0  0
   45.0762   32.1573   42.7068 H   0  0  0  0  0  0  0  0  0  0  0  0
   45.4797   34.2091   46.7918 H   0  0  0  0  0  0  0  0  0  0  0  0
   46.1488   30.9126   44.0932 H   0  0  0  0  0  0  0  0  0  0  0  0
   46.0653   30.2949   48.2905 H   0  0  0  0  0  0  0  0  0  0  0  0
   48.2573   34.1492   44.4532 H   0  0  0  0  0  0  0  0  0  0  0  0
  1 13  1  6
  1  2  1  0
  1  8  1  0
  3  2  2  0
  4  3  1  0
  5  4  1  0
  5  6  1  0
  6  1  1  0
  7 12  2  0
  8  7  1  0
  9  8  2  0
  9 10  1  0
 10 11  2  0
 11 12  1  0
  2 14  1  0
  3 15  1  0
  4 16  1  0
  4 17  1  0
  5 18  1  0
  5 19  1  0
  6 20  1  0
  6 21  1  0
  7 22  1  0
  9 23  1  0
 11 24  1  0
 13 25  1  0
M  ISO  8  14  13  15  13  16  13  17  13  18  13  19  13  20  13  21  13
M  ISO  4  22  14  23  14  24  14  25  11
M  END
>  <minimizedAffinity>  (1) 
-3.78599811

>  <minimizedRMSD>  (1) 
1.23691642

$$$$
