
     RDKit          3D

 31 32  0  0  1  0  0  0  0  0999 V2000
   46.3110   32.6530   44.7060 C   0  0  2  0  0  0  0  0  0  0  0  0
   45.8940   33.5130   45.8910 C   0  0  0  0  0  0  0  0  0  0  0  0
   45.6890   32.8750   47.1740 C   0  0  0  0  0  0  0  0  0  0  0  0
   45.8950   31.4340   47.2900 C   0  0  0  0  0  0  0  0  0  0  0  0
   46.2050   30.6760   46.0650 C   0  0  0  0  0  0  0  0  0  0  0  0
   47.1050   31.5000   45.1950 C   0  0  0  0  0  0  0  0  0  0  0  0
   46.3170   34.6200   43.2100 C   0  0  0  0  0  0  0  0  0  0  0  0
   46.9870   33.5140   43.7300 C   0  0  0  0  0  0  0  0  0  0  0  0
   48.2890   33.2680   43.2550 C   0  0  0  0  0  0  0  0  0  0  0  0
   48.8420   34.0960   42.3250 N   0  0  0  0  0  0  0  0  0  0  0  0
   48.1530   35.1620   41.8440 C   0  0  0  0  0  0  0  0  0  0  0  0
   46.9000   35.4200   42.2860 N   0  0  0  0  0  0  0  0  0  0  0  0
   45.0230   32.2980   44.0940 N   0  0  0  0  0  0  0  0  0  0  0  0
   45.0650   31.5440   42.8670 C   0  0  0  0  0  0  0  0  0  0  0  0
   46.0530   30.7570   42.6180 N   0  0  0  0  0  0  0  0  0  0  0  0
   44.0440   31.6070   41.8560 N   0  0  0  0  0  0  0  0  0  0  0  0
   46.1580   30.1880   41.7690 H   0  0  0  0  0  0  0  0  0  0  0  0
   45.7514   34.5975   45.7745 H   0  0  0  0  0  0  0  0  0  0  0  0
   45.3825   33.4671   48.0489 H   0  0  0  0  0  0  0  0  0  0  0  0
   46.7292   31.2787   47.9900 H   0  0  0  0  0  0  0  0  0  0  0  0
   44.9189   31.0434   47.6136 H   0  0  0  0  0  0  0  0  0  0  0  0
   46.7096   29.7355   46.3312 H   0  0  0  0  0  0  0  0  0  0  0  0
   45.2746   30.4467   45.5249 H   0  0  0  0  0  0  0  0  0  0  0  0
   47.4596   30.8993   44.3444 H   0  0  0  0  0  0  0  0  0  0  0  0
   47.9842   31.8440   45.7595 H   0  0  0  0  0  0  0  0  0  0  0  0
   45.2977   34.8468   43.5559 H   0  0  0  0  0  0  0  0  0  0  0  0
   48.8598   32.4076   43.6345 H   0  0  0  0  0  0  0  0  0  0  0  0
   48.6148   35.8188   41.0920 H   0  0  0  0  0  0  0  0  0  0  0  0
   44.1291   32.5761   44.5235 H   0  0  0  0  0  0  0  0  0  0  0  0
   44.1322   31.0423   40.9991 H   0  0  0  0  0  0  0  0  0  0  0  0
   43.2246   32.2168   41.9888 H   0  0  0  0  0  0  0  0  0  0  0  0
  1 13  1  6
  1  6  1  0
  1  2  1  0
  2  3  2  0
  3  4  1  0
  5  4  1  0
  6  5  1  0
  7  8  2  0
  8  1  1  0
  9  8  1  0
 10  9  2  0
 11 12  2  0
 11 10  1  0
 12  7  1  0
 14 13  1  0
 15 14  2  0
 16 14  1  0
 17 15  1  0
  2 18  1  0
  3 19  1  0
  4 20  1  0
  4 21  1  0
  5 22  1  0
  5 23  1  0
  6 24  1  0
  6 25  1  0
  7 26  1  0
  9 27  1  0
 11 28  1  0
 13 29  1  0
 16 30  1  0
 16 31  1  0
M  ISO  8  18  13  19  13  20  13  21  13  22  13  23  13  24  13  25  13
M  ISO  3  26  14  27  14  28  14
M  END
>  <minimizedAffinity>  (1) 
-3.95438552

>  <minimizedRMSD>  (1) 
5.23716545

$$$$
