
     RDKit          3D

 39 41  0  0  1  0  0  0  0  0999 V2000
   45.3010   33.2790   43.4320 C   0  0  2  0  0  0  0  0  0  0  0  0
   45.0430   34.7320   43.7540 C   0  0  0  0  0  0  0  0  0  0  0  0
   44.2920   35.5010   42.7960 C   0  0  0  0  0  0  0  0  0  0  0  0
   43.7770   34.8850   41.5820 C   0  0  0  0  0  0  0  0  0  0  0  0
   44.0320   33.4530   41.3890 C   0  0  0  0  0  0  0  0  0  0  0  0
   44.1310   32.7150   42.6860 C   0  0  0  0  0  0  0  0  0  0  0  0
   45.8960   33.3250   45.7860 C   0  0  0  0  0  0  0  0  0  0  0  0
   45.6680   32.5820   44.6600 C   0  0  0  0  0  0  0  0  0  0  0  0
   45.8530   31.1590   44.7220 C   0  0  0  0  0  0  0  0  0  0  0  0
   46.2470   30.6200   45.8910 N   0  0  0  0  0  0  0  0  0  0  0  0
   46.4630   31.3890   46.9830 C   0  0  0  0  0  0  0  0  0  0  0  0
   46.2890   32.7410   46.9320 N   0  0  0  0  0  0  0  0  0  0  0  0
   46.5990   33.3910   42.6200 C   0  0  0  0  0  0  0  0  0  0  0  0
   47.1660   32.6980   41.7160 O   0  0  0  0  0  0  0  0  0  0  0  0
   47.6330   34.4970   42.7210 C   0  0  0  0  0  0  0  0  0  0  0  0
   49.0210   34.0090   42.9760 C   0  0  0  0  0  0  0  0  0  0  0  0
   49.9280   35.1360   42.4530 C   0  0  0  0  0  0  0  0  0  0  0  0
   49.1490   35.8120   41.3770 C   0  0  0  0  0  0  0  0  0  0  0  0
   47.7280   35.3700   41.5220 C   0  0  0  0  0  0  0  0  0  0  0  0
   45.4146   35.1853   44.6848 H   0  0  0  0  0  0  0  0  0  0  0  0
   44.1049   36.5685   42.9841 H   0  0  0  0  0  0  0  0  0  0  0  0
   42.6865   35.0293   41.5762 H   0  0  0  0  0  0  0  0  0  0  0  0
   44.3211   35.3796   40.7639 H   0  0  0  0  0  0  0  0  0  0  0  0
   43.2088   33.0233   40.7993 H   0  0  0  0  0  0  0  0  0  0  0  0
   44.9954   33.3496   40.8682 H   0  0  0  0  0  0  0  0  0  0  0  0
   43.2094   32.8551   43.2700 H   0  0  0  0  0  0  0  0  0  0  0  0
   44.2638   31.6371   42.5113 H   0  0  0  0  0  0  0  0  0  0  0  0
   45.7559   34.4156   45.7535 H   0  0  0  0  0  0  0  0  0  0  0  0
   45.6776   30.5272   43.8388 H   0  0  0  0  0  0  0  0  0  0  0  0
   46.7831   30.9179   47.9241 H   0  0  0  0  0  0  0  0  0  0  0  0
   47.2517   35.0692   43.5796 H   0  0  0  0  0  0  0  0  0  0  0  0
   49.1843   33.8460   44.0515 H   0  0  0  0  0  0  0  0  0  0  0  0
   49.2231   33.0467   42.4829 H   0  0  0  0  0  0  0  0  0  0  0  0
   50.1630   35.8454   43.2602 H   0  0  0  0  0  0  0  0  0  0  0  0
   50.8858   34.7462   42.0779 H   0  0  0  0  0  0  0  0  0  0  0  0
   49.5365   35.5200   40.3898 H   0  0  0  0  0  0  0  0  0  0  0  0
   49.2303   36.9057   41.4617 H   0  0  0  0  0  0  0  0  0  0  0  0
   47.0762   36.2472   41.6475 H   0  0  0  0  0  0  0  0  0  0  0  0
   47.4080   34.8195   40.6250 H   0  0  0  0  0  0  0  0  0  0  0  0
  1 13  1  6
  1  2  1  0
  1  8  1  0
  3  2  2  0
  4  3  1  0
  5  4  1  0
  5  6  1  0
  6  1  1  0
  7 12  2  0
  8  9  2  0
  8  7  1  0
  9 10  1  0
 10 11  2  0
 12 11  1  0
 13 15  1  0
 14 13  2  0
 15 16  1  0
 17 16  1  0
 18 19  1  0
 18 17  1  0
 19 15  1  0
  2 20  1  0
  3 21  1  0
  4 22  1  0
  4 23  1  0
  5 24  1  0
  5 25  1  0
  6 26  1  0
  6 27  1  0
  7 28  1  0
  9 29  1  0
 11 30  1  0
 15 31  1  0
 16 32  1  0
 16 33  1  0
 17 34  1  0
 17 35  1  0
 18 36  1  0
 18 37  1  0
 19 38  1  0
 19 39  1  0
M  ISO  8  20  13  21  13  22  13  23  13  24  13  25  13  26  13  27  13
M  ISO  8  28  14  29  14  30  14  31  13  32  13  33  13  34  13  35  13
M  ISO  4  36  13  37  13  38  13  39  13
M  END
>  <minimizedAffinity>  (1) 
-5.11749506

>  <minimizedRMSD>  (1) 
1.79828715

$$$$
