
     RDKit          3D

 42 44  0  0  1  0  0  0  0  0999 V2000
   45.7230   33.5680   44.1450 C   0  0  2  0  0  0  0  0  0  0  0  0
   45.2000   34.8070   44.7500 C   0  0  0  0  0  0  0  0  0  0  0  0
   44.3860   35.6500   43.9010 C   0  0  0  0  0  0  0  0  0  0  0  0
   44.1000   35.2880   42.5150 C   0  0  0  0  0  0  0  0  0  0  0  0
   44.6390   34.0260   42.0250 C   0  0  0  0  0  0  0  0  0  0  0  0
   44.7360   33.0180   43.1210 C   0  0  0  0  0  0  0  0  0  0  0  0
   46.6980   33.0930   46.2930 C   0  0  0  0  0  0  0  0  0  0  0  0
   46.0690   32.5640   45.1550 C   0  0  0  0  0  0  0  0  0  0  0  0
   45.8780   31.1730   45.0870 C   0  0  0  0  0  0  0  0  0  0  0  0
   46.3040   30.4090   46.1040 N   0  0  0  0  0  0  0  0  0  0  0  0
   46.9090   30.9430   47.1900 C   0  0  0  0  0  0  0  0  0  0  0  0
   47.1110   32.2900   47.2910 N   0  0  0  0  0  0  0  0  0  0  0  0
   47.0220   33.9580   43.4740 C   0  0  0  0  0  0  0  0  0  0  0  0
   47.6980   34.9130   43.1100 O   0  0  0  0  0  0  0  0  0  0  0  0
   48.1220   33.0750   42.9560 C   0  0  0  0  0  0  0  0  0  0  0  0
   49.1360   33.8090   42.1040 C   0  0  0  0  0  0  0  0  0  0  0  0
   48.7240   33.9220   40.6530 C   0  0  0  0  0  0  0  0  0  0  0  0
   48.6680   32.5680   39.9830 C   0  0  0  0  0  0  0  0  0  0  0  0
   48.5940   31.5390   41.0850 C   0  0  0  0  0  0  0  0  0  0  0  0
   47.5140   31.9340   42.1110 C   0  0  0  0  0  0  0  0  0  0  0  0
   45.4177   35.0768   45.7940 H   0  0  0  0  0  0  0  0  0  0  0  0
   43.9732   36.5846   44.3086 H   0  0  0  0  0  0  0  0  0  0  0  0
   43.0064   35.2444   42.4047 H   0  0  0  0  0  0  0  0  0  0  0  0
   44.6028   36.0600   41.9140 H   0  0  0  0  0  0  0  0  0  0  0  0
   43.9786   33.6360   41.2364 H   0  0  0  0  0  0  0  0  0  0  0  0
   45.6492   34.2090   41.6301 H   0  0  0  0  0  0  0  0  0  0  0  0
   43.7506   32.8705   43.5872 H   0  0  0  0  0  0  0  0  0  0  0  0
   45.0738   32.0460   42.7322 H   0  0  0  0  0  0  0  0  0  0  0  0
   46.8555   34.1789   46.3701 H   0  0  0  0  0  0  0  0  0  0  0  0
   45.3871   30.7183   44.2139 H   0  0  0  0  0  0  0  0  0  0  0  0
   47.2431   30.2825   48.0037 H   0  0  0  0  0  0  0  0  0  0  0  0
   48.6494   32.6891   43.8408 H   0  0  0  0  0  0  0  0  0  0  0  0
   49.2660   34.8228   42.5106 H   0  0  0  0  0  0  0  0  0  0  0  0
   50.0701   33.2289   42.1346 H   0  0  0  0  0  0  0  0  0  0  0  0
   47.7290   34.3880   40.5997 H   0  0  0  0  0  0  0  0  0  0  0  0
   49.4732   34.5341   40.1294 H   0  0  0  0  0  0  0  0  0  0  0  0
   47.7776   32.4998   39.3408 H   0  0  0  0  0  0  0  0  0  0  0  0
   49.5518   32.4045   39.3489 H   0  0  0  0  0  0  0  0  0  0  0  0
   48.3424   30.5599   40.6514 H   0  0  0  0  0  0  0  0  0  0  0  0
   49.5686   31.4860   41.5924 H   0  0  0  0  0  0  0  0  0  0  0  0
   46.6070   32.2825   41.5954 H   0  0  0  0  0  0  0  0  0  0  0  0
   47.2252   31.0787   42.7396 H   0  0  0  0  0  0  0  0  0  0  0  0
  1 13  1  6
  1  2  1  0
  1  8  1  0
  3  2  2  0
  4  3  1  0
  5  4  1  0
  5  6  1  0
  6  1  1  0
  7 12  2  0
  8  7  1  0
  9  8  2  0
  9 10  1  0
 10 11  2  0
 11 12  1  0
 14 13  2  0
 15 13  1  0
 16 15  1  0
 17 16  1  0
 18 17  1  0
 18 19  1  0
 19 20  1  0
 20 15  1  0
  2 21  1  0
  3 22  1  0
  4 23  1  0
  4 24  1  0
  5 25  1  0
  5 26  1  0
  6 27  1  0
  6 28  1  0
  7 29  1  0
  9 30  1  0
 11 31  1  0
 15 32  1  0
 16 33  1  0
 16 34  1  0
 17 35  1  0
 17 36  1  0
 18 37  1  0
 18 38  1  0
 19 39  1  0
 19 40  1  0
 20 41  1  0
 20 42  1  0
M  ISO  8  21  13  22  13  23  13  24  13  25  13  26  13  27  13  28  13
M  ISO  8  29  14  30  14  31  14  32  13  33  13  34  13  35  13  36  13
M  ISO  6  37  13  38  13  39  13  40  13  41  13  42  13
M  END
>  <minimizedAffinity>  (1) 
-4.61061287

>  <minimizedRMSD>  (1) 
2.10241508

$$$$
