
     RDKit          3D

 33 35  0  0  1  0  0  0  0  0999 V2000
   41.4880   33.4720   40.5240 C   0  0  2  0  0  0  0  0  0  0  0  0
   40.1140   34.0930   40.6210 C   0  0  0  0  0  0  0  0  0  0  0  0
   39.7850   35.0070   39.5360 C   0  0  0  0  0  0  0  0  0  0  0  0
   40.7010   35.2780   38.4530 C   0  0  0  0  0  0  0  0  0  0  0  0
   41.9730   34.5540   38.4490 C   0  0  0  0  0  0  0  0  0  0  0  0
   41.8500   33.2100   39.0960 C   0  0  0  0  0  0  0  0  0  0  0  0
   40.3020   31.9470   42.0410 C   0  0  0  0  0  0  0  0  0  0  0  0
   41.4880   32.2440   41.3600 C   0  0  0  0  0  0  0  0  0  0  0  0
   42.6110   31.3930   41.5510 C   0  0  0  0  0  0  0  0  0  0  0  0
   42.4930   30.3450   42.3760 N   0  0  0  0  0  0  0  0  0  0  0  0
   41.3310   30.0820   43.0250 C   0  0  0  0  0  0  0  0  0  0  0  0
   40.2550   30.8720   42.8580 N   0  0  0  0  0  0  0  0  0  0  0  0
   42.3340   34.4540   41.2740 C   0  0  0  0  0  0  0  0  0  0  0  0
   42.1960   35.5160   41.9650 O   0  0  0  0  0  0  0  0  0  0  0  0
   43.8680   34.7120   41.6210 C   0  0  0  0  0  0  0  0  0  0  0  0
   44.2300   35.5200   42.7630 C   0  0  0  0  0  0  0  0  0  0  0  0
   45.5540   35.5980   42.9760 C   0  0  0  0  0  0  0  0  0  0  0  0
   46.4800   34.9800   42.1990 C   0  0  0  0  0  0  0  0  0  0  0  0
   45.1960   34.1790   40.9970 S   0  0  0  0  0  0  0  0  0  0  0  0
   39.4186   33.8726   41.4443 H   0  0  0  0  0  0  0  0  0  0  0  0
   38.8057   35.5079   39.5416 H   0  0  0  0  0  0  0  0  0  0  0  0
   40.1816   35.0375   37.5137 H   0  0  0  0  0  0  0  0  0  0  0  0
   40.9795   36.3348   38.5782 H   0  0  0  0  0  0  0  0  0  0  0  0
   42.3026   34.4192   37.4082 H   0  0  0  0  0  0  0  0  0  0  0  0
   42.7036   35.1436   39.0221 H   0  0  0  0  0  0  0  0  0  0  0  0
   41.0629   32.6195   38.6042 H   0  0  0  0  0  0  0  0  0  0  0  0
   42.7854   32.6368   39.0159 H   0  0  0  0  0  0  0  0  0  0  0  0
   39.4146   32.5841   41.9120 H   0  0  0  0  0  0  0  0  0  0  0  0
   43.5594   31.5920   41.0305 H   0  0  0  0  0  0  0  0  0  0  0  0
   41.2679   29.2124   43.6957 H   0  0  0  0  0  0  0  0  0  0  0  0
   43.4889   36.0252   43.3999 H   0  0  0  0  0  0  0  0  0  0  0  0
   45.9080   36.1965   43.8283 H   0  0  0  0  0  0  0  0  0  0  0  0
   47.5788   34.9467   42.2395 H   0  0  0  0  0  0  0  0  0  0  0  0
  1  2  1  0
  1 13  1  1
  1  8  1  0
  3  2  2  0
  4  3  1  0
  5  4  1  0
  5  6  1  0
  6  1  1  0
  7 12  2  0
  8  9  2  0
  8  7  1  0
  9 10  1  0
 10 11  2  0
 12 11  1  0
 13 15  1  0
 13 14  2  0
 15 16  2  0
 16 17  1  0
 18 17  2  0
 19 15  1  0
 19 18  1  0
  2 20  1  0
  3 21  1  0
  4 22  1  0
  4 23  1  0
  5 24  1  0
  5 25  1  0
  6 26  1  0
  6 27  1  0
  7 28  1  0
  9 29  1  0
 11 30  1  0
 16 31  1  0
 17 32  1  0
 18 33  1  0
M  ISO  8  20  13  21  13  22  13  23  13  24  13  25  13  26  13  27  13
M  ISO  6  28  14  29  14  30  14  31  14  32  14  33  14
M  END
>  <minimizedAffinity>  (1) 
-4.95260715

>  <minimizedRMSD>  (1) 
5.74652481

$$$$
