
     RDKit          3D

 27 28  0  0  1  0  0  0  0  0999 V2000
   45.6600   33.5240   43.8060 C   0  0  2  0  0  0  0  0  0  0  0  0
   45.3810   34.9070   44.3180 C   0  0  0  0  0  0  0  0  0  0  0  0
   44.6970   35.7870   43.3950 C   0  0  0  0  0  0  0  0  0  0  0  0
   44.2810   35.3330   42.0640 C   0  0  0  0  0  0  0  0  0  0  0  0
   44.5780   33.9530   41.6960 C   0  0  0  0  0  0  0  0  0  0  0  0
   44.5980   33.0410   42.8910 C   0  0  0  0  0  0  0  0  0  0  0  0
   46.4070   33.2490   46.1030 C   0  0  0  0  0  0  0  0  0  0  0  0
   45.9850   32.6570   44.9300 C   0  0  0  0  0  0  0  0  0  0  0  0
   45.9090   31.2330   44.8740 C   0  0  0  0  0  0  0  0  0  0  0  0
   46.2490   30.5140   45.9540 N   0  0  0  0  0  0  0  0  0  0  0  0
   46.6640   31.1450   47.1010 C   0  0  0  0  0  0  0  0  0  0  0  0
   46.7410   32.4920   47.1710 N   0  0  0  0  0  0  0  0  0  0  0  0
   46.9970   33.7050   43.0460 C   0  0  0  0  0  0  0  0  0  0  0  0
   47.8570   33.1440   42.3490 O   0  0  0  0  0  0  0  0  0  0  0  0
   47.8600   34.7930   42.8430 O   0  0  0  0  0  0  0  0  0  0  0  0
   45.6766   35.2300   45.3271 H   0  0  0  0  0  0  0  0  0  0  0  0
   44.4838   36.8223   43.6994 H   0  0  0  0  0  0  0  0  0  0  0  0
   43.1908   35.4635   41.9980 H   0  0  0  0  0  0  0  0  0  0  0  0
   44.8730   35.9414   41.3645 H   0  0  0  0  0  0  0  0  0  0  0  0
   43.8090   33.5999   40.9932 H   0  0  0  0  0  0  0  0  0  0  0  0
   45.5776   33.9323   41.2372 H   0  0  0  0  0  0  0  0  0  0  0  0
   43.6233   33.0684   43.4001 H   0  0  0  0  0  0  0  0  0  0  0  0
   44.7964   32.0040   42.5822 H   0  0  0  0  0  0  0  0  0  0  0  0
   46.4719   34.3451   46.1689 H   0  0  0  0  0  0  0  0  0  0  0  0
   45.5750   30.7302   43.9544 H   0  0  0  0  0  0  0  0  0  0  0  0
   46.9389   30.5424   47.9792 H   0  0  0  0  0  0  0  0  0  0  0  0
   48.6844   34.6776   42.3072 H   0  0  0  0  0  0  0  0  0  0  0  0
  1 13  1  6
  1  2  1  0
  1  8  1  0
  3  2  2  0
  4  3  1  0
  5  4  1  0
  5  6  1  0
  6  1  1  0
  7 12  2  0
  8  7  1  0
  9  8  2  0
  9 10  1  0
 10 11  2  0
 11 12  1  0
 14 13  2  0
 15 13  1  0
  2 16  1  0
  3 17  1  0
  4 18  1  0
  4 19  1  0
  5 20  1  0
  5 21  1  0
  6 22  1  0
  6 23  1  0
  7 24  1  0
  9 25  1  0
 11 26  1  0
 15 27  1  0
M  ISO  8  16  13  17  13  18  13  19  13  20  13  21  13  22  13  23  13
M  ISO  4  24  14  25  14  26  14  27   3
M  END
>  <minimizedAffinity>  (1) 
-3.79831719

>  <minimizedRMSD>  (1) 
0.568574369

$$$$
