
     RDKit          3D

 36 37  0  0  1  0  0  0  0  0999 V2000
   45.8490   33.2040   43.6690 C   0  0  1  0  0  0  0  0  0  0  0  0
   45.9000   34.6900   43.7260 C   0  0  0  0  0  0  0  0  0  0  0  0
   45.4410   35.3920   42.5540 C   0  0  0  0  0  0  0  0  0  0  0  0
   44.9530   34.6960   41.3830 C   0  0  0  0  0  0  0  0  0  0  0  0
   44.8670   33.2440   41.4580 C   0  0  0  0  0  0  0  0  0  0  0  0
   44.6560   32.7670   42.8600 C   0  0  0  0  0  0  0  0  0  0  0  0
   47.1690   32.7910   43.0200 C   0  0  0  0  0  0  0  0  0  0  0  0
   47.5470   31.9330   42.1630 O   0  0  0  0  0  0  0  0  0  0  0  0
   48.3130   33.5720   43.4860 N   0  0  0  0  0  0  0  0  0  0  0  0
   48.9810   34.4920   42.6910 C   0  0  0  0  0  0  0  0  0  0  0  0
   48.7520   34.9200   41.5660 N   0  0  0  0  0  0  0  0  0  0  0  0
   50.1710   35.2150   43.0770 N   0  0  0  0  0  0  0  0  0  0  0  0
   48.0460   34.8010   40.8830 H   0  0  0  0  0  0  0  0  0  0  0  0
   45.6420   33.5520   46.0730 C   0  0  0  0  0  0  0  0  0  0  0  0
   45.8900   32.6680   45.0400 C   0  0  0  0  0  0  0  0  0  0  0  0
   46.2150   31.2950   45.3490 C   0  0  0  0  0  0  0  0  0  0  0  0
   46.2670   30.9320   46.6350 N   0  0  0  0  0  0  0  0  0  0  0  0
   46.0230   31.8170   47.6200 C   0  0  0  0  0  0  0  0  0  0  0  0
   45.7190   33.0880   47.3380 N   0  0  0  0  0  0  0  0  0  0  0  0
   46.1070   31.3200   49.0100 C   0  0  0  0  0  0  0  0  0  0  0  0
   45.0730   31.3830   49.7240 O   0  0  0  0  0  0  0  0  0  0  0  0
   47.2900   30.7970   49.5160 O   0  0  0  0  0  0  0  0  0  0  0  0
   46.2681   35.2238   44.6146 H   0  0  0  0  0  0  0  0  0  0  0  0
   45.4623   36.4918   42.5495 H   0  0  0  0  0  0  0  0  0  0  0  0
   45.6234   34.9448   40.5471 H   0  0  0  0  0  0  0  0  0  0  0  0
   43.9133   35.0354   41.2649 H   0  0  0  0  0  0  0  0  0  0  0  0
   44.0244   32.9056   40.8371 H   0  0  0  0  0  0  0  0  0  0  0  0
   45.8193   32.8281   41.0972 H   0  0  0  0  0  0  0  0  0  0  0  0
   43.7383   33.2104   43.2739 H   0  0  0  0  0  0  0  0  0  0  0  0
   44.5491   31.6725   42.8859 H   0  0  0  0  0  0  0  0  0  0  0  0
   48.6396   33.4324   44.4528 H   0  0  0  0  0  0  0  0  0  0  0  0
   50.6036   35.8820   42.4220 H   0  0  0  0  0  0  0  0  0  0  0  0
   50.5867   35.0634   44.0071 H   0  0  0  0  0  0  0  0  0  0  0  0
   45.3892   34.6032   45.8701 H   0  0  0  0  0  0  0  0  0  0  0  0
   46.4143   30.5677   44.5482 H   0  0  0  0  0  0  0  0  0  0  0  0
   47.3269   30.4690   50.4494 H   0  0  0  0  0  0  0  0  0  0  0  0
  1  7  1  6
  1  2  1  0
  1 15  1  0
  3  2  2  0
  4  5  1  0
  4  3  1  0
  5  6  1  0
  6  1  1  0
  7  9  1  0
  8  7  2  0
 10 12  1  0
 10  9  1  0
 11 10  2  0
 13 11  1  0
 14 19  2  0
 15 16  2  0
 15 14  1  0
 16 17  1  0
 17 18  2  0
 18 20  1  0
 19 18  1  0
 20 22  1  0
 20 21  2  0
  2 23  1  0
  3 24  1  0
  4 25  1  0
  4 26  1  0
  5 27  1  0
  5 28  1  0
  6 29  1  0
  6 30  1  0
  9 31  1  0
 12 32  1  0
 12 33  1  0
 14 34  1  0
 16 35  1  0
 22 36  1  0
M  ISO  8  23  13  24  13  25  13  26  13  27  13  28  13  29  13  30  13
M  ISO  3  34  14  35  14  36   3
M  END
>  <minimizedAffinity>  (1) 
-6.40923214

>  <minimizedRMSD>  (1) 
0.466085672

$$$$
