
     RDKit          3D

 36 37  0  0  1  0  0  0  0  0999 V2000
   45.8650   33.1770   43.7400 C   0  0  1  0  0  0  0  0  0  0  0  0
   45.9610   34.6510   43.8590 C   0  0  0  0  0  0  0  0  0  0  0  0
   45.5570   35.4190   42.7060 C   0  0  0  0  0  0  0  0  0  0  0  0
   45.0800   34.7850   41.4930 C   0  0  0  0  0  0  0  0  0  0  0  0
   44.9480   33.3370   41.5040 C   0  0  0  0  0  0  0  0  0  0  0  0
   44.6720   32.8160   42.8840 C   0  0  0  0  0  0  0  0  0  0  0  0
   47.1820   32.7370   43.1050 C   0  0  0  0  0  0  0  0  0  0  0  0
   47.5600   31.8440   42.2810 O   0  0  0  0  0  0  0  0  0  0  0  0
   48.3280   33.5340   43.5380 N   0  0  0  0  0  0  0  0  0  0  0  0
   48.9880   34.4340   42.7160 C   0  0  0  0  0  0  0  0  0  0  0  0
   48.7570   34.8180   41.5760 N   0  0  0  0  0  0  0  0  0  0  0  0
   50.1680   35.1830   43.0820 N   0  0  0  0  0  0  0  0  0  0  0  0
   48.0550   34.6640   40.8990 H   0  0  0  0  0  0  0  0  0  0  0  0
   45.6350   33.4180   46.1460 C   0  0  0  0  0  0  0  0  0  0  0  0
   45.8460   32.5660   45.0820 C   0  0  0  0  0  0  0  0  0  0  0  0
   46.0640   31.1730   45.3390 C   0  0  0  0  0  0  0  0  0  0  0  0
   46.0600   30.7500   46.6010 N   0  0  0  0  0  0  0  0  0  0  0  0
   45.8540   31.5990   47.6240 C   0  0  0  0  0  0  0  0  0  0  0  0
   45.6480   32.9000   47.3930 N   0  0  0  0  0  0  0  0  0  0  0  0
   45.8720   31.0110   49.0020 C   0  0  0  0  0  0  0  0  0  0  0  0
   47.1750   30.7840   49.3910 F   0  0  0  0  0  0  0  0  0  0  0  0
   45.1090   29.8460   49.0100 F   0  0  0  0  0  0  0  0  0  0  0  0
   45.2660   31.8770   49.8920 F   0  0  0  0  0  0  0  0  0  0  0  0
   46.3216   35.1347   44.7788 H   0  0  0  0  0  0  0  0  0  0  0  0
   45.6126   36.5168   42.7489 H   0  0  0  0  0  0  0  0  0  0  0  0
   45.7804   35.0467   40.6862 H   0  0  0  0  0  0  0  0  0  0  0  0
   44.0544   35.1607   41.3629 H   0  0  0  0  0  0  0  0  0  0  0  0
   44.1181   33.0495   40.8417 H   0  0  0  0  0  0  0  0  0  0  0  0
   45.8974   32.9032   41.1569 H   0  0  0  0  0  0  0  0  0  0  0  0
   43.7617   33.2824   43.2888 H   0  0  0  0  0  0  0  0  0  0  0  0
   44.5153   31.7273   42.8684 H   0  0  0  0  0  0  0  0  0  0  0  0
   48.6630   33.4209   44.5054 H   0  0  0  0  0  0  0  0  0  0  0  0
   50.5955   35.8328   42.4068 H   0  0  0  0  0  0  0  0  0  0  0  0
   50.5817   35.0671   44.0181 H   0  0  0  0  0  0  0  0  0  0  0  0
   45.4606   34.4918   45.9829 H   0  0  0  0  0  0  0  0  0  0  0  0
   46.2311   30.4684   44.5109 H   0  0  0  0  0  0  0  0  0  0  0  0
  1  7  1  6
  1  2  1  0
  1 15  1  0
  3  2  2  0
  4  5  1  0
  4  3  1  0
  5  6  1  0
  6  1  1  0
  7  9  1  0
  8  7  2  0
 10 12  1  0
 10  9  1  0
 11 10  2  0
 13 11  1  0
 14 19  2  0
 15 16  2  0
 15 14  1  0
 16 17  1  0
 17 18  2  0
 18 20  1  0
 19 18  1  0
 20 22  1  0
 20 21  1  0
 20 23  1  0
  2 24  1  0
  3 25  1  0
  4 26  1  0
  4 27  1  0
  5 28  1  0
  5 29  1  0
  6 30  1  0
  6 31  1  0
  9 32  1  0
 12 33  1  0
 12 34  1  0
 14 35  1  0
 16 36  1  0
M  ISO  8  24  13  25  13  26  13  27  13  28  13  29  13  30  13  31  13
M  ISO  2  35  14  36  14
M  END
>  <minimizedAffinity>  (1) 
-6.5619669

>  <minimizedRMSD>  (1) 
0.340448916

$$$$
