
     RDKit          3D

 40 42  0  0  1  0  0  0  0  0999 V2000
   44.9350   33.8330   42.4150 C   0  0  2  0  0  0  0  0  0  0  0  0
   44.7310   35.2940   42.5520 C   0  0  0  0  0  0  0  0  0  0  0  0
   43.9810   35.9400   41.5040 C   0  0  0  0  0  0  0  0  0  0  0  0
   43.4490   35.2090   40.3790 C   0  0  0  0  0  0  0  0  0  0  0  0
   43.6360   33.7630   40.3700 C   0  0  0  0  0  0  0  0  0  0  0  0
   43.7250   33.2080   41.7610 C   0  0  0  0  0  0  0  0  0  0  0  0
   45.3520   34.1360   44.7950 C   0  0  0  0  0  0  0  0  0  0  0  0
   45.2790   33.2610   43.7290 C   0  0  0  0  0  0  0  0  0  0  0  0
   45.5830   31.8640   43.9380 C   0  0  0  0  0  0  0  0  0  0  0  0
   45.9320   31.4660   45.1700 N   0  0  0  0  0  0  0  0  0  0  0  0
   45.9960   32.3500   46.1870 C   0  0  0  0  0  0  0  0  0  0  0  0
   45.7130   33.6470   46.0010 N   0  0  0  0  0  0  0  0  0  0  0  0
   46.3840   31.8140   47.4690 N   0  0  0  0  0  0  0  0  0  0  0  0
   45.4770   31.5790   48.4240 N   0  0  0  0  0  0  0  0  0  0  0  0
   46.1220   31.0790   49.5190 C   0  0  0  0  0  0  0  0  0  0  0  0
   47.4550   31.0360   49.1480 C   0  0  0  0  0  0  0  0  0  0  0  0
   47.6330   31.4980   47.8560 C   0  0  0  0  0  0  0  0  0  0  0  0
   46.1900   33.6830   41.5550 C   0  0  0  0  0  0  0  0  0  0  0  0
   46.4600   33.5850   40.3160 O   0  0  0  0  0  0  0  0  0  0  0  0
   47.4230   33.6380   42.3370 N   0  0  0  0  0  0  0  0  0  0  0  0
   48.3560   34.6630   42.3530 C   0  0  0  0  0  0  0  0  0  0  0  0
   48.3480   35.7820   41.8530 N   0  0  0  0  0  0  0  0  0  0  0  0
   49.6250   34.6250   43.0460 N   0  0  0  0  0  0  0  0  0  0  0  0
   47.7110   36.3270   41.3280 H   0  0  0  0  0  0  0  0  0  0  0  0
   45.1309   35.8564   43.4086 H   0  0  0  0  0  0  0  0  0  0  0  0
   43.8087   37.0248   41.5637 H   0  0  0  0  0  0  0  0  0  0  0  0
   42.3667   35.4021   40.3419 H   0  0  0  0  0  0  0  0  0  0  0  0
   44.0201   35.5721   39.5118 H   0  0  0  0  0  0  0  0  0  0  0  0
   42.7843   33.2963   39.8535 H   0  0  0  0  0  0  0  0  0  0  0  0
   44.5802   33.5418   39.8507 H   0  0  0  0  0  0  0  0  0  0  0  0
   42.8169   33.4627   42.3272 H   0  0  0  0  0  0  0  0  0  0  0  0
   43.8156   32.1120   41.7390 H   0  0  0  0  0  0  0  0  0  0  0  0
   45.1220   35.2038   44.6651 H   0  0  0  0  0  0  0  0  0  0  0  0
   45.5295   31.1450   43.1073 H   0  0  0  0  0  0  0  0  0  0  0  0
   45.6810   30.7778   50.4807 H   0  0  0  0  0  0  0  0  0  0  0  0
   48.2685   30.6801   49.7972 H   0  0  0  0  0  0  0  0  0  0  0  0
   48.5686   31.5856   47.2842 H   0  0  0  0  0  0  0  0  0  0  0  0
   47.6090   32.8003   42.9067 H   0  0  0  0  0  0  0  0  0  0  0  0
   50.2594   35.4354   43.0037 H   0  0  0  0  0  0  0  0  0  0  0  0
   49.8943   33.7876   43.5818 H   0  0  0  0  0  0  0  0  0  0  0  0
  1 18  1  6
  1  2  1  0
  1  8  1  0
  3  2  2  0
  4  3  1  0
  5  4  1  0
  5  6  1  0
  6  1  1  0
  7 12  2  0
  8  9  2  0
  8  7  1  0
  9 10  1  0
 10 11  2  0
 11 13  1  0
 12 11  1  0
 13 17  1  0
 13 14  1  0
 14 15  2  0
 16 15  1  0
 17 16  2  0
 18 20  1  0
 19 18  2  0
 20 21  1  0
 21 23  1  0
 22 21  2  0
 24 22  1  0
  2 25  1  0
  3 26  1  0
  4 27  1  0
  4 28  1  0
  5 29  1  0
  5 30  1  0
  6 31  1  0
  6 32  1  0
  7 33  1  0
  9 34  1  0
 15 35  1  0
 16 36  1  0
 17 37  1  0
 20 38  1  0
 23 39  1  0
 23 40  1  0
M  ISO  8  25  13  26  13  27  13  28  13  29  13  30  13  31  13  32  13
M  ISO  5  33  14  34  14  35  14  36  14  37  14
M  END
>  <minimizedAffinity>  (1) 
-5.98350573

>  <minimizedRMSD>  (1) 
1.59818625

$$$$
