
     RDKit          3D

 40 42  0  0  1  0  0  0  0  0999 V2000
   45.6760   33.7210   42.9270 C   0  0  1  0  0  0  0  0  0  0  0  0
   45.5180   35.1550   43.2690 C   0  0  0  0  0  0  0  0  0  0  0  0
   44.6430   35.9230   42.4190 C   0  0  0  0  0  0  0  0  0  0  0  0
   43.9550   35.3380   41.2950 C   0  0  0  0  0  0  0  0  0  0  0  0
   44.1150   33.8990   41.0850 C   0  0  0  0  0  0  0  0  0  0  0  0
   44.3790   33.1800   42.3780 C   0  0  0  0  0  0  0  0  0  0  0  0
   46.8030   33.6820   41.8940 C   0  0  0  0  0  0  0  0  0  0  0  0
   46.9000   33.5880   40.6300 O   0  0  0  0  0  0  0  0  0  0  0  0
   48.1350   33.7810   42.4880 N   0  0  0  0  0  0  0  0  0  0  0  0
   48.9500   34.8960   42.3560 C   0  0  0  0  0  0  0  0  0  0  0  0
   48.7510   35.9960   41.8550 N   0  0  0  0  0  0  0  0  0  0  0  0
   50.3050   35.0000   42.8490 N   0  0  0  0  0  0  0  0  0  0  0  0
   47.9910   36.4670   41.4310 H   0  0  0  0  0  0  0  0  0  0  0  0
   46.1690   33.6590   45.3110 C   0  0  0  0  0  0  0  0  0  0  0  0
   46.1870   32.9930   44.1020 C   0  0  0  0  0  0  0  0  0  0  0  0
   46.7430   31.6600   44.0380 C   0  0  0  0  0  0  0  0  0  0  0  0
   47.2270   31.1200   45.1670 N   0  0  0  0  0  0  0  0  0  0  0  0
   47.1950   31.8040   46.3290 C   0  0  0  0  0  0  0  0  0  0  0  0
   46.6780   33.0380   46.3980 N   0  0  0  0  0  0  0  0  0  0  0  0
   47.7510   31.1390   47.5300 C   0  0  0  0  0  0  0  0  0  0  0  0
   47.5190   31.5080   48.8390 C   0  0  0  0  0  0  0  0  0  0  0  0
   48.2210   30.6290   49.5770 N   0  0  0  0  0  0  0  0  0  0  0  0
   48.8600   29.7550   48.7450 C   0  0  0  0  0  0  0  0  0  0  0  0
   48.5690   30.0710   47.4700 N   0  0  0  0  0  0  0  0  0  0  0  0
   46.0400   35.6081   44.1247 H   0  0  0  0  0  0  0  0  0  0  0  0
   44.4952   36.9914   42.6352 H   0  0  0  0  0  0  0  0  0  0  0  0
   42.8808   35.5353   41.4260 H   0  0  0  0  0  0  0  0  0  0  0  0
   44.4121   35.8050   40.4101 H   0  0  0  0  0  0  0  0  0  0  0  0
   43.1945   33.4989   40.6349 H   0  0  0  0  0  0  0  0  0  0  0  0
   44.9767   33.7409   40.4198 H   0  0  0  0  0  0  0  0  0  0  0  0
   43.5605   33.3678   43.0885 H   0  0  0  0  0  0  0  0  0  0  0  0
   44.4437   32.0938   42.2169 H   0  0  0  0  0  0  0  0  0  0  0  0
   48.4869   32.9811   43.0331 H   0  0  0  0  0  0  0  0  0  0  0  0
   50.8396   35.8688   42.7065 H   0  0  0  0  0  0  0  0  0  0  0  0
   50.7358   34.2053   43.3428 H   0  0  0  0  0  0  0  0  0  0  0  0
   45.7495   34.6730   45.3879 H   0  0  0  0  0  0  0  0  0  0  0  0
   46.7686   31.1035   43.0895 H   0  0  0  0  0  0  0  0  0  0  0  0
   46.8960   32.3394   49.2004 H   0  0  0  0  0  0  0  0  0  0  0  0
   49.5082   28.9261   49.0655 H   0  0  0  0  0  0  0  0  0  0  0  0
   48.9037   29.5934   46.6210 H   0  0  0  0  0  0  0  0  0  0  0  0
  1  7  1  6
  1  2  1  0
  1 15  1  0
  3  2  2  0
  4  3  1  0
  5  4  1  0
  5  6  1  0
  6  1  1  0
  7  9  1  0
  8  7  2  0
 10  9  1  0
 10 12  1  0
 11 10  2  0
 13 11  1  0
 14 19  2  0
 15 14  1  0
 16 15  2  0
 16 17  1  0
 17 18  2  0
 18 19  1  0
 18 20  1  0
 20 21  2  0
 21 22  1  0
 23 22  2  0
 24 20  1  0
 24 23  1  0
  2 25  1  0
  3 26  1  0
  4 27  1  0
  4 28  1  0
  5 29  1  0
  5 30  1  0
  6 31  1  0
  6 32  1  0
  9 33  1  0
 12 34  1  0
 12 35  1  0
 14 36  1  0
 16 37  1  0
 21 38  1  0
 23 39  1  0
 24 40  1  0
M  ISO  8  25  13  26  13  27  13  28  13  29  13  30  13  31  13  32  13
M  ISO  5  36  14  37  14  38  14  39  14  40   9
M  END
>  <minimizedAffinity>  (1) 
-5.85201311

>  <minimizedRMSD>  (1) 
1.49812484

$$$$
