
     RDKit          3D

 45 47  0  0  1  0  0  0  0  0999 V2000
   45.6100   33.5880   42.9720 C   0  0  2  0  0  0  0  0  0  0  0  0
   45.5190   35.0200   43.3450 C   0  0  0  0  0  0  0  0  0  0  0  0
   44.6930   35.8490   42.5020 C   0  0  0  0  0  0  0  0  0  0  0  0
   43.9910   35.3230   41.3610 C   0  0  0  0  0  0  0  0  0  0  0  0
   44.0910   33.8850   41.1120 C   0  0  0  0  0  0  0  0  0  0  0  0
   44.2980   33.1240   42.3910 C   0  0  0  0  0  0  0  0  0  0  0  0
   46.5090   33.5220   45.2380 C   0  0  0  0  0  0  0  0  0  0  0  0
   46.0690   32.8130   44.1360 C   0  0  0  0  0  0  0  0  0  0  0  0
   46.1290   31.3680   44.1590 C   0  0  0  0  0  0  0  0  0  0  0  0
   46.6170   30.7660   45.2540 N   0  0  0  0  0  0  0  0  0  0  0  0
   47.0400   31.4960   46.3080 C   0  0  0  0  0  0  0  0  0  0  0  0
   46.9860   32.8330   46.2990 N   0  0  0  0  0  0  0  0  0  0  0  0
   47.5490   30.7710   47.4320 N   0  0  0  0  0  0  0  0  0  0  0  0
   48.6880   29.8730   47.3950 C   0  0  0  0  0  0  0  0  0  0  0  0
   49.1950   29.7660   48.8120 C   0  0  0  0  0  0  0  0  0  0  0  0
   48.3780   30.7890   49.5730 C   0  0  0  0  0  0  0  0  0  0  0  0
   47.0710   30.7590   48.8030 C   0  0  0  0  0  0  0  0  0  0  0  0
   46.7520   33.5190   41.9530 C   0  0  0  0  0  0  0  0  0  0  0  0
   46.8620   33.3660   40.6950 O   0  0  0  0  0  0  0  0  0  0  0  0
   48.0750   33.6670   42.5530 N   0  0  0  0  0  0  0  0  0  0  0  0
   48.8730   34.7880   42.3750 C   0  0  0  0  0  0  0  0  0  0  0  0
   48.6610   35.8620   41.8260 N   0  0  0  0  0  0  0  0  0  0  0  0
   50.2250   34.9320   42.8680 N   0  0  0  0  0  0  0  0  0  0  0  0
   47.8980   36.3000   41.3730 H   0  0  0  0  0  0  0  0  0  0  0  0
   46.0520   35.4277   44.2166 H   0  0  0  0  0  0  0  0  0  0  0  0
   44.5964   36.9188   42.7390 H   0  0  0  0  0  0  0  0  0  0  0  0
   42.9251   35.5618   41.4908 H   0  0  0  0  0  0  0  0  0  0  0  0
   44.4753   35.7928   40.4922 H   0  0  0  0  0  0  0  0  0  0  0  0
   43.1626   33.5383   40.6347 H   0  0  0  0  0  0  0  0  0  0  0  0
   44.9556   33.7049   40.4563 H   0  0  0  0  0  0  0  0  0  0  0  0
   43.4780   33.3351   43.0932 H   0  0  0  0  0  0  0  0  0  0  0  0
   44.3122   32.0399   42.2052 H   0  0  0  0  0  0  0  0  0  0  0  0
   46.4719   34.6213   45.2514 H   0  0  0  0  0  0  0  0  0  0  0  0
   45.7826   30.7765   43.2987 H   0  0  0  0  0  0  0  0  0  0  0  0
   48.3801   28.8836   47.0258 H   0  0  0  0  0  0  0  0  0  0  0  0
   49.4703   30.2502   46.7199 H   0  0  0  0  0  0  0  0  0  0  0  0
   49.0264   28.7553   49.2121 H   0  0  0  0  0  0  0  0  0  0  0  0
   50.2772   29.9473   48.8887 H   0  0  0  0  0  0  0  0  0  0  0  0
   48.2343   30.4900   50.6218 H   0  0  0  0  0  0  0  0  0  0  0  0
   48.8435   31.7839   49.6312 H   0  0  0  0  0  0  0  0  0  0  0  0
   46.4540   31.6429   49.0222 H   0  0  0  0  0  0  0  0  0  0  0  0
   46.4235   29.9039   49.0472 H   0  0  0  0  0  0  0  0  0  0  0  0
   48.4344   32.8996   43.1386 H   0  0  0  0  0  0  0  0  0  0  0  0
   50.7481   35.8013   42.6904 H   0  0  0  0  0  0  0  0  0  0  0  0
   50.6648   34.1652   43.3967 H   0  0  0  0  0  0  0  0  0  0  0  0
  1 18  1  6
  1  2  1  0
  1  8  1  0
  3  2  2  0
  4  3  1  0
  5  4  1  0
  5  6  1  0
  6  1  1  0
  7 12  2  0
  8  9  2  0
  8  7  1  0
  9 10  1  0
 10 11  2  0
 11 13  1  0
 12 11  1  0
 13 17  1  0
 14 13  1  0
 14 15  1  0
 15 16  1  0
 17 16  1  0
 18 20  1  0
 19 18  2  0
 21 20  1  0
 21 23  1  0
 22 21  2  0
 24 22  1  0
  2 25  1  0
  3 26  1  0
  4 27  1  0
  4 28  1  0
  5 29  1  0
  5 30  1  0
  6 31  1  0
  6 32  1  0
  7 33  1  0
  9 34  1  0
 14 35  1  0
 14 36  1  0
 15 37  1  0
 15 38  1  0
 16 39  1  0
 16 40  1  0
 17 41  1  0
 17 42  1  0
 20 43  1  0
 23 44  1  0
 23 45  1  0
M  ISO  8  25  13  26  13  27  13  28  13  29  13  30  13  31  13  32  13
M  ISO  8  33  14  34  14  35  13  36  13  37  13  38  13  39  13  40  13
M  ISO  2  41  13  42  13
M  END
>  <minimizedAffinity>  (1) 
-6.11291313

>  <minimizedRMSD>  (1) 
1.38711834

$$$$
