
     RDKit          3D

 41 43  0  0  1  0  0  0  0  0999 V2000
   45.7530   33.6960   43.0230 C   0  0  1  0  0  0  0  0  0  0  0  0
   45.5990   35.1030   43.4640 C   0  0  0  0  0  0  0  0  0  0  0  0
   44.6800   35.9100   42.7090 C   0  0  0  0  0  0  0  0  0  0  0  0
   43.9430   35.3950   41.5800 C   0  0  0  0  0  0  0  0  0  0  0  0
   44.1040   33.9790   41.2730 C   0  0  0  0  0  0  0  0  0  0  0  0
   44.4340   33.1810   42.5010 C   0  0  0  0  0  0  0  0  0  0  0  0
   46.8300   33.7340   41.9380 C   0  0  0  0  0  0  0  0  0  0  0  0
   46.8660   33.7310   40.6670 O   0  0  0  0  0  0  0  0  0  0  0  0
   48.1880   33.7910   42.4740 N   0  0  0  0  0  0  0  0  0  0  0  0
   48.9960   34.9150   42.3890 C   0  0  0  0  0  0  0  0  0  0  0  0
   48.7750   36.0490   41.9780 N   0  0  0  0  0  0  0  0  0  0  0  0
   50.3700   34.9890   42.8290 N   0  0  0  0  0  0  0  0  0  0  0  0
   47.9980   36.5460   41.6230 H   0  0  0  0  0  0  0  0  0  0  0  0
   46.3500   33.4780   45.3760 C   0  0  0  0  0  0  0  0  0  0  0  0
   46.3230   32.8970   44.1240 C   0  0  0  0  0  0  0  0  0  0  0  0
   46.8890   31.5810   43.9460 C   0  0  0  0  0  0  0  0  0  0  0  0
   47.4260   30.9720   45.0120 N   0  0  0  0  0  0  0  0  0  0  0  0
   47.4380   31.5710   46.2180 C   0  0  0  0  0  0  0  0  0  0  0  0
   46.9130   32.7900   46.3920 N   0  0  0  0  0  0  0  0  0  0  0  0
   48.0470   30.8560   47.3640 C   0  0  0  0  0  0  0  0  0  0  0  0
   48.1750   31.4910   48.5810 C   0  0  0  0  0  0  0  0  0  0  0  0
   48.7530   30.7970   49.6500 C   0  0  0  0  0  0  0  0  0  0  0  0
   49.1750   29.5370   49.5010 N   0  0  0  0  0  0  0  0  0  0  0  0
   49.0400   28.9330   48.3060 C   0  0  0  0  0  0  0  0  0  0  0  0
   48.4840   29.5850   47.2540 N   0  0  0  0  0  0  0  0  0  0  0  0
   46.1571   35.5070   44.3215 H   0  0  0  0  0  0  0  0  0  0  0  0
   44.5328   36.9598   43.0028 H   0  0  0  0  0  0  0  0  0  0  0  0
   42.8747   35.5732   41.7723 H   0  0  0  0  0  0  0  0  0  0  0  0
   44.3525   35.9242   40.7070 H   0  0  0  0  0  0  0  0  0  0  0  0
   43.1665   33.5985   40.8414 H   0  0  0  0  0  0  0  0  0  0  0  0
   44.9357   33.8739   40.5608 H   0  0  0  0  0  0  0  0  0  0  0  0
   43.6494   33.3149   43.2603 H   0  0  0  0  0  0  0  0  0  0  0  0
   44.4977   32.1083   42.2657 H   0  0  0  0  0  0  0  0  0  0  0  0
   48.5649   32.9529   42.9392 H   0  0  0  0  0  0  0  0  0  0  0  0
   50.8968   35.8682   42.7270 H   0  0  0  0  0  0  0  0  0  0  0  0
   50.8229   34.1626   43.2447 H   0  0  0  0  0  0  0  0  0  0  0  0
   45.9228   34.4780   45.5419 H   0  0  0  0  0  0  0  0  0  0  0  0
   46.8797   31.0910   42.9612 H   0  0  0  0  0  0  0  0  0  0  0  0
   47.8282   32.5269   48.7097 H   0  0  0  0  0  0  0  0  0  0  0  0
   48.8615   31.2943   50.6251 H   0  0  0  0  0  0  0  0  0  0  0  0
   49.3853   27.8962   48.1803 H   0  0  0  0  0  0  0  0  0  0  0  0
  1  7  1  6
  1  2  1  0
  1 15  1  0
  3  2  2  0
  4  3  1  0
  5  4  1  0
  5  6  1  0
  6  1  1  0
  7  9  1  0
  8  7  2  0
 10  9  1  0
 10 12  1  0
 11 10  2  0
 13 11  1  0
 14 19  2  0
 15 14  1  0
 16 15  2  0
 16 17  1  0
 17 18  2  0
 18 19  1  0
 18 20  1  0
 20 21  2  0
 21 22  1  0
 23 22  2  0
 24 23  1  0
 25 20  1  0
 25 24  2  0
  2 26  1  0
  3 27  1  0
  4 28  1  0
  4 29  1  0
  5 30  1  0
  5 31  1  0
  6 32  1  0
  6 33  1  0
  9 34  1  0
 12 35  1  0
 12 36  1  0
 14 37  1  0
 16 38  1  0
 21 39  1  0
 22 40  1  0
 24 41  1  0
M  ISO  8  26  13  27  13  28  13  29  13  30  13  31  13  32  13  33  13
M  ISO  5  37  14  38  14  39  14  40  14  41  14
M  END
>  <minimizedAffinity>  (1) 
-5.783741

>  <minimizedRMSD>  (1) 
1.76200724

$$$$
