
     RDKit          3D

 23 25  0  0  0  0  0  0  0  0999 V2000
   46.1390   34.3880   42.0430 N   0  0  0  0  0  0  0  0  0  0  0  0
   45.6040   34.1600   40.8260 C   0  0  0  0  0  0  0  0  0  0  0  0
   46.5610   33.9050   39.9340 N   0  0  0  0  0  0  0  0  0  0  0  0
   47.7250   33.9780   40.6200 C   0  0  0  0  0  0  0  0  0  0  0  0
   47.4630   34.2770   41.9300 N   0  0  0  0  0  0  0  0  0  0  0  0
   49.0760   33.7900   40.1590 N   0  0  0  0  0  0  0  0  0  0  0  0
   44.4640   36.0690   44.9310 C   0  0  0  0  0  0  0  0  0  0  0  0
   44.9300   35.8670   43.6330 C   0  0  0  0  0  0  0  0  0  0  0  0
   45.6160   34.7000   43.3330 C   0  0  0  0  0  0  0  0  0  0  0  0
   45.8030   33.7910   44.3320 N   0  0  0  0  0  0  0  0  0  0  0  0
   45.3400   34.0040   45.5900 C   0  0  0  0  0  0  0  0  0  0  0  0
   44.6780   35.1450   45.8640 N   0  0  0  0  0  0  0  0  0  0  0  0
   44.1580   34.2140   40.6390 C   0  0  0  0  0  0  0  0  0  0  0  0
   43.3210   35.2430   40.4260 N   0  0  0  0  0  0  0  0  0  0  0  0
   42.1070   34.8010   40.3200 O   0  0  0  0  0  0  0  0  0  0  0  0
   42.1030   33.4960   40.4560 C   0  0  0  0  0  0  0  0  0  0  0  0
   43.3660   33.1470   40.6510 N   0  0  0  0  0  0  0  0  0  0  0  0
   49.8624   33.8817   40.8178 H   0  0  0  0  0  0  0  0  0  0  0  0
   49.2560   33.5638   39.1704 H   0  0  0  0  0  0  0  0  0  0  0  0
   43.9200   36.9911   45.1836 H   0  0  0  0  0  0  0  0  0  0  0  0
   44.7555   36.6250   42.8552 H   0  0  0  0  0  0  0  0  0  0  0  0
   45.5035   33.2533   46.3772 H   0  0  0  0  0  0  0  0  0  0  0  0
   41.2297   32.8284   40.4162 H   0  0  0  0  0  0  0  0  0  0  0  0
  1  9  1  0
  2  1  1  0
  3  4  1  0
  3  2  2  0
  4  5  2  0
  5  1  1  0
  6  4  1  0
  7 12  2  0
  8  7  1  0
  9  8  2  0
  9 10  1  0
 10 11  2  0
 11 12  1  0
 13 17  1  0
 13  2  1  0
 14 13  2  0
 15 14  1  0
 15 16  1  0
 16 17  2  0
  6 18  1  0
  6 19  1  0
  7 20  1  0
  8 21  1  0
 11 22  1  0
 16 23  1  0
M  ISO  4  20  14  21  14  22  14  23  14
M  END
>  <minimizedAffinity>  (1) 
-4.7855196

>  <minimizedRMSD>  (1) 
1.33437932

$$$$
