
     RDKit          3D

 29 30  0  0  1  0  0  0  0  0999 V2000
   46.0560   35.2610   42.7820 C   0  0  2  0  0  0  0  0  0  0  0  0
   44.8840   36.1330   42.9030 C   0  0  0  0  0  0  0  0  0  0  0  0
   43.8020   35.5860   41.9660 C   0  0  0  0  0  0  0  0  0  0  0  0
   44.3270   34.2950   41.3890 C   0  0  2  0  0  0  0  0  0  0  0  0
   45.8010   34.4510   41.4820 C   0  0  0  0  0  0  0  0  0  0  0  0
   46.2650   34.2570   43.8370 C   0  0  0  0  0  0  0  0  0  0  0  0
   45.5300   34.3590   45.0330 C   0  0  0  0  0  0  0  0  0  0  0  0
   45.7000   33.4050   46.0340 C   0  0  0  0  0  0  0  0  0  0  0  0
   46.6020   32.4000   45.7760 N   0  0  0  0  0  0  0  0  0  0  0  0
   47.2950   32.3280   44.6170 C   0  0  0  0  0  0  0  0  0  0  0  0
   47.1240   33.2490   43.6610 N   0  0  0  0  0  0  0  0  0  0  0  0
   43.8160   34.0000   40.0230 C   0  0  0  0  0  0  0  0  0  0  0  0
   42.6870   35.0030   39.7580 C   0  0  0  0  0  0  0  0  0  0  0  0
   46.9391   35.9156   42.8224 H   0  0  0  0  0  0  0  0  0  0  0  0
   44.5189   36.1290   43.9406 H   0  0  0  0  0  0  0  0  0  0  0  0
   45.1423   37.1676   42.6331 H   0  0  0  0  0  0  0  0  0  0  0  0
   42.8753   35.3988   42.5282 H   0  0  0  0  0  0  0  0  0  0  0  0
   43.5737   36.3076   41.1678 H   0  0  0  0  0  0  0  0  0  0  0  0
   43.9772   33.4087   41.9386 H   0  0  0  0  0  0  0  0  0  0  0  0
   46.2880   33.4665   41.5417 H   0  0  0  0  0  0  0  0  0  0  0  0
   46.2121   34.9611   40.5983 H   0  0  0  0  0  0  0  0  0  0  0  0
   44.8233   35.1896   45.1770 H   0  0  0  0  0  0  0  0  0  0  0  0
   45.1420   33.4533   46.9807 H   0  0  0  0  0  0  0  0  0  0  0  0
   48.0064   31.5042   44.4583 H   0  0  0  0  0  0  0  0  0  0  0  0
   44.6185   34.1255   39.2812 H   0  0  0  0  0  0  0  0  0  0  0  0
   43.4551   32.9637   39.9471 H   0  0  0  0  0  0  0  0  0  0  0  0
   42.2830   35.3619   40.7161 H   0  0  0  0  0  0  0  0  0  0  0  0
   43.0805   35.8548   39.1839 H   0  0  0  0  0  0  0  0  0  0  0  0
   41.8875   34.5119   39.1839 H   0  0  0  0  0  0  0  0  0  0  0  0
  1  2  1  0
  1  6  1  0
  3  2  1  0
  4  5  1  0
  4  3  1  0
  5  1  1  0
  6  7  2  0
  7  8  1  0
  9  8  2  0
 10  9  1  0
 11  6  1  0
 11 10  2  0
 12  4  1  0
 13 12  1  0
  1 14  1  6
  2 15  1  0
  2 16  1  0
  3 17  1  0
  3 18  1  0
  4 19  1  1
  5 20  1  0
  5 21  1  0
  7 22  1  0
  8 23  1  0
 10 24  1  0
 12 25  1  0
 12 26  1  0
 13 27  1  0
 13 28  1  0
 13 29  1  0
M  ISO  8  14  13  15  13  16  13  17  13  18  13  19  13  20  13  21  13
M  ISO  8  22  14  23  14  24  14  25   8  26   8  27   8  28   8  29   8
M  END
>  <minimizedAffinity>  (1) 
-4.00044298

>  <minimizedRMSD>  (1) 
4.62732267

$$$$
