
     RDKit          3D

 44 46  0  0  1  0  0  0  0  0999 V2000
   45.7610   33.6860   43.0370 C   0  0  1  0  0  0  0  0  0  0  0  0
   45.5980   35.1060   43.4630 C   0  0  0  0  0  0  0  0  0  0  0  0
   44.6850   35.8980   42.7000 C   0  0  0  0  0  0  0  0  0  0  0  0
   43.9580   35.3860   41.5740 C   0  0  0  0  0  0  0  0  0  0  0  0
   44.0910   33.9630   41.2890 C   0  0  0  0  0  0  0  0  0  0  0  0
   44.4570   33.1730   42.4990 C   0  0  0  0  0  0  0  0  0  0  0  0
   46.8380   33.7290   41.9450 C   0  0  0  0  0  0  0  0  0  0  0  0
   46.8770   33.7060   40.6730 O   0  0  0  0  0  0  0  0  0  0  0  0
   48.1880   33.8220   42.5300 N   0  0  0  0  0  0  0  0  0  0  0  0
   48.9880   34.9330   42.3940 C   0  0  0  0  0  0  0  0  0  0  0  0
   48.7750   36.0370   41.9460 N   0  0  0  0  0  0  0  0  0  0  0  0
   50.3700   34.9850   42.8200 N   0  0  0  0  0  0  0  0  0  0  0  0
   47.9870   36.5290   41.6280 H   0  0  0  0  0  0  0  0  0  0  0  0
   46.3450   33.4810   45.3940 C   0  0  0  0  0  0  0  0  0  0  0  0
   46.3240   32.9120   44.1450 C   0  0  0  0  0  0  0  0  0  0  0  0
   46.8970   31.5890   43.9770 C   0  0  0  0  0  0  0  0  0  0  0  0
   47.4220   30.9890   45.0460 N   0  0  0  0  0  0  0  0  0  0  0  0
   47.4220   31.5840   46.2430 C   0  0  0  0  0  0  0  0  0  0  0  0
   46.8910   32.8090   46.4140 N   0  0  0  0  0  0  0  0  0  0  0  0
   48.0310   30.8760   47.3950 C   0  0  0  0  0  0  0  0  0  0  0  0
   48.2150   31.5490   48.5950 C   0  0  0  0  0  0  0  0  0  0  0  0
   48.7930   30.8630   49.6690 C   0  0  0  0  0  0  0  0  0  0  0  0
   49.1640   29.5780   49.5450 N   0  0  0  0  0  0  0  0  0  0  0  0
   48.9760   28.9510   48.3770 C   0  0  0  0  0  0  0  0  0  0  0  0
   48.4170   29.5850   47.3100 N   0  0  0  0  0  0  0  0  0  0  0  0
   49.3630   27.5220   48.1620 C   0  0  0  0  0  0  0  0  0  0  0  0
   46.1508   35.5215   44.3185 H   0  0  0  0  0  0  0  0  0  0  0  0
   44.5327   36.9483   42.9894 H   0  0  0  0  0  0  0  0  0  0  0  0
   42.8913   35.5909   41.7474 H   0  0  0  0  0  0  0  0  0  0  0  0
   44.3930   35.8930   40.7001 H   0  0  0  0  0  0  0  0  0  0  0  0
   43.1323   33.5895   40.8999 H   0  0  0  0  0  0  0  0  0  0  0  0
   44.8992   33.8425   40.5526 H   0  0  0  0  0  0  0  0  0  0  0  0
   43.6733   33.2829   43.2630 H   0  0  0  0  0  0  0  0  0  0  0  0
   44.5547   32.1096   42.2350 H   0  0  0  0  0  0  0  0  0  0  0  0
   48.5486   33.0189   43.0647 H   0  0  0  0  0  0  0  0  0  0  0  0
   50.9168   35.8482   42.6903 H   0  0  0  0  0  0  0  0  0  0  0  0
   50.8069   34.1588   43.2529 H   0  0  0  0  0  0  0  0  0  0  0  0
   45.9165   34.4812   45.5550 H   0  0  0  0  0  0  0  0  0  0  0  0
   46.8982   31.0946   42.9944 H   0  0  0  0  0  0  0  0  0  0  0  0
   47.9123   32.6013   48.6997 H   0  0  0  0  0  0  0  0  0  0  0  0
   48.9454   31.3825   50.6266 H   0  0  0  0  0  0  0  0  0  0  0  0
   49.4968   27.0279   49.1356 H   0  0  0  0  0  0  0  0  0  0  0  0
   48.5715   27.0089   47.5961 H   0  0  0  0  0  0  0  0  0  0  0  0
   50.3053   27.4785   47.5961 H   0  0  0  0  0  0  0  0  0  0  0  0
  1  7  1  6
  1  2  1  0
  1 15  1  0
  3  2  2  0
  4  3  1  0
  5  4  1  0
  5  6  1  0
  6  1  1  0
  7  9  1  0
  8  7  2  0
 10  9  1  0
 10 12  1  0
 11 10  2  0
 13 11  1  0
 14 19  2  0
 15 14  1  0
 16 15  2  0
 16 17  1  0
 17 18  2  0
 18 19  1  0
 18 20  1  0
 20 21  2  0
 21 22  1  0
 23 22  2  0
 24 23  1  0
 25 20  1  0
 25 24  2  0
 26 24  1  0
  2 27  1  0
  3 28  1  0
  4 29  1  0
  4 30  1  0
  5 31  1  0
  5 32  1  0
  6 33  1  0
  6 34  1  0
  9 35  1  0
 12 36  1  0
 12 37  1  0
 14 38  1  0
 16 39  1  0
 21 40  1  0
 22 41  1  0
 26 42  1  0
 26 43  1  0
 26 44  1  0
M  ISO  8  27  13  28  13  29  13  30  13  31  13  32  13  33  13  34  13
M  ISO  7  38  14  39  14  40  14  41  14  42   8  43   8  44   8
M  END
>  <minimizedAffinity>  (1) 
-5.9202857

>  <minimizedRMSD>  (1) 
0.0511993878

$$$$
