
     RDKit          3D

 47 49  0  0  1  0  0  0  0  0999 V2000
   45.7690   33.6750   43.0410 C   0  0  1  0  0  0  0  0  0  0  0  0
   45.6010   35.0950   43.4620 C   0  0  0  0  0  0  0  0  0  0  0  0
   44.6880   35.8850   42.6980 C   0  0  0  0  0  0  0  0  0  0  0  0
   43.9660   35.3720   41.5680 C   0  0  0  0  0  0  0  0  0  0  0  0
   44.0990   33.9440   41.2920 C   0  0  0  0  0  0  0  0  0  0  0  0
   44.4660   33.1580   42.5020 C   0  0  0  0  0  0  0  0  0  0  0  0
   46.8490   33.7160   41.9490 C   0  0  0  0  0  0  0  0  0  0  0  0
   46.8870   33.6860   40.6780 O   0  0  0  0  0  0  0  0  0  0  0  0
   48.1960   33.8170   42.5360 N   0  0  0  0  0  0  0  0  0  0  0  0
   48.9900   34.9310   42.3950 C   0  0  0  0  0  0  0  0  0  0  0  0
   48.7750   36.0340   41.9470 N   0  0  0  0  0  0  0  0  0  0  0  0
   50.3740   34.9880   42.8200 N   0  0  0  0  0  0  0  0  0  0  0  0
   47.9860   36.5180   41.6140 H   0  0  0  0  0  0  0  0  0  0  0  0
   46.3480   33.4790   45.4000 C   0  0  0  0  0  0  0  0  0  0  0  0
   46.3310   32.9070   44.1520 C   0  0  0  0  0  0  0  0  0  0  0  0
   46.9080   31.5830   43.9880 C   0  0  0  0  0  0  0  0  0  0  0  0
   47.4310   30.9890   45.0600 N   0  0  0  0  0  0  0  0  0  0  0  0
   47.4280   31.5850   46.2560 C   0  0  0  0  0  0  0  0  0  0  0  0
   46.8960   32.8040   46.4210 N   0  0  0  0  0  0  0  0  0  0  0  0
   48.0410   30.8790   47.4080 C   0  0  0  0  0  0  0  0  0  0  0  0
   48.2250   31.5590   48.6040 C   0  0  0  0  0  0  0  0  0  0  0  0
   48.8010   30.8730   49.6820 C   0  0  0  0  0  0  0  0  0  0  0  0
   49.1660   29.5910   49.5610 N   0  0  0  0  0  0  0  0  0  0  0  0
   48.9820   28.9480   48.3960 C   0  0  0  0  0  0  0  0  0  0  0  0
   48.4210   29.5990   47.3310 N   0  0  0  0  0  0  0  0  0  0  0  0
   49.3540   27.5260   48.1650 C   0  0  0  0  0  0  0  0  0  0  0  0
   49.9970   26.9480   49.4290 C   0  0  0  0  0  0  0  0  0  0  0  0
   46.1519   35.5134   44.3173 H   0  0  0  0  0  0  0  0  0  0  0  0
   44.5311   36.9342   42.9888 H   0  0  0  0  0  0  0  0  0  0  0  0
   42.8986   35.5806   41.7330 H   0  0  0  0  0  0  0  0  0  0  0  0
   44.4056   35.8752   40.6942 H   0  0  0  0  0  0  0  0  0  0  0  0
   43.1396   33.5690   40.9061 H   0  0  0  0  0  0  0  0  0  0  0  0
   44.9082   33.8210   40.5571 H   0  0  0  0  0  0  0  0  0  0  0  0
   43.6814   33.2671   43.2652 H   0  0  0  0  0  0  0  0  0  0  0  0
   44.5670   32.0946   42.2393 H   0  0  0  0  0  0  0  0  0  0  0  0
   48.5592   33.0184   43.0757 H   0  0  0  0  0  0  0  0  0  0  0  0
   50.9182   35.8524   42.6875 H   0  0  0  0  0  0  0  0  0  0  0  0
   50.8136   34.1641   43.2546 H   0  0  0  0  0  0  0  0  0  0  0  0
   45.9175   34.4785   45.5604 H   0  0  0  0  0  0  0  0  0  0  0  0
   46.9128   31.0856   43.0069 H   0  0  0  0  0  0  0  0  0  0  0  0
   47.9255   32.6127   48.7035 H   0  0  0  0  0  0  0  0  0  0  0  0
   48.9548   31.3942   50.6384 H   0  0  0  0  0  0  0  0  0  0  0  0
   48.4517   26.9478   47.9168 H   0  0  0  0  0  0  0  0  0  0  0  0
   50.0710   27.4679   47.3328 H   0  0  0  0  0  0  0  0  0  0  0  0
   49.5144   27.3819   50.3172 H   0  0  0  0  0  0  0  0  0  0  0  0
   49.8688   25.8555   49.4389 H   0  0  0  0  0  0  0  0  0  0  0  0
   51.0697   27.1914   49.4389 H   0  0  0  0  0  0  0  0  0  0  0  0
  1  7  1  6
  1  2  1  0
  1 15  1  0
  3  2  2  0
  4  3  1  0
  5  4  1  0
  5  6  1  0
  6  1  1  0
  7  9  1  0
  8  7  2  0
 10  9  1  0
 10 12  1  0
 11 10  2  0
 13 11  1  0
 14 19  2  0
 15 14  1  0
 16 15  2  0
 16 17  1  0
 17 18  2  0
 18 19  1  0
 18 20  1  0
 20 21  2  0
 21 22  1  0
 23 22  2  0
 24 23  1  0
 25 20  1  0
 25 24  2  0
 26 24  1  0
 26 27  1  0
  2 28  1  0
  3 29  1  0
  4 30  1  0
  4 31  1  0
  5 32  1  0
  5 33  1  0
  6 34  1  0
  6 35  1  0
  9 36  1  0
 12 37  1  0
 12 38  1  0
 14 39  1  0
 16 40  1  0
 21 41  1  0
 22 42  1  0
 26 43  1  0
 26 44  1  0
 27 45  1  0
 27 46  1  0
 27 47  1  0
M  ISO  8  28  13  29  13  30  13  31  13  32  13  33  13  34  13  35  13
M  ISO  8  39  14  40  14  41  14  42  14  43   8  44   8  45   8  46   8
M  ISO  1  47   8
M  END
>  <minimizedAffinity>  (1) 
-5.81515503

>  <minimizedRMSD>  (1) 
0.11676456

$$$$
