
     RDKit          3D

 28 30  0  0  1  0  0  0  0  0999 V2000
   47.0770   33.4840   37.3380 C   0  0  2  0  0  0  0  0  0  0  0  0
   48.0940   34.3370   37.9390 C   0  0  0  0  0  0  0  0  0  0  0  0
   48.0700   34.1150   39.4540 C   0  0  0  0  0  0  0  0  0  0  0  0
   47.0490   33.0330   39.7220 C   0  0  2  0  0  0  0  0  0  0  0  0
   46.1690   33.0730   38.5330 C   0  0  0  0  0  0  0  0  0  0  0  0
   47.5080   32.2170   36.7290 C   0  0  0  0  0  0  0  0  0  0  0  0
   48.8260   32.1070   36.2530 C   0  0  0  0  0  0  0  0  0  0  0  0
   49.2560   30.9060   35.6890 C   0  0  0  0  0  0  0  0  0  0  0  0
   48.3360   29.8880   35.6370 N   0  0  0  0  0  0  0  0  0  0  0  0
   47.0750   30.0240   36.1040 C   0  0  0  0  0  0  0  0  0  0  0  0
   46.6590   31.1880   36.6500 N   0  0  0  0  0  0  0  0  0  0  0  0
   46.2440   33.5030   40.9030 C   0  0  0  0  0  0  0  0  0  0  0  0
   45.8020   32.7450   41.9300 N   0  0  0  0  0  0  0  0  0  0  0  0
   45.1480   33.4730   42.7610 O   0  0  0  0  0  0  0  0  0  0  0  0
   45.1450   34.6910   42.3150 C   0  0  0  0  0  0  0  0  0  0  0  0
   45.8240   34.7550   41.1470 N   0  0  0  0  0  0  0  0  0  0  0  0
   46.6385   34.0654   36.5136 H   0  0  0  0  0  0  0  0  0  0  0  0
   49.0845   34.0736   37.5396 H   0  0  0  0  0  0  0  0  0  0  0  0
   47.8906   35.3927   37.7063 H   0  0  0  0  0  0  0  0  0  0  0  0
   49.0620   33.7947   39.8053 H   0  0  0  0  0  0  0  0  0  0  0  0
   47.8095   35.0429   39.9843 H   0  0  0  0  0  0  0  0  0  0  0  0
   47.4778   32.0370   39.9069 H   0  0  0  0  0  0  0  0  0  0  0  0
   45.3677   33.8129   38.6758 H   0  0  0  0  0  0  0  0  0  0  0  0
   45.6879   32.0997   38.3561 H   0  0  0  0  0  0  0  0  0  0  0  0
   49.5138   32.9625   36.3248 H   0  0  0  0  0  0  0  0  0  0  0  0
   50.2794   30.7808   35.3056 H   0  0  0  0  0  0  0  0  0  0  0  0
   46.3779   29.1756   36.0387 H   0  0  0  0  0  0  0  0  0  0  0  0
   44.6621   35.5449   42.8127 H   0  0  0  0  0  0  0  0  0  0  0  0
  1  2  1  0
  1  5  1  0
  2  3  1  0
  3  4  1  0
  4 12  1  0
  5  4  1  0
  6  1  1  0
  7  6  2  0
  8  7  1  0
  9  8  2  0
  9 10  1  0
 10 11  2  0
 11  6  1  0
 12 16  1  0
 12 13  2  0
 13 14  1  0
 15 14  1  0
 16 15  2  0
  1 17  1  6
  2 18  1  0
  2 19  1  0
  3 20  1  0
  3 21  1  0
  4 22  1  1
  5 23  1  0
  5 24  1  0
  7 25  1  0
  8 26  1  0
 10 27  1  0
 15 28  1  0
M  ISO  8  17  13  18  13  19  13  20  13  21  13  22  13  23  13  24  13
M  ISO  4  25  14  26  14  27  14  28  14
M  END
>  <minimizedAffinity>  (1) 
-3.02964616

>  <minimizedRMSD>  (1) 
5.24247408

$$$$
