
     RDKit          3D

 35 38  0  0  1  0  0  0  0  0999 V2000
   45.8050   34.9460   42.0530 C   0  0  2  0  0  0  0  0  0  0  0  0
   47.2270   34.7100   41.9630 C   0  0  0  0  0  0  0  0  0  0  0  0
   47.7270   34.1610   43.3130 C   0  0  0  0  0  0  0  0  0  0  0  0
   46.5220   34.0160   44.1900 C   0  0  1  0  0  0  0  0  0  0  0  0
   45.5460   34.9560   43.6120 C   0  0  0  0  0  0  0  0  0  0  0  0
   44.8620   33.9560   41.5370 C   0  0  0  0  0  0  0  0  0  0  0  0
   45.3440   32.9900   40.6340 C   0  0  0  0  0  0  0  0  0  0  0  0
   44.5070   32.0130   40.1230 C   0  0  0  0  0  0  0  0  0  0  0  0
   43.1930   32.0680   40.5640 N   0  0  0  0  0  0  0  0  0  0  0  0
   42.7580   33.0030   41.4280 C   0  0  0  0  0  0  0  0  0  0  0  0
   43.5930   33.9480   41.9150 N   0  0  0  0  0  0  0  0  0  0  0  0
   45.9100   32.3260   44.3170 S   0  0  0  0  0  0  0  0  0  0  0  0
   46.6820   31.4290   49.0450 N   0  0  0  0  0  0  0  0  0  0  0  0
   45.7690   32.3780   48.7900 C   0  0  0  0  0  0  0  0  0  0  0  0
   45.6480   32.5320   47.4640 N   0  0  0  0  0  0  0  0  0  0  0  0
   46.4920   31.6710   46.8240 C   0  0  0  0  0  0  0  0  0  0  0  0
   46.8170   31.3630   45.4990 C   0  0  0  0  0  0  0  0  0  0  0  0
   47.7580   30.3960   45.2900 N   0  0  0  0  0  0  0  0  0  0  0  0
   48.3440   29.7670   46.3290 C   0  0  0  0  0  0  0  0  0  0  0  0
   48.0610   30.0320   47.6390 N   0  0  0  0  0  0  0  0  0  0  0  0
   47.1330   30.9870   47.8540 C   0  0  0  0  0  0  0  0  0  0  0  0
   45.6170   35.8404   41.4409 H   0  0  0  0  0  0  0  0  0  0  0  0
   47.4303   33.9774   41.1681 H   0  0  0  0  0  0  0  0  0  0  0  0
   47.7471   35.6501   41.7268 H   0  0  0  0  0  0  0  0  0  0  0  0
   48.2113   33.1839   43.1692 H   0  0  0  0  0  0  0  0  0  0  0  0
   48.4675   34.8368   43.7657 H   0  0  0  0  0  0  0  0  0  0  0  0
   46.7504   34.2509   45.2401 H   0  0  0  0  0  0  0  0  0  0  0  0
   45.7005   35.9662   44.0190 H   0  0  0  0  0  0  0  0  0  0  0  0
   44.5130   34.6633   43.8515 H   0  0  0  0  0  0  0  0  0  0  0  0
   46.4009   33.0117   40.3300 H   0  0  0  0  0  0  0  0  0  0  0  0
   44.8592   31.2467   39.4167 H   0  0  0  0  0  0  0  0  0  0  0  0
   41.7043   32.9984   41.7437 H   0  0  0  0  0  0  0  0  0  0  0  0
   46.9815   31.1005   49.9741 H   0  0  0  0  0  0  0  0  0  0  0  0
   45.2076   32.9415   49.5499 H   0  0  0  0  0  0  0  0  0  0  0  0
   49.0950   28.9941   46.1085 H   0  0  0  0  0  0  0  0  0  0  0  0
  1  5  1  0
  2  1  1  0
  2  3  1  0
  3  4  1  0
  4 12  1  0
  5  4  1  0
  6 11  1  0
  6  1  1  0
  7  6  2  0
  8  9  2  0
  8  7  1  0
  9 10  1  0
 10 11  2  0
 12 17  1  0
 14 13  1  0
 15 14  2  0
 16 15  1  0
 16 21  2  0
 17 16  1  0
 18 17  2  0
 18 19  1  0
 19 20  2  0
 20 21  1  0
 21 13  1  0
  1 22  1  6
  2 23  1  0
  2 24  1  0
  3 25  1  0
  3 26  1  0
  4 27  1  1
  5 28  1  0
  5 29  1  0
  7 30  1  0
  8 31  1  0
 10 32  1  0
 13 33  1  0
 14 34  1  0
 19 35  1  0
M  ISO  8  22  13  23  13  24  13  25  13  26  13  27  13  28  13  29  13
M  ISO  6  30  14  31  14  32  14  33   9  34  14  35  14
M  END
>  <minimizedAffinity>  (1) 
-4.72851086

>  <minimizedRMSD>  (1) 
2.48809505

$$$$
