
     RDKit          3D

 32 34  0  0  1  0  0  0  0  0999 V2000
   45.9790   34.8350   41.9130 C   0  0  2  0  0  0  0  0  0  0  0  0
   47.3940   34.7160   41.6680 C   0  0  0  0  0  0  0  0  0  0  0  0
   48.0670   34.1990   42.9530 C   0  0  0  0  0  0  0  0  0  0  0  0
   46.9730   33.9460   43.9590 C   0  0  1  0  0  0  0  0  0  0  0  0
   45.8860   34.8220   43.4900 C   0  0  0  0  0  0  0  0  0  0  0  0
   45.0570   33.7860   41.4910 C   0  0  0  0  0  0  0  0  0  0  0  0
   45.5060   32.8960   40.4910 C   0  0  0  0  0  0  0  0  0  0  0  0
   44.6940   31.8590   40.0480 C   0  0  0  0  0  0  0  0  0  0  0  0
   43.4480   31.7830   40.6550 N   0  0  0  0  0  0  0  0  0  0  0  0
   43.0490   32.6410   41.5990 C   0  0  0  0  0  0  0  0  0  0  0  0
   43.8500   33.6470   42.0230 N   0  0  0  0  0  0  0  0  0  0  0  0
   46.5270   32.2220   44.1090 S   0  0  0  0  0  0  0  0  0  0  0  0
   45.9860   31.7350   45.7170 C   0  0  0  0  0  0  0  0  0  0  0  0
   45.7480   30.4750   46.2140 C   0  0  0  0  0  0  0  0  0  0  0  0
   45.3240   30.3080   47.5210 C   0  0  0  0  0  0  0  0  0  0  0  0
   45.1370   31.3650   48.3330 N   0  0  0  0  0  0  0  0  0  0  0  0
   45.3760   32.5940   47.8280 C   0  0  0  0  0  0  0  0  0  0  0  0
   45.7890   32.7880   46.5580 N   0  0  0  0  0  0  0  0  0  0  0  0
   45.6636   35.7123   41.3291 H   0  0  0  0  0  0  0  0  0  0  0  0
   47.5705   34.0076   40.8452 H   0  0  0  0  0  0  0  0  0  0  0  0
   47.8131   35.6939   41.3885 H   0  0  0  0  0  0  0  0  0  0  0  0
   48.6103   33.2656   42.7444 H   0  0  0  0  0  0  0  0  0  0  0  0
   48.7891   34.9340   43.3382 H   0  0  0  0  0  0  0  0  0  0  0  0
   47.2730   34.1774   44.9917 H   0  0  0  0  0  0  0  0  0  0  0  0
   46.0174   35.8390   43.8880 H   0  0  0  0  0  0  0  0  0  0  0  0
   44.9046   34.4601   43.8305 H   0  0  0  0  0  0  0  0  0  0  0  0
   46.5090   33.0249   40.0581 H   0  0  0  0  0  0  0  0  0  0  0  0
   45.0156   31.1491   39.2718 H   0  0  0  0  0  0  0  0  0  0  0  0
   42.0482   32.5274   42.0411 H   0  0  0  0  0  0  0  0  0  0  0  0
   45.8953   29.5957   45.5698 H   0  0  0  0  0  0  0  0  0  0  0  0
   45.1366   29.2935   47.9028 H   0  0  0  0  0  0  0  0  0  0  0  0
   45.2285   33.4704   48.4762 H   0  0  0  0  0  0  0  0  0  0  0  0
  1  5  1  0
  2  1  1  0
  2  3  1  0
  3  4  1  0
  4 12  1  0
  5  4  1  0
  6  1  1  0
  6 11  1  0
  7  6  2  0
  8  7  1  0
  8  9  2  0
  9 10  1  0
 10 11  2  0
 12 13  1  0
 13 14  2  0
 13 18  1  0
 14 15  1  0
 15 16  2  0
 17 16  1  0
 18 17  2  0
  1 19  1  6
  2 20  1  0
  2 21  1  0
  3 22  1  0
  3 23  1  0
  4 24  1  1
  5 25  1  0
  5 26  1  0
  7 27  1  0
  8 28  1  0
 10 29  1  0
 14 30  1  0
 15 31  1  0
 17 32  1  0
M  ISO  8  19  13  20  13  21  13  22  13  23  13  24  13  25  13  26  13
M  ISO  6  27  14  28  14  29  14  30  14  31  14  32  14
M  END
>  <minimizedAffinity>  (1) 
-4.12847805

>  <minimizedRMSD>  (1) 
1.19022644

$$$$
