
     RDKit          3D

 31 33  0  0  1  0  0  0  0  0999 V2000
   46.0150   34.6800   41.4230 C   0  0  2  0  0  0  0  0  0  0  0  0
   47.4270   34.5370   41.1610 C   0  0  0  0  0  0  0  0  0  0  0  0
   48.1490   34.3330   42.5040 C   0  0  0  0  0  0  0  0  0  0  0  0
   47.0950   34.3000   43.5750 C   0  0  1  0  0  0  0  0  0  0  0  0
   45.9670   35.0210   42.9630 C   0  0  0  0  0  0  0  0  0  0  0  0
   45.1150   33.5400   41.2790 C   0  0  0  0  0  0  0  0  0  0  0  0
   45.5490   32.4690   40.4770 C   0  0  0  0  0  0  0  0  0  0  0  0
   44.7510   31.3420   40.3110 C   0  0  0  0  0  0  0  0  0  0  0  0
   43.5360   31.3670   40.9800 N   0  0  0  0  0  0  0  0  0  0  0  0
   43.1490   32.4120   41.7420 C   0  0  0  0  0  0  0  0  0  0  0  0
   43.9370   33.4860   41.8870 N   0  0  0  0  0  0  0  0  0  0  0  0
   46.6900   32.6420   44.1310 S   0  0  0  0  0  0  0  0  0  0  0  0
   45.9940   32.8090   45.7890 C   0  0  0  0  0  0  0  0  0  0  0  0
   46.0560   31.9670   46.8810 C   0  0  0  0  0  0  0  0  0  0  0  0
   45.3450   32.6050   47.8780 C   0  0  0  0  0  0  0  0  0  0  0  0
   44.8760   33.7840   47.3990 N   0  0  0  0  0  0  0  0  0  0  0  0
   45.2750   33.9020   46.1260 N   0  0  0  0  0  0  0  0  0  0  0  0
   45.6567   35.3981   40.6707 H   0  0  0  0  0  0  0  0  0  0  0  0
   47.5984   33.6666   40.5106 H   0  0  0  0  0  0  0  0  0  0  0  0
   47.8118   35.4355   40.6564 H   0  0  0  0  0  0  0  0  0  0  0  0
   48.7046   33.3837   42.4927 H   0  0  0  0  0  0  0  0  0  0  0  0
   48.8675   35.1453   42.6883 H   0  0  0  0  0  0  0  0  0  0  0  0
   47.4276   34.7713   44.5116 H   0  0  0  0  0  0  0  0  0  0  0  0
   46.0771   36.1045   43.1179 H   0  0  0  0  0  0  0  0  0  0  0  0
   45.0079   34.7225   43.4114 H   0  0  0  0  0  0  0  0  0  0  0  0
   46.5273   32.5232   39.9771 H   0  0  0  0  0  0  0  0  0  0  0  0
   45.0623   30.4884   39.6910 H   0  0  0  0  0  0  0  0  0  0  0  0
   42.1741   32.3814   42.2505 H   0  0  0  0  0  0  0  0  0  0  0  0
   46.5644   30.9935   46.9437 H   0  0  0  0  0  0  0  0  0  0  0  0
   45.1849   32.2195   48.8957 H   0  0  0  0  0  0  0  0  0  0  0  0
   44.3119   34.4686   47.9225 H   0  0  0  0  0  0  0  0  0  0  0  0
  1  5  1  0
  2  1  1  0
  2  3  1  0
  3  4  1  0
  4 12  1  0
  5  4  1  0
  6  1  1  0
  6 11  1  0
  7  6  2  0
  8  7  1  0
  8  9  2  0
  9 10  1  0
 10 11  2  0
 12 13  1  0
 13 17  2  0
 13 14  1  0
 14 15  2  0
 16 15  1  0
 17 16  1  0
  1 18  1  6
  2 19  1  0
  2 20  1  0
  3 21  1  0
  3 22  1  0
  4 23  1  1
  5 24  1  0
  5 25  1  0
  7 26  1  0
  8 27  1  0
 10 28  1  0
 14 29  1  0
 15 30  1  0
 16 31  1  0
M  ISO  8  18  13  19  13  20  13  21  13  22  13  23  13  24  13  25  13
M  ISO  6  26  14  27  14  28  14  29  14  30  14  31   9
M  END
>  <minimizedAffinity>  (1) 
-4.44695187

>  <minimizedRMSD>  (1) 
0.644287586

$$$$
