
     RDKit          3D

 31 33  0  0  1  0  0  0  0  0999 V2000
   47.7280   35.2390   41.5340 C   0  0  2  0  0  0  0  0  0  0  0  0
   49.0890   35.7200   41.6020 C   0  0  0  0  0  0  0  0  0  0  0  0
   49.8860   34.8110   42.5660 C   0  0  0  0  0  0  0  0  0  0  0  0
   48.9390   33.7190   43.0080 C   0  0  1  0  0  0  0  0  0  0  0  0
   47.6100   34.3120   42.8070 C   0  0  0  0  0  0  0  0  0  0  0  0
   47.3070   34.3840   40.4230 C   0  0  0  0  0  0  0  0  0  0  0  0
   48.1130   34.3460   39.2790 C   0  0  0  0  0  0  0  0  0  0  0  0
   47.7700   33.5380   38.2010 C   0  0  0  0  0  0  0  0  0  0  0  0
   46.6120   32.8050   38.3480 N   0  0  0  0  0  0  0  0  0  0  0  0
   45.8480   32.8560   39.4570 C   0  0  0  0  0  0  0  0  0  0  0  0
   46.2040   33.6500   40.4930 N   0  0  0  0  0  0  0  0  0  0  0  0
   49.2040   32.1620   42.1440 S   0  0  0  0  0  0  0  0  0  0  0  0
   50.7010   32.1530   41.1410 C   0  0  0  0  0  0  0  0  0  0  0  0
   51.4060   30.8840   40.8460 C   0  0  0  0  0  0  0  0  0  0  0  0
   50.5560   31.5100   39.7570 C   0  0  0  0  0  0  0  0  0  0  0  0
   47.1052   36.1400   41.4328 H   0  0  0  0  0  0  0  0  0  0  0  0
   49.5439   35.6876   40.6010 H   0  0  0  0  0  0  0  0  0  0  0  0
   49.1030   36.7578   41.9664 H   0  0  0  0  0  0  0  0  0  0  0  0
   50.7530   34.3753   42.0478 H   0  0  0  0  0  0  0  0  0  0  0  0
   50.2658   35.3806   43.4270 H   0  0  0  0  0  0  0  0  0  0  0  0
   49.0898   33.4181   44.0552 H   0  0  0  0  0  0  0  0  0  0  0  0
   47.3211   34.9067   43.6861 H   0  0  0  0  0  0  0  0  0  0  0  0
   46.8424   33.5365   42.6679 H   0  0  0  0  0  0  0  0  0  0  0  0
   49.0245   34.9600   39.2327 H   0  0  0  0  0  0  0  0  0  0  0  0
   48.3833   33.4869   37.2893 H   0  0  0  0  0  0  0  0  0  0  0  0
   44.9320   32.2502   39.5201 H   0  0  0  0  0  0  0  0  0  0  0  0
   51.0409   33.1144   41.5535 H   0  0  0  0  0  0  0  0  0  0  0  0
   52.5016   30.8783   40.7478 H   0  0  0  0  0  0  0  0  0  0  0  0
   51.4376   29.8931   41.3227 H   0  0  0  0  0  0  0  0  0  0  0  0
   51.0307   31.9709   38.8783 H   0  0  0  0  0  0  0  0  0  0  0  0
   49.7187   31.1819   39.1236 H   0  0  0  0  0  0  0  0  0  0  0  0
  1  2  1  0
  1  5  1  0
  2  3  1  0
  3  4  1  0
  5  4  1  0
  6 11  1  0
  6  1  1  0
  7  6  2  0
  8  9  2  0
  8  7  1  0
  9 10  1  0
 10 11  2  0
 12  4  1  0
 13 12  1  0
 14 13  1  0
 15 14  1  0
 15 13  1  0
  1 16  1  1
  2 17  1  0
  2 18  1  0
  3 19  1  0
  3 20  1  0
  4 21  1  1
  5 22  1  0
  5 23  1  0
  7 24  1  0
  8 25  1  0
 10 26  1  0
 13 27  1  0
 14 28  1  0
 14 29  1  0
 15 30  1  0
 15 31  1  0
M  ISO  8  16  13  17  13  18  13  19  13  20  13  21  13  22  13  23  13
M  ISO  8  24  14  25  14  26  14  27  13  28  13  29  13  30  13  31  13
M  END
>  <minimizedAffinity>  (1) 
-4.05197763

>  <minimizedRMSD>  (1) 
3.03357577

$$$$
