
     RDKit          3D

 30 32  0  0  1  0  0  0  0  0999 V2000
   46.6370   34.4140   41.4360 C   0  0  2  0  0  0  0  0  0  0  0  0
   47.3720   33.1720   41.4000 C   0  0  0  0  0  0  0  0  0  0  0  0
   47.7170   32.7730   42.8460 C   0  0  0  0  0  0  0  0  0  0  0  0
   47.1050   33.8060   43.7480 C   0  0  1  0  0  0  0  0  0  0  0  0
   46.9560   34.9820   42.8720 C   0  0  0  0  0  0  0  0  0  0  0  0
   45.1750   34.4090   41.3530 C   0  0  0  0  0  0  0  0  0  0  0  0
   44.5530   33.2840   40.7990 C   0  0  0  0  0  0  0  0  0  0  0  0
   43.1690   33.2100   40.7100 C   0  0  0  0  0  0  0  0  0  0  0  0
   42.4840   34.3120   41.2000 N   0  0  0  0  0  0  0  0  0  0  0  0
   43.1110   35.3810   41.7270 C   0  0  0  0  0  0  0  0  0  0  0  0
   44.4640   35.4310   41.8050 N   0  0  0  0  0  0  0  0  0  0  0  0
   45.5780   33.2760   44.5230 S   0  0  0  0  0  0  0  0  0  0  0  0
   45.9940   32.6950   46.1630 C   0  0  0  0  0  0  0  0  0  0  0  0
   45.2130   32.9860   47.4900 C   0  0  0  0  0  0  0  0  0  0  0  0
   46.2600   32.0560   48.6850 S   0  0  0  0  0  0  0  0  0  0  0  0
   47.4620   31.4840   47.3300 C   0  0  0  0  0  0  0  0  0  0  0  0
   47.0790   31.9280   46.3200 N   0  0  0  0  0  0  0  0  0  0  0  0
   46.9490   34.9616   40.5344 H   0  0  0  0  0  0  0  0  0  0  0  0
   46.7559   32.3884   40.9348 H   0  0  0  0  0  0  0  0  0  0  0  0
   48.2926   33.2932   40.8102 H   0  0  0  0  0  0  0  0  0  0  0  0
   47.3011   31.7802   43.0728 H   0  0  0  0  0  0  0  0  0  0  0  0
   48.8066   32.7249   42.9891 H   0  0  0  0  0  0  0  0  0  0  0  0
   47.7327   34.0197   44.6257 H   0  0  0  0  0  0  0  0  0  0  0  0
   47.8879   35.5662   42.8540 H   0  0  0  0  0  0  0  0  0  0  0  0
   46.1591   35.6518   43.2274 H   0  0  0  0  0  0  0  0  0  0  0  0
   45.1672   32.4493   40.4301 H   0  0  0  0  0  0  0  0  0  0  0  0
   42.6524   32.3387   40.2811 H   0  0  0  0  0  0  0  0  0  0  0  0
   42.5159   36.2275   42.1003 H   0  0  0  0  0  0  0  0  0  0  0  0
   44.3006   33.5767   47.6590 H   0  0  0  0  0  0  0  0  0  0  0  0
   48.3520   30.8529   47.4703 H   0  0  0  0  0  0  0  0  0  0  0  0
  1  5  1  0
  2  1  1  0
  2  3  1  0
  3  4  1  0
  4 12  1  0
  5  4  1  0
  6  1  1  0
  6 11  1  0
  7  6  2  0
  8  7  1  0
  8  9  2  0
  9 10  1  0
 10 11  2  0
 12 13  1  0
 13 17  1  0
 13 14  2  0
 14 15  1  0
 16 15  1  0
 17 16  2  0
  1 18  1  6
  2 19  1  0
  2 20  1  0
  3 21  1  0
  3 22  1  0
  4 23  1  1
  5 24  1  0
  5 25  1  0
  7 26  1  0
  8 27  1  0
 10 28  1  0
 14 29  1  0
 16 30  1  0
M  ISO  8  18  13  19  13  20  13  21  13  22  13  23  13  24  13  25  13
M  ISO  5  26  14  27  14  28  14  29  14  30  14
M  END
>  <minimizedAffinity>  (1) 
-4.08964825

>  <minimizedRMSD>  (1) 
2.05846739

$$$$
