
     RDKit          3D

 31 33  0  0  1  0  0  0  0  0999 V2000
   42.1140   33.2890   38.1370 C   0  0  2  0  0  0  0  0  0  0  0  0
   42.0870   31.8450   38.1150 C   0  0  0  0  0  0  0  0  0  0  0  0
   43.1290   31.3220   39.1250 C   0  0  0  0  0  0  0  0  0  0  0  0
   43.7200   32.5180   39.8010 C   0  0  1  0  0  0  0  0  0  0  0  0
   43.4930   33.6090   38.8350 C   0  0  0  0  0  0  0  0  0  0  0  0
   41.1300   34.0370   38.9150 C   0  0  0  0  0  0  0  0  0  0  0  0
   39.9140   33.4000   39.2150 C   0  0  0  0  0  0  0  0  0  0  0  0
   38.9370   34.0440   39.9660 C   0  0  0  0  0  0  0  0  0  0  0  0
   39.2600   35.3280   40.3790 N   0  0  0  0  0  0  0  0  0  0  0  0
   40.4370   35.9130   40.0770 C   0  0  0  0  0  0  0  0  0  0  0  0
   41.3630   35.2730   39.3510 N   0  0  0  0  0  0  0  0  0  0  0  0
   43.0560   32.8680   41.4310 S   0  0  0  0  0  0  0  0  0  0  0  0
   43.9760   34.1410   42.2550 C   0  0  0  0  0  0  0  0  0  0  0  0
   44.0500   35.4990   42.0100 C   0  0  0  0  0  0  0  0  0  0  0  0
   44.9160   36.0410   42.9490 C   0  0  0  0  0  0  0  0  0  0  0  0
   45.3230   34.9660   43.7230 C   0  0  0  0  0  0  0  0  0  0  0  0
   44.7600   33.8850   43.2930 O   0  0  0  0  0  0  0  0  0  0  0  0
   41.9180   33.5970   37.0993 H   0  0  0  0  0  0  0  0  0  0  0  0
   41.0853   31.4880   38.3965 H   0  0  0  0  0  0  0  0  0  0  0  0
   42.3230   31.4784   37.1051 H   0  0  0  0  0  0  0  0  0  0  0  0
   42.6430   30.6706   39.8663 H   0  0  0  0  0  0  0  0  0  0  0  0
   43.9071   30.7331   38.6174 H   0  0  0  0  0  0  0  0  0  0  0  0
   44.7842   32.3616   40.0311 H   0  0  0  0  0  0  0  0  0  0  0  0
   44.3020   33.6349   38.0901 H   0  0  0  0  0  0  0  0  0  0  0  0
   43.4763   34.5906   39.3311 H   0  0  0  0  0  0  0  0  0  0  0  0
   39.7325   32.3780   38.8508 H   0  0  0  0  0  0  0  0  0  0  0  0
   37.9765   33.5691   40.2148 H   0  0  0  0  0  0  0  0  0  0  0  0
   40.6401   36.9337   40.4332 H   0  0  0  0  0  0  0  0  0  0  0  0
   43.5206   36.0484   41.2176 H   0  0  0  0  0  0  0  0  0  0  0  0
   45.2144   37.0944   43.0557 H   0  0  0  0  0  0  0  0  0  0  0  0
   46.0187   35.0239   44.5731 H   0  0  0  0  0  0  0  0  0  0  0  0
  1  5  1  0
  1  6  1  0
  2  1  1  0
  2  3  1  0
  3  4  1  0
  4 12  1  0
  5  4  1  0
  6  7  2  0
  6 11  1  0
  7  8  1  0
  8  9  2  0
 10  9  1  0
 11 10  2  0
 12 13  1  0
 13 17  1  0
 14 13  2  0
 14 15  1  0
 15 16  2  0
 17 16  1  0
  1 18  1  6
  2 19  1  0
  2 20  1  0
  3 21  1  0
  3 22  1  0
  4 23  1  1
  5 24  1  0
  5 25  1  0
  7 26  1  0
  8 27  1  0
 10 28  1  0
 14 29  1  0
 15 30  1  0
 16 31  1  0
M  ISO  8  18  13  19  13  20  13  21  13  22  13  23  13  24  13  25  13
M  ISO  6  26  14  27  14  28  14  29  14  30  14  31  14
M  END
>  <minimizedAffinity>  (1) 
-3.88753152

>  <minimizedRMSD>  (1) 
6.06208134

$$$$
