
     RDKit          3D

 21 22  0  0  0  0  0  0  0  0999 V2000
   45.8840   34.3530   41.9230 N   0  0  0  0  0  0  0  0  0  0  0  0
   45.3390   33.7270   40.8860 C   0  0  0  0  0  0  0  0  0  0  0  0
   46.1670   33.6700   39.8500 N   0  0  0  0  0  0  0  0  0  0  0  0
   47.2990   34.3000   40.2710 C   0  0  0  0  0  0  0  0  0  0  0  0
   47.1140   34.7250   41.5700 N   0  0  0  0  0  0  0  0  0  0  0  0
   48.5550   34.5590   39.5980 N   0  0  0  0  0  0  0  0  0  0  0  0
   44.4720   36.1130   44.9150 C   0  0  0  0  0  0  0  0  0  0  0  0
   44.8470   35.8800   43.5950 C   0  0  0  0  0  0  0  0  0  0  0  0
   45.4620   34.6850   43.2390 C   0  0  0  0  0  0  0  0  0  0  0  0
   45.6770   33.7690   44.2340 N   0  0  0  0  0  0  0  0  0  0  0  0
   45.3040   34.0140   45.5230 C   0  0  0  0  0  0  0  0  0  0  0  0
   44.7090   35.1750   45.8480 N   0  0  0  0  0  0  0  0  0  0  0  0
   43.9860   33.1910   40.9470 C   0  0  0  0  0  0  0  0  0  0  0  0
   43.2930   33.0470   39.9090 O   0  0  0  0  0  0  0  0  0  0  0  0
   43.3420   32.8000   42.0960 O   0  0  0  0  0  0  0  0  0  0  0  0
   49.3089   35.0600   40.0895 H   0  0  0  0  0  0  0  0  0  0  0  0
   48.6944   34.2422   38.6279 H   0  0  0  0  0  0  0  0  0  0  0  0
   43.9846   37.0591   45.1929 H   0  0  0  0  0  0  0  0  0  0  0  0
   44.6557   36.6459   42.8289 H   0  0  0  0  0  0  0  0  0  0  0  0
   45.4909   33.2582   46.3001 H   0  0  0  0  0  0  0  0  0  0  0  0
   42.4190   32.4450   42.0498 H   0  0  0  0  0  0  0  0  0  0  0  0
  1  9  1  0
  2 13  1  0
  2  1  1  0
  3  4  1  0
  3  2  2  0
  4  5  2  0
  5  1  1  0
  6  4  1  0
  7 12  2  0
  8  7  1  0
  9  8  2  0
  9 10  1  0
 10 11  2  0
 11 12  1  0
 13 15  1  0
 14 13  2  0
  6 16  1  0
  6 17  1  0
  7 18  1  0
  8 19  1  0
 11 20  1  0
 15 21  1  0
M  ISO  4  18  14  19  14  20  14  21   3
M  END
>  <minimizedAffinity>  (1) 
-4.36267519

>  <minimizedRMSD>  (1) 
0.344796211

$$$$
