
     RDKit          3D

 37 39  0  0  1  0  0  0  0  0999 V2000
   46.0660   34.6390   41.3320 C   0  0  2  0  0  0  0  0  0  0  0  0
   47.4430   34.5080   40.9170 C   0  0  0  0  0  0  0  0  0  0  0  0
   48.3220   34.2940   42.1660 C   0  0  0  0  0  0  0  0  0  0  0  0
   47.3890   34.2380   43.3320 C   0  0  1  0  0  0  0  0  0  0  0  0
   46.1840   34.9580   42.8720 C   0  0  0  0  0  0  0  0  0  0  0  0
   45.1640   33.4930   41.2700 C   0  0  0  0  0  0  0  0  0  0  0  0
   45.5150   32.4290   40.4210 C   0  0  0  0  0  0  0  0  0  0  0  0
   44.7190   31.2970   40.3190 C   0  0  0  0  0  0  0  0  0  0  0  0
   43.5760   31.3040   41.1040 N   0  0  0  0  0  0  0  0  0  0  0  0
   43.2660   32.3350   41.9060 C   0  0  0  0  0  0  0  0  0  0  0  0
   44.0510   33.4180   41.9880 N   0  0  0  0  0  0  0  0  0  0  0  0
   47.0390   32.5700   43.9210 S   0  0  0  0  0  0  0  0  0  0  0  0
   46.8710   32.4530   45.7030 C   0  0  0  0  0  0  0  0  0  0  0  0
   45.8050   33.3900   46.2330 C   0  0  0  0  0  0  0  0  0  0  0  0
   45.3710   32.7290   47.5220 C   0  0  0  0  0  0  0  0  0  0  0  0
   45.7600   31.2740   47.4030 C   0  0  0  0  0  0  0  0  0  0  0  0
   46.1770   31.1150   45.9790 C   0  0  0  0  0  0  0  0  0  0  0  0
   45.6234   35.3654   40.6346 H   0  0  0  0  0  0  0  0  0  0  0  0
   47.5448   33.6458   40.2415 H   0  0  0  0  0  0  0  0  0  0  0  0
   47.7615   35.4185   40.3882 H   0  0  0  0  0  0  0  0  0  0  0  0
   48.8817   33.3509   42.0806 H   0  0  0  0  0  0  0  0  0  0  0  0
   49.0568   35.1045   42.2810 H   0  0  0  0  0  0  0  0  0  0  0  0
   47.8375   34.7035   44.2220 H   0  0  0  0  0  0  0  0  0  0  0  0
   46.2977   36.0402   43.0330 H   0  0  0  0  0  0  0  0  0  0  0  0
   45.2855   34.6450   43.4240 H   0  0  0  0  0  0  0  0  0  0  0  0
   46.4380   32.4950   39.8263 H   0  0  0  0  0  0  0  0  0  0  0  0
   44.9766   30.4535   39.6617 H   0  0  0  0  0  0  0  0  0  0  0  0
   42.3473   32.2898   42.5092 H   0  0  0  0  0  0  0  0  0  0  0  0
   47.8661   32.6304   46.1370 H   0  0  0  0  0  0  0  0  0  0  0  0
   46.2194   34.3910   46.4235 H   0  0  0  0  0  0  0  0  0  0  0  0
   44.9756   33.5422   45.5266 H   0  0  0  0  0  0  0  0  0  0  0  0
   45.8831   33.1915   48.3787 H   0  0  0  0  0  0  0  0  0  0  0  0
   44.2891   32.8420   47.6852 H   0  0  0  0  0  0  0  0  0  0  0  0
   46.5932   31.0374   48.0811 H   0  0  0  0  0  0  0  0  0  0  0  0
   44.9373   30.5970   47.6764 H   0  0  0  0  0  0  0  0  0  0  0  0
   45.3073   30.9719   45.3208 H   0  0  0  0  0  0  0  0  0  0  0  0
   46.8146   30.2372   45.7974 H   0  0  0  0  0  0  0  0  0  0  0  0
  1  5  1  0
  2  1  1  0
  2  3  1  0
  3  4  1  0
  4 12  1  0
  5  4  1  0
  6  1  1  0
  6 11  1  0
  7  6  2  0
  8  7  1  0
  8  9  2  0
  9 10  1  0
 10 11  2  0
 12 13  1  0
 13 17  1  0
 13 14  1  0
 14 15  1  0
 16 15  1  0
 17 16  1  0
  1 18  1  6
  2 19  1  0
  2 20  1  0
  3 21  1  0
  3 22  1  0
  4 23  1  1
  5 24  1  0
  5 25  1  0
  7 26  1  0
  8 27  1  0
 10 28  1  0
 13 29  1  0
 14 30  1  0
 14 31  1  0
 15 32  1  0
 15 33  1  0
 16 34  1  0
 16 35  1  0
 17 36  1  0
 17 37  1  0
M  ISO  8  18  13  19  13  20  13  21  13  22  13  23  13  24  13  25  13
M  ISO  8  26  14  27  14  28  14  29  13  30  13  31  13  32  13  33  13
M  ISO  4  34  13  35  13  36  13  37  13
M  END
>  <minimizedAffinity>  (1) 
-3.96860218

>  <minimizedRMSD>  (1) 
0.645701587

$$$$
