
     RDKit          3D

 33 34  0  0  1  0  0  0  0  0999 V2000
   47.8230   35.1230   41.5620 C   0  0  2  0  0  0  0  0  0  0  0  0
   49.1220   35.7290   41.7330 C   0  0  0  0  0  0  0  0  0  0  0  0
   50.0110   34.7550   42.5120 C   0  0  0  0  0  0  0  0  0  0  0  0
   49.2160   33.5080   42.7570 C   0  0  1  0  0  0  0  0  0  0  0  0
   47.8170   33.9710   42.6400 C   0  0  0  0  0  0  0  0  0  0  0  0
   47.4980   34.4520   40.3080 C   0  0  0  0  0  0  0  0  0  0  0  0
   48.3280   34.6440   39.2050 C   0  0  0  0  0  0  0  0  0  0  0  0
   48.0770   34.0170   37.9940 C   0  0  0  0  0  0  0  0  0  0  0  0
   46.9630   33.2020   37.9670 N   0  0  0  0  0  0  0  0  0  0  0  0
   46.1760   33.0280   39.0320 C   0  0  0  0  0  0  0  0  0  0  0  0
   46.4330   33.6430   40.1970 N   0  0  0  0  0  0  0  0  0  0  0  0
   49.6210   32.1700   41.6150 S   0  0  0  0  0  0  0  0  0  0  0  0
   48.8210   30.6320   42.0830 C   0  0  0  0  0  0  0  0  0  0  0  0
   47.4410   30.4520   41.5500 C   0  0  0  0  0  0  0  0  0  0  0  0
   48.8100   30.5440   43.5960 C   0  0  0  0  0  0  0  0  0  0  0  0
   47.1002   35.9499   41.6241 H   0  0  0  0  0  0  0  0  0  0  0  0
   49.5688   35.9340   40.7489 H   0  0  0  0  0  0  0  0  0  0  0  0
   49.0274   36.6769   42.2830 H   0  0  0  0  0  0  0  0  0  0  0  0
   50.9100   34.5167   41.9246 H   0  0  0  0  0  0  0  0  0  0  0  0
   50.3292   35.2023   43.4652 H   0  0  0  0  0  0  0  0  0  0  0  0
   49.4305   33.0560   43.7366 H   0  0  0  0  0  0  0  0  0  0  0  0
   47.4605   34.3555   43.6070 H   0  0  0  0  0  0  0  0  0  0  0  0
   47.1465   33.1502   42.3456 H   0  0  0  0  0  0  0  0  0  0  0  0
   49.2008   35.3071   39.2971 H   0  0  0  0  0  0  0  0  0  0  0  0
   48.7219   34.1593   37.1143 H   0  0  0  0  0  0  0  0  0  0  0  0
   45.2999   32.3676   38.9528 H   0  0  0  0  0  0  0  0  0  0  0  0
   49.4059   29.8194   41.6273 H   0  0  0  0  0  0  0  0  0  0  0  0
   46.7337   30.3597   42.3874 H   0  0  0  0  0  0  0  0  0  0  0  0
   47.1692   31.3223   40.9346 H   0  0  0  0  0  0  0  0  0  0  0  0
   47.4015   29.5411   40.9346 H   0  0  0  0  0  0  0  0  0  0  0  0
   48.9358   31.5500   44.0227 H   0  0  0  0  0  0  0  0  0  0  0  0
   47.8519   30.1205   43.9317 H   0  0  0  0  0  0  0  0  0  0  0  0
   49.6343   29.8976   43.9317 H   0  0  0  0  0  0  0  0  0  0  0  0
  1  2  1  0
  1  5  1  0
  2  3  1  0
  3  4  1  0
  5  4  1  0
  6  1  1  0
  7  6  2  0
  8  7  1  0
  9  8  2  0
  9 10  1  0
 10 11  2  0
 11  6  1  0
 12 13  1  0
 12  4  1  0
 13 15  1  0
 14 13  1  0
  1 16  1  1
  2 17  1  0
  2 18  1  0
  3 19  1  0
  3 20  1  0
  4 21  1  1
  5 22  1  0
  5 23  1  0
  7 24  1  0
  8 25  1  0
 10 26  1  0
 13 27  1  0
 14 28  1  0
 14 29  1  0
 14 30  1  0
 15 31  1  0
 15 32  1  0
 15 33  1  0
M  ISO  8  16  13  17  13  18  13  19  13  20  13  21  13  22  13  23  13
M  ISO  8  24  14  25  14  26  14  27   8  28   8  29   8  30   8  31   8
M  ISO  2  32   8  33   8
M  END
>  <minimizedAffinity>  (1) 
-3.91238928

>  <minimizedRMSD>  (1) 
3.57236362

$$$$
