
     RDKit          3D

 33 34  0  0  1  0  0  0  0  0999 V2000
   44.5220   35.4540   43.3650 C   0  0  1  0  0  0  0  0  0  0  0  0
   45.3520   34.5100   44.1870 C   0  0  0  0  0  0  0  0  0  0  0  0
   46.4120   33.8790   43.4950 C   0  0  0  0  0  0  0  0  0  0  0  0
   47.2360   32.9890   44.1780 C   0  0  0  0  0  0  0  0  0  0  0  0
   46.9540   32.7860   45.5000 N   0  0  0  0  0  0  0  0  0  0  0  0
   45.9360   33.4030   46.1320 C   0  0  0  0  0  0  0  0  0  0  0  0
   45.1340   34.2660   45.4750 N   0  0  0  0  0  0  0  0  0  0  0  0
   45.1520   36.8380   43.2960 C   0  0  0  0  0  0  0  0  0  0  0  0
   44.2880   34.9040   41.9780 C   0  0  0  0  0  0  0  0  0  0  0  0
   43.4300   35.8360   41.3560 O   0  0  0  0  0  0  0  0  0  0  0  0
   42.2900   35.1690   40.8580 C   0  0  0  0  0  0  0  0  0  0  0  0
   41.0260   35.8700   41.3030 C   0  0  0  0  0  0  0  0  0  0  0  0
   40.0220   35.5560   40.2060 C   0  0  0  0  0  0  0  0  0  0  0  0
   40.8450   35.4950   38.9280 C   0  0  0  0  0  0  0  0  0  0  0  0
   42.2470   35.1440   39.3640 C   0  0  0  0  0  0  0  0  0  0  0  0
   43.5474   35.5543   43.8650 H   0  0  0  0  0  0  0  0  0  0  0  0
   46.5833   34.0893   42.4290 H   0  0  0  0  0  0  0  0  0  0  0  0
   48.0713   32.4754   43.6794 H   0  0  0  0  0  0  0  0  0  0  0  0
   45.7567   33.2001   47.1981 H   0  0  0  0  0  0  0  0  0  0  0  0
   45.3232   37.2142   44.3154 H   0  0  0  0  0  0  0  0  0  0  0  0
   46.1115   36.7779   42.7614 H   0  0  0  0  0  0  0  0  0  0  0  0
   44.4766   37.5221   42.7614 H   0  0  0  0  0  0  0  0  0  0  0  0
   45.2373   34.8253   41.4280 H   0  0  0  0  0  0  0  0  0  0  0  0
   43.8534   33.8938   42.0018 H   0  0  0  0  0  0  0  0  0  0  0  0
   42.3535   34.1436   41.2511 H   0  0  0  0  0  0  0  0  0  0  0  0
   40.6820   35.4774   42.2712 H   0  0  0  0  0  0  0  0  0  0  0  0
   41.1708   36.9510   41.4459 H   0  0  0  0  0  0  0  0  0  0  0  0
   39.5303   34.5906   40.3961 H   0  0  0  0  0  0  0  0  0  0  0  0
   39.2226   36.3094   40.1482 H   0  0  0  0  0  0  0  0  0  0  0  0
   40.8343   36.4694   38.4176 H   0  0  0  0  0  0  0  0  0  0  0  0
   40.4422   34.7562   38.2195 H   0  0  0  0  0  0  0  0  0  0  0  0
   42.5099   34.1397   39.0004 H   0  0  0  0  0  0  0  0  0  0  0  0
   42.9662   35.8663   38.9504 H   0  0  0  0  0  0  0  0  0  0  0  0
  1  2  1  0
  2  7  2  0
  3  4  2  0
  3  2  1  0
  4  5  1  0
  5  6  2  0
  7  6  1  0
  8  1  1  0
  9  1  1  0
 10  9  1  0
 11 12  1  0
 11 10  1  0
 13 12  1  0
 14 15  1  0
 14 13  1  0
 15 11  1  0
  1 16  1  1
  3 17  1  0
  4 18  1  0
  6 19  1  0
  8 20  1  0
  8 21  1  0
  8 22  1  0
  9 23  1  0
  9 24  1  0
 11 25  1  0
 12 26  1  0
 12 27  1  0
 13 28  1  0
 13 29  1  0
 14 30  1  0
 14 31  1  0
 15 32  1  0
 15 33  1  0
M  ISO  8  16   8  17  14  18  14  19  14  20   8  21   8  22   8  23   8
M  ISO  8  24   8  25  13  26  13  27  13  28  13  29  13  30  13  31  13
M  ISO  2  32  13  33  13
M  END
>  <minimizedAffinity>  (1) 
-4.58987713

>  <minimizedRMSD>  (1) 
0.653807998

$$$$
