
     RDKit          3D

 27 28  0  0  1  0  0  0  0  0999 V2000
   44.5620   35.7330   43.3770 C   0  0  1  0  0  0  0  0  0  0  0  0
   45.3790   34.7210   44.1170 C   0  0  0  0  0  0  0  0  0  0  0  0
   46.4530   34.1350   43.3980 C   0  0  0  0  0  0  0  0  0  0  0  0
   47.2530   33.1910   44.0170 C   0  0  0  0  0  0  0  0  0  0  0  0
   46.9460   32.8810   45.3110 N   0  0  0  0  0  0  0  0  0  0  0  0
   45.9230   33.4470   45.9790 C   0  0  0  0  0  0  0  0  0  0  0  0
   45.1460   34.3630   45.3770 N   0  0  0  0  0  0  0  0  0  0  0  0
   45.1990   37.1170   43.4260 C   0  0  0  0  0  0  0  0  0  0  0  0
   44.3610   35.3020   41.9480 C   0  0  0  0  0  0  0  0  0  0  0  0
   43.1590   34.5600   41.9400 O   0  0  0  0  0  0  0  0  0  0  0  0
   42.1690   35.0480   41.0690 C   0  0  0  0  0  0  0  0  0  0  0  0
   41.7760   34.9400   39.7470 C   0  0  0  0  0  0  0  0  0  0  0  0
   40.6870   35.7260   39.6050 N   0  0  0  0  0  0  0  0  0  0  0  0
   40.4010   36.3020   40.7660 C   0  0  0  0  0  0  0  0  0  0  0  0
   41.3120   35.8940   41.6970 N   0  0  0  0  0  0  0  0  0  0  0  0
   43.5831   35.7973   43.8747 H   0  0  0  0  0  0  0  0  0  0  0  0
   46.6480   34.4291   42.3562 H   0  0  0  0  0  0  0  0  0  0  0  0
   48.0943   32.7140   43.4929 H   0  0  0  0  0  0  0  0  0  0  0  0
   45.7227   33.1584   47.0214 H   0  0  0  0  0  0  0  0  0  0  0  0
   45.3383   37.4196   44.4743 H   0  0  0  0  0  0  0  0  0  0  0  0
   46.1751   37.0895   42.9195 H   0  0  0  0  0  0  0  0  0  0  0  0
   44.5433   37.8406   42.9195 H   0  0  0  0  0  0  0  0  0  0  0  0
   44.2746   36.1799   41.2908 H   0  0  0  0  0  0  0  0  0  0  0  0
   45.2092   34.7064   41.5796 H   0  0  0  0  0  0  0  0  0  0  0  0
   42.2561   34.3332   38.9652 H   0  0  0  0  0  0  0  0  0  0  0  0
   39.5663   36.9949   40.9482 H   0  0  0  0  0  0  0  0  0  0  0  0
   41.3435   36.1744   42.6876 H   0  0  0  0  0  0  0  0  0  0  0  0
  1  8  1  0
  1  2  1  0
  2  7  2  0
  3  4  2  0
  3  2  1  0
  4  5  1  0
  5  6  2  0
  7  6  1  0
  9  1  1  0
 10  9  1  0
 11 15  1  0
 11 10  1  0
 12 11  2  0
 13 12  1  0
 13 14  2  0
 14 15  1  0
  1 16  1  1
  3 17  1  0
  4 18  1  0
  6 19  1  0
  8 20  1  0
  8 21  1  0
  8 22  1  0
  9 23  1  0
  9 24  1  0
 12 25  1  0
 14 26  1  0
 15 27  1  0
M  ISO  8  16   8  17  14  18  14  19  14  20   8  21   8  22   8  23   8
M  ISO  4  24   8  25  14  26  14  27   9
M  END
>  <minimizedAffinity>  (1) 
-4.36121941

>  <minimizedRMSD>  (1) 
0.878318846

$$$$
