
     RDKit          3D

 23 23  0  0  1  0  0  0  0  0999 V2000
   44.6600   35.4870   43.3430 C   0  0  1  0  0  0  0  0  0  0  0  0
   45.4360   34.5210   44.1740 C   0  0  0  0  0  0  0  0  0  0  0  0
   46.4910   33.8350   43.5130 C   0  0  0  0  0  0  0  0  0  0  0  0
   47.2600   32.9230   44.2180 C   0  0  0  0  0  0  0  0  0  0  0  0
   46.9320   32.7450   45.5450 N   0  0  0  0  0  0  0  0  0  0  0  0
   45.9380   33.3990   46.1450 C   0  0  0  0  0  0  0  0  0  0  0  0
   45.1840   34.2910   45.4610 N   0  0  0  0  0  0  0  0  0  0  0  0
   45.2340   36.8940   43.4190 C   0  0  0  0  0  0  0  0  0  0  0  0
   44.6170   35.0390   41.9020 C   0  0  0  0  0  0  0  0  0  0  0  0
   43.5520   35.7600   41.3200 O   0  0  0  0  0  0  0  0  0  0  0  0
   42.2490   35.2800   41.4560 C   0  0  0  0  0  0  0  0  0  0  0  0
   41.7200   34.5050   40.6120 O   0  0  0  0  0  0  0  0  0  0  0  0
   41.4430   35.6270   42.5360 O   0  0  0  0  0  0  0  0  0  0  0  0
   43.6389   35.5099   43.7515 H   0  0  0  0  0  0  0  0  0  0  0  0
   46.6955   34.0268   42.4493 H   0  0  0  0  0  0  0  0  0  0  0  0
   48.0861   32.3718   43.7451 H   0  0  0  0  0  0  0  0  0  0  0  0
   45.7278   33.2118   47.2084 H   0  0  0  0  0  0  0  0  0  0  0  0
   45.3528   37.1851   44.4731 H   0  0  0  0  0  0  0  0  0  0  0  0
   46.2137   36.9178   42.9194 H   0  0  0  0  0  0  0  0  0  0  0  0
   44.5505   37.5963   42.9194 H   0  0  0  0  0  0  0  0  0  0  0  0
   45.5647   35.2760   41.3963 H   0  0  0  0  0  0  0  0  0  0  0  0
   44.4729   33.9520   41.8143 H   0  0  0  0  0  0  0  0  0  0  0  0
   40.5226   35.2685   42.6021 H   0  0  0  0  0  0  0  0  0  0  0  0
  1  8  1  0
  1  2  1  0
  2  7  2  0
  3  2  1  0
  3  4  2  0
  4  5  1  0
  5  6  2  0
  7  6  1  0
  9  1  1  0
 10 11  1  0
 10  9  1  0
 11 13  1  0
 12 11  2  0
  1 14  1  1
  3 15  1  0
  4 16  1  0
  6 17  1  0
  8 18  1  0
  8 19  1  0
  8 20  1  0
  9 21  1  0
  9 22  1  0
 13 23  1  0
M  ISO  8  14   8  15  14  16  14  17  14  18   8  19   8  20   8  21   8
M  ISO  2  22   8  23   3
M  END
>  <minimizedAffinity>  (1) 
-3.88967371

>  <minimizedRMSD>  (1) 
1.07042348

$$$$
