
     RDKit          3D

 27 28  0  0  1  0  0  0  0  0999 V2000
   44.5640   35.6730   43.3190 C   0  0  1  0  0  0  0  0  0  0  0  0
   45.3890   34.6780   44.0810 C   0  0  0  0  0  0  0  0  0  0  0  0
   46.4660   34.0780   43.3720 C   0  0  0  0  0  0  0  0  0  0  0  0
   47.2490   33.1550   44.0560 C   0  0  0  0  0  0  0  0  0  0  0  0
   46.9360   32.8830   45.3590 N   0  0  0  0  0  0  0  0  0  0  0  0
   45.9210   33.4630   45.9900 C   0  0  0  0  0  0  0  0  0  0  0  0
   45.1230   34.3720   45.3700 N   0  0  0  0  0  0  0  0  0  0  0  0
   45.1620   37.0690   43.3990 C   0  0  0  0  0  0  0  0  0  0  0  0
   44.4240   35.2370   41.8820 C   0  0  0  0  0  0  0  0  0  0  0  0
   43.1410   34.6400   41.8070 O   0  0  0  0  0  0  0  0  0  0  0  0
   42.1730   35.0760   40.9470 C   0  0  0  0  0  0  0  0  0  0  0  0
   41.0310   35.6430   41.5020 C   0  0  0  0  0  0  0  0  0  0  0  0
   40.1870   36.0120   40.4510 C   0  0  0  0  0  0  0  0  0  0  0  0
   40.8650   35.6470   39.3060 C   0  0  0  0  0  0  0  0  0  0  0  0
   41.9920   35.1180   39.6560 O   0  0  0  0  0  0  0  0  0  0  0  0
   43.5659   35.7133   43.7796 H   0  0  0  0  0  0  0  0  0  0  0  0
   46.6717   34.3345   42.3223 H   0  0  0  0  0  0  0  0  0  0  0  0
   48.0969   32.6573   43.5626 H   0  0  0  0  0  0  0  0  0  0  0  0
   45.7215   33.2013   47.0396 H   0  0  0  0  0  0  0  0  0  0  0  0
   45.2847   37.3554   44.4539 H   0  0  0  0  0  0  0  0  0  0  0  0
   46.1425   37.0770   42.9005 H   0  0  0  0  0  0  0  0  0  0  0  0
   44.4913   37.7843   42.9005 H   0  0  0  0  0  0  0  0  0  0  0  0
   44.4884   36.1028   41.2066 H   0  0  0  0  0  0  0  0  0  0  0  0
   45.2224   34.5435   41.5793 H   0  0  0  0  0  0  0  0  0  0  0  0
   40.8285   35.7769   42.5749 H   0  0  0  0  0  0  0  0  0  0  0  0
   39.1983   36.4891   40.5212 H   0  0  0  0  0  0  0  0  0  0  0  0
   40.5086   35.7825   38.2742 H   0  0  0  0  0  0  0  0  0  0  0  0
  1  8  1  0
  1  2  1  0
  2  7  2  0
  3  4  2  0
  3  2  1  0
  4  5  1  0
  5  6  2  0
  7  6  1  0
  9  1  1  0
 10  9  1  0
 11 12  2  0
 11 10  1  0
 13 12  1  0
 14 15  1  0
 14 13  2  0
 15 11  1  0
  1 16  1  1
  3 17  1  0
  4 18  1  0
  6 19  1  0
  8 20  1  0
  8 21  1  0
  8 22  1  0
  9 23  1  0
  9 24  1  0
 12 25  1  0
 13 26  1  0
 14 27  1  0
M  ISO  8  16   8  17  14  18  14  19  14  20   8  21   8  22   8  23   8
M  ISO  4  24   8  25  14  26  14  27  14
M  END
>  <minimizedAffinity>  (1) 
-4.41523218

>  <minimizedRMSD>  (1) 
1.9517957

$$$$
