
     RDKit          3D

 27 28  0  0  1  0  0  0  0  0999 V2000
   44.4860   35.3690   43.4600 C   0  0  1  0  0  0  0  0  0  0  0  0
   45.3500   34.4300   44.2520 C   0  0  0  0  0  0  0  0  0  0  0  0
   46.3790   33.7800   43.5150 C   0  0  0  0  0  0  0  0  0  0  0  0
   47.2070   32.9020   44.2110 C   0  0  0  0  0  0  0  0  0  0  0  0
   46.9780   32.7250   45.5460 N   0  0  0  0  0  0  0  0  0  0  0  0
   46.0030   33.3540   46.2010 C   0  0  0  0  0  0  0  0  0  0  0  0
   45.1660   34.2210   45.5650 N   0  0  0  0  0  0  0  0  0  0  0  0
   45.1880   36.6950   43.1990 C   0  0  0  0  0  0  0  0  0  0  0  0
   44.0530   34.7310   42.1650 C   0  0  0  0  0  0  0  0  0  0  0  0
   43.3960   35.7590   41.4490 O   0  0  0  0  0  0  0  0  0  0  0  0
   40.6310   34.5170   39.5770 N   0  0  0  0  0  0  0  0  0  0  0  0
   41.9170   34.5420   39.8870 N   0  0  0  0  0  0  0  0  0  0  0  0
   42.1800   35.4400   40.8570 C   0  0  0  0  0  0  0  0  0  0  0  0
   40.9380   35.9780   41.1300 C   0  0  0  0  0  0  0  0  0  0  0  0
   39.9580   35.4130   40.3400 C   0  0  0  0  0  0  0  0  0  0  0  0
   43.5902   35.5817   44.0619 H   0  0  0  0  0  0  0  0  0  0  0  0
   46.5153   33.9634   42.4390 H   0  0  0  0  0  0  0  0  0  0  0  0
   48.0213   32.3670   43.7005 H   0  0  0  0  0  0  0  0  0  0  0  0
   45.8710   33.1696   47.2774 H   0  0  0  0  0  0  0  0  0  0  0  0
   45.4402   37.1713   44.1579 H   0  0  0  0  0  0  0  0  0  0  0  0
   46.1092   36.5155   42.6253 H   0  0  0  0  0  0  0  0  0  0  0  0
   44.5217   37.3560   42.6253 H   0  0  0  0  0  0  0  0  0  0  0  0
   44.9257   34.3663   41.6035 H   0  0  0  0  0  0  0  0  0  0  0  0
   43.3990   33.8624   42.3320 H   0  0  0  0  0  0  0  0  0  0  0  0
   40.2053   33.9084   38.8634 H   0  0  0  0  0  0  0  0  0  0  0  0
   40.7531   36.7587   41.8825 H   0  0  0  0  0  0  0  0  0  0  0  0
   38.8812   35.6374   40.3313 H   0  0  0  0  0  0  0  0  0  0  0  0
  1  2  1  0
  2  7  2  0
  3  4  2  0
  3  2  1  0
  4  5  1  0
  5  6  2  0
  7  6  1  0
  8  1  1  0
  9  1  1  0
 10  9  1  0
 11 12  1  0
 11 15  1  0
 12 13  2  0
 13 14  1  0
 13 10  1  0
 15 14  2  0
  1 16  1  1
  3 17  1  0
  4 18  1  0
  6 19  1  0
  8 20  1  0
  8 21  1  0
  8 22  1  0
  9 23  1  0
  9 24  1  0
 11 25  1  0
 14 26  1  0
 15 27  1  0
M  ISO  8  16   8  17  14  18  14  19  14  20   8  21   8  22   8  23   8
M  ISO  4  24   8  25   9  26  14  27  14
M  END
>  <minimizedAffinity>  (1) 
-4.18734407

>  <minimizedRMSD>  (1) 
0.894455671

$$$$
