
     RDKit          3D

 26 27  0  0  1  0  0  0  0  0999 V2000
   44.5810   35.7070   43.4070 C   0  0  1  0  0  0  0  0  0  0  0  0
   45.3780   34.7010   44.1750 C   0  0  0  0  0  0  0  0  0  0  0  0
   46.4610   34.1000   43.4750 C   0  0  0  0  0  0  0  0  0  0  0  0
   47.2370   33.1570   44.1490 C   0  0  0  0  0  0  0  0  0  0  0  0
   46.8940   32.8800   45.4460 N   0  0  0  0  0  0  0  0  0  0  0  0
   45.8690   33.4630   46.0780 C   0  0  0  0  0  0  0  0  0  0  0  0
   45.1150   34.3720   45.4390 N   0  0  0  0  0  0  0  0  0  0  0  0
   45.2150   37.0900   43.4520 C   0  0  0  0  0  0  0  0  0  0  0  0
   44.4210   35.2790   41.9690 C   0  0  0  0  0  0  0  0  0  0  0  0
   43.1490   34.6820   41.8940 O   0  0  0  0  0  0  0  0  0  0  0  0
   42.1590   35.1080   40.9860 C   0  0  0  0  0  0  0  0  0  0  0  0
   42.3230   34.7800   39.6370 C   0  0  0  0  0  0  0  0  0  0  0  0
   40.8640   35.5100   38.8820 S   0  0  0  0  0  0  0  0  0  0  0  0
   40.2400   36.1650   40.5570 C   0  0  0  0  0  0  0  0  0  0  0  0
   41.0740   35.7980   41.2800 N   0  0  0  0  0  0  0  0  0  0  0  0
   43.5930   35.7628   43.8873 H   0  0  0  0  0  0  0  0  0  0  0  0
   46.6802   34.3713   42.4318 H   0  0  0  0  0  0  0  0  0  0  0  0
   48.0869   32.6578   43.6606 H   0  0  0  0  0  0  0  0  0  0  0  0
   45.6438   33.1976   47.1215 H   0  0  0  0  0  0  0  0  0  0  0  0
   45.3550   37.3953   44.4995 H   0  0  0  0  0  0  0  0  0  0  0  0
   46.1906   37.0628   42.9445 H   0  0  0  0  0  0  0  0  0  0  0  0
   44.5577   37.8114   42.9445 H   0  0  0  0  0  0  0  0  0  0  0  0
   44.4768   36.1504   41.3000 H   0  0  0  0  0  0  0  0  0  0  0  0
   45.2164   34.5854   41.6586 H   0  0  0  0  0  0  0  0  0  0  0  0
   43.1384   34.2176   39.1586 H   0  0  0  0  0  0  0  0  0  0  0  0
   39.3295   36.7398   40.7821 H   0  0  0  0  0  0  0  0  0  0  0  0
  1  8  1  0
  1  2  1  0
  2  7  2  0
  3  4  2  0
  3  2  1  0
  4  5  1  0
  5  6  2  0
  7  6  1  0
  9  1  1  0
 10  9  1  0
 11 15  1  0
 11 10  1  0
 12 11  2  0
 13 12  1  0
 13 14  1  0
 14 15  2  0
  1 16  1  1
  3 17  1  0
  4 18  1  0
  6 19  1  0
  8 20  1  0
  8 21  1  0
  8 22  1  0
  9 23  1  0
  9 24  1  0
 12 25  1  0
 14 26  1  0
M  ISO  8  16   8  17  14  18  14  19  14  20   8  21   8  22   8  23   8
M  ISO  3  24   8  25  14  26  14
M  END
>  <minimizedAffinity>  (1) 
-4.21646547

>  <minimizedRMSD>  (1) 
0.664897799

$$$$
