
     RDKit          3D

 25 26  0  0  1  0  0  0  0  0999 V2000
   44.5340   35.3890   43.4230 C   0  0  1  0  0  0  0  0  0  0  0  0
   45.3780   34.4460   44.2280 C   0  0  0  0  0  0  0  0  0  0  0  0
   46.4190   33.7940   43.5330 C   0  0  0  0  0  0  0  0  0  0  0  0
   47.2360   32.9070   44.2240 C   0  0  0  0  0  0  0  0  0  0  0  0
   46.9700   32.7250   45.5550 N   0  0  0  0  0  0  0  0  0  0  0  0
   45.9790   33.3540   46.1900 C   0  0  0  0  0  0  0  0  0  0  0  0
   45.1680   34.2250   45.5340 N   0  0  0  0  0  0  0  0  0  0  0  0
   45.1820   36.7600   43.2970 C   0  0  0  0  0  0  0  0  0  0  0  0
   44.2760   34.8240   42.0510 C   0  0  0  0  0  0  0  0  0  0  0  0
   43.5570   35.8230   41.3630 O   0  0  0  0  0  0  0  0  0  0  0  0
   42.2520   35.4670   40.9830 C   0  0  0  0  0  0  0  0  0  0  0  0
   41.1840   35.3980   41.7950 N   0  0  0  0  0  0  0  0  0  0  0  0
   40.1270   35.0410   41.1370 O   0  0  0  0  0  0  0  0  0  0  0  0
   40.4430   34.8600   39.8750 C   0  0  0  0  0  0  0  0  0  0  0  0
   41.7590   35.1210   39.7680 N   0  0  0  0  0  0  0  0  0  0  0  0
   43.5797   35.5091   43.9567 H   0  0  0  0  0  0  0  0  0  0  0  0
   46.5811   33.9847   42.4619 H   0  0  0  0  0  0  0  0  0  0  0  0
   48.0591   32.3752   43.7243 H   0  0  0  0  0  0  0  0  0  0  0  0
   45.8161   33.1644   47.2612 H   0  0  0  0  0  0  0  0  0  0  0  0
   45.3748   37.1680   44.3002 H   0  0  0  0  0  0  0  0  0  0  0  0
   46.1318   36.6678   42.7499 H   0  0  0  0  0  0  0  0  0  0  0  0
   44.5078   37.4353   42.7499 H   0  0  0  0  0  0  0  0  0  0  0  0
   45.2254   34.6109   41.5379 H   0  0  0  0  0  0  0  0  0  0  0  0
   43.7180   33.8772   42.0971 H   0  0  0  0  0  0  0  0  0  0  0  0
   39.7649   34.5549   39.0644 H   0  0  0  0  0  0  0  0  0  0  0  0
  1  2  1  0
  2  7  2  0
  3  4  2  0
  3  2  1  0
  4  5  1  0
  5  6  2  0
  7  6  1  0
  8  1  1  0
  9  1  1  0
 10  9  1  0
 11 10  1  0
 11 12  2  0
 13 12  1  0
 14 13  1  0
 15 14  2  0
 15 11  1  0
  1 16  1  1
  3 17  1  0
  4 18  1  0
  6 19  1  0
  8 20  1  0
  8 21  1  0
  8 22  1  0
  9 23  1  0
  9 24  1  0
 14 25  1  0
M  ISO  8  16   8  17  14  18  14  19  14  20   8  21   8  22   8  23   8
M  ISO  2  24   8  25  14
M  END
>  <minimizedAffinity>  (1) 
-4.11584282

>  <minimizedRMSD>  (1) 
1.06986511

$$$$
