
     RDKit          3D

 24 24  0  0  1  0  0  0  0  0999 V2000
   44.6470   35.4860   43.3390 C   0  0  1  0  0  0  0  0  0  0  0  0
   45.4250   34.5270   44.1640 C   0  0  0  0  0  0  0  0  0  0  0  0
   46.4810   33.8400   43.5100 C   0  0  0  0  0  0  0  0  0  0  0  0
   47.2520   32.9290   44.2220 C   0  0  0  0  0  0  0  0  0  0  0  0
   46.9360   32.7480   45.5420 N   0  0  0  0  0  0  0  0  0  0  0  0
   45.9300   33.4080   46.1500 C   0  0  0  0  0  0  0  0  0  0  0  0
   45.1770   34.2930   45.4670 N   0  0  0  0  0  0  0  0  0  0  0  0
   45.2330   36.8890   43.4130 C   0  0  0  0  0  0  0  0  0  0  0  0
   44.5560   35.0140   41.9110 C   0  0  0  0  0  0  0  0  0  0  0  0
   43.5500   35.8180   41.3230 O   0  0  0  0  0  0  0  0  0  0  0  0
   42.2380   35.4250   41.2090 C   0  0  0  0  0  0  0  0  0  0  0  0
   41.3400   35.5300   42.3050 N   0  0  0  0  0  0  0  0  0  0  0  0
   41.7450   34.9560   40.1550 O   0  0  0  0  0  0  0  0  0  0  0  0
   43.6283   35.5308   43.7516 H   0  0  0  0  0  0  0  0  0  0  0  0
   46.6878   34.0276   42.4460 H   0  0  0  0  0  0  0  0  0  0  0  0
   48.0778   32.3789   43.7472 H   0  0  0  0  0  0  0  0  0  0  0  0
   45.7216   33.2225   47.2140 H   0  0  0  0  0  0  0  0  0  0  0  0
   45.3547   37.1804   44.4667 H   0  0  0  0  0  0  0  0  0  0  0  0
   46.2126   36.9040   42.9129 H   0  0  0  0  0  0  0  0  0  0  0  0
   44.5551   37.5964   42.9129 H   0  0  0  0  0  0  0  0  0  0  0  0
   45.5165   35.1573   41.3945 H   0  0  0  0  0  0  0  0  0  0  0  0
   44.3196   33.9418   41.8444 H   0  0  0  0  0  0  0  0  0  0  0  0
   40.3604   35.2299   42.1988 H   0  0  0  0  0  0  0  0  0  0  0  0
   41.6686   35.9063   43.2058 H   0  0  0  0  0  0  0  0  0  0  0  0
  1  8  1  0
  1  2  1  0
  2  7  2  0
  3  2  1  0
  3  4  2  0
  4  5  1  0
  5  6  2  0
  7  6  1  0
  9  1  1  0
 10  9  1  0
 11 10  1  0
 11 12  1  0
 13 11  2  0
  1 14  1  1
  3 15  1  0
  4 16  1  0
  6 17  1  0
  8 18  1  0
  8 19  1  0
  8 20  1  0
  9 21  1  0
  9 22  1  0
 12 23  1  0
 12 24  1  0
M  ISO  8  14   8  15  14  16  14  17  14  18   8  19   8  20   8  21   8
M  ISO  1  22   8
M  END
>  <minimizedAffinity>  (1) 
-3.86128545

>  <minimizedRMSD>  (1) 
0.799826682

$$$$
