
     RDKit          3D

 39 40  0  0  1  0  0  0  0  0999 V2000
   41.2820   34.1370   39.7340 C   0  0  2  0  0  0  0  0  0  0  0  0
   41.6130   35.4840   39.1080 C   0  0  0  0  0  0  0  0  0  0  0  0
   40.8350   35.5430   37.7970 C   0  0  0  0  0  0  0  0  0  0  0  0
   39.7430   34.5260   37.7180 C   0  0  0  0  0  0  0  0  0  0  0  0
   38.9760   34.3600   39.0120 C   0  0  0  0  0  0  0  0  0  0  0  0
   39.8780   34.1630   40.1940 C   0  0  1  0  0  0  0  0  0  0  0  0
   39.4660   33.0360   41.0850 C   0  0  0  0  0  0  0  0  0  0  0  0
   39.7860   33.2060   42.4000 F   0  0  0  0  0  0  0  0  0  0  0  0
   38.1210   32.8080   40.8840 F   0  0  0  0  0  0  0  0  0  0  0  0
   40.1190   31.9000   40.6310 F   0  0  0  0  0  0  0  0  0  0  0  0
   42.1830   33.7730   40.7000 O   0  0  0  0  0  0  0  0  0  0  0  0
   43.5280   33.9330   40.2930 C   0  0  0  0  0  0  0  0  0  0  0  0
   44.3060   34.2080   41.5110 C   0  0  1  0  0  0  0  0  0  0  0  0
   45.7750   34.3650   41.2060 C   0  0  0  0  0  0  0  0  0  0  0  0
   46.5060   35.0080   42.2260 C   0  0  0  0  0  0  0  0  0  0  0  0
   47.8800   35.1870   42.0250 C   0  0  0  0  0  0  0  0  0  0  0  0
   48.4130   34.7200   40.8410 N   0  0  0  0  0  0  0  0  0  0  0  0
   47.6720   34.1110   39.8940 C   0  0  0  0  0  0  0  0  0  0  0  0
   46.3440   33.9260   40.0630 N   0  0  0  0  0  0  0  0  0  0  0  0
   43.7640   35.3440   42.3500 C   0  0  0  0  0  0  0  0  0  0  0  0
   41.3757   33.3422   38.9793 H   0  0  0  0  0  0  0  0  0  0  0  0
   41.3011   36.3018   39.7743 H   0  0  0  0  0  0  0  0  0  0  0  0
   42.6944   35.5942   38.9392 H   0  0  0  0  0  0  0  0  0  0  0  0
   40.3892   36.5438   37.6990 H   0  0  0  0  0  0  0  0  0  0  0  0
   41.5442   35.3271   36.9843 H   0  0  0  0  0  0  0  0  0  0  0  0
   39.0373   34.8336   36.9323 H   0  0  0  0  0  0  0  0  0  0  0  0
   40.2180   33.5586   37.4978 H   0  0  0  0  0  0  0  0  0  0  0  0
   38.3673   35.2609   39.1792 H   0  0  0  0  0  0  0  0  0  0  0  0
   38.3500   33.4606   38.9161 H   0  0  0  0  0  0  0  0  0  0  0  0
   39.7797   35.0244   40.8710 H   0  0  0  0  0  0  0  0  0  0  0  0
   43.8905   33.0132   39.8107 H   0  0  0  0  0  0  0  0  0  0  0  0
   43.6275   34.7520   39.5655 H   0  0  0  0  0  0  0  0  0  0  0  0
   44.1904   33.3167   42.1452 H   0  0  0  0  0  0  0  0  0  0  0  0
   46.0145   35.3564   43.1464 H   0  0  0  0  0  0  0  0  0  0  0  0
   48.5093   35.6801   42.7806 H   0  0  0  0  0  0  0  0  0  0  0  0
   48.1551   33.7595   38.9704 H   0  0  0  0  0  0  0  0  0  0  0  0
   43.8803   35.1002   43.4163 H   0  0  0  0  0  0  0  0  0  0  0  0
   44.3194   36.2657   42.1219 H   0  0  0  0  0  0  0  0  0  0  0  0
   42.6982   35.4922   42.1219 H   0  0  0  0  0  0  0  0  0  0  0  0
  1  6  1  0
  1 11  1  0
  2  1  1  0
  3  2  1  0
  4  3  1  0
  4  5  1  0
  5  6  1  0
  6  7  1  0
  7  8  1  0
  9  7  1  0
 10  7  1  0
 12 11  1  0
 12 13  1  0
 13 20  1  0
 14 13  1  0
 14 15  2  0
 16 15  1  0
 17 16  2  0
 18 19  2  0
 18 17  1  0
 19 14  1  0
  1 21  1  6
  2 22  1  0
  2 23  1  0
  3 24  1  0
  3 25  1  0
  4 26  1  0
  4 27  1  0
  5 28  1  0
  5 29  1  0
  6 30  1  1
 12 31  1  0
 12 32  1  0
 13 33  1  1
 15 34  1  0
 16 35  1  0
 18 36  1  0
 20 37  1  0
 20 38  1  0
 20 39  1  0
M  ISO  8  21  13  22  13  23  13  24  13  25  13  26  13  27  13  28  13
M  ISO  8  29  13  30  13  31   8  32   8  33   8  34  14  35  14  36  14
M  ISO  3  37   8  38   8  39   8
M  END
>  <minimizedAffinity>  (1) 
-5.5602417

>  <minimizedRMSD>  (1) 
3.45819497

$$$$
