
     RDKit          3D

 24 26  0  0  0  0  0  0  0  0999 V2000
   46.7870   32.7790   45.1600 C   0  0  0  0  0  0  0  0  0  0  0  0
   47.6960   32.1440   44.3610 N   0  0  0  0  0  0  0  0  0  0  0  0
   47.9690   32.5720   43.1090 C   0  0  0  0  0  0  0  0  0  0  0  0
   47.3520   33.6590   42.5760 N   0  0  0  0  0  0  0  0  0  0  0  0
   46.4500   34.3080   43.3360 C   0  0  0  0  0  0  0  0  0  0  0  0
   45.7450   35.4230   42.9100 C   0  0  0  0  0  0  0  0  0  0  0  0
   44.8140   36.0600   43.7200 C   0  0  0  0  0  0  0  0  0  0  0  0
   44.5600   35.5840   45.0100 C   0  0  0  0  0  0  0  0  0  0  0  0
   45.2540   34.4790   45.4430 C   0  0  0  0  0  0  0  0  0  0  0  0
   46.1640   33.8800   44.6150 C   0  0  0  0  0  0  0  0  0  0  0  0
   45.7920   31.0180   46.4590 C   0  0  0  0  0  0  0  0  0  0  0  0
   46.6360   32.1640   46.4680 C   0  0  0  0  0  0  0  0  0  0  0  0
   47.1920   32.5040   47.7000 C   0  0  0  0  0  0  0  0  0  0  0  0
   46.9080   31.7490   48.7890 N   0  0  0  0  0  0  0  0  0  0  0  0
   46.1050   30.6740   48.7320 C   0  0  0  0  0  0  0  0  0  0  0  0
   45.5370   30.2910   47.5770 N   0  0  0  0  0  0  0  0  0  0  0  0
   48.7097   32.0266   42.5057 H   0  0  0  0  0  0  0  0  0  0  0  0
   45.9287   35.8154   41.8989 H   0  0  0  0  0  0  0  0  0  0  0  0
   44.2744   36.9423   43.3454 H   0  0  0  0  0  0  0  0  0  0  0  0
   43.8249   36.0802   45.6607 H   0  0  0  0  0  0  0  0  0  0  0  0
   45.0783   34.0776   46.4520 H   0  0  0  0  0  0  0  0  0  0  0  0
   45.3287   30.7096   45.5102 H   0  0  0  0  0  0  0  0  0  0  0  0
   47.8553   33.3772   47.7876 H   0  0  0  0  0  0  0  0  0  0  0  0
   45.9091   30.0969   49.6478 H   0  0  0  0  0  0  0  0  0  0  0  0
  1 12  1  0
  2  1  2  0
  3  2  1  0
  4  3  2  0
  4  5  1  0
  5 10  2  0
  6  5  1  0
  6  7  2  0
  7  8  1  0
  8  9  2  0
 10  1  1  0
 10  9  1  0
 11 12  2  0
 11 16  1  0
 12 13  1  0
 13 14  2  0
 15 14  1  0
 16 15  2  0
  3 17  1  0
  6 18  1  0
  7 19  1  0
  8 20  1  0
  9 21  1  0
 11 22  1  0
 13 23  1  0
 15 24  1  0
M  ISO  8  17  14  18  14  19  14  20  14  21  14  22  14  23  14  24  14
M  END
>  <minimizedAffinity>  (1) 
-5.11093664

>  <minimizedRMSD>  (1) 
5.21058655

$$$$
