
     RDKit          3D

 43 45  0  0  1  0  0  0  0  0999 V2000
   42.1010   34.6390   40.8030 C   0  0  2  0  0  0  0  0  0  0  0  0
   41.2880   35.8440   40.3470 C   0  0  0  0  0  0  0  0  0  0  0  0
   41.0850   35.6850   38.8430 C   0  0  0  0  0  0  0  0  0  0  0  0
   41.3700   34.2880   38.3660 C   0  0  0  0  0  0  0  0  0  0  0  0
   40.8590   33.2040   39.2890 C   0  0  0  0  0  0  0  0  0  0  0  0
   41.2110   33.4570   40.7250 C   0  0  1  0  0  0  0  0  0  0  0  0
   41.6480   32.2930   41.4590 C   0  0  0  0  0  0  0  0  0  0  0  0
   42.8880   31.7800   41.5780 C   0  0  0  0  0  0  0  0  0  0  0  0
   43.1430   30.6560   42.3200 C   0  0  0  0  0  0  0  0  0  0  0  0
   41.9970   30.0770   42.9520 C   0  0  0  0  0  0  0  0  0  0  0  0
   40.6100   31.2020   42.4310 S   0  0  0  0  0  0  0  0  0  0  0  0
   42.6870   34.8030   42.0380 O   0  0  0  0  0  0  0  0  0  0  0  0
   44.0240   35.2510   41.9280 C   0  0  0  0  0  0  0  0  0  0  0  0
   44.6370   34.8420   43.2610 C   0  0  1  0  0  0  0  0  0  0  0  0
   46.0810   34.4490   43.0390 C   0  0  0  0  0  0  0  0  0  0  0  0
   46.7800   35.2520   42.1060 C   0  0  0  0  0  0  0  0  0  0  0  0
   48.1290   34.9450   41.8690 C   0  0  0  0  0  0  0  0  0  0  0  0
   48.6730   33.8930   42.5510 N   0  0  0  0  0  0  0  0  0  0  0  0
   47.9700   33.1570   43.4260 C   0  0  0  0  0  0  0  0  0  0  0  0
   46.6710   33.4210   43.6840 N   0  0  0  0  0  0  0  0  0  0  0  0
   44.4740   35.8560   44.3400 C   0  0  0  0  0  0  0  0  0  0  0  0
   42.9661   34.5019   40.1376 H   0  0  0  0  0  0  0  0  0  0  0  0
   40.3161   35.8636   40.8618 H   0  0  0  0  0  0  0  0  0  0  0  0
   41.8063   36.7855   40.5813 H   0  0  0  0  0  0  0  0  0  0  0  0
   40.0416   35.9343   38.6000 H   0  0  0  0  0  0  0  0  0  0  0  0
   41.7915   36.3603   38.3381 H   0  0  0  0  0  0  0  0  0  0  0  0
   40.8963   34.1556   37.3821 H   0  0  0  0  0  0  0  0  0  0  0  0
   42.4643   34.1827   38.3283 H   0  0  0  0  0  0  0  0  0  0  0  0
   39.7640   33.1513   39.1985 H   0  0  0  0  0  0  0  0  0  0  0  0
   41.3363   32.2591   38.9901 H   0  0  0  0  0  0  0  0  0  0  0  0
   40.2884   33.7014   41.2718 H   0  0  0  0  0  0  0  0  0  0  0  0
   43.7224   32.2790   41.0634 H   0  0  0  0  0  0  0  0  0  0  0  0
   44.1525   30.2311   42.4220 H   0  0  0  0  0  0  0  0  0  0  0  0
   41.9481   29.1831   43.5912 H   0  0  0  0  0  0  0  0  0  0  0  0
   44.5377   34.7581   41.0895 H   0  0  0  0  0  0  0  0  0  0  0  0
   44.1032   36.3299   41.7289 H   0  0  0  0  0  0  0  0  0  0  0  0
   44.0785   33.9719   43.6365 H   0  0  0  0  0  0  0  0  0  0  0  0
   46.2846   36.0853   41.5862 H   0  0  0  0  0  0  0  0  0  0  0  0
   48.7286   35.5319   41.1577 H   0  0  0  0  0  0  0  0  0  0  0  0
   48.4625   32.3209   43.9440 H   0  0  0  0  0  0  0  0  0  0  0  0
   44.5531   35.3639   45.3206 H   0  0  0  0  0  0  0  0  0  0  0  0
   45.2610   36.6190   44.2481 H   0  0  0  0  0  0  0  0  0  0  0  0
   43.4875   36.3339   44.2481 H   0  0  0  0  0  0  0  0  0  0  0  0
  1 12  1  0
  2  1  1  0
  3  2  1  0
  4  3  1  0
  4  5  1  0
  5  6  1  0
  6  1  1  0
  6  7  1  0
  7  8  2  0
  7 11  1  0
  8  9  1  0
  9 10  2  0
 11 10  1  0
 13 12  1  0
 13 14  1  0
 14 21  1  0
 15 14  1  0
 15 20  1  0
 16 15  2  0
 17 16  1  0
 17 18  2  0
 18 19  1  0
 19 20  2  0
  1 22  1  6
  2 23  1  0
  2 24  1  0
  3 25  1  0
  3 26  1  0
  4 27  1  0
  4 28  1  0
  5 29  1  0
  5 30  1  0
  6 31  1  1
  8 32  1  0
  9 33  1  0
 10 34  1  0
 13 35  1  0
 13 36  1  0
 14 37  1  1
 16 38  1  0
 17 39  1  0
 19 40  1  0
 21 41  1  0
 21 42  1  0
 21 43  1  0
M  ISO  8  22  13  23  13  24  13  25  13  26  13  27  13  28  13  29  13
M  ISO  8  30  13  31  13  32  14  33  14  34  14  35   8  36   8  37   8
M  ISO  6  38  14  39  14  40  14  41   8  42   8  43   8
M  END
>  <minimizedAffinity>  (1) 
-4.67350006

>  <minimizedRMSD>  (1) 
3.69112945

$$$$
