
     RDKit          3D

 42 44  0  0  1  0  0  0  0  0999 V2000
   42.0540   34.5690   40.7290 C   0  0  2  0  0  0  0  0  0  0  0  0
   41.5110   35.8330   40.0810 C   0  0  0  0  0  0  0  0  0  0  0  0
   41.2880   35.5050   38.6060 C   0  0  0  0  0  0  0  0  0  0  0  0
   41.2680   34.0200   38.3470 C   0  0  0  0  0  0  0  0  0  0  0  0
   40.5040   33.2430   39.4010 C   0  0  0  0  0  0  0  0  0  0  0  0
   40.9830   33.5450   40.7850 C   0  0  1  0  0  0  0  0  0  0  0  0
   41.3320   32.3690   41.5380 N   0  0  0  0  0  0  0  0  0  0  0  0
   40.4810   31.6690   42.3280 C   0  0  0  0  0  0  0  0  0  0  0  0
   41.1790   30.6550   42.8490 N   0  0  0  0  0  0  0  0  0  0  0  0
   42.4350   30.6910   42.4180 C   0  0  0  0  0  0  0  0  0  0  0  0
   42.5220   31.7580   41.6050 N   0  0  0  0  0  0  0  0  0  0  0  0
   42.6760   34.7790   41.9370 O   0  0  0  0  0  0  0  0  0  0  0  0
   44.0450   35.1100   41.7860 C   0  0  0  0  0  0  0  0  0  0  0  0
   44.6380   34.7710   43.1440 C   0  0  1  0  0  0  0  0  0  0  0  0
   46.0940   34.4120   42.9750 C   0  0  0  0  0  0  0  0  0  0  0  0
   46.8220   35.2600   42.1050 C   0  0  0  0  0  0  0  0  0  0  0  0
   48.1820   34.9890   41.9120 C   0  0  0  0  0  0  0  0  0  0  0  0
   48.7180   33.9220   42.5780 N   0  0  0  0  0  0  0  0  0  0  0  0
   47.9930   33.1370   43.3990 C   0  0  0  0  0  0  0  0  0  0  0  0
   46.6700   33.3700   43.6090 N   0  0  0  0  0  0  0  0  0  0  0  0
   44.4260   35.8340   44.1780 C   0  0  0  0  0  0  0  0  0  0  0  0
   42.8670   34.1885   40.0932 H   0  0  0  0  0  0  0  0  0  0  0  0
   40.5610   36.1237   40.5532 H   0  0  0  0  0  0  0  0  0  0  0  0
   42.2119   36.6725   40.1995 H   0  0  0  0  0  0  0  0  0  0  0  0
   40.3248   35.9322   38.2903 H   0  0  0  0  0  0  0  0  0  0  0  0
   42.1244   35.9350   38.0354 H   0  0  0  0  0  0  0  0  0  0  0  0
   40.7960   33.8414   37.3696 H   0  0  0  0  0  0  0  0  0  0  0  0
   42.3101   33.6686   38.3714 H   0  0  0  0  0  0  0  0  0  0  0  0
   39.4379   33.5047   39.3304 H   0  0  0  0  0  0  0  0  0  0  0  0
   40.6670   32.1713   39.2141 H   0  0  0  0  0  0  0  0  0  0  0  0
   40.1458   33.9717   41.3568 H   0  0  0  0  0  0  0  0  0  0  0  0
   39.4189   31.8928   42.5062 H   0  0  0  0  0  0  0  0  0  0  0  0
   43.2418   29.9888   42.6748 H   0  0  0  0  0  0  0  0  0  0  0  0
   44.5106   34.5085   40.9913 H   0  0  0  0  0  0  0  0  0  0  0  0
   44.2050   36.1589   41.4959 H   0  0  0  0  0  0  0  0  0  0  0  0
   44.0948   33.8999   43.5391 H   0  0  0  0  0  0  0  0  0  0  0  0
   46.3342   36.1050   41.5969 H   0  0  0  0  0  0  0  0  0  0  0  0
   48.7979   35.6129   41.2476 H   0  0  0  0  0  0  0  0  0  0  0  0
   48.4803   32.2926   43.9084 H   0  0  0  0  0  0  0  0  0  0  0  0
   44.5141   35.3922   45.1815 H   0  0  0  0  0  0  0  0  0  0  0  0
   45.1849   36.6209   44.0559 H   0  0  0  0  0  0  0  0  0  0  0  0
   43.4233   36.2695   44.0559 H   0  0  0  0  0  0  0  0  0  0  0  0
  1  6  1  0
  1 12  1  0
  2  1  1  0
  3  2  1  0
  4  3  1  0
  4  5  1  0
  5  6  1  0
  6  7  1  0
  7 11  1  0
  7  8  1  0
  8  9  2  0
 10  9  1  0
 11 10  2  0
 13 12  1  0
 13 14  1  0
 14 21  1  0
 15 14  1  0
 15 20  1  0
 16 15  2  0
 17 16  1  0
 17 18  2  0
 18 19  1  0
 19 20  2  0
  1 22  1  6
  2 23  1  0
  2 24  1  0
  3 25  1  0
  3 26  1  0
  4 27  1  0
  4 28  1  0
  5 29  1  0
  5 30  1  0
  6 31  1  1
  8 32  1  0
 10 33  1  0
 13 34  1  0
 13 35  1  0
 14 36  1  1
 16 37  1  0
 17 38  1  0
 19 39  1  0
 21 40  1  0
 21 41  1  0
 21 42  1  0
M  ISO  8  22  13  23  13  24  13  25  13  26  13  27  13  28  13  29  13
M  ISO  8  30  13  31  13  32  14  33  14  34   8  35   8  36   8  37  14
M  ISO  5  38  14  39  14  40   8  41   8  42   8
M  END
>  <minimizedAffinity>  (1) 
-4.68639374

>  <minimizedRMSD>  (1) 
3.32516384

$$$$
