
     RDKit          3D

 38 39  0  0  1  0  0  0  0  0999 V2000
   43.7770   35.4790   40.8820 O   0  0  0  0  0  0  0  0  0  0  0  0
   42.6830   34.8180   40.3870 C   0  0  2  0  0  0  0  0  0  0  0  0
   42.8290   34.4600   38.9170 C   0  0  0  0  0  0  0  0  0  0  0  0
   41.7720   33.4060   38.6280 C   0  0  0  0  0  0  0  0  0  0  0  0
   40.7300   33.3100   39.7010 C   0  0  0  0  0  0  0  0  0  0  0  0
   40.2660   34.6660   40.1900 C   0  0  0  0  0  0  0  0  0  0  0  0
   41.4080   35.5540   40.5770 C   0  0  1  0  0  0  0  0  0  0  0  0
   41.2550   36.1510   41.8740 N   0  0  0  0  0  0  0  0  0  0  0  0
   44.6260   34.6510   41.6450 C   0  0  0  0  0  0  0  0  0  0  0  0
   44.6450   35.2070   43.0080 C   0  0  1  0  0  0  0  0  0  0  0  0
   45.4360   34.3360   43.9510 C   0  0  0  0  0  0  0  0  0  0  0  0
   46.4780   33.6110   43.3350 C   0  0  0  0  0  0  0  0  0  0  0  0
   47.2580   32.7820   44.1480 C   0  0  0  0  0  0  0  0  0  0  0  0
   46.9450   32.7360   45.4930 N   0  0  0  0  0  0  0  0  0  0  0  0
   45.9410   33.4450   46.0350 C   0  0  0  0  0  0  0  0  0  0  0  0
   45.1680   34.2580   45.2730 N   0  0  0  0  0  0  0  0  0  0  0  0
   45.0870   36.6610   43.0670 C   0  0  0  0  0  0  0  0  0  0  0  0
   42.6391   33.8938   40.9819 H   0  0  0  0  0  0  0  0  0  0  0  0
   42.6625   35.3484   38.2902 H   0  0  0  0  0  0  0  0  0  0  0  0
   43.8390   34.0850   38.6950 H   0  0  0  0  0  0  0  0  0  0  0  0
   41.2757   33.6586   37.6794 H   0  0  0  0  0  0  0  0  0  0  0  0
   42.2831   32.4332   38.5786 H   0  0  0  0  0  0  0  0  0  0  0  0
   39.8625   32.7647   39.3009 H   0  0  0  0  0  0  0  0  0  0  0  0
   41.1818   32.7859   40.5561 H   0  0  0  0  0  0  0  0  0  0  0  0
   39.6947   35.1547   39.3870 H   0  0  0  0  0  0  0  0  0  0  0  0
   39.6468   34.5062   41.0850 H   0  0  0  0  0  0  0  0  0  0  0  0
   41.4212   36.4264   39.9071 H   0  0  0  0  0  0  0  0  0  0  0  0
   41.4362   35.4441   42.6009 H   0  0  0  0  0  0  0  0  0  0  0  0
   41.9242   36.9273   41.9757 H   0  0  0  0  0  0  0  0  0  0  0  0
   44.2380   33.6218   41.6607 H   0  0  0  0  0  0  0  0  0  0  0  0
   45.6384   34.6196   41.2161 H   0  0  0  0  0  0  0  0  0  0  0  0
   43.5992   35.2061   43.3491 H   0  0  0  0  0  0  0  0  0  0  0  0
   46.6699   33.6946   42.2551 H   0  0  0  0  0  0  0  0  0  0  0  0
   48.0874   32.1904   43.7332 H   0  0  0  0  0  0  0  0  0  0  0  0
   45.7427   33.3649   47.1140 H   0  0  0  0  0  0  0  0  0  0  0  0
   45.1819   36.9731   44.1175 H   0  0  0  0  0  0  0  0  0  0  0  0
   46.0587   36.7696   42.5631 H   0  0  0  0  0  0  0  0  0  0  0  0
   44.3401   37.2920   42.5631 H   0  0  0  0  0  0  0  0  0  0  0  0
  1  9  1  0
  2  7  1  0
  2  1  1  0
  3  2  1  0
  4  3  1  0
  4  5  1  0
  5  6  1  0
  6  7  1  0
  7  8  1  0
  9 10  1  0
 10 17  1  0
 10 11  1  0
 11 16  1  0
 12 11  2  0
 12 13  1  0
 13 14  2  0
 14 15  1  0
 16 15  2  0
  2 18  1  1
  3 19  1  0
  3 20  1  0
  4 21  1  0
  4 22  1  0
  5 23  1  0
  5 24  1  0
  6 25  1  0
  6 26  1  0
  7 27  1  6
  8 28  1  0
  8 29  1  0
  9 30  1  0
  9 31  1  0
 10 32  1  1
 12 33  1  0
 13 34  1  0
 15 35  1  0
 17 36  1  0
 17 37  1  0
 17 38  1  0
M  ISO  8  18  13  19  13  20  13  21  13  22  13  23  13  24  13  25  13
M  ISO  8  26  13  27  13  28   5  29   5  30   8  31   8  32   8  33  14
M  ISO  5  34  14  35  14  36   8  37   8  38   8
M  END
>  <minimizedAffinity>  (1) 
-4.57602692

>  <minimizedRMSD>  (1) 
0.680069327

$$$$
