
     RDKit          3D

 26 28  0  0  0  0  0  0  0  0999 V2000
   45.6670   35.0280   43.7540 C   0  0  0  0  0  0  0  0  0  0  0  0
   46.7920   34.3820   43.2420 C   0  0  0  0  0  0  0  0  0  0  0  0
   47.3510   33.3390   43.9660 C   0  0  0  0  0  0  0  0  0  0  0  0
   46.7720   32.9960   45.1450 N   0  0  0  0  0  0  0  0  0  0  0  0
   45.6790   33.6390   45.6200 C   0  0  0  0  0  0  0  0  0  0  0  0
   45.1510   34.6370   44.9190 N   0  0  0  0  0  0  0  0  0  0  0  0
   47.4970   34.6630   41.9940 C   0  0  0  0  0  0  0  0  0  0  0  0
   48.5670   35.5130   41.8180 C   0  0  0  0  0  0  0  0  0  0  0  0
   48.9500   35.5130   40.5210 N   0  0  0  0  0  0  0  0  0  0  0  0
   48.1300   34.6640   39.8510 C   0  0  0  0  0  0  0  0  0  0  0  0
   48.1310   34.3310   38.4960 C   0  0  0  0  0  0  0  0  0  0  0  0
   47.1590   33.4230   38.1060 C   0  0  0  0  0  0  0  0  0  0  0  0
   46.2360   32.8630   38.9620 C   0  0  0  0  0  0  0  0  0  0  0  0
   46.2780   33.2290   40.3050 C   0  0  0  0  0  0  0  0  0  0  0  0
   47.2250   34.1290   40.7450 C   0  0  0  0  0  0  0  0  0  0  0  0
   45.1610   36.0920   42.9380 C   0  0  0  0  0  0  0  0  0  0  0  0
   45.1780   37.3230   43.2400 O   0  0  0  0  0  0  0  0  0  0  0  0
   48.2383   32.8050   43.5952 H   0  0  0  0  0  0  0  0  0  0  0  0
   45.2316   33.3376   46.5787 H   0  0  0  0  0  0  0  0  0  0  0  0
   49.0403   36.1048   42.6154 H   0  0  0  0  0  0  0  0  0  0  0  0
   49.7238   36.0584   40.1152 H   0  0  0  0  0  0  0  0  0  0  0  0
   48.8536   34.7596   37.7860 H   0  0  0  0  0  0  0  0  0  0  0  0
   47.1222   33.1311   37.0461 H   0  0  0  0  0  0  0  0  0  0  0  0
   45.4865   32.1465   38.5947 H   0  0  0  0  0  0  0  0  0  0  0  0
   45.5555   32.7999   41.0148 H   0  0  0  0  0  0  0  0  0  0  0  0
   44.7209   35.8173   41.9680 H   0  0  0  0  0  0  0  0  0  0  0  0
  1  6  2  0
  2  1  1  0
  2  3  2  0
  3  4  1  0
  4  5  2  0
  6  5  1  0
  7  2  1  0
  8  7  2  0
  9  8  1  0
 10  9  1  0
 10 15  2  0
 11 10  1  0
 12 11  2  0
 12 13  1  0
 13 14  2  0
 14 15  1  0
 15  7  1  0
 16 17  2  0
 16  1  1  0
  3 18  1  0
  5 19  1  0
  8 20  1  0
  9 21  1  0
 11 22  1  0
 12 23  1  0
 13 24  1  0
 14 25  1  0
 16 26  1  0
M  ISO  8  18  14  19  14  20  14  21   9  22  14  23  14  24  14  25  14
M  ISO  1  26   6
M  END
>  <minimizedAffinity>  (1) 
-5.45831776

>  <minimizedRMSD>  (1) 
1.41142631

$$$$
