
     RDKit          3D

 44 46  0  0  1  0  0  0  0  0999 V2000
   40.9970   33.5760   38.9500 C   0  0  2  0  0  0  0  0  0  0  0  0
   40.0180   34.3980   38.1310 C   0  0  0  0  0  0  0  0  0  0  0  0
   38.6570   34.2410   38.7890 C   0  0  0  0  0  0  0  0  0  0  0  0
   38.7430   33.6670   40.1800 C   0  0  0  0  0  0  0  0  0  0  0  0
   39.8760   34.2440   41.0010 C   0  0  0  0  0  0  0  0  0  0  0  0
   41.1750   34.2660   40.2560 C   0  0  1  0  0  0  0  0  0  0  0  0
   42.3230   33.7800   41.0430 C   0  0  0  0  0  0  0  0  0  0  0  0
   42.4490   32.4670   41.5030 C   0  0  0  0  0  0  0  0  0  0  0  0
   43.5270   32.0320   42.2380 C   0  0  0  0  0  0  0  0  0  0  0  0
   44.5070   32.9110   42.5280 N   0  0  0  0  0  0  0  0  0  0  0  0
   44.3980   34.1930   42.0880 C   0  0  0  0  0  0  0  0  0  0  0  0
   43.3240   34.6140   41.3590 N   0  0  0  0  0  0  0  0  0  0  0  0
   42.1840   33.3120   38.3150 O   0  0  0  0  0  0  0  0  0  0  0  0
   42.2410   31.9820   37.8310 C   0  0  0  0  0  0  0  0  0  0  0  0
   43.7320   31.7260   37.6930 C   0  0  1  0  0  0  0  0  0  0  0  0
   44.0500   31.3660   36.2640 C   0  0  0  0  0  0  0  0  0  0  0  0
   45.2370   31.9320   35.7510 C   0  0  0  0  0  0  0  0  0  0  0  0
   45.6090   31.6440   34.4390 C   0  0  0  0  0  0  0  0  0  0  0  0
   44.7730   30.8090   33.7240 N   0  0  0  0  0  0  0  0  0  0  0  0
   43.6470   30.2840   34.2430 C   0  0  0  0  0  0  0  0  0  0  0  0
   43.2700   30.5550   35.5200 N   0  0  0  0  0  0  0  0  0  0  0  0
   44.5800   32.8490   38.2030 C   0  0  0  0  0  0  0  0  0  0  0  0
   40.5766   32.5712   39.1039 H   0  0  0  0  0  0  0  0  0  0  0  0
   39.9838   34.0262   37.0963 H   0  0  0  0  0  0  0  0  0  0  0  0
   40.3210   35.4549   38.0968 H   0  0  0  0  0  0  0  0  0  0  0  0
   38.1781   35.2296   38.8458 H   0  0  0  0  0  0  0  0  0  0  0  0
   38.0724   33.5387   38.1767 H   0  0  0  0  0  0  0  0  0  0  0  0
   37.7959   33.8720   40.7006 H   0  0  0  0  0  0  0  0  0  0  0  0
   38.9355   32.5891   40.0744 H   0  0  0  0  0  0  0  0  0  0  0  0
   39.6157   35.2742   41.2854 H   0  0  0  0  0  0  0  0  0  0  0  0
   40.0091   33.6005   41.8831 H   0  0  0  0  0  0  0  0  0  0  0  0
   41.4451   35.3136   40.0571 H   0  0  0  0  0  0  0  0  0  0  0  0
   41.6501   31.7487   41.2667 H   0  0  0  0  0  0  0  0  0  0  0  0
   43.5882   30.9889   42.5819 H   0  0  0  0  0  0  0  0  0  0  0  0
   45.1973   34.9102   42.3262 H   0  0  0  0  0  0  0  0  0  0  0  0
   41.7852   31.2820   38.5467 H   0  0  0  0  0  0  0  0  0  0  0  0
   41.6904   31.8419   36.8891 H   0  0  0  0  0  0  0  0  0  0  0  0
   43.9876   30.8739   38.3400 H   0  0  0  0  0  0  0  0  0  0  0  0
   45.8584   32.5897   36.3765 H   0  0  0  0  0  0  0  0  0  0  0  0
   46.5244   32.0617   33.9944 H   0  0  0  0  0  0  0  0  0  0  0  0
   43.0219   29.6247   33.6229 H   0  0  0  0  0  0  0  0  0  0  0  0
   44.5748   32.8421   39.3030 H   0  0  0  0  0  0  0  0  0  0  0  0
   45.6110   32.7239   37.8404 H   0  0  0  0  0  0  0  0  0  0  0  0
   44.1775   33.8063   37.8404 H   0  0  0  0  0  0  0  0  0  0  0  0
  1  6  1  0
  2  3  1  0
  2  1  1  0
  3  4  1  0
  4  5  1  0
  6  5  1  0
  6  7  1  0
  7 12  1  0
  7  8  2  0
  8  9  1  0
  9 10  2  0
 11 10  1  0
 12 11  2  0
 13  1  1  0
 14 13  1  0
 15 14  1  0
 15 22  1  0
 16 15  1  0
 17 16  2  0
 18 17  1  0
 19 20  1  0
 19 18  2  0
 20 21  2  0
 21 16  1  0
  1 23  1  1
  2 24  1  0
  2 25  1  0
  3 26  1  0
  3 27  1  0
  4 28  1  0
  4 29  1  0
  5 30  1  0
  5 31  1  0
  6 32  1  6
  8 33  1  0
  9 34  1  0
 11 35  1  0
 14 36  1  0
 14 37  1  0
 15 38  1  1
 17 39  1  0
 18 40  1  0
 20 41  1  0
 22 42  1  0
 22 43  1  0
 22 44  1  0
M  ISO  8  23  13  24  13  25  13  26  13  27  13  28  13  29  13  30  13
M  ISO  8  31  13  32  13  33  14  34  14  35  14  36   8  37   8  38   8
M  ISO  6  39  14  40  14  41  14  42   8  43   8  44   8
M  END
>  <minimizedAffinity>  (1) 
-4.48224592

>  <minimizedRMSD>  (1) 
6.67189026

$$$$
