
     RDKit          3D

 28 30  0  0  0  0  0  0  0  0999 V2000
   45.3990   35.1020   44.0870 C   0  0  0  0  0  0  0  0  0  0  0  0
   46.4450   34.3650   43.5360 C   0  0  0  0  0  0  0  0  0  0  0  0
   46.9840   33.3220   44.3040 C   0  0  0  0  0  0  0  0  0  0  0  0
   46.4400   33.1050   45.5450 N   0  0  0  0  0  0  0  0  0  0  0  0
   45.4270   33.8470   46.0330 C   0  0  0  0  0  0  0  0  0  0  0  0
   44.9070   34.8480   45.2980 N   0  0  0  0  0  0  0  0  0  0  0  0
   47.0800   34.5120   42.2580 C   0  0  0  0  0  0  0  0  0  0  0  0
   48.2020   35.3250   42.1070 C   0  0  0  0  0  0  0  0  0  0  0  0
   48.7920   35.4430   40.8510 C   0  0  0  0  0  0  0  0  0  0  0  0
   48.2160   34.7310   39.8030 C   0  0  0  0  0  0  0  0  0  0  0  0
   47.1050   33.9220   39.9340 C   0  0  0  0  0  0  0  0  0  0  0  0
   46.5800   33.2420   38.8570 C   0  0  0  0  0  0  0  0  0  0  0  0
   45.4690   32.4420   39.0240 C   0  0  0  0  0  0  0  0  0  0  0  0
   44.8690   32.3150   40.2770 C   0  0  0  0  0  0  0  0  0  0  0  0
   45.4090   33.0060   41.3460 C   0  0  0  0  0  0  0  0  0  0  0  0
   46.5320   33.8150   41.1820 C   0  0  0  0  0  0  0  0  0  0  0  0
   44.9230   36.1410   43.2210 C   0  0  0  0  0  0  0  0  0  0  0  0
   45.1900   37.3730   43.2700 O   0  0  0  0  0  0  0  0  0  0  0  0
   47.8105   32.7023   43.9261 H   0  0  0  0  0  0  0  0  0  0  0  0
   45.0238   33.6346   47.0342 H   0  0  0  0  0  0  0  0  0  0  0  0
   48.6166   35.8670   42.9697 H   0  0  0  0  0  0  0  0  0  0  0  0
   49.6788   36.0744   40.6934 H   0  0  0  0  0  0  0  0  0  0  0  0
   48.6751   34.8184   38.8072 H   0  0  0  0  0  0  0  0  0  0  0  0
   47.0463   33.3370   37.8652 H   0  0  0  0  0  0  0  0  0  0  0  0
   45.0527   31.8997   38.1623 H   0  0  0  0  0  0  0  0  0  0  0  0
   43.9830   31.6772   40.4120 H   0  0  0  0  0  0  0  0  0  0  0  0
   44.9458   32.9160   42.3397 H   0  0  0  0  0  0  0  0  0  0  0  0
   44.2425   35.8256   42.4164 H   0  0  0  0  0  0  0  0  0  0  0  0
  1  6  2  0
  2  1  1  0
  2  3  2  0
  3  4  1  0
  4  5  2  0
  6  5  1  0
  7  2  1  0
  8  7  2  0
  9  8  1  0
 10 11  1  0
 10  9  2  0
 11 16  2  0
 12 13  2  0
 12 11  1  0
 13 14  1  0
 14 15  2  0
 16 15  1  0
 16  7  1  0
 17 18  2  0
 17  1  1  0
  3 19  1  0
  5 20  1  0
  8 21  1  0
  9 22  1  0
 10 23  1  0
 12 24  1  0
 13 25  1  0
 14 26  1  0
 15 27  1  0
 17 28  1  0
M  ISO  8  19  14  20  14  21  14  22  14  23  14  24  14  25  14  26  14
M  ISO  2  27  14  28   6
M  END
>  <minimizedAffinity>  (1) 
-5.43944788

>  <minimizedRMSD>  (1) 
0.857625365

$$$$
