
     RDKit          3D

 50 53  0  0  1  0  0  0  0  0999 V2000
   41.2860   33.5590   40.0570 C   0  0  2  0  0  0  0  0  0  0  0  0
   40.3980   34.4410   39.2240 C   0  0  0  0  0  0  0  0  0  0  0  0
   40.1160   35.6820   40.0690 C   0  0  0  0  0  0  0  0  0  0  0  0
   41.0720   35.8400   41.2150 C   0  0  0  0  0  0  0  0  0  0  0  0
   42.5120   35.5430   40.8270 C   0  0  0  0  0  0  0  0  0  0  0  0
   42.6250   34.2270   40.1630 C   0  0  1  0  0  0  0  0  0  0  0  0
   43.7970   33.3880   40.3780 C   0  0  0  0  0  0  0  0  0  0  0  0
   44.2030   32.8490   41.5730 N   0  0  0  0  0  0  0  0  0  0  0  0
   45.2650   32.0730   41.7350 C   0  0  0  0  0  0  0  0  0  0  0  0
   46.0690   31.7240   40.7390 N   0  0  0  0  0  0  0  0  0  0  0  0
   45.7800   32.1880   39.5160 C   0  0  0  0  0  0  0  0  0  0  0  0
   46.5990   31.8490   38.4670 C   0  0  0  0  0  0  0  0  0  0  0  0
   46.3400   32.3120   37.1940 C   0  0  0  0  0  0  0  0  0  0  0  0
   45.2380   33.1280   36.9810 C   0  0  0  0  0  0  0  0  0  0  0  0
   44.4500   33.4370   38.0710 C   0  0  0  0  0  0  0  0  0  0  0  0
   44.6750   32.9910   39.3680 C   0  0  0  0  0  0  0  0  0  0  0  0
   41.3910   32.2550   39.6440 O   0  0  0  0  0  0  0  0  0  0  0  0
   40.9140   32.0920   38.3190 C   0  0  0  0  0  0  0  0  0  0  0  0
   40.8880   30.5890   38.1350 C   0  0  1  0  0  0  0  0  0  0  0  0
   41.3260   30.2390   36.7370 C   0  0  0  0  0  0  0  0  0  0  0  0
   42.6310   30.6910   36.3910 C   0  0  0  0  0  0  0  0  0  0  0  0
   43.1020   30.3930   35.1090 C   0  0  0  0  0  0  0  0  0  0  0  0
   42.2730   29.6830   34.2710 N   0  0  0  0  0  0  0  0  0  0  0  0
   41.0450   29.2750   34.6390 C   0  0  0  0  0  0  0  0  0  0  0  0
   40.5560   29.5470   35.8740 N   0  0  0  0  0  0  0  0  0  0  0  0
   41.6590   29.8410   39.1840 C   0  0  0  0  0  0  0  0  0  0  0  0
   40.8101   33.4566   41.0434 H   0  0  0  0  0  0  0  0  0  0  0  0
   40.9077   34.7229   38.2909 H   0  0  0  0  0  0  0  0  0  0  0  0
   39.4670   33.9249   38.9468 H   0  0  0  0  0  0  0  0  0  0  0  0
   40.1918   36.5699   39.4242 H   0  0  0  0  0  0  0  0  0  0  0  0
   39.1079   35.5687   40.4943 H   0  0  0  0  0  0  0  0  0  0  0  0
   41.0133   36.8755   41.5814 H   0  0  0  0  0  0  0  0  0  0  0  0
   40.7820   35.1155   41.9903 H   0  0  0  0  0  0  0  0  0  0  0  0
   42.8667   36.3241   40.1385 H   0  0  0  0  0  0  0  0  0  0  0  0
   43.1232   35.5260   41.7414 H   0  0  0  0  0  0  0  0  0  0  0  0
   42.9450   34.4810   39.1417 H   0  0  0  0  0  0  0  0  0  0  0  0
   45.4910   31.6999   42.7448 H   0  0  0  0  0  0  0  0  0  0  0  0
   47.4705   31.2016   38.6440 H   0  0  0  0  0  0  0  0  0  0  0  0
   46.9993   32.0377   36.3573 H   0  0  0  0  0  0  0  0  0  0  0  0
   45.0010   33.5148   35.9789 H   0  0  0  0  0  0  0  0  0  0  0  0
   43.5779   34.0853   37.9004 H   0  0  0  0  0  0  0  0  0  0  0  0
   39.9063   32.5191   38.2085 H   0  0  0  0  0  0  0  0  0  0  0  0
   41.5389   32.6043   37.5726 H   0  0  0  0  0  0  0  0  0  0  0  0
   39.8481   30.2575   38.2717 H   0  0  0  0  0  0  0  0  0  0  0  0
   43.2469   31.2548   37.1071 H   0  0  0  0  0  0  0  0  0  0  0  0
   44.1014   30.7151   34.7812 H   0  0  0  0  0  0  0  0  0  0  0  0
   40.4267   28.7107   33.9253 H   0  0  0  0  0  0  0  0  0  0  0  0
   41.3272   30.1629   40.1822 H   0  0  0  0  0  0  0  0  0  0  0  0
   41.4819   28.7614   39.0692 H   0  0  0  0  0  0  0  0  0  0  0  0
   42.7327   30.0507   39.0692 H   0  0  0  0  0  0  0  0  0  0  0  0
  1  6  1  0
  2  1  1  0
  2  3  1  0
  3  4  1  0
  5  4  1  0
  6  7  1  0
  6  5  1  0
  7  8  2  0
  8  9  1  0
 10  9  2  0
 11 10  1  0
 12 11  2  0
 13 12  1  0
 14 13  2  0
 14 15  1  0
 15 16  2  0
 16 11  1  0
 16  7  1  0
 17  1  1  0
 18 17  1  0
 19 18  1  0
 19 26  1  0
 20 19  1  0
 21 20  2  0
 22 21  1  0
 23 24  1  0
 23 22  2  0
 24 25  2  0
 25 20  1  0
  1 27  1  1
  2 28  1  0
  2 29  1  0
  3 30  1  0
  3 31  1  0
  4 32  1  0
  4 33  1  0
  5 34  1  0
  5 35  1  0
  6 36  1  6
  9 37  1  0
 12 38  1  0
 13 39  1  0
 14 40  1  0
 15 41  1  0
 18 42  1  0
 18 43  1  0
 19 44  1  6
 21 45  1  0
 22 46  1  0
 24 47  1  0
 26 48  1  0
 26 49  1  0
 26 50  1  0
M  ISO  8  27  13  28  13  29  13  30  13  31  13  32  13  33  13  34  13
M  ISO  8  35  13  36  13  37  14  38  14  39  14  40  14  41  14  42   8
M  ISO  8  43   8  44   8  45  14  46  14  47  14  48   8  49   8  50   8
M  END
>  <minimizedAffinity>  (1) 
-4.21391201

>  <minimizedRMSD>  (1) 
8.28958035

$$$$
