
     RDKit          3D

 45 47  0  0  1  0  0  0  0  0999 V2000
   40.4320   31.1610   39.7710 C   0  0  2  0  0  0  0  0  0  0  0  0
   39.7650   31.4490   38.4430 C   0  0  0  0  0  0  0  0  0  0  0  0
   38.3920   30.8020   38.4870 C   0  0  0  0  0  0  0  0  0  0  0  0
   37.9770   30.4070   39.8730 C   0  0  0  0  0  0  0  0  0  0  0  0
   38.3010   31.4590   40.9070 C   0  0  0  0  0  0  0  0  0  0  0  0
   39.7380   31.8800   40.8670 C   0  0  2  0  0  0  0  0  0  0  0  0
   39.8950   33.3530   40.7590 C   0  0  0  0  0  0  0  0  0  0  0  0
   40.7780   33.9910   41.6270 C   0  0  0  0  0  0  0  0  0  0  0  0
   41.0080   35.3720   41.6240 C   0  0  0  0  0  0  0  0  0  0  0  0
   40.3290   36.1530   40.7130 C   0  0  0  0  0  0  0  0  0  0  0  0
   39.4630   35.4920   39.8660 C   0  0  0  0  0  0  0  0  0  0  0  0
   39.2620   34.1630   39.8940 N   0  0  0  0  0  0  0  0  0  0  0  0
   41.7880   31.3480   39.7240 O   0  0  0  0  0  0  0  0  0  0  0  0
   42.2590   31.7270   38.4490 C   0  0  0  0  0  0  0  0  0  0  0  0
   43.2920   32.7560   38.6630 C   0  0  1  0  0  0  0  0  0  0  0  0
   44.4990   32.5150   37.7970 C   0  0  0  0  0  0  0  0  0  0  0  0
   44.2860   31.5860   36.7560 C   0  0  0  0  0  0  0  0  0  0  0  0
   45.3590   31.3080   35.9000 C   0  0  0  0  0  0  0  0  0  0  0  0
   46.5430   31.9680   36.1440 N   0  0  0  0  0  0  0  0  0  0  0  0
   46.7060   32.8470   37.1460 C   0  0  0  0  0  0  0  0  0  0  0  0
   45.6830   33.1340   37.9900 N   0  0  0  0  0  0  0  0  0  0  0  0
   42.7760   34.1780   38.5490 C   0  0  0  0  0  0  0  0  0  0  0  0
   40.3245   30.0902   39.9988 H   0  0  0  0  0  0  0  0  0  0  0  0
   40.3583   31.0210   37.6215 H   0  0  0  0  0  0  0  0  0  0  0  0
   39.6834   32.5324   38.2712 H   0  0  0  0  0  0  0  0  0  0  0  0
   37.6549   31.5154   38.0899 H   0  0  0  0  0  0  0  0  0  0  0  0
   38.4402   29.8841   37.8827 H   0  0  0  0  0  0  0  0  0  0  0  0
   36.8908   30.2332   39.8778 H   0  0  0  0  0  0  0  0  0  0  0  0
   38.5386   29.4993   40.1391 H   0  0  0  0  0  0  0  0  0  0  0  0
   37.6699   32.3409   40.7226 H   0  0  0  0  0  0  0  0  0  0  0  0
   38.1081   31.0234   41.8985 H   0  0  0  0  0  0  0  0  0  0  0  0
   40.2077   31.6049   41.8229 H   0  0  0  0  0  0  0  0  0  0  0  0
   41.3254   33.3752   42.3558 H   0  0  0  0  0  0  0  0  0  0  0  0
   41.7159   35.8247   42.3339 H   0  0  0  0  0  0  0  0  0  0  0  0
   40.4698   37.2429   40.6640 H   0  0  0  0  0  0  0  0  0  0  0  0
   38.9059   36.0858   39.1264 H   0  0  0  0  0  0  0  0  0  0  0  0
   41.4345   32.1379   37.8479 H   0  0  0  0  0  0  0  0  0  0  0  0
   42.6707   30.8621   37.9081 H   0  0  0  0  0  0  0  0  0  0  0  0
   43.6071   32.6519   39.7118 H   0  0  0  0  0  0  0  0  0  0  0  0
   43.3100   31.0968   36.6215 H   0  0  0  0  0  0  0  0  0  0  0  0
   45.2605   30.5938   35.0692 H   0  0  0  0  0  0  0  0  0  0  0  0
   47.6797   33.3399   37.2841 H   0  0  0  0  0  0  0  0  0  0  0  0
   42.6247   34.5950   39.5556 H   0  0  0  0  0  0  0  0  0  0  0  0
   43.5089   34.7914   38.0044 H   0  0  0  0  0  0  0  0  0  0  0  0
   41.8203   34.1787   38.0044 H   0  0  0  0  0  0  0  0  0  0  0  0
  1  6  1  0
  2  3  1  0
  2  1  1  0
  3  4  1  0
  4  5  1  0
  6  5  1  0
  7  6  1  0
  7  8  2  0
  9  8  1  0
 10  9  2  0
 11 12  2  0
 11 10  1  0
 12  7  1  0
 13  1  1  0
 14 15  1  0
 14 13  1  0
 16 21  1  0
 16 15  1  0
 17 16  2  0
 18 19  2  0
 18 17  1  0
 19 20  1  0
 20 21  2  0
 22 15  1  0
  1 23  1  1
  2 24  1  0
  2 25  1  0
  3 26  1  0
  3 27  1  0
  4 28  1  0
  4 29  1  0
  5 30  1  0
  5 31  1  0
  6 32  1  1
  8 33  1  0
  9 34  1  0
 10 35  1  0
 11 36  1  0
 14 37  1  0
 14 38  1  0
 15 39  1  1
 17 40  1  0
 18 41  1  0
 20 42  1  0
 22 43  1  0
 22 44  1  0
 22 45  1  0
M  ISO  8  23  13  24  13  25  13  26  13  27  13  28  13  29  13  30  13
M  ISO  8  31  13  32  13  33  14  34  14  35  14  36  14  37   8  38   8
M  ISO  7  39   8  40  14  41  14  42  14  43   8  44   8  45   8
M  END
>  <minimizedAffinity>  (1) 
-4.23105145

>  <minimizedRMSD>  (1) 
5.80439663

$$$$
