
     RDKit          3D

 26 28  0  0  0  0  0  0  0  0999 V2000
   45.8160   33.5230   42.4670 C   0  0  0  0  0  0  0  0  0  0  0  0
   44.9120   32.8180   41.7540 N   0  0  0  0  0  0  0  0  0  0  0  0
   45.0270   32.7340   40.4060 C   0  0  0  0  0  0  0  0  0  0  0  0
   46.0070   33.3230   39.7190 N   0  0  0  0  0  0  0  0  0  0  0  0
   46.9220   34.0350   40.4350 C   0  0  0  0  0  0  0  0  0  0  0  0
   47.9720   34.6670   39.7710 C   0  0  0  0  0  0  0  0  0  0  0  0
   48.9280   35.3990   40.4650 C   0  0  0  0  0  0  0  0  0  0  0  0
   48.8060   35.4790   41.8360 C   0  0  0  0  0  0  0  0  0  0  0  0
   47.7940   34.8780   42.5330 C   0  0  0  0  0  0  0  0  0  0  0  0
   46.8640   34.1630   41.8270 C   0  0  0  0  0  0  0  0  0  0  0  0
   45.0640   34.5420   44.7300 C   0  0  0  0  0  0  0  0  0  0  0  0
   45.6470   33.5820   43.9040 C   0  0  0  0  0  0  0  0  0  0  0  0
   46.2250   32.4460   44.5010 C   0  0  0  0  0  0  0  0  0  0  0  0
   46.1760   32.3560   45.8730 N   0  0  0  0  0  0  0  0  0  0  0  0
   45.6020   33.3060   46.6270 C   0  0  0  0  0  0  0  0  0  0  0  0
   45.0550   34.3790   46.0710 N   0  0  0  0  0  0  0  0  0  0  0  0
   44.5050   35.6490   44.0180 C   0  0  0  0  0  0  0  0  0  0  0  0
   45.0450   36.7670   43.8390 O   0  0  0  0  0  0  0  0  0  0  0  0
   44.2759   32.1520   39.8518 H   0  0  0  0  0  0  0  0  0  0  0  0
   48.0454   34.5848   38.6765 H   0  0  0  0  0  0  0  0  0  0  0  0
   49.7546   35.8980   39.9380 H   0  0  0  0  0  0  0  0  0  0  0  0
   49.5584   36.0536   42.3961 H   0  0  0  0  0  0  0  0  0  0  0  0
   47.7293   34.9665   43.6275 H   0  0  0  0  0  0  0  0  0  0  0  0
   46.6979   31.6601   43.8938 H   0  0  0  0  0  0  0  0  0  0  0  0
   45.5848   33.1935   47.7211 H   0  0  0  0  0  0  0  0  0  0  0  0
   43.5039   35.5063   43.5851 H   0  0  0  0  0  0  0  0  0  0  0  0
  1 12  1  0
  2  1  2  0
  3  2  1  0
  4  3  2  0
  4  5  1  0
  5 10  2  0
  6  5  1  0
  6  7  2  0
  7  8  1  0
  8  9  2  0
 10  1  1  0
 10  9  1  0
 11 16  2  0
 12 13  2  0
 12 11  1  0
 13 14  1  0
 14 15  2  0
 16 15  1  0
 17 11  1  0
 18 17  2  0
  3 19  1  0
  6 20  1  0
  7 21  1  0
  8 22  1  0
  9 23  1  0
 13 24  1  0
 15 25  1  0
 17 26  1  0
M  ISO  8  19  14  20  14  21  14  22  14  23  14  24  14  25  14  26   6
M  END
>  <minimizedAffinity>  (1) 
-5.07849741

>  <minimizedRMSD>  (1) 
1.54901922

$$$$
