
     RDKit          3D

 22 23  0  0  0  0  0  0  0  0999 V2000
   45.3620   34.8820   44.2700 C   0  0  0  0  0  0  0  0  0  0  0  0
   46.3930   34.1540   43.6810 C   0  0  0  0  0  0  0  0  0  0  0  0
   47.0200   33.1610   44.4550 C   0  0  0  0  0  0  0  0  0  0  0  0
   46.5680   32.9770   45.7420 N   0  0  0  0  0  0  0  0  0  0  0  0
   45.5670   33.7070   46.2640 C   0  0  0  0  0  0  0  0  0  0  0  0
   44.9770   34.6480   45.5260 N   0  0  0  0  0  0  0  0  0  0  0  0
   46.9130   34.2720   42.3930 N   0  0  0  0  0  0  0  0  0  0  0  0
   47.9780   35.0350   42.0740 C   0  0  0  0  0  0  0  0  0  0  0  0
   48.4930   35.1510   40.7950 C   0  0  0  0  0  0  0  0  0  0  0  0
   47.8850   34.4390   39.7610 C   0  0  0  0  0  0  0  0  0  0  0  0
   48.3400   34.5350   38.6010 O   0  0  0  0  0  0  0  0  0  0  0  0
   46.8260   33.6860   40.1050 N   0  0  0  0  0  0  0  0  0  0  0  0
   46.3580   33.6040   41.3630 C   0  0  0  0  0  0  0  0  0  0  0  0
   45.3470   32.8410   41.5040 O   0  0  0  0  0  0  0  0  0  0  0  0
   44.7690   35.8770   43.4260 C   0  0  0  0  0  0  0  0  0  0  0  0
   45.1950   37.0720   43.2890 O   0  0  0  0  0  0  0  0  0  0  0  0
   47.8414   32.5538   44.0468 H   0  0  0  0  0  0  0  0  0  0  0  0
   45.2354   33.5285   47.2975 H   0  0  0  0  0  0  0  0  0  0  0  0
   48.4678   35.6003   42.8806 H   0  0  0  0  0  0  0  0  0  0  0  0
   49.3648   35.7921   40.5975 H   0  0  0  0  0  0  0  0  0  0  0  0
   46.3497   33.1453   39.3690 H   0  0  0  0  0  0  0  0  0  0  0  0
   43.8767   35.5879   42.8513 H   0  0  0  0  0  0  0  0  0  0  0  0
  1  6  2  0
  2  1  1  0
  2  3  2  0
  3  4  1  0
  4  5  2  0
  6  5  1  0
  7  2  1  0
  8  7  1  0
  9  8  2  0
 10 12  1  0
 10  9  1  0
 11 10  2  0
 12 13  1  0
 13 14  2  0
 13  7  1  0
 15  1  1  0
 16 15  2  0
  3 17  1  0
  5 18  1  0
  8 19  1  0
  9 20  1  0
 12 21  1  0
 15 22  1  0
M  ISO  6  17  14  18  14  19  14  20  14  21   9  22   6
M  END
>  <minimizedAffinity>  (1) 
-4.73653841

>  <minimizedRMSD>  (1) 
0.690190017

$$$$
