
     RDKit          3D

 22 23  0  0  0  0  0  0  0  0999 V2000
   45.3720   35.0820   44.1450 C   0  0  0  0  0  0  0  0  0  0  0  0
   46.4220   34.3530   43.5850 C   0  0  0  0  0  0  0  0  0  0  0  0
   46.9870   33.3210   44.3360 C   0  0  0  0  0  0  0  0  0  0  0  0
   46.4690   33.0860   45.5900 N   0  0  0  0  0  0  0  0  0  0  0  0
   45.4420   33.8290   46.0860 C   0  0  0  0  0  0  0  0  0  0  0  0
   44.9110   34.8100   45.3640 N   0  0  0  0  0  0  0  0  0  0  0  0
   47.0510   34.4900   42.2930 C   0  0  0  0  0  0  0  0  0  0  0  0
   46.5620   33.7700   41.2050 C   0  0  0  0  0  0  0  0  0  0  0  0
   47.1370   33.8750   39.9450 C   0  0  0  0  0  0  0  0  0  0  0  0
   48.2150   34.6940   39.7180 C   0  0  0  0  0  0  0  0  0  0  0  0
   48.7180   35.4160   40.7750 C   0  0  0  0  0  0  0  0  0  0  0  0
   48.1340   35.2960   42.0060 C   0  0  0  0  0  0  0  0  0  0  0  0
   44.8650   36.1180   43.2980 C   0  0  0  0  0  0  0  0  0  0  0  0
   45.1990   37.3480   43.3050 O   0  0  0  0  0  0  0  0  0  0  0  0
   47.8166   32.7169   43.9401 H   0  0  0  0  0  0  0  0  0  0  0  0
   45.0491   33.6159   47.0911 H   0  0  0  0  0  0  0  0  0  0  0  0
   45.6996   33.1022   41.3473 H   0  0  0  0  0  0  0  0  0  0  0  0
   46.7200   33.2899   39.1120 H   0  0  0  0  0  0  0  0  0  0  0  0
   48.6647   34.7708   38.7171 H   0  0  0  0  0  0  0  0  0  0  0  0
   49.5809   36.0830   40.6319 H   0  0  0  0  0  0  0  0  0  0  0  0
   48.5600   35.8870   42.8302 H   0  0  0  0  0  0  0  0  0  0  0  0
   44.1045   35.8206   42.5609 H   0  0  0  0  0  0  0  0  0  0  0  0
  1  6  2  0
  2  1  1  0
  2  3  2  0
  3  4  1  0
  4  5  2  0
  6  5  1  0
  7  2  1  0
  8  7  2  0
  9  8  1  0
 10  9  2  0
 10 11  1  0
 11 12  2  0
 12  7  1  0
 13 14  2  0
 13  1  1  0
  3 15  1  0
  5 16  1  0
  8 17  1  0
  9 18  1  0
 10 19  1  0
 11 20  1  0
 12 21  1  0
 13 22  1  0
M  ISO  8  15  14  16  14  17  14  18  14  19  14  20  14  21  14  22   6
M  END
>  <minimizedAffinity>  (1) 
-4.89915228

>  <minimizedRMSD>  (1) 
0.969561815

$$$$
