
     RDKit          3D

 19 20  0  0  0  0  0  0  0  0999 V2000
   45.6830   34.9580   43.8140 C   0  0  0  0  0  0  0  0  0  0  0  0
   46.8120   34.3750   43.2660 C   0  0  0  0  0  0  0  0  0  0  0  0
   47.3690   33.3260   44.0380 C   0  0  0  0  0  0  0  0  0  0  0  0
   46.8010   32.9620   45.2130 N   0  0  0  0  0  0  0  0  0  0  0  0
   45.7020   33.5700   45.6900 C   0  0  0  0  0  0  0  0  0  0  0  0
   45.1550   34.5560   44.9940 N   0  0  0  0  0  0  0  0  0  0  0  0
   47.5000   34.6640   42.0190 C   0  0  0  0  0  0  0  0  0  0  0  0
   47.2570   34.0500   40.8110 C   0  0  0  0  0  0  0  0  0  0  0  0
   48.0860   34.5660   39.8560 C   0  0  0  0  0  0  0  0  0  0  0  0
   48.8340   35.4880   40.4580 N   0  0  0  0  0  0  0  0  0  0  0  0
   48.4700   35.5240   41.7190 N   0  0  0  0  0  0  0  0  0  0  0  0
   45.1390   36.0170   43.0280 C   0  0  0  0  0  0  0  0  0  0  0  0
   45.2040   37.2650   43.3090 O   0  0  0  0  0  0  0  0  0  0  0  0
   48.2687   32.8034   43.6811 H   0  0  0  0  0  0  0  0  0  0  0  0
   45.2616   33.2531   46.6469 H   0  0  0  0  0  0  0  0  0  0  0  0
   46.5081   33.2625   40.6406 H   0  0  0  0  0  0  0  0  0  0  0  0
   48.1275   34.2761   38.7957 H   0  0  0  0  0  0  0  0  0  0  0  0
   49.5632   36.0661   40.0164 H   0  0  0  0  0  0  0  0  0  0  0  0
   44.6185   35.7375   42.1001 H   0  0  0  0  0  0  0  0  0  0  0  0
  1  6  2  0
  2  1  1  0
  2  3  2  0
  3  4  1  0
  4  5  2  0
  6  5  1  0
  7  2  1  0
  8  7  1  0
  9 10  1  0
  9  8  2  0
 10 11  1  0
 11  7  2  0
 12 13  2  0
 12  1  1  0
  3 14  1  0
  5 15  1  0
  8 16  1  0
  9 17  1  0
 10 18  1  0
 12 19  1  0
M  ISO  6  14  14  15  14  16  14  17  14  18   9  19   6
M  END
>  <minimizedAffinity>  (1) 
-4.47531605

>  <minimizedRMSD>  (1) 
0.924303651

$$$$
