
     RDKit          3D

 20 21  0  0  0  0  0  0  0  0999 V2000
   46.2260   33.7000   44.5750 C   0  0  0  0  0  0  0  0  0  0  0  0
   45.7770   33.6820   45.8810 C   0  0  0  0  0  0  0  0  0  0  0  0
   44.8220   34.7000   46.1300 C   0  0  0  0  0  0  0  0  0  0  0  0
   44.4400   35.5530   45.1550 N   0  0  0  0  0  0  0  0  0  0  0  0
   44.9220   35.5060   43.9070 C   0  0  0  0  0  0  0  0  0  0  0  0
   45.8100   34.5820   43.6260 N   0  0  0  0  0  0  0  0  0  0  0  0
   46.0830   32.8310   46.9980 C   0  0  0  0  0  0  0  0  0  0  0  0
   45.0670   32.2750   47.7400 C   0  0  0  0  0  0  0  0  0  0  0  0
   45.2390   31.4590   48.8330 C   0  0  0  0  0  0  0  0  0  0  0  0
   46.5140   31.1870   49.2010 N   0  0  0  0  0  0  0  0  0  0  0  0
   47.5080   31.7330   48.4710 C   0  0  0  0  0  0  0  0  0  0  0  0
   47.2780   32.5110   47.4290 N   0  0  0  0  0  0  0  0  0  0  0  0
   47.2350   32.6920   44.2870 C   0  0  0  0  0  0  0  0  0  0  0  0
   48.1960   32.8550   43.4560 O   0  0  0  0  0  0  0  0  0  0  0  0
   44.3846   34.7967   47.1347 H   0  0  0  0  0  0  0  0  0  0  0  0
   44.5841   36.2197   43.1412 H   0  0  0  0  0  0  0  0  0  0  0  0
   44.0348   32.5012   47.4346 H   0  0  0  0  0  0  0  0  0  0  0  0
   44.3808   31.0460   49.3834 H   0  0  0  0  0  0  0  0  0  0  0  0
   48.5498   31.5223   48.7543 H   0  0  0  0  0  0  0  0  0  0  0  0
   47.1683   31.7298   44.8160 H   0  0  0  0  0  0  0  0  0  0  0  0
  1  2  2  0
  2  3  1  0
  2  7  1  0
  4  3  2  0
  5  4  1  0
  6  5  2  0
  6  1  1  0
  7 12  1  0
  7  8  2  0
  8  9  1  0
  9 10  2  0
 11 10  1  0
 12 11  2  0
 13  1  1  0
 14 13  2  0
  3 15  1  0
  5 16  1  0
  8 17  1  0
  9 18  1  0
 11 19  1  0
 13 20  1  0
M  ISO  6  15  14  16  14  17  14  18  14  19  14  20   6
M  END
>  <minimizedAffinity>  (1) 
-4.36796713

>  <minimizedRMSD>  (1) 
5.85544062

$$$$
