
     RDKit          3D

 26 27  0  0  0  0  0  0  0  0999 V2000
   46.3530   33.7880   44.3570 C   0  0  0  0  0  0  0  0  0  0  0  0
   45.8120   33.7500   45.6350 C   0  0  0  0  0  0  0  0  0  0  0  0
   44.8400   34.7000   45.9940 C   0  0  0  0  0  0  0  0  0  0  0  0
   44.4860   35.6180   45.0370 N   0  0  0  0  0  0  0  0  0  0  0  0
   45.0420   35.6200   43.7950 C   0  0  0  0  0  0  0  0  0  0  0  0
   45.9630   34.7090   43.4760 N   0  0  0  0  0  0  0  0  0  0  0  0
   46.0910   32.8610   46.7020 N   0  0  0  0  0  0  0  0  0  0  0  0
   47.2560   32.0200   46.9160 C   0  0  0  0  0  0  0  0  0  0  0  0
   47.6560   31.8860   48.3460 C   0  0  0  0  0  0  0  0  0  0  0  0
   46.5740   31.7390   49.2750 N   0  0  0  0  0  0  0  0  0  0  0  0
   45.2770   31.6310   48.6600 C   0  0  0  0  0  0  0  0  0  0  0  0
   45.0240   32.8110   47.7170 C   0  0  0  0  0  0  0  0  0  0  0  0
   47.3320   32.7770   44.1020 C   0  0  0  0  0  0  0  0  0  0  0  0
   48.3330   32.8880   43.3180 O   0  0  0  0  0  0  0  0  0  0  0  0
   44.3844   34.7073   46.9952 H   0  0  0  0  0  0  0  0  0  0  0  0
   44.7323   36.3722   43.0545 H   0  0  0  0  0  0  0  0  0  0  0  0
   47.0343   31.0165   46.5239 H   0  0  0  0  0  0  0  0  0  0  0  0
   48.0960   32.5035   46.3958 H   0  0  0  0  0  0  0  0  0  0  0  0
   48.3034   31.0013   48.4360 H   0  0  0  0  0  0  0  0  0  0  0  0
   48.1573   32.8287   48.6106 H   0  0  0  0  0  0  0  0  0  0  0  0
   46.7394   30.8879   49.8311 H   0  0  0  0  0  0  0  0  0  0  0  0
   45.2263   30.6936   48.0867 H   0  0  0  0  0  0  0  0  0  0  0  0
   44.5103   31.6385   49.4488 H   0  0  0  0  0  0  0  0  0  0  0  0
   45.0210   33.7479   48.2934 H   0  0  0  0  0  0  0  0  0  0  0  0
   44.0500   32.6845   47.2217 H   0  0  0  0  0  0  0  0  0  0  0  0
   47.2115   31.8186   44.6283 H   0  0  0  0  0  0  0  0  0  0  0  0
  1  2  2  0
  2  3  1  0
  2  7  1  0
  4  3  2  0
  5  4  1  0
  6  5  2  0
  6  1  1  0
  7  8  1  0
  7 12  1  0
  8  9  1  0
  9 10  1  0
 11 10  1  0
 12 11  1  0
 13  1  1  0
 14 13  2  0
  3 15  1  0
  5 16  1  0
  8 17  1  0
  8 18  1  0
  9 19  1  0
  9 20  1  0
 10 21  1  0
 11 22  1  0
 11 23  1  0
 12 24  1  0
 12 25  1  0
 13 26  1  0
M  ISO  8  15  14  16  14  17  13  18  13  19  13  20  13  21   5  22  13
M  ISO  4  23  13  24  13  25  13  26   6
M  END
>  <minimizedAffinity>  (1) 
-4.44140053

>  <minimizedRMSD>  (1) 
5.76760912

$$$$
