
     RDKit          3D

 25 26  0  0  0  0  0  0  0  0999 V2000
   45.5020   34.9490   44.0700 C   0  0  0  0  0  0  0  0  0  0  0  0
   46.5630   34.4090   43.3140 C   0  0  0  0  0  0  0  0  0  0  0  0
   47.2390   33.3590   43.9140 C   0  0  0  0  0  0  0  0  0  0  0  0
   46.8660   32.9190   45.1410 N   0  0  0  0  0  0  0  0  0  0  0  0
   45.8460   33.4610   45.8310 C   0  0  0  0  0  0  0  0  0  0  0  0
   45.1830   34.4690   45.2770 N   0  0  0  0  0  0  0  0  0  0  0  0
   47.0040   34.8420   41.9910 C   0  0  0  0  0  0  0  0  0  0  0  0
   48.3450   35.5260   41.9450 C   0  0  0  0  0  0  0  0  0  0  0  0
   48.7910   35.3560   40.4810 C   0  0  0  0  0  0  0  0  0  0  0  0
   47.8770   34.3320   39.8930 C   0  0  0  0  0  0  0  0  0  0  0  0
   47.3170   33.6290   41.1010 C   0  0  0  0  0  0  0  0  0  0  0  0
   44.8000   36.0520   43.4400 C   0  0  0  0  0  0  0  0  0  0  0  0
   45.1080   37.2780   43.6180 O   0  0  0  0  0  0  0  0  0  0  0  0
   48.0814   32.8806   43.3930 H   0  0  0  0  0  0  0  0  0  0  0  0
   45.5695   33.0800   46.8252 H   0  0  0  0  0  0  0  0  0  0  0  0
   46.1786   35.5003   41.6822 H   0  0  0  0  0  0  0  0  0  0  0  0
   48.2515   36.5906   42.2055 H   0  0  0  0  0  0  0  0  0  0  0  0
   49.0643   35.1030   42.6618 H   0  0  0  0  0  0  0  0  0  0  0  0
   48.6978   36.3088   39.9392 H   0  0  0  0  0  0  0  0  0  0  0  0
   49.8441   35.0456   40.4123 H   0  0  0  0  0  0  0  0  0  0  0  0
   47.0762   34.8085   39.3085 H   0  0  0  0  0  0  0  0  0  0  0  0
   48.3875   33.6497   39.1974 H   0  0  0  0  0  0  0  0  0  0  0  0
   46.4101   33.0565   40.8567 H   0  0  0  0  0  0  0  0  0  0  0  0
   47.9843   32.8808   41.5537 H   0  0  0  0  0  0  0  0  0  0  0  0
   43.9569   35.8190   42.7730 H   0  0  0  0  0  0  0  0  0  0  0  0
  1  6  2  0
  2  3  2  0
  2  1  1  0
  3  4  1  0
  4  5  2  0
  6  5  1  0
  7  2  1  0
  8  7  1  0
  9  8  1  0
 10  9  1  0
 10 11  1  0
 11  7  1  0
 12 13  2  0
 12  1  1  0
  3 14  1  0
  5 15  1  0
  7 16  1  0
  8 17  1  0
  8 18  1  0
  9 19  1  0
  9 20  1  0
 10 21  1  0
 10 22  1  0
 11 23  1  0
 11 24  1  0
 12 25  1  0
M  ISO  8  14  14  15  14  16  13  17  13  18  13  19  13  20  13  21  13
M  ISO  4  22  13  23  13  24  13  25   6
M  END
>  <minimizedAffinity>  (1) 
-4.52360773

>  <minimizedRMSD>  (1) 
0.466061056

$$$$
