
     RDKit          3D

 18 19  0  0  0  0  0  0  0  0999 V2000
   45.5060   34.9240   44.0890 C   0  0  0  0  0  0  0  0  0  0  0  0
   46.5920   34.2750   43.5380 C   0  0  0  0  0  0  0  0  0  0  0  0
   47.1130   33.2700   44.3950 C   0  0  0  0  0  0  0  0  0  0  0  0
   46.5620   33.0170   45.6160 N   0  0  0  0  0  0  0  0  0  0  0  0
   45.5040   33.6990   46.0710 C   0  0  0  0  0  0  0  0  0  0  0  0
   44.9900   34.6400   45.3040 N   0  0  0  0  0  0  0  0  0  0  0  0
   47.2470   34.4460   42.2500 C   0  0  0  0  0  0  0  0  0  0  0  0
   46.8880   33.6470   41.1420 C   0  0  0  0  0  0  0  0  0  0  0  0
   48.0230   34.2950   39.8240 S   0  0  0  0  0  0  0  0  0  0  0  0
   48.7870   35.5430   41.0270 C   0  0  0  0  0  0  0  0  0  0  0  0
   48.1900   35.2780   41.9130 N   0  0  0  0  0  0  0  0  0  0  0  0
   44.9780   35.9530   43.2390 C   0  0  0  0  0  0  0  0  0  0  0  0
   45.2080   37.2030   43.3070 O   0  0  0  0  0  0  0  0  0  0  0  0
   47.9821   32.6814   44.0659 H   0  0  0  0  0  0  0  0  0  0  0  0
   45.0744   33.4799   47.0596 H   0  0  0  0  0  0  0  0  0  0  0  0
   46.1333   32.8494   41.0771 H   0  0  0  0  0  0  0  0  0  0  0  0
   49.5773   36.2948   40.8850 H   0  0  0  0  0  0  0  0  0  0  0  0
   44.2983   35.6244   42.4390 H   0  0  0  0  0  0  0  0  0  0  0  0
  1  6  2  0
  2  1  1  0
  2  3  2  0
  3  4  1  0
  4  5  2  0
  6  5  1  0
  7  2  1  0
  8  7  2  0
  9 10  1  0
  9  8  1  0
 10 11  2  0
 11  7  1  0
 12 13  2  0
 12  1  1  0
  3 14  1  0
  5 15  1  0
  8 16  1  0
 10 17  1  0
 12 18  1  0
M  ISO  5  14  14  15  14  16  14  17  14  18   6
M  END
>  <minimizedAffinity>  (1) 
-4.02071571

>  <minimizedRMSD>  (1) 
0.948558569

$$$$
