
     RDKit          3D

 19 20  0  0  0  0  0  0  0  0999 V2000
   45.6300   34.8210   43.9060 C   0  0  0  0  0  0  0  0  0  0  0  0
   46.7310   34.0980   43.4120 C   0  0  0  0  0  0  0  0  0  0  0  0
   47.2700   33.1120   44.2540 C   0  0  0  0  0  0  0  0  0  0  0  0
   46.7030   32.9200   45.4720 N   0  0  0  0  0  0  0  0  0  0  0  0
   45.6430   33.6450   45.8990 C   0  0  0  0  0  0  0  0  0  0  0  0
   45.1110   34.5850   45.1250 N   0  0  0  0  0  0  0  0  0  0  0  0
   47.2670   34.3550   42.1320 N   0  0  0  0  0  0  0  0  0  0  0  0
   47.0630   33.9960   40.8510 C   0  0  0  0  0  0  0  0  0  0  0  0
   47.9910   34.6480   40.0410 C   0  0  0  0  0  0  0  0  0  0  0  0
   48.7560   35.4090   40.8760 N   0  0  0  0  0  0  0  0  0  0  0  0
   48.3160   35.2290   42.1350 C   0  0  0  0  0  0  0  0  0  0  0  0
   45.1050   35.8250   43.0150 C   0  0  0  0  0  0  0  0  0  0  0  0
   45.1750   37.0810   43.2060 O   0  0  0  0  0  0  0  0  0  0  0  0
   48.1323   32.5088   43.9336 H   0  0  0  0  0  0  0  0  0  0  0  0
   45.2181   33.4545   46.8956 H   0  0  0  0  0  0  0  0  0  0  0  0
   46.2877   33.2993   40.4995 H   0  0  0  0  0  0  0  0  0  0  0  0
   48.0873   34.5656   38.9483 H   0  0  0  0  0  0  0  0  0  0  0  0
   48.7369   35.7119   43.0293 H   0  0  0  0  0  0  0  0  0  0  0  0
   44.6049   35.4784   42.0986 H   0  0  0  0  0  0  0  0  0  0  0  0
  1  6  2  0
  2  1  1  0
  2  3  2  0
  3  4  1  0
  4  5  2  0
  6  5  1  0
  7 11  1  0
  7  2  1  0
  8  7  1  0
  9  8  2  0
  9 10  1  0
 10 11  2  0
 12 13  2  0
 12  1  1  0
  3 14  1  0
  5 15  1  0
  8 16  1  0
  9 17  1  0
 11 18  1  0
 12 19  1  0
M  ISO  6  14  14  15  14  16  14  17  14  18  14  19   6
M  END
>  <minimizedAffinity>  (1) 
-3.91927481

>  <minimizedRMSD>  (1) 
0.887805045

$$$$
