
     RDKit          3D

 24 24  0  0  0  0  0  0  0  0999 V2000
   45.8410   34.7300   43.7430 C   0  0  0  0  0  0  0  0  0  0  0  0
   46.9260   34.0820   43.1350 C   0  0  0  0  0  0  0  0  0  0  0  0
   47.4820   33.0780   43.9190 C   0  0  0  0  0  0  0  0  0  0  0  0
   46.9730   32.8120   45.1390 N   0  0  0  0  0  0  0  0  0  0  0  0
   45.9360   33.4500   45.6900 C   0  0  0  0  0  0  0  0  0  0  0  0
   45.3830   34.4070   44.9740 N   0  0  0  0  0  0  0  0  0  0  0  0
   47.6170   34.2810   41.8390 C   0  0  0  0  0  0  0  0  0  0  0  0
   48.7060   33.1920   41.6330 C   0  0  0  0  0  0  0  0  0  0  0  0
   46.7460   34.1980   40.6340 C   0  0  0  0  0  0  0  0  0  0  0  0
   48.4600   35.5730   41.8270 C   0  0  0  0  0  0  0  0  0  0  0  0
   45.2550   35.7630   42.9030 C   0  0  0  0  0  0  0  0  0  0  0  0
   45.1900   36.9670   43.2310 O   0  0  0  0  0  0  0  0  0  0  0  0
   48.3388   32.4993   43.5435 H   0  0  0  0  0  0  0  0  0  0  0  0
   45.5631   33.1889   46.6914 H   0  0  0  0  0  0  0  0  0  0  0  0
   49.0602   32.8378   42.6123 H   0  0  0  0  0  0  0  0  0  0  0  0
   48.2793   32.3485   41.0704 H   0  0  0  0  0  0  0  0  0  0  0  0
   49.5495   33.6187   41.0704 H   0  0  0  0  0  0  0  0  0  0  0  0
   45.6961   34.0980   40.9466 H   0  0  0  0  0  0  0  0  0  0  0  0
   46.8640   35.1115   40.0326 H   0  0  0  0  0  0  0  0  0  0  0  0
   47.0344   33.3233   40.0326 H   0  0  0  0  0  0  0  0  0  0  0  0
   48.6648   35.8868   42.8612 H   0  0  0  0  0  0  0  0  0  0  0  0
   49.4103   35.3859   41.3056 H   0  0  0  0  0  0  0  0  0  0  0  0
   47.9060   36.3675   41.3056 H   0  0  0  0  0  0  0  0  0  0  0  0
   44.8466   35.4680   41.9252 H   0  0  0  0  0  0  0  0  0  0  0  0
  1  6  2  0
  2  1  1  0
  2  3  2  0
  3  4  1  0
  4  5  2  0
  6  5  1  0
  7  2  1  0
  8  7  1  0
  9  7  1  0
 10  7  1  0
 11 12  2  0
 11  1  1  0
  3 13  1  0
  5 14  1  0
  8 15  1  0
  8 16  1  0
  8 17  1  0
  9 18  1  0
  9 19  1  0
  9 20  1  0
 10 21  1  0
 10 22  1  0
 10 23  1  0
 11 24  1  0
M  ISO  8  13  14  14  14  15   8  16   8  17   8  18   8  19   8  20   8
M  ISO  4  21   8  22   8  23   8  24   6
M  END
>  <minimizedAffinity>  (1) 
-3.8842833

>  <minimizedRMSD>  (1) 
0.8668257

$$$$
