
     RDKit          3D

 18 19  0  0  0  0  0  0  0  0999 V2000
   45.5400   34.8690   44.0280 C   0  0  0  0  0  0  0  0  0  0  0  0
   46.6200   34.1840   43.4670 C   0  0  0  0  0  0  0  0  0  0  0  0
   47.2230   33.1640   44.2220 C   0  0  0  0  0  0  0  0  0  0  0  0
   46.7010   32.9140   45.4700 N   0  0  0  0  0  0  0  0  0  0  0  0
   45.6600   33.6050   45.9620 C   0  0  0  0  0  0  0  0  0  0  0  0
   45.0840   34.5750   45.2460 N   0  0  0  0  0  0  0  0  0  0  0  0
   47.1800   34.4210   42.1790 N   0  0  0  0  0  0  0  0  0  0  0  0
   46.9620   34.0830   40.8930 C   0  0  0  0  0  0  0  0  0  0  0  0
   47.8850   34.6600   40.1130 N   0  0  0  0  0  0  0  0  0  0  0  0
   48.6960   35.3710   40.9150 C   0  0  0  0  0  0  0  0  0  0  0  0
   48.2580   35.2200   42.1710 N   0  0  0  0  0  0  0  0  0  0  0  0
   45.0100   35.8810   43.1680 C   0  0  0  0  0  0  0  0  0  0  0  0
   45.1910   37.1240   43.2310 O   0  0  0  0  0  0  0  0  0  0  0  0
   48.0762   32.5897   43.8318 H   0  0  0  0  0  0  0  0  0  0  0  0
   45.2771   33.3698   46.9660 H   0  0  0  0  0  0  0  0  0  0  0  0
   46.1495   33.4321   40.5379 H   0  0  0  0  0  0  0  0  0  0  0  0
   49.5628   35.9688   40.5969 H   0  0  0  0  0  0  0  0  0  0  0  0
   44.3641   35.5288   42.3502 H   0  0  0  0  0  0  0  0  0  0  0  0
  1  6  2  0
  2  1  1  0
  2  3  2  0
  3  4  1  0
  4  5  2  0
  6  5  1  0
  7  2  1  0
  8  7  1  0
  9  8  2  0
  9 10  1  0
 10 11  2  0
 11  7  1  0
 12 13  2  0
 12  1  1  0
  3 14  1  0
  5 15  1  0
  8 16  1  0
 10 17  1  0
 12 18  1  0
M  ISO  5  14  14  15  14  16  14  17  14  18   6
M  END
>  <minimizedAffinity>  (1) 
-3.96029162

>  <minimizedRMSD>  (1) 
0.633600831

$$$$
