
     RDKit          3D

 17 18  0  0  0  0  0  0  0  0999 V2000
   45.6650   34.9280   43.8620 C   0  0  0  0  0  0  0  0  0  0  0  0
   46.7930   34.3770   43.2800 C   0  0  0  0  0  0  0  0  0  0  0  0
   47.3560   33.3350   44.0630 C   0  0  0  0  0  0  0  0  0  0  0  0
   46.8040   32.9640   45.2430 N   0  0  0  0  0  0  0  0  0  0  0  0
   45.7060   33.5500   45.7390 C   0  0  0  0  0  0  0  0  0  0  0  0
   45.1470   34.5250   45.0450 N   0  0  0  0  0  0  0  0  0  0  0  0
   47.4590   34.6720   42.0390 C   0  0  0  0  0  0  0  0  0  0  0  0
   48.3830   35.5760   41.7280 N   0  0  0  0  0  0  0  0  0  0  0  0
   48.7070   35.4960   40.4960 O   0  0  0  0  0  0  0  0  0  0  0  0
   48.0260   34.5510   39.9420 C   0  0  0  0  0  0  0  0  0  0  0  0
   47.2460   34.0310   40.8920 N   0  0  0  0  0  0  0  0  0  0  0  0
   45.0710   35.9900   43.1050 C   0  0  0  0  0  0  0  0  0  0  0  0
   45.2030   37.2410   43.3030 O   0  0  0  0  0  0  0  0  0  0  0  0
   48.2586   32.8186   43.7042 H   0  0  0  0  0  0  0  0  0  0  0  0
   45.2805   33.2271   46.7006 H   0  0  0  0  0  0  0  0  0  0  0  0
   48.0780   34.2347   38.8897 H   0  0  0  0  0  0  0  0  0  0  0  0
   44.4314   35.6921   42.2611 H   0  0  0  0  0  0  0  0  0  0  0  0
  1  6  2  0
  2  1  1  0
  2  3  2  0
  3  4  1  0
  4  5  2  0
  6  5  1  0
  7  2  1  0
  8  7  2  0
  9  8  1  0
 10  9  1  0
 10 11  2  0
 11  7  1  0
 12 13  2  0
 12  1  1  0
  3 14  1  0
  5 15  1  0
 10 16  1  0
 12 17  1  0
M  ISO  4  14  14  15  14  16  14  17   6
M  END
>  <minimizedAffinity>  (1) 
-4.13174772

>  <minimizedRMSD>  (1) 
0.983255744

$$$$
