
     RDKit          3D

 19 20  0  0  0  0  0  0  0  0999 V2000
   45.4920   34.9290   44.0480 C   0  0  0  0  0  0  0  0  0  0  0  0
   46.5840   34.2410   43.5210 C   0  0  0  0  0  0  0  0  0  0  0  0
   47.1580   33.2370   44.3150 C   0  0  0  0  0  0  0  0  0  0  0  0
   46.6110   33.0020   45.5440 N   0  0  0  0  0  0  0  0  0  0  0  0
   45.5500   33.6980   46.0080 C   0  0  0  0  0  0  0  0  0  0  0  0
   45.0060   34.6500   45.2570 N   0  0  0  0  0  0  0  0  0  0  0  0
   47.1870   34.4480   42.2530 N   0  0  0  0  0  0  0  0  0  0  0  0
   46.8200   33.8950   41.1040 N   0  0  0  0  0  0  0  0  0  0  0  0
   47.6310   34.3350   40.1240 C   0  0  0  0  0  0  0  0  0  0  0  0
   48.5430   35.2020   40.6980 C   0  0  0  0  0  0  0  0  0  0  0  0
   48.2500   35.2640   42.0440 C   0  0  0  0  0  0  0  0  0  0  0  0
   44.9520   35.9400   43.1910 C   0  0  0  0  0  0  0  0  0  0  0  0
   45.1910   37.1910   43.2560 O   0  0  0  0  0  0  0  0  0  0  0  0
   48.0220   32.6569   43.9586 H   0  0  0  0  0  0  0  0  0  0  0  0
   45.1379   33.4775   47.0038 H   0  0  0  0  0  0  0  0  0  0  0  0
   47.5781   34.0561   39.0613 H   0  0  0  0  0  0  0  0  0  0  0  0
   49.3496   35.7404   40.1789 H   0  0  0  0  0  0  0  0  0  0  0  0
   48.7773   35.8608   42.8028 H   0  0  0  0  0  0  0  0  0  0  0  0
   44.2645   35.6058   42.4000 H   0  0  0  0  0  0  0  0  0  0  0  0
  1  6  2  0
  2  1  1  0
  2  3  2  0
  3  4  1  0
  4  5  2  0
  6  5  1  0
  7  2  1  0
  8  7  1  0
  9 10  1  0
  9  8  2  0
 10 11  2  0
 11  7  1  0
 12 13  2  0
 12  1  1  0
  3 14  1  0
  5 15  1  0
  9 16  1  0
 10 17  1  0
 11 18  1  0
 12 19  1  0
M  ISO  6  14  14  15  14  16  14  17  14  18  14  19   6
M  END
>  <minimizedAffinity>  (1) 
-4.12315845

>  <minimizedRMSD>  (1) 
0.863166034

$$$$
