
     RDKit          3D

 13 13  0  0  0  0  0  0  0  0999 V2000
   45.4060   34.8040   44.4660 C   0  0  0  0  0  0  0  0  0  0  0  0
   46.3970   34.3130   43.6150 C   0  0  0  0  0  0  0  0  0  0  0  0
   47.1660   33.2420   44.0990 C   0  0  0  0  0  0  0  0  0  0  0  0
   46.8970   32.7660   45.3420 N   0  0  0  0  0  0  0  0  0  0  0  0
   45.9150   33.2860   46.1280 C   0  0  0  0  0  0  0  0  0  0  0  0
   45.1840   34.2980   45.6780 N   0  0  0  0  0  0  0  0  0  0  0  0
   44.6640   35.8940   43.9020 C   0  0  0  0  0  0  0  0  0  0  0  0
   45.1320   36.8960   43.2650 O   0  0  0  0  0  0  0  0  0  0  0  0
   46.6780   34.7920   42.3460 O   0  0  0  0  0  0  0  0  0  0  0  0
   47.9659   32.8000   43.4867 H   0  0  0  0  0  0  0  0  0  0  0  0
   45.7286   32.8703   47.1292 H   0  0  0  0  0  0  0  0  0  0  0  0
   43.5722   35.8630   44.0327 H   0  0  0  0  0  0  0  0  0  0  0  0
   46.1549   35.5460   41.9744 H   0  0  0  0  0  0  0  0  0  0  0  0
  1  6  2  0
  2  3  2  0
  2  1  1  0
  3  4  1  0
  4  5  2  0
  6  5  1  0
  7  1  1  0
  8  7  2  0
  9  2  1  0
  3 10  1  0
  5 11  1  0
  7 12  1  0
  9 13  1  0
M  ISO  4  10  14  11  14  12   6  13   3
M  END
>  <minimizedAffinity>  (1) 
-3.03583455

>  <minimizedRMSD>  (1) 
0.0898171589

$$$$
