
     RDKit          3D

 36 39  0  0  1  0  0  0  0  0999 V2000
   45.6880   34.4690   43.7680 C   0  0  0  0  0  0  0  0  0  0  0  0
   46.9360   34.0460   43.2930 C   0  0  0  0  0  0  0  0  0  0  0  0
   47.6360   33.0710   44.0020 C   0  0  0  0  0  0  0  0  0  0  0  0
   47.0660   32.5740   45.1300 N   0  0  0  0  0  0  0  0  0  0  0  0
   45.8590   32.9950   45.5730 C   0  0  0  0  0  0  0  0  0  0  0  0
   45.1920   33.9330   44.8880 N   0  0  0  0  0  0  0  0  0  0  0  0
   47.5810   34.5270   42.1200 N   0  0  0  0  0  0  0  0  0  0  0  0
   48.4020   35.5760   41.9100 C   0  0  0  0  0  0  0  0  0  0  0  0
   48.7450   35.6050   40.5960 N   0  0  0  0  0  0  0  0  0  0  0  0
   48.1470   34.5770   39.9610 C   0  0  0  0  0  0  0  0  0  0  0  0
   48.1370   34.1370   38.6630 C   0  0  0  0  0  0  0  0  0  0  0  0
   47.4100   33.0420   38.3340 N   0  0  0  0  0  0  0  0  0  0  0  0
   46.6890   32.3730   39.2710 C   0  0  0  0  0  0  0  0  0  0  0  0
   46.7300   32.8400   40.5220 N   0  0  0  0  0  0  0  0  0  0  0  0
   47.4270   33.9160   40.9200 C   0  0  0  0  0  0  0  0  0  0  0  0
   48.8740   34.8050   37.6490 N   0  0  0  0  0  0  0  0  0  0  0  0
   45.0080   35.4480   42.9900 C   0  0  0  0  0  0  0  0  0  0  0  0
   45.3140   36.7100   43.0310 O   0  0  0  0  0  0  0  0  0  0  0  0
   43.9040   35.2840   42.0490 C   0  0  0  0  0  0  0  0  0  0  0  0
   44.0790   34.9240   40.7340 C   0  0  0  0  0  0  0  0  0  0  0  0
   43.0010   34.8030   39.8460 C   0  0  0  0  0  0  0  0  0  0  0  0
   41.7230   35.0350   40.2370 C   0  0  0  0  0  0  0  0  0  0  0  0
   41.5900   35.3890   41.5460 C   0  0  0  0  0  0  0  0  0  0  0  0
   42.6320   35.5000   42.3810 N   0  0  0  0  0  0  0  0  0  0  0  0
   48.6188   32.7155   43.6587 H   0  0  0  0  0  0  0  0  0  0  0  0
   45.4277   32.5692   46.4910 H   0  0  0  0  0  0  0  0  0  0  0  0
   48.7383   36.2901   42.6761 H   0  0  0  0  0  0  0  0  0  0  0  0
   46.0961   31.4838   39.0105 H   0  0  0  0  0  0  0  0  0  0  0  0
   48.8509   34.4554   36.6804 H   0  0  0  0  0  0  0  0  0  0  0  0
   49.4316   35.6390   37.8823 H   0  0  0  0  0  0  0  0  0  0  0  0
   45.7293   35.2996   42.1729 H   0  0  0  0  0  0  0  0  0  0  0  0
   45.3848   37.0019   43.9743 H   0  0  0  0  0  0  0  0  0  0  0  0
   45.0966   34.7246   40.3670 H   0  0  0  0  0  0  0  0  0  0  0  0
   43.1969   34.5119   38.8035 H   0  0  0  0  0  0  0  0  0  0  0  0
   40.8654   34.9448   39.5541 H   0  0  0  0  0  0  0  0  0  0  0  0
   40.5815   35.5929   41.9349 H   0  0  0  0  0  0  0  0  0  0  0  0
  1  6  2  0
  2  1  1  0
  2  3  2  0
  3  4  1  0
  4  5  2  0
  6  5  1  0
  7  2  1  0
  8  7  1  0
  9  8  2  0
 10  9  1  0
 10 15  2  0
 11 10  1  0
 12 11  2  0
 12 13  1  0
 13 14  2  0
 14 15  1  0
 15  7  1  0
 16 11  1  0
 17 18  1  0
 17  1  1  0
 19 24  1  0
 19 17  1  0
 20 19  2  0
 21 22  2  0
 21 20  1  0
 22 23  1  0
 23 24  2  0
  3 25  1  0
  5 26  1  0
  8 27  1  0
 13 28  1  0
 16 29  1  0
 16 30  1  0
 17 31  1  0
 18 32  1  0
 20 33  1  0
 21 34  1  0
 22 35  1  0
 23 36  1  0
M  ISO  8  25  14  26  14  27  14  28  14  31   8  32   3  33  14  34  14
M  ISO  2  35  14  36  14
M  END
>  <minimizedAffinity>  (1) 
-6.16586542

>  <minimizedRMSD>  (1) 
0.788503408

$$$$
