
     RDKit          3D

 32 34  0  0  0  0  0  0  0  0999 V2000
   45.6620   34.8710   43.7400 C   0  0  0  0  0  0  0  0  0  0  0  0
   46.8720   34.3380   43.3000 C   0  0  0  0  0  0  0  0  0  0  0  0
   47.4650   33.3250   44.0620 C   0  0  0  0  0  0  0  0  0  0  0  0
   46.8340   32.9150   45.1870 N   0  0  0  0  0  0  0  0  0  0  0  0
   45.6560   33.4510   45.5930 C   0  0  0  0  0  0  0  0  0  0  0  0
   45.1030   34.4060   44.8670 N   0  0  0  0  0  0  0  0  0  0  0  0
   47.5870   34.7200   42.1330 N   0  0  0  0  0  0  0  0  0  0  0  0
   48.5710   35.6220   41.9320 C   0  0  0  0  0  0  0  0  0  0  0  0
   48.9120   35.6020   40.6200 N   0  0  0  0  0  0  0  0  0  0  0  0
   48.1600   34.7000   39.9840 C   0  0  0  0  0  0  0  0  0  0  0  0
   48.0660   34.2590   38.6800 C   0  0  0  0  0  0  0  0  0  0  0  0
   47.1750   33.3040   38.3480 N   0  0  0  0  0  0  0  0  0  0  0  0
   46.3510   32.7490   39.2640 C   0  0  0  0  0  0  0  0  0  0  0  0
   46.4600   33.1940   40.5320 N   0  0  0  0  0  0  0  0  0  0  0  0
   47.3200   34.1380   40.9280 C   0  0  0  0  0  0  0  0  0  0  0  0
   48.9050   34.8020   37.6640 N   0  0  0  0  0  0  0  0  0  0  0  0
   45.1120   35.9010   42.9130 C   0  0  0  0  0  0  0  0  0  0  0  0
   45.2120   37.1580   43.1510 O   0  0  0  0  0  0  0  0  0  0  0  0
   44.3780   35.6680   41.7150 N   0  0  0  0  0  0  0  0  0  0  0  0
   42.9660   35.4960   41.6330 C   0  0  0  0  0  0  0  0  0  0  0  0
   42.3000   35.5580   42.7350 N   0  0  0  0  0  0  0  0  0  0  0  0
   42.2880   35.2660   40.4220 N   0  0  0  0  0  0  0  0  0  0  0  0
   41.2650   35.4490   42.8170 H   0  0  0  0  0  0  0  0  0  0  0  0
   48.4197   32.8734   43.7544 H   0  0  0  0  0  0  0  0  0  0  0  0
   45.1686   33.0958   46.5129 H   0  0  0  0  0  0  0  0  0  0  0  0
   49.0205   36.2650   42.7030 H   0  0  0  0  0  0  0  0  0  0  0  0
   45.6249   31.9702   38.9879 H   0  0  0  0  0  0  0  0  0  0  0  0
   48.8245   34.4638   36.6944 H   0  0  0  0  0  0  0  0  0  0  0  0
   49.5918   35.5326   37.8993 H   0  0  0  0  0  0  0  0  0  0  0  0
   44.9118   35.6199   40.8355 H   0  0  0  0  0  0  0  0  0  0  0  0
   41.2647   35.1484   40.4189 H   0  0  0  0  0  0  0  0  0  0  0  0
   42.8149   35.2152   39.5384 H   0  0  0  0  0  0  0  0  0  0  0  0
  1  6  2  0
  2  1  1  0
  2  3  2  0
  3  4  1  0
  4  5  2  0
  6  5  1  0
  7  2  1  0
  8  7  1  0
  9  8  2  0
 10  9  1  0
 10 15  2  0
 11 10  1  0
 12 11  2  0
 12 13  1  0
 13 14  2  0
 14 15  1  0
 15  7  1  0
 16 11  1  0
 17 18  2  0
 17  1  1  0
 19 17  1  0
 20 19  1  0
 20 21  2  0
 21 23  1  0
 22 20  1  0
  3 24  1  0
  5 25  1  0
  8 26  1  0
 13 27  1  0
 16 28  1  0
 16 29  1  0
 19 30  1  0
 22 31  1  0
 22 32  1  0
M  ISO  4  24  14  25  14  26  14  27  14
M  END
>  <minimizedAffinity>  (1) 
-6.63338995

>  <minimizedRMSD>  (1) 
0.114718467

$$$$
