
     RDKit          3D

 43 47  0  0  1  0  0  0  0  0999 V2000
   46.1690   33.8080   44.6560 C   0  0  0  0  0  0  0  0  0  0  0  0
   46.5250   34.5380   43.5330 C   0  0  0  0  0  0  0  0  0  0  0  0
   45.8130   35.7070   43.2590 C   0  0  0  0  0  0  0  0  0  0  0  0
   44.8120   36.0640   44.1050 N   0  0  0  0  0  0  0  0  0  0  0  0
   44.4890   35.3320   45.1900 C   0  0  0  0  0  0  0  0  0  0  0  0
   45.1730   34.2160   45.4470 N   0  0  0  0  0  0  0  0  0  0  0  0
   47.5540   34.2180   42.6150 N   0  0  0  0  0  0  0  0  0  0  0  0
   48.8890   34.4270   42.6540 C   0  0  0  0  0  0  0  0  0  0  0  0
   49.4420   33.9290   41.5210 N   0  0  0  0  0  0  0  0  0  0  0  0
   48.4830   33.4060   40.7620 C   0  0  0  0  0  0  0  0  0  0  0  0
   48.4510   32.7760   39.5310 C   0  0  0  0  0  0  0  0  0  0  0  0
   47.2640   32.3480   39.0180 N   0  0  0  0  0  0  0  0  0  0  0  0
   46.1010   32.5240   39.6890 C   0  0  0  0  0  0  0  0  0  0  0  0
   46.1680   33.1380   40.8800 N   0  0  0  0  0  0  0  0  0  0  0  0
   47.3060   33.5840   41.4410 C   0  0  0  0  0  0  0  0  0  0  0  0
   49.6440   32.5670   38.7880 N   0  0  0  0  0  0  0  0  0  0  0  0
   46.9440   32.6080   44.8940 C   0  0  0  0  0  0  0  0  0  0  0  0
   47.8170   32.1560   44.0580 O   0  0  0  0  0  0  0  0  0  0  0  0
   46.6610   31.9290   46.1800 C   0  0  0  0  0  0  0  0  0  0  0  0
   47.1980   32.5470   47.3140 C   0  0  0  0  0  0  0  0  0  0  0  0
   47.0530   32.0980   48.6050 C   0  0  0  0  0  0  0  0  0  0  0  0
   46.3190   30.9460   48.7970 C   0  0  0  0  0  0  0  0  0  0  0  0
   45.7810   30.3240   47.6920 C   0  0  0  0  0  0  0  0  0  0  0  0
   45.0250   29.1530   47.7850 C   0  0  0  0  0  0  0  0  0  0  0  0
   44.4800   28.5150   46.6860 C   0  0  0  0  0  0  0  0  0  0  0  0
   44.6810   29.0430   45.4170 C   0  0  0  0  0  0  0  0  0  0  0  0
   45.4220   30.2000   45.2770 C   0  0  0  0  0  0  0  0  0  0  0  0
   45.9330   30.7810   46.4100 C   0  0  0  0  0  0  0  0  0  0  0  0
   46.0562   36.3231   42.3808 H   0  0  0  0  0  0  0  0  0  0  0  0
   43.6724   35.6507   45.8545 H   0  0  0  0  0  0  0  0  0  0  0  0
   49.4365   34.9201   43.4708 H   0  0  0  0  0  0  0  0  0  0  0  0
   45.1422   32.1783   39.2752 H   0  0  0  0  0  0  0  0  0  0  0  0
   49.6049   32.0964   37.8726 H   0  0  0  0  0  0  0  0  0  0  0  0
   50.5479   32.8861   39.1648 H   0  0  0  0  0  0  0  0  0  0  0  0
   46.1637   32.0069   44.4042 H   0  0  0  0  0  0  0  0  0  0  0  0
   48.5772   31.7624   44.5553 H   0  0  0  0  0  0  0  0  0  0  0  0
   47.7831   33.4657   47.1604 H   0  0  0  0  0  0  0  0  0  0  0  0
   47.5044   32.6361   49.4516 H   0  0  0  0  0  0  0  0  0  0  0  0
   46.1673   30.5349   49.8059 H   0  0  0  0  0  0  0  0  0  0  0  0
   44.8550   28.7174   48.7807 H   0  0  0  0  0  0  0  0  0  0  0  0
   43.8910   27.5951   46.8158 H   0  0  0  0  0  0  0  0  0  0  0  0
   44.2548   28.5452   44.5335 H   0  0  0  0  0  0  0  0  0  0  0  0
   45.5975   30.6430   44.2856 H   0  0  0  0  0  0  0  0  0  0  0  0
  1 17  1  0
  1  6  2  0
  2  1  1  0
  3  2  2  0
  3  4  1  0
  4  5  2  0
  5  6  1  0
  7  8  1  0
  7  2  1  0
  9  8  2  0
 10 15  2  0
 10  9  1  0
 11 10  1  0
 12 11  2  0
 12 13  1  0
 13 14  2  0
 14 15  1  0
 15  7  1  0
 16 11  1  0
 17 18  1  0
 17 19  1  0
 19 28  1  0
 19 20  2  0
 20 21  1  0
 21 22  2  0
 23 24  2  0
 23 22  1  0
 25 24  1  0
 26 25  2  0
 27 26  1  0
 27 28  2  0
 28 23  1  0
  3 29  1  0
  5 30  1  0
  8 31  1  0
 13 32  1  0
 16 33  1  0
 16 34  1  0
 17 35  1  0
 18 36  1  0
 20 37  1  0
 21 38  1  0
 22 39  1  0
 24 40  1  0
 25 41  1  0
 26 42  1  0
 27 43  1  0
M  ISO  8  29  14  30  14  31  14  32  14  35   8  36   3  37  14  38  14
M  ISO  5  39  14  40  14  41  14  42  14  43  14
M  END
>  <minimizedAffinity>  (1) 
-6.64168119

>  <minimizedRMSD>  (1) 
5.81757164

$$$$
