
     RDKit          3D

 34 37  0  0  1  0  0  0  0  0999 V2000
   45.7220   34.5050   43.8350 C   0  0  0  0  0  0  0  0  0  0  0  0
   46.9560   34.0530   43.3410 C   0  0  0  0  0  0  0  0  0  0  0  0
   47.6310   33.0600   44.0350 C   0  0  0  0  0  0  0  0  0  0  0  0
   47.0670   32.5650   45.1680 N   0  0  0  0  0  0  0  0  0  0  0  0
   45.8680   33.0160   45.6320 C   0  0  0  0  0  0  0  0  0  0  0  0
   45.2260   33.9690   44.9610 N   0  0  0  0  0  0  0  0  0  0  0  0
   47.5880   34.5320   42.1690 N   0  0  0  0  0  0  0  0  0  0  0  0
   48.4300   35.5640   41.9500 C   0  0  0  0  0  0  0  0  0  0  0  0
   48.7510   35.6050   40.6250 N   0  0  0  0  0  0  0  0  0  0  0  0
   48.1220   34.6130   40.0020 C   0  0  0  0  0  0  0  0  0  0  0  0
   48.0690   34.1780   38.6940 C   0  0  0  0  0  0  0  0  0  0  0  0
   47.3070   33.0940   38.3710 N   0  0  0  0  0  0  0  0  0  0  0  0
   46.5980   32.4320   39.2990 C   0  0  0  0  0  0  0  0  0  0  0  0
   46.6690   32.8830   40.5650 N   0  0  0  0  0  0  0  0  0  0  0  0
   47.3970   33.9410   40.9590 C   0  0  0  0  0  0  0  0  0  0  0  0
   48.7920   34.8440   37.6750 N   0  0  0  0  0  0  0  0  0  0  0  0
   45.0610   35.5190   43.0870 C   0  0  0  0  0  0  0  0  0  0  0  0
   45.4030   36.7730   43.1080 O   0  0  0  0  0  0  0  0  0  0  0  0
   43.9200   35.3840   42.1900 C   0  0  0  0  0  0  0  0  0  0  0  0
   43.9040   35.1080   40.8420 C   0  0  0  0  0  0  0  0  0  0  0  0
   42.6210   35.1030   40.3750 N   0  0  0  0  0  0  0  0  0  0  0  0
   41.8040   35.3720   41.4070 C   0  0  0  0  0  0  0  0  0  0  0  0
   42.6130   35.5340   42.4650 N   0  0  0  0  0  0  0  0  0  0  0  0
   48.5999   32.6820   43.6769 H   0  0  0  0  0  0  0  0  0  0  0  0
   45.4350   32.5965   46.5521 H   0  0  0  0  0  0  0  0  0  0  0  0
   48.7984   36.2606   42.7175 H   0  0  0  0  0  0  0  0  0  0  0  0
   45.9847   31.5576   39.0357 H   0  0  0  0  0  0  0  0  0  0  0  0
   48.7417   34.5065   36.7032 H   0  0  0  0  0  0  0  0  0  0  0  0
   49.3682   35.6660   37.9055 H   0  0  0  0  0  0  0  0  0  0  0  0
   45.7477   35.3458   42.2453 H   0  0  0  0  0  0  0  0  0  0  0  0
   45.4858   37.0768   44.0466 H   0  0  0  0  0  0  0  0  0  0  0  0
   44.7971   34.9185   40.2284 H   0  0  0  0  0  0  0  0  0  0  0  0
   40.7065   35.4440   41.3885 H   0  0  0  0  0  0  0  0  0  0  0  0
   42.2622   35.7546   43.4080 H   0  0  0  0  0  0  0  0  0  0  0  0
  1  6  2  0
  2  1  1  0
  2  3  2  0
  3  4  1  0
  4  5  2  0
  6  5  1  0
  7  2  1  0
  8  7  1  0
  9  8  2  0
 10  9  1  0
 10 15  2  0
 11 10  1  0
 12 11  2  0
 12 13  1  0
 13 14  2  0
 14 15  1  0
 15  7  1  0
 16 11  1  0
 17 18  1  0
 17  1  1  0
 19 23  1  0
 19 17  1  0
 20 19  2  0
 21 20  1  0
 21 22  2  0
 22 23  1  0
  3 24  1  0
  5 25  1  0
  8 26  1  0
 13 27  1  0
 16 28  1  0
 16 29  1  0
 17 30  1  0
 18 31  1  0
 20 32  1  0
 22 33  1  0
 23 34  1  0
M  ISO  8  24  14  25  14  26  14  27  14  30   8  31   3  32  14  33  14
M  ISO  1  34   9
M  END
>  <minimizedAffinity>  (1) 
-6.4349575

>  <minimizedRMSD>  (1) 
0.703771234

$$$$
