
     RDKit          3D

 36 38  0  0  0  0  0  0  0  0999 V2000
   45.5700   33.7500   42.6920 C   0  0  0  0  0  0  0  0  0  0  0  0
   45.2870   32.8570   43.6880 N   0  0  0  0  0  0  0  0  0  0  0  0
   46.2590   32.2810   44.4340 C   0  0  0  0  0  0  0  0  0  0  0  0
   47.5800   32.5710   44.2230 N   0  0  0  0  0  0  0  0  0  0  0  0
   47.8850   33.4470   43.2480 C   0  0  0  0  0  0  0  0  0  0  0  0
   49.1790   33.8250   42.9330 C   0  0  0  0  0  0  0  0  0  0  0  0
   49.4620   34.7250   41.9260 C   0  0  0  0  0  0  0  0  0  0  0  0
   48.4230   35.2900   41.1850 C   0  0  0  0  0  0  0  0  0  0  0  0
   47.1340   34.9330   41.4790 C   0  0  0  0  0  0  0  0  0  0  0  0
   46.8970   34.0350   42.4870 C   0  0  0  0  0  0  0  0  0  0  0  0
   43.8520   33.3410   41.0700 C   0  0  0  0  0  0  0  0  0  0  0  0
   44.3860   34.2420   42.0250 C   0  0  0  0  0  0  0  0  0  0  0  0
   43.6930   35.4460   42.1760 C   0  0  0  0  0  0  0  0  0  0  0  0
   42.5890   35.6830   41.4360 N   0  0  0  0  0  0  0  0  0  0  0  0
   42.1190   34.7860   40.5360 C   0  0  0  0  0  0  0  0  0  0  0  0
   42.7430   33.6020   40.3400 N   0  0  0  0  0  0  0  0  0  0  0  0
   40.8960   35.0970   39.7440 C   0  0  0  0  0  0  0  0  0  0  0  0
   41.3590   35.6400   38.3910 C   0  0  0  0  0  0  0  0  0  0  0  0
   40.0690   33.8700   39.4510 C   0  0  0  0  0  0  0  0  0  0  0  0
   40.1290   36.1870   40.4290 C   0  0  0  0  0  0  0  0  0  0  0  0
   45.9822   31.5672   45.2238 H   0  0  0  0  0  0  0  0  0  0  0  0
   50.0120   33.3921   43.5064 H   0  0  0  0  0  0  0  0  0  0  0  0
   50.5053   34.9968   41.7076 H   0  0  0  0  0  0  0  0  0  0  0  0
   48.6355   36.0087   40.3798 H   0  0  0  0  0  0  0  0  0  0  0  0
   46.2960   35.3633   40.9110 H   0  0  0  0  0  0  0  0  0  0  0  0
   44.3653   32.3806   40.9144 H   0  0  0  0  0  0  0  0  0  0  0  0
   44.0462   36.1988   42.8961 H   0  0  0  0  0  0  0  0  0  0  0  0
   42.0652   36.4682   38.5505 H   0  0  0  0  0  0  0  0  0  0  0  0
   41.8558   34.8384   37.8248 H   0  0  0  0  0  0  0  0  0  0  0  0
   40.4890   36.0039   37.8248 H   0  0  0  0  0  0  0  0  0  0  0  0
   39.7554   33.4047   40.3971 H   0  0  0  0  0  0  0  0  0  0  0  0
   39.1795   34.1572   38.8711 H   0  0  0  0  0  0  0  0  0  0  0  0
   40.6690   33.1533   38.8711 H   0  0  0  0  0  0  0  0  0  0  0  0
   40.2141   36.0660   41.5190 H   0  0  0  0  0  0  0  0  0  0  0  0
   40.5394   37.1644   40.1354 H   0  0  0  0  0  0  0  0  0  0  0  0
   39.0704   36.1307   40.1354 H   0  0  0  0  0  0  0  0  0  0  0  0
  1  2  2  0
  2  3  1  0
  4  3  2  0
  5  4  1  0
  6  5  2  0
  7  6  1  0
  8  9  1  0
  8  7  2  0
  9 10  2  0
 10  1  1  0
 10  5  1  0
 11 12  2  0
 12 13  1  0
 12  1  1  0
 14 13  2  0
 15 14  1  0
 16 15  2  0
 16 11  1  0
 17 20  1  0
 17 15  1  0
 18 17  1  0
 19 17  1  0
  3 21  1  0
  6 22  1  0
  7 23  1  0
  8 24  1  0
  9 25  1  0
 11 26  1  0
 13 27  1  0
 18 28  1  0
 18 29  1  0
 18 30  1  0
 19 31  1  0
 19 32  1  0
 19 33  1  0
 20 34  1  0
 20 35  1  0
 20 36  1  0
M  ISO  8  21  14  22  14  23  14  24  14  25  14  26  14  27  14  28   8
M  ISO  8  29   8  30   8  31   8  32   8  33   8  34   8  35   8  36   8
M  END
>  <minimizedAffinity>  (1) 
-5.92610931

>  <minimizedRMSD>  (1) 
7.74643326

$$$$
