
     RDKit          3D

 32 35  0  0  1  0  0  0  0  0999 V2000
   45.7000   34.5240   43.7810 C   0  0  0  0  0  0  0  0  0  0  0  0
   46.9340   34.0850   43.3010 C   0  0  0  0  0  0  0  0  0  0  0  0
   47.6270   33.0990   44.0100 C   0  0  0  0  0  0  0  0  0  0  0  0
   47.0560   32.6130   45.1440 N   0  0  0  0  0  0  0  0  0  0  0  0
   45.8500   33.0580   45.5930 C   0  0  0  0  0  0  0  0  0  0  0  0
   45.2070   33.9930   44.9090 N   0  0  0  0  0  0  0  0  0  0  0  0
   47.5830   34.5540   42.1280 N   0  0  0  0  0  0  0  0  0  0  0  0
   48.4340   35.5820   41.9200 C   0  0  0  0  0  0  0  0  0  0  0  0
   48.7720   35.6080   40.6080 N   0  0  0  0  0  0  0  0  0  0  0  0
   48.1450   34.6110   39.9780 C   0  0  0  0  0  0  0  0  0  0  0  0
   48.1080   34.1600   38.6650 C   0  0  0  0  0  0  0  0  0  0  0  0
   47.3390   33.0770   38.3410 N   0  0  0  0  0  0  0  0  0  0  0  0
   46.6160   32.4410   39.2760 C   0  0  0  0  0  0  0  0  0  0  0  0
   46.6760   32.9000   40.5270 N   0  0  0  0  0  0  0  0  0  0  0  0
   47.4060   33.9540   40.9250 C   0  0  0  0  0  0  0  0  0  0  0  0
   48.8630   34.8120   37.6520 N   0  0  0  0  0  0  0  0  0  0  0  0
   45.0360   35.5170   43.0120 C   0  0  0  0  0  0  0  0  0  0  0  0
   45.2930   36.7860   43.1090 O   0  0  0  0  0  0  0  0  0  0  0  0
   43.9810   35.3580   42.0070 C   0  0  0  0  0  0  0  0  0  0  0  0
   42.6580   35.4660   42.1960 N   0  0  0  0  0  0  0  0  0  0  0  0
   42.0040   35.2360   41.0710 O   0  0  0  0  0  0  0  0  0  0  0  0
   42.8650   34.9730   40.1240 C   0  0  0  0  0  0  0  0  0  0  0  0
   44.0540   35.0490   40.7040 N   0  0  0  0  0  0  0  0  0  0  0  0
   48.6024   32.7286   43.6616 H   0  0  0  0  0  0  0  0  0  0  0  0
   45.4138   32.6453   46.5146 H   0  0  0  0  0  0  0  0  0  0  0  0
   48.7933   36.2823   42.6885 H   0  0  0  0  0  0  0  0  0  0  0  0
   45.9947   31.5703   39.0192 H   0  0  0  0  0  0  0  0  0  0  0  0
   48.8276   34.4684   36.6817 H   0  0  0  0  0  0  0  0  0  0  0  0
   49.4454   35.6280   37.8885 H   0  0  0  0  0  0  0  0  0  0  0  0
   45.8017   35.4219   42.2280 H   0  0  0  0  0  0  0  0  0  0  0  0
   45.3445   37.0402   44.0644 H   0  0  0  0  0  0  0  0  0  0  0  0
   42.6491   34.7388   39.0711 H   0  0  0  0  0  0  0  0  0  0  0  0
  1  6  2  0
  2  1  1  0
  2  3  2  0
  3  4  1  0
  4  5  2  0
  6  5  1  0
  7  2  1  0
  8  7  1  0
  9  8  2  0
 10  9  1  0
 10 15  2  0
 11 10  1  0
 12 11  2  0
 12 13  1  0
 13 14  2  0
 14 15  1  0
 15  7  1  0
 16 11  1  0
 17 18  1  0
 17  1  1  0
 19 20  2  0
 19 17  1  0
 21 20  1  0
 22 23  2  0
 22 21  1  0
 23 19  1  0
  3 24  1  0
  5 25  1  0
  8 26  1  0
 13 27  1  0
 16 28  1  0
 16 29  1  0
 17 30  1  0
 18 31  1  0
 22 32  1  0
M  ISO  7  24  14  25  14  26  14  27  14  30   8  31   3  32  14
M  END
>  <minimizedAffinity>  (1) 
-5.94582081

>  <minimizedRMSD>  (1) 
0.600763142

$$$$
