
     RDKit          3D

 37 40  0  0  0  0  0  0  0  0999 V2000
   45.7160   34.2330   43.7760 C   0  0  0  0  0  0  0  0  0  0  0  0
   46.9840   33.9050   43.2880 C   0  0  0  0  0  0  0  0  0  0  0  0
   47.7520   32.9720   43.9950 C   0  0  0  0  0  0  0  0  0  0  0  0
   47.2170   32.4370   45.1250 N   0  0  0  0  0  0  0  0  0  0  0  0
   45.9810   32.7760   45.5730 C   0  0  0  0  0  0  0  0  0  0  0  0
   45.2590   33.6660   44.8890 N   0  0  0  0  0  0  0  0  0  0  0  0
   47.5960   34.4330   42.1130 N   0  0  0  0  0  0  0  0  0  0  0  0
   48.3700   35.5150   41.9220 C   0  0  0  0  0  0  0  0  0  0  0  0
   48.7010   35.5830   40.6050 N   0  0  0  0  0  0  0  0  0  0  0  0
   48.1460   34.5590   39.9610 C   0  0  0  0  0  0  0  0  0  0  0  0
   48.1300   34.1150   38.6470 C   0  0  0  0  0  0  0  0  0  0  0  0
   47.4400   32.9890   38.3130 N   0  0  0  0  0  0  0  0  0  0  0  0
   46.7670   32.2900   39.2360 C   0  0  0  0  0  0  0  0  0  0  0  0
   46.7950   32.7360   40.5050 N   0  0  0  0  0  0  0  0  0  0  0  0
   47.4470   33.8260   40.9020 C   0  0  0  0  0  0  0  0  0  0  0  0
   48.8350   34.8390   37.6510 N   0  0  0  0  0  0  0  0  0  0  0  0
   44.9890   35.1890   43.0000 C   0  0  0  0  0  0  0  0  0  0  0  0
   45.2490   36.4560   42.9630 O   0  0  0  0  0  0  0  0  0  0  0  0
   43.8660   35.0300   42.1240 N   0  0  0  0  0  0  0  0  0  0  0  0
   43.4850   33.7150   41.6520 C   0  0  0  0  0  0  0  0  0  0  0  0
   43.4740   33.7990   40.1210 C   0  0  0  0  0  0  0  0  0  0  0  0
   42.9740   35.2140   39.9170 C   0  0  0  0  0  0  0  0  0  0  0  0
   42.7600   35.6350   41.3640 C   0  0  0  0  0  0  0  0  0  0  0  0
   48.7546   32.6814   43.6481 H   0  0  0  0  0  0  0  0  0  0  0  0
   45.5787   32.3217   46.4905 H   0  0  0  0  0  0  0  0  0  0  0  0
   48.6832   36.2262   42.7005 H   0  0  0  0  0  0  0  0  0  0  0  0
   46.2096   31.3811   38.9655 H   0  0  0  0  0  0  0  0  0  0  0  0
   48.8259   34.5130   36.6740 H   0  0  0  0  0  0  0  0  0  0  0  0
   49.3558   35.6905   37.9050 H   0  0  0  0  0  0  0  0  0  0  0  0
   44.2141   32.9629   41.9878 H   0  0  0  0  0  0  0  0  0  0  0  0
   42.5020   33.4164   42.0450 H   0  0  0  0  0  0  0  0  0  0  0  0
   44.4813   33.6612   39.7009 H   0  0  0  0  0  0  0  0  0  0  0  0
   42.8667   33.0261   39.6272 H   0  0  0  0  0  0  0  0  0  0  0  0
   43.7247   35.8432   39.4164 H   0  0  0  0  0  0  0  0  0  0  0  0
   42.0853   35.3013   39.2747 H   0  0  0  0  0  0  0  0  0  0  0  0
   42.7886   36.7311   41.4525 H   0  0  0  0  0  0  0  0  0  0  0  0
   41.7807   35.3055   41.7415 H   0  0  0  0  0  0  0  0  0  0  0  0
  1  6  2  0
  2  1  1  0
  2  3  2  0
  3  4  1  0
  4  5  2  0
  6  5  1  0
  7  2  1  0
  8  7  1  0
  9  8  2  0
 10  9  1  0
 10 15  2  0
 11 10  1  0
 12 11  2  0
 12 13  1  0
 13 14  2  0
 14 15  1  0
 15  7  1  0
 16 11  1  0
 17  1  1  0
 18 17  2  0
 19 17  1  0
 20 19  1  0
 21 20  1  0
 22 21  1  0
 22 23  1  0
 23 19  1  0
  3 24  1  0
  5 25  1  0
  8 26  1  0
 13 27  1  0
 16 28  1  0
 16 29  1  0
 20 30  1  0
 20 31  1  0
 21 32  1  0
 21 33  1  0
 22 34  1  0
 22 35  1  0
 23 36  1  0
 23 37  1  0
M  ISO  8  24  14  25  14  26  14  27  14  30  13  31  13  32  13  33  13
M  ISO  4  34  13  35  13  36  13  37  13
M  END
>  <minimizedAffinity>  (1) 
-5.96643686

>  <minimizedRMSD>  (1) 
0.912902057

$$$$
