
     RDKit          3D

 35 38  0  0  1  0  0  0  0  0999 V2000
   45.6810   34.4790   43.7630 C   0  0  0  0  0  0  0  0  0  0  0  0
   46.9230   34.0520   43.2850 C   0  0  0  0  0  0  0  0  0  0  0  0
   47.6270   33.0740   43.9960 C   0  0  0  0  0  0  0  0  0  0  0  0
   47.0600   32.5840   45.1300 N   0  0  0  0  0  0  0  0  0  0  0  0
   45.8480   33.0160   45.5780 C   0  0  0  0  0  0  0  0  0  0  0  0
   45.1900   33.9520   44.8830 N   0  0  0  0  0  0  0  0  0  0  0  0
   47.5690   34.5310   42.1150 N   0  0  0  0  0  0  0  0  0  0  0  0
   48.3990   35.5790   41.9110 C   0  0  0  0  0  0  0  0  0  0  0  0
   48.7470   35.6080   40.6010 N   0  0  0  0  0  0  0  0  0  0  0  0
   48.1470   34.5850   39.9630 C   0  0  0  0  0  0  0  0  0  0  0  0
   48.1310   34.1350   38.6690 C   0  0  0  0  0  0  0  0  0  0  0  0
   47.3990   33.0440   38.3300 N   0  0  0  0  0  0  0  0  0  0  0  0
   46.6760   32.3860   39.2650 C   0  0  0  0  0  0  0  0  0  0  0  0
   46.7160   32.8530   40.5160 N   0  0  0  0  0  0  0  0  0  0  0  0
   47.4160   33.9210   40.9140 C   0  0  0  0  0  0  0  0  0  0  0  0
   48.8860   34.7940   37.6480 N   0  0  0  0  0  0  0  0  0  0  0  0
   44.9990   35.4520   42.9820 C   0  0  0  0  0  0  0  0  0  0  0  0
   45.2980   36.7160   43.0100 O   0  0  0  0  0  0  0  0  0  0  0  0
   43.8920   35.2790   42.0440 C   0  0  0  0  0  0  0  0  0  0  0  0
   44.0600   34.9160   40.7320 C   0  0  0  0  0  0  0  0  0  0  0  0
   42.9980   34.7830   39.8300 C   0  0  0  0  0  0  0  0  0  0  0  0
   41.7500   35.0230   40.2770 N   0  0  0  0  0  0  0  0  0  0  0  0
   41.5750   35.3860   41.5830 C   0  0  0  0  0  0  0  0  0  0  0  0
   42.6280   35.4980   42.4030 N   0  0  0  0  0  0  0  0  0  0  0  0
   48.6066   32.7137   43.6489 H   0  0  0  0  0  0  0  0  0  0  0  0
   45.4152   32.6005   46.5000 H   0  0  0  0  0  0  0  0  0  0  0  0
   48.7358   36.2897   42.6801 H   0  0  0  0  0  0  0  0  0  0  0  0
   46.0779   31.5001   39.0051 H   0  0  0  0  0  0  0  0  0  0  0  0
   48.8616   34.4412   36.6806 H   0  0  0  0  0  0  0  0  0  0  0  0
   49.4539   35.6213   37.8803 H   0  0  0  0  0  0  0  0  0  0  0  0
   45.7186   35.2999   42.1641 H   0  0  0  0  0  0  0  0  0  0  0  0
   45.3693   37.0175   43.9503 H   0  0  0  0  0  0  0  0  0  0  0  0
   45.0802   34.7196   40.3707 H   0  0  0  0  0  0  0  0  0  0  0  0
   43.1775   34.4906   38.7849 H   0  0  0  0  0  0  0  0  0  0  0  0
   40.5626   35.5875   41.9631 H   0  0  0  0  0  0  0  0  0  0  0  0
  1  6  2  0
  2  1  1  0
  2  3  2  0
  3  4  1  0
  4  5  2  0
  6  5  1  0
  7  2  1  0
  8  7  1  0
  9  8  2  0
 10  9  1  0
 10 15  2  0
 11 10  1  0
 12 11  2  0
 12 13  1  0
 13 14  2  0
 14 15  1  0
 15  7  1  0
 16 11  1  0
 17 18  1  0
 17  1  1  0
 19 24  1  0
 19 17  1  0
 20 19  2  0
 21 22  2  0
 21 20  1  0
 22 23  1  0
 23 24  2  0
  3 25  1  0
  5 26  1  0
  8 27  1  0
 13 28  1  0
 16 29  1  0
 16 30  1  0
 17 31  1  0
 18 32  1  0
 20 33  1  0
 21 34  1  0
 23 35  1  0
M  ISO  8  25  14  26  14  27  14  28  14  31   8  32   3  33  14  34  14
M  ISO  1  35  14
M  END
>  <minimizedAffinity>  (1) 
-6.06090784

>  <minimizedRMSD>  (1) 
0.725353241

$$$$
