
     RDKit          3D

 32 36  0  0  1  0  0  0  0  0999 V2000
   47.6330   34.5340   42.1160 N   0  0  0  0  0  0  0  0  0  0  0  0
   48.4960   35.5320   41.9090 C   0  0  0  0  0  0  0  0  0  0  0  0
   48.8120   35.5690   40.5920 N   0  0  0  0  0  0  0  0  0  0  0  0
   48.1560   34.6010   39.9590 C   0  0  0  0  0  0  0  0  0  0  0  0
   48.0950   34.1790   38.6440 C   0  0  0  0  0  0  0  0  0  0  0  0
   47.2990   33.1220   38.3130 N   0  0  0  0  0  0  0  0  0  0  0  0
   46.5640   32.4710   39.2360 C   0  0  0  0  0  0  0  0  0  0  0  0
   46.6510   32.9120   40.5050 N   0  0  0  0  0  0  0  0  0  0  0  0
   47.4070   33.9370   40.9000 C   0  0  0  0  0  0  0  0  0  0  0  0
   48.8470   34.8070   37.6240 N   0  0  0  0  0  0  0  0  0  0  0  0
   45.7200   34.4320   43.7350 C   0  0  0  0  0  0  0  0  0  0  0  0
   46.9840   34.0520   43.2830 C   0  0  0  0  0  0  0  0  0  0  0  0
   47.6840   33.1160   44.0320 C   0  0  0  0  0  0  0  0  0  0  0  0
   47.0870   32.6290   45.1620 N   0  0  0  0  0  0  0  0  0  0  0  0
   45.8700   33.0110   45.5750 C   0  0  0  0  0  0  0  0  0  0  0  0
   45.2000   33.9100   44.8550 N   0  0  0  0  0  0  0  0  0  0  0  0
   45.0320   35.3850   42.9370 C   0  0  0  0  0  0  0  0  0  0  0  0
   45.0810   36.6690   43.0740 O   0  0  0  0  0  0  0  0  0  0  0  0
   44.1530   35.8820   41.8740 C   0  0  0  0  0  0  0  0  0  0  0  0
   42.7560   35.2380   41.8870 C   0  0  0  0  0  0  0  0  0  0  0  0
   43.7460   35.1380   40.6870 C   0  0  0  0  0  0  0  0  0  0  0  0
   48.8860   36.2120   42.6807 H   0  0  0  0  0  0  0  0  0  0  0  0
   45.9229   31.6191   38.9652 H   0  0  0  0  0  0  0  0  0  0  0  0
   48.7804   34.4696   36.6531 H   0  0  0  0  0  0  0  0  0  0  0  0
   49.4613   35.6017   37.8521 H   0  0  0  0  0  0  0  0  0  0  0  0
   48.6851   32.7774   43.7269 H   0  0  0  0  0  0  0  0  0  0  0  0
   45.4323   32.5897   46.4920 H   0  0  0  0  0  0  0  0  0  0  0  0
   45.8882   35.4259   42.2476 H   0  0  0  0  0  0  0  0  0  0  0  0
   42.5494   34.3606   42.5175 H   0  0  0  0  0  0  0  0  0  0  0  0
   41.7211   35.5764   42.0436 H   0  0  0  0  0  0  0  0  0  0  0  0
   43.5285   35.6760   39.7525 H   0  0  0  0  0  0  0  0  0  0  0  0
   44.1794   34.3060   40.1127 H   0  0  0  0  0  0  0  0  0  0  0  0
  1 12  1  0
  2  1  1  0
  3  2  2  0
  4  3  1  0
  4  9  2  0
  5  4  1  0
  6  5  2  0
  6  7  1  0
  7  8  2  0
  8  9  1  0
  9  1  1  0
 10  5  1  0
 11 16  2  0
 12 11  1  0
 12 13  2  0
 13 14  1  0
 14 15  2  0
 16 15  1  0
 17 18  1  0
 17 11  1  0
 19 20  1  0
 19 17  1  0
 19 18  1  0
 21 19  1  0
 21 20  1  0
  2 22  1  0
  7 23  1  0
 10 24  1  0
 10 25  1  0
 13 26  1  0
 15 27  1  0
 17 28  1  0
 20 29  1  0
 20 30  1  0
 21 31  1  0
 21 32  1  0
M  ISO  8  22  14  23  14  26  14  27  14  28  13  29  13  30  13  31  13
M  ISO  1  32  13
M  END
>  <minimizedAffinity>  (1) 
-5.57947111

>  <minimizedRMSD>  (1) 
0.949655414

$$$$
