
     RDKit          3D

 33 36  0  0  1  0  0  0  0  0999 V2000
   45.6950   34.4660   43.7630 C   0  0  0  0  0  0  0  0  0  0  0  0
   46.9410   34.0380   43.2840 C   0  0  0  0  0  0  0  0  0  0  0  0
   47.6340   33.0580   43.9910 C   0  0  0  0  0  0  0  0  0  0  0  0
   47.0700   32.5600   45.1160 N   0  0  0  0  0  0  0  0  0  0  0  0
   45.8580   32.9890   45.5660 C   0  0  0  0  0  0  0  0  0  0  0  0
   45.1980   33.9280   44.8840 N   0  0  0  0  0  0  0  0  0  0  0  0
   47.5840   34.5220   42.1160 N   0  0  0  0  0  0  0  0  0  0  0  0
   48.3910   35.5880   41.9040 C   0  0  0  0  0  0  0  0  0  0  0  0
   48.7430   35.6130   40.5890 N   0  0  0  0  0  0  0  0  0  0  0  0
   48.1640   34.5690   39.9610 C   0  0  0  0  0  0  0  0  0  0  0  0
   48.1680   34.1100   38.6650 C   0  0  0  0  0  0  0  0  0  0  0  0
   47.4560   32.9860   38.3450 N   0  0  0  0  0  0  0  0  0  0  0  0
   46.7550   32.3300   39.2790 C   0  0  0  0  0  0  0  0  0  0  0  0
   46.7790   32.8100   40.5260 N   0  0  0  0  0  0  0  0  0  0  0  0
   47.4460   33.8980   40.9200 C   0  0  0  0  0  0  0  0  0  0  0  0
   48.9030   34.7990   37.6570 N   0  0  0  0  0  0  0  0  0  0  0  0
   45.0210   35.4540   42.9950 C   0  0  0  0  0  0  0  0  0  0  0  0
   45.3060   36.7200   43.0650 O   0  0  0  0  0  0  0  0  0  0  0  0
   43.9350   35.2570   42.0360 C   0  0  0  0  0  0  0  0  0  0  0  0
   44.1600   34.8630   40.6730 C   0  0  0  0  0  0  0  0  0  0  0  0
   42.4850   34.8270   39.9820 S   0  0  0  0  0  0  0  0  0  0  0  0
   41.7270   35.3520   41.6440 C   0  0  0  0  0  0  0  0  0  0  0  0
   42.6690   35.4450   42.3000 N   0  0  0  0  0  0  0  0  0  0  0  0
   48.6139   32.6983   43.6440 H   0  0  0  0  0  0  0  0  0  0  0  0
   45.4262   32.5649   46.4845 H   0  0  0  0  0  0  0  0  0  0  0  0
   48.7094   36.3134   42.6672 H   0  0  0  0  0  0  0  0  0  0  0  0
   46.1792   31.4269   39.0282 H   0  0  0  0  0  0  0  0  0  0  0  0
   48.9011   34.4490   36.6883 H   0  0  0  0  0  0  0  0  0  0  0  0
   49.4361   35.6470   37.8972 H   0  0  0  0  0  0  0  0  0  0  0  0
   45.7602   35.3321   42.1895 H   0  0  0  0  0  0  0  0  0  0  0  0
   45.3673   36.9924   44.0148 H   0  0  0  0  0  0  0  0  0  0  0  0
   45.1134   34.6386   40.1724 H   0  0  0  0  0  0  0  0  0  0  0  0
   40.6727   35.5214   41.9081 H   0  0  0  0  0  0  0  0  0  0  0  0
  1  6  2  0
  2  1  1  0
  2  3  2  0
  3  4  1  0
  4  5  2  0
  6  5  1  0
  7  2  1  0
  8  7  1  0
  9  8  2  0
 10  9  1  0
 10 15  2  0
 11 10  1  0
 12 11  2  0
 12 13  1  0
 13 14  2  0
 14 15  1  0
 15  7  1  0
 16 11  1  0
 17 18  1  0
 17  1  1  0
 19 23  1  0
 19 17  1  0
 20 19  2  0
 21 20  1  0
 21 22  1  0
 22 23  2  0
  3 24  1  0
  5 25  1  0
  8 26  1  0
 13 27  1  0
 16 28  1  0
 16 29  1  0
 17 30  1  0
 18 31  1  0
 20 32  1  0
 22 33  1  0
M  ISO  8  24  14  25  14  26  14  27  14  30   8  31   3  32  14  33  14
M  END
>  <minimizedAffinity>  (1) 
-5.78543043

>  <minimizedRMSD>  (1) 
0.646670163

$$$$
