
     RDKit          3D

 40 43  0  0  0  0  0  0  0  0999 V2000
   45.6720   34.3290   43.6950 C   0  0  0  0  0  0  0  0  0  0  0  0
   46.9550   33.9940   43.2410 C   0  0  0  0  0  0  0  0  0  0  0  0
   47.7060   33.0760   44.0000 C   0  0  0  0  0  0  0  0  0  0  0  0
   47.1260   32.5780   45.1270 N   0  0  0  0  0  0  0  0  0  0  0  0
   45.8920   32.9190   45.5380 C   0  0  0  0  0  0  0  0  0  0  0  0
   45.1850   33.7910   44.8130 N   0  0  0  0  0  0  0  0  0  0  0  0
   47.5940   34.4890   42.0760 N   0  0  0  0  0  0  0  0  0  0  0  0
   48.4090   35.5370   41.8770 C   0  0  0  0  0  0  0  0  0  0  0  0
   48.7520   35.5780   40.5570 N   0  0  0  0  0  0  0  0  0  0  0  0
   48.1560   34.5620   39.9310 C   0  0  0  0  0  0  0  0  0  0  0  0
   48.1400   34.1180   38.6250 C   0  0  0  0  0  0  0  0  0  0  0  0
   47.4150   33.0200   38.2900 N   0  0  0  0  0  0  0  0  0  0  0  0
   46.7010   32.3460   39.2160 C   0  0  0  0  0  0  0  0  0  0  0  0
   46.7400   32.8060   40.4720 N   0  0  0  0  0  0  0  0  0  0  0  0
   47.4290   33.8730   40.8690 C   0  0  0  0  0  0  0  0  0  0  0  0
   48.8760   34.7890   37.6020 N   0  0  0  0  0  0  0  0  0  0  0  0
   44.9620   35.2630   42.8760 C   0  0  0  0  0  0  0  0  0  0  0  0
   45.0960   36.5460   42.9670 O   0  0  0  0  0  0  0  0  0  0  0  0
   43.9980   35.1930   41.8250 N   0  0  0  0  0  0  0  0  0  0  0  0
   42.7470   35.5810   42.4610 C   0  0  0  0  0  0  0  0  0  0  0  0
   41.6350   35.4480   41.4550 C   0  0  0  0  0  0  0  0  0  0  0  0
   41.6420   34.0490   40.9280 C   0  0  0  0  0  0  0  0  0  0  0  0
   42.8700   33.8650   40.0730 C   0  0  0  0  0  0  0  0  0  0  0  0
   43.9580   34.8590   40.4070 C   0  0  0  0  0  0  0  0  0  0  0  0
   48.7188   32.7738   43.6953 H   0  0  0  0  0  0  0  0  0  0  0  0
   45.4706   32.4866   46.4575 H   0  0  0  0  0  0  0  0  0  0  0  0
   48.7444   36.2447   42.6494 H   0  0  0  0  0  0  0  0  0  0  0  0
   46.1119   31.4561   38.9495 H   0  0  0  0  0  0  0  0  0  0  0  0
   48.8486   34.4387   36.6338 H   0  0  0  0  0  0  0  0  0  0  0  0
   49.4343   35.6234   37.8322 H   0  0  0  0  0  0  0  0  0  0  0  0
   42.5492   34.9242   43.3209 H   0  0  0  0  0  0  0  0  0  0  0  0
   42.8118   36.6208   42.8141 H   0  0  0  0  0  0  0  0  0  0  0  0
   40.6695   35.6584   41.9382 H   0  0  0  0  0  0  0  0  0  0  0  0
   41.7815   36.1632   40.6321 H   0  0  0  0  0  0  0  0  0  0  0  0
   41.6636   33.3370   41.7662 H   0  0  0  0  0  0  0  0  0  0  0  0
   40.7365   33.8673   40.3305 H   0  0  0  0  0  0  0  0  0  0  0  0
   42.5878   33.9914   39.0174 H   0  0  0  0  0  0  0  0  0  0  0  0
   43.2655   32.8569   40.2662 H   0  0  0  0  0  0  0  0  0  0  0  0
   44.9285   34.4285   40.1192 H   0  0  0  0  0  0  0  0  0  0  0  0
   43.7438   35.7850   39.8532 H   0  0  0  0  0  0  0  0  0  0  0  0
  1  6  2  0
  2  1  1  0
  2  3  2  0
  3  4  1  0
  4  5  2  0
  6  5  1  0
  7  2  1  0
  8  7  1  0
  9  8  2  0
 10  9  1  0
 10 15  2  0
 11 10  1  0
 12 11  2  0
 12 13  1  0
 13 14  2  0
 14 15  1  0
 15  7  1  0
 16 11  1  0
 17 18  2  0
 17  1  1  0
 19 20  1  0
 19 17  1  0
 21 20  1  0
 22 21  1  0
 23 24  1  0
 23 22  1  0
 24 19  1  0
  3 25  1  0
  5 26  1  0
  8 27  1  0
 13 28  1  0
 16 29  1  0
 16 30  1  0
 20 31  1  0
 20 32  1  0
 21 33  1  0
 21 34  1  0
 22 35  1  0
 22 36  1  0
 23 37  1  0
 23 38  1  0
 24 39  1  0
 24 40  1  0
M  ISO  8  25  14  26  14  27  14  28  14  31  13  32  13  33  13  34  13
M  ISO  6  35  13  36  13  37  13  38  13  39  13  40  13
M  END
>  <minimizedAffinity>  (1) 
-5.88219452

>  <minimizedRMSD>  (1) 
0.731145799

$$$$
