
     RDKit          3D

 39 42  0  0  0  0  0  0  0  0999 V2000
   45.6910   34.8180   43.7230 C   0  0  0  0  0  0  0  0  0  0  0  0
   46.8790   34.2800   43.2610 C   0  0  0  0  0  0  0  0  0  0  0  0
   47.4640   33.2440   43.9920 C   0  0  0  0  0  0  0  0  0  0  0  0
   46.8420   32.8170   45.1150 N   0  0  0  0  0  0  0  0  0  0  0  0
   45.6860   33.3560   45.5460 C   0  0  0  0  0  0  0  0  0  0  0  0
   45.1280   34.3430   44.8500 N   0  0  0  0  0  0  0  0  0  0  0  0
   47.5830   34.6910   42.0810 N   0  0  0  0  0  0  0  0  0  0  0  0
   48.4850   35.6490   41.8770 C   0  0  0  0  0  0  0  0  0  0  0  0
   48.8500   35.6290   40.5590 N   0  0  0  0  0  0  0  0  0  0  0  0
   48.1750   34.6580   39.9390 C   0  0  0  0  0  0  0  0  0  0  0  0
   48.1310   34.1840   38.6470 C   0  0  0  0  0  0  0  0  0  0  0  0
   47.3110   33.1510   38.3350 N   0  0  0  0  0  0  0  0  0  0  0  0
   46.5280   32.5650   39.2580 C   0  0  0  0  0  0  0  0  0  0  0  0
   46.5750   33.0310   40.5130 N   0  0  0  0  0  0  0  0  0  0  0  0
   47.3640   34.0500   40.8870 C   0  0  0  0  0  0  0  0  0  0  0  0
   48.9360   34.7640   37.6300 N   0  0  0  0  0  0  0  0  0  0  0  0
   45.1410   35.8780   42.9290 C   0  0  0  0  0  0  0  0  0  0  0  0
   45.2070   37.1170   43.2100 O   0  0  0  0  0  0  0  0  0  0  0  0
   44.4770   35.6180   41.7610 O   0  0  0  0  0  0  0  0  0  0  0  0
   43.4200   34.7820   41.5080 C   0  0  0  0  0  0  0  0  0  0  0  0
   43.2670   34.2240   40.1470 C   0  0  0  0  0  0  0  0  0  0  0  0
   42.3290   35.1670   39.4660 C   0  0  0  0  0  0  0  0  0  0  0  0
   41.2380   35.2490   40.5150 C   0  0  0  0  0  0  0  0  0  0  0  0
   42.0650   35.4350   41.7710 C   0  0  0  0  0  0  0  0  0  0  0  0
   48.4082   32.7859   43.6626 H   0  0  0  0  0  0  0  0  0  0  0  0
   45.2078   32.9841   46.4642 H   0  0  0  0  0  0  0  0  0  0  0  0
   48.8717   36.3404   42.6402 H   0  0  0  0  0  0  0  0  0  0  0  0
   45.8678   31.7269   38.9901 H   0  0  0  0  0  0  0  0  0  0  0  0
   48.8925   34.3989   36.6679 H   0  0  0  0  0  0  0  0  0  0  0  0
   49.5630   35.5496   37.8549 H   0  0  0  0  0  0  0  0  0  0  0  0
   43.6903   33.9711   42.2004 H   0  0  0  0  0  0  0  0  0  0  0  0
   44.2357   34.1941   39.6267 H   0  0  0  0  0  0  0  0  0  0  0  0
   42.8915   33.1901   40.1559 H   0  0  0  0  0  0  0  0  0  0  0  0
   42.7950   36.1465   39.2831 H   0  0  0  0  0  0  0  0  0  0  0  0
   41.9921   34.8484   38.4685 H   0  0  0  0  0  0  0  0  0  0  0  0
   40.5708   36.1057   40.3391 H   0  0  0  0  0  0  0  0  0  0  0  0
   40.5629   34.3809   40.5387 H   0  0  0  0  0  0  0  0  0  0  0  0
   41.5703   34.9499   42.6254 H   0  0  0  0  0  0  0  0  0  0  0  0
   42.1813   36.5018   42.0125 H   0  0  0  0  0  0  0  0  0  0  0  0
  1  6  2  0
  2  1  1  0
  2  3  2  0
  3  4  1  0
  4  5  2  0
  6  5  1  0
  7  2  1  0
  8  7  1  0
  9  8  2  0
 10  9  1  0
 10 15  2  0
 11 10  1  0
 12 11  2  0
 12 13  1  0
 13 14  2  0
 14 15  1  0
 15  7  1  0
 16 11  1  0
 17 18  2  0
 17  1  1  0
 19 17  1  0
 20 19  1  0
 20 24  1  0
 21 20  1  0
 22 21  1  0
 22 23  1  0
 23 24  1  0
  3 25  1  0
  5 26  1  0
  8 27  1  0
 13 28  1  0
 16 29  1  0
 16 30  1  0
 20 31  1  0
 21 32  1  0
 21 33  1  0
 22 34  1  0
 22 35  1  0
 23 36  1  0
 23 37  1  0
 24 38  1  0
 24 39  1  0
M  ISO  8  25  14  26  14  27  14  28  14  31  13  32  13  33  13  34  13
M  ISO  5  35  13  36  13  37  13  38  13  39  13
M  END
>  <minimizedAffinity>  (1) 
-6.2590661

>  <minimizedRMSD>  (1) 
1.08815658

$$$$
