
     RDKit          3D

 29 31  0  0  0  0  0  0  0  0999 V2000
   47.5860   34.6850   42.1280 N   0  0  0  0  0  0  0  0  0  0  0  0
   48.5060   35.6380   41.9220 C   0  0  0  0  0  0  0  0  0  0  0  0
   48.8490   35.6260   40.6030 N   0  0  0  0  0  0  0  0  0  0  0  0
   48.1440   34.6640   39.9710 C   0  0  0  0  0  0  0  0  0  0  0  0
   48.0820   34.2120   38.6770 C   0  0  0  0  0  0  0  0  0  0  0  0
   47.2470   33.2010   38.3640 N   0  0  0  0  0  0  0  0  0  0  0  0
   46.4540   32.6020   39.2970 C   0  0  0  0  0  0  0  0  0  0  0  0
   46.5350   33.0640   40.5600 N   0  0  0  0  0  0  0  0  0  0  0  0
   47.3380   34.0610   40.9380 C   0  0  0  0  0  0  0  0  0  0  0  0
   48.8840   34.7970   37.6650 N   0  0  0  0  0  0  0  0  0  0  0  0
   45.7060   34.8230   43.7910 C   0  0  0  0  0  0  0  0  0  0  0  0
   46.8950   34.2740   43.3100 C   0  0  0  0  0  0  0  0  0  0  0  0
   47.4710   33.2370   44.0280 C   0  0  0  0  0  0  0  0  0  0  0  0
   46.8640   32.7980   45.1610 N   0  0  0  0  0  0  0  0  0  0  0  0
   45.7190   33.3500   45.5970 C   0  0  0  0  0  0  0  0  0  0  0  0
   45.1550   34.3460   44.9190 N   0  0  0  0  0  0  0  0  0  0  0  0
   45.1660   35.8840   43.0090 C   0  0  0  0  0  0  0  0  0  0  0  0
   45.2940   37.1310   43.2510 O   0  0  0  0  0  0  0  0  0  0  0  0
   44.4220   35.6290   41.8660 O   0  0  0  0  0  0  0  0  0  0  0  0
   43.4510   34.6090   41.7740 C   0  0  0  0  0  0  0  0  0  0  0  0
   48.9145   36.3145   42.6872 H   0  0  0  0  0  0  0  0  0  0  0  0
   45.7771   31.7770   39.0302 H   0  0  0  0  0  0  0  0  0  0  0  0
   48.8278   34.4482   36.6975 H   0  0  0  0  0  0  0  0  0  0  0  0
   49.5229   35.5708   37.8972 H   0  0  0  0  0  0  0  0  0  0  0  0
   48.4084   32.7754   43.6841 H   0  0  0  0  0  0  0  0  0  0  0  0
   45.2465   32.9770   46.5177 H   0  0  0  0  0  0  0  0  0  0  0  0
   43.1521   34.2950   42.7850 H   0  0  0  0  0  0  0  0  0  0  0  0
   42.5715   34.9877   41.2327 H   0  0  0  0  0  0  0  0  0  0  0  0
   43.8725   33.7492   41.2327 H   0  0  0  0  0  0  0  0  0  0  0  0
  1 12  1  0
  2  1  1  0
  3  2  2  0
  4  3  1  0
  4  9  2  0
  5  4  1  0
  6  5  2  0
  6  7  1  0
  7  8  2  0
  8  9  1  0
  9  1  1  0
 10  5  1  0
 11 16  2  0
 12 11  1  0
 12 13  2  0
 13 14  1  0
 14 15  2  0
 16 15  1  0
 17 18  2  0
 17 11  1  0
 19 17  1  0
 20 19  1  0
  2 21  1  0
  7 22  1  0
 10 23  1  0
 10 24  1  0
 13 25  1  0
 15 26  1  0
 20 27  1  0
 20 28  1  0
 20 29  1  0
M  ISO  7  21  14  22  14  25  14  26  14  27   8  28   8  29   8
M  END
>  <minimizedAffinity>  (1) 
-5.4562335

>  <minimizedRMSD>  (1) 
0.475427032

$$$$
