
     RDKit          3D

 33 36  0  0  0  0  0  0  0  0999 V2000
   47.5870   34.7170   42.1370 N   0  0  0  0  0  0  0  0  0  0  0  0
   48.5200   35.6390   41.9370 C   0  0  0  0  0  0  0  0  0  0  0  0
   48.8670   35.6270   40.6130 N   0  0  0  0  0  0  0  0  0  0  0  0
   48.1450   34.6960   39.9920 C   0  0  0  0  0  0  0  0  0  0  0  0
   48.0680   34.2450   38.6810 C   0  0  0  0  0  0  0  0  0  0  0  0
   47.2120   33.2590   38.3680 N   0  0  0  0  0  0  0  0  0  0  0  0
   46.4090   32.6770   39.2910 C   0  0  0  0  0  0  0  0  0  0  0  0
   46.5010   33.1300   40.5520 N   0  0  0  0  0  0  0  0  0  0  0  0
   47.3220   34.0990   40.9340 C   0  0  0  0  0  0  0  0  0  0  0  0
   48.8800   34.8100   37.6680 N   0  0  0  0  0  0  0  0  0  0  0  0
   45.6990   34.8660   43.8040 C   0  0  0  0  0  0  0  0  0  0  0  0
   46.8840   34.3120   43.3120 C   0  0  0  0  0  0  0  0  0  0  0  0
   47.4470   33.2530   44.0340 C   0  0  0  0  0  0  0  0  0  0  0  0
   46.8220   32.8250   45.1600 N   0  0  0  0  0  0  0  0  0  0  0  0
   45.6780   33.3890   45.6010 C   0  0  0  0  0  0  0  0  0  0  0  0
   45.1300   34.3990   44.9200 N   0  0  0  0  0  0  0  0  0  0  0  0
   45.1810   35.9370   43.0220 C   0  0  0  0  0  0  0  0  0  0  0  0
   45.3070   37.1840   43.2840 O   0  0  0  0  0  0  0  0  0  0  0  0
   44.4580   35.7070   41.8510 O   0  0  0  0  0  0  0  0  0  0  0  0
   43.3980   34.8090   41.7420 C   0  0  0  0  0  0  0  0  0  0  0  0
   42.8310   34.5550   40.3540 C   0  0  0  0  0  0  0  0  0  0  0  0
   42.0160   35.2180   41.4550 C   0  0  0  0  0  0  0  0  0  0  0  0
   48.9435   36.3017   42.7061 H   0  0  0  0  0  0  0  0  0  0  0  0
   45.7129   31.8696   39.0198 H   0  0  0  0  0  0  0  0  0  0  0  0
   48.8111   34.4644   36.7002 H   0  0  0  0  0  0  0  0  0  0  0  0
   49.5396   35.5666   37.8989 H   0  0  0  0  0  0  0  0  0  0  0  0
   48.3787   32.7766   43.6949 H   0  0  0  0  0  0  0  0  0  0  0  0
   45.1982   33.0180   46.5187 H   0  0  0  0  0  0  0  0  0  0  0  0
   43.8348   34.2117   42.5559 H   0  0  0  0  0  0  0  0  0  0  0  0
   42.5961   33.5310   40.0281 H   0  0  0  0  0  0  0  0  0  0  0  0
   43.1204   34.8075   39.3232 H   0  0  0  0  0  0  0  0  0  0  0  0
   41.7657   36.2867   41.3823 H   0  0  0  0  0  0  0  0  0  0  0  0
   41.0396   35.0166   41.9198 H   0  0  0  0  0  0  0  0  0  0  0  0
  1 12  1  0
  2  1  1  0
  3  2  2  0
  4  3  1  0
  4  9  2  0
  5  4  1  0
  6  5  2  0
  6  7  1  0
  7  8  2  0
  8  9  1  0
  9  1  1  0
 10  5  1  0
 11 16  2  0
 12 11  1  0
 12 13  2  0
 13 14  1  0
 14 15  2  0
 16 15  1  0
 17 18  2  0
 17 11  1  0
 19 17  1  0
 20 19  1  0
 21 22  1  0
 21 20  1  0
 22 20  1  0
  2 23  1  0
  7 24  1  0
 10 25  1  0
 10 26  1  0
 13 27  1  0
 15 28  1  0
 20 29  1  0
 21 30  1  0
 21 31  1  0
 22 32  1  0
 22 33  1  0
M  ISO  8  23  14  24  14  27  14  28  14  29  13  30  13  31  13  32  13
M  ISO  1  33  13
M  END
>  <minimizedAffinity>  (1) 
-5.75948572

>  <minimizedRMSD>  (1) 
0.968789876

$$$$
