
     RDKit          3D

 28 30  0  0  0  0  0  0  0  0999 V2000
   47.5890   34.7020   42.1170 N   0  0  0  0  0  0  0  0  0  0  0  0
   48.5140   35.6400   41.9130 C   0  0  0  0  0  0  0  0  0  0  0  0
   48.8610   35.6240   40.5960 N   0  0  0  0  0  0  0  0  0  0  0  0
   48.1490   34.6710   39.9730 C   0  0  0  0  0  0  0  0  0  0  0  0
   48.0860   34.2150   38.6640 C   0  0  0  0  0  0  0  0  0  0  0  0
   47.2390   33.2090   38.3550 N   0  0  0  0  0  0  0  0  0  0  0  0
   46.4410   32.6250   39.2830 C   0  0  0  0  0  0  0  0  0  0  0  0
   46.5280   33.0900   40.5410 N   0  0  0  0  0  0  0  0  0  0  0  0
   47.3370   34.0730   40.9120 C   0  0  0  0  0  0  0  0  0  0  0  0
   48.8940   34.7860   37.6520 N   0  0  0  0  0  0  0  0  0  0  0  0
   45.7100   34.8450   43.7730 C   0  0  0  0  0  0  0  0  0  0  0  0
   46.8920   34.2990   43.2900 C   0  0  0  0  0  0  0  0  0  0  0  0
   47.4640   33.2430   44.0230 C   0  0  0  0  0  0  0  0  0  0  0  0
   46.8430   32.8210   45.1420 N   0  0  0  0  0  0  0  0  0  0  0  0
   45.7000   33.3700   45.5840 C   0  0  0  0  0  0  0  0  0  0  0  0
   45.1450   34.3750   44.8980 N   0  0  0  0  0  0  0  0  0  0  0  0
   45.1700   35.9130   42.9930 C   0  0  0  0  0  0  0  0  0  0  0  0
   45.2660   37.1490   43.2510 O   0  0  0  0  0  0  0  0  0  0  0  0
   44.4610   35.6420   41.8260 O   0  0  0  0  0  0  0  0  0  0  0  0
   43.3750   34.7840   41.7840 C   0  0  0  0  0  0  0  0  0  0  0  0
   42.1940   35.2650   41.7970 O   0  0  0  0  0  0  0  0  0  0  0  0
   48.9271   36.3130   42.6787 H   0  0  0  0  0  0  0  0  0  0  0  0
   45.7538   31.8079   39.0182 H   0  0  0  0  0  0  0  0  0  0  0  0
   48.8339   34.4347   36.6856 H   0  0  0  0  0  0  0  0  0  0  0  0
   49.5421   35.5528   37.8819 H   0  0  0  0  0  0  0  0  0  0  0  0
   48.3999   32.7711   43.6891 H   0  0  0  0  0  0  0  0  0  0  0  0
   45.2242   32.9962   46.5026 H   0  0  0  0  0  0  0  0  0  0  0  0
   43.5298   33.6958   41.7398 H   0  0  0  0  0  0  0  0  0  0  0  0
  1 12  1  0
  2  1  1  0
  3  2  2  0
  4  3  1  0
  4  9  2  0
  5  4  1  0
  6  5  2  0
  6  7  1  0
  7  8  2  0
  8  9  1  0
  9  1  1  0
 10  5  1  0
 11 16  2  0
 12 11  1  0
 12 13  2  0
 13 14  1  0
 14 15  2  0
 16 15  1  0
 17 18  2  0
 17 11  1  0
 19 17  1  0
 20 21  2  0
 20 19  1  0
  2 22  1  0
  7 23  1  0
 10 24  1  0
 10 25  1  0
 13 26  1  0
 15 27  1  0
 20 28  1  0
M  ISO  5  22  14  23  14  26  14  27  14  28   6
M  END
>  <minimizedAffinity>  (1) 
-5.46134186

>  <minimizedRMSD>  (1) 
0.860253096

$$$$
