
     RDKit          3D

 40 44  0  0  0  0  0  0  0  0999 V2000
   45.7700   34.5600   43.7850 C   0  0  0  0  0  0  0  0  0  0  0  0
   46.9710   34.1380   43.2860 C   0  0  0  0  0  0  0  0  0  0  0  0
   47.6000   33.1220   44.0100 C   0  0  0  0  0  0  0  0  0  0  0  0
   47.0040   32.6230   45.1310 N   0  0  0  0  0  0  0  0  0  0  0  0
   45.8140   33.0940   45.5580 C   0  0  0  0  0  0  0  0  0  0  0  0
   45.2010   34.0720   44.8710 N   0  0  0  0  0  0  0  0  0  0  0  0
   47.6180   34.5940   42.1120 N   0  0  0  0  0  0  0  0  0  0  0  0
   48.4690   35.5890   41.9120 C   0  0  0  0  0  0  0  0  0  0  0  0
   48.8020   35.6090   40.5810 N   0  0  0  0  0  0  0  0  0  0  0  0
   48.1490   34.6110   39.9410 C   0  0  0  0  0  0  0  0  0  0  0  0
   48.1030   34.1710   38.6460 C   0  0  0  0  0  0  0  0  0  0  0  0
   47.3300   33.1210   38.3320 N   0  0  0  0  0  0  0  0  0  0  0  0
   46.5860   32.4730   39.2600 C   0  0  0  0  0  0  0  0  0  0  0  0
   46.6420   32.9170   40.5310 N   0  0  0  0  0  0  0  0  0  0  0  0
   47.3950   33.9620   40.9100 C   0  0  0  0  0  0  0  0  0  0  0  0
   48.8670   34.8090   37.6330 N   0  0  0  0  0  0  0  0  0  0  0  0
   45.0970   35.5280   42.9830 C   0  0  0  0  0  0  0  0  0  0  0  0
   45.1390   36.7680   43.0170 O   0  0  0  0  0  0  0  0  0  0  0  0
   44.2230   35.1920   41.9680 O   0  0  0  0  0  0  0  0  0  0  0  0
   43.5400   34.0410   41.7830 C   0  0  0  0  0  0  0  0  0  0  0  0
   42.5220   34.5370   40.7690 N   0  0  0  0  0  0  0  0  0  0  0  0
   42.5660   35.3850   39.7580 C   0  0  0  0  0  0  0  0  0  0  0  0
   41.3790   35.4850   39.1520 N   0  0  0  0  0  0  0  0  0  0  0  0
   40.4860   34.6860   39.7560 C   0  0  0  0  0  0  0  0  0  0  0  0
   39.1520   34.3870   39.5770 C   0  0  0  0  0  0  0  0  0  0  0  0
   38.5990   33.5140   40.4080 N   0  0  0  0  0  0  0  0  0  0  0  0
   39.2860   32.9150   41.4150 C   0  0  0  0  0  0  0  0  0  0  0  0
   40.5810   33.2210   41.5730 N   0  0  0  0  0  0  0  0  0  0  0  0
   41.2200   34.1050   40.7610 C   0  0  0  0  0  0  0  0  0  0  0  0
   48.5711   32.7264   43.6777 H   0  0  0  0  0  0  0  0  0  0  0  0
   45.3482   32.6792   46.4641 H   0  0  0  0  0  0  0  0  0  0  0  0
   48.8443   36.2805   42.6808 H   0  0  0  0  0  0  0  0  0  0  0  0
   45.9572   31.6132   38.9853 H   0  0  0  0  0  0  0  0  0  0  0  0
   48.8228   34.4672   36.6624 H   0  0  0  0  0  0  0  0  0  0  0  0
   49.4653   35.6135   37.8689 H   0  0  0  0  0  0  0  0  0  0  0  0
   44.1771   33.2434   41.3732 H   0  0  0  0  0  0  0  0  0  0  0  0
   43.1220   33.5846   42.6924 H   0  0  0  0  0  0  0  0  0  0  0  0
   43.4659   35.9392   39.4530 H   0  0  0  0  0  0  0  0  0  0  0  0
   38.5666   34.8564   38.7726 H   0  0  0  0  0  0  0  0  0  0  0  0
   38.7913   32.1961   42.0846 H   0  0  0  0  0  0  0  0  0  0  0  0
  1  6  2  0
  2  1  1  0
  2  3  2  0
  3  4  1  0
  4  5  2  0
  6  5  1  0
  7  2  1  0
  8  7  1  0
  9  8  2  0
 10  9  1  0
 10 15  2  0
 11 10  1  0
 12 11  2  0
 12 13  1  0
 13 14  2  0
 14 15  1  0
 15  7  1  0
 16 11  1  0
 17 18  2  0
 17  1  1  0
 19 17  1  0
 20 19  1  0
 21 20  1  0
 22 21  1  0
 23 24  1  0
 23 22  2  0
 24 29  2  0
 25 24  1  0
 25 26  2  0
 26 27  1  0
 27 28  2  0
 29 21  1  0
 29 28  1  0
  3 30  1  0
  5 31  1  0
  8 32  1  0
 13 33  1  0
 16 34  1  0
 16 35  1  0
 20 36  1  0
 20 37  1  0
 22 38  1  0
 25 39  1  0
 27 40  1  0
M  ISO  8  30  14  31  14  32  14  33  14  36   8  37   8  38  14  39  14
M  ISO  1  40  14
M  END
>  <minimizedAffinity>  (1) 
-6.89455175

>  <minimizedRMSD>  (1) 
1.07913172

$$$$
