
     RDKit          3D

 39 42  0  0  0  0  0  0  0  0999 V2000
   45.8060   34.6940   43.8480 C   0  0  0  0  0  0  0  0  0  0  0  0
   46.9780   34.2230   43.3330 C   0  0  0  0  0  0  0  0  0  0  0  0
   47.5720   33.1800   44.0510 C   0  0  0  0  0  0  0  0  0  0  0  0
   46.9660   32.7120   45.1770 N   0  0  0  0  0  0  0  0  0  0  0  0
   45.8000   33.2340   45.6230 C   0  0  0  0  0  0  0  0  0  0  0  0
   45.2230   34.2380   44.9400 N   0  0  0  0  0  0  0  0  0  0  0  0
   47.6270   34.6500   42.1490 N   0  0  0  0  0  0  0  0  0  0  0  0
   48.5200   35.6070   41.9360 C   0  0  0  0  0  0  0  0  0  0  0  0
   48.8330   35.6100   40.6020 N   0  0  0  0  0  0  0  0  0  0  0  0
   48.1250   34.6410   39.9740 C   0  0  0  0  0  0  0  0  0  0  0  0
   48.0470   34.2050   38.6820 C   0  0  0  0  0  0  0  0  0  0  0  0
   47.2220   33.1820   38.3740 N   0  0  0  0  0  0  0  0  0  0  0  0
   46.4650   32.5720   39.3150 C   0  0  0  0  0  0  0  0  0  0  0  0
   46.5560   33.0170   40.5820 N   0  0  0  0  0  0  0  0  0  0  0  0
   47.3550   34.0260   40.9520 C   0  0  0  0  0  0  0  0  0  0  0  0
   48.8280   34.8040   37.6550 N   0  0  0  0  0  0  0  0  0  0  0  0
   45.1590   35.6880   43.0480 C   0  0  0  0  0  0  0  0  0  0  0  0
   45.2530   36.9350   43.0980 O   0  0  0  0  0  0  0  0  0  0  0  0
   44.2700   35.3790   42.0330 O   0  0  0  0  0  0  0  0  0  0  0  0
   43.3700   34.3870   41.9460 C   0  0  0  0  0  0  0  0  0  0  0  0
   42.7310   34.7230   40.6030 N   0  0  0  0  0  0  0  0  0  0  0  0
   43.1910   34.4660   39.3730 C   0  0  0  0  0  0  0  0  0  0  0  0
   42.4960   34.8360   38.2520 C   0  0  0  0  0  0  0  0  0  0  0  0
   41.2920   35.4890   38.3860 C   0  0  0  0  0  0  0  0  0  0  0  0
   40.7080   35.7980   37.3280 O   0  0  0  0  0  0  0  0  0  0  0  0
   40.8010   35.7620   39.5990 N   0  0  0  0  0  0  0  0  0  0  0  0
   41.5340   35.3700   40.6350 C   0  0  0  0  0  0  0  0  0  0  0  0
   41.0510   35.6380   41.7650 O   0  0  0  0  0  0  0  0  0  0  0  0
   48.5210   32.7414   43.7089 H   0  0  0  0  0  0  0  0  0  0  0  0
   45.3287   32.8406   46.5357 H   0  0  0  0  0  0  0  0  0  0  0  0
   48.9372   36.2815   42.6982 H   0  0  0  0  0  0  0  0  0  0  0  0
   45.7964   31.7388   39.0529 H   0  0  0  0  0  0  0  0  0  0  0  0
   48.7553   34.4612   36.6864 H   0  0  0  0  0  0  0  0  0  0  0  0
   49.4662   35.5805   37.8799 H   0  0  0  0  0  0  0  0  0  0  0  0
   43.8525   33.3986   41.9321 H   0  0  0  0  0  0  0  0  0  0  0  0
   42.6671   34.3250   42.7899 H   0  0  0  0  0  0  0  0  0  0  0  0
   44.1525   33.9439   39.2590 H   0  0  0  0  0  0  0  0  0  0  0  0
   42.8972   34.6129   37.2524 H   0  0  0  0  0  0  0  0  0  0  0  0
   39.9026   36.2501   39.7236 H   0  0  0  0  0  0  0  0  0  0  0  0
  1  6  2  0
  2  1  1  0
  2  3  2  0
  3  4  1  0
  4  5  2  0
  6  5  1  0
  7  2  1  0
  8  7  1  0
  9  8  2  0
 10  9  1  0
 10 15  2  0
 11 10  1  0
 12 11  2  0
 12 13  1  0
 13 14  2  0
 14 15  1  0
 15  7  1  0
 16 11  1  0
 17 18  2  0
 17  1  1  0
 19 17  1  0
 20 19  1  0
 21 27  1  0
 21 20  1  0
 22 21  1  0
 23 24  1  0
 23 22  2  0
 24 26  1  0
 25 24  2  0
 26 27  1  0
 27 28  2  0
  3 29  1  0
  5 30  1  0
  8 31  1  0
 13 32  1  0
 16 33  1  0
 16 34  1  0
 20 35  1  0
 20 36  1  0
 22 37  1  0
 23 38  1  0
 26 39  1  0
M  ISO  8  29  14  30  14  31  14  32  14  35   8  36   8  37  14  38  14
M  ISO  1  39   9
M  END
>  <minimizedAffinity>  (1) 
-6.67597866

>  <minimizedRMSD>  (1) 
0.425868183

$$$$
