
     RDKit          3D

 38 41  0  0  0  0  0  0  0  0999 V2000
   45.8150   34.7020   43.8470 C   0  0  0  0  0  0  0  0  0  0  0  0
   46.9810   34.2140   43.3220 C   0  0  0  0  0  0  0  0  0  0  0  0
   47.5620   33.1520   44.0260 C   0  0  0  0  0  0  0  0  0  0  0  0
   46.9570   32.6790   45.1510 N   0  0  0  0  0  0  0  0  0  0  0  0
   45.8110   33.2120   45.6000 C   0  0  0  0  0  0  0  0  0  0  0  0
   45.2390   34.2330   44.9400 N   0  0  0  0  0  0  0  0  0  0  0  0
   47.6370   34.6470   42.1440 N   0  0  0  0  0  0  0  0  0  0  0  0
   48.5070   35.6250   41.9350 C   0  0  0  0  0  0  0  0  0  0  0  0
   48.8300   35.6270   40.5990 N   0  0  0  0  0  0  0  0  0  0  0  0
   48.1600   34.6460   39.9730 C   0  0  0  0  0  0  0  0  0  0  0  0
   48.0910   34.1950   38.6810 C   0  0  0  0  0  0  0  0  0  0  0  0
   47.2970   33.1600   38.3680 N   0  0  0  0  0  0  0  0  0  0  0  0
   46.5410   32.5300   39.3110 C   0  0  0  0  0  0  0  0  0  0  0  0
   46.6180   32.9830   40.5750 N   0  0  0  0  0  0  0  0  0  0  0  0
   47.3940   34.0130   40.9470 C   0  0  0  0  0  0  0  0  0  0  0  0
   48.8560   34.8150   37.6630 N   0  0  0  0  0  0  0  0  0  0  0  0
   45.1840   35.7200   43.0680 C   0  0  0  0  0  0  0  0  0  0  0  0
   45.2760   36.9540   43.1540 O   0  0  0  0  0  0  0  0  0  0  0  0
   44.3140   35.4200   42.0360 O   0  0  0  0  0  0  0  0  0  0  0  0
   43.6030   34.3080   41.7950 C   0  0  0  0  0  0  0  0  0  0  0  0
   42.4590   34.9280   40.9180 C   0  0  0  0  0  0  0  0  0  0  0  0
   41.3200   35.5480   41.3870 C   0  0  0  0  0  0  0  0  0  0  0  0
   40.4250   36.0330   40.4620 C   0  0  0  0  0  0  0  0  0  0  0  0
   40.6340   35.9160   39.1040 C   0  0  0  0  0  0  0  0  0  0  0  0
   41.7760   35.2940   38.6670 C   0  0  0  0  0  0  0  0  0  0  0  0
   42.6340   34.8290   39.5880 N   0  0  0  0  0  0  0  0  0  0  0  0
   48.5016   32.7023   43.6725 H   0  0  0  0  0  0  0  0  0  0  0  0
   45.3388   32.8127   46.5097 H   0  0  0  0  0  0  0  0  0  0  0  0
   48.9011   36.3138   42.6967 H   0  0  0  0  0  0  0  0  0  0  0  0
   45.8916   31.6820   39.0479 H   0  0  0  0  0  0  0  0  0  0  0  0
   48.7991   34.4706   36.6940 H   0  0  0  0  0  0  0  0  0  0  0  0
   49.4693   35.6103   37.8917 H   0  0  0  0  0  0  0  0  0  0  0  0
   44.1865   33.5583   41.2406 H   0  0  0  0  0  0  0  0  0  0  0  0
   43.2681   33.7598   42.6879 H   0  0  0  0  0  0  0  0  0  0  0  0
   41.1332   35.6514   42.4661 H   0  0  0  0  0  0  0  0  0  0  0  0
   39.5111   36.5313   40.8177 H   0  0  0  0  0  0  0  0  0  0  0  0
   39.9007   36.3129   38.3865 H   0  0  0  0  0  0  0  0  0  0  0  0
   41.9824   35.1797   37.5926 H   0  0  0  0  0  0  0  0  0  0  0  0
  1  6  2  0
  2  1  1  0
  2  3  2  0
  3  4  1  0
  4  5  2  0
  6  5  1  0
  7  2  1  0
  8  7  1  0
  9  8  2  0
 10  9  1  0
 10 15  2  0
 11 10  1  0
 12 11  2  0
 12 13  1  0
 13 14  2  0
 14 15  1  0
 15  7  1  0
 16 11  1  0
 17 18  2  0
 17  1  1  0
 19 17  1  0
 20 19  1  0
 21 22  2  0
 21 20  1  0
 23 22  1  0
 24 23  2  0
 25 24  1  0
 25 26  2  0
 26 21  1  0
  3 27  1  0
  5 28  1  0
  8 29  1  0
 13 30  1  0
 16 31  1  0
 16 32  1  0
 20 33  1  0
 20 34  1  0
 22 35  1  0
 23 36  1  0
 24 37  1  0
 25 38  1  0
M  ISO  8  27  14  28  14  29  14  30  14  33   8  34   8  35  14  36  14
M  ISO  2  37  14  38  14
M  END
>  <minimizedAffinity>  (1) 
-6.706182

>  <minimizedRMSD>  (1) 
1.03033602

$$$$
