
     RDKit          3D

 42 45  0  0  0  0  0  0  0  0999 V2000
   45.8020   34.7530   43.8230 C   0  0  0  0  0  0  0  0  0  0  0  0
   46.9590   34.2390   43.3020 C   0  0  0  0  0  0  0  0  0  0  0  0
   47.5160   33.1660   44.0080 C   0  0  0  0  0  0  0  0  0  0  0  0
   46.9040   32.7040   45.1300 N   0  0  0  0  0  0  0  0  0  0  0  0
   45.7610   33.2640   45.5830 C   0  0  0  0  0  0  0  0  0  0  0  0
   45.2180   34.2940   44.9160 N   0  0  0  0  0  0  0  0  0  0  0  0
   47.6270   34.6570   42.1250 N   0  0  0  0  0  0  0  0  0  0  0  0
   48.5260   35.6110   41.9210 C   0  0  0  0  0  0  0  0  0  0  0  0
   48.8580   35.6090   40.5890 N   0  0  0  0  0  0  0  0  0  0  0  0
   48.1600   34.6440   39.9570 C   0  0  0  0  0  0  0  0  0  0  0  0
   48.0870   34.2000   38.6600 C   0  0  0  0  0  0  0  0  0  0  0  0
   47.2610   33.1860   38.3480 N   0  0  0  0  0  0  0  0  0  0  0  0
   46.4860   32.5780   39.2860 C   0  0  0  0  0  0  0  0  0  0  0  0
   46.5670   33.0240   40.5520 N   0  0  0  0  0  0  0  0  0  0  0  0
   47.3700   34.0300   40.9270 C   0  0  0  0  0  0  0  0  0  0  0  0
   48.8730   34.8040   37.6540 N   0  0  0  0  0  0  0  0  0  0  0  0
   45.1970   35.7820   43.0420 C   0  0  0  0  0  0  0  0  0  0  0  0
   45.2040   37.0070   43.2020 O   0  0  0  0  0  0  0  0  0  0  0  0
   44.4570   35.5160   41.9040 O   0  0  0  0  0  0  0  0  0  0  0  0
   43.4340   34.6450   41.7450 C   0  0  0  0  0  0  0  0  0  0  0  0
   42.3890   35.6010   41.0140 C   0  0  0  0  0  0  0  0  0  0  0  0
   42.2160   35.0840   39.6040 C   0  0  0  0  0  0  0  0  0  0  0  0
   40.7700   35.2460   39.2820 C   0  0  0  0  0  0  0  0  0  0  0  0
   40.1260   35.8830   40.4840 C   0  0  0  0  0  0  0  0  0  0  0  0
   41.0360   35.4320   41.6070 C   0  0  0  0  0  0  0  0  0  0  0  0
   48.4469   32.6979   43.6553 H   0  0  0  0  0  0  0  0  0  0  0  0
   45.2785   32.8780   46.4930 H   0  0  0  0  0  0  0  0  0  0  0  0
   48.9347   36.2867   42.6867 H   0  0  0  0  0  0  0  0  0  0  0  0
   45.8150   31.7487   39.0177 H   0  0  0  0  0  0  0  0  0  0  0  0
   48.8142   34.4668   36.6826 H   0  0  0  0  0  0  0  0  0  0  0  0
   49.5051   35.5817   37.8918 H   0  0  0  0  0  0  0  0  0  0  0  0
   43.7176   33.7888   41.1153 H   0  0  0  0  0  0  0  0  0  0  0  0
   43.0710   34.1738   42.6703 H   0  0  0  0  0  0  0  0  0  0  0  0
   42.7510   36.6371   41.0879 H   0  0  0  0  0  0  0  0  0  0  0  0
   42.8313   35.6687   38.9043 H   0  0  0  0  0  0  0  0  0  0  0  0
   42.5329   34.0342   39.5179 H   0  0  0  0  0  0  0  0  0  0  0  0
   40.6484   35.8922   38.4001 H   0  0  0  0  0  0  0  0  0  0  0  0
   40.3054   34.2756   39.0528 H   0  0  0  0  0  0  0  0  0  0  0  0
   40.1132   36.9794   40.3962 H   0  0  0  0  0  0  0  0  0  0  0  0
   39.0731   35.5977   40.6256 H   0  0  0  0  0  0  0  0  0  0  0  0
   40.8474   34.3816   41.8736 H   0  0  0  0  0  0  0  0  0  0  0  0
   40.8931   35.9966   42.5402 H   0  0  0  0  0  0  0  0  0  0  0  0
  1  6  2  0
  2  1  1  0
  2  3  2  0
  3  4  1  0
  4  5  2  0
  6  5  1  0
  7  2  1  0
  8  7  1  0
  9  8  2  0
 10  9  1  0
 10 15  2  0
 11 10  1  0
 12 11  2  0
 12 13  1  0
 13 14  2  0
 14 15  1  0
 15  7  1  0
 16 11  1  0
 17 18  2  0
 17  1  1  0
 19 17  1  0
 20 19  1  0
 21 25  1  0
 21 20  1  0
 22 21  1  0
 23 22  1  0
 23 24  1  0
 24 25  1  0
  3 26  1  0
  5 27  1  0
  8 28  1  0
 13 29  1  0
 16 30  1  0
 16 31  1  0
 20 32  1  0
 20 33  1  0
 21 34  1  0
 22 35  1  0
 22 36  1  0
 23 37  1  0
 23 38  1  0
 24 39  1  0
 24 40  1  0
 25 41  1  0
 25 42  1  0
M  ISO  8  26  14  27  14  28  14  29  14  32   8  33   8  34  13  35  13
M  ISO  7  36  13  37  13  38  13  39  13  40  13  41  13  42  13
M  END
>  <minimizedAffinity>  (1) 
-6.69453764

>  <minimizedRMSD>  (1) 
0.917449772

$$$$
