
     RDKit          3D

 26 28  0  0  0  0  0  0  0  0999 V2000
   46.7910   32.9170   44.8540 C   0  0  0  0  0  0  0  0  0  0  0  0
   47.7230   32.2500   44.1080 N   0  0  0  0  0  0  0  0  0  0  0  0
   48.0400   32.6210   42.8490 C   0  0  0  0  0  0  0  0  0  0  0  0
   47.4520   33.6780   42.2540 N   0  0  0  0  0  0  0  0  0  0  0  0
   46.5210   34.3690   42.9580 C   0  0  0  0  0  0  0  0  0  0  0  0
   45.8360   35.4780   42.4680 C   0  0  0  0  0  0  0  0  0  0  0  0
   44.8960   36.1500   43.2210 C   0  0  0  0  0  0  0  0  0  0  0  0
   44.6050   35.7260   44.5110 C   0  0  0  0  0  0  0  0  0  0  0  0
   45.2660   34.6360   45.0180 C   0  0  0  0  0  0  0  0  0  0  0  0
   46.1960   33.9940   44.2390 C   0  0  0  0  0  0  0  0  0  0  0  0
   45.7950   31.2100   46.1920 C   0  0  0  0  0  0  0  0  0  0  0  0
   46.6050   32.3590   46.1720 C   0  0  0  0  0  0  0  0  0  0  0  0
   47.1070   32.7790   47.4110 C   0  0  0  0  0  0  0  0  0  0  0  0
   46.7870   32.0640   48.5270 N   0  0  0  0  0  0  0  0  0  0  0  0
   46.0140   30.9800   48.4830 C   0  0  0  0  0  0  0  0  0  0  0  0
   45.4930   30.5170   47.3230 N   0  0  0  0  0  0  0  0  0  0  0  0
   45.8450   30.4340   49.7920 N   0  0  0  0  0  0  0  0  0  0  0  0
   48.7969   32.0464   42.2951 H   0  0  0  0  0  0  0  0  0  0  0  0
   46.0514   35.8292   41.4481 H   0  0  0  0  0  0  0  0  0  0  0  0
   44.3762   37.0229   42.7993 H   0  0  0  0  0  0  0  0  0  0  0  0
   43.8557   36.2562   45.1172 H   0  0  0  0  0  0  0  0  0  0  0  0
   45.0531   34.2807   46.0370 H   0  0  0  0  0  0  0  0  0  0  0  0
   45.3816   30.8507   45.2381 H   0  0  0  0  0  0  0  0  0  0  0  0
   47.7481   33.6700   47.4820 H   0  0  0  0  0  0  0  0  0  0  0  0
   45.2710   29.5896   49.9276 H   0  0  0  0  0  0  0  0  0  0  0  0
   46.2971   30.8847   50.6003 H   0  0  0  0  0  0  0  0  0  0  0  0
  1 12  1  0
  2  1  2  0
  3  2  1  0
  4  3  2  0
  4  5  1  0
  5 10  2  0
  6  5  1  0
  6  7  2  0
  7  8  1  0
  8  9  2  0
 10  1  1  0
 10  9  1  0
 11 16  2  0
 12 11  1  0
 12 13  2  0
 13 14  1  0
 15 14  2  0
 15 17  1  0
 16 15  1  0
  3 18  1  0
  6 19  1  0
  7 20  1  0
  8 21  1  0
  9 22  1  0
 11 23  1  0
 13 24  1  0
 17 25  1  0
 17 26  1  0
M  ISO  7  18  14  19  14  20  14  21  14  22  14  23  14  24  14
M  END
>  <minimizedAffinity>  (1) 
-5.22728443

>  <minimizedRMSD>  (1) 
0.397648782

$$$$
