
     RDKit          3D

 43 46  0  0  0  0  0  0  0  0999 V2000
   45.7790   34.7740   43.7820 C   0  0  0  0  0  0  0  0  0  0  0  0
   46.9420   34.2650   43.2730 C   0  0  0  0  0  0  0  0  0  0  0  0
   47.5080   33.2020   43.9850 C   0  0  0  0  0  0  0  0  0  0  0  0
   46.8890   32.7450   45.1120 N   0  0  0  0  0  0  0  0  0  0  0  0
   45.7390   33.2980   45.5550 C   0  0  0  0  0  0  0  0  0  0  0  0
   45.1930   34.3180   44.8730 N   0  0  0  0  0  0  0  0  0  0  0  0
   47.6130   34.6770   42.0940 N   0  0  0  0  0  0  0  0  0  0  0  0
   48.4970   35.6440   41.8870 C   0  0  0  0  0  0  0  0  0  0  0  0
   48.8480   35.6320   40.5650 N   0  0  0  0  0  0  0  0  0  0  0  0
   48.1700   34.6390   39.9320 C   0  0  0  0  0  0  0  0  0  0  0  0
   48.1230   34.1750   38.6430 C   0  0  0  0  0  0  0  0  0  0  0  0
   47.3190   33.1430   38.3380 N   0  0  0  0  0  0  0  0  0  0  0  0
   46.5400   32.5350   39.2770 C   0  0  0  0  0  0  0  0  0  0  0  0
   46.5990   33.0010   40.5370 N   0  0  0  0  0  0  0  0  0  0  0  0
   47.3820   34.0290   40.9050 C   0  0  0  0  0  0  0  0  0  0  0  0
   48.9100   34.7700   37.6280 N   0  0  0  0  0  0  0  0  0  0  0  0
   45.1690   35.7890   42.9850 C   0  0  0  0  0  0  0  0  0  0  0  0
   45.2360   37.0190   43.0800 O   0  0  0  0  0  0  0  0  0  0  0  0
   44.3480   35.4920   41.9130 O   0  0  0  0  0  0  0  0  0  0  0  0
   43.0340   35.1830   41.9020 C   0  0  0  0  0  0  0  0  0  0  0  0
   42.7840   35.3040   40.3980 N   0  0  0  0  0  0  0  0  0  0  0  0
   43.2650   34.1260   39.7530 C   0  0  0  0  0  0  0  0  0  0  0  0
   42.3100   33.5530   38.7420 C   0  0  0  0  0  0  0  0  0  0  0  0
   41.6110   34.5300   37.9610 N   0  0  0  0  0  0  0  0  0  0  0  0
   41.1420   35.6520   38.7340 C   0  0  0  0  0  0  0  0  0  0  0  0
   41.3590   35.4180   40.1890 C   0  0  0  0  0  0  0  0  0  0  0  0
   48.4438   32.7386   43.6394 H   0  0  0  0  0  0  0  0  0  0  0  0
   45.2543   32.9165   46.4658 H   0  0  0  0  0  0  0  0  0  0  0  0
   48.8823   36.3376   42.6489 H   0  0  0  0  0  0  0  0  0  0  0  0
   45.8851   31.6915   39.0129 H   0  0  0  0  0  0  0  0  0  0  0  0
   48.8644   34.4107   36.6638 H   0  0  0  0  0  0  0  0  0  0  0  0
   49.5283   35.5623   37.8536 H   0  0  0  0  0  0  0  0  0  0  0  0
   42.8447   34.1648   42.2728 H   0  0  0  0  0  0  0  0  0  0  0  0
   42.3922   35.8043   42.5440 H   0  0  0  0  0  0  0  0  0  0  0  0
   44.2066   34.3716   39.2400 H   0  0  0  0  0  0  0  0  0  0  0  0
   43.3974   33.3643   40.5355 H   0  0  0  0  0  0  0  0  0  0  0  0
   42.8814   32.9103   38.0561 H   0  0  0  0  0  0  0  0  0  0  0  0
   41.5455   33.0041   39.3115 H   0  0  0  0  0  0  0  0  0  0  0  0
   40.7989   34.0752   37.5199 H   0  0  0  0  0  0  0  0  0  0  0  0
   41.6901   36.5553   38.4281 H   0  0  0  0  0  0  0  0  0  0  0  0
   40.0644   35.7793   38.5537 H   0  0  0  0  0  0  0  0  0  0  0  0
   40.9598   36.2626   40.7697 H   0  0  0  0  0  0  0  0  0  0  0  0
   40.8428   34.5039   40.5177 H   0  0  0  0  0  0  0  0  0  0  0  0
  1  6  2  0
  2  1  1  0
  2  3  2  0
  3  4  1  0
  4  5  2  0
  6  5  1  0
  7  2  1  0
  8  7  1  0
  9  8  2  0
 10  9  1  0
 10 15  2  0
 11 10  1  0
 12 11  2  0
 12 13  1  0
 13 14  2  0
 14 15  1  0
 15  7  1  0
 16 11  1  0
 17 18  2  0
 17  1  1  0
 19 17  1  0
 20 19  1  0
 21 20  1  0
 22 21  1  0
 23 22  1  0
 24 25  1  0
 24 23  1  0
 25 26  1  0
 26 21  1  0
  3 27  1  0
  5 28  1  0
  8 29  1  0
 13 30  1  0
 16 31  1  0
 16 32  1  0
 20 33  1  0
 20 34  1  0
 22 35  1  0
 22 36  1  0
 23 37  1  0
 23 38  1  0
 24 39  1  0
 25 40  1  0
 25 41  1  0
 26 42  1  0
 26 43  1  0
M  ISO  8  27  14  28  14  29  14  30  14  33   8  34   8  35  13  36  13
M  ISO  7  37  13  38  13  39   5  40  13  41  13  42  13  43  13
M  END
>  <minimizedAffinity>  (1) 
-6.42702866

>  <minimizedRMSD>  (1) 
0.214955911

$$$$
