
     RDKit          3D

 36 39  0  0  0  0  0  0  0  0999 V2000
   45.7730   34.7300   43.8020 C   0  0  0  0  0  0  0  0  0  0  0  0
   46.9440   34.2450   43.2940 C   0  0  0  0  0  0  0  0  0  0  0  0
   47.5190   33.1900   44.0090 C   0  0  0  0  0  0  0  0  0  0  0  0
   46.8980   32.7210   45.1320 N   0  0  0  0  0  0  0  0  0  0  0  0
   45.7370   33.2570   45.5660 C   0  0  0  0  0  0  0  0  0  0  0  0
   45.1780   34.2720   44.8870 N   0  0  0  0  0  0  0  0  0  0  0  0
   47.6090   34.6640   42.1160 N   0  0  0  0  0  0  0  0  0  0  0  0
   48.4880   35.6380   41.9100 C   0  0  0  0  0  0  0  0  0  0  0  0
   48.8230   35.6270   40.5790 N   0  0  0  0  0  0  0  0  0  0  0  0
   48.1510   34.6420   39.9500 C   0  0  0  0  0  0  0  0  0  0  0  0
   48.0990   34.1850   38.6600 C   0  0  0  0  0  0  0  0  0  0  0  0
   47.2990   33.1450   38.3530 N   0  0  0  0  0  0  0  0  0  0  0  0
   46.5350   32.5300   39.2910 C   0  0  0  0  0  0  0  0  0  0  0  0
   46.5970   32.9920   40.5520 N   0  0  0  0  0  0  0  0  0  0  0  0
   47.3740   34.0220   40.9220 C   0  0  0  0  0  0  0  0  0  0  0  0
   48.8770   34.7940   37.6480 N   0  0  0  0  0  0  0  0  0  0  0  0
   45.1480   35.7390   43.0040 C   0  0  0  0  0  0  0  0  0  0  0  0
   45.2370   36.9780   43.0700 O   0  0  0  0  0  0  0  0  0  0  0  0
   44.2870   35.4380   41.9660 O   0  0  0  0  0  0  0  0  0  0  0  0
   43.5720   34.3280   41.7210 C   0  0  0  0  0  0  0  0  0  0  0  0
   42.3340   34.9910   41.1200 N   0  0  0  0  0  0  0  0  0  0  0  0
   42.1560   35.0350   39.8000 N   0  0  0  0  0  0  0  0  0  0  0  0
   41.0170   35.6510   39.4660 C   0  0  0  0  0  0  0  0  0  0  0  0
   40.4240   36.0300   40.6460 C   0  0  0  0  0  0  0  0  0  0  0  0
   41.2630   35.6060   41.6410 C   0  0  0  0  0  0  0  0  0  0  0  0
   48.4642   32.7410   43.6700 H   0  0  0  0  0  0  0  0  0  0  0  0
   45.2514   32.8641   46.4714 H   0  0  0  0  0  0  0  0  0  0  0  0
   48.8781   36.3303   42.6706 H   0  0  0  0  0  0  0  0  0  0  0  0
   45.8863   31.6814   39.0282 H   0  0  0  0  0  0  0  0  0  0  0  0
   48.8305   34.4425   36.6810 H   0  0  0  0  0  0  0  0  0  0  0  0
   49.4901   35.5890   37.8780 H   0  0  0  0  0  0  0  0  0  0  0  0
   44.0740   33.6600   41.0056 H   0  0  0  0  0  0  0  0  0  0  0  0
   43.3929   33.6721   42.5857 H   0  0  0  0  0  0  0  0  0  0  0  0
   40.6318   35.8204   38.4497 H   0  0  0  0  0  0  0  0  0  0  0  0
   39.4703   36.5647   40.7665 H   0  0  0  0  0  0  0  0  0  0  0  0
   41.0836   35.7497   42.7167 H   0  0  0  0  0  0  0  0  0  0  0  0
  1  6  2  0
  2  1  1  0
  2  3  2  0
  3  4  1  0
  4  5  2  0
  6  5  1  0
  7  2  1  0
  8  7  1  0
  9  8  2  0
 10  9  1  0
 10 15  2  0
 11 10  1  0
 12 11  2  0
 12 13  1  0
 13 14  2  0
 14 15  1  0
 15  7  1  0
 16 11  1  0
 17 18  2  0
 17  1  1  0
 19 17  1  0
 20 19  1  0
 21 25  1  0
 21 20  1  0
 22 21  1  0
 23 22  2  0
 23 24  1  0
 24 25  2  0
  3 26  1  0
  5 27  1  0
  8 28  1  0
 13 29  1  0
 16 30  1  0
 16 31  1  0
 20 32  1  0
 20 33  1  0
 23 34  1  0
 24 35  1  0
 25 36  1  0
M  ISO  8  26  14  27  14  28  14  29  14  32   8  33   8  34  14  35  14
M  ISO  1  36  14
M  END
>  <minimizedAffinity>  (1) 
-6.33999395

>  <minimizedRMSD>  (1) 
0.950428665

$$$$
