
     RDKit          3D

 36 39  0  0  0  0  0  0  0  0999 V2000
   45.7590   34.7610   43.7890 C   0  0  0  0  0  0  0  0  0  0  0  0
   46.9280   34.2660   43.2830 C   0  0  0  0  0  0  0  0  0  0  0  0
   47.5050   33.2100   43.9970 C   0  0  0  0  0  0  0  0  0  0  0  0
   46.8860   32.7450   45.1250 N   0  0  0  0  0  0  0  0  0  0  0  0
   45.7330   33.2840   45.5590 C   0  0  0  0  0  0  0  0  0  0  0  0
   45.1750   34.2980   44.8810 N   0  0  0  0  0  0  0  0  0  0  0  0
   47.5950   34.6830   42.1050 N   0  0  0  0  0  0  0  0  0  0  0  0
   48.4830   35.6440   41.8960 C   0  0  0  0  0  0  0  0  0  0  0  0
   48.8260   35.6260   40.5660 N   0  0  0  0  0  0  0  0  0  0  0  0
   48.1510   34.6510   39.9430 C   0  0  0  0  0  0  0  0  0  0  0  0
   48.0900   34.1850   38.6580 C   0  0  0  0  0  0  0  0  0  0  0  0
   47.2840   33.1610   38.3440 N   0  0  0  0  0  0  0  0  0  0  0  0
   46.5030   32.5530   39.2800 C   0  0  0  0  0  0  0  0  0  0  0  0
   46.5670   33.0170   40.5400 N   0  0  0  0  0  0  0  0  0  0  0  0
   47.3590   34.0390   40.9120 C   0  0  0  0  0  0  0  0  0  0  0  0
   48.9040   34.7720   37.6430 N   0  0  0  0  0  0  0  0  0  0  0  0
   45.1420   35.7740   42.9940 C   0  0  0  0  0  0  0  0  0  0  0  0
   45.2250   37.0020   43.0670 O   0  0  0  0  0  0  0  0  0  0  0  0
   44.2930   35.4750   41.9450 O   0  0  0  0  0  0  0  0  0  0  0  0
   43.5580   34.3530   41.7440 C   0  0  0  0  0  0  0  0  0  0  0  0
   42.3310   35.0010   41.0310 C   0  0  0  0  0  0  0  0  0  0  0  0
   41.2540   35.6000   41.6010 C   0  0  0  0  0  0  0  0  0  0  0  0
   40.3920   36.0450   40.6370 C   0  0  0  0  0  0  0  0  0  0  0  0
   40.9840   35.6930   39.4680 C   0  0  0  0  0  0  0  0  0  0  0  0
   42.0980   35.0940   39.7210 O   0  0  0  0  0  0  0  0  0  0  0  0
   48.4475   32.7579   43.6546 H   0  0  0  0  0  0  0  0  0  0  0  0
   45.2491   32.8947   46.4669 H   0  0  0  0  0  0  0  0  0  0  0  0
   48.8769   36.3357   42.6552 H   0  0  0  0  0  0  0  0  0  0  0  0
   45.8441   31.7131   39.0145 H   0  0  0  0  0  0  0  0  0  0  0  0
   48.8562   34.4193   36.6764 H   0  0  0  0  0  0  0  0  0  0  0  0
   49.5392   35.5483   37.8771 H   0  0  0  0  0  0  0  0  0  0  0  0
   44.0766   33.6285   41.0989 H   0  0  0  0  0  0  0  0  0  0  0  0
   43.3297   33.7651   42.6453 H   0  0  0  0  0  0  0  0  0  0  0  0
   41.0971   35.7115   42.6840 H   0  0  0  0  0  0  0  0  0  0  0  0
   39.4354   36.5695   40.7775 H   0  0  0  0  0  0  0  0  0  0  0  0
   40.5784   35.8875   38.4642 H   0  0  0  0  0  0  0  0  0  0  0  0
  1  6  2  0
  2  1  1  0
  2  3  2  0
  3  4  1  0
  4  5  2  0
  6  5  1  0
  7  2  1  0
  8  7  1  0
  9  8  2  0
 10  9  1  0
 10 15  2  0
 11 10  1  0
 12 11  2  0
 12 13  1  0
 13 14  2  0
 14 15  1  0
 15  7  1  0
 16 11  1  0
 17 18  2  0
 17  1  1  0
 19 17  1  0
 20 19  1  0
 21 22  2  0
 21 20  1  0
 23 22  1  0
 24 25  1  0
 24 23  2  0
 25 21  1  0
  3 26  1  0
  5 27  1  0
  8 28  1  0
 13 29  1  0
 16 30  1  0
 16 31  1  0
 20 32  1  0
 20 33  1  0
 22 34  1  0
 23 35  1  0
 24 36  1  0
M  ISO  8  26  14  27  14  28  14  29  14  32   8  33   8  34  14  35  14
M  ISO  1  36  14
M  END
>  <minimizedAffinity>  (1) 
-6.43620443

>  <minimizedRMSD>  (1) 
0.954584301

$$$$
