
     RDKit          3D

 35 38  0  0  0  0  0  0  0  0999 V2000
   45.7840   34.7110   43.8120 C   0  0  0  0  0  0  0  0  0  0  0  0
   46.9560   34.2310   43.3020 C   0  0  0  0  0  0  0  0  0  0  0  0
   47.5370   33.1800   44.0120 C   0  0  0  0  0  0  0  0  0  0  0  0
   46.9200   32.7080   45.1400 N   0  0  0  0  0  0  0  0  0  0  0  0
   45.7620   33.2390   45.5740 C   0  0  0  0  0  0  0  0  0  0  0  0
   45.1900   34.2520   44.9010 N   0  0  0  0  0  0  0  0  0  0  0  0
   47.6160   34.6540   42.1220 N   0  0  0  0  0  0  0  0  0  0  0  0
   48.4890   35.6320   41.9160 C   0  0  0  0  0  0  0  0  0  0  0  0
   48.8230   35.6290   40.5850 N   0  0  0  0  0  0  0  0  0  0  0  0
   48.1510   34.6380   39.9570 C   0  0  0  0  0  0  0  0  0  0  0  0
   48.0990   34.1850   38.6630 C   0  0  0  0  0  0  0  0  0  0  0  0
   47.3020   33.1420   38.3600 N   0  0  0  0  0  0  0  0  0  0  0  0
   46.5450   32.5200   39.2960 C   0  0  0  0  0  0  0  0  0  0  0  0
   46.6100   32.9810   40.5590 N   0  0  0  0  0  0  0  0  0  0  0  0
   47.3810   34.0130   40.9270 C   0  0  0  0  0  0  0  0  0  0  0  0
   48.8640   34.8040   37.6510 N   0  0  0  0  0  0  0  0  0  0  0  0
   45.1520   35.7160   43.0170 C   0  0  0  0  0  0  0  0  0  0  0  0
   45.2370   36.9550   43.0760 O   0  0  0  0  0  0  0  0  0  0  0  0
   44.2790   35.4120   41.9870 O   0  0  0  0  0  0  0  0  0  0  0  0
   43.5830   34.2910   41.7400 C   0  0  0  0  0  0  0  0  0  0  0  0
   42.4290   34.9490   40.9780 N   0  0  0  0  0  0  0  0  0  0  0  0
   42.1280   35.1040   39.6810 C   0  0  0  0  0  0  0  0  0  0  0  0
   40.9860   35.7880   39.5580 N   0  0  0  0  0  0  0  0  0  0  0  0
   40.5450   36.0790   40.7900 C   0  0  0  0  0  0  0  0  0  0  0  0
   41.4480   35.5520   41.6260 N   0  0  0  0  0  0  0  0  0  0  0  0
   48.4823   32.7343   43.6689 H   0  0  0  0  0  0  0  0  0  0  0  0
   45.2827   32.8431   46.4815 H   0  0  0  0  0  0  0  0  0  0  0  0
   48.8768   36.3237   42.6784 H   0  0  0  0  0  0  0  0  0  0  0  0
   45.9002   31.6685   39.0331 H   0  0  0  0  0  0  0  0  0  0  0  0
   48.8165   34.4548   36.6832 H   0  0  0  0  0  0  0  0  0  0  0  0
   49.4697   35.6049   37.8804 H   0  0  0  0  0  0  0  0  0  0  0  0
   44.1434   33.5764   41.1193 H   0  0  0  0  0  0  0  0  0  0  0  0
   43.3102   33.6795   42.6128 H   0  0  0  0  0  0  0  0  0  0  0  0
   42.7309   34.7248   38.8427 H   0  0  0  0  0  0  0  0  0  0  0  0
   39.6336   36.6337   41.0575 H   0  0  0  0  0  0  0  0  0  0  0  0
  1  6  2  0
  2  1  1  0
  2  3  2  0
  3  4  1  0
  4  5  2  0
  6  5  1  0
  7  2  1  0
  8  7  1  0
  9  8  2  0
 10  9  1  0
 10 15  2  0
 11 10  1  0
 12 11  2  0
 12 13  1  0
 13 14  2  0
 14 15  1  0
 15  7  1  0
 16 11  1  0
 17 18  2  0
 17  1  1  0
 19 17  1  0
 20 19  1  0
 21 25  1  0
 21 20  1  0
 22 21  1  0
 23 22  2  0
 23 24  1  0
 24 25  2  0
  3 26  1  0
  5 27  1  0
  8 28  1  0
 13 29  1  0
 16 30  1  0
 16 31  1  0
 20 32  1  0
 20 33  1  0
 22 34  1  0
 24 35  1  0
M  ISO  8  26  14  27  14  28  14  29  14  32   8  33   8  34  14  35  14
M  END
>  <minimizedAffinity>  (1) 
-6.20644855

>  <minimizedRMSD>  (1) 
0.805966914

$$$$
