
     RDKit          3D

 33 35  0  0  1  0  0  0  0  0999 V2000
   44.7090   34.9060   43.4690 C   0  0  1  0  0  0  0  0  0  0  0  0
   46.1110   34.4730   43.2330 C   0  0  0  0  0  0  0  0  0  0  0  0
   46.8480   35.2650   42.3180 C   0  0  0  0  0  0  0  0  0  0  0  0
   48.1730   34.9320   42.0390 C   0  0  0  0  0  0  0  0  0  0  0  0
   48.6860   33.8360   42.6840 N   0  0  0  0  0  0  0  0  0  0  0  0
   47.9550   33.0970   43.5560 C   0  0  0  0  0  0  0  0  0  0  0  0
   46.6790   33.4180   43.8230 N   0  0  0  0  0  0  0  0  0  0  0  0
   44.5940   35.8900   44.6130 C   0  0  0  0  0  0  0  0  0  0  0  0
   44.0900   35.4770   42.2060 C   0  0  0  0  0  0  0  0  0  0  0  0
   43.3050   34.4930   41.4560 C   0  0  0  0  0  0  0  0  0  0  0  0
   43.4710   33.1970   41.0170 C   0  0  0  0  0  0  0  0  0  0  0  0
   42.4030   32.7410   40.3500 N   0  0  0  0  0  0  0  0  0  0  0  0
   41.5140   33.7510   40.3470 C   0  0  0  0  0  0  0  0  0  0  0  0
   40.2500   33.8250   39.8000 C   0  0  0  0  0  0  0  0  0  0  0  0
   39.4470   34.9380   39.8760 C   0  0  0  0  0  0  0  0  0  0  0  0
   39.9630   36.0360   40.5470 C   0  0  0  0  0  0  0  0  0  0  0  0
   41.2230   35.9670   41.0940 C   0  0  0  0  0  0  0  0  0  0  0  0
   42.0350   34.8560   41.0220 C   0  0  0  0  0  0  0  0  0  0  0  0
   44.1461   34.0058   43.7567 H   0  0  0  0  0  0  0  0  0  0  0  0
   46.3796   36.1339   41.8326 H   0  0  0  0  0  0  0  0  0  0  0  0
   48.7785   35.5210   41.3344 H   0  0  0  0  0  0  0  0  0  0  0  0
   48.4122   32.2264   44.0490 H   0  0  0  0  0  0  0  0  0  0  0  0
   44.6571   35.3497   45.5691 H   0  0  0  0  0  0  0  0  0  0  0  0
   45.4127   36.6220   44.5507 H   0  0  0  0  0  0  0  0  0  0  0  0
   43.6286   36.4135   44.5507 H   0  0  0  0  0  0  0  0  0  0  0  0
   43.4303   36.3116   42.4857 H   0  0  0  0  0  0  0  0  0  0  0  0
   44.9143   35.8043   41.5553 H   0  0  0  0  0  0  0  0  0  0  0  0
   44.3798   32.6032   41.1948 H   0  0  0  0  0  0  0  0  0  0  0  0
   42.2862   31.8093   39.9266 H   0  0  0  0  0  0  0  0  0  0  0  0
   39.8618   32.9415   39.2720 H   0  0  0  0  0  0  0  0  0  0  0  0
   38.4434   34.9566   39.4261 H   0  0  0  0  0  0  0  0  0  0  0  0
   39.3684   36.9566   40.6413 H   0  0  0  0  0  0  0  0  0  0  0  0
   41.6061   36.8531   41.6213 H   0  0  0  0  0  0  0  0  0  0  0  0
  1  8  1  0
  2  1  1  0
  2  7  1  0
  3  2  2  0
  4  3  1  0
  4  5  2  0
  5  6  1  0
  6  7  2  0
  9  1  1  0
 10  9  1  0
 11 10  2  0
 12 11  1  0
 13 12  1  0
 13 18  2  0
 14 15  2  0
 14 13  1  0
 15 16  1  0
 16 17  2  0
 18 17  1  0
 18 10  1  0
  1 19  1  1
  3 20  1  0
  4 21  1  0
  6 22  1  0
  8 23  1  0
  8 24  1  0
  8 25  1  0
  9 26  1  0
  9 27  1  0
 11 28  1  0
 12 29  1  0
 14 30  1  0
 15 31  1  0
 16 32  1  0
 17 33  1  0
M  ISO  8  19   8  20  14  21  14  22  14  23   8  24   8  25   8  26   8
M  ISO  7  27   8  28  14  29   9  30  14  31  14  32  14  33  14
M  END
>  <minimizedAffinity>  (1) 
-5.34080982

>  <minimizedRMSD>  (1) 
2.43616295

$$$$
