
     RDKit          3D

 26 27  0  0  1  0  0  0  0  0999 V2000
   44.5750   35.5900   43.2730 C   0  0  1  0  0  0  0  0  0  0  0  0
   45.3590   34.6310   44.0970 C   0  0  0  0  0  0  0  0  0  0  0  0
   46.4350   34.0030   43.4350 C   0  0  0  0  0  0  0  0  0  0  0  0
   47.2310   33.0950   44.1380 C   0  0  0  0  0  0  0  0  0  0  0  0
   46.9000   32.8720   45.4570 N   0  0  0  0  0  0  0  0  0  0  0  0
   45.8710   33.4850   46.0550 C   0  0  0  0  0  0  0  0  0  0  0  0
   45.1020   34.3610   45.3800 N   0  0  0  0  0  0  0  0  0  0  0  0
   45.1370   36.9940   43.3300 C   0  0  0  0  0  0  0  0  0  0  0  0
   44.4450   35.1050   41.8460 C   0  0  0  0  0  0  0  0  0  0  0  0
   43.1450   35.2070   41.2850 N   0  0  0  0  0  0  0  0  0  0  0  0
   41.9140   35.4630   41.7330 C   0  0  0  0  0  0  0  0  0  0  0  0
   40.9560   35.4530   40.7410 C   0  0  0  0  0  0  0  0  0  0  0  0
   41.6440   35.1720   39.6130 N   0  0  0  0  0  0  0  0  0  0  0  0
   42.9280   35.0320   39.9620 C   0  0  0  0  0  0  0  0  0  0  0  0
   43.5665   35.6365   43.7097 H   0  0  0  0  0  0  0  0  0  0  0  0
   46.6447   34.2255   42.3783 H   0  0  0  0  0  0  0  0  0  0  0  0
   48.0803   32.5832   43.6619 H   0  0  0  0  0  0  0  0  0  0  0  0
   45.6507   33.2706   47.1112 H   0  0  0  0  0  0  0  0  0  0  0  0
   45.2586   37.2979   44.3802 H   0  0  0  0  0  0  0  0  0  0  0  0
   46.1142   37.0185   42.8256 H   0  0  0  0  0  0  0  0  0  0  0  0
   44.4466   37.6861   42.8256 H   0  0  0  0  0  0  0  0  0  0  0  0
   45.1313   35.6968   41.2224 H   0  0  0  0  0  0  0  0  0  0  0  0
   44.6827   34.0312   41.8677 H   0  0  0  0  0  0  0  0  0  0  0  0
   41.6859   35.6625   42.7904 H   0  0  0  0  0  0  0  0  0  0  0  0
   39.8758   35.6331   40.8448 H   0  0  0  0  0  0  0  0  0  0  0  0
   43.7277   34.7978   39.2439 H   0  0  0  0  0  0  0  0  0  0  0  0
  1  8  1  0
  1  2  1  0
  2  7  1  0
  3  2  2  0
  3  4  1  0
  4  5  2  0
  5  6  1  0
  7  6  2  0
  9  1  1  0
 10 11  1  0
 10  9  1  0
 12 11  2  0
 13 14  2  0
 13 12  1  0
 14 10  1  0
  1 15  1  1
  3 16  1  0
  4 17  1  0
  6 18  1  0
  8 19  1  0
  8 20  1  0
  8 21  1  0
  9 22  1  0
  9 23  1  0
 11 24  1  0
 12 25  1  0
 14 26  1  0
M  ISO  8  15   8  16  14  17  14  18  14  19   8  20   8  21   8  22   8
M  ISO  4  23   8  24  14  25  14  26  14
M  END
>  <minimizedAffinity>  (1) 
-3.92253566

>  <minimizedRMSD>  (1) 
1.64681387

$$$$
