
     RDKit          3D

 39 41  0  0  1  0  0  0  0  0999 V2000
   44.4780   34.9100   42.4230 C   0  0  2  0  0  0  0  0  0  0  0  0
   45.7340   34.7390   41.7380 N   0  0  0  0  0  0  0  0  0  0  0  0
   47.0000   35.1860   42.0050 C   0  0  0  0  0  0  0  0  0  0  0  0
   47.8900   34.8390   41.0620 N   0  0  0  0  0  0  0  0  0  0  0  0
   47.2080   34.1420   40.1410 C   0  0  0  0  0  0  0  0  0  0  0  0
   47.6230   33.5450   38.9590 C   0  0  0  0  0  0  0  0  0  0  0  0
   46.7040   32.8910   38.2060 N   0  0  0  0  0  0  0  0  0  0  0  0
   45.4170   32.8390   38.6200 C   0  0  0  0  0  0  0  0  0  0  0  0
   45.0110   33.4160   39.7660 N   0  0  0  0  0  0  0  0  0  0  0  0
   45.9140   34.0780   40.5400 C   0  0  0  0  0  0  0  0  0  0  0  0
   48.9970   33.6540   38.6060 N   0  0  0  0  0  0  0  0  0  0  0  0
   43.6180   35.5310   41.4540 N   0  0  0  0  0  0  0  0  0  0  0  0
   42.2090   35.2740   41.4830 C   0  0  0  0  0  0  0  0  0  0  0  0
   41.7640   34.0980   41.8760 N   0  0  0  0  0  0  0  0  0  0  0  0
   41.1440   36.1550   41.1070 N   0  0  0  0  0  0  0  0  0  0  0  0
   42.3810   33.3200   42.1750 H   0  0  0  0  0  0  0  0  0  0  0  0
   44.4660   35.5660   43.7560 C   0  0  1  0  0  0  0  0  0  0  0  0
   44.9060   34.6950   44.8580 C   0  0  0  0  0  0  0  0  0  0  0  0
   45.6570   33.5990   44.5340 C   0  0  0  0  0  0  0  0  0  0  0  0
   46.0520   32.7070   45.5160 C   0  0  0  0  0  0  0  0  0  0  0  0
   45.6470   32.9940   46.8160 N   0  0  0  0  0  0  0  0  0  0  0  0
   44.9170   34.0690   47.1180 C   0  0  0  0  0  0  0  0  0  0  0  0
   44.5650   34.8860   46.1450 N   0  0  0  0  0  0  0  0  0  0  0  0
   45.2720   36.8680   43.7370 C   0  0  0  0  0  0  0  0  0  0  0  0
   44.1306   33.9202   42.7542 H   0  0  0  0  0  0  0  0  0  0  0  0
   47.2611   35.7695   42.9002 H   0  0  0  0  0  0  0  0  0  0  0  0
   44.6792   32.3083   38.0003 H   0  0  0  0  0  0  0  0  0  0  0  0
   49.3409   33.2233   37.7359 H   0  0  0  0  0  0  0  0  0  0  0  0
   49.6478   34.1636   39.2206 H   0  0  0  0  0  0  0  0  0  0  0  0
   44.0136   36.1594   40.7402 H   0  0  0  0  0  0  0  0  0  0  0  0
   40.1659   35.8401   41.1777 H   0  0  0  0  0  0  0  0  0  0  0  0
   41.3563   37.1034   40.7660 H   0  0  0  0  0  0  0  0  0  0  0  0
   43.4102   35.7979   43.9599 H   0  0  0  0  0  0  0  0  0  0  0  0
   45.9487   33.4254   43.4877 H   0  0  0  0  0  0  0  0  0  0  0  0
   46.6548   31.8174   45.2809 H   0  0  0  0  0  0  0  0  0  0  0  0
   44.6152   34.2694   48.1566 H   0  0  0  0  0  0  0  0  0  0  0  0
   45.4718   37.1907   44.7695 H   0  0  0  0  0  0  0  0  0  0  0  0
   46.2253   36.7015   43.2139 H   0  0  0  0  0  0  0  0  0  0  0  0
   44.6979   37.6470   43.2139 H   0  0  0  0  0  0  0  0  0  0  0  0
  1 17  1  0
  2  3  1  0
  2  1  1  0
  4  3  2  0
  5 10  2  0
  5  4  1  0
  6  5  1  0
  7  8  1  0
  7  6  2  0
  8  9  2  0
  9 10  1  0
 10  2  1  0
 11  6  1  0
 12 13  1  0
 12  1  1  0
 13 14  2  0
 14 16  1  0
 15 13  1  0
 17 18  1  0
 18 23  1  0
 19 18  2  0
 19 20  1  0
 20 21  2  0
 21 22  1  0
 23 22  2  0
 24 17  1  0
  1 25  1  1
  3 26  1  0
  8 27  1  0
 11 28  1  0
 11 29  1  0
 12 30  1  0
 15 31  1  0
 15 32  1  0
 17 33  1  1
 19 34  1  0
 20 35  1  0
 22 36  1  0
 24 37  1  0
 24 38  1  0
 24 39  1  0
M  ISO  8  25   8  26  14  27  14  33   8  34  14  35  14  36  14  37   8
M  ISO  2  38   8  39   8
M  END
>  <minimizedAffinity>  (1) 
-5.50435305

>  <minimizedRMSD>  (1) 
1.20034683

$$$$
