
     RDKit          3D

 42 43  0  0  1  0  0  0  0  0999 V2000
   44.7570   34.7380   42.1810 C   0  0  1  0  0  0  0  0  0  0  0  0
   43.7210   35.5680   41.5710 N   0  0  0  0  0  0  0  0  0  0  0  0
   42.3790   35.1530   41.5910 C   0  0  0  0  0  0  0  0  0  0  0  0
   42.0770   33.8840   41.6480 N   0  0  0  0  0  0  0  0  0  0  0  0
   41.2380   36.0150   41.5510 N   0  0  0  0  0  0  0  0  0  0  0  0
   42.7230   33.1080   41.7090 H   0  0  0  0  0  0  0  0  0  0  0  0
   45.9600   34.8740   41.3560 C   0  0  0  0  0  0  0  0  0  0  0  0
   47.0870   35.1930   42.4030 C   0  0  0  0  0  0  0  0  0  0  0  0
   48.3840   35.4410   41.7050 C   0  0  0  0  0  0  0  0  0  0  0  0
   48.8300   34.3850   40.7550 C   0  0  0  0  0  0  0  0  0  0  0  0
   47.6790   34.1580   39.8050 C   0  0  0  0  0  0  0  0  0  0  0  0
   46.4670   33.7150   40.6100 C   0  0  0  0  0  0  0  0  0  0  0  0
   44.6470   34.7580   43.6350 C   0  0  1  0  0  0  0  0  0  0  0  0
   45.3550   33.7010   44.3860 C   0  0  0  0  0  0  0  0  0  0  0  0
   45.2240   32.4630   43.8010 C   0  0  0  0  0  0  0  0  0  0  0  0
   45.7760   31.3440   44.4030 C   0  0  0  0  0  0  0  0  0  0  0  0
   46.4550   31.5670   45.6010 N   0  0  0  0  0  0  0  0  0  0  0  0
   46.5760   32.7790   46.1500 C   0  0  0  0  0  0  0  0  0  0  0  0
   46.0280   33.8140   45.5380 N   0  0  0  0  0  0  0  0  0  0  0  0
   44.7900   36.1090   44.3130 C   0  0  0  0  0  0  0  0  0  0  0  0
   44.6975   33.6399   42.1543 H   0  0  0  0  0  0  0  0  0  0  0  0
   43.9754   36.4607   41.1246 H   0  0  0  0  0  0  0  0  0  0  0  0
   40.2892   35.6147   41.5702 H   0  0  0  0  0  0  0  0  0  0  0  0
   41.3653   37.0360   41.5030 H   0  0  0  0  0  0  0  0  0  0  0  0
   45.6996   35.6063   40.5776 H   0  0  0  0  0  0  0  0  0  0  0  0
   46.8065   36.0882   42.9775 H   0  0  0  0  0  0  0  0  0  0  0  0
   47.2021   34.3335   43.0797 H   0  0  0  0  0  0  0  0  0  0  0  0
   48.2879   36.3808   41.1416 H   0  0  0  0  0  0  0  0  0  0  0  0
   49.1459   35.4653   42.4980 H   0  0  0  0  0  0  0  0  0  0  0  0
   49.7198   34.7208   40.2023 H   0  0  0  0  0  0  0  0  0  0  0  0
   49.1011   33.4594   41.2838 H   0  0  0  0  0  0  0  0  0  0  0  0
   47.9468   33.3772   39.0780 H   0  0  0  0  0  0  0  0  0  0  0  0
   47.4508   35.0868   39.2617 H   0  0  0  0  0  0  0  0  0  0  0  0
   45.6870   33.3392   39.9315 H   0  0  0  0  0  0  0  0  0  0  0  0
   46.7475   32.9100   41.3052 H   0  0  0  0  0  0  0  0  0  0  0  0
   43.5813   34.4942   43.7043 H   0  0  0  0  0  0  0  0  0  0  0  0
   44.6786   32.3610   42.8512 H   0  0  0  0  0  0  0  0  0  0  0  0
   45.6844   30.3401   43.9628 H   0  0  0  0  0  0  0  0  0  0  0  0
   47.1224   32.9130   47.0952 H   0  0  0  0  0  0  0  0  0  0  0  0
   44.7758   35.9747   45.4047 H   0  0  0  0  0  0  0  0  0  0  0  0
   45.7421   36.5710   44.0128 H   0  0  0  0  0  0  0  0  0  0  0  0
   43.9558   36.7601   44.0128 H   0  0  0  0  0  0  0  0  0  0  0  0
  1 13  1  0
  2  3  1  0
  2  1  1  0
  3  4  2  0
  4  6  1  0
  5  3  1  0
  7  1  1  0
  7  8  1  0
  9  8  1  0
 10  9  1  0
 11 12  1  0
 11 10  1  0
 12  7  1  0
 13 20  1  0
 13 14  1  0
 14 19  1  0
 15 14  2  0
 15 16  1  0
 16 17  2  0
 17 18  1  0
 19 18  2  0
  1 21  1  6
  2 22  1  0
  5 23  1  0
  5 24  1  0
  7 25  1  0
  8 26  1  0
  8 27  1  0
  9 28  1  0
  9 29  1  0
 10 30  1  0
 10 31  1  0
 11 32  1  0
 11 33  1  0
 12 34  1  0
 12 35  1  0
 13 36  1  6
 15 37  1  0
 16 38  1  0
 18 39  1  0
 20 40  1  0
 20 41  1  0
 20 42  1  0
M  ISO  8  21   8  25  13  26  13  27  13  28  13  29  13  30  13  31  13
M  ISO  8  32  13  33  13  34  13  35  13  36   8  37  14  38  14  39  14
M  ISO  3  40   8  41   8  42   8
M  END
>  <minimizedAffinity>  (1) 
-5.35042238

>  <minimizedRMSD>  (1) 
1.13452184

$$$$
