
     RDKit          3D

 33 34  0  0  1  0  0  0  0  0999 V2000
   44.6010   34.4750   43.8080 C   0  0  1  0  0  0  0  0  0  0  0  0
   45.4500   33.5020   44.5130 C   0  0  0  0  0  0  0  0  0  0  0  0
   45.5570   32.2500   43.9860 C   0  0  0  0  0  0  0  0  0  0  0  0
   46.2830   31.2740   44.6500 C   0  0  0  0  0  0  0  0  0  0  0  0
   46.8810   31.6450   45.8530 N   0  0  0  0  0  0  0  0  0  0  0  0
   46.7660   32.8770   46.3500 C   0  0  0  0  0  0  0  0  0  0  0  0
   46.0630   33.7700   45.6810 N   0  0  0  0  0  0  0  0  0  0  0  0
   44.9170   35.9020   44.2820 C   0  0  0  0  0  0  0  0  0  0  0  0
   44.6950   34.3860   42.3180 C   0  0  1  0  0  0  0  0  0  0  0  0
   43.8990   35.3740   41.6330 N   0  0  0  0  0  0  0  0  0  0  0  0
   42.4720   35.2050   41.6070 C   0  0  0  0  0  0  0  0  0  0  0  0
   41.9480   33.9920   41.5900 N   0  0  0  0  0  0  0  0  0  0  0  0
   41.4610   36.2220   41.5820 N   0  0  0  0  0  0  0  0  0  0  0  0
   42.4990   33.1220   41.6140 H   0  0  0  0  0  0  0  0  0  0  0  0
   46.0680   34.5140   41.7130 C   0  0  0  0  0  0  0  0  0  0  0  0
   47.1470   35.2330   42.0280 C   0  0  0  0  0  0  0  0  0  0  0  0
   48.2350   35.2060   41.2300 C   0  0  0  0  0  0  0  0  0  0  0  0
   48.2030   34.4290   40.0990 C   0  0  0  0  0  0  0  0  0  0  0  0
   46.5820   33.7020   40.1450 S   0  0  0  0  0  0  0  0  0  0  0  0
   43.5622   34.2196   44.0642 H   0  0  0  0  0  0  0  0  0  0  0  0
   45.0657   32.0133   43.0307 H   0  0  0  0  0  0  0  0  0  0  0  0
   46.3825   30.2554   44.2469 H   0  0  0  0  0  0  0  0  0  0  0  0
   47.2491   33.1438   47.3015 H   0  0  0  0  0  0  0  0  0  0  0  0
   44.9232   35.9302   45.3816 H   0  0  0  0  0  0  0  0  0  0  0  0
   45.9039   36.2045   43.9019 H   0  0  0  0  0  0  0  0  0  0  0  0
   44.1501   36.5929   43.9019 H   0  0  0  0  0  0  0  0  0  0  0  0
   44.3278   33.3597   42.1703 H   0  0  0  0  0  0  0  0  0  0  0  0
   44.3426   36.1819   41.1731 H   0  0  0  0  0  0  0  0  0  0  0  0
   40.4655   35.9582   41.5647 H   0  0  0  0  0  0  0  0  0  0  0  0
   41.7305   37.2161   41.5813 H   0  0  0  0  0  0  0  0  0  0  0  0
   47.1497   35.8487   42.9395 H   0  0  0  0  0  0  0  0  0  0  0  0
   49.1295   35.7949   41.4809 H   0  0  0  0  0  0  0  0  0  0  0  0
   48.9916   34.2897   39.3449 H   0  0  0  0  0  0  0  0  0  0  0  0
  1  8  1  0
  1  2  1  0
  2  7  1  0
  3  2  2  0
  3  4  1  0
  4  5  2  0
  5  6  1  0
  7  6  2  0
  9  1  1  0
 10  9  1  0
 11 10  1  0
 12 11  2  0
 12 14  1  0
 13 11  1  0
 15 16  2  0
 15  9  1  0
 17 16  1  0
 18 19  1  0
 18 17  2  0
 19 15  1  0
  1 20  1  6
  3 21  1  0
  4 22  1  0
  6 23  1  0
  8 24  1  0
  8 25  1  0
  8 26  1  0
  9 27  1  6
 10 28  1  0
 13 29  1  0
 13 30  1  0
 16 31  1  0
 17 32  1  0
 18 33  1  0
M  ISO  8  20   8  21  14  22  14  23  14  24   8  25   8  26   8  27   8
M  ISO  3  31  14  32  14  33  14
M  END
>  <minimizedAffinity>  (1) 
-4.88933372

>  <minimizedRMSD>  (1) 
1.17291927

$$$$
