
     RDKit          3D

 27 29  0  0  0  0  0  0  0  0999 V2000
   46.8220   32.9260   44.3280 C   0  0  0  0  0  0  0  0  0  0  0  0
   47.8650   32.5140   43.5360 N   0  0  0  0  0  0  0  0  0  0  0  0
   48.2730   33.2450   42.4750 C   0  0  0  0  0  0  0  0  0  0  0  0
   47.6730   34.4280   42.1370 N   0  0  0  0  0  0  0  0  0  0  0  0
   46.6470   34.8540   42.9010 C   0  0  0  0  0  0  0  0  0  0  0  0
   45.9510   36.0250   42.6780 C   0  0  0  0  0  0  0  0  0  0  0  0
   44.9040   36.4320   43.4780 C   0  0  0  0  0  0  0  0  0  0  0  0
   44.5180   35.6470   44.5610 C   0  0  0  0  0  0  0  0  0  0  0  0
   45.1890   34.4800   44.8070 C   0  0  0  0  0  0  0  0  0  0  0  0
   46.2200   34.1140   43.9880 C   0  0  0  0  0  0  0  0  0  0  0  0
   45.7780   30.8750   44.9940 C   0  0  0  0  0  0  0  0  0  0  0  0
   46.5410   32.0060   45.4090 C   0  0  0  0  0  0  0  0  0  0  0  0
   46.8870   32.0370   46.7490 C   0  0  0  0  0  0  0  0  0  0  0  0
   46.5070   31.0400   47.5750 N   0  0  0  0  0  0  0  0  0  0  0  0
   45.7810   29.9810   47.1400 C   0  0  0  0  0  0  0  0  0  0  0  0
   45.4100   29.8840   45.8530 N   0  0  0  0  0  0  0  0  0  0  0  0
   45.4000   28.9330   48.0830 C   0  0  0  0  0  0  0  0  0  0  0  0
   45.4340   27.7300   47.7790 O   0  0  0  0  0  0  0  0  0  0  0  0
   44.9820   29.2700   49.3660 O   0  0  0  0  0  0  0  0  0  0  0  0
   49.1119   32.8785   41.8651 H   0  0  0  0  0  0  0  0  0  0  0  0
   46.2432   36.6591   41.8280 H   0  0  0  0  0  0  0  0  0  0  0  0
   44.3763   37.3725   43.2614 H   0  0  0  0  0  0  0  0  0  0  0  0
   43.6862   35.9601   45.2092 H   0  0  0  0  0  0  0  0  0  0  0  0
   44.9012   33.8425   45.6560 H   0  0  0  0  0  0  0  0  0  0  0  0
   45.4749   30.8000   43.9393 H   0  0  0  0  0  0  0  0  0  0  0  0
   47.4750   32.8792   47.1427 H   0  0  0  0  0  0  0  0  0  0  0  0
   44.7238   28.5594   50.0051 H   0  0  0  0  0  0  0  0  0  0  0  0
  1 12  1  0
  2  1  2  0
  3  2  1  0
  4  3  2  0
  4  5  1  0
  5 10  2  0
  6  5  1  0
  6  7  2  0
  7  8  1  0
  8  9  2  0
 10  1  1  0
 10  9  1  0
 11 12  2  0
 11 16  1  0
 12 13  1  0
 13 14  2  0
 15 14  1  0
 15 17  1  0
 16 15  2  0
 17 19  1  0
 18 17  2  0
  3 20  1  0
  6 21  1  0
  7 22  1  0
  8 23  1  0
  9 24  1  0
 11 25  1  0
 13 26  1  0
 19 27  1  0
M  ISO  8  20  14  21  14  22  14  23  14  24  14  25  14  26  14  27   3
M  END
>  <minimizedAffinity>  (1) 
-4.89392948

>  <minimizedRMSD>  (1) 
1.37080121

$$$$
