
     RDKit          3D

 33 34  0  0  1  0  0  0  0  0999 V2000
   45.1190   34.1270   41.7140 C   0  0  1  0  0  0  0  0  0  0  0  0
   44.2790   34.5940   40.6620 N   0  0  0  0  0  0  0  0  0  0  0  0
   42.8540   34.5060   40.7770 C   0  0  0  0  0  0  0  0  0  0  0  0
   42.3220   33.4740   41.4070 N   0  0  0  0  0  0  0  0  0  0  0  0
   41.8470   35.3990   40.2810 N   0  0  0  0  0  0  0  0  0  0  0  0
   42.8840   32.7110   41.8310 H   0  0  0  0  0  0  0  0  0  0  0  0
   46.5130   34.5080   41.2990 C   0  0  0  0  0  0  0  0  0  0  0  0
   47.4540   35.1090   42.1480 C   0  0  0  0  0  0  0  0  0  0  0  0
   48.6100   35.3120   41.4560 C   0  0  0  0  0  0  0  0  0  0  0  0
   48.3570   34.8340   40.2060 C   0  0  0  0  0  0  0  0  0  0  0  0
   47.1440   34.3780   40.1450 O   0  0  0  0  0  0  0  0  0  0  0  0
   44.7470   34.6110   43.0880 C   0  0  1  0  0  0  0  0  0  0  0  0
   45.2700   33.7420   44.1530 C   0  0  0  0  0  0  0  0  0  0  0  0
   45.5380   32.4280   43.8890 C   0  0  0  0  0  0  0  0  0  0  0  0
   45.9570   31.5930   44.9100 C   0  0  0  0  0  0  0  0  0  0  0  0
   46.0850   32.1460   46.1690 N   0  0  0  0  0  0  0  0  0  0  0  0
   45.8220   33.4310   46.4150 C   0  0  0  0  0  0  0  0  0  0  0  0
   45.4260   34.1930   45.4140 N   0  0  0  0  0  0  0  0  0  0  0  0
   45.3250   36.0390   43.2390 C   0  0  0  0  0  0  0  0  0  0  0  0
   45.0103   33.0391   41.8350 H   0  0  0  0  0  0  0  0  0  0  0  0
   44.6995   34.9977   39.8128 H   0  0  0  0  0  0  0  0  0  0  0  0
   40.8511   35.1955   40.4472 H   0  0  0  0  0  0  0  0  0  0  0  0
   42.1198   36.2438   39.7586 H   0  0  0  0  0  0  0  0  0  0  0  0
   47.2858   35.3737   43.2023 H   0  0  0  0  0  0  0  0  0  0  0  0
   49.5427   35.7629   41.8257 H   0  0  0  0  0  0  0  0  0  0  0  0
   49.0745   34.8345   39.3722 H   0  0  0  0  0  0  0  0  0  0  0  0
   43.6519   34.6001   43.1914 H   0  0  0  0  0  0  0  0  0  0  0  0
   45.4210   32.0354   42.8681 H   0  0  0  0  0  0  0  0  0  0  0  0
   46.1792   30.5315   44.7261 H   0  0  0  0  0  0  0  0  0  0  0  0
   45.9328   33.8447   47.4282 H   0  0  0  0  0  0  0  0  0  0  0  0
   45.4240   36.2835   44.3069 H   0  0  0  0  0  0  0  0  0  0  0  0
   46.3134   36.0872   42.7587 H   0  0  0  0  0  0  0  0  0  0  0  0
   44.6484   36.7611   42.7587 H   0  0  0  0  0  0  0  0  0  0  0  0
  1 12  1  0
  2  3  1  0
  2  1  1  0
  3  4  2  0
  4  6  1  0
  5  3  1  0
  7  1  1  0
  7  8  2  0
  9  8  1  0
 10  9  2  0
 11 10  1  0
 11  7  1  0
 12 19  1  0
 12 13  1  0
 13 18  1  0
 14 13  2  0
 14 15  1  0
 15 16  2  0
 16 17  1  0
 18 17  2  0
  1 20  1  1
  2 21  1  0
  5 22  1  0
  5 23  1  0
  8 24  1  0
  9 25  1  0
 10 26  1  0
 12 27  1  6
 14 28  1  0
 15 29  1  0
 17 30  1  0
 19 31  1  0
 19 32  1  0
 19 33  1  0
M  ISO  8  20   8  24  14  25  14  26  14  27   8  28  14  29  14  30  14
M  ISO  3  31   8  32   8  33   8
M  END
>  <minimizedAffinity>  (1) 
-4.9529047

>  <minimizedRMSD>  (1) 
1.27217352

$$$$
