
     RDKit          3D

 39 40  0  0  1  0  0  0  0  0999 V2000
   43.6880   34.7470   42.5810 C   0  0  1  0  0  0  0  0  0  0  0  0
   42.9790   35.6510   41.7110 N   0  0  0  0  0  0  0  0  0  0  0  0
   41.5460   35.5280   41.5710 C   0  0  0  0  0  0  0  0  0  0  0  0
   40.9780   34.3500   41.6780 N   0  0  0  0  0  0  0  0  0  0  0  0
   40.6050   36.5680   41.3040 N   0  0  0  0  0  0  0  0  0  0  0  0
   41.4840   33.4750   41.8620 H   0  0  0  0  0  0  0  0  0  0  0  0
   44.3510   33.7640   41.7990 N   0  0  0  0  0  0  0  0  0  0  0  0
   44.5910   33.9750   40.4290 C   0  0  0  0  0  0  0  0  0  0  0  0
   44.2430   32.7270   39.5820 C   0  0  0  0  0  0  0  0  0  0  0  0
   44.7930   31.5780   40.0600 O   0  0  0  0  0  0  0  0  0  0  0  0
   44.7700   31.4500   41.4390 C   0  0  0  0  0  0  0  0  0  0  0  0
   43.7600   32.4480   41.9540 C   0  0  0  0  0  0  0  0  0  0  0  0
   44.4990   35.4730   43.6140 C   0  0  1  0  0  0  0  0  0  0  0  0
   45.3430   34.5650   44.4190 C   0  0  0  0  0  0  0  0  0  0  0  0
   46.4600   34.0360   43.8060 C   0  0  0  0  0  0  0  0  0  0  0  0
   47.2600   33.1490   44.5090 C   0  0  0  0  0  0  0  0  0  0  0  0
   46.8870   32.8410   45.8100 N   0  0  0  0  0  0  0  0  0  0  0  0
   45.8010   33.3700   46.3790 C   0  0  0  0  0  0  0  0  0  0  0  0
   45.0580   34.2110   45.6840 N   0  0  0  0  0  0  0  0  0  0  0  0
   45.3190   36.5940   43.0110 C   0  0  0  0  0  0  0  0  0  0  0  0
   42.9893   34.1788   43.2127 H   0  0  0  0  0  0  0  0  0  0  0  0
   43.4901   36.3797   41.1926 H   0  0  0  0  0  0  0  0  0  0  0  0
   40.9282   37.5403   41.1983 H   0  0  0  0  0  0  0  0  0  0  0  0
   39.6030   36.3460   41.2171 H   0  0  0  0  0  0  0  0  0  0  0  0
   43.9756   34.8200   40.0864 H   0  0  0  0  0  0  0  0  0  0  0  0
   45.6628   34.1861   40.2997 H   0  0  0  0  0  0  0  0  0  0  0  0
   44.6086   32.8883   38.5572 H   0  0  0  0  0  0  0  0  0  0  0  0
   43.1506   32.6038   39.6197 H   0  0  0  0  0  0  0  0  0  0  0  0
   44.4706   30.4294   41.7195 H   0  0  0  0  0  0  0  0  0  0  0  0
   45.7648   31.6380   41.8691 H   0  0  0  0  0  0  0  0  0  0  0  0
   43.5429   32.2534   43.0147 H   0  0  0  0  0  0  0  0  0  0  0  0
   42.8139   32.3733   41.3979 H   0  0  0  0  0  0  0  0  0  0  0  0
   43.7719   35.9277   44.3029 H   0  0  0  0  0  0  0  0  0  0  0  0
   46.7125   34.3147   42.7723 H   0  0  0  0  0  0  0  0  0  0  0  0
   48.1573   32.7055   44.0528 H   0  0  0  0  0  0  0  0  0  0  0  0
   45.5294   33.1086   47.4124 H   0  0  0  0  0  0  0  0  0  0  0  0
   45.7614   37.1988   43.8163 H   0  0  0  0  0  0  0  0  0  0  0  0
   46.1206   36.1685   42.3893 H   0  0  0  0  0  0  0  0  0  0  0  0
   44.6707   37.2290   42.3893 H   0  0  0  0  0  0  0  0  0  0  0  0
  1 13  1  0
  2  1  1  0
  3  4  2  0
  3  2  1  0
  4  6  1  0
  5  3  1  0
  7 12  1  0
  7  1  1  0
  8  7  1  0
  9 10  1  0
  9  8  1  0
 10 11  1  0
 11 12  1  0
 13 14  1  0
 14 19  1  0
 15 14  2  0
 15 16  1  0
 16 17  2  0
 17 18  1  0
 19 18  2  0
 20 13  1  0
  1 21  1  1
  2 22  1  0
  5 23  1  0
  5 24  1  0
  8 25  1  0
  8 26  1  0
  9 27  1  0
  9 28  1  0
 11 29  1  0
 11 30  1  0
 12 31  1  0
 12 32  1  0
 13 33  1  1
 15 34  1  0
 16 35  1  0
 18 36  1  0
 20 37  1  0
 20 38  1  0
 20 39  1  0
M  ISO  8  21   8  25  13  26  13  27  13  28  13  29  13  30  13  31  13
M  ISO  8  32  13  33   8  34  14  35  14  36  14  37   8  38   8  39   8
M  END
>  <minimizedAffinity>  (1) 
-4.42750502

>  <minimizedRMSD>  (1) 
2.30553222

$$$$
