
     RDKit          3D

 41 42  0  0  1  0  0  0  0  0999 V2000
   43.8330   34.0970   40.8850 C   0  0  1  0  0  0  0  0  0  0  0  0
   42.8480   35.0380   40.4160 N   0  0  0  0  0  0  0  0  0  0  0  0
   41.6400   35.2510   41.1740 C   0  0  0  0  0  0  0  0  0  0  0  0
   41.1280   34.2700   41.8760 N   0  0  0  0  0  0  0  0  0  0  0  0
   40.8690   36.4520   41.2600 N   0  0  0  0  0  0  0  0  0  0  0  0
   41.5280   33.3210   41.9310 H   0  0  0  0  0  0  0  0  0  0  0  0
   44.0750   33.1140   39.8910 N   0  0  0  0  0  0  0  0  0  0  0  0
   43.8010   33.3460   38.5440 C   0  0  0  0  0  0  0  0  0  0  0  0
   43.1640   32.1350   37.8340 C   0  0  0  0  0  0  0  0  0  0  0  0
   42.0330   31.5690   38.6070 C   0  0  0  0  0  0  0  0  0  0  0  0
   42.3410   31.4030   40.0530 C   0  0  0  0  0  0  0  0  0  0  0  0
   43.7830   31.7620   40.3040 C   0  0  0  0  0  0  0  0  0  0  0  0
   45.0440   34.7940   41.4620 C   0  0  1  0  0  0  0  0  0  0  0  0
   45.0540   34.8030   42.9350 C   0  0  0  0  0  0  0  0  0  0  0  0
   45.5770   33.6950   43.5690 C   0  0  0  0  0  0  0  0  0  0  0  0
   45.5670   33.6340   44.9530 C   0  0  0  0  0  0  0  0  0  0  0  0
   45.0230   34.7140   45.6320 N   0  0  0  0  0  0  0  0  0  0  0  0
   44.5250   35.7760   44.9960 C   0  0  0  0  0  0  0  0  0  0  0  0
   44.5480   35.8040   43.6770 N   0  0  0  0  0  0  0  0  0  0  0  0
   46.3320   34.1990   40.9060 C   0  0  0  0  0  0  0  0  0  0  0  0
   43.4477   33.5332   41.7473 H   0  0  0  0  0  0  0  0  0  0  0  0
   43.0064   35.5576   39.5409 H   0  0  0  0  0  0  0  0  0  0  0  0
   40.0184   36.4775   41.8403 H   0  0  0  0  0  0  0  0  0  0  0  0
   41.1642   37.2917   40.7417 H   0  0  0  0  0  0  0  0  0  0  0  0
   43.1089   34.1978   38.4702 H   0  0  0  0  0  0  0  0  0  0  0  0
   44.7610   33.5476   38.0463 H   0  0  0  0  0  0  0  0  0  0  0  0
   42.7954   32.4549   36.8482 H   0  0  0  0  0  0  0  0  0  0  0  0
   43.9334   31.3548   37.7375 H   0  0  0  0  0  0  0  0  0  0  0  0
   41.1691   32.2427   38.5079 H   0  0  0  0  0  0  0  0  0  0  0  0
   41.8238   30.5692   38.1988 H   0  0  0  0  0  0  0  0  0  0  0  0
   41.6903   32.0637   40.6447 H   0  0  0  0  0  0  0  0  0  0  0  0
   42.1669   30.3575   40.3473 H   0  0  0  0  0  0  0  0  0  0  0  0
   44.4262   31.0701   39.7405 H   0  0  0  0  0  0  0  0  0  0  0  0
   43.9732   31.6843   41.3846 H   0  0  0  0  0  0  0  0  0  0  0  0
   44.9806   35.8459   41.1467 H   0  0  0  0  0  0  0  0  0  0  0  0
   45.9985   32.8668   42.9805 H   0  0  0  0  0  0  0  0  0  0  0  0
   45.9737   32.7650   45.4910 H   0  0  0  0  0  0  0  0  0  0  0  0
   44.1008   36.6172   45.5639 H   0  0  0  0  0  0  0  0  0  0  0  0
   46.9854   33.8971   41.7378 H   0  0  0  0  0  0  0  0  0  0  0  0
   46.0935   33.3198   40.2894 H   0  0  0  0  0  0  0  0  0  0  0  0
   46.8468   34.9505   40.2894 H   0  0  0  0  0  0  0  0  0  0  0  0
  1 13  1  0
  2  1  1  0
  2  3  1  0
  3  5  1  0
  3  4  2  0
  4  6  1  0
  7 12  1  0
  7  1  1  0
  8  7  1  0
  9  8  1  0
  9 10  1  0
 10 11  1  0
 11 12  1  0
 13 14  1  0
 14 15  2  0
 14 19  1  0
 15 16  1  0
 16 17  2  0
 18 17  1  0
 19 18  2  0
 20 13  1  0
  1 21  1  1
  2 22  1  0
  5 23  1  0
  5 24  1  0
  8 25  1  0
  8 26  1  0
  9 27  1  0
  9 28  1  0
 10 29  1  0
 10 30  1  0
 11 31  1  0
 11 32  1  0
 12 33  1  0
 12 34  1  0
 13 35  1  6
 15 36  1  0
 16 37  1  0
 18 38  1  0
 20 39  1  0
 20 40  1  0
 20 41  1  0
M  ISO  8  21   8  25  13  26  13  27  13  28  13  29  13  30  13  31  13
M  ISO  8  32  13  33  13  34  13  35   8  36  14  37  14  38  14  39   8
M  ISO  2  40   8  41   8
M  END
>  <minimizedAffinity>  (1) 
-4.61616707

>  <minimizedRMSD>  (1) 
2.62599349

$$$$
