
     RDKit          3D

 29 32  0  0  0  0  0  0  0  0999 V2000
   43.5980   33.7030   40.6180 C   0  0  0  0  0  0  0  0  0  0  0  0
   44.2350   33.2910   39.4760 N   0  0  0  0  0  0  0  0  0  0  0  0
   43.8050   33.6660   38.2470 C   0  0  0  0  0  0  0  0  0  0  0  0
   42.7280   34.4630   38.0840 N   0  0  0  0  0  0  0  0  0  0  0  0
   42.0740   34.8870   39.1950 C   0  0  0  0  0  0  0  0  0  0  0  0
   40.9540   35.7100   39.1730 C   0  0  0  0  0  0  0  0  0  0  0  0
   40.3140   36.1240   40.3240 C   0  0  0  0  0  0  0  0  0  0  0  0
   40.7940   35.7120   41.5760 C   0  0  0  0  0  0  0  0  0  0  0  0
   41.9000   34.8970   41.6150 C   0  0  0  0  0  0  0  0  0  0  0  0
   42.4980   34.5160   40.4450 C   0  0  0  0  0  0  0  0  0  0  0  0
   45.1230   34.1180   42.4200 C   0  0  0  0  0  0  0  0  0  0  0  0
   44.2160   33.1950   41.8190 C   0  0  0  0  0  0  0  0  0  0  0  0
   44.0730   31.9810   42.4760 C   0  0  0  0  0  0  0  0  0  0  0  0
   44.7710   31.7390   43.6080 N   0  0  0  0  0  0  0  0  0  0  0  0
   45.6100   32.6320   44.1350 C   0  0  0  0  0  0  0  0  0  0  0  0
   45.8080   33.8410   43.5580 N   0  0  0  0  0  0  0  0  0  0  0  0
   46.3370   32.3140   45.3600 C   0  0  0  0  0  0  0  0  0  0  0  0
   47.0790   31.2370   45.6850 N   0  0  0  0  0  0  0  0  0  0  0  0
   47.5470   31.3870   46.9080 O   0  0  0  0  0  0  0  0  0  0  0  0
   47.1270   32.5490   47.4030 C   0  0  0  0  0  0  0  0  0  0  0  0
   46.3900   33.1040   46.4480 N   0  0  0  0  0  0  0  0  0  0  0  0
   44.3481   33.3115   37.3585 H   0  0  0  0  0  0  0  0  0  0  0  0
   40.5625   36.0443   38.2009 H   0  0  0  0  0  0  0  0  0  0  0  0
   39.4299   36.7753   40.2595 H   0  0  0  0  0  0  0  0  0  0  0  0
   40.2976   36.0332   42.5036 H   0  0  0  0  0  0  0  0  0  0  0  0
   42.3014   34.5536   42.5798 H   0  0  0  0  0  0  0  0  0  0  0  0
   45.2734   35.0963   41.9401 H   0  0  0  0  0  0  0  0  0  0  0  0
   43.3917   31.2158   42.0756 H   0  0  0  0  0  0  0  0  0  0  0  0
   47.3454   32.9640   48.3980 H   0  0  0  0  0  0  0  0  0  0  0  0
  1 12  1  0
  2  1  2  0
  3  2  1  0
  4  3  2  0
  4  5  1  0
  5 10  2  0
  6  5  1  0
  6  7  2  0
  7  8  1  0
  8  9  2  0
 10  1  1  0
 10  9  1  0
 11 16  2  0
 12 11  1  0
 12 13  2  0
 13 14  1  0
 14 15  2  0
 15 17  1  0
 16 15  1  0
 17 18  2  0
 17 21  1  0
 18 19  1  0
 19 20  1  0
 21 20  2  0
  3 22  1  0
  6 23  1  0
  7 24  1  0
  8 25  1  0
  9 26  1  0
 11 27  1  0
 13 28  1  0
 20 29  1  0
M  ISO  8  22  14  23  14  24  14  25  14  26  14  27  14  28  14  29  14
M  END
>  <minimizedAffinity>  (1) 
-4.87120199

>  <minimizedRMSD>  (1) 
5.70615482

$$$$
