
     RDKit          3D

 32 33  0  0  1  0  0  0  0  0999 V2000
   44.3980   34.7700   42.2160 C   0  0  1  0  0  0  0  0  0  0  0  0
   43.4990   35.4980   41.3500 N   0  0  0  0  0  0  0  0  0  0  0  0
   42.0920   35.2830   41.5180 C   0  0  0  0  0  0  0  0  0  0  0  0
   41.6320   34.1130   41.9120 N   0  0  0  0  0  0  0  0  0  0  0  0
   41.0200   36.2120   41.2870 N   0  0  0  0  0  0  0  0  0  0  0  0
   42.2360   33.3000   42.1300 H   0  0  0  0  0  0  0  0  0  0  0  0
   45.5640   34.4240   41.3730 C   0  0  0  0  0  0  0  0  0  0  0  0
   45.3880   33.3270   40.4560 C   0  0  0  0  0  0  0  0  0  0  0  0
   47.0340   33.2010   39.7230 S   0  0  0  0  0  0  0  0  0  0  0  0
   47.7180   34.5720   40.6980 C   0  0  0  0  0  0  0  0  0  0  0  0
   46.7600   35.0420   41.4790 N   0  0  0  0  0  0  0  0  0  0  0  0
   44.6250   35.4570   43.5180 C   0  0  1  0  0  0  0  0  0  0  0  0
   45.2340   34.6000   44.5490 C   0  0  0  0  0  0  0  0  0  0  0  0
   46.2300   33.7550   44.1410 C   0  0  0  0  0  0  0  0  0  0  0  0
   46.8020   32.8770   45.0450 C   0  0  0  0  0  0  0  0  0  0  0  0
   46.3250   32.9060   46.3550 N   0  0  0  0  0  0  0  0  0  0  0  0
   45.3570   33.7420   46.7290 C   0  0  0  0  0  0  0  0  0  0  0  0
   44.8310   34.5660   45.8330 N   0  0  0  0  0  0  0  0  0  0  0  0
   45.4040   36.7670   43.3720 C   0  0  0  0  0  0  0  0  0  0  0  0
   43.9863   33.8240   42.5975 H   0  0  0  0  0  0  0  0  0  0  0  0
   43.8570   36.1490   40.6366 H   0  0  0  0  0  0  0  0  0  0  0  0
   40.0446   35.9236   41.4493 H   0  0  0  0  0  0  0  0  0  0  0  0
   41.2271   37.1662   40.9592 H   0  0  0  0  0  0  0  0  0  0  0  0
   44.4892   32.7254   40.2553 H   0  0  0  0  0  0  0  0  0  0  0  0
   48.7510   34.9468   40.6476 H   0  0  0  0  0  0  0  0  0  0  0  0
   43.6131   35.7036   43.8719 H   0  0  0  0  0  0  0  0  0  0  0  0
   46.5753   33.7736   43.0968 H   0  0  0  0  0  0  0  0  0  0  0  0
   47.6009   32.1841   44.7423 H   0  0  0  0  0  0  0  0  0  0  0  0
   44.9984   33.7485   47.7689 H   0  0  0  0  0  0  0  0  0  0  0  0
   45.6411   37.1657   44.3694 H   0  0  0  0  0  0  0  0  0  0  0  0
   46.3372   36.5792   42.8209 H   0  0  0  0  0  0  0  0  0  0  0  0
   44.7933   37.4973   42.8209 H   0  0  0  0  0  0  0  0  0  0  0  0
  1 12  1  0
  2  3  1  0
  2  1  1  0
  3  4  2  0
  4  6  1  0
  5  3  1  0
  7 11  1  0
  7  1  1  0
  8  7  2  0
  9  8  1  0
  9 10  1  0
 10 11  2  0
 12 13  1  0
 13 18  1  0
 14 13  2  0
 14 15  1  0
 15 16  2  0
 16 17  1  0
 18 17  2  0
 19 12  1  0
  1 20  1  1
  2 21  1  0
  5 22  1  0
  5 23  1  0
  8 24  1  0
 10 25  1  0
 12 26  1  1
 14 27  1  0
 15 28  1  0
 17 29  1  0
 19 30  1  0
 19 31  1  0
 19 32  1  0
M  ISO  8  20   8  24  14  25  14  26   8  27  14  28  14  29  14  30   8
M  ISO  2  31   8  32   8
M  END
>  <minimizedAffinity>  (1) 
-4.67327261

>  <minimizedRMSD>  (1) 
0.640139401

$$$$
