
     RDKit          3D

 37 40  0  0  0  0  0  0  0  0999 V2000
   46.3280   32.8150   46.7070 C   0  0  0  0  0  0  0  0  0  0  0  0
   45.4540   32.7010   47.7950 C   0  0  0  0  0  0  0  0  0  0  0  0
   46.1870   31.9190   48.6860 C   0  0  0  0  0  0  0  0  0  0  0  0
   47.4080   31.6110   48.1250 C   0  0  0  0  0  0  0  0  0  0  0  0
   47.4280   32.1670   46.9610 O   0  0  0  0  0  0  0  0  0  0  0  0
   48.3630   30.8180   48.8200 N   0  0  0  0  0  0  0  0  0  0  0  0
   49.1870   31.3630   49.7520 C   0  0  0  0  0  0  0  0  0  0  0  0
   50.1340   30.6680   50.4660 C   0  0  0  0  0  0  0  0  0  0  0  0
   50.9900   31.3580   51.4690 C   0  0  0  0  0  0  0  0  0  0  0  0
   50.2220   29.3250   50.1880 C   0  0  0  0  0  0  0  0  0  0  0  0
   51.0670   28.6250   50.8040 O   0  0  0  0  0  0  0  0  0  0  0  0
   49.4230   28.7390   49.2680 N   0  0  0  0  0  0  0  0  0  0  0  0
   48.5330   29.4860   48.6230 C   0  0  0  0  0  0  0  0  0  0  0  0
   47.8070   28.9230   47.7790 O   0  0  0  0  0  0  0  0  0  0  0  0
   46.7040   34.1020   43.3950 C   0  0  0  0  0  0  0  0  0  0  0  0
   45.5460   34.7450   43.8270 C   0  0  0  0  0  0  0  0  0  0  0  0
   45.2620   34.3390   45.1310 C   0  0  0  0  0  0  0  0  0  0  0  0
   46.2550   33.4630   45.4460 N   0  0  0  0  0  0  0  0  0  0  0  0
   47.0860   33.3300   44.4370 N   0  0  0  0  0  0  0  0  0  0  0  0
   48.7000   35.4390   40.6240 C   0  0  0  0  0  0  0  0  0  0  0  0
   48.1870   34.7200   39.5300 C   0  0  0  0  0  0  0  0  0  0  0  0
   47.1760   33.7990   39.7580 C   0  0  0  0  0  0  0  0  0  0  0  0
   46.7160   33.6220   41.0300 N   0  0  0  0  0  0  0  0  0  0  0  0
   47.2370   34.3370   42.0680 C   0  0  0  0  0  0  0  0  0  0  0  0
   48.2120   35.2330   41.8840 N   0  0  0  0  0  0  0  0  0  0  0  0
   44.4449   33.1218   47.9159 H   0  0  0  0  0  0  0  0  0  0  0  0
   45.8448   31.5979   49.6809 H   0  0  0  0  0  0  0  0  0  0  0  0
   49.0893   32.4406   49.9502 H   0  0  0  0  0  0  0  0  0  0  0  0
   50.6567   31.0894   52.4823 H   0  0  0  0  0  0  0  0  0  0  0  0
   52.0366   31.0481   51.3330 H   0  0  0  0  0  0  0  0  0  0  0  0
   50.9093   32.4466   51.3330 H   0  0  0  0  0  0  0  0  0  0  0  0
   49.5027   27.7313   49.0705 H   0  0  0  0  0  0  0  0  0  0  0  0
   44.9520   35.4573   43.2357 H   0  0  0  0  0  0  0  0  0  0  0  0
   44.4210   34.6567   45.7649 H   0  0  0  0  0  0  0  0  0  0  0  0
   49.5021   36.1746   40.4642 H   0  0  0  0  0  0  0  0  0  0  0  0
   48.5791   34.8846   38.5155 H   0  0  0  0  0  0  0  0  0  0  0  0
   46.7510   33.2194   38.9253 H   0  0  0  0  0  0  0  0  0  0  0  0
  1  5  1  0
  1  2  2  0
  2  3  1  0
  4  3  2  0
  4  6  1  0
  5  4  1  0
  6  7  1  0
  7  8  2  0
  8  9  1  0
 10  8  1  0
 10 11  2  0
 12 10  1  0
 13  6  1  0
 13 12  1  0
 14 13  2  0
 15 16  1  0
 15 19  2  0
 16 17  2  0
 17 18  1  0
 18  1  1  0
 19 18  1  0
 20 25  2  0
 21 22  2  0
 21 20  1  0
 22 23  1  0
 23 24  2  0
 24 15  1  0
 25 24  1  0
  2 26  1  0
  3 27  1  0
  7 28  1  0
  9 29  1  0
  9 30  1  0
  9 31  1  0
 12 32  1  0
 16 33  1  0
 17 34  1  0
 20 35  1  0
 21 36  1  0
 22 37  1  0
M  ISO  8  26  14  27  14  28  14  29   8  30   8  31   8  32   9  33  14
M  ISO  4  34  14  35  14  36  14  37  14
M  END
>  <minimizedAffinity>  (1) 
-6.45774078

>  <minimizedRMSD>  (1) 
1.23531044

$$$$
