
     RDKit          3D

 24 26  0  0  0  0  0  0  0  0999 V2000
   46.5690   34.1070   43.7000 C   0  0  0  0  0  0  0  0  0  0  0  0
   45.4510   34.8090   44.1240 C   0  0  0  0  0  0  0  0  0  0  0  0
   45.1510   34.4150   45.4270 C   0  0  0  0  0  0  0  0  0  0  0  0
   46.0990   33.4890   45.7470 N   0  0  0  0  0  0  0  0  0  0  0  0
   46.9330   33.3040   44.7380 N   0  0  0  0  0  0  0  0  0  0  0  0
   48.6620   35.3230   40.9320 C   0  0  0  0  0  0  0  0  0  0  0  0
   48.1010   34.6390   39.8310 C   0  0  0  0  0  0  0  0  0  0  0  0
   47.0290   33.7850   40.0620 C   0  0  0  0  0  0  0  0  0  0  0  0
   46.5590   33.6380   41.3350 N   0  0  0  0  0  0  0  0  0  0  0  0
   47.1210   34.3110   42.3670 C   0  0  0  0  0  0  0  0  0  0  0  0
   48.1610   35.1480   42.1890 N   0  0  0  0  0  0  0  0  0  0  0  0
   46.1290   32.8450   47.0110 C   0  0  0  0  0  0  0  0  0  0  0  0
   45.1680   32.5140   47.9680 C   0  0  0  0  0  0  0  0  0  0  0  0
   45.9260   31.8890   48.9650 C   0  0  0  0  0  0  0  0  0  0  0  0
   47.2580   31.8730   48.5760 C   0  0  0  0  0  0  0  0  0  0  0  0
   47.2990   32.4520   47.4190 O   0  0  0  0  0  0  0  0  0  0  0  0
   44.8950   35.5511   43.5323 H   0  0  0  0  0  0  0  0  0  0  0  0
   44.3267   34.7740   46.0607 H   0  0  0  0  0  0  0  0  0  0  0  0
   49.5115   36.0038   40.7745 H   0  0  0  0  0  0  0  0  0  0  0  0
   48.5023   34.7786   38.8164 H   0  0  0  0  0  0  0  0  0  0  0  0
   46.5655   33.2348   39.2299 H   0  0  0  0  0  0  0  0  0  0  0  0
   44.0839   32.6986   47.9444 H   0  0  0  0  0  0  0  0  0  0  0  0
   45.5299   31.4771   49.9049 H   0  0  0  0  0  0  0  0  0  0  0  0
   48.1063   31.4536   49.1367 H   0  0  0  0  0  0  0  0  0  0  0  0
  1  2  1  0
  1  5  2  0
  2  3  2  0
  3  4  1  0
  4 12  1  0
  5  4  1  0
  6 11  2  0
  7  8  2  0
  7  6  1  0
  8  9  1  0
  9 10  2  0
 10  1  1  0
 11 10  1  0
 12 16  1  0
 12 13  2  0
 13 14  1  0
 15 14  2  0
 16 15  1  0
  2 17  1  0
  3 18  1  0
  6 19  1  0
  7 20  1  0
  8 21  1  0
 13 22  1  0
 14 23  1  0
 15 24  1  0
M  ISO  8  17  14  18  14  19  14  20  14  21  14  22  14  23  14  24  14
M  END
>  <minimizedAffinity>  (1) 
-5.0860424

>  <minimizedRMSD>  (1) 
4.37090302

$$$$
