
     RDKit          3D

 27 29  0  0  0  0  0  0  0  0999 V2000
   46.7700   32.9270   44.7340 C   0  0  0  0  0  0  0  0  0  0  0  0
   47.8240   32.3670   44.0580 N   0  0  0  0  0  0  0  0  0  0  0  0
   48.2940   32.9030   42.9120 C   0  0  0  0  0  0  0  0  0  0  0  0
   47.7500   34.0220   42.3640 N   0  0  0  0  0  0  0  0  0  0  0  0
   46.7110   34.5940   43.0090 C   0  0  0  0  0  0  0  0  0  0  0  0
   46.0590   35.7400   42.5640 C   0  0  0  0  0  0  0  0  0  0  0  0
   45.0000   36.2980   43.2470 C   0  0  0  0  0  0  0  0  0  0  0  0
   44.5500   35.7120   44.4230 C   0  0  0  0  0  0  0  0  0  0  0  0
   45.1750   34.5800   44.8870 C   0  0  0  0  0  0  0  0  0  0  0  0
   46.2190   34.0670   44.1740 C   0  0  0  0  0  0  0  0  0  0  0  0
   45.7510   30.9730   45.6780 C   0  0  0  0  0  0  0  0  0  0  0  0
   46.4210   32.2040   45.9390 C   0  0  0  0  0  0  0  0  0  0  0  0
   46.6330   32.5070   47.2750 C   0  0  0  0  0  0  0  0  0  0  0  0
   46.2050   31.6420   48.2320 N   0  0  0  0  0  0  0  0  0  0  0  0
   45.5820   30.5000   47.9400 C   0  0  0  0  0  0  0  0  0  0  0  0
   45.3410   30.1390   46.6710 N   0  0  0  0  0  0  0  0  0  0  0  0
   45.1480   29.6150   49.0550 C   0  0  0  0  0  0  0  0  0  0  0  0
   49.1429   32.4199   42.4060 H   0  0  0  0  0  0  0  0  0  0  0  0
   46.4010   36.2175   41.6340 H   0  0  0  0  0  0  0  0  0  0  0  0
   44.5122   37.2055   42.8616 H   0  0  0  0  0  0  0  0  0  0  0  0
   43.7047   36.1483   44.9754 H   0  0  0  0  0  0  0  0  0  0  0  0
   44.8399   34.0961   45.8163 H   0  0  0  0  0  0  0  0  0  0  0  0
   45.5583   30.6868   44.6335 H   0  0  0  0  0  0  0  0  0  0  0  0
   47.1432   33.4395   47.5582 H   0  0  0  0  0  0  0  0  0  0  0  0
   45.3832   30.0946   50.0166 H   0  0  0  0  0  0  0  0  0  0  0  0
   44.0636   29.4436   48.9863 H   0  0  0  0  0  0  0  0  0  0  0  0
   45.6764   28.6527   48.9863 H   0  0  0  0  0  0  0  0  0  0  0  0
  1 12  1  0
  2  1  2  0
  3  2  1  0
  4  3  2  0
  4  5  1  0
  5 10  2  0
  6  5  1  0
  6  7  2  0
  7  8  1  0
  8  9  2  0
 10  1  1  0
 10  9  1  0
 11 12  2  0
 11 16  1  0
 12 13  1  0
 13 14  2  0
 15 14  1  0
 15 17  1  0
 16 15  2  0
  3 18  1  0
  6 19  1  0
  7 20  1  0
  8 21  1  0
  9 22  1  0
 11 23  1  0
 13 24  1  0
 17 25  1  0
 17 26  1  0
 17 27  1  0
M  ISO  8  18  14  19  14  20  14  21  14  22  14  23  14  24  14  25   8
M  ISO  2  26   8  27   8
M  END
>  <minimizedAffinity>  (1) 
-4.77888536

>  <minimizedRMSD>  (1) 
0.696043193

$$$$
