
     RDKit          3D

 38 42  0  0  0  0  0  0  0  0999 V2000
   46.4410   32.7160   47.0390 C   0  0  0  0  0  0  0  0  0  0  0  0
   45.5640   32.4090   48.0730 C   0  0  0  0  0  0  0  0  0  0  0  0
   46.3860   31.7690   48.9970 C   0  0  0  0  0  0  0  0  0  0  0  0
   47.6740   31.7140   48.5090 C   0  0  0  0  0  0  0  0  0  0  0  0
   47.6240   32.2940   47.3510 O   0  0  0  0  0  0  0  0  0  0  0  0
   48.7730   31.1270   49.1960 N   0  0  0  0  0  0  0  0  0  0  0  0
   48.8550   29.7900   49.4600 C   0  0  0  0  0  0  0  0  0  0  0  0
   50.0200   29.5470   50.1270 N   0  0  0  0  0  0  0  0  0  0  0  0
   50.6600   30.7240   50.2790 C   0  0  0  0  0  0  0  0  0  0  0  0
   51.8520   31.1140   50.8560 C   0  0  0  0  0  0  0  0  0  0  0  0
   52.5940   30.2320   51.4010 O   0  0  0  0  0  0  0  0  0  0  0  0
   52.2820   32.3880   50.8790 N   0  0  0  0  0  0  0  0  0  0  0  0
   51.4660   33.3070   50.2890 C   0  0  0  0  0  0  0  0  0  0  0  0
   51.9170   34.6570   50.3100 N   0  0  0  0  0  0  0  0  0  0  0  0
   50.2900   32.9680   49.7110 N   0  0  0  0  0  0  0  0  0  0  0  0
   49.8790   31.7020   49.6980 C   0  0  0  0  0  0  0  0  0  0  0  0
   46.6750   34.0090   43.7190 C   0  0  0  0  0  0  0  0  0  0  0  0
   45.5300   34.6200   44.1790 C   0  0  0  0  0  0  0  0  0  0  0  0
   45.2940   34.2100   45.4920 C   0  0  0  0  0  0  0  0  0  0  0  0
   46.3090   33.3630   45.7820 N   0  0  0  0  0  0  0  0  0  0  0  0
   47.1180   33.2440   44.7440 N   0  0  0  0  0  0  0  0  0  0  0  0
   48.6350   35.2980   40.8960 C   0  0  0  0  0  0  0  0  0  0  0  0
   48.0460   34.6330   39.8020 C   0  0  0  0  0  0  0  0  0  0  0  0
   47.0000   33.7670   40.0560 C   0  0  0  0  0  0  0  0  0  0  0  0
   46.5870   33.5940   41.3450 N   0  0  0  0  0  0  0  0  0  0  0  0
   47.1740   34.2480   42.3700 C   0  0  0  0  0  0  0  0  0  0  0  0
   48.2020   35.1050   42.1760 N   0  0  0  0  0  0  0  0  0  0  0  0
   44.4867   32.6196   48.1438 H   0  0  0  0  0  0  0  0  0  0  0  0
   46.0578   31.3687   49.9676 H   0  0  0  0  0  0  0  0  0  0  0  0
   48.1060   29.0342   49.1812 H   0  0  0  0  0  0  0  0  0  0  0  0
   53.1756   32.6539   51.3168 H   0  0  0  0  0  0  0  0  0  0  0  0
   51.3448   35.3979   49.8804 H   0  0  0  0  0  0  0  0  0  0  0  0
   52.8156   34.8929   50.7548 H   0  0  0  0  0  0  0  0  0  0  0  0
   44.9030   35.3180   43.6048 H   0  0  0  0  0  0  0  0  0  0  0  0
   44.4638   34.5100   46.1483 H   0  0  0  0  0  0  0  0  0  0  0  0
   49.4679   35.9928   40.7131 H   0  0  0  0  0  0  0  0  0  0  0  0
   48.4082   34.7985   38.7766 H   0  0  0  0  0  0  0  0  0  0  0  0
   46.5087   33.2264   39.2336 H   0  0  0  0  0  0  0  0  0  0  0  0
  1  5  1  0
  1  2  2  0
  2  3  1  0
  4  3  2  0
  4  6  1  0
  5  4  1  0
  6  7  1  0
  6 16  1  0
  7  8  2  0
  8  9  1  0
  9 10  1  0
 10 12  1  0
 10 11  2  0
 13 14  1  0
 13 12  1  0
 15 13  2  0
 16 15  1  0
 16  9  2  0
 17 18  1  0
 17 21  2  0
 18 19  2  0
 19 20  1  0
 20  1  1  0
 21 20  1  0
 22 27  2  0
 23 24  2  0
 23 22  1  0
 24 25  1  0
 25 26  2  0
 26 17  1  0
 27 26  1  0
  2 28  1  0
  3 29  1  0
  7 30  1  0
 12 31  1  0
 14 32  1  0
 14 33  1  0
 18 34  1  0
 19 35  1  0
 22 36  1  0
 23 37  1  0
 24 38  1  0
M  ISO  8  28  14  29  14  30  14  31   9  34  14  35  14  36  14  37  14
M  ISO  1  38  14
M  END
>  <minimizedAffinity>  (1) 
-6.67626858

>  <minimizedRMSD>  (1) 
0.624648094

$$$$
