
     RDKit          3D

 31 34  0  0  0  0  0  0  0  0999 V2000
   46.6370   34.0780   43.6200 C   0  0  0  0  0  0  0  0  0  0  0  0
   45.4820   34.7360   44.0500 C   0  0  0  0  0  0  0  0  0  0  0  0
   45.2110   34.3430   45.3600 C   0  0  0  0  0  0  0  0  0  0  0  0
   46.1940   33.4730   45.6800 N   0  0  0  0  0  0  0  0  0  0  0  0
   47.0260   33.3160   44.6710 N   0  0  0  0  0  0  0  0  0  0  0  0
   48.6660   35.3500   40.8370 C   0  0  0  0  0  0  0  0  0  0  0  0
   48.0970   34.6570   39.7440 C   0  0  0  0  0  0  0  0  0  0  0  0
   47.0430   33.7760   39.9820 C   0  0  0  0  0  0  0  0  0  0  0  0
   46.6000   33.6190   41.2630 N   0  0  0  0  0  0  0  0  0  0  0  0
   47.1590   34.2940   42.2880 C   0  0  0  0  0  0  0  0  0  0  0  0
   48.1870   35.1590   42.1010 N   0  0  0  0  0  0  0  0  0  0  0  0
   46.2760   32.8400   46.9470 C   0  0  0  0  0  0  0  0  0  0  0  0
   45.3440   32.4980   47.9220 C   0  0  0  0  0  0  0  0  0  0  0  0
   46.1100   31.9010   48.9140 C   0  0  0  0  0  0  0  0  0  0  0  0
   47.4270   31.9080   48.5090 C   0  0  0  0  0  0  0  0  0  0  0  0
   47.4680   32.4740   47.3420 O   0  0  0  0  0  0  0  0  0  0  0  0
   48.5490   31.3710   49.2710 C   0  0  0  0  0  0  0  0  0  0  0  0
   49.7680   31.9820   49.4810 C   0  0  0  0  0  0  0  0  0  0  0  0
   50.4840   31.1430   50.2250 N   0  0  0  0  0  0  0  0  0  0  0  0
   49.7700   30.0340   50.4910 C   0  0  0  0  0  0  0  0  0  0  0  0
   48.5540   30.1690   49.8960 N   0  0  0  0  0  0  0  0  0  0  0  0
   44.8868   35.4446   43.4553 H   0  0  0  0  0  0  0  0  0  0  0  0
   44.3760   34.6709   45.9965 H   0  0  0  0  0  0  0  0  0  0  0  0
   49.4997   36.0473   40.6679 H   0  0  0  0  0  0  0  0  0  0  0  0
   48.4791   34.8102   38.7239 H   0  0  0  0  0  0  0  0  0  0  0  0
   46.5784   33.2193   39.1548 H   0  0  0  0  0  0  0  0  0  0  0  0
   44.2564   32.6621   47.9096 H   0  0  0  0  0  0  0  0  0  0  0  0
   45.7302   31.4920   49.8619 H   0  0  0  0  0  0  0  0  0  0  0  0
   50.0849   32.9669   49.1076 H   0  0  0  0  0  0  0  0  0  0  0  0
   50.1091   29.1718   51.0839 H   0  0  0  0  0  0  0  0  0  0  0  0
   47.7829   29.4864   49.9168 H   0  0  0  0  0  0  0  0  0  0  0  0
  1  2  1  0
  1  5  2  0
  2  3  2  0
  3  4  1  0
  4 12  1  0
  5  4  1  0
  6 11  2  0
  7  8  2  0
  7  6  1  0
  8  9  1  0
  9 10  2  0
 10  1  1  0
 11 10  1  0
 12 16  1  0
 12 13  2  0
 13 14  1  0
 15 14  2  0
 15 17  1  0
 16 15  1  0
 17 18  2  0
 17 21  1  0
 18 19  1  0
 19 20  2  0
 21 20  1  0
  2 22  1  0
  3 23  1  0
  6 24  1  0
  7 25  1  0
  8 26  1  0
 13 27  1  0
 14 28  1  0
 18 29  1  0
 20 30  1  0
 21 31  1  0
M  ISO  8  22  14  23  14  24  14  25  14  26  14  27  14  28  14  29  14
M  ISO  2  30  14  31   9
M  END
>  <minimizedAffinity>  (1) 
-6.29076242

>  <minimizedRMSD>  (1) 
0.712527275

$$$$
