
     RDKit          3D

 40 44  0  0  0  0  0  0  0  0999 V2000
   46.4950   32.6760   46.8910 C   0  0  0  0  0  0  0  0  0  0  0  0
   45.6770   32.4810   47.9900 C   0  0  0  0  0  0  0  0  0  0  0  0
   46.4700   31.7520   48.8620 C   0  0  0  0  0  0  0  0  0  0  0  0
   47.7150   31.5310   48.2790 C   0  0  0  0  0  0  0  0  0  0  0  0
   47.6150   32.1110   47.1420 O   0  0  0  0  0  0  0  0  0  0  0  0
   48.7260   30.7820   49.0100 C   0  0  0  0  0  0  0  0  0  0  0  0
   49.5250   31.3530   49.9760 C   0  0  0  0  0  0  0  0  0  0  0  0
   50.4910   30.6860   50.6910 C   0  0  0  0  0  0  0  0  0  0  0  0
   50.7010   29.3460   50.4440 C   0  0  0  0  0  0  0  0  0  0  0  0
   49.9390   28.7070   49.4890 C   0  0  0  0  0  0  0  0  0  0  0  0
   50.1550   27.3670   49.2470 C   0  0  0  0  0  0  0  0  0  0  0  0
   49.4150   26.6890   48.3010 C   0  0  0  0  0  0  0  0  0  0  0  0
   48.4510   27.3990   47.6040 C   0  0  0  0  0  0  0  0  0  0  0  0
   48.2790   28.7350   47.8850 C   0  0  0  0  0  0  0  0  0  0  0  0
   48.9910   29.4490   48.8170 C   0  0  0  0  0  0  0  0  0  0  0  0
   46.7610   33.9750   43.5810 C   0  0  0  0  0  0  0  0  0  0  0  0
   45.5890   34.5830   44.0370 C   0  0  0  0  0  0  0  0  0  0  0  0
   45.3500   34.1620   45.3440 C   0  0  0  0  0  0  0  0  0  0  0  0
   46.3860   33.3120   45.6400 N   0  0  0  0  0  0  0  0  0  0  0  0
   47.2170   33.2010   44.6030 N   0  0  0  0  0  0  0  0  0  0  0  0
   48.6490   35.3810   40.7660 C   0  0  0  0  0  0  0  0  0  0  0  0
   48.0930   34.6700   39.6670 C   0  0  0  0  0  0  0  0  0  0  0  0
   47.0880   33.7300   39.9240 C   0  0  0  0  0  0  0  0  0  0  0  0
   46.6840   33.5350   41.2130 N   0  0  0  0  0  0  0  0  0  0  0  0
   47.2470   34.2410   42.2360 C   0  0  0  0  0  0  0  0  0  0  0  0
   48.2080   35.1480   42.0360 N   0  0  0  0  0  0  0  0  0  0  0  0
   44.6421   32.8236   48.1368 H   0  0  0  0  0  0  0  0  0  0  0  0
   46.1637   31.4025   49.8590 H   0  0  0  0  0  0  0  0  0  0  0  0
   49.3792   32.4219   50.1911 H   0  0  0  0  0  0  0  0  0  0  0  0
   51.0879   31.2138   51.4494 H   0  0  0  0  0  0  0  0  0  0  0  0
   51.4691   28.7920   51.0035 H   0  0  0  0  0  0  0  0  0  0  0  0
   50.9285   26.8310   49.8165 H   0  0  0  0  0  0  0  0  0  0  0  0
   49.5846   25.6197   48.1064 H   0  0  0  0  0  0  0  0  0  0  0  0
   47.8342   26.9037   46.8397 H   0  0  0  0  0  0  0  0  0  0  0  0
   47.5078   29.2753   47.3163 H   0  0  0  0  0  0  0  0  0  0  0  0
   44.9600   35.2777   43.4610 H   0  0  0  0  0  0  0  0  0  0  0  0
   44.5124   34.4489   45.9968 H   0  0  0  0  0  0  0  0  0  0  0  0
   49.4406   36.1244   40.5909 H   0  0  0  0  0  0  0  0  0  0  0  0
   48.4438   34.8541   38.6408 H   0  0  0  0  0  0  0  0  0  0  0  0
   46.6321   33.1588   39.1019 H   0  0  0  0  0  0  0  0  0  0  0  0
  1  5  1  0
  1  2  2  0
  2  3  1  0
  4  3  2  0
  4  6  1  0
  5  4  1  0
  6  7  2  0
  7  8  1  0
  9  8  2  0
 10  9  1  0
 11 10  2  0
 12 11  1  0
 13 14  1  0
 13 12  2  0
 14 15  2  0
 15  6  1  0
 15 10  1  0
 16 17  1  0
 16 20  2  0
 17 18  2  0
 18 19  1  0
 19  1  1  0
 20 19  1  0
 21 26  2  0
 22 23  2  0
 22 21  1  0
 23 24  1  0
 24 25  2  0
 25 16  1  0
 26 25  1  0
  2 27  1  0
  3 28  1  0
  7 29  1  0
  8 30  1  0
  9 31  1  0
 11 32  1  0
 12 33  1  0
 13 34  1  0
 14 35  1  0
 17 36  1  0
 18 37  1  0
 21 38  1  0
 22 39  1  0
 23 40  1  0
M  ISO  8  27  14  28  14  29  14  30  14  31  14  32  14  33  14  34  14
M  ISO  6  35  14  36  14  37  14  38  14  39  14  40  14
M  END
>  <minimizedAffinity>  (1) 
-6.32307529

>  <minimizedRMSD>  (1) 
1.9602561

$$$$
