
     RDKit          3D

 31 34  0  0  0  0  0  0  0  0999 V2000
   46.3790   32.7930   43.7660 C   0  0  0  0  0  0  0  0  0  0  0  0
   47.2460   32.4360   42.7660 N   0  0  0  0  0  0  0  0  0  0  0  0
   47.6260   33.3220   41.8180 C   0  0  0  0  0  0  0  0  0  0  0  0
   47.1720   34.6010   41.8060 N   0  0  0  0  0  0  0  0  0  0  0  0
   46.3130   34.9780   42.7850 C   0  0  0  0  0  0  0  0  0  0  0  0
   45.7710   36.2500   42.8960 C   0  0  0  0  0  0  0  0  0  0  0  0
   44.9000   36.5960   43.9070 C   0  0  0  0  0  0  0  0  0  0  0  0
   44.5330   35.6510   44.8680 C   0  0  0  0  0  0  0  0  0  0  0  0
   45.0590   34.3840   44.7750 C   0  0  0  0  0  0  0  0  0  0  0  0
   45.9190   34.0840   43.7580 C   0  0  0  0  0  0  0  0  0  0  0  0
   45.3040   30.6700   44.0970 C   0  0  0  0  0  0  0  0  0  0  0  0
   46.0990   31.6990   44.6810 C   0  0  0  0  0  0  0  0  0  0  0  0
   46.4810   31.4990   45.9960 C   0  0  0  0  0  0  0  0  0  0  0  0
   46.0950   30.3750   46.6420 N   0  0  0  0  0  0  0  0  0  0  0  0
   45.3440   29.4240   46.0620 C   0  0  0  0  0  0  0  0  0  0  0  0
   44.9460   29.5620   44.7970 N   0  0  0  0  0  0  0  0  0  0  0  0
   44.9650   28.2600   46.7890 N   0  0  0  0  0  0  0  0  0  0  0  0
   45.0670   27.9220   48.0800 C   0  0  0  0  0  0  0  0  0  0  0  0
   44.5150   26.6430   48.1890 C   0  0  0  0  0  0  0  0  0  0  0  0
   44.1000   26.2530   46.9700 N   0  0  0  0  0  0  0  0  0  0  0  0
   44.3780   27.2510   46.1040 C   0  0  0  0  0  0  0  0  0  0  0  0
   48.3242   32.9964   41.0328 H   0  0  0  0  0  0  0  0  0  0  0  0
   46.0462   37.0103   42.1502 H   0  0  0  0  0  0  0  0  0  0  0  0
   44.4937   37.6170   43.9570 H   0  0  0  0  0  0  0  0  0  0  0  0
   43.8394   35.9143   45.6802 H   0  0  0  0  0  0  0  0  0  0  0  0
   44.7885   33.6168   45.5155 H   0  0  0  0  0  0  0  0  0  0  0  0
   44.9721   30.7757   43.0536 H   0  0  0  0  0  0  0  0  0  0  0  0
   47.0955   32.2504   46.5134 H   0  0  0  0  0  0  0  0  0  0  0  0
   45.4979   28.5280   48.8906 H   0  0  0  0  0  0  0  0  0  0  0  0
   44.4335   26.0545   49.1148 H   0  0  0  0  0  0  0  0  0  0  0  0
   44.1638   27.2450   45.0251 H   0  0  0  0  0  0  0  0  0  0  0  0
  1 12  1  0
  2  1  2  0
  3  2  1  0
  4  3  2  0
  4  5  1  0
  5  6  1  0
  5 10  2  0
  6  7  2  0
  7  8  1  0
  9  8  2  0
 10  1  1  0
 10  9  1  0
 11 12  2  0
 11 16  1  0
 12 13  1  0
 13 14  2  0
 15 14  1  0
 15 17  1  0
 16 15  2  0
 17 18  1  0
 18 19  2  0
 20 19  1  0
 21 17  1  0
 21 20  2  0
  3 22  1  0
  6 23  1  0
  7 24  1  0
  8 25  1  0
  9 26  1  0
 11 27  1  0
 13 28  1  0
 18 29  1  0
 19 30  1  0
 21 31  1  0
M  ISO  8  22  14  23  14  24  14  25  14  26  14  27  14  28  14  29  14
M  ISO  2  30  14  31  14
M  END
>  <minimizedAffinity>  (1) 
-4.69339991

>  <minimizedRMSD>  (1) 
2.56059146

$$$$
