
     RDKit          3D

 31 34  0  0  0  0  0  0  0  0999 V2000
   46.6260   34.1410   43.5440 C   0  0  0  0  0  0  0  0  0  0  0  0
   45.4770   34.7970   43.9580 C   0  0  0  0  0  0  0  0  0  0  0  0
   45.1860   34.4140   45.2660 C   0  0  0  0  0  0  0  0  0  0  0  0
   46.1660   33.5410   45.5990 N   0  0  0  0  0  0  0  0  0  0  0  0
   47.0170   33.3710   44.6020 N   0  0  0  0  0  0  0  0  0  0  0  0
   48.6990   35.4000   40.7820 C   0  0  0  0  0  0  0  0  0  0  0  0
   48.1480   34.6960   39.6770 C   0  0  0  0  0  0  0  0  0  0  0  0
   47.1030   33.8280   39.9140 C   0  0  0  0  0  0  0  0  0  0  0  0
   46.6290   33.6680   41.1820 N   0  0  0  0  0  0  0  0  0  0  0  0
   47.1710   34.3490   42.2100 C   0  0  0  0  0  0  0  0  0  0  0  0
   48.1990   35.2160   42.0420 N   0  0  0  0  0  0  0  0  0  0  0  0
   46.2300   32.9150   46.8680 C   0  0  0  0  0  0  0  0  0  0  0  0
   45.2950   32.6250   47.8600 C   0  0  0  0  0  0  0  0  0  0  0  0
   46.0430   31.9960   48.8480 C   0  0  0  0  0  0  0  0  0  0  0  0
   47.3570   31.9350   48.4210 C   0  0  0  0  0  0  0  0  0  0  0  0
   47.4010   32.4880   47.2580 O   0  0  0  0  0  0  0  0  0  0  0  0
   48.4560   31.3460   49.1780 C   0  0  0  0  0  0  0  0  0  0  0  0
   49.6570   31.9510   49.4840 C   0  0  0  0  0  0  0  0  0  0  0  0
   50.3610   31.0170   50.2020 C   0  0  0  0  0  0  0  0  0  0  0  0
   49.6250   29.8750   50.3350 N   0  0  0  0  0  0  0  0  0  0  0  0
   48.4980   30.1110   49.7120 N   0  0  0  0  0  0  0  0  0  0  0  0
   44.8908   35.5043   43.3529 H   0  0  0  0  0  0  0  0  0  0  0  0
   44.3446   34.7478   45.8909 H   0  0  0  0  0  0  0  0  0  0  0  0
   49.5340   36.0982   40.6228 H   0  0  0  0  0  0  0  0  0  0  0  0
   48.5442   34.8396   38.6609 H   0  0  0  0  0  0  0  0  0  0  0  0
   46.6532   33.2663   39.0821 H   0  0  0  0  0  0  0  0  0  0  0  0
   44.2168   32.8431   47.8607 H   0  0  0  0  0  0  0  0  0  0  0  0
   45.6568   31.6130   49.8041 H   0  0  0  0  0  0  0  0  0  0  0  0
   49.9815   32.9659   49.2108 H   0  0  0  0  0  0  0  0  0  0  0  0
   51.3712   31.1668   50.6108 H   0  0  0  0  0  0  0  0  0  0  0  0
   49.8987   29.0100   50.8227 H   0  0  0  0  0  0  0  0  0  0  0  0
  1  2  1  0
  1  5  2  0
  2  3  2  0
  3  4  1  0
  4 12  1  0
  5  4  1  0
  6 11  2  0
  7  8  2  0
  7  6  1  0
  8  9  1  0
  9 10  2  0
 10  1  1  0
 11 10  1  0
 12 16  1  0
 12 13  2  0
 13 14  1  0
 15 14  2  0
 15 17  1  0
 16 15  1  0
 17 18  1  0
 17 21  2  0
 18 19  2  0
 19 20  1  0
 21 20  1  0
  2 22  1  0
  3 23  1  0
  6 24  1  0
  7 25  1  0
  8 26  1  0
 13 27  1  0
 14 28  1  0
 18 29  1  0
 19 30  1  0
 20 31  1  0
M  ISO  8  22  14  23  14  24  14  25  14  26  14  27  14  28  14  29  14
M  ISO  2  30  14  31   9
M  END
>  <minimizedAffinity>  (1) 
-5.9941864

>  <minimizedRMSD>  (1) 
0.254410744

$$$$
