
     RDKit          3D

 34 37  0  0  0  0  0  0  0  0999 V2000
   46.7060   34.0020   43.6570 C   0  0  0  0  0  0  0  0  0  0  0  0
   45.5680   34.6560   44.1250 C   0  0  0  0  0  0  0  0  0  0  0  0
   45.3170   34.2090   45.4220 C   0  0  0  0  0  0  0  0  0  0  0  0
   46.3070   33.3080   45.6870 N   0  0  0  0  0  0  0  0  0  0  0  0
   47.1310   33.1790   44.6560 N   0  0  0  0  0  0  0  0  0  0  0  0
   48.6880   35.3760   40.8760 C   0  0  0  0  0  0  0  0  0  0  0  0
   48.1290   34.7130   39.7730 C   0  0  0  0  0  0  0  0  0  0  0  0
   47.0990   33.8190   39.9950 C   0  0  0  0  0  0  0  0  0  0  0  0
   46.6670   33.6190   41.2760 N   0  0  0  0  0  0  0  0  0  0  0  0
   47.2180   34.2670   42.3190 C   0  0  0  0  0  0  0  0  0  0  0  0
   48.2160   35.1360   42.1300 N   0  0  0  0  0  0  0  0  0  0  0  0
   46.3840   32.6370   46.9250 C   0  0  0  0  0  0  0  0  0  0  0  0
   45.5720   32.5290   48.0450 C   0  0  0  0  0  0  0  0  0  0  0  0
   46.2800   31.6940   48.9000 C   0  0  0  0  0  0  0  0  0  0  0  0
   47.4650   31.3410   48.2740 C   0  0  0  0  0  0  0  0  0  0  0  0
   47.4650   31.9280   47.1150 O   0  0  0  0  0  0  0  0  0  0  0  0
   48.4760   30.4690   48.8650 C   0  0  0  0  0  0  0  0  0  0  0  0
   49.1290   30.8090   50.0280 C   0  0  0  0  0  0  0  0  0  0  0  0
   50.0690   29.9560   50.5410 C   0  0  0  0  0  0  0  0  0  0  0  0
   50.4230   28.7600   49.9750 C   0  0  0  0  0  0  0  0  0  0  0  0
   49.7580   28.4370   48.8090 C   0  0  0  0  0  0  0  0  0  0  0  0
   48.7950   29.2690   48.2490 C   0  0  0  0  0  0  0  0  0  0  0  0
   44.9723   35.3950   43.5691 H   0  0  0  0  0  0  0  0  0  0  0  0
   44.4974   34.5165   46.0880 H   0  0  0  0  0  0  0  0  0  0  0  0
   49.5099   36.0917   40.7270 H   0  0  0  0  0  0  0  0  0  0  0  0
   48.5020   34.9005   38.7553 H   0  0  0  0  0  0  0  0  0  0  0  0
   46.6356   33.2785   39.1565 H   0  0  0  0  0  0  0  0  0  0  0  0
   44.5917   32.9975   48.2166 H   0  0  0  0  0  0  0  0  0  0  0  0
   45.9564   31.3694   49.9000 H   0  0  0  0  0  0  0  0  0  0  0  0
   48.8983   31.7552   50.5394 H   0  0  0  0  0  0  0  0  0  0  0  0
   50.5749   30.2515   51.4720 H   0  0  0  0  0  0  0  0  0  0  0  0
   51.1847   28.1021   50.4189 H   0  0  0  0  0  0  0  0  0  0  0  0
   49.9983   27.4888   48.3057 H   0  0  0  0  0  0  0  0  0  0  0  0
   48.2871   28.9754   47.3185 H   0  0  0  0  0  0  0  0  0  0  0  0
  1  2  1  0
  1  5  2  0
  2  3  2  0
  3  4  1  0
  4 12  1  0
  5  4  1  0
  6 11  2  0
  7  8  2  0
  7  6  1  0
  8  9  1  0
  9 10  2  0
 10  1  1  0
 11 10  1  0
 12 16  1  0
 12 13  2  0
 13 14  1  0
 15 17  1  0
 15 14  2  0
 16 15  1  0
 17 18  2  0
 18 19  1  0
 20 19  2  0
 21 20  1  0
 22 21  2  0
 22 17  1  0
  2 23  1  0
  3 24  1  0
  6 25  1  0
  7 26  1  0
  8 27  1  0
 13 28  1  0
 14 29  1  0
 18 30  1  0
 19 31  1  0
 20 32  1  0
 21 33  1  0
 22 34  1  0
M  ISO  8  23  14  24  14  25  14  26  14  27  14  28  14  29  14  30  14
M  ISO  4  31  14  32  14  33  14  34  14
M  END
>  <minimizedAffinity>  (1) 
-5.97909784

>  <minimizedRMSD>  (1) 
0.818272829

$$$$
