
     RDKit          3D

 34 37  0  0  0  0  0  0  0  0999 V2000
   46.7120   33.9590   43.6820 C   0  0  0  0  0  0  0  0  0  0  0  0
   45.5500   34.5640   44.1390 C   0  0  0  0  0  0  0  0  0  0  0  0
   45.3280   34.1460   45.4460 C   0  0  0  0  0  0  0  0  0  0  0  0
   46.3550   33.3070   45.7310 N   0  0  0  0  0  0  0  0  0  0  0  0
   47.1840   33.1850   44.6960 N   0  0  0  0  0  0  0  0  0  0  0  0
   48.6360   35.3240   40.8600 C   0  0  0  0  0  0  0  0  0  0  0  0
   48.0640   34.6530   39.7690 C   0  0  0  0  0  0  0  0  0  0  0  0
   47.0280   33.7420   40.0140 C   0  0  0  0  0  0  0  0  0  0  0  0
   46.6270   33.5550   41.3050 N   0  0  0  0  0  0  0  0  0  0  0  0
   47.1990   34.2160   42.3270 C   0  0  0  0  0  0  0  0  0  0  0  0
   48.1920   35.0930   42.1200 N   0  0  0  0  0  0  0  0  0  0  0  0
   46.4820   32.6660   46.9890 C   0  0  0  0  0  0  0  0  0  0  0  0
   45.5860   32.2100   47.9570 C   0  0  0  0  0  0  0  0  0  0  0  0
   46.4180   31.6840   48.9350 C   0  0  0  0  0  0  0  0  0  0  0  0
   47.7380   31.8350   48.5410 C   0  0  0  0  0  0  0  0  0  0  0  0
   47.6950   32.4220   47.3830 O   0  0  0  0  0  0  0  0  0  0  0  0
   48.8850   31.3930   49.3290 C   0  0  0  0  0  0  0  0  0  0  0  0
   48.9690   30.1220   49.8300 C   0  0  0  0  0  0  0  0  0  0  0  0
   50.0740   29.7380   50.5730 C   0  0  0  0  0  0  0  0  0  0  0  0
   51.0900   30.6350   50.8110 C   0  0  0  0  0  0  0  0  0  0  0  0
   51.0530   31.9440   50.3230 C   0  0  0  0  0  0  0  0  0  0  0  0
   49.9260   32.2610   49.5900 C   0  0  0  0  0  0  0  0  0  0  0  0
   44.9143   35.2550   43.5660 H   0  0  0  0  0  0  0  0  0  0  0  0
   44.4975   34.4339   46.1074 H   0  0  0  0  0  0  0  0  0  0  0  0
   49.4512   36.0432   40.6919 H   0  0  0  0  0  0  0  0  0  0  0  0
   48.4205   34.8377   38.7449 H   0  0  0  0  0  0  0  0  0  0  0  0
   46.5512   33.1928   39.1887 H   0  0  0  0  0  0  0  0  0  0  0  0
   44.4870   32.2563   47.9471 H   0  0  0  0  0  0  0  0  0  0  0  0
   46.0828   31.2204   49.8745 H   0  0  0  0  0  0  0  0  0  0  0  0
   48.1574   29.4036   49.6424 H   0  0  0  0  0  0  0  0  0  0  0  0
   50.1390   28.7153   50.9728 H   0  0  0  0  0  0  0  0  0  0  0  0
   51.9583   30.3116   51.4038 H   0  0  0  0  0  0  0  0  0  0  0  0
   51.8606   32.6674   50.5086 H   0  0  0  0  0  0  0  0  0  0  0  0
   49.8527   33.2808   49.1842 H   0  0  0  0  0  0  0  0  0  0  0  0
  1  2  1  0
  1  5  2  0
  2  3  2  0
  3  4  1  0
  4 12  1  0
  5  4  1  0
  6 11  2  0
  7  8  2  0
  7  6  1  0
  8  9  1  0
  9 10  2  0
 10  1  1  0
 11 10  1  0
 12 16  1  0
 12 13  2  0
 13 14  1  0
 15 14  2  0
 15 17  1  0
 16 15  1  0
 17 22  1  0
 17 18  2  0
 18 19  1  0
 19 20  2  0
 21 20  1  0
 22 21  2  0
  2 23  1  0
  3 24  1  0
  6 25  1  0
  7 26  1  0
  8 27  1  0
 13 28  1  0
 14 29  1  0
 18 30  1  0
 19 31  1  0
 20 32  1  0
 21 33  1  0
 22 34  1  0
M  ISO  8  23  14  24  14  25  14  26  14  27  14  28  14  29  14  30  14
M  ISO  4  31  14  32  14  33  14  34  14
M  END
>  <minimizedAffinity>  (1) 
-5.99287176

>  <minimizedRMSD>  (1) 
0.446967661

$$$$
