
     RDKit          3D

 31 34  0  0  0  0  0  0  0  0999 V2000
   46.6480   34.0710   43.5570 C   0  0  0  0  0  0  0  0  0  0  0  0
   45.4800   34.6920   43.9860 C   0  0  0  0  0  0  0  0  0  0  0  0
   45.2330   34.2980   45.3030 C   0  0  0  0  0  0  0  0  0  0  0  0
   46.2460   33.4590   45.6250 N   0  0  0  0  0  0  0  0  0  0  0  0
   47.0910   33.3130   44.6090 N   0  0  0  0  0  0  0  0  0  0  0  0
   48.6480   35.3490   40.7580 C   0  0  0  0  0  0  0  0  0  0  0  0
   48.0940   34.6550   39.6730 C   0  0  0  0  0  0  0  0  0  0  0  0
   47.0450   33.7600   39.9120 C   0  0  0  0  0  0  0  0  0  0  0  0
   46.6030   33.5990   41.1980 N   0  0  0  0  0  0  0  0  0  0  0  0
   47.1680   34.2900   42.2100 C   0  0  0  0  0  0  0  0  0  0  0  0
   48.1790   35.1620   42.0250 N   0  0  0  0  0  0  0  0  0  0  0  0
   46.3430   32.8490   46.8950 C   0  0  0  0  0  0  0  0  0  0  0  0
   45.4470   32.4730   47.8860 C   0  0  0  0  0  0  0  0  0  0  0  0
   46.2460   31.9200   48.8770 C   0  0  0  0  0  0  0  0  0  0  0  0
   47.5610   31.9770   48.4630 C   0  0  0  0  0  0  0  0  0  0  0  0
   47.5400   32.5360   47.2890 O   0  0  0  0  0  0  0  0  0  0  0  0
   48.6650   31.4990   49.2260 N   0  0  0  0  0  0  0  0  0  0  0  0
   49.8420   32.0640   49.6250 C   0  0  0  0  0  0  0  0  0  0  0  0
   50.5350   31.1280   50.3500 C   0  0  0  0  0  0  0  0  0  0  0  0
   49.7730   30.0110   50.3820 N   0  0  0  0  0  0  0  0  0  0  0  0
   48.6310   30.2330   49.6970 C   0  0  0  0  0  0  0  0  0  0  0  0
   44.8576   35.3760   43.3904 H   0  0  0  0  0  0  0  0  0  0  0  0
   44.3929   34.6045   45.9435 H   0  0  0  0  0  0  0  0  0  0  0  0
   49.4735   36.0551   40.5848 H   0  0  0  0  0  0  0  0  0  0  0  0
   48.4765   34.8110   38.6535 H   0  0  0  0  0  0  0  0  0  0  0  0
   46.5858   33.1983   39.0852 H   0  0  0  0  0  0  0  0  0  0  0  0
   44.3529   32.5872   47.8860 H   0  0  0  0  0  0  0  0  0  0  0  0
   45.8906   31.5058   49.8321 H   0  0  0  0  0  0  0  0  0  0  0  0
   50.1757   33.0886   49.4042 H   0  0  0  0  0  0  0  0  0  0  0  0
   51.5223   31.2607   50.8165 H   0  0  0  0  0  0  0  0  0  0  0  0
   47.8156   29.5098   49.5483 H   0  0  0  0  0  0  0  0  0  0  0  0
  1  2  1  0
  1  5  2  0
  2  3  2  0
  3  4  1  0
  4 12  1  0
  5  4  1  0
  6 11  2  0
  7  8  2  0
  7  6  1  0
  8  9  1  0
  9 10  2  0
 10  1  1  0
 11 10  1  0
 12 16  1  0
 12 13  2  0
 13 14  1  0
 15 14  2  0
 15 17  1  0
 16 15  1  0
 17 18  1  0
 17 21  1  0
 18 19  2  0
 19 20  1  0
 21 20  2  0
  2 22  1  0
  3 23  1  0
  6 24  1  0
  7 25  1  0
  8 26  1  0
 13 27  1  0
 14 28  1  0
 18 29  1  0
 19 30  1  0
 21 31  1  0
M  ISO  8  22  14  23  14  24  14  25  14  26  14  27  14  28  14  29  14
M  ISO  2  30  14  31  14
M  END
>  <minimizedAffinity>  (1) 
-5.79419661

>  <minimizedRMSD>  (1) 
0.35625273

$$$$
