
     RDKit          3D

 37 40  0  0  0  0  0  0  0  0999 V2000
   46.6650   33.8000   43.8460 C   0  0  0  0  0  0  0  0  0  0  0  0
   45.5410   34.3840   44.3940 C   0  0  0  0  0  0  0  0  0  0  0  0
   45.3950   33.9660   45.7150 C   0  0  0  0  0  0  0  0  0  0  0  0
   46.4390   33.1360   45.9240 N   0  0  0  0  0  0  0  0  0  0  0  0
   47.2040   33.0210   44.8390 N   0  0  0  0  0  0  0  0  0  0  0  0
   48.4590   35.0940   40.9190 C   0  0  0  0  0  0  0  0  0  0  0  0
   47.7470   34.4790   39.8600 C   0  0  0  0  0  0  0  0  0  0  0  0
   46.6900   33.6490   40.1690 C   0  0  0  0  0  0  0  0  0  0  0  0
   46.3750   33.4580   41.4860 N   0  0  0  0  0  0  0  0  0  0  0  0
   47.0680   34.0550   42.4730 C   0  0  0  0  0  0  0  0  0  0  0  0
   48.1030   34.8690   42.2160 N   0  0  0  0  0  0  0  0  0  0  0  0
   46.6620   32.4850   47.1700 C   0  0  0  0  0  0  0  0  0  0  0  0
   45.8520   32.0460   48.2080 C   0  0  0  0  0  0  0  0  0  0  0  0
   46.7460   31.4950   49.1130 C   0  0  0  0  0  0  0  0  0  0  0  0
   48.0210   31.6130   48.6120 C   0  0  0  0  0  0  0  0  0  0  0  0
   47.8840   32.2040   47.4710 O   0  0  0  0  0  0  0  0  0  0  0  0
   49.2950   31.2100   49.1390 N   0  0  0  0  0  0  0  0  0  0  0  0
   49.8360   29.9260   48.6970 C   0  0  0  0  0  0  0  0  0  0  0  0
   50.1030   29.0350   49.9170 C   0  0  0  0  0  0  0  0  0  0  0  0
   49.7980   29.7550   51.0880 O   0  0  0  0  0  0  0  0  0  0  0  0
   50.7030   30.8350   51.1100 C   0  0  0  0  0  0  0  0  0  0  0  0
   50.1950   31.8530   50.0880 C   0  0  0  0  0  0  0  0  0  0  0  0
   44.8642   35.0737   43.8684 H   0  0  0  0  0  0  0  0  0  0  0  0
   44.6062   34.2488   46.4276 H   0  0  0  0  0  0  0  0  0  0  0  0
   49.3060   35.7585   40.6933 H   0  0  0  0  0  0  0  0  0  0  0  0
   48.0314   34.6598   38.8129 H   0  0  0  0  0  0  0  0  0  0  0  0
   46.1137   33.1521   39.3747 H   0  0  0  0  0  0  0  0  0  0  0  0
   44.7577   32.1183   48.2927 H   0  0  0  0  0  0  0  0  0  0  0  0
   46.4784   31.0371   50.0767 H   0  0  0  0  0  0  0  0  0  0  0  0
   49.1109   29.4316   48.0338 H   0  0  0  0  0  0  0  0  0  0  0  0
   50.7771   30.0931   48.1526 H   0  0  0  0  0  0  0  0  0  0  0  0
   49.4714   28.1361   49.8621 H   0  0  0  0  0  0  0  0  0  0  0  0
   51.1608   28.7336   49.9318 H   0  0  0  0  0  0  0  0  0  0  0  0
   50.7311   31.2860   52.1129 H   0  0  0  0  0  0  0  0  0  0  0  0
   51.7226   30.5027   50.8651 H   0  0  0  0  0  0  0  0  0  0  0  0
   51.0509   32.2799   49.5446 H   0  0  0  0  0  0  0  0  0  0  0  0
   49.6494   32.6489   50.6161 H   0  0  0  0  0  0  0  0  0  0  0  0
  1  2  1  0
  1  5  2  0
  2  3  2  0
  3  4  1  0
  4 12  1  0
  5  4  1  0
  6 11  2  0
  7  8  2  0
  7  6  1  0
  8  9  1  0
  9 10  2  0
 10  1  1  0
 11 10  1  0
 12 16  1  0
 12 13  2  0
 13 14  1  0
 15 14  2  0
 15 17  1  0
 16 15  1  0
 17 22  1  0
 18 17  1  0
 18 19  1  0
 19 20  1  0
 20 21  1  0
 22 21  1  0
  2 23  1  0
  3 24  1  0
  6 25  1  0
  7 26  1  0
  8 27  1  0
 13 28  1  0
 14 29  1  0
 18 30  1  0
 18 31  1  0
 19 32  1  0
 19 33  1  0
 21 34  1  0
 21 35  1  0
 22 36  1  0
 22 37  1  0
M  ISO  8  23  14  24  14  25  14  26  14  27  14  28  14  29  14  30  13
M  ISO  7  31  13  32  13  33  13  34  13  35  13  36  13  37  13
M  END
>  <minimizedAffinity>  (1) 
-5.71054029

>  <minimizedRMSD>  (1) 
0.750873148

$$$$
