
     RDKit          3D

 44 48  0  0  0  0  0  0  0  0999 V2000
   46.3300   32.9140   46.7890 C   0  0  0  0  0  0  0  0  0  0  0  0
   45.4790   32.7690   47.8840 C   0  0  0  0  0  0  0  0  0  0  0  0
   46.2150   32.0510   48.8050 C   0  0  0  0  0  0  0  0  0  0  0  0
   47.4600   31.7860   48.2610 C   0  0  0  0  0  0  0  0  0  0  0  0
   47.4470   32.3250   47.0770 O   0  0  0  0  0  0  0  0  0  0  0  0
   48.4830   31.0660   48.9250 N   0  0  0  0  0  0  0  0  0  0  0  0
   49.4760   31.4430   49.7980 C   0  0  0  0  0  0  0  0  0  0  0  0
   50.1880   30.3100   50.1240 C   0  0  0  0  0  0  0  0  0  0  0  0
   49.6240   29.2770   49.4530 N   0  0  0  0  0  0  0  0  0  0  0  0
   48.5900   29.7470   48.7280 C   0  0  0  0  0  0  0  0  0  0  0  0
   47.9050   28.7550   47.9690 N   0  0  0  0  0  0  0  0  0  0  0  0
   46.6670   29.1600   47.5590 C   0  0  0  0  0  0  0  0  0  0  0  0
   45.8790   28.3130   46.8150 C   0  0  0  0  0  0  0  0  0  0  0  0
   44.5100   28.7300   46.3480 C   0  0  0  0  0  0  0  0  0  0  0  0
   46.3690   27.0640   46.4990 C   0  0  0  0  0  0  0  0  0  0  0  0
   45.6900   26.2580   45.8230 O   0  0  0  0  0  0  0  0  0  0  0  0
   47.5950   26.6950   46.9170 N   0  0  0  0  0  0  0  0  0  0  0  0
   48.3740   27.5240   47.6510 C   0  0  0  0  0  0  0  0  0  0  0  0
   49.5280   27.2540   48.0790 O   0  0  0  0  0  0  0  0  0  0  0  0
   46.6520   34.1230   43.4570 C   0  0  0  0  0  0  0  0  0  0  0  0
   45.4790   34.7410   43.8780 C   0  0  0  0  0  0  0  0  0  0  0  0
   45.2170   34.3530   45.1970 C   0  0  0  0  0  0  0  0  0  0  0  0
   46.2230   33.5260   45.5310 N   0  0  0  0  0  0  0  0  0  0  0  0
   47.0850   33.3710   44.5240 N   0  0  0  0  0  0  0  0  0  0  0  0
   48.6720   35.4130   40.6770 C   0  0  0  0  0  0  0  0  0  0  0  0
   48.1420   34.7120   39.5980 C   0  0  0  0  0  0  0  0  0  0  0  0
   47.0960   33.8000   39.8230 C   0  0  0  0  0  0  0  0  0  0  0  0
   46.6360   33.6370   41.1060 N   0  0  0  0  0  0  0  0  0  0  0  0
   47.1810   34.3380   42.1150 C   0  0  0  0  0  0  0  0  0  0  0  0
   48.1850   35.2180   41.9310 N   0  0  0  0  0  0  0  0  0  0  0  0
   44.4502   33.1434   47.9903 H   0  0  0  0  0  0  0  0  0  0  0  0
   45.8704   31.7417   49.8028 H   0  0  0  0  0  0  0  0  0  0  0  0
   49.6666   32.4613   50.1678 H   0  0  0  0  0  0  0  0  0  0  0  0
   51.0524   30.2543   50.8020 H   0  0  0  0  0  0  0  0  0  0  0  0
   46.3003   30.1628   47.8235 H   0  0  0  0  0  0  0  0  0  0  0  0
   43.8688   28.9253   47.2202 H   0  0  0  0  0  0  0  0  0  0  0  0
   44.5921   29.6439   45.7413 H   0  0  0  0  0  0  0  0  0  0  0  0
   44.0687   27.9255   45.7413 H   0  0  0  0  0  0  0  0  0  0  0  0
   47.9486   25.7591   46.6722 H   0  0  0  0  0  0  0  0  0  0  0  0
   44.8602   35.4215   43.2746 H   0  0  0  0  0  0  0  0  0  0  0  0
   44.3685   34.6595   45.8264 H   0  0  0  0  0  0  0  0  0  0  0  0
   49.4905   36.1296   40.5140 H   0  0  0  0  0  0  0  0  0  0  0  0
   48.5360   34.8693   38.5831 H   0  0  0  0  0  0  0  0  0  0  0  0
   46.6566   33.2306   38.9907 H   0  0  0  0  0  0  0  0  0  0  0  0
  1  5  1  0
  1  2  2  0
  2  3  1  0
  4  3  2  0
  4  6  1  0
  5  4  1  0
  6  7  1  0
  7  8  2  0
  9  8  1  0
 10  6  1  0
 10  9  2  0
 11 10  1  0
 12 11  1  0
 13 12  2  0
 14 13  1  0
 15 13  1  0
 15 17  1  0
 16 15  2  0
 17 18  1  0
 18 11  1  0
 18 19  2  0
 20 21  1  0
 20 24  2  0
 21 22  2  0
 22 23  1  0
 23  1  1  0
 24 23  1  0
 25 30  2  0
 26 27  2  0
 26 25  1  0
 27 28  1  0
 28 29  2  0
 29 20  1  0
 30 29  1  0
  2 31  1  0
  3 32  1  0
  7 33  1  0
  8 34  1  0
 12 35  1  0
 14 36  1  0
 14 37  1  0
 14 38  1  0
 17 39  1  0
 21 40  1  0
 22 41  1  0
 25 42  1  0
 26 43  1  0
 27 44  1  0
M  ISO  8  31  14  32  14  33  14  34  14  35  14  36   8  37   8  38   8
M  ISO  6  39   9  40  14  41  14  42  14  43  14  44  14
M  END
>  <minimizedAffinity>  (1) 
-6.64918566

>  <minimizedRMSD>  (1) 
1.43959963

$$$$
