
     RDKit          3D

 43 47  0  0  0  0  0  0  0  0999 V2000
   46.3780   32.7500   46.9200 C   0  0  0  0  0  0  0  0  0  0  0  0
   45.5230   32.5280   47.9840 C   0  0  0  0  0  0  0  0  0  0  0  0
   46.2720   31.8290   48.9010 C   0  0  0  0  0  0  0  0  0  0  0  0
   47.5400   31.6490   48.3790 C   0  0  0  0  0  0  0  0  0  0  0  0
   47.5350   32.2220   47.1940 O   0  0  0  0  0  0  0  0  0  0  0  0
   48.6000   30.9670   49.0390 N   0  0  0  0  0  0  0  0  0  0  0  0
   49.5220   31.3550   49.9680 C   0  0  0  0  0  0  0  0  0  0  0  0
   50.3090   30.2520   50.2360 C   0  0  0  0  0  0  0  0  0  0  0  0
   49.8480   29.2370   49.4730 N   0  0  0  0  0  0  0  0  0  0  0  0
   48.7980   29.6590   48.7340 C   0  0  0  0  0  0  0  0  0  0  0  0
   48.1960   28.6990   47.8750 N   0  0  0  0  0  0  0  0  0  0  0  0
   48.9830   27.4900   47.7560 C   0  0  0  0  0  0  0  0  0  0  0  0
   48.1600   26.5730   46.8850 C   0  0  0  0  0  0  0  0  0  0  0  0
   47.2790   27.5040   46.1100 C   0  0  0  0  0  0  0  0  0  0  0  0
   46.9890   28.5990   47.0890 C   0  0  0  0  0  0  0  0  0  0  0  0
   46.6780   34.0370   43.5980 C   0  0  0  0  0  0  0  0  0  0  0  0
   45.5290   34.6690   44.0590 C   0  0  0  0  0  0  0  0  0  0  0  0
   45.2790   34.2550   45.3700 C   0  0  0  0  0  0  0  0  0  0  0  0
   46.2770   33.3960   45.6600 N   0  0  0  0  0  0  0  0  0  0  0  0
   47.1170   33.2470   44.6360 N   0  0  0  0  0  0  0  0  0  0  0  0
   48.6520   35.3520   40.8130 C   0  0  0  0  0  0  0  0  0  0  0  0
   48.0940   34.6720   39.7120 C   0  0  0  0  0  0  0  0  0  0  0  0
   47.0570   33.7810   39.9600 C   0  0  0  0  0  0  0  0  0  0  0  0
   46.6220   33.5980   41.2380 N   0  0  0  0  0  0  0  0  0  0  0  0
   47.1930   34.2750   42.2540 C   0  0  0  0  0  0  0  0  0  0  0  0
   48.2020   35.1540   42.0840 N   0  0  0  0  0  0  0  0  0  0  0  0
   44.4729   32.8421   48.0765 H   0  0  0  0  0  0  0  0  0  0  0  0
   45.9226   31.4738   49.8817 H   0  0  0  0  0  0  0  0  0  0  0  0
   49.6195   32.3544   50.4170 H   0  0  0  0  0  0  0  0  0  0  0  0
   51.1535   30.2082   50.9395 H   0  0  0  0  0  0  0  0  0  0  0  0
   49.9528   27.7048   47.2834 H   0  0  0  0  0  0  0  0  0  0  0  0
   49.2029   27.0418   48.7362 H   0  0  0  0  0  0  0  0  0  0  0  0
   48.8052   25.9921   46.2095 H   0  0  0  0  0  0  0  0  0  0  0  0
   47.5883   25.8358   47.4678 H   0  0  0  0  0  0  0  0  0  0  0  0
   47.8015   27.8953   45.2246 H   0  0  0  0  0  0  0  0  0  0  0  0
   46.3699   27.0173   45.7269 H   0  0  0  0  0  0  0  0  0  0  0  0
   46.7838   29.5452   46.5668 H   0  0  0  0  0  0  0  0  0  0  0  0
   46.1012   28.3905   47.7042 H   0  0  0  0  0  0  0  0  0  0  0  0
   44.9161   35.3796   43.4850 H   0  0  0  0  0  0  0  0  0  0  0  0
   44.4490   34.5628   46.0230 H   0  0  0  0  0  0  0  0  0  0  0  0
   49.4740   36.0626   40.6416 H   0  0  0  0  0  0  0  0  0  0  0  0
   48.4667   34.8408   38.6909 H   0  0  0  0  0  0  0  0  0  0  0  0
   46.5911   33.2279   39.1312 H   0  0  0  0  0  0  0  0  0  0  0  0
  1  5  1  0
  1  2  2  0
  2  3  1  0
  4  3  2  0
  4  6  1  0
  5  4  1  0
  6  7  1  0
  7  8  2  0
  9  8  1  0
 10  6  1  0
 10  9  2  0
 11 10  1  0
 12 11  1  0
 13 12  1  0
 14 13  1  0
 14 15  1  0
 15 11  1  0
 16 17  1  0
 16 20  2  0
 17 18  2  0
 18 19  1  0
 19  1  1  0
 20 19  1  0
 21 26  2  0
 22 23  2  0
 22 21  1  0
 23 24  1  0
 24 25  2  0
 25 16  1  0
 26 25  1  0
  2 27  1  0
  3 28  1  0
  7 29  1  0
  8 30  1  0
 12 31  1  0
 12 32  1  0
 13 33  1  0
 13 34  1  0
 14 35  1  0
 14 36  1  0
 15 37  1  0
 15 38  1  0
 17 39  1  0
 18 40  1  0
 21 41  1  0
 22 42  1  0
 23 43  1  0
M  ISO  8  27  14  28  14  29  14  30  14  31  13  32  13  33  13  34  13
M  ISO  8  35  13  36  13  37  13  38  13  39  14  40  14  41  14  42  14
M  ISO  1  43  14
M  END
>  <minimizedAffinity>  (1) 
-6.12322092

>  <minimizedRMSD>  (1) 
1.23710859

$$$$
