
     RDKit          3D

 33 36  0  0  0  0  0  0  0  0999 V2000
   46.3850   32.7270   47.0010 C   0  0  0  0  0  0  0  0  0  0  0  0
   45.5250   32.4720   48.0540 C   0  0  0  0  0  0  0  0  0  0  0  0
   46.2950   31.7840   48.9820 C   0  0  0  0  0  0  0  0  0  0  0  0
   47.5580   31.6510   48.4720 C   0  0  0  0  0  0  0  0  0  0  0  0
   47.5390   32.2320   47.2990 O   0  0  0  0  0  0  0  0  0  0  0  0
   48.6470   30.9970   49.1340 N   0  0  0  0  0  0  0  0  0  0  0  0
   49.6170   31.4110   49.9840 C   0  0  0  0  0  0  0  0  0  0  0  0
   50.3980   30.3400   50.3020 C   0  0  0  0  0  0  0  0  0  0  0  0
   49.8870   29.2760   49.6340 N   0  0  0  0  0  0  0  0  0  0  0  0
   48.8130   29.6690   48.9150 C   0  0  0  0  0  0  0  0  0  0  0  0
   48.1070   28.7120   48.1270 N   0  0  0  0  0  0  0  0  0  0  0  0
   46.6600   34.0230   43.6960 C   0  0  0  0  0  0  0  0  0  0  0  0
   45.5140   34.6580   44.1560 C   0  0  0  0  0  0  0  0  0  0  0  0
   45.2790   34.2360   45.4710 C   0  0  0  0  0  0  0  0  0  0  0  0
   46.2800   33.3710   45.7540 N   0  0  0  0  0  0  0  0  0  0  0  0
   47.1030   33.2320   44.7230 N   0  0  0  0  0  0  0  0  0  0  0  0
   48.6460   35.3210   40.8920 C   0  0  0  0  0  0  0  0  0  0  0  0
   48.0680   34.6610   39.8100 C   0  0  0  0  0  0  0  0  0  0  0  0
   47.0110   33.7800   40.0360 C   0  0  0  0  0  0  0  0  0  0  0  0
   46.5890   33.6080   41.3270 N   0  0  0  0  0  0  0  0  0  0  0  0
   47.1690   34.2620   42.3440 C   0  0  0  0  0  0  0  0  0  0  0  0
   48.1860   35.1140   42.1640 N   0  0  0  0  0  0  0  0  0  0  0  0
   44.4647   32.7525   48.1377 H   0  0  0  0  0  0  0  0  0  0  0  0
   45.9500   31.4107   49.9575 H   0  0  0  0  0  0  0  0  0  0  0  0
   49.7517   32.4378   50.3549 H   0  0  0  0  0  0  0  0  0  0  0  0
   51.2720   30.3389   50.9699 H   0  0  0  0  0  0  0  0  0  0  0  0
   48.4178   27.7302   48.1086 H   0  0  0  0  0  0  0  0  0  0  0  0
   47.2865   29.0029   47.5765 H   0  0  0  0  0  0  0  0  0  0  0  0
   44.8975   35.3691   43.5866 H   0  0  0  0  0  0  0  0  0  0  0  0
   44.4556   34.5427   46.1328 H   0  0  0  0  0  0  0  0  0  0  0  0
   49.4814   36.0162   40.7220 H   0  0  0  0  0  0  0  0  0  0  0  0
   48.4409   34.8327   38.7895 H   0  0  0  0  0  0  0  0  0  0  0  0
   46.5323   33.2413   39.2049 H   0  0  0  0  0  0  0  0  0  0  0  0
  1  5  1  0
  1  2  2  0
  2  3  1  0
  4  3  2  0
  4  6  1  0
  5  4  1  0
  6  7  1  0
  7  8  2  0
  9  8  1  0
 10  6  1  0
 10  9  2  0
 11 10  1  0
 12 13  1  0
 12 16  2  0
 13 14  2  0
 14 15  1  0
 15  1  1  0
 16 15  1  0
 17 22  2  0
 18 19  2  0
 18 17  1  0
 19 20  1  0
 20 21  2  0
 21 12  1  0
 22 21  1  0
  2 23  1  0
  3 24  1  0
  7 25  1  0
  8 26  1  0
 11 27  1  0
 11 28  1  0
 13 29  1  0
 14 30  1  0
 17 31  1  0
 18 32  1  0
 19 33  1  0
M  ISO  8  23  14  24  14  25  14  26  14  29  14  30  14  31  14  32  14
M  ISO  1  33  14
M  END
>  <minimizedAffinity>  (1) 
-5.97010231

>  <minimizedRMSD>  (1) 
0.553560019

$$$$
