
     RDKit          3D

 18 19  0  0  0  0  0  0  0  0999 V2000
   44.6690   36.1750   44.1510 C   0  0  0  0  0  0  0  0  0  0  0  0
   45.4960   35.6720   43.1520 C   0  0  0  0  0  0  0  0  0  0  0  0
   46.2160   34.5040   43.3210 C   0  0  0  0  0  0  0  0  0  0  0  0
   46.0430   33.9050   44.5350 N   0  0  0  0  0  0  0  0  0  0  0  0
   45.2500   34.3710   45.5130 C   0  0  0  0  0  0  0  0  0  0  0  0
   44.5750   35.5000   45.3090 N   0  0  0  0  0  0  0  0  0  0  0  0
   47.1190   33.9240   42.2940 C   0  0  0  0  0  0  0  0  0  0  0  0
   47.9080   32.8760   42.5870 C   0  0  0  0  0  0  0  0  0  0  0  0
   48.7870   32.5850   41.0100 S   0  0  0  0  0  0  0  0  0  0  0  0
   47.8630   34.0240   40.2050 C   0  0  0  0  0  0  0  0  0  0  0  0
   47.2080   34.3800   41.0800 N   0  0  0  0  0  0  0  0  0  0  0  0
   48.1860   34.3010   38.7890 C   0  0  0  0  0  0  0  0  0  0  0  0
   47.5170   33.8120   37.8450 O   0  0  0  0  0  0  0  0  0  0  0  0
   44.1038   37.1059   43.9962 H   0  0  0  0  0  0  0  0  0  0  0  0
   45.5794   36.2188   42.2012 H   0  0  0  0  0  0  0  0  0  0  0  0
   45.1597   33.8294   46.4661 H   0  0  0  0  0  0  0  0  0  0  0  0
   48.0015   32.3301   43.5374 H   0  0  0  0  0  0  0  0  0  0  0  0
   49.0385   34.9555   38.5550 H   0  0  0  0  0  0  0  0  0  0  0  0
  1  6  2  0
  2  3  2  0
  2  1  1  0
  3  4  1  0
  4  5  2  0
  6  5  1  0
  7  8  2  0
  7  3  1  0
  9  8  1  0
 10  9  1  0
 10 11  2  0
 11  7  1  0
 12 10  1  0
 13 12  2  0
  1 14  1  0
  2 15  1  0
  5 16  1  0
  8 17  1  0
 12 18  1  0
M  ISO  5  14  14  15  14  16  14  17  14  18   6
M  END
>  <minimizedAffinity>  (1) 
-3.86573052

>  <minimizedRMSD>  (1) 
1.88994527

$$$$
