
     RDKit          3D

 34 37  0  0  0  0  0  0  0  0999 V2000
   46.3360   32.7600   46.8930 C   0  0  0  0  0  0  0  0  0  0  0  0
   45.4910   32.5740   47.9660 C   0  0  0  0  0  0  0  0  0  0  0  0
   46.2230   31.8280   48.8700 C   0  0  0  0  0  0  0  0  0  0  0  0
   47.4760   31.5890   48.3200 C   0  0  0  0  0  0  0  0  0  0  0  0
   47.4700   32.1660   47.1570 O   0  0  0  0  0  0  0  0  0  0  0  0
   46.6750   34.0580   43.5940 C   0  0  0  0  0  0  0  0  0  0  0  0
   45.5220   34.7100   44.0470 C   0  0  0  0  0  0  0  0  0  0  0  0
   45.2680   34.2840   45.3540 C   0  0  0  0  0  0  0  0  0  0  0  0
   46.2490   33.4110   45.6500 N   0  0  0  0  0  0  0  0  0  0  0  0
   47.0950   33.2590   44.6230 N   0  0  0  0  0  0  0  0  0  0  0  0
   48.6710   35.3820   40.8140 C   0  0  0  0  0  0  0  0  0  0  0  0
   48.1230   34.7040   39.7200 C   0  0  0  0  0  0  0  0  0  0  0  0
   47.0850   33.8110   39.9530 C   0  0  0  0  0  0  0  0  0  0  0  0
   46.6260   33.6140   41.2300 N   0  0  0  0  0  0  0  0  0  0  0  0
   47.1950   34.2990   42.2520 C   0  0  0  0  0  0  0  0  0  0  0  0
   48.2030   35.1750   42.0780 N   0  0  0  0  0  0  0  0  0  0  0  0
   48.4970   30.8490   48.9730 N   0  0  0  0  0  0  0  0  0  0  0  0
   49.3570   31.1740   49.9960 C   0  0  0  0  0  0  0  0  0  0  0  0
   50.1390   30.0630   50.2250 C   0  0  0  0  0  0  0  0  0  0  0  0
   49.7440   29.1000   49.3490 N   0  0  0  0  0  0  0  0  0  0  0  0
   48.7440   29.5780   48.5860 C   0  0  0  0  0  0  0  0  0  0  0  0
   48.1520   28.6990   47.5550 C   0  0  0  0  0  0  0  0  0  0  0  0
   48.3880   29.2310   46.3090 F   0  0  0  0  0  0  0  0  0  0  0  0
   46.7600   28.6670   47.7120 F   0  0  0  0  0  0  0  0  0  0  0  0
   48.5600   27.3900   47.6840 F   0  0  0  0  0  0  0  0  0  0  0  0
   44.4596   32.9395   48.0782 H   0  0  0  0  0  0  0  0  0  0  0  0
   45.8740   31.4832   49.8545 H   0  0  0  0  0  0  0  0  0  0  0  0
   44.9208   35.4316   43.4744 H   0  0  0  0  0  0  0  0  0  0  0  0
   44.4387   34.5971   46.0053 H   0  0  0  0  0  0  0  0  0  0  0  0
   49.4934   36.0943   40.6519 H   0  0  0  0  0  0  0  0  0  0  0  0
   48.5041   34.8736   38.7021 H   0  0  0  0  0  0  0  0  0  0  0  0
   46.6317   33.2625   39.1141 H   0  0  0  0  0  0  0  0  0  0  0  0
   49.4102   32.1351   50.5284 H   0  0  0  0  0  0  0  0  0  0  0  0
   50.9360   29.9715   50.9776 H   0  0  0  0  0  0  0  0  0  0  0  0
  1  5  1  0
  1  2  2  0
  2  3  1  0
  4  3  2  0
  4 17  1  0
  5  4  1  0
  6  7  1  0
  6 10  2  0
  7  8  2  0
  8  9  1  0
  9  1  1  0
 10  9  1  0
 11 16  2  0
 12 13  2  0
 12 11  1  0
 13 14  1  0
 14 15  2  0
 15  6  1  0
 16 15  1  0
 17 18  1  0
 18 19  2  0
 20 19  1  0
 21 17  1  0
 21 20  2  0
 22 25  1  0
 22 24  1  0
 22 21  1  0
 23 22  1  0
  2 26  1  0
  3 27  1  0
  7 28  1  0
  8 29  1  0
 11 30  1  0
 12 31  1  0
 13 32  1  0
 18 33  1  0
 19 34  1  0
M  ISO  8  26  14  27  14  28  14  29  14  30  14  31  14  32  14  33  14
M  ISO  1  34  14
M  END
>  <minimizedAffinity>  (1) 
-5.84357119

>  <minimizedRMSD>  (1) 
1.10242844

$$$$
