
     RDKit          3D

 38 42  0  0  0  0  0  0  0  0999 V2000
   46.3740   32.6810   46.9680 C   0  0  0  0  0  0  0  0  0  0  0  0
   45.5550   32.5300   48.0660 C   0  0  0  0  0  0  0  0  0  0  0  0
   46.2810   31.7400   48.9390 C   0  0  0  0  0  0  0  0  0  0  0  0
   47.5010   31.4410   48.3480 C   0  0  0  0  0  0  0  0  0  0  0  0
   47.4770   32.0290   47.1960 O   0  0  0  0  0  0  0  0  0  0  0  0
   46.6770   34.0110   43.6770 C   0  0  0  0  0  0  0  0  0  0  0  0
   45.5450   34.6680   44.1550 C   0  0  0  0  0  0  0  0  0  0  0  0
   45.3030   34.2350   45.4610 C   0  0  0  0  0  0  0  0  0  0  0  0
   46.2720   33.3480   45.7350 N   0  0  0  0  0  0  0  0  0  0  0  0
   47.0980   33.2000   44.6890 N   0  0  0  0  0  0  0  0  0  0  0  0
   48.6570   35.3550   40.8930 C   0  0  0  0  0  0  0  0  0  0  0  0
   48.0860   34.6820   39.7920 C   0  0  0  0  0  0  0  0  0  0  0  0
   47.0370   33.7840   40.0290 C   0  0  0  0  0  0  0  0  0  0  0  0
   46.6050   33.5930   41.3140 N   0  0  0  0  0  0  0  0  0  0  0  0
   47.1820   34.2570   42.3280 C   0  0  0  0  0  0  0  0  0  0  0  0
   48.1930   35.1300   42.1480 N   0  0  0  0  0  0  0  0  0  0  0  0
   48.4980   30.6470   48.9650 N   0  0  0  0  0  0  0  0  0  0  0  0
   49.2960   30.8610   50.0630 C   0  0  0  0  0  0  0  0  0  0  0  0
   50.0880   29.7440   50.2090 C   0  0  0  0  0  0  0  0  0  0  0  0
   49.7560   28.8850   49.2060 N   0  0  0  0  0  0  0  0  0  0  0  0
   48.7920   29.4400   48.4570 C   0  0  0  0  0  0  0  0  0  0  0  0
   48.2280   28.7500   47.2990 C   0  0  0  0  0  0  0  0  0  0  0  0
   48.6280   28.8060   45.9800 C   0  0  0  0  0  0  0  0  0  0  0  0
   47.7290   27.9520   45.3420 C   0  0  0  0  0  0  0  0  0  0  0  0
   46.8580   27.4380   46.2750 C   0  0  0  0  0  0  0  0  0  0  0  0
   47.1860   27.9350   47.4180 O   0  0  0  0  0  0  0  0  0  0  0  0
   44.5475   32.9455   48.2151 H   0  0  0  0  0  0  0  0  0  0  0  0
   45.9482   31.4055   49.9327 H   0  0  0  0  0  0  0  0  0  0  0  0
   44.9442   35.4026   43.5987 H   0  0  0  0  0  0  0  0  0  0  0  0
   44.4876   34.5547   46.1265 H   0  0  0  0  0  0  0  0  0  0  0  0
   49.4818   36.0651   40.7331 H   0  0  0  0  0  0  0  0  0  0  0  0
   48.4559   34.8583   38.7712 H   0  0  0  0  0  0  0  0  0  0  0  0
   46.5678   33.2408   39.1955 H   0  0  0  0  0  0  0  0  0  0  0  0
   49.3012   31.7550   50.7038 H   0  0  0  0  0  0  0  0  0  0  0  0
   50.8458   29.5772   50.9887 H   0  0  0  0  0  0  0  0  0  0  0  0
   49.4542   29.3832   45.5392 H   0  0  0  0  0  0  0  0  0  0  0  0
   47.7179   27.7256   44.2656 H   0  0  0  0  0  0  0  0  0  0  0  0
   46.0351   26.7341   46.0814 H   0  0  0  0  0  0  0  0  0  0  0  0
  1  5  1  0
  1  2  2  0
  2  3  1  0
  4  3  2  0
  4 17  1  0
  5  4  1  0
  6  7  1  0
  6 10  2  0
  7  8  2  0
  8  9  1  0
  9  1  1  0
 10  9  1  0
 11 16  2  0
 12 13  2  0
 12 11  1  0
 13 14  1  0
 14 15  2  0
 15  6  1  0
 16 15  1  0
 17 18  1  0
 18 19  2  0
 20 19  1  0
 21 17  1  0
 21 20  2  0
 22 26  1  0
 22 21  1  0
 23 22  2  0
 24 23  1  0
 24 25  2  0
 25 26  1  0
  2 27  1  0
  3 28  1  0
  7 29  1  0
  8 30  1  0
 11 31  1  0
 12 32  1  0
 13 33  1  0
 18 34  1  0
 19 35  1  0
 23 36  1  0
 24 37  1  0
 25 38  1  0
M  ISO  8  27  14  28  14  29  14  30  14  31  14  32  14  33  14  34  14
M  ISO  4  35  14  36  14  37  14  38  14
M  END
>  <minimizedAffinity>  (1) 
-5.8782382

>  <minimizedRMSD>  (1) 
1.59561062

$$$$
