
     RDKit          3D

 33 36  0  0  0  0  0  0  0  0999 V2000
   46.3680   32.6620   46.9700 C   0  0  0  0  0  0  0  0  0  0  0  0
   45.5360   32.4750   48.0560 C   0  0  0  0  0  0  0  0  0  0  0  0
   46.2750   31.7070   48.9260 C   0  0  0  0  0  0  0  0  0  0  0  0
   47.5150   31.4540   48.3500 C   0  0  0  0  0  0  0  0  0  0  0  0
   47.4890   32.0510   47.2000 O   0  0  0  0  0  0  0  0  0  0  0  0
   46.6760   34.0120   43.6820 C   0  0  0  0  0  0  0  0  0  0  0  0
   45.5410   34.6710   44.1500 C   0  0  0  0  0  0  0  0  0  0  0  0
   45.2980   34.2290   45.4580 C   0  0  0  0  0  0  0  0  0  0  0  0
   46.2740   33.3360   45.7290 N   0  0  0  0  0  0  0  0  0  0  0  0
   47.0940   33.1980   44.6940 N   0  0  0  0  0  0  0  0  0  0  0  0
   48.6710   35.3500   40.9110 C   0  0  0  0  0  0  0  0  0  0  0  0
   48.1000   34.6960   39.7990 C   0  0  0  0  0  0  0  0  0  0  0  0
   47.0490   33.8160   40.0270 C   0  0  0  0  0  0  0  0  0  0  0  0
   46.6130   33.6190   41.3060 N   0  0  0  0  0  0  0  0  0  0  0  0
   47.1870   34.2650   42.3380 C   0  0  0  0  0  0  0  0  0  0  0  0
   48.2070   35.1260   42.1640 N   0  0  0  0  0  0  0  0  0  0  0  0
   48.5290   30.6870   48.9780 N   0  0  0  0  0  0  0  0  0  0  0  0
   49.3600   30.9610   50.0360 C   0  0  0  0  0  0  0  0  0  0  0  0
   50.1580   29.8760   50.2430 C   0  0  0  0  0  0  0  0  0  0  0  0
   49.8060   28.9530   49.3070 N   0  0  0  0  0  0  0  0  0  0  0  0
   48.8140   29.4540   48.5420 C   0  0  0  0  0  0  0  0  0  0  0  0
   48.2610   28.6410   47.4570 C   0  0  0  0  0  0  0  0  0  0  0  0
   47.1450   28.0580   47.4560 O   0  0  0  0  0  0  0  0  0  0  0  0
   44.5129   32.8545   48.1944 H   0  0  0  0  0  0  0  0  0  0  0  0
   45.9408   31.3524   49.9122 H   0  0  0  0  0  0  0  0  0  0  0  0
   44.9425   35.4067   43.5927 H   0  0  0  0  0  0  0  0  0  0  0  0
   44.4820   34.5441   46.1249 H   0  0  0  0  0  0  0  0  0  0  0  0
   49.5045   36.0515   40.7586 H   0  0  0  0  0  0  0  0  0  0  0  0
   48.4758   34.8774   38.7812 H   0  0  0  0  0  0  0  0  0  0  0  0
   46.5746   33.2852   39.1884 H   0  0  0  0  0  0  0  0  0  0  0  0
   49.3784   31.8952   50.6164 H   0  0  0  0  0  0  0  0  0  0  0  0
   50.9341   29.7675   51.0149 H   0  0  0  0  0  0  0  0  0  0  0  0
   48.8807   28.5287   46.5552 H   0  0  0  0  0  0  0  0  0  0  0  0
  1  5  1  0
  1  2  2  0
  2  3  1  0
  4  3  2  0
  4 17  1  0
  5  4  1  0
  6  7  1  0
  6 10  2  0
  7  8  2  0
  8  9  1  0
  9  1  1  0
 10  9  1  0
 11 16  2  0
 12 13  2  0
 12 11  1  0
 13 14  1  0
 14 15  2  0
 15  6  1  0
 16 15  1  0
 17 18  1  0
 18 19  2  0
 20 19  1  0
 21 17  1  0
 21 20  2  0
 22 21  1  0
 23 22  2  0
  2 24  1  0
  3 25  1  0
  7 26  1  0
  8 27  1  0
 11 28  1  0
 12 29  1  0
 13 30  1  0
 18 31  1  0
 19 32  1  0
 22 33  1  0
M  ISO  8  24  14  25  14  26  14  27  14  28  14  29  14  30  14  31  14
M  ISO  2  32  14  33   6
M  END
>  <minimizedAffinity>  (1) 
-5.65238142

>  <minimizedRMSD>  (1) 
0.982877254

$$$$
