
     RDKit          3D

 36 40  0  0  0  0  0  0  0  0999 V2000
   46.3770   32.6740   46.9550 C   0  0  0  0  0  0  0  0  0  0  0  0
   45.5520   32.5100   48.0480 C   0  0  0  0  0  0  0  0  0  0  0  0
   46.2870   31.7410   48.9340 C   0  0  0  0  0  0  0  0  0  0  0  0
   47.5220   31.4680   48.3530 C   0  0  0  0  0  0  0  0  0  0  0  0
   47.4980   32.0480   47.1960 O   0  0  0  0  0  0  0  0  0  0  0  0
   46.6850   34.0080   43.6650 C   0  0  0  0  0  0  0  0  0  0  0  0
   45.5510   34.6580   44.1340 C   0  0  0  0  0  0  0  0  0  0  0  0
   45.3110   34.2200   45.4340 C   0  0  0  0  0  0  0  0  0  0  0  0
   46.3020   33.3260   45.7060 N   0  0  0  0  0  0  0  0  0  0  0  0
   47.1170   33.1880   44.6770 N   0  0  0  0  0  0  0  0  0  0  0  0
   48.6660   35.3530   40.8780 C   0  0  0  0  0  0  0  0  0  0  0  0
   48.1030   34.6950   39.7890 C   0  0  0  0  0  0  0  0  0  0  0  0
   47.0440   33.7920   40.0140 C   0  0  0  0  0  0  0  0  0  0  0  0
   46.6090   33.5950   41.2990 N   0  0  0  0  0  0  0  0  0  0  0  0
   47.1940   34.2600   42.3210 C   0  0  0  0  0  0  0  0  0  0  0  0
   48.2140   35.1370   42.1490 N   0  0  0  0  0  0  0  0  0  0  0  0
   48.5370   30.6960   48.9850 N   0  0  0  0  0  0  0  0  0  0  0  0
   49.3550   30.9690   50.0620 C   0  0  0  0  0  0  0  0  0  0  0  0
   50.1400   29.8680   50.2600 C   0  0  0  0  0  0  0  0  0  0  0  0
   49.7980   28.9670   49.3270 N   0  0  0  0  0  0  0  0  0  0  0  0
   48.8100   29.4670   48.5320 C   0  0  0  0  0  0  0  0  0  0  0  0
   48.2570   28.6760   47.4120 C   0  0  0  0  0  0  0  0  0  0  0  0
   47.1320   27.9540   47.3670 N   0  0  0  0  0  0  0  0  0  0  0  0
   46.9700   27.3940   46.2140 O   0  0  0  0  0  0  0  0  0  0  0  0
   47.9910   27.7390   45.4730 C   0  0  0  0  0  0  0  0  0  0  0  0
   48.8010   28.5320   46.1920 N   0  0  0  0  0  0  0  0  0  0  0  0
   44.5341   32.9036   48.1855 H   0  0  0  0  0  0  0  0  0  0  0  0
   45.9526   31.4038   49.9262 H   0  0  0  0  0  0  0  0  0  0  0  0
   44.9482   35.3902   43.5766 H   0  0  0  0  0  0  0  0  0  0  0  0
   44.4932   34.5307   46.1009 H   0  0  0  0  0  0  0  0  0  0  0  0
   49.4913   36.0611   40.7123 H   0  0  0  0  0  0  0  0  0  0  0  0
   48.4775   34.8761   38.7707 H   0  0  0  0  0  0  0  0  0  0  0  0
   46.5760   33.2561   39.1751 H   0  0  0  0  0  0  0  0  0  0  0  0
   49.3721   31.8981   50.6506 H   0  0  0  0  0  0  0  0  0  0  0  0
   50.9077   29.7440   51.0380 H   0  0  0  0  0  0  0  0  0  0  0  0
   48.1586   27.4298   44.4307 H   0  0  0  0  0  0  0  0  0  0  0  0
  1  5  1  0
  1  2  2  0
  2  3  1  0
  4  3  2  0
  4 17  1  0
  5  4  1  0
  6  7  1  0
  6 10  2  0
  7  8  2  0
  8  9  1  0
  9  1  1  0
 10  9  1  0
 11 16  2  0
 12 13  2  0
 12 11  1  0
 13 14  1  0
 14 15  2  0
 15  6  1  0
 16 15  1  0
 17 18  1  0
 18 19  2  0
 20 19  1  0
 21 17  1  0
 21 20  2  0
 22 21  1  0
 23 22  2  0
 24 23  1  0
 25 26  2  0
 25 24  1  0
 26 22  1  0
  2 27  1  0
  3 28  1  0
  7 29  1  0
  8 30  1  0
 11 31  1  0
 12 32  1  0
 13 33  1  0
 18 34  1  0
 19 35  1  0
 25 36  1  0
M  ISO  8  27  14  28  14  29  14  30  14  31  14  32  14  33  14  34  14
M  ISO  2  35  14  36  14
M  END
>  <minimizedAffinity>  (1) 
-5.81237698

>  <minimizedRMSD>  (1) 
1.50005889

$$$$
