
     RDKit          3D

 44 48  0  0  0  0  0  0  0  0999 V2000
   46.3190   32.7490   46.8890 C   0  0  0  0  0  0  0  0  0  0  0  0
   45.4740   32.5780   47.9780 C   0  0  0  0  0  0  0  0  0  0  0  0
   46.2000   31.8060   48.8690 C   0  0  0  0  0  0  0  0  0  0  0  0
   47.4310   31.5430   48.2990 C   0  0  0  0  0  0  0  0  0  0  0  0
   47.4400   32.1250   47.1360 O   0  0  0  0  0  0  0  0  0  0  0  0
   46.6510   34.0780   43.6000 C   0  0  0  0  0  0  0  0  0  0  0  0
   45.5200   34.7250   44.0560 C   0  0  0  0  0  0  0  0  0  0  0  0
   45.2670   34.2950   45.3520 C   0  0  0  0  0  0  0  0  0  0  0  0
   46.2320   33.4120   45.6520 N   0  0  0  0  0  0  0  0  0  0  0  0
   47.0690   33.2640   44.6250 N   0  0  0  0  0  0  0  0  0  0  0  0
   48.6830   35.3890   40.8360 C   0  0  0  0  0  0  0  0  0  0  0  0
   48.1310   34.7170   39.7290 C   0  0  0  0  0  0  0  0  0  0  0  0
   47.0810   33.8340   39.9510 C   0  0  0  0  0  0  0  0  0  0  0  0
   46.6260   33.6540   41.2310 N   0  0  0  0  0  0  0  0  0  0  0  0
   47.1830   34.3160   42.2580 C   0  0  0  0  0  0  0  0  0  0  0  0
   48.1970   35.1750   42.0820 N   0  0  0  0  0  0  0  0  0  0  0  0
   48.4440   30.7700   48.9350 N   0  0  0  0  0  0  0  0  0  0  0  0
   49.2590   31.0230   50.0090 C   0  0  0  0  0  0  0  0  0  0  0  0
   50.0550   29.9120   50.1850 C   0  0  0  0  0  0  0  0  0  0  0  0
   49.7170   29.0180   49.2310 N   0  0  0  0  0  0  0  0  0  0  0  0
   48.7360   29.5420   48.4700 C   0  0  0  0  0  0  0  0  0  0  0  0
   47.4730   27.4350   45.0890 C   0  0  0  0  0  0  0  0  0  0  0  0
   48.6210   28.2100   45.0440 C   0  0  0  0  0  0  0  0  0  0  0  0
   48.9700   28.8810   46.2210 C   0  0  0  0  0  0  0  0  0  0  0  0
   48.1930   28.7620   47.3610 C   0  0  0  0  0  0  0  0  0  0  0  0
   47.0600   27.9810   47.3630 C   0  0  0  0  0  0  0  0  0  0  0  0
   46.6980   27.3120   46.2150 C   0  0  0  0  0  0  0  0  0  0  0  0
   47.0140   26.5790   43.6130 S   0  0  0  0  0  0  0  0  0  0  0  0
   46.0870   25.4580   43.9060 O   0  0  0  0  0  0  0  0  0  0  0  0
   46.3870   27.6150   42.7070 O   0  0  0  0  0  0  0  0  0  0  0  0
   44.4538   32.9693   48.1046 H   0  0  0  0  0  0  0  0  0  0  0  0
   45.8574   31.4627   49.8563 H   0  0  0  0  0  0  0  0  0  0  0  0
   44.9224   35.4551   43.4905 H   0  0  0  0  0  0  0  0  0  0  0  0
   44.4401   34.6146   46.0032 H   0  0  0  0  0  0  0  0  0  0  0  0
   49.5151   36.0930   40.6880 H   0  0  0  0  0  0  0  0  0  0  0  0
   48.5207   34.8864   38.7144 H   0  0  0  0  0  0  0  0  0  0  0  0
   46.6227   33.2885   39.1129 H   0  0  0  0  0  0  0  0  0  0  0  0
   49.2743   31.9404   50.6158 H   0  0  0  0  0  0  0  0  0  0  0  0
   50.8241   29.7780   50.9599 H   0  0  0  0  0  0  0  0  0  0  0  0
   49.2268   28.2933   44.1297 H   0  0  0  0  0  0  0  0  0  0  0  0
   49.8720   29.5103   46.2410 H   0  0  0  0  0  0  0  0  0  0  0  0
   46.4490   27.8919   48.2733 H   0  0  0  0  0  0  0  0  0  0  0  0
   45.7949   26.6841   46.2006 H   0  0  0  0  0  0  0  0  0  0  0  0
   48.0999   26.0023   43.0088 H   0  0  0  0  0  0  0  0  0  0  0  0
  1  5  1  0
  1  2  2  0
  2  3  1  0
  4  3  2  0
  4 17  1  0
  5  4  1  0
  6  7  1  0
  6 10  2  0
  7  8  2  0
  8  9  1  0
  9  1  1  0
 10  9  1  0
 11 16  2  0
 12 13  2  0
 12 11  1  0
 13 14  1  0
 14 15  2  0
 15  6  1  0
 16 15  1  0
 17 18  1  0
 18 19  2  0
 20 19  1  0
 21 17  1  0
 21 20  2  0
 22 27  2  0
 23 22  1  0
 23 24  2  0
 24 25  1  0
 25 26  2  0
 25 21  1  0
 27 26  1  0
 28 29  2  0
 28 22  1  0
 30 28  2  0
  2 31  1  0
  3 32  1  0
  7 33  1  0
  8 34  1  0
 11 35  1  0
 12 36  1  0
 13 37  1  0
 18 38  1  0
 19 39  1  0
 23 40  1  0
 24 41  1  0
 26 42  1  0
 27 43  1  0
 28 44  1  0
M  ISO  8  31  14  32  14  33  14  34  14  35  14  36  14  37  14  38  14
M  ISO  6  39  14  40  14  41  14  42  14  43  14  44  11
M  END
>  <minimizedAffinity>  (1) 
-5.72611952

>  <minimizedRMSD>  (1) 
2.58930731

$$$$
