
     RDKit          3D

 52 57  0  0  1  0  0  0  0  0999 V2000
   46.3670   32.6560   46.9380 C   0  0  0  0  0  0  0  0  0  0  0  0
   45.5360   32.4780   48.0130 C   0  0  0  0  0  0  0  0  0  0  0  0
   46.2500   31.6830   48.9010 C   0  0  0  0  0  0  0  0  0  0  0  0
   47.4630   31.4220   48.3290 C   0  0  0  0  0  0  0  0  0  0  0  0
   47.4630   32.0280   47.1710 O   0  0  0  0  0  0  0  0  0  0  0  0
   46.6790   34.0360   43.6570 C   0  0  0  0  0  0  0  0  0  0  0  0
   45.5530   34.6940   44.1350 C   0  0  0  0  0  0  0  0  0  0  0  0
   45.2950   34.2510   45.4390 C   0  0  0  0  0  0  0  0  0  0  0  0
   46.2680   33.3470   45.7050 N   0  0  0  0  0  0  0  0  0  0  0  0
   47.0940   33.2030   44.6730 N   0  0  0  0  0  0  0  0  0  0  0  0
   48.6780   35.3740   40.8930 C   0  0  0  0  0  0  0  0  0  0  0  0
   48.1280   34.7290   39.7890 C   0  0  0  0  0  0  0  0  0  0  0  0
   47.0640   33.8330   40.0170 C   0  0  0  0  0  0  0  0  0  0  0  0
   46.6150   33.6300   41.2990 N   0  0  0  0  0  0  0  0  0  0  0  0
   47.1980   34.2900   42.3160 C   0  0  0  0  0  0  0  0  0  0  0  0
   48.2090   35.1490   42.1410 N   0  0  0  0  0  0  0  0  0  0  0  0
   48.4850   30.6350   48.9320 N   0  0  0  0  0  0  0  0  0  0  0  0
   49.3330   30.8710   49.9930 C   0  0  0  0  0  0  0  0  0  0  0  0
   50.1320   29.7540   50.1370 C   0  0  0  0  0  0  0  0  0  0  0  0
   49.7630   28.8610   49.1730 N   0  0  0  0  0  0  0  0  0  0  0  0
   48.7700   29.4080   48.4570 C   0  0  0  0  0  0  0  0  0  0  0  0
   48.1140   28.6910   47.3080 C   0  0  1  0  0  0  0  0  0  0  0  0
   48.1980   27.1250   47.3980 C   0  0  0  0  0  0  0  0  0  0  0  0
   46.9240   27.8770   47.4960 C   0  0  2  0  0  0  0  0  0  0  0  0
   45.9790   27.9710   46.4290 N   0  0  0  0  0  0  0  0  0  0  0  0
   44.6560   28.3580   46.8740 C   0  0  0  0  0  0  0  0  0  0  0  0
   43.7150   28.5800   45.7300 C   0  0  0  0  0  0  0  0  0  0  0  0
   44.1840   29.6720   44.9010 N   0  0  0  0  0  0  0  0  0  0  0  0
   45.6110   29.8790   44.9670 C   0  0  0  0  0  0  0  0  0  0  0  0
   46.4060   28.6390   45.2510 C   0  0  0  0  0  0  0  0  0  0  0  0
   44.5202   32.8790   48.1448 H   0  0  0  0  0  0  0  0  0  0  0  0
   45.9029   31.3292   49.8830 H   0  0  0  0  0  0  0  0  0  0  0  0
   44.9621   35.4389   43.5819 H   0  0  0  0  0  0  0  0  0  0  0  0
   44.4782   34.5689   46.1036 H   0  0  0  0  0  0  0  0  0  0  0  0
   49.5093   36.0796   40.7475 H   0  0  0  0  0  0  0  0  0  0  0  0
   48.5103   34.9121   38.7740 H   0  0  0  0  0  0  0  0  0  0  0  0
   46.5971   33.3008   39.1751 H   0  0  0  0  0  0  0  0  0  0  0  0
   49.3669   31.7807   50.6105 H   0  0  0  0  0  0  0  0  0  0  0  0
   50.9208   29.6103   50.8901 H   0  0  0  0  0  0  0  0  0  0  0  0
   48.3593   29.4962   46.5998 H   0  0  0  0  0  0  0  0  0  0  0  0
   48.4255   26.5254   46.5043 H   0  0  0  0  0  0  0  0  0  0  0  0
   48.7385   26.3907   48.0133 H   0  0  0  0  0  0  0  0  0  0  0  0
   46.1204   27.7833   48.2413 H   0  0  0  0  0  0  0  0  0  0  0  0
   44.2513   27.5615   47.5157 H   0  0  0  0  0  0  0  0  0  0  0  0
   44.7491   29.3068   47.4228 H   0  0  0  0  0  0  0  0  0  0  0  0
   43.6564   27.6634   45.1246 H   0  0  0  0  0  0  0  0  0  0  0  0
   42.7206   28.8321   46.1269 H   0  0  0  0  0  0  0  0  0  0  0  0
   43.7155   30.5368   45.2067 H   0  0  0  0  0  0  0  0  0  0  0  0
   45.9441   30.2873   44.0014 H   0  0  0  0  0  0  0  0  0  0  0  0
   45.7895   30.5651   45.8081 H   0  0  0  0  0  0  0  0  0  0  0  0
   46.3012   27.9512   44.3990 H   0  0  0  0  0  0  0  0  0  0  0  0
   47.4522   28.9431   45.4027 H   0  0  0  0  0  0  0  0  0  0  0  0
  1  5  1  0
  1  2  2  0
  2  3  1  0
  4  3  2  0
  4 17  1  0
  5  4  1  0
  6  7  1  0
  6 10  2  0
  7  8  2  0
  8  9  1  0
  9  1  1  0
 10  9  1  0
 11 16  2  0
 12 13  2  0
 12 11  1  0
 13 14  1  0
 14 15  2  0
 15  6  1  0
 16 15  1  0
 17 18  1  0
 18 19  2  0
 20 19  1  0
 21 17  1  0
 21 20  2  0
 22 23  1  0
 22 24  1  0
 22 21  1  0
 23 24  1  0
 25 26  1  0
 25 24  1  0
 27 26  1  0
 28 29  1  0
 28 27  1  0
 29 30  1  0
 30 25  1  0
  2 31  1  0
  3 32  1  0
  7 33  1  0
  8 34  1  0
 11 35  1  0
 12 36  1  0
 13 37  1  0
 18 38  1  0
 19 39  1  0
 22 40  1  6
 23 41  1  0
 23 42  1  0
 24 43  1  1
 26 44  1  0
 26 45  1  0
 27 46  1  0
 27 47  1  0
 28 48  1  0
 29 49  1  0
 29 50  1  0
 30 51  1  0
 30 52  1  0
M  ISO  8  31  14  32  14  33  14  34  14  35  14  36  14  37  14  38  14
M  ISO  8  39  14  40  13  41  13  42  13  43  13  44  13  45  13  46  13
M  ISO  6  47  13  48   5  49  13  50  13  51  13  52  13
M  END
>  <minimizedAffinity>  (1) 
-6.32967901

>  <minimizedRMSD>  (1) 
0.405380577

$$$$
