
     RDKit          3D

 50 55  0  0  1  0  0  0  0  0999 V2000
   46.3490   32.7360   46.8890 C   0  0  0  0  0  0  0  0  0  0  0  0
   45.5690   32.6500   48.0130 C   0  0  0  0  0  0  0  0  0  0  0  0
   46.2510   31.8210   48.8760 C   0  0  0  0  0  0  0  0  0  0  0  0
   47.4040   31.4360   48.2580 C   0  0  0  0  0  0  0  0  0  0  0  0
   47.4040   32.0120   47.0830 O   0  0  0  0  0  0  0  0  0  0  0  0
   46.6690   34.0690   43.5940 C   0  0  0  0  0  0  0  0  0  0  0  0
   45.5290   34.7180   44.0520 C   0  0  0  0  0  0  0  0  0  0  0  0
   45.2700   34.2900   45.3600 C   0  0  0  0  0  0  0  0  0  0  0  0
   46.2610   33.3990   45.6440 N   0  0  0  0  0  0  0  0  0  0  0  0
   47.0940   33.2530   44.6230 N   0  0  0  0  0  0  0  0  0  0  0  0
   48.6880   35.3920   40.8210 C   0  0  0  0  0  0  0  0  0  0  0  0
   48.1430   34.7290   39.7300 C   0  0  0  0  0  0  0  0  0  0  0  0
   47.0910   33.8380   39.9570 C   0  0  0  0  0  0  0  0  0  0  0  0
   46.6300   33.6430   41.2360 N   0  0  0  0  0  0  0  0  0  0  0  0
   47.1970   34.3120   42.2490 C   0  0  0  0  0  0  0  0  0  0  0  0
   48.2080   35.1750   42.0750 N   0  0  0  0  0  0  0  0  0  0  0  0
   48.3890   30.5650   48.8360 N   0  0  0  0  0  0  0  0  0  0  0  0
   49.1040   30.6270   50.0060 C   0  0  0  0  0  0  0  0  0  0  0  0
   49.9150   29.5090   50.0420 C   0  0  0  0  0  0  0  0  0  0  0  0
   49.6770   28.7960   48.8980 N   0  0  0  0  0  0  0  0  0  0  0  0
   48.7530   29.4560   48.1920 C   0  0  0  0  0  0  0  0  0  0  0  0
   48.2520   28.9410   46.8760 C   0  0  1  0  0  0  0  0  0  0  0  0
   47.9610   27.4090   46.8120 C   0  0  0  0  0  0  0  0  0  0  0  0
   46.9160   28.4560   46.6670 C   0  0  1  0  0  0  0  0  0  0  0  0
   45.8370   28.4290   47.5760 N   0  0  0  0  0  0  0  0  0  0  0  0
   44.6820   29.1630   47.0300 C   0  0  0  0  0  0  0  0  0  0  0  0
   43.9580   28.1680   46.1580 C   0  0  0  0  0  0  0  0  0  0  0  0
   44.1770   26.8820   46.8850 C   0  0  0  0  0  0  0  0  0  0  0  0
   45.2730   27.1620   47.9050 C   0  0  0  0  0  0  0  0  0  0  0  0
   44.6004   33.1407   48.1890 H   0  0  0  0  0  0  0  0  0  0  0  0
   45.9242   31.5229   49.8832 H   0  0  0  0  0  0  0  0  0  0  0  0
   44.9309   35.4452   43.4832 H   0  0  0  0  0  0  0  0  0  0  0  0
   44.4451   34.6049   46.0161 H   0  0  0  0  0  0  0  0  0  0  0  0
   49.5163   36.0999   40.6699 H   0  0  0  0  0  0  0  0  0  0  0  0
   48.5289   34.9004   38.7143 H   0  0  0  0  0  0  0  0  0  0  0  0
   46.6345   33.2956   39.1159 H   0  0  0  0  0  0  0  0  0  0  0  0
   49.0430   31.4164   50.7696 H   0  0  0  0  0  0  0  0  0  0  0  0
   50.6212   29.2414   50.8418 H   0  0  0  0  0  0  0  0  0  0  0  0
   48.8542   29.6921   46.3439 H   0  0  0  0  0  0  0  0  0  0  0  0
   48.2817   26.8136   45.9444 H   0  0  0  0  0  0  0  0  0  0  0  0
   48.1329   26.5349   47.4574 H   0  0  0  0  0  0  0  0  0  0  0  0
   46.1812   28.7825   45.9163 H   0  0  0  0  0  0  0  0  0  0  0  0
   44.0276   29.5120   47.8424 H   0  0  0  0  0  0  0  0  0  0  0  0
   44.9910   30.0556   46.4663 H   0  0  0  0  0  0  0  0  0  0  0  0
   44.3936   28.1332   45.1485 H   0  0  0  0  0  0  0  0  0  0  0  0
   42.8959   28.4100   46.0051 H   0  0  0  0  0  0  0  0  0  0  0  0
   43.2533   26.5669   47.3924 H   0  0  0  0  0  0  0  0  0  0  0  0
   44.4619   26.0721   46.1973 H   0  0  0  0  0  0  0  0  0  0  0  0
   46.0452   26.3803   47.8535 H   0  0  0  0  0  0  0  0  0  0  0  0
   44.8652   27.1680   48.9266 H   0  0  0  0  0  0  0  0  0  0  0  0
  1  5  1  0
  1  2  2  0
  2  3  1  0
  4 17  1  0
  4  3  2  0
  5  4  1  0
  6  7  1  0
  6 10  2  0
  7  8  2  0
  8  9  1  0
  9  1  1  0
 10  9  1  0
 11 16  2  0
 12 13  2  0
 12 11  1  0
 13 14  1  0
 14 15  2  0
 15  6  1  0
 16 15  1  0
 17 18  1  0
 18 19  2  0
 20 19  1  0
 21 17  1  0
 21 20  2  0
 22 21  1  0
 23 22  1  0
 24 23  1  0
 24 22  1  0
 24 25  1  0
 25 26  1  0
 25 29  1  0
 27 28  1  0
 27 26  1  0
 28 29  1  0
  2 30  1  0
  3 31  1  0
  7 32  1  0
  8 33  1  0
 11 34  1  0
 12 35  1  0
 13 36  1  0
 18 37  1  0
 19 38  1  0
 22 39  1  6
 23 40  1  0
 23 41  1  0
 24 42  1  6
 26 43  1  0
 26 44  1  0
 27 45  1  0
 27 46  1  0
 28 47  1  0
 28 48  1  0
 29 49  1  0
 29 50  1  0
M  ISO  8  30  14  31  14  32  14  33  14  34  14  35  14  36  14  37  14
M  ISO  8  38  14  39  13  40  13  41  13  42  13  43  13  44  13  45  13
M  ISO  5  46  13  47  13  48  13  49  13  50  13
M  END
>  <minimizedAffinity>  (1) 
-6.33452606

>  <minimizedRMSD>  (1) 
0.594992518

$$$$
