
     RDKit          3D

 53 58  0  0  1  0  0  0  0  0999 V2000
   46.3690   32.6510   46.9420 C   0  0  0  0  0  0  0  0  0  0  0  0
   45.5400   32.4850   48.0280 C   0  0  0  0  0  0  0  0  0  0  0  0
   46.2520   31.6820   48.9150 C   0  0  0  0  0  0  0  0  0  0  0  0
   47.4560   31.4070   48.3320 C   0  0  0  0  0  0  0  0  0  0  0  0
   47.4550   32.0100   47.1710 O   0  0  0  0  0  0  0  0  0  0  0  0
   46.6620   34.0330   43.6720 C   0  0  0  0  0  0  0  0  0  0  0  0
   45.5410   34.6850   44.1450 C   0  0  0  0  0  0  0  0  0  0  0  0
   45.2880   34.2420   45.4480 C   0  0  0  0  0  0  0  0  0  0  0  0
   46.2640   33.3370   45.7200 N   0  0  0  0  0  0  0  0  0  0  0  0
   47.0850   33.2000   44.6820 N   0  0  0  0  0  0  0  0  0  0  0  0
   48.6770   35.3610   40.8920 C   0  0  0  0  0  0  0  0  0  0  0  0
   48.1160   34.7120   39.7950 C   0  0  0  0  0  0  0  0  0  0  0  0
   47.0580   33.8310   40.0160 C   0  0  0  0  0  0  0  0  0  0  0  0
   46.6000   33.6270   41.3040 N   0  0  0  0  0  0  0  0  0  0  0  0
   47.1850   34.2850   42.3220 C   0  0  0  0  0  0  0  0  0  0  0  0
   48.2050   35.1400   42.1480 N   0  0  0  0  0  0  0  0  0  0  0  0
   48.4810   30.6030   48.9330 N   0  0  0  0  0  0  0  0  0  0  0  0
   49.3110   30.8240   50.0070 C   0  0  0  0  0  0  0  0  0  0  0  0
   50.1070   29.7090   50.1310 C   0  0  0  0  0  0  0  0  0  0  0  0
   49.7550   28.8370   49.1440 N   0  0  0  0  0  0  0  0  0  0  0  0
   48.7700   29.3950   48.4300 C   0  0  0  0  0  0  0  0  0  0  0  0
   48.1220   28.6940   47.2520 C   0  0  1  0  0  0  0  0  0  0  0  0
   47.7660   27.1890   47.5380 C   0  0  0  0  0  0  0  0  0  0  0  0
   46.7480   28.2360   47.3160 C   0  0  2  0  0  0  0  0  0  0  0  0
   45.9200   28.2640   46.1440 N   0  0  0  0  0  0  0  0  0  0  0  0
   45.7770   27.0460   45.4320 C   0  0  0  0  0  0  0  0  0  0  0  0
   44.5960   26.2080   45.8050 C   0  0  0  0  0  0  0  0  0  0  0  0
   43.4640   27.0400   46.3570 C   0  0  0  0  0  0  0  0  0  0  0  0
   43.5170   28.4060   45.7410 C   0  0  0  0  0  0  0  0  0  0  0  0
   44.7710   29.0930   46.2390 C   0  0  0  0  0  0  0  0  0  0  0  0
   44.5301   32.8986   48.1658 H   0  0  0  0  0  0  0  0  0  0  0  0
   45.9090   31.3343   49.9006 H   0  0  0  0  0  0  0  0  0  0  0  0
   44.9471   35.4272   43.5914 H   0  0  0  0  0  0  0  0  0  0  0  0
   44.4708   34.5597   46.1123 H   0  0  0  0  0  0  0  0  0  0  0  0
   49.5120   36.0609   40.7407 H   0  0  0  0  0  0  0  0  0  0  0  0
   48.4982   34.8900   38.7790 H   0  0  0  0  0  0  0  0  0  0  0  0
   46.5914   33.3024   39.1717 H   0  0  0  0  0  0  0  0  0  0  0  0
   49.3340   31.7202   50.6444 H   0  0  0  0  0  0  0  0  0  0  0  0
   50.8871   29.5497   50.8900 H   0  0  0  0  0  0  0  0  0  0  0  0
   48.6732   29.2923   46.5116 H   0  0  0  0  0  0  0  0  0  0  0  0
   47.9490   26.4168   46.7763 H   0  0  0  0  0  0  0  0  0  0  0  0
   47.9929   26.4515   48.3220 H   0  0  0  0  0  0  0  0  0  0  0  0
   45.8710   28.5449   47.9038 H   0  0  0  0  0  0  0  0  0  0  0  0
   46.6834   26.4468   45.6032 H   0  0  0  0  0  0  0  0  0  0  0  0
   45.6205   27.3312   44.3812 H   0  0  0  0  0  0  0  0  0  0  0  0
   44.2417   25.6753   44.9102 H   0  0  0  0  0  0  0  0  0  0  0  0
   44.9130   25.5034   46.5880 H   0  0  0  0  0  0  0  0  0  0  0  0
   42.5031   26.5629   46.1141 H   0  0  0  0  0  0  0  0  0  0  0  0
   43.5607   27.1210   47.4497 H   0  0  0  0  0  0  0  0  0  0  0  0
   42.6304   28.9849   46.0388 H   0  0  0  0  0  0  0  0  0  0  0  0
   43.5313   28.3311   44.6436 H   0  0  0  0  0  0  0  0  0  0  0  0
   44.6247   29.3736   47.2925 H   0  0  0  0  0  0  0  0  0  0  0  0
   44.9425   29.9755   45.6052 H   0  0  0  0  0  0  0  0  0  0  0  0
  1  5  1  0
  1  2  2  0
  2  3  1  0
  4  3  2  0
  4 17  1  0
  5  4  1  0
  6  7  1  0
  6 10  2  0
  7  8  2  0
  8  9  1  0
  9  1  1  0
 10  9  1  0
 11 16  2  0
 12 13  2  0
 12 11  1  0
 13 14  1  0
 14 15  2  0
 15  6  1  0
 16 15  1  0
 17 18  1  0
 18 19  2  0
 20 19  1  0
 21 17  1  0
 21 20  2  0
 22 24  1  0
 22 23  1  0
 22 21  1  0
 24 23  1  0
 25 30  1  0
 25 24  1  0
 26 27  1  0
 26 25  1  0
 27 28  1  0
 29 30  1  0
 29 28  1  0
  2 31  1  0
  3 32  1  0
  7 33  1  0
  8 34  1  0
 11 35  1  0
 12 36  1  0
 13 37  1  0
 18 38  1  0
 19 39  1  0
 22 40  1  6
 23 41  1  0
 23 42  1  0
 24 43  1  1
 26 44  1  0
 26 45  1  0
 27 46  1  0
 27 47  1  0
 28 48  1  0
 28 49  1  0
 29 50  1  0
 29 51  1  0
 30 52  1  0
 30 53  1  0
M  ISO  8  31  14  32  14  33  14  34  14  35  14  36  14  37  14  38  14
M  ISO  8  39  14  40  13  41  13  42  13  43  13  44  13  45  13  46  13
M  ISO  7  47  13  48  13  49  13  50  13  51  13  52  13  53  13
M  END
>  <minimizedAffinity>  (1) 
-6.38139486

>  <minimizedRMSD>  (1) 
0.697341204

$$$$
