
     RDKit          3D

 47 51  0  0  1  0  0  0  0  0999 V2000
   46.3580   32.6850   46.9110 C   0  0  0  0  0  0  0  0  0  0  0  0
   45.5230   32.5360   48.0090 C   0  0  0  0  0  0  0  0  0  0  0  0
   46.2360   31.7290   48.8900 C   0  0  0  0  0  0  0  0  0  0  0  0
   47.4340   31.4350   48.3050 C   0  0  0  0  0  0  0  0  0  0  0  0
   47.4350   32.0320   47.1410 O   0  0  0  0  0  0  0  0  0  0  0  0
   46.6750   34.0460   43.6290 C   0  0  0  0  0  0  0  0  0  0  0  0
   45.5390   34.7020   44.0980 C   0  0  0  0  0  0  0  0  0  0  0  0
   45.2820   34.2650   45.4020 C   0  0  0  0  0  0  0  0  0  0  0  0
   46.2530   33.3690   45.6840 N   0  0  0  0  0  0  0  0  0  0  0  0
   47.0860   33.2240   44.6520 N   0  0  0  0  0  0  0  0  0  0  0  0
   48.6840   35.3850   40.8670 C   0  0  0  0  0  0  0  0  0  0  0  0
   48.1270   34.7270   39.7730 C   0  0  0  0  0  0  0  0  0  0  0  0
   47.0790   33.8380   39.9790 C   0  0  0  0  0  0  0  0  0  0  0  0
   46.6110   33.6250   41.2660 N   0  0  0  0  0  0  0  0  0  0  0  0
   47.1950   34.2960   42.2890 C   0  0  0  0  0  0  0  0  0  0  0  0
   48.2000   35.1530   42.1210 N   0  0  0  0  0  0  0  0  0  0  0  0
   48.4420   30.6280   48.8990 N   0  0  0  0  0  0  0  0  0  0  0  0
   49.3200   30.8540   49.9440 C   0  0  0  0  0  0  0  0  0  0  0  0
   50.0920   29.7180   50.0890 C   0  0  0  0  0  0  0  0  0  0  0  0
   49.6790   28.8270   49.1430 N   0  0  0  0  0  0  0  0  0  0  0  0
   48.6810   29.3850   48.4280 C   0  0  0  0  0  0  0  0  0  0  0  0
   47.9860   28.6700   47.3030 C   0  0  1  0  0  0  0  0  0  0  0  0
   47.7260   27.1460   47.5940 C   0  0  0  0  0  0  0  0  0  0  0  0
   46.6410   28.1540   47.4810 C   0  0  2  0  0  0  0  0  0  0  0  0
   45.6630   28.0050   46.3510 C   0  0  0  0  0  0  0  0  0  0  0  0
   44.9620   26.6890   46.3520 C   0  0  0  0  0  0  0  0  0  0  0  0
   44.6170   29.0980   46.3460 C   0  0  0  0  0  0  0  0  0  0  0  0
   44.5189   32.9619   48.1515 H   0  0  0  0  0  0  0  0  0  0  0  0
   45.8958   31.3892   49.8793 H   0  0  0  0  0  0  0  0  0  0  0  0
   44.9446   35.4389   43.5379 H   0  0  0  0  0  0  0  0  0  0  0  0
   44.4606   34.5843   46.0603 H   0  0  0  0  0  0  0  0  0  0  0  0
   49.5141   36.0916   40.7197 H   0  0  0  0  0  0  0  0  0  0  0  0
   48.5119   34.9088   38.7587 H   0  0  0  0  0  0  0  0  0  0  0  0
   46.6251   33.3083   39.1285 H   0  0  0  0  0  0  0  0  0  0  0  0
   49.3903   31.7703   50.5485 H   0  0  0  0  0  0  0  0  0  0  0  0
   50.8906   29.5613   50.8291 H   0  0  0  0  0  0  0  0  0  0  0  0
   48.4496   29.2949   46.5254 H   0  0  0  0  0  0  0  0  0  0  0  0
   47.8741   26.3930   46.8059 H   0  0  0  0  0  0  0  0  0  0  0  0
   48.0554   26.4095   48.3417 H   0  0  0  0  0  0  0  0  0  0  0  0
   45.8227   28.4976   48.1309 H   0  0  0  0  0  0  0  0  0  0  0  0
   46.2806   28.0787   45.4437 H   0  0  0  0  0  0  0  0  0  0  0  0
   44.7899   26.3660   47.3893 H   0  0  0  0  0  0  0  0  0  0  0  0
   43.9968   26.7873   45.8337 H   0  0  0  0  0  0  0  0  0  0  0  0
   45.5822   25.9428   45.8337 H   0  0  0  0  0  0  0  0  0  0  0  0
   44.3611   29.3654   47.3819 H   0  0  0  0  0  0  0  0  0  0  0  0
   45.0136   29.9826   45.8262 H   0  0  0  0  0  0  0  0  0  0  0  0
   43.7158   28.7407   45.8262 H   0  0  0  0  0  0  0  0  0  0  0  0
  1  5  1  0
  1  2  2  0
  2  3  1  0
  4  3  2  0
  4 17  1  0
  5  4  1  0
  6  7  1  0
  6 10  2  0
  7  8  2  0
  8  9  1  0
  9  1  1  0
 10  9  1  0
 11 16  2  0
 12 13  2  0
 12 11  1  0
 13 14  1  0
 14 15  2  0
 15  6  1  0
 16 15  1  0
 17 18  1  0
 18 19  2  0
 20 19  1  0
 21 17  1  0
 21 20  2  0
 22 24  1  0
 22 23  1  0
 22 21  1  0
 24 23  1  0
 25 26  1  0
 25 24  1  0
 27 25  1  0
  2 28  1  0
  3 29  1  0
  7 30  1  0
  8 31  1  0
 11 32  1  0
 12 33  1  0
 13 34  1  0
 18 35  1  0
 19 36  1  0
 22 37  1  6
 23 38  1  0
 23 39  1  0
 24 40  1  1
 25 41  1  0
 26 42  1  0
 26 43  1  0
 26 44  1  0
 27 45  1  0
 27 46  1  0
 27 47  1  0
M  ISO  8  28  14  29  14  30  14  31  14  32  14  33  14  34  14  35  14
M  ISO  8  36  14  37  13  38  13  39  13  40  13  41   8  42   8  43   8
M  ISO  4  44   8  45   8  46   8  47   8
M  END
>  <minimizedAffinity>  (1) 
-5.96257639

>  <minimizedRMSD>  (1) 
0.698103189

$$$$
