
     RDKit          3D

 45 50  0  0  1  0  0  0  0  0999 V2000
   46.2640   32.8300   46.7700 C   0  0  0  0  0  0  0  0  0  0  0  0
   45.4260   32.7110   47.8510 C   0  0  0  0  0  0  0  0  0  0  0  0
   46.1090   31.8990   48.7590 C   0  0  0  0  0  0  0  0  0  0  0  0
   47.3070   31.5750   48.1880 C   0  0  0  0  0  0  0  0  0  0  0  0
   47.3260   32.1550   47.0250 O   0  0  0  0  0  0  0  0  0  0  0  0
   46.6320   34.1540   43.4810 C   0  0  0  0  0  0  0  0  0  0  0  0
   45.5080   34.8210   43.9230 C   0  0  0  0  0  0  0  0  0  0  0  0
   45.2270   34.4010   45.2300 C   0  0  0  0  0  0  0  0  0  0  0  0
   46.1880   33.4970   45.5320 N   0  0  0  0  0  0  0  0  0  0  0  0
   47.0370   33.3300   44.5100 N   0  0  0  0  0  0  0  0  0  0  0  0
   48.6990   35.4470   40.7200 C   0  0  0  0  0  0  0  0  0  0  0  0
   48.1740   34.7620   39.6270 C   0  0  0  0  0  0  0  0  0  0  0  0
   47.1240   33.8690   39.8440 C   0  0  0  0  0  0  0  0  0  0  0  0
   46.6330   33.6850   41.1230 N   0  0  0  0  0  0  0  0  0  0  0  0
   47.1840   34.3780   42.1380 C   0  0  0  0  0  0  0  0  0  0  0  0
   48.1940   35.2450   41.9710 N   0  0  0  0  0  0  0  0  0  0  0  0
   48.2950   30.7550   48.8040 N   0  0  0  0  0  0  0  0  0  0  0  0
   49.1710   30.9820   49.8470 C   0  0  0  0  0  0  0  0  0  0  0  0
   49.9060   29.8350   50.0180 C   0  0  0  0  0  0  0  0  0  0  0  0
   49.4780   28.9260   49.0880 N   0  0  0  0  0  0  0  0  0  0  0  0
   48.5020   29.4940   48.3600 C   0  0  0  0  0  0  0  0  0  0  0  0
   47.7900   28.7770   47.2450 C   0  0  1  0  0  0  0  0  0  0  0  0
   47.5390   27.2530   47.5430 C   0  0  0  0  0  0  0  0  0  0  0  0
   46.4480   28.2560   47.4310 C   0  0  2  0  0  0  0  0  0  0  0  0
   45.5340   28.0970   46.2770 C   0  0  0  0  0  0  0  0  0  0  0  0
   44.2860   28.6850   46.2330 C   0  0  0  0  0  0  0  0  0  0  0  0
   43.7050   28.3270   45.0120 C   0  0  0  0  0  0  0  0  0  0  0  0
   44.6670   27.5270   44.3890 C   0  0  0  0  0  0  0  0  0  0  0  0
   45.7060   27.4340   45.1790 O   0  0  0  0  0  0  0  0  0  0  0  0
   44.4293   33.1595   47.9754 H   0  0  0  0  0  0  0  0  0  0  0  0
   45.7497   31.5801   49.7485 H   0  0  0  0  0  0  0  0  0  0  0  0
   44.9299   35.5582   43.3466 H   0  0  0  0  0  0  0  0  0  0  0  0
   44.4004   34.7352   45.8742 H   0  0  0  0  0  0  0  0  0  0  0  0
   49.5270   36.1562   40.5735 H   0  0  0  0  0  0  0  0  0  0  0  0
   48.5777   34.9212   38.6162 H   0  0  0  0  0  0  0  0  0  0  0  0
   46.6886   33.3135   39.0003 H   0  0  0  0  0  0  0  0  0  0  0  0
   49.2629   31.9091   50.4319 H   0  0  0  0  0  0  0  0  0  0  0  0
   50.6958   29.6753   50.7668 H   0  0  0  0  0  0  0  0  0  0  0  0
   48.2412   29.4057   46.4632 H   0  0  0  0  0  0  0  0  0  0  0  0
   47.6871   26.4977   46.7572 H   0  0  0  0  0  0  0  0  0  0  0  0
   47.8754   26.5210   48.2920 H   0  0  0  0  0  0  0  0  0  0  0  0
   45.6290   28.5890   48.0855 H   0  0  0  0  0  0  0  0  0  0  0  0
   43.8334   29.3164   47.0117 H   0  0  0  0  0  0  0  0  0  0  0  0
   42.7140   28.6111   44.6284 H   0  0  0  0  0  0  0  0  0  0  0  0
   44.5674   27.0548   43.4005 H   0  0  0  0  0  0  0  0  0  0  0  0
  1  5  1  0
  1  2  2  0
  2  3  1  0
  4  3  2  0
  4 17  1  0
  5  4  1  0
  6  7  1  0
  6 10  2  0
  7  8  2  0
  8  9  1  0
  9  1  1  0
 10  9  1  0
 11 16  2  0
 12 13  2  0
 12 11  1  0
 13 14  1  0
 14 15  2  0
 15  6  1  0
 16 15  1  0
 17 18  1  0
 18 19  2  0
 20 19  1  0
 21 17  1  0
 21 20  2  0
 22 24  1  0
 22 23  1  0
 22 21  1  0
 24 23  1  0
 25 24  1  0
 26 25  2  0
 27 26  1  0
 28 27  2  0
 28 29  1  0
 29 25  1  0
  2 30  1  0
  3 31  1  0
  7 32  1  0
  8 33  1  0
 11 34  1  0
 12 35  1  0
 13 36  1  0
 18 37  1  0
 19 38  1  0
 22 39  1  6
 23 40  1  0
 23 41  1  0
 24 42  1  1
 26 43  1  0
 27 44  1  0
 28 45  1  0
M  ISO  8  30  14  31  14  32  14  33  14  34  14  35  14  36  14  37  14
M  ISO  8  38  14  39  13  40  13  41  13  42  13  43  14  44  14  45  14
M  END
>  <minimizedAffinity>  (1) 
-6.08844185

>  <minimizedRMSD>  (1) 
0.51445967

$$$$
