
     RDKit          3D

 45 50  0  0  1  0  0  0  0  0999 V2000
   46.3160   32.7410   46.8860 C   0  0  0  0  0  0  0  0  0  0  0  0
   45.5070   32.6320   47.9950 C   0  0  0  0  0  0  0  0  0  0  0  0
   46.2020   31.8070   48.8700 C   0  0  0  0  0  0  0  0  0  0  0  0
   47.3750   31.4590   48.2640 C   0  0  0  0  0  0  0  0  0  0  0  0
   47.3780   32.0450   47.0950 O   0  0  0  0  0  0  0  0  0  0  0  0
   46.6410   34.0890   43.5940 C   0  0  0  0  0  0  0  0  0  0  0  0
   45.5200   34.7470   44.0540 C   0  0  0  0  0  0  0  0  0  0  0  0
   45.2580   34.3170   45.3600 C   0  0  0  0  0  0  0  0  0  0  0  0
   46.2320   33.4120   45.6430 N   0  0  0  0  0  0  0  0  0  0  0  0
   47.0590   33.2600   44.6160 N   0  0  0  0  0  0  0  0  0  0  0  0
   48.6820   35.3960   40.8250 C   0  0  0  0  0  0  0  0  0  0  0  0
   48.1330   34.7350   39.7300 C   0  0  0  0  0  0  0  0  0  0  0  0
   47.0690   33.8470   39.9470 C   0  0  0  0  0  0  0  0  0  0  0  0
   46.6130   33.6680   41.2300 N   0  0  0  0  0  0  0  0  0  0  0  0
   47.1720   34.3230   42.2530 C   0  0  0  0  0  0  0  0  0  0  0  0
   48.1880   35.1780   42.0840 N   0  0  0  0  0  0  0  0  0  0  0  0
   48.3650   30.6150   48.8500 N   0  0  0  0  0  0  0  0  0  0  0  0
   49.2440   30.8070   49.8980 C   0  0  0  0  0  0  0  0  0  0  0  0
   49.9780   29.6540   50.0260 C   0  0  0  0  0  0  0  0  0  0  0  0
   49.5450   28.7760   49.0680 N   0  0  0  0  0  0  0  0  0  0  0  0
   48.5640   29.3720   48.3580 C   0  0  0  0  0  0  0  0  0  0  0  0
   47.8510   28.6910   47.2250 C   0  0  1  0  0  0  0  0  0  0  0  0
   47.4800   27.1930   47.5350 C   0  0  0  0  0  0  0  0  0  0  0  0
   46.4690   28.2670   47.3670 C   0  0  2  0  0  0  0  0  0  0  0  0
   45.5800   28.1280   46.1910 C   0  0  0  0  0  0  0  0  0  0  0  0
   44.2720   28.6300   46.1600 C   0  0  0  0  0  0  0  0  0  0  0  0
   43.7190   28.3500   44.9660 N   0  0  0  0  0  0  0  0  0  0  0  0
   44.6720   27.6850   44.2680 C   0  0  0  0  0  0  0  0  0  0  0  0
   45.8120   27.5430   45.0020 N   0  0  0  0  0  0  0  0  0  0  0  0
   44.5231   33.0976   48.1536 H   0  0  0  0  0  0  0  0  0  0  0  0
   45.8681   31.4914   49.8695 H   0  0  0  0  0  0  0  0  0  0  0  0
   44.9311   35.4852   43.4899 H   0  0  0  0  0  0  0  0  0  0  0  0
   44.4383   34.6422   46.0175 H   0  0  0  0  0  0  0  0  0  0  0  0
   49.5169   36.0971   40.6787 H   0  0  0  0  0  0  0  0  0  0  0  0
   48.5250   34.9053   38.7164 H   0  0  0  0  0  0  0  0  0  0  0  0
   46.6095   33.3054   39.1071 H   0  0  0  0  0  0  0  0  0  0  0  0
   49.3382   31.7133   50.5142 H   0  0  0  0  0  0  0  0  0  0  0  0
   50.7713   29.4685   50.7651 H   0  0  0  0  0  0  0  0  0  0  0  0
   48.3755   29.2727   46.4527 H   0  0  0  0  0  0  0  0  0  0  0  0
   47.6032   26.4159   46.7663 H   0  0  0  0  0  0  0  0  0  0  0  0
   47.7350   26.4519   48.3069 H   0  0  0  0  0  0  0  0  0  0  0  0
   45.6555   28.6811   47.9808 H   0  0  0  0  0  0  0  0  0  0  0  0
   43.7761   29.1677   46.9816 H   0  0  0  0  0  0  0  0  0  0  0  0
   44.5423   27.3088   43.2425 H   0  0  0  0  0  0  0  0  0  0  0  0
   46.6816   27.0783   44.7042 H   0  0  0  0  0  0  0  0  0  0  0  0
  1  5  1  0
  1  2  2  0
  2  3  1  0
  4 17  1  0
  4  3  2  0
  5  4  1  0
  6  7  1  0
  6 10  2  0
  7  8  2  0
  8  9  1  0
  9  1  1  0
 10  9  1  0
 11 16  2  0
 12 13  2  0
 12 11  1  0
 13 14  1  0
 14 15  2  0
 15  6  1  0
 16 15  1  0
 17 18  1  0
 18 19  2  0
 20 19  1  0
 21 17  1  0
 21 20  2  0
 22 24  1  0
 22 23  1  0
 22 21  1  0
 24 23  1  0
 25 24  1  0
 26 25  2  0
 27 26  1  0
 28 27  2  0
 28 29  1  0
 29 25  1  0
  2 30  1  0
  3 31  1  0
  7 32  1  0
  8 33  1  0
 11 34  1  0
 12 35  1  0
 13 36  1  0
 18 37  1  0
 19 38  1  0
 22 39  1  6
 23 40  1  0
 23 41  1  0
 24 42  1  1
 26 43  1  0
 28 44  1  0
 29 45  1  0
M  ISO  8  30  14  31  14  32  14  33  14  34  14  35  14  36  14  37  14
M  ISO  8  38  14  39  13  40  13  41  13  42  13  43  14  44  14  45   9
M  END
>  <minimizedAffinity>  (1) 
-5.98583221

>  <minimizedRMSD>  (1) 
0.419211745

$$$$
