
     RDKit          3D

 41 45  0  0  1  0  0  0  0  0999 V2000
   46.3220   32.7200   46.8900 C   0  0  0  0  0  0  0  0  0  0  0  0
   45.5080   32.5970   47.9850 C   0  0  0  0  0  0  0  0  0  0  0  0
   46.2060   31.7760   48.8680 C   0  0  0  0  0  0  0  0  0  0  0  0
   47.3890   31.4480   48.2720 C   0  0  0  0  0  0  0  0  0  0  0  0
   47.3940   32.0380   47.1050 O   0  0  0  0  0  0  0  0  0  0  0  0
   46.6600   34.0710   43.5990 C   0  0  0  0  0  0  0  0  0  0  0  0
   45.5270   34.7330   44.0640 C   0  0  0  0  0  0  0  0  0  0  0  0
   45.2640   34.2980   45.3710 C   0  0  0  0  0  0  0  0  0  0  0  0
   46.2390   33.3950   45.6480 N   0  0  0  0  0  0  0  0  0  0  0  0
   47.0670   33.2480   44.6220 N   0  0  0  0  0  0  0  0  0  0  0  0
   48.6940   35.3980   40.8420 C   0  0  0  0  0  0  0  0  0  0  0  0
   48.1420   34.7460   39.7430 C   0  0  0  0  0  0  0  0  0  0  0  0
   47.0790   33.8570   39.9530 C   0  0  0  0  0  0  0  0  0  0  0  0
   46.6160   33.6600   41.2350 N   0  0  0  0  0  0  0  0  0  0  0  0
   47.1870   34.3160   42.2570 C   0  0  0  0  0  0  0  0  0  0  0  0
   48.2030   35.1710   42.0940 N   0  0  0  0  0  0  0  0  0  0  0  0
   48.3830   30.6170   48.8630 N   0  0  0  0  0  0  0  0  0  0  0  0
   49.2380   30.8130   49.9320 C   0  0  0  0  0  0  0  0  0  0  0  0
   49.9960   29.6680   50.0590 C   0  0  0  0  0  0  0  0  0  0  0  0
   49.5980   28.8000   49.0790 N   0  0  0  0  0  0  0  0  0  0  0  0
   48.6190   29.3840   48.3590 C   0  0  0  0  0  0  0  0  0  0  0  0
   47.9420   28.7060   47.2020 C   0  0  1  0  0  0  0  0  0  0  0  0
   47.4790   27.2380   47.5200 C   0  0  0  0  0  0  0  0  0  0  0  0
   46.5350   28.3590   47.2720 C   0  0  2  0  0  0  0  0  0  0  0  0
   45.6670   28.2290   46.0620 C   0  0  0  0  0  0  0  0  0  0  0  0
   46.2350   28.7170   44.9020 F   0  0  0  0  0  0  0  0  0  0  0  0
   44.4880   28.9160   46.3080 F   0  0  0  0  0  0  0  0  0  0  0  0
   45.2810   26.9040   45.8610 F   0  0  0  0  0  0  0  0  0  0  0  0
   44.5165   33.0492   48.1348 H   0  0  0  0  0  0  0  0  0  0  0  0
   45.8661   31.4518   49.8627 H   0  0  0  0  0  0  0  0  0  0  0  0
   44.9378   35.4722   43.5014 H   0  0  0  0  0  0  0  0  0  0  0  0
   44.4440   34.6194   46.0300 H   0  0  0  0  0  0  0  0  0  0  0  0
   49.5296   36.0992   40.7001 H   0  0  0  0  0  0  0  0  0  0  0  0
   48.5322   34.9249   38.7302 H   0  0  0  0  0  0  0  0  0  0  0  0
   46.6213   33.3245   39.1063 H   0  0  0  0  0  0  0  0  0  0  0  0
   49.3015   31.7124   50.5621 H   0  0  0  0  0  0  0  0  0  0  0  0
   50.7779   29.4857   50.8109 H   0  0  0  0  0  0  0  0  0  0  0  0
   48.5420   29.2383   46.4493 H   0  0  0  0  0  0  0  0  0  0  0  0
   47.6053   26.4381   46.7756 H   0  0  0  0  0  0  0  0  0  0  0  0
   47.6517   26.5030   48.3200 H   0  0  0  0  0  0  0  0  0  0  0  0
   45.7152   28.8408   47.8250 H   0  0  0  0  0  0  0  0  0  0  0  0
  1  5  1  0
  1  2  2  0
  2  3  1  0
  4 17  1  0
  4  3  2  0
  5  4  1  0
  6  7  1  0
  6 10  2  0
  7  8  2  0
  8  9  1  0
  9  1  1  0
 10  9  1  0
 11 16  2  0
 12 13  2  0
 12 11  1  0
 13 14  1  0
 14 15  2  0
 15  6  1  0
 16 15  1  0
 17 18  1  0
 18 19  2  0
 20 19  1  0
 21 17  1  0
 21 20  2  0
 22 24  1  0
 22 23  1  0
 22 21  1  0
 24 23  1  0
 25 27  1  0
 25 24  1  0
 26 25  1  0
 28 25  1  0
  2 29  1  0
  3 30  1  0
  7 31  1  0
  8 32  1  0
 11 33  1  0
 12 34  1  0
 13 35  1  0
 18 36  1  0
 19 37  1  0
 22 38  1  6
 23 39  1  0
 23 40  1  0
 24 41  1  1
M  ISO  8  29  14  30  14  31  14  32  14  33  14  34  14  35  14  36  14
M  ISO  5  37  14  38  13  39  13  40  13  41  13
M  END
>  <minimizedAffinity>  (1) 
-5.92258596

>  <minimizedRMSD>  (1) 
0.177392721

$$$$
