
     RDKit          3D

 41 45  0  0  1  0  0  0  0  0999 V2000
   46.3730   32.6760   46.9580 C   0  0  0  0  0  0  0  0  0  0  0  0
   45.5530   32.5320   48.0480 C   0  0  0  0  0  0  0  0  0  0  0  0
   46.2700   31.7250   48.9350 C   0  0  0  0  0  0  0  0  0  0  0  0
   47.4640   31.4310   48.3420 C   0  0  0  0  0  0  0  0  0  0  0  0
   47.4600   32.0220   47.1810 O   0  0  0  0  0  0  0  0  0  0  0  0
   46.6580   34.0340   43.6700 C   0  0  0  0  0  0  0  0  0  0  0  0
   45.5370   34.6880   44.1450 C   0  0  0  0  0  0  0  0  0  0  0  0
   45.2900   34.2520   45.4510 C   0  0  0  0  0  0  0  0  0  0  0  0
   46.2640   33.3540   45.7260 N   0  0  0  0  0  0  0  0  0  0  0  0
   47.0890   33.2070   44.6850 N   0  0  0  0  0  0  0  0  0  0  0  0
   48.6700   35.3610   40.8870 C   0  0  0  0  0  0  0  0  0  0  0  0
   48.1140   34.7070   39.7950 C   0  0  0  0  0  0  0  0  0  0  0  0
   47.0580   33.8220   40.0210 C   0  0  0  0  0  0  0  0  0  0  0  0
   46.5930   33.6130   41.3060 N   0  0  0  0  0  0  0  0  0  0  0  0
   47.1760   34.2770   42.3200 C   0  0  0  0  0  0  0  0  0  0  0  0
   48.1950   35.1390   42.1430 N   0  0  0  0  0  0  0  0  0  0  0  0
   48.4790   30.6270   48.9340 N   0  0  0  0  0  0  0  0  0  0  0  0
   49.3140   30.8340   50.0170 C   0  0  0  0  0  0  0  0  0  0  0  0
   50.1070   29.7250   50.1390 C   0  0  0  0  0  0  0  0  0  0  0  0
   49.7580   28.8520   49.1390 N   0  0  0  0  0  0  0  0  0  0  0  0
   48.7730   29.4130   48.4210 C   0  0  0  0  0  0  0  0  0  0  0  0
   48.1310   28.7320   47.2390 C   0  0  1  0  0  0  0  0  0  0  0  0
   47.6950   27.2500   47.5350 C   0  0  0  0  0  0  0  0  0  0  0  0
   46.7320   28.3500   47.2600 C   0  0  2  0  0  0  0  0  0  0  0  0
   46.0850   28.2060   45.9050 C   0  0  0  0  0  0  0  0  0  0  0  0
   46.4760   27.3390   45.0710 O   0  0  0  0  0  0  0  0  0  0  0  0
   45.0280   28.9940   45.4630 O   0  0  0  0  0  0  0  0  0  0  0  0
   44.5495   32.9589   48.1924 H   0  0  0  0  0  0  0  0  0  0  0  0
   45.9346   31.3889   49.9272 H   0  0  0  0  0  0  0  0  0  0  0  0
   44.9399   35.4265   43.5899 H   0  0  0  0  0  0  0  0  0  0  0  0
   44.4742   34.5723   46.1157 H   0  0  0  0  0  0  0  0  0  0  0  0
   49.5017   36.0647   40.7353 H   0  0  0  0  0  0  0  0  0  0  0  0
   48.4958   34.8818   38.7783 H   0  0  0  0  0  0  0  0  0  0  0  0
   46.5957   33.2907   39.1760 H   0  0  0  0  0  0  0  0  0  0  0  0
   49.3366   31.7253   50.6613 H   0  0  0  0  0  0  0  0  0  0  0  0
   50.8837   29.5627   50.9009 H   0  0  0  0  0  0  0  0  0  0  0  0
   48.7351   29.2901   46.5085 H   0  0  0  0  0  0  0  0  0  0  0  0
   47.8662   26.4574   46.7917 H   0  0  0  0  0  0  0  0  0  0  0  0
   47.8591   26.5151   48.3369 H   0  0  0  0  0  0  0  0  0  0  0  0
   45.8656   28.7686   47.7931 H   0  0  0  0  0  0  0  0  0  0  0  0
   44.6464   28.8497   44.5610 H   0  0  0  0  0  0  0  0  0  0  0  0
  1  5  1  0
  1  2  2  0
  2  3  1  0
  4 17  1  0
  4  3  2  0
  5  4  1  0
  6  7  1  0
  6 10  2  0
  7  8  2  0
  8  9  1  0
  9  1  1  0
 10  9  1  0
 11 16  2  0
 12 13  2  0
 12 11  1  0
 13 14  1  0
 14 15  2  0
 15  6  1  0
 16 15  1  0
 17 18  1  0
 18 19  2  0
 20 19  1  0
 21 17  1  0
 21 20  2  0
 22 24  1  0
 22 23  1  0
 22 21  1  0
 24 23  1  0
 25 24  1  0
 26 25  2  0
 27 25  1  0
  2 28  1  0
  3 29  1  0
  7 30  1  0
  8 31  1  0
 11 32  1  0
 12 33  1  0
 13 34  1  0
 18 35  1  0
 19 36  1  0
 22 37  1  6
 23 38  1  0
 23 39  1  0
 24 40  1  1
 27 41  1  0
M  ISO  8  28  14  29  14  30  14  31  14  32  14  33  14  34  14  35  14
M  ISO  6  36  14  37  13  38  13  39  13  40  13  41   3
M  END
>  <minimizedAffinity>  (1) 
-5.76347113

>  <minimizedRMSD>  (1) 
0.0394188352

$$$$
