
     RDKit          3D

 39 43  0  0  1  0  0  0  0  0999 V2000
   46.3750   32.6580   46.9590 C   0  0  0  0  0  0  0  0  0  0  0  0
   45.5440   32.4970   48.0490 C   0  0  0  0  0  0  0  0  0  0  0  0
   46.2570   31.6980   48.9370 C   0  0  0  0  0  0  0  0  0  0  0  0
   47.4600   31.4180   48.3530 C   0  0  0  0  0  0  0  0  0  0  0  0
   47.4600   32.0170   47.1900 O   0  0  0  0  0  0  0  0  0  0  0  0
   46.6580   34.0280   43.6830 C   0  0  0  0  0  0  0  0  0  0  0  0
   45.5370   34.6830   44.1590 C   0  0  0  0  0  0  0  0  0  0  0  0
   45.2900   34.2440   45.4660 C   0  0  0  0  0  0  0  0  0  0  0  0
   46.2630   33.3430   45.7350 N   0  0  0  0  0  0  0  0  0  0  0  0
   47.0850   33.1960   44.6980 N   0  0  0  0  0  0  0  0  0  0  0  0
   48.6750   35.3560   40.9050 C   0  0  0  0  0  0  0  0  0  0  0  0
   48.1090   34.7060   39.8180 C   0  0  0  0  0  0  0  0  0  0  0  0
   47.0510   33.8240   40.0260 C   0  0  0  0  0  0  0  0  0  0  0  0
   46.5950   33.6220   41.3120 N   0  0  0  0  0  0  0  0  0  0  0  0
   47.1750   34.2730   42.3360 C   0  0  0  0  0  0  0  0  0  0  0  0
   48.1850   35.1200   42.1620 N   0  0  0  0  0  0  0  0  0  0  0  0
   48.4810   30.6230   48.9460 N   0  0  0  0  0  0  0  0  0  0  0  0
   49.3070   30.8250   50.0360 C   0  0  0  0  0  0  0  0  0  0  0  0
   50.1190   29.7140   50.1550 C   0  0  0  0  0  0  0  0  0  0  0  0
   49.7810   28.8620   49.1500 N   0  0  0  0  0  0  0  0  0  0  0  0
   48.7970   29.4200   48.4330 C   0  0  0  0  0  0  0  0  0  0  0  0
   48.1740   28.7350   47.2350 C   0  0  1  0  0  0  0  0  0  0  0  0
   47.7300   27.2550   47.5180 C   0  0  0  0  0  0  0  0  0  0  0  0
   46.7720   28.3530   47.2320 C   0  0  2  0  0  0  0  0  0  0  0  0
   46.0150   28.3210   45.5600 S   0  0  0  0  0  0  0  0  0  0  0  0
   44.5344   32.9115   48.1862 H   0  0  0  0  0  0  0  0  0  0  0  0
   45.9158   31.3555   49.9251 H   0  0  0  0  0  0  0  0  0  0  0  0
   44.9406   35.4231   43.6053 H   0  0  0  0  0  0  0  0  0  0  0  0
   44.4763   34.5643   46.1333 H   0  0  0  0  0  0  0  0  0  0  0  0
   49.5110   36.0557   40.7585 H   0  0  0  0  0  0  0  0  0  0  0  0
   48.4917   34.8852   38.8024 H   0  0  0  0  0  0  0  0  0  0  0  0
   46.5870   33.2975   39.1789 H   0  0  0  0  0  0  0  0  0  0  0  0
   49.3159   31.7097   50.6897 H   0  0  0  0  0  0  0  0  0  0  0  0
   50.8933   29.5492   50.9188 H   0  0  0  0  0  0  0  0  0  0  0  0
   48.7933   29.2925   46.5169 H   0  0  0  0  0  0  0  0  0  0  0  0
   47.9126   26.4649   46.7748 H   0  0  0  0  0  0  0  0  0  0  0  0
   47.8804   26.5177   48.3204 H   0  0  0  0  0  0  0  0  0  0  0  0
   45.8821   28.7201   47.7642 H   0  0  0  0  0  0  0  0  0  0  0  0
   44.6512   28.2634   45.6772 H   0  0  0  0  0  0  0  0  0  0  0  0
  1  5  1  0
  1  2  2  0
  2  3  1  0
  4  3  2  0
  4 17  1  0
  5  4  1  0
  6  7  1  0
  6 10  2  0
  7  8  2  0
  8  9  1  0
  9  1  1  0
 10  9  1  0
 11 16  2  0
 12 13  2  0
 12 11  1  0
 13 14  1  0
 14 15  2  0
 15  6  1  0
 16 15  1  0
 17 18  1  0
 18 19  2  0
 20 19  1  0
 21 17  1  0
 21 20  2  0
 22 23  1  0
 22 21  1  0
 24 22  1  0
 24 23  1  0
 25 24  1  0
  2 26  1  0
  3 27  1  0
  7 28  1  0
  8 29  1  0
 11 30  1  0
 12 31  1  0
 13 32  1  0
 18 33  1  0
 19 34  1  0
 22 35  1  6
 23 36  1  0
 23 37  1  0
 24 38  1  1
 25 39  1  0
M  ISO  8  26  14  27  14  28  14  29  14  30  14  31  14  32  14  33  14
M  ISO  6  34  14  35  13  36  13  37  13  38  13  39  11
M  END
>  <minimizedAffinity>  (1) 
-5.88978195

>  <minimizedRMSD>  (1) 
0.0157557335

$$$$
