
     RDKit          3D

 30 33  0  0  0  0  0  0  0  0999 V2000
   46.8380   31.9360   43.2640 N   0  0  0  0  0  0  0  0  0  0  0  0
   46.2240   31.3110   42.2360 C   0  0  0  0  0  0  0  0  0  0  0  0
   46.7200   31.7460   41.0640 N   0  0  0  0  0  0  0  0  0  0  0  0
   47.6710   32.6670   41.3170 C   0  0  0  0  0  0  0  0  0  0  0  0
   48.4790   33.4140   40.4740 C   0  0  0  0  0  0  0  0  0  0  0  0
   48.4260   33.3190   39.2380 O   0  0  0  0  0  0  0  0  0  0  0  0
   49.3720   34.2890   40.9880 N   0  0  0  0  0  0  0  0  0  0  0  0
   49.4200   34.3830   42.3280 C   0  0  0  0  0  0  0  0  0  0  0  0
   50.3120   35.2620   42.9820 N   0  0  0  0  0  0  0  0  0  0  0  0
   48.6480   33.6710   43.1530 N   0  0  0  0  0  0  0  0  0  0  0  0
   47.7330   32.7750   42.6940 C   0  0  0  0  0  0  0  0  0  0  0  0
   45.8530   32.8640   46.6790 C   0  0  0  0  0  0  0  0  0  0  0  0
   45.9750   32.8860   45.2750 C   0  0  0  0  0  0  0  0  0  0  0  0
   46.7360   31.8880   44.6610 C   0  0  0  0  0  0  0  0  0  0  0  0
   47.3100   30.9590   45.4630 N   0  0  0  0  0  0  0  0  0  0  0  0
   47.1750   30.9660   46.7980 C   0  0  0  0  0  0  0  0  0  0  0  0
   46.4500   31.9120   47.4100 N   0  0  0  0  0  0  0  0  0  0  0  0
   45.3010   33.9400   44.5990 N   0  0  0  0  0  0  0  0  0  0  0  0
   44.7820   34.1100   43.3680 C   0  0  0  0  0  0  0  0  0  0  0  0
   44.2480   35.3630   43.2980 N   0  0  0  0  0  0  0  0  0  0  0  0
   44.4470   35.9570   44.4960 C   0  0  0  0  0  0  0  0  0  0  0  0
   45.0910   35.0750   45.2830 N   0  0  0  0  0  0  0  0  0  0  0  0
   45.4321   30.5549   42.3421 H   0  0  0  0  0  0  0  0  0  0  0  0
   49.9845   34.8549   40.3835 H   0  0  0  0  0  0  0  0  0  0  0  0
   50.3249   35.3112   44.0107 H   0  0  0  0  0  0  0  0  0  0  0  0
   50.9494   35.8536   42.4301 H   0  0  0  0  0  0  0  0  0  0  0  0
   45.2585   33.6403   47.1829 H   0  0  0  0  0  0  0  0  0  0  0  0
   47.6658   30.1852   47.3975 H   0  0  0  0  0  0  0  0  0  0  0  0
   44.7878   33.3659   42.5579 H   0  0  0  0  0  0  0  0  0  0  0  0
   44.1389   36.9751   44.7764 H   0  0  0  0  0  0  0  0  0  0  0  0
  1 14  1  0
  2  1  1  0
  3  4  1  0
  3  2  2  0
  4 11  2  0
  5  7  1  0
  5  4  1  0
  6  5  2  0
  7  8  1  0
  8  9  1  0
  8 10  2  0
 11 10  1  0
 11  1  1  0
 12 17  2  0
 13 12  1  0
 14 13  2  0
 14 15  1  0
 15 16  2  0
 16 17  1  0
 18 13  1  0
 18 22  1  0
 19 18  1  0
 20 19  2  0
 20 21  1  0
 21 22  2  0
  2 23  1  0
  7 24  1  0
  9 25  1  0
  9 26  1  0
 12 27  1  0
 16 28  1  0
 19 29  1  0
 21 30  1  0
M  ISO  6  23  14  24   9  27  14  28  14  29  14  30  14
M  END
>  <minimizedAffinity>  (1) 
-5.89231348

>  <minimizedRMSD>  (1) 
2.82168603

$$$$
