
     RDKit          3D

 31 34  0  0  0  0  0  0  0  0999 V2000
   46.1470   33.4960   42.0730 N   0  0  0  0  0  0  0  0  0  0  0  0
   45.4070   34.5650   41.7710 C   0  0  0  0  0  0  0  0  0  0  0  0
   44.9320   35.1470   42.8890 N   0  0  0  0  0  0  0  0  0  0  0  0
   45.3730   34.4390   43.9500 C   0  0  0  0  0  0  0  0  0  0  0  0
   45.1810   34.6000   45.3190 C   0  0  0  0  0  0  0  0  0  0  0  0
   44.4990   35.5240   45.7900 O   0  0  0  0  0  0  0  0  0  0  0  0
   45.7350   33.7480   46.1870 N   0  0  0  0  0  0  0  0  0  0  0  0
   46.4710   32.7500   45.6720 C   0  0  0  0  0  0  0  0  0  0  0  0
   47.1100   31.7820   46.4900 N   0  0  0  0  0  0  0  0  0  0  0  0
   46.6640   32.5820   44.3620 N   0  0  0  0  0  0  0  0  0  0  0  0
   46.1330   33.4060   43.4340 C   0  0  0  0  0  0  0  0  0  0  0  0
   48.9840   31.8340   40.4140 C   0  0  0  0  0  0  0  0  0  0  0  0
   48.2350   32.7870   41.1410 C   0  0  0  0  0  0  0  0  0  0  0  0
   46.8690   32.5320   41.3470 C   0  0  0  0  0  0  0  0  0  0  0  0
   46.3660   31.3840   40.8310 N   0  0  0  0  0  0  0  0  0  0  0  0
   47.1060   30.4970   40.1440 C   0  0  0  0  0  0  0  0  0  0  0  0
   48.4070   30.7210   39.9360 N   0  0  0  0  0  0  0  0  0  0  0  0
   48.8300   33.9970   41.6690 C   0  0  0  0  0  0  0  0  0  0  0  0
   48.7110   35.2310   41.0520 C   0  0  0  0  0  0  0  0  0  0  0  0
   49.4010   36.1570   41.8280 C   0  0  0  0  0  0  0  0  0  0  0  0
   49.9030   35.4850   42.8580 N   0  0  0  0  0  0  0  0  0  0  0  0
   49.5700   34.1990   42.7740 N   0  0  0  0  0  0  0  0  0  0  0  0
   45.2118   34.9219   40.7490 H   0  0  0  0  0  0  0  0  0  0  0  0
   45.6035   33.8521   47.2033 H   0  0  0  0  0  0  0  0  0  0  0  0
   47.6668   31.0303   46.0590 H   0  0  0  0  0  0  0  0  0  0  0  0
   47.0169   31.8313   47.5146 H   0  0  0  0  0  0  0  0  0  0  0  0
   50.0558   32.0074   40.2375 H   0  0  0  0  0  0  0  0  0  0  0  0
   46.6385   29.5821   39.7510 H   0  0  0  0  0  0  0  0  0  0  0  0
   48.1693   35.4410   40.1179 H   0  0  0  0  0  0  0  0  0  0  0  0
   49.5094   37.2332   41.6280 H   0  0  0  0  0  0  0  0  0  0  0  0
   50.4684   35.8993   43.6128 H   0  0  0  0  0  0  0  0  0  0  0  0
  1 11  1  0
  2  1  1  0
  2  3  2  0
  3  4  1  0
  4  5  1  0
  5  6  2  0
  5  7  1  0
  8  7  1  0
  8  9  1  0
 10  8  2  0
 11  4  2  0
 11 10  1  0
 12 13  2  0
 13 14  1  0
 13 18  1  0
 14  1  1  0
 15 14  2  0
 16 15  1  0
 17 16  2  0
 17 12  1  0
 18 22  2  0
 19 18  1  0
 19 20  2  0
 20 21  1  0
 22 21  1  0
  2 23  1  0
  7 24  1  0
  9 25  1  0
  9 26  1  0
 12 27  1  0
 16 28  1  0
 19 29  1  0
 20 30  1  0
 21 31  1  0
M  ISO  7  23  14  24   9  27  14  28  14  29  14  30  14  31   9
M  END
>  <minimizedAffinity>  (1) 
-6.06729269

>  <minimizedRMSD>  (1) 
5.65240479

$$$$
