
     RDKit          3D

 26 28  0  0  0  0  0  0  0  0999 V2000
   45.7820   33.6930   42.9060 N   0  0  0  0  0  0  0  0  0  0  0  0
   45.0250   33.4600   41.8290 C   0  0  0  0  0  0  0  0  0  0  0  0
   45.7230   33.7130   40.7050 N   0  0  0  0  0  0  0  0  0  0  0  0
   46.9530   34.1170   41.0590 C   0  0  0  0  0  0  0  0  0  0  0  0
   48.0520   34.4970   40.2900 C   0  0  0  0  0  0  0  0  0  0  0  0
   48.0150   34.5070   39.0320 O   0  0  0  0  0  0  0  0  0  0  0  0
   49.2060   34.8720   40.8910 N   0  0  0  0  0  0  0  0  0  0  0  0
   49.2100   34.8500   42.2240 C   0  0  0  0  0  0  0  0  0  0  0  0
   50.3590   35.2190   42.9680 N   0  0  0  0  0  0  0  0  0  0  0  0
   48.1650   34.4880   42.9620 N   0  0  0  0  0  0  0  0  0  0  0  0
   46.9920   34.1060   42.4350 C   0  0  0  0  0  0  0  0  0  0  0  0
   44.7490   34.6170   46.3190 C   0  0  0  0  0  0  0  0  0  0  0  0
   44.9490   34.6630   44.9260 C   0  0  0  0  0  0  0  0  0  0  0  0
   45.6020   33.6090   44.3030 C   0  0  0  0  0  0  0  0  0  0  0  0
   46.0100   32.5890   45.0970 N   0  0  0  0  0  0  0  0  0  0  0  0
   45.8190   32.5500   46.4170 C   0  0  0  0  0  0  0  0  0  0  0  0
   45.1860   33.5630   47.0400 N   0  0  0  0  0  0  0  0  0  0  0  0
   44.4450   35.8360   44.2230 C   0  0  0  0  0  0  0  0  0  0  0  0
   44.9570   36.9850   44.2050 O   0  0  0  0  0  0  0  0  0  0  0  0
   43.9820   33.1117   41.8567 H   0  0  0  0  0  0  0  0  0  0  0  0
   50.0338   35.1580   40.3490 H   0  0  0  0  0  0  0  0  0  0  0  0
   50.3361   35.1934   43.9974 H   0  0  0  0  0  0  0  0  0  0  0  0
   51.2167   35.5127   42.4791 H   0  0  0  0  0  0  0  0  0  0  0  0
   44.2325   35.4467   46.8237 H   0  0  0  0  0  0  0  0  0  0  0  0
   46.1794   31.6884   46.9981 H   0  0  0  0  0  0  0  0  0  0  0  0
   43.5178   35.7024   43.6465 H   0  0  0  0  0  0  0  0  0  0  0  0
  1 14  1  0
  2  1  1  0
  3  4  1  0
  3  2  2  0
  4 11  2  0
  5  7  1  0
  5  4  1  0
  6  5  2  0
  7  8  1  0
  8 10  2  0
  8  9  1  0
 11  1  1  0
 11 10  1  0
 12 17  2  0
 13 12  1  0
 14 13  2  0
 14 15  1  0
 15 16  2  0
 16 17  1  0
 18 13  1  0
 19 18  2  0
  2 20  1  0
  7 21  1  0
  9 22  1  0
  9 23  1  0
 12 24  1  0
 16 25  1  0
 18 26  1  0
M  ISO  5  20  14  21   9  24  14  25  14  26   6
M  END
>  <minimizedAffinity>  (1) 
-5.84966278

>  <minimizedRMSD>  (1) 
1.32636929

$$$$
