
     RDKit          3D

 27 29  0  0  0  0  0  0  0  0999 V2000
   45.8680   33.5200   42.8530 N   0  0  0  0  0  0  0  0  0  0  0  0
   45.1090   33.3040   41.7630 C   0  0  0  0  0  0  0  0  0  0  0  0
   45.7870   33.6240   40.6440 N   0  0  0  0  0  0  0  0  0  0  0  0
   47.0150   34.0610   40.9970 C   0  0  0  0  0  0  0  0  0  0  0  0
   48.0850   34.5020   40.2370 C   0  0  0  0  0  0  0  0  0  0  0  0
   48.0460   34.5660   38.9940 O   0  0  0  0  0  0  0  0  0  0  0  0
   49.2170   34.8840   40.8300 N   0  0  0  0  0  0  0  0  0  0  0  0
   49.2590   34.8170   42.1790 C   0  0  0  0  0  0  0  0  0  0  0  0
   50.4040   35.1900   42.9270 N   0  0  0  0  0  0  0  0  0  0  0  0
   48.2360   34.3930   42.9230 N   0  0  0  0  0  0  0  0  0  0  0  0
   47.0570   33.9910   42.3770 C   0  0  0  0  0  0  0  0  0  0  0  0
   44.9860   34.3280   46.3190 C   0  0  0  0  0  0  0  0  0  0  0  0
   45.1480   34.4650   44.9290 C   0  0  0  0  0  0  0  0  0  0  0  0
   45.7070   33.3770   44.2390 C   0  0  0  0  0  0  0  0  0  0  0  0
   46.0500   32.2770   44.9530 N   0  0  0  0  0  0  0  0  0  0  0  0
   45.8820   32.1760   46.2810 C   0  0  0  0  0  0  0  0  0  0  0  0
   45.3510   33.1950   46.9740 N   0  0  0  0  0  0  0  0  0  0  0  0
   44.7120   35.7470   44.3150 C   0  0  0  0  0  0  0  0  0  0  0  0
   43.5550   35.5830   43.5730 F   0  0  0  0  0  0  0  0  0  0  0  0
   44.4520   36.7310   45.2280 F   0  0  0  0  0  0  0  0  0  0  0  0
   45.6610   36.2300   43.4160 F   0  0  0  0  0  0  0  0  0  0  0  0
   44.0785   32.9197   41.7831 H   0  0  0  0  0  0  0  0  0  0  0  0
   50.0244   35.2158   40.2832 H   0  0  0  0  0  0  0  0  0  0  0  0
   50.3921   35.1229   43.9547 H   0  0  0  0  0  0  0  0  0  0  0  0
   51.2478   35.5281   42.4427 H   0  0  0  0  0  0  0  0  0  0  0  0
   44.5519   35.1608   46.8917 H   0  0  0  0  0  0  0  0  0  0  0  0
   46.1806   31.2549   46.8028 H   0  0  0  0  0  0  0  0  0  0  0  0
  1 14  1  0
  2  1  1  0
  3  4  1  0
  3  2  2  0
  4 11  2  0
  5  7  1  0
  5  4  1  0
  6  5  2  0
  7  8  1  0
  8 10  2  0
  8  9  1  0
 11  1  1  0
 11 10  1  0
 12 17  2  0
 13 12  1  0
 14 13  2  0
 14 15  1  0
 15 16  2  0
 16 17  1  0
 18 13  1  0
 18 20  1  0
 19 18  1  0
 21 18  1  0
  2 22  1  0
  7 23  1  0
  9 24  1  0
  9 25  1  0
 12 26  1  0
 16 27  1  0
M  ISO  4  22  14  23   9  26  14  27  14
M  END
>  <minimizedAffinity>  (1) 
-6.36480522

>  <minimizedRMSD>  (1) 
1.50851142

$$$$
