
     RDKit          3D

 30 32  0  0  0  0  0  0  0  0999 V2000
   45.7560   33.8290   42.8410 N   0  0  0  0  0  0  0  0  0  0  0  0
   45.0050   33.5580   41.7580 C   0  0  0  0  0  0  0  0  0  0  0  0
   45.7390   33.7520   40.6340 N   0  0  0  0  0  0  0  0  0  0  0  0
   46.9770   34.1510   40.9920 C   0  0  0  0  0  0  0  0  0  0  0  0
   48.0820   34.4680   40.2300 C   0  0  0  0  0  0  0  0  0  0  0  0
   48.0670   34.4220   38.9770 O   0  0  0  0  0  0  0  0  0  0  0  0
   49.2260   34.8410   40.8280 N   0  0  0  0  0  0  0  0  0  0  0  0
   49.2190   34.8810   42.1670 C   0  0  0  0  0  0  0  0  0  0  0  0
   50.3650   35.2540   42.9150 N   0  0  0  0  0  0  0  0  0  0  0  0
   48.1540   34.5760   42.9070 N   0  0  0  0  0  0  0  0  0  0  0  0
   46.9740   34.1950   42.3640 C   0  0  0  0  0  0  0  0  0  0  0  0
   44.5570   34.8800   46.1500 C   0  0  0  0  0  0  0  0  0  0  0  0
   44.7740   34.8760   44.7550 C   0  0  0  0  0  0  0  0  0  0  0  0
   45.5420   33.8190   44.2440 C   0  0  0  0  0  0  0  0  0  0  0  0
   46.0150   32.8910   45.1020 N   0  0  0  0  0  0  0  0  0  0  0  0
   45.7880   32.9260   46.4180 C   0  0  0  0  0  0  0  0  0  0  0  0
   45.0640   33.9140   46.9500 N   0  0  0  0  0  0  0  0  0  0  0  0
   44.2120   35.9490   43.9170 C   0  0  0  0  0  0  0  0  0  0  0  0
   45.1510   37.1200   43.8850 C   0  0  0  0  0  0  0  0  0  0  0  0
   43.9555   33.2292   41.7807 H   0  0  0  0  0  0  0  0  0  0  0  0
   50.0663   35.0840   40.2841 H   0  0  0  0  0  0  0  0  0  0  0  0
   50.3243   35.2740   43.9440 H   0  0  0  0  0  0  0  0  0  0  0  0
   51.2379   35.5049   42.4292 H   0  0  0  0  0  0  0  0  0  0  0  0
   43.9608   35.6888   46.5976 H   0  0  0  0  0  0  0  0  0  0  0  0
   46.1991   32.1379   47.0660 H   0  0  0  0  0  0  0  0  0  0  0  0
   44.0639   35.5727   42.8940 H   0  0  0  0  0  0  0  0  0  0  0  0
   43.2484   36.2700   44.3393 H   0  0  0  0  0  0  0  0  0  0  0  0
   45.3942   37.4232   44.9140 H   0  0  0  0  0  0  0  0  0  0  0  0
   46.0741   36.8355   43.3588 H   0  0  0  0  0  0  0  0  0  0  0  0
   44.6727   37.9592   43.3588 H   0  0  0  0  0  0  0  0  0  0  0  0
  1 14  1  0
  2  1  1  0
  3  4  1  0
  3  2  2  0
  4 11  2  0
  5  7  1  0
  5  4  1  0
  6  5  2  0
  7  8  1  0
  8 10  2  0
  8  9  1  0
 11  1  1  0
 11 10  1  0
 12 17  2  0
 13 12  1  0
 14 13  2  0
 14 15  1  0
 15 16  2  0
 16 17  1  0
 18 13  1  0
 19 18  1  0
  2 20  1  0
  7 21  1  0
  9 22  1  0
  9 23  1  0
 12 24  1  0
 16 25  1  0
 18 26  1  0
 18 27  1  0
 19 28  1  0
 19 29  1  0
 19 30  1  0
M  ISO  8  20  14  21   9  24  14  25  14  26   8  27   8  28   8  29   8
M  ISO  1  30   8
M  END
>  <minimizedAffinity>  (1) 
-5.49171162

>  <minimizedRMSD>  (1) 
1.21565771

$$$$
