
     RDKit          3D

 25 27  0  0  0  0  0  0  0  0999 V2000
   45.5070   33.9380   42.1560 N   0  0  0  0  0  0  0  0  0  0  0  0
   44.8640   33.2340   41.2090 C   0  0  0  0  0  0  0  0  0  0  0  0
   45.5860   33.2490   40.0620 N   0  0  0  0  0  0  0  0  0  0  0  0
   46.7050   33.9690   40.2710 C   0  0  0  0  0  0  0  0  0  0  0  0
   47.7660   34.2840   39.4230 C   0  0  0  0  0  0  0  0  0  0  0  0
   47.8020   33.8890   38.2360 O   0  0  0  0  0  0  0  0  0  0  0  0
   48.7830   35.0270   39.8650 N   0  0  0  0  0  0  0  0  0  0  0  0
   48.7230   35.4400   41.1400 C   0  0  0  0  0  0  0  0  0  0  0  0
   49.7390   36.2370   41.7400 N   0  0  0  0  0  0  0  0  0  0  0  0
   47.7060   35.1410   41.9610 N   0  0  0  0  0  0  0  0  0  0  0  0
   46.6470   34.3950   41.5790 C   0  0  0  0  0  0  0  0  0  0  0  0
   44.3300   35.8370   45.0750 C   0  0  0  0  0  0  0  0  0  0  0  0
   44.5920   35.4860   43.7290 C   0  0  0  0  0  0  0  0  0  0  0  0
   45.2570   34.2660   43.5030 C   0  0  0  0  0  0  0  0  0  0  0  0
   45.5980   33.5190   44.5790 N   0  0  0  0  0  0  0  0  0  0  0  0
   45.3310   33.8880   45.8390 C   0  0  0  0  0  0  0  0  0  0  0  0
   44.6950   35.0490   46.0960 N   0  0  0  0  0  0  0  0  0  0  0  0
   44.2150   36.2990   42.6770 O   0  0  0  0  0  0  0  0  0  0  0  0
   43.8990   32.7235   41.3441 H   0  0  0  0  0  0  0  0  0  0  0  0
   49.5766   35.2718   39.2558 H   0  0  0  0  0  0  0  0  0  0  0  0
   49.6498   36.5307   42.7232 H   0  0  0  0  0  0  0  0  0  0  0  0
   50.5632   36.5199   41.1908 H   0  0  0  0  0  0  0  0  0  0  0  0
   43.8121   36.7835   45.2892 H   0  0  0  0  0  0  0  0  0  0  0  0
   45.6337   33.2371   46.6725 H   0  0  0  0  0  0  0  0  0  0  0  0
   44.4120   36.0268   41.7458 H   0  0  0  0  0  0  0  0  0  0  0  0
  1 14  1  0
  2  1  1  0
  3  4  1  0
  3  2  2  0
  4 11  2  0
  5  7  1  0
  5  4  1  0
  6  5  2  0
  7  8  1  0
  8  9  1  0
  8 10  2  0
 11 10  1  0
 11  1  1  0
 12 17  2  0
 13 12  1  0
 14 13  2  0
 14 15  1  0
 15 16  2  0
 16 17  1  0
 18 13  1  0
  2 19  1  0
  7 20  1  0
  9 21  1  0
  9 22  1  0
 12 23  1  0
 16 24  1  0
 18 25  1  0
M  ISO  5  19  14  20   9  23  14  24  14  25   3
M  END
>  <minimizedAffinity>  (1) 
-5.64339304

>  <minimizedRMSD>  (1) 
0.0239178967

$$$$
