
     RDKit          3D

 31 34  0  0  0  0  0  0  0  0999 V2000
   46.9880   31.8290   43.4950 N   0  0  0  0  0  0  0  0  0  0  0  0
   46.5790   30.9340   42.5800 C   0  0  0  0  0  0  0  0  0  0  0  0
   47.2460   31.1200   41.4200 N   0  0  0  0  0  0  0  0  0  0  0  0
   48.0990   32.1500   41.5890 C   0  0  0  0  0  0  0  0  0  0  0  0
   49.0150   32.7490   40.7180 C   0  0  0  0  0  0  0  0  0  0  0  0
   49.1590   32.3460   39.5450 O   0  0  0  0  0  0  0  0  0  0  0  0
   49.7660   33.7840   41.1360 N   0  0  0  0  0  0  0  0  0  0  0  0
   49.5870   34.1870   42.3960 C   0  0  0  0  0  0  0  0  0  0  0  0
   50.3320   35.2550   42.9540 N   0  0  0  0  0  0  0  0  0  0  0  0
   48.7180   33.6300   43.2430 N   0  0  0  0  0  0  0  0  0  0  0  0
   47.9330   32.5890   42.8880 C   0  0  0  0  0  0  0  0  0  0  0  0
   45.4410   33.4300   46.4170 C   0  0  0  0  0  0  0  0  0  0  0  0
   45.7690   33.1500   45.0700 C   0  0  0  0  0  0  0  0  0  0  0  0
   46.6590   32.1100   44.8480 C   0  0  0  0  0  0  0  0  0  0  0  0
   47.1610   31.4250   45.9230 N   0  0  0  0  0  0  0  0  0  0  0  0
   46.8150   31.7330   47.1860 C   0  0  0  0  0  0  0  0  0  0  0  0
   45.9560   32.7330   47.4390 N   0  0  0  0  0  0  0  0  0  0  0  0
   45.2040   33.9120   43.9700 C   0  0  0  0  0  0  0  0  0  0  0  0
   45.4670   35.2510   43.7560 C   0  0  0  0  0  0  0  0  0  0  0  0
   44.7570   35.6390   42.6180 C   0  0  0  0  0  0  0  0  0  0  0  0
   44.0960   34.4840   42.2100 C   0  0  0  0  0  0  0  0  0  0  0  0
   44.3870   33.5040   43.0290 O   0  0  0  0  0  0  0  0  0  0  0  0
   45.8133   30.1629   42.7505 H   0  0  0  0  0  0  0  0  0  0  0  0
   50.4463   34.2433   40.5138 H   0  0  0  0  0  0  0  0  0  0  0  0
   50.1696   35.5415   43.9299 H   0  0  0  0  0  0  0  0  0  0  0  0
   51.0360   35.7450   42.3838 H   0  0  0  0  0  0  0  0  0  0  0  0
   44.7386   34.2485   46.6332 H   0  0  0  0  0  0  0  0  0  0  0  0
   47.2412   31.1584   48.0216 H   0  0  0  0  0  0  0  0  0  0  0  0
   46.1162   35.8934   44.3691 H   0  0  0  0  0  0  0  0  0  0  0  0
   44.7268   36.6337   42.1493 H   0  0  0  0  0  0  0  0  0  0  0  0
   43.4326   34.4063   41.3360 H   0  0  0  0  0  0  0  0  0  0  0  0
  1 14  1  0
  2  1  1  0
  3  4  1  0
  3  2  2  0
  4 11  2  0
  5  7  1  0
  5  4  1  0
  6  5  2  0
  7  8  1  0
  8  9  1  0
  8 10  2  0
 11 10  1  0
 11  1  1  0
 12 17  2  0
 13 12  1  0
 14 13  2  0
 14 15  1  0
 15 16  2  0
 16 17  1  0
 18 13  1  0
 19 18  2  0
 20 19  1  0
 21 20  2  0
 21 22  1  0
 22 18  1  0
  2 23  1  0
  7 24  1  0
  9 25  1  0
  9 26  1  0
 12 27  1  0
 16 28  1  0
 19 29  1  0
 20 30  1  0
 21 31  1  0
M  ISO  7  23  14  24   9  27  14  28  14  29  14  30  14  31  14
M  END
>  <minimizedAffinity>  (1) 
-5.67437983

>  <minimizedRMSD>  (1) 
2.75570226

$$$$
