
     RDKit          3D

 36 38  0  0  0  0  0  0  0  0999 V2000
   46.5210   32.2810   42.6340 N   0  0  0  0  0  0  0  0  0  0  0  0
   45.8130   31.8300   41.5810 C   0  0  0  0  0  0  0  0  0  0  0  0
   46.5850   31.7880   40.4750 N   0  0  0  0  0  0  0  0  0  0  0  0
   47.8160   32.2180   40.8020 C   0  0  0  0  0  0  0  0  0  0  0  0
   48.9740   32.3670   40.0430 C   0  0  0  0  0  0  0  0  0  0  0  0
   49.0170   32.1010   38.8320 O   0  0  0  0  0  0  0  0  0  0  0  0
   50.0980   32.8120   40.6040 N   0  0  0  0  0  0  0  0  0  0  0  0
   50.0480   33.1050   41.9160 C   0  0  0  0  0  0  0  0  0  0  0  0
   51.1760   33.5860   42.6350 N   0  0  0  0  0  0  0  0  0  0  0  0
   48.9360   32.9650   42.6490 N   0  0  0  0  0  0  0  0  0  0  0  0
   47.7670   32.5190   42.1370 C   0  0  0  0  0  0  0  0  0  0  0  0
   45.4450   33.9890   45.6860 C   0  0  0  0  0  0  0  0  0  0  0  0
   45.6730   33.7890   44.2900 C   0  0  0  0  0  0  0  0  0  0  0  0
   46.2520   32.5540   43.9960 C   0  0  0  0  0  0  0  0  0  0  0  0
   46.5370   31.6870   44.9980 N   0  0  0  0  0  0  0  0  0  0  0  0
   46.2980   31.9340   46.2850 C   0  0  0  0  0  0  0  0  0  0  0  0
   45.7470   33.0930   46.6420 N   0  0  0  0  0  0  0  0  0  0  0  0
   45.2790   34.8540   43.3580 C   0  0  0  0  0  0  0  0  0  0  0  0
   44.1010   34.4630   42.4870 C   0  0  0  0  0  0  0  0  0  0  0  0
   46.4080   35.4680   42.5800 C   0  0  0  0  0  0  0  0  0  0  0  0
   44.7180   36.0390   44.1820 C   0  0  0  0  0  0  0  0  0  0  0  0
   44.7534   31.5368   41.6173 H   0  0  0  0  0  0  0  0  0  0  0  0
   50.9643   32.9262   40.0586 H   0  0  0  0  0  0  0  0  0  0  0  0
   51.0942   33.7983   43.6396 H   0  0  0  0  0  0  0  0  0  0  0  0
   52.0752   33.7223   42.1514 H   0  0  0  0  0  0  0  0  0  0  0  0
   44.9916   34.9407   46.0002 H   0  0  0  0  0  0  0  0  0  0  0  0
   46.5542   31.1850   47.0487 H   0  0  0  0  0  0  0  0  0  0  0  0
   43.2508   34.1808   43.1253 H   0  0  0  0  0  0  0  0  0  0  0  0
   43.8159   35.3147   41.8519 H   0  0  0  0  0  0  0  0  0  0  0  0
   44.3818   33.6099   41.8519 H   0  0  0  0  0  0  0  0  0  0  0  0
   47.1554   35.8745   43.2773 H   0  0  0  0  0  0  0  0  0  0  0  0
   46.8767   34.7006   41.9465 H   0  0  0  0  0  0  0  0  0  0  0  0
   46.0185   36.2786   41.9465 H   0  0  0  0  0  0  0  0  0  0  0  0
   44.8213   35.8208   45.2552 H   0  0  0  0  0  0  0  0  0  0  0  0
   45.2789   36.9533   43.9381 H   0  0  0  0  0  0  0  0  0  0  0  0
   43.6553   36.1847   43.9381 H   0  0  0  0  0  0  0  0  0  0  0  0
  1 14  1  0
  2  1  1  0
  3  4  1  0
  3  2  2  0
  4 11  2  0
  5  7  1  0
  5  4  1  0
  6  5  2  0
  7  8  1  0
  8  9  1  0
  8 10  2  0
 11  1  1  0
 11 10  1  0
 12 17  2  0
 13 12  1  0
 14 13  2  0
 14 15  1  0
 15 16  2  0
 16 17  1  0
 18 21  1  0
 18 13  1  0
 19 18  1  0
 20 18  1  0
  2 22  1  0
  7 23  1  0
  9 24  1  0
  9 25  1  0
 12 26  1  0
 16 27  1  0
 19 28  1  0
 19 29  1  0
 19 30  1  0
 20 31  1  0
 20 32  1  0
 20 33  1  0
 21 34  1  0
 21 35  1  0
 21 36  1  0
M  ISO  8  22  14  23   9  26  14  27  14  28   8  29   8  30   8  31   8
M  ISO  5  32   8  33   8  34   8  35   8  36   8
M  END
>  <minimizedAffinity>  (1) 
-5.43770552

>  <minimizedRMSD>  (1) 
2.2772274

$$$$
