
     RDKit          3D

 25 27  0  0  0  0  0  0  0  0999 V2000
   45.9050   33.4650   42.3040 N   0  0  0  0  0  0  0  0  0  0  0  0
   45.3430   32.7100   41.3500 C   0  0  0  0  0  0  0  0  0  0  0  0
   45.9730   32.8990   40.1680 N   0  0  0  0  0  0  0  0  0  0  0  0
   46.9620   33.7950   40.3640 C   0  0  0  0  0  0  0  0  0  0  0  0
   47.9010   34.3330   39.4860 C   0  0  0  0  0  0  0  0  0  0  0  0
   47.9470   34.0220   38.2810 O   0  0  0  0  0  0  0  0  0  0  0  0
   48.8050   35.2270   39.9280 N   0  0  0  0  0  0  0  0  0  0  0  0
   48.7440   35.5560   41.2280 C   0  0  0  0  0  0  0  0  0  0  0  0
   49.6420   36.4860   41.8200 N   0  0  0  0  0  0  0  0  0  0  0  0
   47.8480   35.0420   42.0710 N   0  0  0  0  0  0  0  0  0  0  0  0
   46.9180   34.1440   41.6910 C   0  0  0  0  0  0  0  0  0  0  0  0
   44.6870   35.0630   45.3840 C   0  0  0  0  0  0  0  0  0  0  0  0
   44.9350   34.8130   44.0250 C   0  0  0  0  0  0  0  0  0  0  0  0
   45.6820   33.6760   43.6710 C   0  0  0  0  0  0  0  0  0  0  0  0
   46.1230   32.8800   44.6750 N   0  0  0  0  0  0  0  0  0  0  0  0
   45.8700   33.1420   45.9790 C   0  0  0  0  0  0  0  0  0  0  0  0
   45.1570   34.2260   46.3360 N   0  0  0  0  0  0  0  0  0  0  0  0
   44.3160   35.9120   42.7870 S   0  0  0  0  0  0  0  0  0  0  0  0
   44.4904   32.0327   41.5060 H   0  0  0  0  0  0  0  0  0  0  0  0
   49.5094   35.6387   39.2993 H   0  0  0  0  0  0  0  0  0  0  0  0
   49.5627   36.7123   42.8217 H   0  0  0  0  0  0  0  0  0  0  0  0
   50.3718   36.9334   41.2471 H   0  0  0  0  0  0  0  0  0  0  0  0
   44.1044   35.9488   45.6772 H   0  0  0  0  0  0  0  0  0  0  0  0
   46.2513   32.4617   46.7547 H   0  0  0  0  0  0  0  0  0  0  0  0
   43.7120   36.9843   43.3889 H   0  0  0  0  0  0  0  0  0  0  0  0
  1 14  1  0
  2  1  1  0
  3  4  1  0
  3  2  2  0
  4 11  2  0
  5  7  1  0
  5  4  1  0
  6  5  2  0
  7  8  1  0
  8  9  1  0
  8 10  2  0
 11 10  1  0
 11  1  1  0
 12 17  2  0
 13 12  1  0
 14 13  2  0
 14 15  1  0
 15 16  2  0
 16 17  1  0
 18 13  1  0
  2 19  1  0
  7 20  1  0
  9 21  1  0
  9 22  1  0
 12 23  1  0
 16 24  1  0
 18 25  1  0
M  ISO  5  19  14  20   9  23  14  24  14  25  11
M  END
>  <minimizedAffinity>  (1) 
-5.03397036

>  <minimizedRMSD>  (1) 
0.623574495

$$$$
