
     RDKit          3D

 37 41  0  0  0  0  0  0  0  0999 V2000
   44.1160   35.1640   44.1610 C   0  0  0  0  0  0  0  0  0  0  0  0
   44.4860   34.3770   43.0530 C   0  0  0  0  0  0  0  0  0  0  0  0
   45.5170   33.4610   43.2150 C   0  0  0  0  0  0  0  0  0  0  0  0
   46.1070   33.3810   44.4450 N   0  0  0  0  0  0  0  0  0  0  0  0
   45.7310   34.1430   45.4790 C   0  0  0  0  0  0  0  0  0  0  0  0
   44.7470   35.0270   45.3480 N   0  0  0  0  0  0  0  0  0  0  0  0
   45.8710   32.6860   42.0930 N   0  0  0  0  0  0  0  0  0  0  0  0
   45.5300   31.4820   41.6010 C   0  0  0  0  0  0  0  0  0  0  0  0
   46.1930   31.2260   40.4620 N   0  0  0  0  0  0  0  0  0  0  0  0
   46.9840   32.2800   40.1980 C   0  0  0  0  0  0  0  0  0  0  0  0
   47.8710   32.5240   39.1480 C   0  0  0  0  0  0  0  0  0  0  0  0
   48.0620   31.7160   38.2290 O   0  0  0  0  0  0  0  0  0  0  0  0
   48.5630   33.6750   39.1030 N   0  0  0  0  0  0  0  0  0  0  0  0
   48.3570   34.5480   40.0970 C   0  0  0  0  0  0  0  0  0  0  0  0
   49.0250   35.7950   40.1620 N   0  0  0  0  0  0  0  0  0  0  0  0
   47.5060   34.3220   41.1100 N   0  0  0  0  0  0  0  0  0  0  0  0
   46.7810   33.1890   41.2170 C   0  0  0  0  0  0  0  0  0  0  0  0
   43.7570   34.5970   41.8380 N   0  0  0  0  0  0  0  0  0  0  0  0
   43.8570   35.5810   40.9100 C   0  0  0  0  0  0  0  0  0  0  0  0
   42.9390   35.3450   39.9320 N   0  0  0  0  0  0  0  0  0  0  0  0
   42.2850   34.2360   40.2500 C   0  0  0  0  0  0  0  0  0  0  0  0
   41.2790   33.5230   39.6700 C   0  0  0  0  0  0  0  0  0  0  0  0
   40.7920   32.3890   40.2370 N   0  0  0  0  0  0  0  0  0  0  0  0
   41.2660   31.9100   41.3900 C   0  0  0  0  0  0  0  0  0  0  0  0
   42.2510   32.6250   41.9420 N   0  0  0  0  0  0  0  0  0  0  0  0
   42.7690   33.7520   41.4230 C   0  0  0  0  0  0  0  0  0  0  0  0
   40.6810   33.9050   38.4540 N   0  0  0  0  0  0  0  0  0  0  0  0
   43.3038   35.8988   44.0588 H   0  0  0  0  0  0  0  0  0  0  0  0
   46.2416   34.0366   46.4475 H   0  0  0  0  0  0  0  0  0  0  0  0
   44.8056   30.7990   42.0686 H   0  0  0  0  0  0  0  0  0  0  0  0
   49.2225   33.8767   38.3379 H   0  0  0  0  0  0  0  0  0  0  0  0
   48.8385   36.4390   40.9439 H   0  0  0  0  0  0  0  0  0  0  0  0
   49.6974   36.0580   39.4274 H   0  0  0  0  0  0  0  0  0  0  0  0
   44.5602   36.4263   40.9418 H   0  0  0  0  0  0  0  0  0  0  0  0
   40.8736   30.9923   41.8524 H   0  0  0  0  0  0  0  0  0  0  0  0
   41.0004   34.7549   37.9677 H   0  0  0  0  0  0  0  0  0  0  0  0
   39.9241   33.3345   38.0507 H   0  0  0  0  0  0  0  0  0  0  0  0
  1  6  2  0
  2  3  2  0
  2  1  1  0
  3  4  1  0
  4  5  2  0
  6  5  1  0
  7  3  1  0
  8  7  1  0
  9  8  2  0
 10  9  1  0
 10 17  2  0
 11 10  1  0
 12 11  2  0
 13 11  1  0
 13 14  1  0
 14 15  1  0
 14 16  2  0
 16 17  1  0
 17  7  1  0
 18  2  1  0
 19 18  1  0
 20 21  1  0
 20 19  2  0
 21 26  2  0
 22 23  2  0
 22 21  1  0
 23 24  1  0
 24 25  2  0
 26 18  1  0
 26 25  1  0
 27 22  1  0
  1 28  1  0
  5 29  1  0
  8 30  1  0
 13 31  1  0
 15 32  1  0
 15 33  1  0
 19 34  1  0
 24 35  1  0
 27 36  1  0
 27 37  1  0
M  ISO  6  28  14  29  14  30  14  31   9  34  14  35  14
M  END
>  <minimizedAffinity>  (1) 
-5.39163351

>  <minimizedRMSD>  (1) 
2.75215435

$$$$
