
     RDKit          3D

 38 41  0  0  0  0  0  0  0  0999 V2000
   45.6570   32.1800   42.9790 N   0  0  0  0  0  0  0  0  0  0  0  0
   45.3970   32.1660   41.6520 C   0  0  0  0  0  0  0  0  0  0  0  0
   44.7560   33.2970   41.2880 N   0  0  0  0  0  0  0  0  0  0  0  0
   44.5960   34.0600   42.3830 C   0  0  0  0  0  0  0  0  0  0  0  0
   44.0040   35.3100   42.5450 C   0  0  0  0  0  0  0  0  0  0  0  0
   43.4980   35.9350   41.5920 O   0  0  0  0  0  0  0  0  0  0  0  0
   43.9640   35.8840   43.7710 N   0  0  0  0  0  0  0  0  0  0  0  0
   44.5130   35.1900   44.7670 C   0  0  0  0  0  0  0  0  0  0  0  0
   44.5360   35.6810   46.1060 N   0  0  0  0  0  0  0  0  0  0  0  0
   45.0800   33.9940   44.6130 N   0  0  0  0  0  0  0  0  0  0  0  0
   45.1580   33.3580   43.4250 C   0  0  0  0  0  0  0  0  0  0  0  0
   48.3010   30.2450   44.6360 C   0  0  0  0  0  0  0  0  0  0  0  0
   47.6410   31.1120   43.7380 C   0  0  0  0  0  0  0  0  0  0  0  0
   46.2770   31.3130   43.8890 C   0  0  0  0  0  0  0  0  0  0  0  0
   45.6310   30.6570   44.9090 N   0  0  0  0  0  0  0  0  0  0  0  0
   46.3040   29.8390   45.7420 C   0  0  0  0  0  0  0  0  0  0  0  0
   47.6120   29.6250   45.6230 N   0  0  0  0  0  0  0  0  0  0  0  0
   48.4740   31.7000   42.7510 N   0  0  0  0  0  0  0  0  0  0  0  0
   49.0290   31.2290   41.5160 C   0  0  0  0  0  0  0  0  0  0  0  0
   50.4360   31.7170   41.2790 C   0  0  0  0  0  0  0  0  0  0  0  0
   50.5810   33.1330   41.4800 N   0  0  0  0  0  0  0  0  0  0  0  0
   49.3540   33.7790   41.8860 C   0  0  0  0  0  0  0  0  0  0  0  0
   48.8140   33.0580   43.1040 C   0  0  0  0  0  0  0  0  0  0  0  0
   45.6690   31.3495   40.9669 H   0  0  0  0  0  0  0  0  0  0  0  0
   43.5327   36.8066   43.9250 H   0  0  0  0  0  0  0  0  0  0  0  0
   44.9685   35.1192   46.8532 H   0  0  0  0  0  0  0  0  0  0  0  0
   44.1201   36.5973   46.3257 H   0  0  0  0  0  0  0  0  0  0  0  0
   49.3824   30.0721   44.5330 H   0  0  0  0  0  0  0  0  0  0  0  0
   45.7535   29.3310   46.5476 H   0  0  0  0  0  0  0  0  0  0  0  0
   49.0374   30.1292   41.5322 H   0  0  0  0  0  0  0  0  0  0  0  0
   48.4024   31.6226   40.7021 H   0  0  0  0  0  0  0  0  0  0  0  0
   50.7196   31.4792   40.2431 H   0  0  0  0  0  0  0  0  0  0  0  0
   51.0863   31.2129   42.0090 H   0  0  0  0  0  0  0  0  0  0  0  0
   51.2903   33.2890   42.2104 H   0  0  0  0  0  0  0  0  0  0  0  0
   49.5533   34.8316   42.1355 H   0  0  0  0  0  0  0  0  0  0  0  0
   48.6191   33.7420   41.0684 H   0  0  0  0  0  0  0  0  0  0  0  0
   47.9156   33.5775   43.4687 H   0  0  0  0  0  0  0  0  0  0  0  0
   49.5800   33.0497   43.8934 H   0  0  0  0  0  0  0  0  0  0  0  0
  1 11  1  0
  1 14  1  0
  2  1  1  0
  3  2  2  0
  3  4  1  0
  4  5  1  0
  4 11  2  0
  5  7  1  0
  6  5  2  0
  7  8  1  0
  8  9  1  0
 10  8  2  0
 11 10  1  0
 12 17  2  0
 13 14  2  0
 13 12  1  0
 14 15  1  0
 15 16  2  0
 17 16  1  0
 18 23  1  0
 18 13  1  0
 19 18  1  0
 20 21  1  0
 20 19  1  0
 21 22  1  0
 22 23  1  0
  2 24  1  0
  7 25  1  0
  9 26  1  0
  9 27  1  0
 12 28  1  0
 16 29  1  0
 19 30  1  0
 19 31  1  0
 20 32  1  0
 20 33  1  0
 21 34  1  0
 22 35  1  0
 22 36  1  0
 23 37  1  0
 23 38  1  0
M  ISO  8  24  14  25   9  28  14  29  14  30  13  31  13  32  13  33  13
M  ISO  5  34   5  35  13  36  13  37  13  38  13
M  END
>  <minimizedAffinity>  (1) 
-5.40947151

>  <minimizedRMSD>  (1) 
5.64829063

$$$$
