
     RDKit          3D

 36 39  0  0  0  0  0  0  0  0999 V2000
   46.6440   32.1700   43.3350 N   0  0  0  0  0  0  0  0  0  0  0  0
   46.1030   31.4430   42.3440 C   0  0  0  0  0  0  0  0  0  0  0  0
   46.7290   31.6980   41.1770 N   0  0  0  0  0  0  0  0  0  0  0  0
   47.6970   32.6060   41.4030 C   0  0  0  0  0  0  0  0  0  0  0  0
   48.6180   33.1990   40.5510 C   0  0  0  0  0  0  0  0  0  0  0  0
   48.6670   32.9330   39.3320 O   0  0  0  0  0  0  0  0  0  0  0  0
   49.4960   34.0890   41.0160 N   0  0  0  0  0  0  0  0  0  0  0  0
   49.4330   34.3670   42.3320 C   0  0  0  0  0  0  0  0  0  0  0  0
   50.3130   35.3010   42.9650 N   0  0  0  0  0  0  0  0  0  0  0  0
   48.5550   33.8050   43.1620 N   0  0  0  0  0  0  0  0  0  0  0  0
   47.6370   32.8940   42.7470 C   0  0  0  0  0  0  0  0  0  0  0  0
   45.3470   33.5500   46.4840 C   0  0  0  0  0  0  0  0  0  0  0  0
   45.5920   33.3630   45.1120 C   0  0  0  0  0  0  0  0  0  0  0  0
   46.4230   32.3250   44.7120 C   0  0  0  0  0  0  0  0  0  0  0  0
   46.9630   31.5340   45.6960 N   0  0  0  0  0  0  0  0  0  0  0  0
   46.7100   31.7380   46.9980 C   0  0  0  0  0  0  0  0  0  0  0  0
   45.9100   32.7360   47.3930 N   0  0  0  0  0  0  0  0  0  0  0  0
   44.9460   34.2820   44.2390 N   0  0  0  0  0  0  0  0  0  0  0  0
   44.2680   34.1230   42.9670 C   0  0  0  0  0  0  0  0  0  0  0  0
   44.4570   35.3910   42.1980 C   0  0  0  0  0  0  0  0  0  0  0  0
   45.3550   36.2200   43.1140 C   0  0  0  0  0  0  0  0  0  0  0  0
   44.8140   35.7290   44.4630 C   0  0  0  0  0  0  0  0  0  0  0  0
   45.2670   30.7387   42.4668 H   0  0  0  0  0  0  0  0  0  0  0  0
   50.1869   34.5406   40.3999 H   0  0  0  0  0  0  0  0  0  0  0  0
   50.2298   35.4837   43.9752 H   0  0  0  0  0  0  0  0  0  0  0  0
   51.0297   35.7906   42.4104 H   0  0  0  0  0  0  0  0  0  0  0  0
   44.6903   34.3679   46.8153 H   0  0  0  0  0  0  0  0  0  0  0  0
   47.1656   31.0770   47.7500 H   0  0  0  0  0  0  0  0  0  0  0  0
   44.7027   33.2785   42.4122 H   0  0  0  0  0  0  0  0  0  0  0  0
   43.1983   33.9174   43.1201 H   0  0  0  0  0  0  0  0  0  0  0  0
   44.9479   35.1981   41.2327 H   0  0  0  0  0  0  0  0  0  0  0  0
   43.5097   35.8927   41.9511 H   0  0  0  0  0  0  0  0  0  0  0  0
   46.4198   35.9780   42.9810 H   0  0  0  0  0  0  0  0  0  0  0  0
   45.3275   37.3080   42.9545 H   0  0  0  0  0  0  0  0  0  0  0  0
   43.7682   36.0295   44.6240 H   0  0  0  0  0  0  0  0  0  0  0  0
   45.3255   36.1224   45.3538 H   0  0  0  0  0  0  0  0  0  0  0  0
  1 14  1  0
  2  1  1  0
  3  4  1  0
  3  2  2  0
  4 11  2  0
  5  7  1  0
  5  4  1  0
  6  5  2  0
  7  8  1  0
  8  9  1  0
  8 10  2  0
 11 10  1  0
 11  1  1  0
 12 17  2  0
 13 12  1  0
 14 13  2  0
 14 15  1  0
 15 16  2  0
 16 17  1  0
 18 22  1  0
 18 13  1  0
 19 18  1  0
 20 19  1  0
 20 21  1  0
 21 22  1  0
  2 23  1  0
  7 24  1  0
  9 25  1  0
  9 26  1  0
 12 27  1  0
 16 28  1  0
 19 29  1  0
 19 30  1  0
 20 31  1  0
 20 32  1  0
 21 33  1  0
 21 34  1  0
 22 35  1  0
 22 36  1  0
M  ISO  8  23  14  24   9  27  14  28  14  29  13  30  13  31  13  32  13
M  ISO  4  33  13  34  13  35  13  36  13
M  END
>  <minimizedAffinity>  (1) 
-5.82748413

>  <minimizedRMSD>  (1) 
2.39385867

$$$$
