
     RDKit          3D

 19 20  0  0  0  0  0  0  0  0999 V2000
   44.4580   35.9520   44.7190 C   0  0  0  0  0  0  0  0  0  0  0  0
   44.7280   35.6080   43.3910 C   0  0  0  0  0  0  0  0  0  0  0  0
   45.3530   34.4000   43.0840 C   0  0  0  0  0  0  0  0  0  0  0  0
   45.6630   33.6210   44.1450 N   0  0  0  0  0  0  0  0  0  0  0  0
   45.4040   33.9510   45.4230 C   0  0  0  0  0  0  0  0  0  0  0  0
   44.8060   35.1120   45.6830 N   0  0  0  0  0  0  0  0  0  0  0  0
   45.6660   33.9800   41.6860 C   0  0  0  0  0  0  0  0  0  0  0  0
   44.8070   33.2010   40.9850 C   0  0  0  0  0  0  0  0  0  0  0  0
   45.6590   32.9990   39.3890 S   0  0  0  0  0  0  0  0  0  0  0  0
   47.1030   34.0640   39.9920 C   0  0  0  0  0  0  0  0  0  0  0  0
   46.7570   34.3260   41.0620 N   0  0  0  0  0  0  0  0  0  0  0  0
   48.3200   34.3970   39.1720 C   0  0  0  0  0  0  0  0  0  0  0  0
   43.9644   36.9051   44.9598 H   0  0  0  0  0  0  0  0  0  0  0  0
   44.4448   36.2965   42.5812 H   0  0  0  0  0  0  0  0  0  0  0  0
   45.6823   33.2713   46.2419 H   0  0  0  0  0  0  0  0  0  0  0  0
   43.8361   32.7922   41.3017 H   0  0  0  0  0  0  0  0  0  0  0  0
   49.1616   34.6273   39.8418 H   0  0  0  0  0  0  0  0  0  0  0  0
   48.5810   33.5373   38.5374 H   0  0  0  0  0  0  0  0  0  0  0  0
   48.1070   35.2699   38.5374 H   0  0  0  0  0  0  0  0  0  0  0  0
  1  6  2  0
  2  1  1  0
  3  2  2  0
  3  4  1  0
  4  5  2  0
  5  6  1  0
  7  3  1  0
  8  7  2  0
  9 10  1  0
  9  8  1  0
 10 11  2  0
 11  7  1  0
 12 10  1  0
  1 13  1  0
  2 14  1  0
  5 15  1  0
  8 16  1  0
 12 17  1  0
 12 18  1  0
 12 19  1  0
M  ISO  7  13  14  14  14  15  14  16  14  17   8  18   8  19   8
M  END
>  <minimizedAffinity>  (1) 
-3.68594837

>  <minimizedRMSD>  (1) 
1.62215197

$$$$
