
     RDKit          3D

 49 53  0  0  1  0  0  0  0  0999 V2000
   45.2230   33.7340   44.7540 C   0  0  0  0  0  0  0  0  0  0  0  0
   46.0970   32.9840   43.9500 C   0  0  0  0  0  0  0  0  0  0  0  0
   47.0820   32.2240   44.5770 C   0  0  0  0  0  0  0  0  0  0  0  0
   47.1280   32.2650   45.9390 N   0  0  0  0  0  0  0  0  0  0  0  0
   46.2800   32.9920   46.6800 C   0  0  0  0  0  0  0  0  0  0  0  0
   45.3310   33.7240   46.0840 N   0  0  0  0  0  0  0  0  0  0  0  0
   47.9410   31.4920   43.7620 N   0  0  0  0  0  0  0  0  0  0  0  0
   48.0640   30.2010   43.3900 C   0  0  0  0  0  0  0  0  0  0  0  0
   49.1020   30.0490   42.5590 N   0  0  0  0  0  0  0  0  0  0  0  0
   49.6810   31.2380   42.3730 C   0  0  0  0  0  0  0  0  0  0  0  0
   50.7900   31.6170   41.6280 C   0  0  0  0  0  0  0  0  0  0  0  0
   51.4540   30.8060   40.9410 O   0  0  0  0  0  0  0  0  0  0  0  0
   51.1980   32.8850   41.6160 N   0  0  0  0  0  0  0  0  0  0  0  0
   50.4850   33.7650   42.3560 C   0  0  0  0  0  0  0  0  0  0  0  0
   50.8070   35.1570   42.4480 N   0  0  0  0  0  0  0  0  0  0  0  0
   49.4200   33.4120   43.0730 N   0  0  0  0  0  0  0  0  0  0  0  0
   48.9560   32.1270   43.1230 C   0  0  0  0  0  0  0  0  0  0  0  0
   45.8970   33.0710   42.5430 N   0  0  0  0  0  0  0  0  0  0  0  0
   45.9940   32.1520   41.4650 C   0  0  0  0  0  0  0  0  0  0  0  0
   46.4680   32.8910   40.2390 C   0  0  0  0  0  0  0  0  0  0  0  0
   46.6230   34.3050   40.7550 C   0  0  0  0  0  0  0  0  0  0  0  0
   45.5000   34.2790   41.8150 C   0  0  1  0  0  0  0  0  0  0  0  0
   44.2540   34.2620   41.0650 C   0  0  0  0  0  0  0  0  0  0  0  0
   43.1010   33.4570   41.5490 C   0  0  0  0  0  0  0  0  0  0  0  0
   41.8780   33.9990   40.8230 C   0  0  0  0  0  0  0  0  0  0  0  0
   42.1810   35.4760   40.7880 C   0  0  0  0  0  0  0  0  0  0  0  0
   43.6280   35.6650   41.2160 C   0  0  0  0  0  0  0  0  0  0  0  0
   44.4367   34.3395   44.2796 H   0  0  0  0  0  0  0  0  0  0  0  0
   46.3639   32.9871   47.7768 H   0  0  0  0  0  0  0  0  0  0  0  0
   47.4034   29.3870   43.7232 H   0  0  0  0  0  0  0  0  0  0  0  0
   52.0185   33.1818   41.0686 H   0  0  0  0  0  0  0  0  0  0  0  0
   50.2286   35.7822   43.0272 H   0  0  0  0  0  0  0  0  0  0  0  0
   51.6171   35.5332   41.9350 H   0  0  0  0  0  0  0  0  0  0  0  0
   46.7119   31.3583   41.7191 H   0  0  0  0  0  0  0  0  0  0  0  0
   45.0113   31.6974   41.2713 H   0  0  0  0  0  0  0  0  0  0  0  0
   45.7233   32.8411   39.4310 H   0  0  0  0  0  0  0  0  0  0  0  0
   47.3897   32.4772   39.8040 H   0  0  0  0  0  0  0  0  0  0  0  0
   47.6129   34.4779   41.2025 H   0  0  0  0  0  0  0  0  0  0  0  0
   46.5524   35.1020   40.0002 H   0  0  0  0  0  0  0  0  0  0  0  0
   45.3574   35.1057   42.5265 H   0  0  0  0  0  0  0  0  0  0  0  0
   44.5893   33.8697   40.0936 H   0  0  0  0  0  0  0  0  0  0  0  0
   43.2488   32.3940   41.3080 H   0  0  0  0  0  0  0  0  0  0  0  0
   42.9876   33.5307   42.6406 H   0  0  0  0  0  0  0  0  0  0  0  0
   41.7947   33.5815   39.8087 H   0  0  0  0  0  0  0  0  0  0  0  0
   40.9217   33.7481   41.3052 H   0  0  0  0  0  0  0  0  0  0  0  0
   42.0391   35.8629   39.7681 H   0  0  0  0  0  0  0  0  0  0  0  0
   41.5064   36.0223   41.4636 H   0  0  0  0  0  0  0  0  0  0  0  0
   43.6845   36.0071   42.2599 H   0  0  0  0  0  0  0  0  0  0  0  0
   44.1489   36.4256   40.6159 H   0  0  0  0  0  0  0  0  0  0  0  0
  1  6  2  0
  2  3  2  0
  2  1  1  0
  3  4  1  0
  4  5  2  0
  6  5  1  0
  7  3  1  0
  8  7  1  0
  9  8  2  0
 10  9  1  0
 10 17  2  0
 11 10  1  0
 12 11  2  0
 13 11  1  0
 13 14  1  0
 14 15  1  0
 14 16  2  0
 16 17  1  0
 17  7  1  0
 18  2  1  0
 19 18  1  0
 20 21  1  0
 20 19  1  0
 21 22  1  0
 22 18  1  0
 23 27  1  0
 23 24  1  0
 23 22  1  0
 25 24  1  0
 26 25  1  0
 26 27  1  0
  1 28  1  0
  5 29  1  0
  8 30  1  0
 13 31  1  0
 15 32  1  0
 15 33  1  0
 19 34  1  0
 19 35  1  0
 20 36  1  0
 20 37  1  0
 21 38  1  0
 21 39  1  0
 22 40  1  1
 23 41  1  0
 24 42  1  0
 24 43  1  0
 25 44  1  0
 25 45  1  0
 26 46  1  0
 26 47  1  0
 27 48  1  0
 27 49  1  0
M  ISO  8  28  14  29  14  30  14  31   9  34  13  35  13  36  13  37  13
M  ISO  8  38  13  39  13  40  13  41  13  42  13  43  13  44  13  45  13
M  ISO  4  46  13  47  13  48  13  49  13
M  END
>  <minimizedAffinity>  (1) 
-5.53475142

>  <minimizedRMSD>  (1) 
2.70991015

$$$$
