
     RDKit          3D

 38 41  0  0  1  0  0  0  0  0999 V2000
   45.4850   33.3270   46.4650 C   0  0  0  0  0  0  0  0  0  0  0  0
   45.8310   33.0330   45.1340 C   0  0  0  0  0  0  0  0  0  0  0  0
   46.7250   32.0100   44.8680 C   0  0  0  0  0  0  0  0  0  0  0  0
   47.2290   31.3330   45.9380 N   0  0  0  0  0  0  0  0  0  0  0  0
   46.8880   31.6270   47.2040 C   0  0  0  0  0  0  0  0  0  0  0  0
   46.0300   32.6080   47.4690 N   0  0  0  0  0  0  0  0  0  0  0  0
   47.0350   31.7630   43.5280 N   0  0  0  0  0  0  0  0  0  0  0  0
   46.6490   30.8740   42.5900 C   0  0  0  0  0  0  0  0  0  0  0  0
   47.2840   31.1100   41.4360 N   0  0  0  0  0  0  0  0  0  0  0  0
   48.0990   32.1560   41.6000 C   0  0  0  0  0  0  0  0  0  0  0  0
   48.9750   32.7790   40.7260 C   0  0  0  0  0  0  0  0  0  0  0  0
   49.1220   32.4150   39.5350 O   0  0  0  0  0  0  0  0  0  0  0  0
   49.7140   33.8190   41.1380 N   0  0  0  0  0  0  0  0  0  0  0  0
   49.5590   34.2120   42.4110 C   0  0  0  0  0  0  0  0  0  0  0  0
   50.2870   35.2990   42.9830 N   0  0  0  0  0  0  0  0  0  0  0  0
   48.7190   33.6180   43.2560 N   0  0  0  0  0  0  0  0  0  0  0  0
   47.9390   32.5550   42.9010 C   0  0  0  0  0  0  0  0  0  0  0  0
   45.2010   33.8420   44.1470 N   0  0  0  0  0  0  0  0  0  0  0  0
   44.5010   33.6040   42.9380 C   0  0  0  0  0  0  0  0  0  0  0  0
   44.7720   34.7280   41.9760 C   0  0  0  0  0  0  0  0  0  0  0  0
   45.6570   35.6370   42.8020 C   0  0  0  0  0  0  0  0  0  0  0  0
   45.1310   35.3270   44.1920 C   0  0  1  0  0  0  0  0  0  0  0  0
   43.7910   35.7790   44.3900 N   0  0  0  0  0  0  0  0  0  0  0  0
   44.7750   34.1375   46.6864 H   0  0  0  0  0  0  0  0  0  0  0  0
   47.3241   31.0488   48.0319 H   0  0  0  0  0  0  0  0  0  0  0  0
   45.9164   30.0694   42.7508 H   0  0  0  0  0  0  0  0  0  0  0  0
   50.3720   34.2953   40.5047 H   0  0  0  0  0  0  0  0  0  0  0  0
   50.1316   35.5620   43.9667 H   0  0  0  0  0  0  0  0  0  0  0  0
   50.9676   35.8202   42.4120 H   0  0  0  0  0  0  0  0  0  0  0  0
   44.8399   32.6544   42.4982 H   0  0  0  0  0  0  0  0  0  0  0  0
   43.4217   33.5469   43.1427 H   0  0  0  0  0  0  0  0  0  0  0  0
   43.8417   35.2353   41.6806 H   0  0  0  0  0  0  0  0  0  0  0  0
   45.2279   34.4033   41.0290 H   0  0  0  0  0  0  0  0  0  0  0  0
   46.7202   35.3741   42.7000 H   0  0  0  0  0  0  0  0  0  0  0  0
   45.6208   36.6996   42.5197 H   0  0  0  0  0  0  0  0  0  0  0  0
   45.6835   35.8114   45.0105 H   0  0  0  0  0  0  0  0  0  0  0  0
   43.5964   35.8446   45.3993 H   0  0  0  0  0  0  0  0  0  0  0  0
   43.6738   36.7061   43.9567 H   0  0  0  0  0  0  0  0  0  0  0  0
  1  6  2  0
  2  1  1  0
  3  2  2  0
  3  4  1  0
  4  5  2  0
  5  6  1  0
  7  3  1  0
  8  7  1  0
  9 10  1  0
  9  8  2  0
 10 17  2  0
 11 13  1  0
 11 10  1  0
 12 11  2  0
 13 14  1  0
 14 15  1  0
 14 16  2  0
 17 16  1  0
 17  7  1  0
 18 22  1  0
 18  2  1  0
 19 18  1  0
 20 21  1  0
 20 19  1  0
 21 22  1  0
 22 23  1  0
  1 24  1  0
  5 25  1  0
  8 26  1  0
 13 27  1  0
 15 28  1  0
 15 29  1  0
 19 30  1  0
 19 31  1  0
 20 32  1  0
 20 33  1  0
 21 34  1  0
 21 35  1  0
 22 36  1  1
 23 37  1  0
 23 38  1  0
M  ISO  8  24  14  25  14  26  14  27   9  30  13  31  13  32  13  33  13
M  ISO  5  34  13  35  13  36  13  37   5  38   5
M  END
>  <minimizedAffinity>  (1) 
-6.52850914

>  <minimizedRMSD>  (1) 
0.533218801

$$$$
