
     RDKit          3D

 40 43  0  0  1  0  0  0  0  0999 V2000
   47.2620   32.1890   45.0780 C   0  0  0  0  0  0  0  0  0  0  0  0
   46.3800   33.2680   44.7830 C   0  0  0  0  0  0  0  0  0  0  0  0
   45.6410   33.7570   45.8570 C   0  0  0  0  0  0  0  0  0  0  0  0
   45.8170   33.1760   47.0740 N   0  0  0  0  0  0  0  0  0  0  0  0
   46.6480   32.1720   47.3070 C   0  0  0  0  0  0  0  0  0  0  0  0
   47.3850   31.6570   46.3290 N   0  0  0  0  0  0  0  0  0  0  0  0
   46.4130   33.6730   43.4010 C   0  0  0  0  0  0  0  0  0  0  0  0
   47.5300   34.3810   43.0780 N   0  0  0  0  0  0  0  0  0  0  0  0
   47.7310   34.8460   41.8190 C   0  0  0  0  0  0  0  0  0  0  0  0
   46.8390   34.6320   40.8250 N   0  0  0  0  0  0  0  0  0  0  0  0
   45.7100   33.9280   41.1130 C   0  0  0  0  0  0  0  0  0  0  0  0
   44.7160   33.6360   40.1940 C   0  0  0  0  0  0  0  0  0  0  0  0
   43.5940   32.9220   40.5240 C   0  0  0  0  0  0  0  0  0  0  0  0
   43.4320   32.4680   41.8180 C   0  0  0  0  0  0  0  0  0  0  0  0
   44.3970   32.7390   42.7570 C   0  0  0  0  0  0  0  0  0  0  0  0
   45.5090   33.4590   42.3840 C   0  0  0  0  0  0  0  0  0  0  0  0
   46.7620   31.6250   48.6630 C   0  0  1  0  0  0  0  0  0  0  0  0
   45.3780   31.2810   49.2450 C   0  0  0  0  0  0  0  0  0  0  0  0
   47.6020   30.3960   48.7740 C   0  0  0  0  0  0  0  0  0  0  0  0
   48.8130   30.6720   49.5860 C   0  0  0  0  0  0  0  0  0  0  0  0
   49.5180   31.8520   49.4070 C   0  0  0  0  0  0  0  0  0  0  0  0
   50.6080   31.9270   50.2480 C   0  0  0  0  0  0  0  0  0  0  0  0
   50.5200   30.7360   50.9360 C   0  0  0  0  0  0  0  0  0  0  0  0
   49.4820   30.0600   50.5220 O   0  0  0  0  0  0  0  0  0  0  0  0
   47.8693   31.7669   44.2637 H   0  0  0  0  0  0  0  0  0  0  0  0
   44.9347   34.5898   45.7249 H   0  0  0  0  0  0  0  0  0  0  0  0
   48.6471   35.4142   41.6003 H   0  0  0  0  0  0  0  0  0  0  0  0
   44.8316   33.9909   39.1593 H   0  0  0  0  0  0  0  0  0  0  0  0
   42.8276   32.7119   39.7634 H   0  0  0  0  0  0  0  0  0  0  0  0
   42.5360   31.8931   42.0949 H   0  0  0  0  0  0  0  0  0  0  0  0
   44.2827   32.3856   43.7924 H   0  0  0  0  0  0  0  0  0  0  0  0
   47.2560   32.4297   49.2273 H   0  0  0  0  0  0  0  0  0  0  0  0
   45.4288   31.2936   50.3438 H   0  0  0  0  0  0  0  0  0  0  0  0
   44.6417   32.0235   48.9034 H   0  0  0  0  0  0  0  0  0  0  0  0
   45.0750   30.2802   48.9034 H   0  0  0  0  0  0  0  0  0  0  0  0
   47.0166   29.5985   49.2549 H   0  0  0  0  0  0  0  0  0  0  0  0
   47.9108   30.0812   47.7663 H   0  0  0  0  0  0  0  0  0  0  0  0
   49.2418   32.6327   48.6829 H   0  0  0  0  0  0  0  0  0  0  0  0
   51.3543   32.7293   50.3448 H   0  0  0  0  0  0  0  0  0  0  0  0
   51.2197   30.4043   51.7173 H   0  0  0  0  0  0  0  0  0  0  0  0
  1  6  2  0
  2  1  1  0
  2  3  2  0
  3  4  1  0
  4  5  2  0
  5 17  1  0
  6  5  1  0
  7  2  1  0
  8  7  2  0
  9  8  1  0
 10 11  1  0
 10  9  2  0
 11 16  2  0
 12 13  2  0
 12 11  1  0
 13 14  1  0
 14 15  2  0
 16 15  1  0
 16  7  1  0
 17 19  1  0
 17 18  1  0
 19 20  1  0
 20 24  1  0
 21 20  2  0
 21 22  1  0
 22 23  2  0
 24 23  1  0
  1 25  1  0
  3 26  1  0
  9 27  1  0
 12 28  1  0
 13 29  1  0
 14 30  1  0
 15 31  1  0
 17 32  1  1
 18 33  1  0
 18 34  1  0
 18 35  1  0
 19 36  1  0
 19 37  1  0
 21 38  1  0
 22 39  1  0
 23 40  1  0
M  ISO  8  25  14  26  14  27  14  28  14  29  14  30  14  31  14  32   8
M  ISO  8  33   8  34   8  35   8  36   8  37   8  38  14  39  14  40  14
M  END
>  <minimizedAffinity>  (1) 
-5.76571798

>  <minimizedRMSD>  (1) 
2.38543296

$$$$
