
     RDKit          3D

 37 40  0  0  1  0  0  0  0  0999 V2000
   45.2480   33.5870   46.3470 C   0  0  0  0  0  0  0  0  0  0  0  0
   45.6100   33.2550   45.0280 C   0  0  0  0  0  0  0  0  0  0  0  0
   46.5410   32.2550   44.8060 C   0  0  0  0  0  0  0  0  0  0  0  0
   47.0620   31.6400   45.9040 N   0  0  0  0  0  0  0  0  0  0  0  0
   46.7040   31.9710   47.1570 C   0  0  0  0  0  0  0  0  0  0  0  0
   45.8100   32.9310   47.3780 N   0  0  0  0  0  0  0  0  0  0  0  0
   46.8650   31.9650   43.4780 N   0  0  0  0  0  0  0  0  0  0  0  0
   46.4530   31.0830   42.5470 C   0  0  0  0  0  0  0  0  0  0  0  0
   47.1300   31.2630   41.4060 N   0  0  0  0  0  0  0  0  0  0  0  0
   47.9980   32.2630   41.5720 C   0  0  0  0  0  0  0  0  0  0  0  0
   48.9290   32.8160   40.7070 C   0  0  0  0  0  0  0  0  0  0  0  0
   49.0820   32.4220   39.5300 O   0  0  0  0  0  0  0  0  0  0  0  0
   49.7170   33.8210   41.1190 N   0  0  0  0  0  0  0  0  0  0  0  0
   49.5530   34.2460   42.3850 C   0  0  0  0  0  0  0  0  0  0  0  0
   50.3240   35.3020   42.9600 N   0  0  0  0  0  0  0  0  0  0  0  0
   48.6570   33.7160   43.2220 N   0  0  0  0  0  0  0  0  0  0  0  0
   47.8290   32.6920   42.8570 C   0  0  0  0  0  0  0  0  0  0  0  0
   44.9580   34.0020   44.0060 N   0  0  0  0  0  0  0  0  0  0  0  0
   44.5540   33.7560   42.6680 C   0  0  0  0  0  0  0  0  0  0  0  0
   44.6650   35.0250   41.8720 C   0  0  0  0  0  0  0  0  0  0  0  0
   45.1460   36.0080   42.9260 C   0  0  0  0  0  0  0  0  0  0  0  0
   44.4840   35.4040   44.1540 C   0  0  2  0  0  0  0  0  0  0  0  0
   45.0280   35.9990   45.2820 O   0  0  0  0  0  0  0  0  0  0  0  0
   44.5086   34.3797   46.5339 H   0  0  0  0  0  0  0  0  0  0  0  0
   47.1555   31.4419   48.0092 H   0  0  0  0  0  0  0  0  0  0  0  0
   45.6723   30.3237   42.7019 H   0  0  0  0  0  0  0  0  0  0  0  0
   50.4159   34.2478   40.4942 H   0  0  0  0  0  0  0  0  0  0  0  0
   50.1579   35.5888   43.9352 H   0  0  0  0  0  0  0  0  0  0  0  0
   51.0460   35.7767   42.3994 H   0  0  0  0  0  0  0  0  0  0  0  0
   45.2029   32.9865   42.2243 H   0  0  0  0  0  0  0  0  0  0  0  0
   43.5113   33.4057   42.6575 H   0  0  0  0  0  0  0  0  0  0  0  0
   45.3949   34.9236   41.0553 H   0  0  0  0  0  0  0  0  0  0  0  0
   43.7301   35.3242   41.3756 H   0  0  0  0  0  0  0  0  0  0  0  0
   46.2426   36.0134   43.0119 H   0  0  0  0  0  0  0  0  0  0  0  0
   44.8977   37.0617   42.7311 H   0  0  0  0  0  0  0  0  0  0  0  0
   43.3932   35.5145   44.2432 H   0  0  0  0  0  0  0  0  0  0  0  0
   44.6451   35.5802   46.0932 H   0  0  0  0  0  0  0  0  0  0  0  0
  1  6  2  0
  2  1  1  0
  3  2  2  0
  3  4  1  0
  4  5  2  0
  5  6  1  0
  7  3  1  0
  8  7  1  0
  9 10  1  0
  9  8  2  0
 10 17  2  0
 11 13  1  0
 11 10  1  0
 12 11  2  0
 13 14  1  0
 14 15  1  0
 14 16  2  0
 17 16  1  0
 17  7  1  0
 18 22  1  0
 18  2  1  0
 19 18  1  0
 20 19  1  0
 20 21  1  0
 21 22  1  0
 22 23  1  0
  1 24  1  0
  5 25  1  0
  8 26  1  0
 13 27  1  0
 15 28  1  0
 15 29  1  0
 19 30  1  0
 19 31  1  0
 20 32  1  0
 20 33  1  0
 21 34  1  0
 21 35  1  0
 22 36  1  6
 23 37  1  0
M  ISO  8  24  14  25  14  26  14  27   9  30  13  31  13  32  13  33  13
M  ISO  4  34  13  35  13  36  13  37   3
M  END
>  <minimizedAffinity>  (1) 
-6.0869112

>  <minimizedRMSD>  (1) 
0.414550215

$$$$
