
     RDKit          3D

 27 28  0  0  0  0  0  0  0  0999 V2000
   46.6740   33.6180   44.3340 C   0  0  0  0  0  0  0  0  0  0  0  0
   46.8490   32.9030   45.5320 C   0  0  0  0  0  0  0  0  0  0  0  0
   46.0160   33.1520   46.6090 C   0  0  0  0  0  0  0  0  0  0  0  0
   45.0290   34.1200   46.4400 C   0  0  0  0  0  0  0  0  0  0  0  0
   44.8680   34.8090   45.2650 C   0  0  0  0  0  0  0  0  0  0  0  0
   45.6790   34.5850   44.1740 C   0  0  0  0  0  0  0  0  0  0  0  0
   49.3660   34.0770   41.8880 C   0  0  0  0  0  0  0  0  0  0  0  0
   49.4310   32.8140   41.2500 C   0  0  0  0  0  0  0  0  0  0  0  0
   48.5340   31.7970   41.6650 C   0  0  0  0  0  0  0  0  0  0  0  0
   47.6500   32.0810   42.6580 N   0  0  0  0  0  0  0  0  0  0  0  0
   47.6260   33.3170   43.2410 C   0  0  0  0  0  0  0  0  0  0  0  0
   48.4740   34.2820   42.8520 N   0  0  0  0  0  0  0  0  0  0  0  0
   45.4520   35.2640   42.9870 N   0  0  0  0  0  0  0  0  0  0  0  0
   44.5760   34.7590   41.9700 C   0  0  0  0  0  0  0  0  0  0  0  0
   43.4190   34.3070   42.2980 N   0  0  0  0  0  0  0  0  0  0  0  0
   44.8390   34.7110   40.5580 N   0  0  0  0  0  0  0  0  0  0  0  0
   43.0200   34.2590   43.2400 H   0  0  0  0  0  0  0  0  0  0  0  0
   47.6452   32.1483   45.6130 H   0  0  0  0  0  0  0  0  0  0  0  0
   46.1288   32.6082   47.5585 H   0  0  0  0  0  0  0  0  0  0  0  0
   44.3536   34.3401   47.2799 H   0  0  0  0  0  0  0  0  0  0  0  0
   44.0690   35.5615   45.1917 H   0  0  0  0  0  0  0  0  0  0  0  0
   50.0502   34.8841   41.5872 H   0  0  0  0  0  0  0  0  0  0  0  0
   50.1618   32.6260   40.4496 H   0  0  0  0  0  0  0  0  0  0  0  0
   48.5530   30.8027   41.1949 H   0  0  0  0  0  0  0  0  0  0  0  0
   45.9294   36.1631   42.8299 H   0  0  0  0  0  0  0  0  0  0  0  0
   45.7393   35.0500   40.1900 H   0  0  0  0  0  0  0  0  0  0  0  0
   44.1272   34.3376   39.9140 H   0  0  0  0  0  0  0  0  0  0  0  0
  1  2  2  0
  2  3  1  0
  4  3  2  0
  5  4  1  0
  6  1  1  0
  6  5  2  0
  7 12  2  0
  8  9  2  0
  8  7  1  0
  9 10  1  0
 10 11  2  0
 11  1  1  0
 12 11  1  0
 13  6  1  0
 14 15  2  0
 14 13  1  0
 15 17  1  0
 16 14  1  0
  2 18  1  0
  3 19  1  0
  4 20  1  0
  5 21  1  0
  7 22  1  0
  8 23  1  0
  9 24  1  0
 13 25  1  0
 16 26  1  0
 16 27  1  0
M  ISO  7  18  14  19  14  20  14  21  14  22  14  23  14  24  14
M  END
>  <minimizedAffinity>  (1) 
-4.45415783

>  <minimizedRMSD>  (1) 
4.45490885

$$$$
