
     RDKit          3D

 22 23  0  0  0  0  0  0  0  0999 V2000
   46.5040   34.2280   43.5990 C   0  0  0  0  0  0  0  0  0  0  0  0
   46.9690   33.2420   44.4430 C   0  0  0  0  0  0  0  0  0  0  0  0
   46.4240   33.0650   45.6990 C   0  0  0  0  0  0  0  0  0  0  0  0
   45.4060   33.8900   46.0960 C   0  0  0  0  0  0  0  0  0  0  0  0
   44.9080   34.8870   45.2920 C   0  0  0  0  0  0  0  0  0  0  0  0
   45.4840   35.0210   44.0540 C   0  0  0  0  0  0  0  0  0  0  0  0
   48.7090   35.3850   40.9270 C   0  0  0  0  0  0  0  0  0  0  0  0
   48.2250   34.7100   39.7950 C   0  0  0  0  0  0  0  0  0  0  0  0
   47.1210   33.8450   39.9630 C   0  0  0  0  0  0  0  0  0  0  0  0
   46.5820   33.7090   41.2150 N   0  0  0  0  0  0  0  0  0  0  0  0
   47.0980   34.3940   42.2780 C   0  0  0  0  0  0  0  0  0  0  0  0
   48.1460   35.2160   42.1230 N   0  0  0  0  0  0  0  0  0  0  0  0
   44.9140   36.0870   43.2460 C   0  0  0  0  0  0  0  0  0  0  0  0
   45.1830   37.3150   43.2610 O   0  0  0  0  0  0  0  0  0  0  0  0
   47.7870   32.5861   44.1104 H   0  0  0  0  0  0  0  0  0  0  0  0
   46.8002   32.2767   46.3676 H   0  0  0  0  0  0  0  0  0  0  0  0
   44.9703   33.7495   47.0962 H   0  0  0  0  0  0  0  0  0  0  0  0
   44.0901   35.5435   45.6237 H   0  0  0  0  0  0  0  0  0  0  0  0
   49.5676   36.0650   40.8249 H   0  0  0  0  0  0  0  0  0  0  0  0
   48.6908   34.8503   38.8084 H   0  0  0  0  0  0  0  0  0  0  0  0
   46.7036   33.2931   39.1079 H   0  0  0  0  0  0  0  0  0  0  0  0
   44.1437   35.7773   42.5244 H   0  0  0  0  0  0  0  0  0  0  0  0
  1  6  1  0
  1  2  2  0
  2  3  1  0
  3  4  2  0
  5  4  1  0
  6  5  2  0
  7 12  2  0
  8  9  2  0
  8  7  1  0
  9 10  1  0
 10 11  2  0
 11  1  1  0
 12 11  1  0
 13 14  2  0
 13  6  1  0
  2 15  1  0
  3 16  1  0
  4 17  1  0
  5 18  1  0
  7 19  1  0
  8 20  1  0
  9 21  1  0
 13 22  1  0
M  ISO  8  15  14  16  14  17  14  18  14  19  14  20  14  21  14  22   6
M  END
>  <minimizedAffinity>  (1) 
-4.54841709

>  <minimizedRMSD>  (1) 
4.55620241

$$$$
