
     RDKit          3D

 32 34  0  0  0  0  0  0  0  0999 V2000
   46.8130   33.9970   43.4390 C   0  0  0  0  0  0  0  0  0  0  0  0
   47.4120   33.0770   44.2760 C   0  0  0  0  0  0  0  0  0  0  0  0
   46.9050   32.7950   45.5230 C   0  0  0  0  0  0  0  0  0  0  0  0
   45.7790   33.4520   45.9230 C   0  0  0  0  0  0  0  0  0  0  0  0
   45.1430   34.3720   45.1390 C   0  0  0  0  0  0  0  0  0  0  0  0
   45.6850   34.6200   43.9060 C   0  0  0  0  0  0  0  0  0  0  0  0
   48.7890   35.5480   40.7950 C   0  0  0  0  0  0  0  0  0  0  0  0
   48.4580   34.7940   39.6640 C   0  0  0  0  0  0  0  0  0  0  0  0
   47.5410   33.7390   39.8230 C   0  0  0  0  0  0  0  0  0  0  0  0
   47.0170   33.4990   41.0660 N   0  0  0  0  0  0  0  0  0  0  0  0
   47.3800   34.2690   42.1280 C   0  0  0  0  0  0  0  0  0  0  0  0
   48.2510   35.2720   41.9820 N   0  0  0  0  0  0  0  0  0  0  0  0
   44.9670   35.6110   43.1050 C   0  0  0  0  0  0  0  0  0  0  0  0
   45.0980   36.8620   43.1660 O   0  0  0  0  0  0  0  0  0  0  0  0
   44.0010   35.0510   42.1400 C   0  0  0  0  0  0  0  0  0  0  0  0
   43.3940   35.7870   41.1480 C   0  0  0  0  0  0  0  0  0  0  0  0
   42.5000   35.1890   40.2840 C   0  0  0  0  0  0  0  0  0  0  0  0
   42.1750   33.8570   40.3630 C   0  0  0  0  0  0  0  0  0  0  0  0
   42.7740   33.1060   41.3510 C   0  0  0  0  0  0  0  0  0  0  0  0
   43.6700   33.6970   42.2200 C   0  0  0  0  0  0  0  0  0  0  0  0
   48.3191   32.5555   43.9365 H   0  0  0  0  0  0  0  0  0  0  0  0
   47.3941   32.0601   46.1793 H   0  0  0  0  0  0  0  0  0  0  0  0
   45.3658   33.2319   46.9184 H   0  0  0  0  0  0  0  0  0  0  0  0
   44.2359   34.8906   45.4827 H   0  0  0  0  0  0  0  0  0  0  0  0
   49.5029   36.3797   40.7029 H   0  0  0  0  0  0  0  0  0  0  0  0
   48.9004   35.0188   38.6823 H   0  0  0  0  0  0  0  0  0  0  0  0
   47.2496   33.1172   38.9637 H   0  0  0  0  0  0  0  0  0  0  0  0
   43.6229   36.8578   41.0435 H   0  0  0  0  0  0  0  0  0  0  0  0
   42.0294   35.8027   39.5017 H   0  0  0  0  0  0  0  0  0  0  0  0
   41.4598   33.4043   39.6605 H   0  0  0  0  0  0  0  0  0  0  0  0
   42.5385   32.0358   41.4475 H   0  0  0  0  0  0  0  0  0  0  0  0
   44.1385   33.0804   43.0012 H   0  0  0  0  0  0  0  0  0  0  0  0
  1  6  1  0
  1  2  2  0
  2  3  1  0
  3  4  2  0
  5  4  1  0
  6  5  2  0
  7 12  2  0
  8  9  2  0
  8  7  1  0
  9 10  1  0
 10 11  2  0
 11  1  1  0
 12 11  1  0
 13 14  2  0
 13  6  1  0
 15 20  1  0
 15 13  1  0
 16 15  2  0
 17 18  2  0
 17 16  1  0
 18 19  1  0
 19 20  2  0
  2 21  1  0
  3 22  1  0
  4 23  1  0
  5 24  1  0
  7 25  1  0
  8 26  1  0
  9 27  1  0
 16 28  1  0
 17 29  1  0
 18 30  1  0
 19 31  1  0
 20 32  1  0
M  ISO  8  21  14  22  14  23  14  24  14  25  14  26  14  27  14  28  14
M  ISO  4  29  14  30  14  31  14  32  14
M  END
>  <minimizedAffinity>  (1) 
-5.44492579

>  <minimizedRMSD>  (1) 
0.793675065

$$$$
