
     RDKit          3D

 35 37  0  0  0  0  0  0  0  0999 V2000
   46.2870   34.1860   43.4900 C   0  0  0  0  0  0  0  0  0  0  0  0
   45.9790   35.3460   42.8230 C   0  0  0  0  0  0  0  0  0  0  0  0
   45.1190   36.2720   43.3790 C   0  0  0  0  0  0  0  0  0  0  0  0
   44.5780   36.0200   44.6020 C   0  0  0  0  0  0  0  0  0  0  0  0
   44.8610   34.8770   45.2940 C   0  0  0  0  0  0  0  0  0  0  0  0
   45.7230   33.9650   44.7200 C   0  0  0  0  0  0  0  0  0  0  0  0
   47.5470   31.3910   41.5090 C   0  0  0  0  0  0  0  0  0  0  0  0
   48.9270   31.4210   41.7370 C   0  0  0  0  0  0  0  0  0  0  0  0
   49.4290   32.4210   42.5870 C   0  0  0  0  0  0  0  0  0  0  0  0
   48.5300   33.2890   43.1270 N   0  0  0  0  0  0  0  0  0  0  0  0
   47.1990   33.2230   42.8790 C   0  0  0  0  0  0  0  0  0  0  0  0
   46.7290   32.2710   42.0710 N   0  0  0  0  0  0  0  0  0  0  0  0
   45.9750   32.7820   45.5110 C   0  0  0  0  0  0  0  0  0  0  0  0
   45.8660   31.5840   45.1730 O   0  0  0  0  0  0  0  0  0  0  0  0
   46.4250   32.8820   46.9260 C   0  0  0  0  0  0  0  0  0  0  0  0
   47.4350   31.7980   47.2290 C   0  0  0  0  0  0  0  0  0  0  0  0
   46.7430   30.8490   48.1780 C   0  0  0  0  0  0  0  0  0  0  0  0
   45.9330   31.8430   49.0180 C   0  0  0  0  0  0  0  0  0  0  0  0
   45.2780   32.6410   47.8880 C   0  0  0  0  0  0  0  0  0  0  0  0
   46.4222   35.5396   41.8350 H   0  0  0  0  0  0  0  0  0  0  0  0
   44.8747   37.2000   42.8412 H   0  0  0  0  0  0  0  0  0  0  0  0
   43.8934   36.7578   45.0458 H   0  0  0  0  0  0  0  0  0  0  0  0
   44.4142   34.6887   46.2814 H   0  0  0  0  0  0  0  0  0  0  0  0
   47.1298   30.6180   40.8469 H   0  0  0  0  0  0  0  0  0  0  0  0
   49.5968   30.6862   41.2665 H   0  0  0  0  0  0  0  0  0  0  0  0
   50.5039   32.4992   42.8070 H   0  0  0  0  0  0  0  0  0  0  0  0
   46.8436   33.8916   47.0502 H   0  0  0  0  0  0  0  0  0  0  0  0
   47.7243   31.2743   46.3059 H   0  0  0  0  0  0  0  0  0  0  0  0
   48.3553   32.2114   47.6673 H   0  0  0  0  0  0  0  0  0  0  0  0
   46.0913   30.1422   47.6434 H   0  0  0  0  0  0  0  0  0  0  0  0
   47.4190   30.2017   48.7560 H   0  0  0  0  0  0  0  0  0  0  0  0
   45.1883   31.3370   49.6499 H   0  0  0  0  0  0  0  0  0  0  0  0
   46.5159   32.4366   49.7376 H   0  0  0  0  0  0  0  0  0  0  0  0
   44.8697   33.5917   48.2614 H   0  0  0  0  0  0  0  0  0  0  0  0
   44.4288   32.1170   47.4251 H   0  0  0  0  0  0  0  0  0  0  0  0
  1  6  2  0
  2  3  2  0
  2  1  1  0
  3  4  1  0
  4  5  2  0
  6  5  1  0
  6 13  1  0
  7  8  2  0
  7 12  1  0
  8  9  1  0
  9 10  2  0
 11 10  1  0
 11  1  1  0
 12 11  2  0
 13 15  1  0
 14 13  2  0
 15 16  1  0
 15 19  1  0
 16 17  1  0
 17 18  1  0
 19 18  1  0
  2 20  1  0
  3 21  1  0
  4 22  1  0
  5 23  1  0
  7 24  1  0
  8 25  1  0
  9 26  1  0
 15 27  1  0
 16 28  1  0
 16 29  1  0
 17 30  1  0
 17 31  1  0
 18 32  1  0
 18 33  1  0
 19 34  1  0
 19 35  1  0
M  ISO  8  20  14  21  14  22  14  23  14  24  14  25  14  26  14  27  13
M  ISO  8  28  13  29  13  30  13  31  13  32  13  33  13  34  13  35  13
M  END
>  <minimizedAffinity>  (1) 
-5.31639528

>  <minimizedRMSD>  (1) 
5.29850197

$$$$
