
     RDKit          3D

 24 25  0  0  0  0  0  0  0  0999 V2000
   46.4190   34.2430   43.7180 C   0  0  0  0  0  0  0  0  0  0  0  0
   46.8620   33.2470   44.5620 C   0  0  0  0  0  0  0  0  0  0  0  0
   46.3140   33.0910   45.8190 C   0  0  0  0  0  0  0  0  0  0  0  0
   45.3220   33.9370   46.2190 C   0  0  0  0  0  0  0  0  0  0  0  0
   44.8420   34.9500   45.4140 C   0  0  0  0  0  0  0  0  0  0  0  0
   45.4180   35.0610   44.1800 C   0  0  0  0  0  0  0  0  0  0  0  0
   48.6880   35.2570   41.0450 C   0  0  0  0  0  0  0  0  0  0  0  0
   48.1310   34.6690   39.9110 C   0  0  0  0  0  0  0  0  0  0  0  0
   46.9560   33.9110   40.0690 C   0  0  0  0  0  0  0  0  0  0  0  0
   46.4250   33.7930   41.3260 N   0  0  0  0  0  0  0  0  0  0  0  0
   47.0120   34.3900   42.3980 C   0  0  0  0  0  0  0  0  0  0  0  0
   48.1380   35.1190   42.2570 N   0  0  0  0  0  0  0  0  0  0  0  0
   44.8820   36.1400   43.3680 C   0  0  0  0  0  0  0  0  0  0  0  0
   45.2140   37.3410   43.3050 O   0  0  0  0  0  0  0  0  0  0  0  0
   43.8050   35.6990   42.5260 N   0  0  0  0  0  0  0  0  0  0  0  0
   47.6616   32.5687   44.2296 H   0  0  0  0  0  0  0  0  0  0  0  0
   46.6723   32.2954   46.4888 H   0  0  0  0  0  0  0  0  0  0  0  0
   44.8879   33.8070   47.2214 H   0  0  0  0  0  0  0  0  0  0  0  0
   44.0424   35.6284   45.7464 H   0  0  0  0  0  0  0  0  0  0  0  0
   49.6071   35.8523   40.9407 H   0  0  0  0  0  0  0  0  0  0  0  0
   48.5959   34.7937   38.9219 H   0  0  0  0  0  0  0  0  0  0  0  0
   46.4766   33.4261   39.2058 H   0  0  0  0  0  0  0  0  0  0  0  0
   43.3353   36.3671   41.8984 H   0  0  0  0  0  0  0  0  0  0  0  0
   43.5025   34.7147   42.5499 H   0  0  0  0  0  0  0  0  0  0  0  0
  1  6  1  0
  1  2  2  0
  2  3  1  0
  3  4  2  0
  5  4  1  0
  6  5  2  0
  7 12  2  0
  8  9  2  0
  8  7  1  0
  9 10  1  0
 10 11  2  0
 11  1  1  0
 12 11  1  0
 13  6  1  0
 14 13  2  0
 15 13  1  0
  2 16  1  0
  3 17  1  0
  4 18  1  0
  5 19  1  0
  7 20  1  0
  8 21  1  0
  9 22  1  0
 15 23  1  0
 15 24  1  0
M  ISO  7  16  14  17  14  18  14  19  14  20  14  21  14  22  14
M  END
>  <minimizedAffinity>  (1) 
-4.97182512

>  <minimizedRMSD>  (1) 
0.169136941

$$$$
