
     RDKit          3D

 40 43  0  0  1  0  0  0  0  0999 V2000
   47.4370   31.6230   44.6750 C   0  0  0  0  0  0  0  0  0  0  0  0
   46.8690   32.9350   44.6540 C   0  0  0  0  0  0  0  0  0  0  0  0
   46.4030   33.4140   45.8700 C   0  0  0  0  0  0  0  0  0  0  0  0
   46.5120   32.6350   46.9770 N   0  0  0  0  0  0  0  0  0  0  0  0
   47.0570   31.4060   46.9410 C   0  0  0  0  0  0  0  0  0  0  0  0
   47.5200   30.8870   45.8160 N   0  0  0  0  0  0  0  0  0  0  0  0
   46.8850   33.5410   43.3450 C   0  0  0  0  0  0  0  0  0  0  0  0
   48.0880   34.1200   43.0380 N   0  0  0  0  0  0  0  0  0  0  0  0
   48.3000   34.7390   41.8500 C   0  0  0  0  0  0  0  0  0  0  0  0
   47.3330   34.8170   40.9080 N   0  0  0  0  0  0  0  0  0  0  0  0
   46.1250   34.2520   41.1790 C   0  0  0  0  0  0  0  0  0  0  0  0
   45.0560   34.2580   40.3060 C   0  0  0  0  0  0  0  0  0  0  0  0
   43.8560   33.6770   40.6150 C   0  0  0  0  0  0  0  0  0  0  0  0
   43.6840   33.0570   41.8390 C   0  0  0  0  0  0  0  0  0  0  0  0
   44.7260   33.0310   42.7340 C   0  0  0  0  0  0  0  0  0  0  0  0
   45.9060   33.6230   42.3840 C   0  0  0  0  0  0  0  0  0  0  0  0
   47.1490   30.6370   48.1900 C   0  0  1  0  0  0  0  0  0  0  0  0
   48.1650   31.2510   49.1650 C   0  0  0  0  0  0  0  0  0  0  0  0
   45.8590   30.4860   48.9310 C   0  0  0  0  0  0  0  0  0  0  0  0
   45.0590   29.2780   48.5880 C   0  0  0  0  0  0  0  0  0  0  0  0
   44.5110   29.2760   47.1650 C   0  0  0  0  0  0  0  0  0  0  0  0
   45.5510   28.2940   47.6070 C   0  0  0  0  0  0  0  0  0  0  0  0
   47.8197   31.1944   43.7370 H   0  0  0  0  0  0  0  0  0  0  0  0
   45.9500   34.4142   45.9366 H   0  0  0  0  0  0  0  0  0  0  0  0
   49.2832   35.1889   41.6477 H   0  0  0  0  0  0  0  0  0  0  0  0
   45.1726   34.7469   39.3275 H   0  0  0  0  0  0  0  0  0  0  0  0
   43.0289   33.7032   39.8902 H   0  0  0  0  0  0  0  0  0  0  0  0
   42.7217   32.5889   42.0937 H   0  0  0  0  0  0  0  0  0  0  0  0
   44.6122   32.5430   43.7132 H   0  0  0  0  0  0  0  0  0  0  0  0
   47.4688   29.6409   47.8502 H   0  0  0  0  0  0  0  0  0  0  0  0
   47.8442   31.0571   50.1991 H   0  0  0  0  0  0  0  0  0  0  0  0
   49.1537   30.7991   48.9970 H   0  0  0  0  0  0  0  0  0  0  0  0
   48.2246   32.3365   48.9970 H   0  0  0  0  0  0  0  0  0  0  0  0
   46.0886   30.4461   50.0060 H   0  0  0  0  0  0  0  0  0  0  0  0
   45.2417   31.3489   48.6405 H   0  0  0  0  0  0  0  0  0  0  0  0
   44.6755   29.1713   49.6135 H   0  0  0  0  0  0  0  0  0  0  0  0
   44.7736   30.0860   46.4686 H   0  0  0  0  0  0  0  0  0  0  0  0
   43.5135   29.2130   46.7057 H   0  0  0  0  0  0  0  0  0  0  0  0
   45.2855   27.2325   47.7196 H   0  0  0  0  0  0  0  0  0  0  0  0
   46.5476   28.0126   47.2361 H   0  0  0  0  0  0  0  0  0  0  0  0
  1  6  2  0
  2  1  1  0
  2  3  2  0
  3  4  1  0
  5  4  2  0
  5 17  1  0
  6  5  1  0
  7  2  1  0
  8  7  2  0
  9  8  1  0
 10 11  1  0
 10  9  2  0
 11 16  2  0
 12 13  2  0
 12 11  1  0
 13 14  1  0
 14 15  2  0
 16 15  1  0
 16  7  1  0
 17 19  1  0
 17 18  1  0
 20 19  1  0
 21 22  1  0
 21 20  1  0
 22 20  1  0
  1 23  1  0
  3 24  1  0
  9 25  1  0
 12 26  1  0
 13 27  1  0
 14 28  1  0
 15 29  1  0
 17 30  1  6
 18 31  1  0
 18 32  1  0
 18 33  1  0
 19 34  1  0
 19 35  1  0
 20 36  1  0
 21 37  1  0
 21 38  1  0
 22 39  1  0
 22 40  1  0
M  ISO  8  23  14  24  14  25  14  26  14  27  14  28  14  29  14  30   8
M  ISO  8  31   8  32   8  33   8  34   8  35   8  36  13  37  13  38  13
M  ISO  2  39  13  40  13
M  END
>  <minimizedAffinity>  (1) 
-4.71103525

>  <minimizedRMSD>  (1) 
1.11666501

$$$$
