
     RDKit          3D

 44 47  0  0  0  0  0  0  0  0999 V2000
   43.1740   33.9700   39.9830 C   0  0  0  0  0  0  0  0  0  0  0  0
   43.2530   34.1830   38.7330 O   0  0  0  0  0  0  0  0  0  0  0  0
   42.2370   33.1750   40.7140 C   0  0  0  0  0  0  0  0  0  0  0  0
   42.6030   32.1210   41.5590 C   0  0  0  0  0  0  0  0  0  0  0  0
   41.7130   31.2400   42.1690 C   0  0  0  0  0  0  0  0  0  0  0  0
   40.3590   31.3950   41.9260 C   0  0  0  0  0  0  0  0  0  0  0  0
   39.9360   32.4080   41.1060 C   0  0  0  0  0  0  0  0  0  0  0  0
   38.5830   32.5170   40.8440 C   0  0  0  0  0  0  0  0  0  0  0  0
   38.1500   33.5230   40.0170 C   0  0  0  0  0  0  0  0  0  0  0  0
   39.0430   34.4370   39.4620 C   0  0  0  0  0  0  0  0  0  0  0  0
   40.3740   34.2600   39.7680 C   0  0  0  0  0  0  0  0  0  0  0  0
   40.8760   33.2620   40.5450 C   0  0  0  0  0  0  0  0  0  0  0  0
   41.0410   35.5800   39.4620 C   0  0  0  0  0  0  0  0  0  0  0  0
   40.3340   36.5060   40.5810 C   0  0  0  0  0  0  0  0  0  0  0  0
   45.4250   34.1200   40.9920 C   0  0  0  0  0  0  0  0  0  0  0  0
   46.2460   34.6420   41.9650 C   0  0  0  0  0  0  0  0  0  0  0  0
   45.7780   35.5180   42.8940 C   0  0  0  0  0  0  0  0  0  0  0  0
   44.4560   35.8760   42.8400 C   0  0  0  0  0  0  0  0  0  0  0  0
   43.5840   35.3830   41.8860 C   0  0  0  0  0  0  0  0  0  0  0  0
   44.1160   34.5170   40.9930 C   0  0  0  0  0  0  0  0  0  0  0  0
   47.1310   32.7520   38.0580 C   0  0  0  0  0  0  0  0  0  0  0  0
   46.9980   31.3760   38.2150 C   0  0  0  0  0  0  0  0  0  0  0  0
   46.3160   30.9220   39.3440 C   0  0  0  0  0  0  0  0  0  0  0  0
   45.8210   31.8360   40.2180 N   0  0  0  0  0  0  0  0  0  0  0  0
   45.9670   33.1690   40.0330 C   0  0  0  0  0  0  0  0  0  0  0  0
   46.6250   33.6040   38.9500 N   0  0  0  0  0  0  0  0  0  0  0  0
   43.6755   31.9773   41.7565 H   0  0  0  0  0  0  0  0  0  0  0  0
   42.0779   30.4392   42.8289 H   0  0  0  0  0  0  0  0  0  0  0  0
   39.6301   30.7119   42.3865 H   0  0  0  0  0  0  0  0  0  0  0  0
   37.8671   31.8108   41.2899 H   0  0  0  0  0  0  0  0  0  0  0  0
   37.0776   33.6093   39.7880 H   0  0  0  0  0  0  0  0  0  0  0  0
   38.7026   35.2574   38.8131 H   0  0  0  0  0  0  0  0  0  0  0  0
   42.1311   35.5301   39.6005 H   0  0  0  0  0  0  0  0  0  0  0  0
   40.9277   35.9312   38.4258 H   0  0  0  0  0  0  0  0  0  0  0  0
   40.6095   36.1452   41.5830 H   0  0  0  0  0  0  0  0  0  0  0  0
   40.6694   37.5467   40.4610 H   0  0  0  0  0  0  0  0  0  0  0  0
   39.2417   36.4567   40.4610 H   0  0  0  0  0  0  0  0  0  0  0  0
   47.3045   34.3441   41.9920 H   0  0  0  0  0  0  0  0  0  0  0  0
   46.4428   35.9284   43.6683 H   0  0  0  0  0  0  0  0  0  0  0  0
   44.0720   36.5859   43.5874 H   0  0  0  0  0  0  0  0  0  0  0  0
   42.5244   35.6767   41.8554 H   0  0  0  0  0  0  0  0  0  0  0  0
   47.6645   33.1450   37.1800 H   0  0  0  0  0  0  0  0  0  0  0  0
   47.4143   30.6737   37.4778 H   0  0  0  0  0  0  0  0  0  0  0  0
   46.1818   29.8450   39.5228 H   0  0  0  0  0  0  0  0  0  0  0  0
  1  3  1  0
  1 20  1  0
  2  1  2  0
  3  4  2  0
  4  5  1  0
  6  5  2  0
  7  6  1  0
  8  7  2  0
  9  8  1  0
 10 11  1  0
 10  9  2  0
 11 12  2  0
 12  3  1  0
 12  7  1  0
 13 11  1  0
 13 14  1  0
 15 20  1  0
 15 16  2  0
 16 17  1  0
 18 17  2  0
 19 18  1  0
 20 19  2  0
 21 22  2  0
 21 26  1  0
 22 23  1  0
 23 24  2  0
 25 24  1  0
 25 15  1  0
 26 25  2  0
  4 27  1  0
  5 28  1  0
  6 29  1  0
  8 30  1  0
  9 31  1  0
 10 32  1  0
 13 33  1  0
 13 34  1  0
 14 35  1  0
 14 36  1  0
 14 37  1  0
 16 38  1  0
 17 39  1  0
 18 40  1  0
 19 41  1  0
 21 42  1  0
 22 43  1  0
 23 44  1  0
M  ISO  8  27  14  28  14  29  14  30  14  31  14  32  14  33   8  34   8
M  ISO  8  35   8  36   8  37   8  38  14  39  14  40  14  41  14  42  14
M  ISO  2  43  14  44  14
M  END
>  <minimizedAffinity>  (1) 
-6.46677399

>  <minimizedRMSD>  (1) 
2.7473309

$$$$
