
     RDKit          3D

 33 35  0  0  0  0  0  0  0  0999 V2000
   46.5050   34.4220   41.6160 N   0  0  0  0  0  0  0  0  0  0  0  0
   45.9060   33.8730   40.5580 C   0  0  0  0  0  0  0  0  0  0  0  0
   46.5360   33.6430   39.3560 C   0  0  0  0  0  0  0  0  0  0  0  0
   47.8620   34.0320   39.3260 C   0  0  0  0  0  0  0  0  0  0  0  0
   48.5100   33.8530   38.2520 O   0  0  0  0  0  0  0  0  0  0  0  0
   48.5020   34.5910   40.3780 N   0  0  0  0  0  0  0  0  0  0  0  0
   47.8100   34.7870   41.5360 C   0  0  0  0  0  0  0  0  0  0  0  0
   48.4580   35.3060   42.4670 O   0  0  0  0  0  0  0  0  0  0  0  0
   44.7100   36.2370   44.2820 C   0  0  0  0  0  0  0  0  0  0  0  0
   45.2950   35.9360   43.0230 C   0  0  0  0  0  0  0  0  0  0  0  0
   45.9390   34.6880   42.8680 C   0  0  0  0  0  0  0  0  0  0  0  0
   45.9610   33.8350   43.9480 N   0  0  0  0  0  0  0  0  0  0  0  0
   45.3890   34.1760   45.1180 C   0  0  0  0  0  0  0  0  0  0  0  0
   44.7640   35.3650   45.2980 N   0  0  0  0  0  0  0  0  0  0  0  0
   44.5070   33.5060   40.7120 C   0  0  0  0  0  0  0  0  0  0  0  0
   44.0720   32.2900   41.2340 C   0  0  0  0  0  0  0  0  0  0  0  0
   42.7190   32.0590   41.3310 C   0  0  0  0  0  0  0  0  0  0  0  0
   41.7510   32.9610   40.9410 C   0  0  0  0  0  0  0  0  0  0  0  0
   42.1770   34.1780   40.4180 C   0  0  0  0  0  0  0  0  0  0  0  0
   43.5310   34.4190   40.3170 C   0  0  0  0  0  0  0  0  0  0  0  0
   45.8330   33.0340   38.2160 C   0  0  0  0  0  0  0  0  0  0  0  0
   49.4927   34.8633   40.3057 H   0  0  0  0  0  0  0  0  0  0  0  0
   44.2037   37.2030   44.4254 H   0  0  0  0  0  0  0  0  0  0  0  0
   45.2479   36.6548   42.1916 H   0  0  0  0  0  0  0  0  0  0  0  0
   45.4303   33.4653   45.9566 H   0  0  0  0  0  0  0  0  0  0  0  0
   44.7958   31.5295   41.5622 H   0  0  0  0  0  0  0  0  0  0  0  0
   42.3888   31.0950   41.7453 H   0  0  0  0  0  0  0  0  0  0  0  0
   40.6808   32.7266   41.0399 H   0  0  0  0  0  0  0  0  0  0  0  0
   41.4474   34.9336   40.0913 H   0  0  0  0  0  0  0  0  0  0  0  0
   43.8583   35.3838   39.9023 H   0  0  0  0  0  0  0  0  0  0  0  0
   45.0504   32.3561   38.5875 H   0  0  0  0  0  0  0  0  0  0  0  0
   45.3734   33.8241   37.6041 H   0  0  0  0  0  0  0  0  0  0  0  0
   46.5496   32.4665   37.6041 H   0  0  0  0  0  0  0  0  0  0  0  0
  1 11  1  0
  2 15  1  0
  2  1  1  0
  3  2  2  0
  4  3  1  0
  4  6  1  0
  5  4  2  0
  6  7  1  0
  7  1  1  0
  7  8  2  0
  9 14  2  0
 10  9  1  0
 11 10  2  0
 11 12  1  0
 12 13  2  0
 13 14  1  0
 15 16  2  0
 16 17  1  0
 18 17  2  0
 19 18  1  0
 20 19  2  0
 20 15  1  0
 21  3  1  0
  6 22  1  0
  9 23  1  0
 10 24  1  0
 13 25  1  0
 16 26  1  0
 17 27  1  0
 18 28  1  0
 19 29  1  0
 20 30  1  0
 21 31  1  0
 21 32  1  0
 21 33  1  0
M  ISO  8  22   9  23  14  24  14  25  14  26  14  27  14  28  14  29  14
M  ISO  4  30  14  31   8  32   8  33   8
M  END
>  <minimizedAffinity>  (1) 
-5.564744

>  <minimizedRMSD>  (1) 
0.591569364

$$$$
