
     RDKit          3D

 32 34  0  0  0  0  0  0  0  0999 V2000
   46.4970   34.4300   41.6210 N   0  0  0  0  0  0  0  0  0  0  0  0
   45.9090   33.8380   40.5780 C   0  0  0  0  0  0  0  0  0  0  0  0
   46.5340   33.6240   39.3700 C   0  0  0  0  0  0  0  0  0  0  0  0
   47.8390   34.0760   39.3150 C   0  0  0  0  0  0  0  0  0  0  0  0
   48.4840   33.9140   38.2320 O   0  0  0  0  0  0  0  0  0  0  0  0
   48.4690   34.6830   40.3560 N   0  0  0  0  0  0  0  0  0  0  0  0
   47.7770   34.8560   41.5170 C   0  0  0  0  0  0  0  0  0  0  0  0
   48.4180   35.4210   42.4330 O   0  0  0  0  0  0  0  0  0  0  0  0
   44.7090   36.1900   44.3160 C   0  0  0  0  0  0  0  0  0  0  0  0
   45.2820   35.9100   43.0490 C   0  0  0  0  0  0  0  0  0  0  0  0
   45.9380   34.6860   42.8780 C   0  0  0  0  0  0  0  0  0  0  0  0
   45.9840   33.8340   43.9530 N   0  0  0  0  0  0  0  0  0  0  0  0
   45.4270   34.1360   45.1390 C   0  0  0  0  0  0  0  0  0  0  0  0
   44.7890   35.3080   45.3310 N   0  0  0  0  0  0  0  0  0  0  0  0
   44.5250   33.4070   40.7660 C   0  0  0  0  0  0  0  0  0  0  0  0
   43.6550   34.3790   40.3020 C   0  0  0  0  0  0  0  0  0  0  0  0
   42.2680   34.2080   40.3680 C   0  0  0  0  0  0  0  0  0  0  0  0
   41.7500   33.0310   40.9150 C   0  0  0  0  0  0  0  0  0  0  0  0
   42.7020   32.1230   41.3500 C   0  0  0  0  0  0  0  0  0  0  0  0
   44.0360   32.2890   41.2870 N   0  0  0  0  0  0  0  0  0  0  0  0
   45.8490   32.9650   38.2410 C   0  0  0  0  0  0  0  0  0  0  0  0
   49.4440   35.0037   40.2692 H   0  0  0  0  0  0  0  0  0  0  0  0
   44.1889   37.1465   44.4728 H   0  0  0  0  0  0  0  0  0  0  0  0
   45.2126   36.6346   42.2243 H   0  0  0  0  0  0  0  0  0  0  0  0
   45.4930   33.4145   45.9667 H   0  0  0  0  0  0  0  0  0  0  0  0
   44.0631   35.3057   39.8722 H   0  0  0  0  0  0  0  0  0  0  0  0
   41.5927   34.9914   39.9935 H   0  0  0  0  0  0  0  0  0  0  0  0
   40.6696   32.8400   40.9942 H   0  0  0  0  0  0  0  0  0  0  0  0
   42.3345   31.1823   41.7858 H   0  0  0  0  0  0  0  0  0  0  0  0
   45.1071   32.2512   38.6285 H   0  0  0  0  0  0  0  0  0  0  0  0
   45.3420   33.7235   37.6265 H   0  0  0  0  0  0  0  0  0  0  0  0
   46.5874   32.4290   37.6265 H   0  0  0  0  0  0  0  0  0  0  0  0
  1 11  1  0
  2 15  1  0
  2  1  1  0
  3  2  2  0
  4  3  1  0
  4  6  1  0
  5  4  2  0
  6  7  1  0
  7  1  1  0
  7  8  2  0
  9 14  2  0
 10  9  1  0
 11 10  2  0
 11 12  1  0
 12 13  2  0
 13 14  1  0
 15 20  2  0
 16 17  2  0
 16 15  1  0
 17 18  1  0
 18 19  2  0
 20 19  1  0
 21  3  1  0
  6 22  1  0
  9 23  1  0
 10 24  1  0
 13 25  1  0
 16 26  1  0
 17 27  1  0
 18 28  1  0
 19 29  1  0
 21 30  1  0
 21 31  1  0
 21 32  1  0
M  ISO  8  22   9  23  14  24  14  25  14  26  14  27  14  28  14  29  14
M  ISO  3  30   8  31   8  32   8
M  END
>  <minimizedAffinity>  (1) 
-5.57352924

>  <minimizedRMSD>  (1) 
0.721335173

$$$$
