
     RDKit          3D

 38 40  0  0  0  0  0  0  0  0999 V2000
   46.5570   34.3970   41.5140 N   0  0  0  0  0  0  0  0  0  0  0  0
   45.9940   33.7970   40.4620 C   0  0  0  0  0  0  0  0  0  0  0  0
   46.6420   33.6380   39.2510 C   0  0  0  0  0  0  0  0  0  0  0  0
   47.9230   34.1490   39.2060 C   0  0  0  0  0  0  0  0  0  0  0  0
   48.5780   34.0390   38.1280 O   0  0  0  0  0  0  0  0  0  0  0  0
   48.5200   34.7650   40.2620 N   0  0  0  0  0  0  0  0  0  0  0  0
   47.8220   34.8820   41.4140 C   0  0  0  0  0  0  0  0  0  0  0  0
   48.4360   35.4620   42.3460 O   0  0  0  0  0  0  0  0  0  0  0  0
   44.7160   36.0950   44.2200 C   0  0  0  0  0  0  0  0  0  0  0  0
   45.2990   35.8420   42.9510 C   0  0  0  0  0  0  0  0  0  0  0  0
   45.9890   34.6130   42.7860 C   0  0  0  0  0  0  0  0  0  0  0  0
   46.0550   33.7550   43.8340 N   0  0  0  0  0  0  0  0  0  0  0  0
   45.4870   34.0330   45.0250 C   0  0  0  0  0  0  0  0  0  0  0  0
   44.8220   35.1910   45.2240 N   0  0  0  0  0  0  0  0  0  0  0  0
   44.6620   33.3080   40.6460 N   0  0  0  0  0  0  0  0  0  0  0  0
   43.5880   34.2270   40.2910 C   0  0  0  0  0  0  0  0  0  0  0  0
   42.4160   33.4740   39.7060 C   0  0  0  0  0  0  0  0  0  0  0  0
   41.8080   32.6740   40.8560 C   0  0  0  0  0  0  0  0  0  0  0  0
   42.8900   32.2960   41.8760 C   0  0  0  0  0  0  0  0  0  0  0  0
   44.2000   32.0200   41.1320 C   0  0  0  0  0  0  0  0  0  0  0  0
   45.9790   32.9760   38.1240 C   0  0  0  0  0  0  0  0  0  0  0  0
   49.4791   35.1328   40.1858 H   0  0  0  0  0  0  0  0  0  0  0  0
   44.1719   37.0357   44.3905 H   0  0  0  0  0  0  0  0  0  0  0  0
   45.2193   36.5687   42.1291 H   0  0  0  0  0  0  0  0  0  0  0  0
   45.5666   33.3057   45.8464 H   0  0  0  0  0  0  0  0  0  0  0  0
   43.2589   34.7642   41.1927 H   0  0  0  0  0  0  0  0  0  0  0  0
   43.9632   34.9382   39.5404 H   0  0  0  0  0  0  0  0  0  0  0  0
   41.6758   34.1778   39.2977 H   0  0  0  0  0  0  0  0  0  0  0  0
   42.7321   32.8164   38.8828 H   0  0  0  0  0  0  0  0  0  0  0  0
   41.0380   33.2822   41.3532 H   0  0  0  0  0  0  0  0  0  0  0  0
   41.3609   31.7534   40.4528 H   0  0  0  0  0  0  0  0  0  0  0  0
   43.0354   33.1251   42.5842 H   0  0  0  0  0  0  0  0  0  0  0  0
   42.5809   31.3980   42.4311 H   0  0  0  0  0  0  0  0  0  0  0  0
   44.0244   31.3342   40.2901 H   0  0  0  0  0  0  0  0  0  0  0  0
   44.9445   31.5459   41.7884 H   0  0  0  0  0  0  0  0  0  0  0  0
   45.2488   32.2469   38.5050 H   0  0  0  0  0  0  0  0  0  0  0  0
   45.4607   33.7277   37.5105 H   0  0  0  0  0  0  0  0  0  0  0  0
   46.7299   32.4566   37.5105 H   0  0  0  0  0  0  0  0  0  0  0  0
  1 11  1  0
  2 15  1  0
  2  1  1  0
  3  2  2  0
  4  3  1  0
  4  6  1  0
  5  4  2  0
  6  7  1  0
  7  1  1  0
  7  8  2  0
  9 14  2  0
 10  9  1  0
 11 10  2  0
 11 12  1  0
 12 13  2  0
 13 14  1  0
 15 20  1  0
 16 15  1  0
 17 16  1  0
 17 18  1  0
 18 19  1  0
 20 19  1  0
 21  3  1  0
  6 22  1  0
  9 23  1  0
 10 24  1  0
 13 25  1  0
 16 26  1  0
 16 27  1  0
 17 28  1  0
 17 29  1  0
 18 30  1  0
 18 31  1  0
 19 32  1  0
 19 33  1  0
 20 34  1  0
 20 35  1  0
 21 36  1  0
 21 37  1  0
 21 38  1  0
M  ISO  8  22   9  23  14  24  14  25  14  26  13  27  13  28  13  29  13
M  ISO  8  30  13  31  13  32  13  33  13  34  13  35  13  36   8  37   8
M  ISO  1  38   8
M  END
>  <minimizedAffinity>  (1) 
-5.43024445

>  <minimizedRMSD>  (1) 
0.0818188936

$$$$
