
     RDKit          3D

 26 27  0  0  0  0  0  0  0  0999 V2000
   46.5790   34.4420   41.5380 N   0  0  0  0  0  0  0  0  0  0  0  0
   45.9960   33.8680   40.4760 C   0  0  0  0  0  0  0  0  0  0  0  0
   46.6280   33.6700   39.2770 C   0  0  0  0  0  0  0  0  0  0  0  0
   47.9470   34.1200   39.2530 C   0  0  0  0  0  0  0  0  0  0  0  0
   48.6000   33.9710   38.1710 O   0  0  0  0  0  0  0  0  0  0  0  0
   48.5700   34.7090   40.3180 N   0  0  0  0  0  0  0  0  0  0  0  0
   47.8700   34.8640   41.4630 C   0  0  0  0  0  0  0  0  0  0  0  0
   48.4840   35.4040   42.3940 O   0  0  0  0  0  0  0  0  0  0  0  0
   44.6800   36.1610   44.2010 C   0  0  0  0  0  0  0  0  0  0  0  0
   45.2830   35.8730   42.9500 C   0  0  0  0  0  0  0  0  0  0  0  0
   45.9970   34.6790   42.8090 C   0  0  0  0  0  0  0  0  0  0  0  0
   46.0840   33.8450   43.8750 N   0  0  0  0  0  0  0  0  0  0  0  0
   45.5040   34.1380   45.0530 C   0  0  0  0  0  0  0  0  0  0  0  0
   44.8030   35.2880   45.2260 N   0  0  0  0  0  0  0  0  0  0  0  0
   45.9730   33.0420   38.1280 C   0  0  0  0  0  0  0  0  0  0  0  0
   44.5990   33.4400   40.6430 C   0  0  0  0  0  0  0  0  0  0  0  0
   44.3780   32.3920   39.7590 F   0  0  0  0  0  0  0  0  0  0  0  0
   43.8060   34.5400   40.3670 F   0  0  0  0  0  0  0  0  0  0  0  0
   44.2860   33.0000   41.8820 F   0  0  0  0  0  0  0  0  0  0  0  0
   49.5475   35.0263   40.2491 H   0  0  0  0  0  0  0  0  0  0  0  0
   44.1129   37.0936   44.3371 H   0  0  0  0  0  0  0  0  0  0  0  0
   45.1909   36.5746   42.1078 H   0  0  0  0  0  0  0  0  0  0  0  0
   45.5994   33.4327   45.8918 H   0  0  0  0  0  0  0  0  0  0  0  0
   45.2215   32.3215   38.4830 H   0  0  0  0  0  0  0  0  0  0  0  0
   45.4811   33.8147   37.5189 H   0  0  0  0  0  0  0  0  0  0  0  0
   46.7243   32.5181   37.5189 H   0  0  0  0  0  0  0  0  0  0  0  0
  1 11  1  0
  2 16  1  0
  2  1  1  0
  3  2  2  0
  4  3  1  0
  4  6  1  0
  5  4  2  0
  6  7  1  0
  7  1  1  0
  7  8  2  0
  9 14  2  0
 10  9  1  0
 11 10  2  0
 11 12  1  0
 12 13  2  0
 13 14  1  0
 15  3  1  0
 16 19  1  0
 17 16  1  0
 18 16  1  0
  6 20  1  0
  9 21  1  0
 10 22  1  0
 13 23  1  0
 15 24  1  0
 15 25  1  0
 15 26  1  0
M  ISO  7  20   9  21  14  22  14  23  14  24   8  25   8  26   8
M  END
>  <minimizedAffinity>  (1) 
-5.07593489

>  <minimizedRMSD>  (1) 
0.214752823

$$$$
