
     RDKit          3D

 26 27  0  0  0  0  0  0  0  0999 V2000
   46.6180   34.4150   41.5960 N   0  0  0  0  0  0  0  0  0  0  0  0
   46.0320   33.9430   40.4830 C   0  0  0  0  0  0  0  0  0  0  0  0
   46.7290   33.6720   39.3270 C   0  0  0  0  0  0  0  0  0  0  0  0
   48.0920   33.9260   39.4000 C   0  0  0  0  0  0  0  0  0  0  0  0
   48.7890   33.6970   38.3690 O   0  0  0  0  0  0  0  0  0  0  0  0
   48.7130   34.4070   40.5210 N   0  0  0  0  0  0  0  0  0  0  0  0
   47.9510   34.6480   41.6220 C   0  0  0  0  0  0  0  0  0  0  0  0
   48.5770   35.0850   42.6080 O   0  0  0  0  0  0  0  0  0  0  0  0
   44.7460   36.3140   44.1410 C   0  0  0  0  0  0  0  0  0  0  0  0
   45.3860   36.0040   42.9000 C   0  0  0  0  0  0  0  0  0  0  0  0
   45.9870   34.7210   42.8190 C   0  0  0  0  0  0  0  0  0  0  0  0
   45.9210   33.8830   43.9000 N   0  0  0  0  0  0  0  0  0  0  0  0
   45.3030   34.2390   45.0360 C   0  0  0  0  0  0  0  0  0  0  0  0
   44.7150   35.4480   45.1680 N   0  0  0  0  0  0  0  0  0  0  0  0
   46.0640   33.1460   38.1300 C   0  0  0  0  0  0  0  0  0  0  0  0
   44.5900   33.7230   40.5490 C   0  0  0  0  0  0  0  0  0  0  0  0
   44.1510   32.6320   40.9990 O   0  0  0  0  0  0  0  0  0  0  0  0
   43.6540   34.6630   40.1380 O   0  0  0  0  0  0  0  0  0  0  0  0
   49.7281   34.5815   40.5307 H   0  0  0  0  0  0  0  0  0  0  0  0
   44.2626   37.2950   44.2587 H   0  0  0  0  0  0  0  0  0  0  0  0
   45.4108   36.7153   42.0612 H   0  0  0  0  0  0  0  0  0  0  0  0
   45.2744   33.5316   45.8779 H   0  0  0  0  0  0  0  0  0  0  0  0
   45.2340   32.4895   38.4303 H   0  0  0  0  0  0  0  0  0  0  0  0
   45.6725   33.9814   37.5311 H   0  0  0  0  0  0  0  0  0  0  0  0
   46.7868   32.5726   37.5311 H   0  0  0  0  0  0  0  0  0  0  0  0
   42.6872   34.4609   40.2051 H   0  0  0  0  0  0  0  0  0  0  0  0
  1  7  1  0
  1 11  1  0
  2 16  1  0
  2  1  1  0
  3  4  1  0
  3  2  2  0
  4  6  1  0
  5  4  2  0
  6  7  1  0
  7  8  2  0
  9 14  2  0
 10  9  1  0
 11 10  2  0
 11 12  1  0
 12 13  2  0
 13 14  1  0
 15  3  1  0
 16 17  2  0
 18 16  1  0
  6 19  1  0
  9 20  1  0
 10 21  1  0
 13 22  1  0
 15 23  1  0
 15 24  1  0
 15 25  1  0
 18 26  1  0
M  ISO  8  19   9  20  14  21  14  22  14  23   8  24   8  25   8  26   3
M  END
>  <minimizedAffinity>  (1) 
-4.91611004

>  <minimizedRMSD>  (1) 
0.589043975

$$$$
