
     RDKit          3D

 29 31  0  0  0  0  0  0  0  0999 V2000
   46.5170   34.4260   41.5850 N   0  0  0  0  0  0  0  0  0  0  0  0
   45.9300   33.8580   40.5280 C   0  0  0  0  0  0  0  0  0  0  0  0
   46.5620   33.6440   39.3290 C   0  0  0  0  0  0  0  0  0  0  0  0
   47.8770   34.0640   39.2890 C   0  0  0  0  0  0  0  0  0  0  0  0
   48.5360   33.9030   38.2160 O   0  0  0  0  0  0  0  0  0  0  0  0
   48.5120   34.6470   40.3440 N   0  0  0  0  0  0  0  0  0  0  0  0
   47.8030   34.8200   41.4970 C   0  0  0  0  0  0  0  0  0  0  0  0
   48.4540   35.3650   42.4270 O   0  0  0  0  0  0  0  0  0  0  0  0
   44.7100   36.1980   44.2610 C   0  0  0  0  0  0  0  0  0  0  0  0
   45.2910   35.9270   42.9860 C   0  0  0  0  0  0  0  0  0  0  0  0
   45.9500   34.6820   42.8400 C   0  0  0  0  0  0  0  0  0  0  0  0
   45.9780   33.8460   43.9200 N   0  0  0  0  0  0  0  0  0  0  0  0
   45.4180   34.1410   45.0960 C   0  0  0  0  0  0  0  0  0  0  0  0
   44.7820   35.3180   45.2730 N   0  0  0  0  0  0  0  0  0  0  0  0
   44.5530   33.4650   40.7040 N   0  0  0  0  0  0  0  0  0  0  0  0
   43.9710   32.3550   41.2040 C   0  0  0  0  0  0  0  0  0  0  0  0
   42.6450   32.5070   41.1350 N   0  0  0  0  0  0  0  0  0  0  0  0
   42.4010   33.7130   40.5910 C   0  0  0  0  0  0  0  0  0  0  0  0
   43.5970   34.3140   40.3220 N   0  0  0  0  0  0  0  0  0  0  0  0
   45.8800   33.0130   38.1840 C   0  0  0  0  0  0  0  0  0  0  0  0
   49.4947   34.9472   40.2736 H   0  0  0  0  0  0  0  0  0  0  0  0
   44.1890   37.1538   44.4192 H   0  0  0  0  0  0  0  0  0  0  0  0
   45.2300   36.6489   42.1582 H   0  0  0  0  0  0  0  0  0  0  0  0
   45.4755   33.4204   45.9251 H   0  0  0  0  0  0  0  0  0  0  0  0
   44.4982   31.4749   41.6008 H   0  0  0  0  0  0  0  0  0  0  0  0
   41.4070   34.1419   40.3961 H   0  0  0  0  0  0  0  0  0  0  0  0
   45.1193   32.3092   38.5528 H   0  0  0  0  0  0  0  0  0  0  0  0
   45.3960   33.7888   37.5725 H   0  0  0  0  0  0  0  0  0  0  0  0
   46.6159   32.4703   37.5725 H   0  0  0  0  0  0  0  0  0  0  0  0
  1 11  1  0
  2 15  1  0
  2  1  1  0
  3  2  2  0
  4  3  1  0
  4  6  1  0
  5  4  2  0
  6  7  1  0
  7  1  1  0
  7  8  2  0
  9 14  2  0
 10  9  1  0
 11 10  2  0
 11 12  1  0
 12 13  2  0
 13 14  1  0
 15 16  1  0
 17 16  2  0
 18 17  1  0
 19 18  2  0
 19 15  1  0
 20  3  1  0
  6 21  1  0
  9 22  1  0
 10 23  1  0
 13 24  1  0
 16 25  1  0
 18 26  1  0
 20 27  1  0
 20 28  1  0
 20 29  1  0
M  ISO  8  21   9  22  14  23  14  24  14  25  14  26  14  27   8  28   8
M  ISO  1  29   8
M  END
>  <minimizedAffinity>  (1) 
-5.25784969

>  <minimizedRMSD>  (1) 
0.2871584

$$$$
