
     RDKit          3D

 24 25  0  0  0  0  0  0  0  0999 V2000
   46.5640   34.4050   41.5060 N   0  0  0  0  0  0  0  0  0  0  0  0
   46.0250   33.7240   40.4840 C   0  0  0  0  0  0  0  0  0  0  0  0
   46.6610   33.5470   39.2800 C   0  0  0  0  0  0  0  0  0  0  0  0
   47.9190   34.1350   39.2050 C   0  0  0  0  0  0  0  0  0  0  0  0
   48.5760   34.0160   38.1180 O   0  0  0  0  0  0  0  0  0  0  0  0
   48.4870   34.8280   40.2210 N   0  0  0  0  0  0  0  0  0  0  0  0
   47.7920   34.9580   41.3800 C   0  0  0  0  0  0  0  0  0  0  0  0
   48.3760   35.6050   42.2650 O   0  0  0  0  0  0  0  0  0  0  0  0
   44.7190   36.1000   44.2090 C   0  0  0  0  0  0  0  0  0  0  0  0
   45.3070   35.8450   42.9370 C   0  0  0  0  0  0  0  0  0  0  0  0
   45.9900   34.6360   42.7680 C   0  0  0  0  0  0  0  0  0  0  0  0
   46.0500   33.7720   43.8380 N   0  0  0  0  0  0  0  0  0  0  0  0
   45.4790   34.0570   45.0200 C   0  0  0  0  0  0  0  0  0  0  0  0
   44.8180   35.2090   45.2120 N   0  0  0  0  0  0  0  0  0  0  0  0
   46.0600   32.7980   38.1730 C   0  0  0  0  0  0  0  0  0  0  0  0
   44.7570   33.1890   40.7050 O   0  0  0  0  0  0  0  0  0  0  0  0
   49.4227   35.2458   40.1168 H   0  0  0  0  0  0  0  0  0  0  0  0
   44.1747   37.0415   44.3740 H   0  0  0  0  0  0  0  0  0  0  0  0
   45.2268   36.5732   42.1164 H   0  0  0  0  0  0  0  0  0  0  0  0
   45.5546   33.3334   45.8450 H   0  0  0  0  0  0  0  0  0  0  0  0
   45.4194   31.9996   38.5756 H   0  0  0  0  0  0  0  0  0  0  0  0
   45.4543   33.4782   37.5562 H   0  0  0  0  0  0  0  0  0  0  0  0
   46.8553   32.3540   37.5562 H   0  0  0  0  0  0  0  0  0  0  0  0
   44.3049   32.6754   39.9895 H   0  0  0  0  0  0  0  0  0  0  0  0
  1 11  1  0
  2 16  1  0
  2  1  1  0
  3  2  2  0
  4  3  1  0
  4  6  1  0
  5  4  2  0
  6  7  1  0
  7  1  1  0
  7  8  2  0
  9 14  2  0
 10  9  1  0
 11 10  2  0
 11 12  1  0
 12 13  2  0
 13 14  1  0
 15  3  1  0
  6 17  1  0
  9 18  1  0
 10 19  1  0
 13 20  1  0
 15 21  1  0
 15 22  1  0
 15 23  1  0
 16 24  1  0
M  ISO  8  17   9  18  14  19  14  20  14  21   8  22   8  23   8  24   3
M  END
>  <minimizedAffinity>  (1) 
-4.86104822

>  <minimizedRMSD>  (1) 
0.106816024

$$$$
