
     RDKit          3D

 52 55  0  0  0  0  0  0  0  0999 V2000
   41.7660   31.7720   41.4940 N   0  0  0  0  0  0  0  0  0  0  0  0
   42.4540   32.8720   41.1350 C   0  0  0  0  0  0  0  0  0  0  0  0
   43.6810   33.1620   41.7540 C   0  0  0  0  0  0  0  0  0  0  0  0
   44.0890   32.2560   42.7130 C   0  0  0  0  0  0  0  0  0  0  0  0
   45.1870   32.4940   43.2820 O   0  0  0  0  0  0  0  0  0  0  0  0
   43.3830   31.1700   43.0500 N   0  0  0  0  0  0  0  0  0  0  0  0
   42.1990   30.9260   42.4260 C   0  0  0  0  0  0  0  0  0  0  0  0
   41.6030   29.8970   42.7930 O   0  0  0  0  0  0  0  0  0  0  0  0
   41.8680   33.7540   40.0560 C   0  0  0  0  0  0  0  0  0  0  0  0
   41.6650   33.1040   38.7320 C   0  0  0  0  0  0  0  0  0  0  0  0
   40.6100   33.9250   38.0050 C   0  0  0  0  0  0  0  0  0  0  0  0
   41.0000   35.3790   38.2450 C   0  0  0  0  0  0  0  0  0  0  0  0
   40.7630   35.8730   39.6430 C   0  0  0  0  0  0  0  0  0  0  0  0
   40.7460   34.6170   40.5100 C   0  0  0  0  0  0  0  0  0  0  0  0
   38.0990   31.6070   41.0730 C   0  0  0  0  0  0  0  0  0  0  0  0
   39.3650   31.9670   41.5990 C   0  0  0  0  0  0  0  0  0  0  0  0
   40.5070   31.3970   40.9570 C   0  0  0  0  0  0  0  0  0  0  0  0
   40.2700   30.5830   39.9300 N   0  0  0  0  0  0  0  0  0  0  0  0
   39.0700   30.2650   39.4610 C   0  0  0  0  0  0  0  0  0  0  0  0
   37.9800   30.7760   40.0290 N   0  0  0  0  0  0  0  0  0  0  0  0
   44.4120   34.3630   41.3720 C   0  0  0  0  0  0  0  0  0  0  0  0
   47.6750   33.5290   38.7780 C   0  0  0  0  0  0  0  0  0  0  0  0
   46.4120   33.1050   38.4220 C   0  0  0  0  0  0  0  0  0  0  0  0
   45.3120   33.3510   39.2370 C   0  0  0  0  0  0  0  0  0  0  0  0
   45.5310   34.0470   40.4320 C   0  0  0  0  0  0  0  0  0  0  0  0
   46.8300   34.4600   40.7540 C   0  0  0  0  0  0  0  0  0  0  0  0
   47.9160   34.2110   39.9400 C   0  0  0  0  0  0  0  0  0  0  0  0
   49.0420   33.2060   37.7370 S   0  0  0  0  0  0  0  0  0  0  0  0
   48.6890   33.4780   36.2940 O   0  0  0  0  0  0  0  0  0  0  0  0
   49.4850   31.7980   37.9510 O   0  0  0  0  0  0  0  0  0  0  0  0
   43.7323   30.5260   43.7739 H   0  0  0  0  0  0  0  0  0  0  0  0
   42.6815   34.4640   39.8462 H   0  0  0  0  0  0  0  0  0  0  0  0
   42.6053   33.1025   38.1612 H   0  0  0  0  0  0  0  0  0  0  0  0
   41.3453   32.0578   38.8472 H   0  0  0  0  0  0  0  0  0  0  0  0
   39.6107   33.7206   38.4168 H   0  0  0  0  0  0  0  0  0  0  0  0
   40.5668   33.6824   36.9330 H   0  0  0  0  0  0  0  0  0  0  0  0
   42.0715   35.4871   38.0211 H   0  0  0  0  0  0  0  0  0  0  0  0
   40.3560   35.9841   37.5899 H   0  0  0  0  0  0  0  0  0  0  0  0
   41.5729   36.5481   39.9567 H   0  0  0  0  0  0  0  0  0  0  0  0
   39.8264   36.4439   39.7255 H   0  0  0  0  0  0  0  0  0  0  0  0
   39.7897   34.0874   40.3874 H   0  0  0  0  0  0  0  0  0  0  0  0
   40.8577   34.8752   41.5734 H   0  0  0  0  0  0  0  0  0  0  0  0
   37.1902   32.0209   41.5342 H   0  0  0  0  0  0  0  0  0  0  0  0
   39.4631   32.6492   42.4563 H   0  0  0  0  0  0  0  0  0  0  0  0
   38.9763   29.5807   38.6049 H   0  0  0  0  0  0  0  0  0  0  0  0
   43.7192   35.0622   40.8809 H   0  0  0  0  0  0  0  0  0  0  0  0
   44.8405   34.8103   42.2810 H   0  0  0  0  0  0  0  0  0  0  0  0
   46.2718   32.5620   37.4757 H   0  0  0  0  0  0  0  0  0  0  0  0
   44.3054   33.0107   38.9527 H   0  0  0  0  0  0  0  0  0  0  0  0
   46.9912   35.0058   41.6953 H   0  0  0  0  0  0  0  0  0  0  0  0
   48.9281   34.5450   40.2122 H   0  0  0  0  0  0  0  0  0  0  0  0
   50.0805   34.0430   38.0500 H   0  0  0  0  0  0  0  0  0  0  0  0
  1  7  1  0
  2  1  1  0
  2  3  2  0
  3  4  1  0
  4  6  1  0
  4  5  2  0
  7  8  2  0
  7  6  1  0
  9 14  1  0
  9  2  1  0
 10  9  1  0
 11 12  1  0
 11 10  1  0
 12 13  1  0
 13 14  1  0
 15 16  2  0
 17  1  1  0
 17 16  1  0
 18 17  2  0
 19 18  1  0
 19 20  2  0
 20 15  1  0
 21  3  1  0
 22 27  2  0
 23 22  1  0
 23 24  2  0
 24 25  1  0
 25 26  2  0
 25 21  1  0
 27 26  1  0
 28 30  2  0
 28 22  1  0
 29 28  2  0
  6 31  1  0
  9 32  1  0
 10 33  1  0
 10 34  1  0
 11 35  1  0
 11 36  1  0
 12 37  1  0
 12 38  1  0
 13 39  1  0
 13 40  1  0
 14 41  1  0
 14 42  1  0
 15 43  1  0
 16 44  1  0
 19 45  1  0
 21 46  1  0
 21 47  1  0
 23 48  1  0
 24 49  1  0
 26 50  1  0
 27 51  1  0
 28 52  1  0
M  ISO  8  31   9  32  13  33  13  34  13  35  13  36  13  37  13  38  13
M  ISO  8  39  13  40  13  41  13  42  13  43  14  44  14  45  14  46   8
M  ISO  6  47   8  48  14  49  14  50  14  51  14  52  11
M  END
>  <minimizedAffinity>  (1) 
-6.15357733

>  <minimizedRMSD>  (1) 
5.74891663

$$$$
