
     RDKit          3D

 53 57  0  0  0  0  0  0  0  0999 V2000
   46.6970   34.4470   41.4000 N   0  0  0  0  0  0  0  0  0  0  0  0
   46.0940   33.8630   40.3300 C   0  0  0  0  0  0  0  0  0  0  0  0
   46.7640   33.7670   39.1060 C   0  0  0  0  0  0  0  0  0  0  0  0
   48.0400   34.2980   39.0910 C   0  0  0  0  0  0  0  0  0  0  0  0
   48.6720   34.2210   38.0070 O   0  0  0  0  0  0  0  0  0  0  0  0
   48.6180   34.8710   40.1560 N   0  0  0  0  0  0  0  0  0  0  0  0
   47.9300   34.9430   41.3220 C   0  0  0  0  0  0  0  0  0  0  0  0
   48.5310   35.4890   42.2650 O   0  0  0  0  0  0  0  0  0  0  0  0
   44.6990   33.3160   40.5310 C   0  0  0  0  0  0  0  0  0  0  0  0
   44.5900   32.2140   41.5270 C   0  0  0  0  0  0  0  0  0  0  0  0
   43.1340   32.1860   41.9750 C   0  0  0  0  0  0  0  0  0  0  0  0
   42.3120   32.3420   40.6980 C   0  0  0  0  0  0  0  0  0  0  0  0
   42.3460   33.7130   40.0880 C   0  0  0  0  0  0  0  0  0  0  0  0
   43.6350   34.3460   40.6080 C   0  0  0  0  0  0  0  0  0  0  0  0
   44.7560   35.9420   44.1490 C   0  0  0  0  0  0  0  0  0  0  0  0
   45.3520   35.7880   42.8650 C   0  0  0  0  0  0  0  0  0  0  0  0
   46.1120   34.6020   42.6730 C   0  0  0  0  0  0  0  0  0  0  0  0
   46.1940   33.7640   43.7100 N   0  0  0  0  0  0  0  0  0  0  0  0
   45.6270   33.9360   44.8980 C   0  0  0  0  0  0  0  0  0  0  0  0
   44.9040   35.0320   45.1190 N   0  0  0  0  0  0  0  0  0  0  0  0
   46.1020   33.1560   37.9650 C   0  0  0  0  0  0  0  0  0  0  0  0
   46.6910   31.8550   37.5680 C   0  0  0  0  0  0  0  0  0  0  0  0
   46.8450   30.7480   38.4110 C   0  0  0  0  0  0  0  0  0  0  0  0
   47.4110   29.6990   37.7990 N   0  0  0  0  0  0  0  0  0  0  0  0
   47.6530   30.0640   36.5440 C   0  0  0  0  0  0  0  0  0  0  0  0
   48.2120   29.4090   35.4690 C   0  0  0  0  0  0  0  0  0  0  0  0
   48.3420   30.0460   34.2450 C   0  0  0  0  0  0  0  0  0  0  0  0
   47.9040   31.3620   34.0970 C   0  0  0  0  0  0  0  0  0  0  0  0
   47.3330   32.0580   35.1610 C   0  0  0  0  0  0  0  0  0  0  0  0
   47.2260   31.3740   36.3670 C   0  0  0  0  0  0  0  0  0  0  0  0
   49.5727   35.2518   40.0894 H   0  0  0  0  0  0  0  0  0  0  0  0
   44.4856   32.8043   39.5809 H   0  0  0  0  0  0  0  0  0  0  0  0
   44.8650   31.2543   41.0650 H   0  0  0  0  0  0  0  0  0  0  0  0
   45.2675   32.3757   42.3784 H   0  0  0  0  0  0  0  0  0  0  0  0
   42.9015   31.2303   42.4676 H   0  0  0  0  0  0  0  0  0  0  0  0
   42.9149   32.9823   42.7015 H   0  0  0  0  0  0  0  0  0  0  0  0
   42.6963   31.6278   39.9549 H   0  0  0  0  0  0  0  0  0  0  0  0
   41.2653   32.1558   40.9803 H   0  0  0  0  0  0  0  0  0  0  0  0
   41.4716   34.2995   40.4065 H   0  0  0  0  0  0  0  0  0  0  0  0
   42.3180   33.6767   38.9890 H   0  0  0  0  0  0  0  0  0  0  0  0
   43.5005   34.6700   41.6506 H   0  0  0  0  0  0  0  0  0  0  0  0
   43.9041   35.2272   40.0071 H   0  0  0  0  0  0  0  0  0  0  0  0
   44.1532   36.8398   44.3505 H   0  0  0  0  0  0  0  0  0  0  0  0
   45.2318   36.5399   42.0711 H   0  0  0  0  0  0  0  0  0  0  0  0
   45.7529   33.1827   45.6896 H   0  0  0  0  0  0  0  0  0  0  0  0
   45.0441   32.9960   38.2206 H   0  0  0  0  0  0  0  0  0  0  0  0
   46.2258   33.8411   37.1134 H   0  0  0  0  0  0  0  0  0  0  0  0
   46.5337   30.7402   39.4660 H   0  0  0  0  0  0  0  0  0  0  0  0
   47.6192   28.7829   38.2212 H   0  0  0  0  0  0  0  0  0  0  0  0
   48.5583   28.3712   35.5829 H   0  0  0  0  0  0  0  0  0  0  0  0
   48.7896   29.5149   33.3921 H   0  0  0  0  0  0  0  0  0  0  0  0
   48.0113   31.8600   33.1220 H   0  0  0  0  0  0  0  0  0  0  0  0
   46.9847   33.0957   35.0523 H   0  0  0  0  0  0  0  0  0  0  0  0
  1 17  1  0
  2  9  1  0
  2  1  1  0
  3  2  2  0
  4  3  1  0
  4  6  1  0
  5  4  2  0
  6  7  1  0
  7  1  1  0
  7  8  2  0
  9 14  1  0
  9 10  1  0
 10 11  1  0
 12 11  1  0
 13 14  1  0
 13 12  1  0
 15 20  2  0
 16 15  1  0
 17 16  2  0
 17 18  1  0
 18 19  2  0
 19 20  1  0
 21  3  1  0
 22 21  1  0
 22 23  2  0
 24 23  1  0
 25 24  1  0
 26 25  2  0
 27 26  1  0
 28 27  2  0
 28 29  1  0
 29 30  2  0
 30 25  1  0
 30 22  1  0
  6 31  1  0
  9 32  1  0
 10 33  1  0
 10 34  1  0
 11 35  1  0
 11 36  1  0
 12 37  1  0
 12 38  1  0
 13 39  1  0
 13 40  1  0
 14 41  1  0
 14 42  1  0
 15 43  1  0
 16 44  1  0
 19 45  1  0
 21 46  1  0
 21 47  1  0
 23 48  1  0
 24 49  1  0
 26 50  1  0
 27 51  1  0
 28 52  1  0
 29 53  1  0
M  ISO  8  31   9  32  13  33  13  34  13  35  13  36  13  37  13  38  13
M  ISO  8  39  13  40  13  41  13  42  13  43  14  44  14  45  14  46   8
M  ISO  7  47   8  48  14  49   9  50  14  51  14  52  14  53  14
M  END
>  <minimizedAffinity>  (1) 
-5.84475136

>  <minimizedRMSD>  (1) 
1.70949543

$$$$
