
     RDKit          3D

 51 54  0  0  0  0  0  0  0  0999 V2000
   46.6800   34.4270   41.4050 N   0  0  0  0  0  0  0  0  0  0  0  0
   46.0790   33.8160   40.3610 C   0  0  0  0  0  0  0  0  0  0  0  0
   46.7400   33.7150   39.1420 C   0  0  0  0  0  0  0  0  0  0  0  0
   48.0100   34.2680   39.0910 C   0  0  0  0  0  0  0  0  0  0  0  0
   48.6200   34.1790   37.9920 O   0  0  0  0  0  0  0  0  0  0  0  0
   48.5850   34.8680   40.1360 N   0  0  0  0  0  0  0  0  0  0  0  0
   47.9030   34.9470   41.3110 C   0  0  0  0  0  0  0  0  0  0  0  0
   48.5080   35.5230   42.2410 O   0  0  0  0  0  0  0  0  0  0  0  0
   44.6910   33.2570   40.5780 C   0  0  0  0  0  0  0  0  0  0  0  0
   44.5990   32.1370   41.5530 C   0  0  0  0  0  0  0  0  0  0  0  0
   43.1570   32.0980   42.0240 C   0  0  0  0  0  0  0  0  0  0  0  0
   42.3110   32.2750   40.7680 C   0  0  0  0  0  0  0  0  0  0  0  0
   42.3240   33.6630   40.1870 C   0  0  0  0  0  0  0  0  0  0  0  0
   43.6230   34.2810   40.6970 C   0  0  0  0  0  0  0  0  0  0  0  0
   44.7520   35.9750   44.1400 C   0  0  0  0  0  0  0  0  0  0  0  0
   45.3420   35.7940   42.8580 C   0  0  0  0  0  0  0  0  0  0  0  0
   46.1040   34.6010   42.6790 C   0  0  0  0  0  0  0  0  0  0  0  0
   46.1830   33.7860   43.7300 N   0  0  0  0  0  0  0  0  0  0  0  0
   45.6230   33.9780   44.9160 C   0  0  0  0  0  0  0  0  0  0  0  0
   44.9030   35.0780   45.1230 N   0  0  0  0  0  0  0  0  0  0  0  0
   46.0900   33.0600   37.9940 C   0  0  0  0  0  0  0  0  0  0  0  0
   46.7160   31.8350   37.7280 N   0  0  0  0  0  0  0  0  0  0  0  0
   46.9930   31.4680   36.4090 C   0  0  0  0  0  0  0  0  0  0  0  0
   47.4580   30.0530   36.4520 C   0  0  0  0  0  0  0  0  0  0  0  0
   47.3500   29.6430   37.8790 C   0  0  0  0  0  0  0  0  0  0  0  0
   46.5030   30.7080   38.5440 C   0  0  0  0  0  0  0  0  0  0  0  0
   49.5316   35.2656   40.0540 H   0  0  0  0  0  0  0  0  0  0  0  0
   44.4701   32.7612   39.6212 H   0  0  0  0  0  0  0  0  0  0  0  0
   44.8667   31.1869   41.0677 H   0  0  0  0  0  0  0  0  0  0  0  0
   45.2905   32.2835   42.3958 H   0  0  0  0  0  0  0  0  0  0  0  0
   42.9355   31.1331   42.5034 H   0  0  0  0  0  0  0  0  0  0  0  0
   42.9503   32.8815   42.7680 H   0  0  0  0  0  0  0  0  0  0  0  0
   42.6864   31.5803   40.0022 H   0  0  0  0  0  0  0  0  0  0  0  0
   41.2711   32.0741   41.0651 H   0  0  0  0  0  0  0  0  0  0  0  0
   41.4555   34.2393   40.5384 H   0  0  0  0  0  0  0  0  0  0  0  0
   42.2681   33.6562   39.0884 H   0  0  0  0  0  0  0  0  0  0  0  0
   43.5071   34.5800   41.7492 H   0  0  0  0  0  0  0  0  0  0  0  0
   43.8802   35.1741   40.1085 H   0  0  0  0  0  0  0  0  0  0  0  0
   44.1540   36.8786   44.3294 H   0  0  0  0  0  0  0  0  0  0  0  0
   45.2178   36.5314   42.0512 H   0  0  0  0  0  0  0  0  0  0  0  0
   45.7518   33.2374   45.7191 H   0  0  0  0  0  0  0  0  0  0  0  0
   45.0292   32.8849   38.2263 H   0  0  0  0  0  0  0  0  0  0  0  0
   46.1742   33.7097   37.1104 H   0  0  0  0  0  0  0  0  0  0  0  0
   47.7797   32.1140   35.9921 H   0  0  0  0  0  0  0  0  0  0  0  0
   46.1032   31.5750   35.7712 H   0  0  0  0  0  0  0  0  0  0  0  0
   46.8188   29.4188   35.8202 H   0  0  0  0  0  0  0  0  0  0  0  0
   48.4857   29.9491   36.0738 H   0  0  0  0  0  0  0  0  0  0  0  0
   46.8643   28.6594   37.9605 H   0  0  0  0  0  0  0  0  0  0  0  0
   48.3384   29.5531   38.3533 H   0  0  0  0  0  0  0  0  0  0  0  0
   46.8404   30.8958   39.5740 H   0  0  0  0  0  0  0  0  0  0  0  0
   45.4426   30.4284   38.6299 H   0  0  0  0  0  0  0  0  0  0  0  0
  1 17  1  0
  2  9  1  0
  2  1  1  0
  3  2  2  0
  4  3  1  0
  4  6  1  0
  5  4  2  0
  6  7  1  0
  7  1  1  0
  7  8  2  0
  9 14  1  0
  9 10  1  0
 10 11  1  0
 12 11  1  0
 13 14  1  0
 13 12  1  0
 15 20  2  0
 16 15  1  0
 17 16  2  0
 17 18  1  0
 18 19  2  0
 19 20  1  0
 21  3  1  0
 22 21  1  0
 22 26  1  0
 23 24  1  0
 23 22  1  0
 24 25  1  0
 25 26  1  0
  6 27  1  0
  9 28  1  0
 10 29  1  0
 10 30  1  0
 11 31  1  0
 11 32  1  0
 12 33  1  0
 12 34  1  0
 13 35  1  0
 13 36  1  0
 14 37  1  0
 14 38  1  0
 15 39  1  0
 16 40  1  0
 19 41  1  0
 21 42  1  0
 21 43  1  0
 23 44  1  0
 23 45  1  0
 24 46  1  0
 24 47  1  0
 25 48  1  0
 25 49  1  0
 26 50  1  0
 26 51  1  0
M  ISO  8  27   9  28  13  29  13  30  13  31  13  32  13  33  13  34  13
M  ISO  8  35  13  36  13  37  13  38  13  39  14  40  14  41  14  42   8
M  ISO  8  43   8  44  13  45  13  46  13  47  13  48  13  49  13  50  13
M  ISO  1  51  13
M  END
>  <minimizedAffinity>  (1) 
-5.36419201

>  <minimizedRMSD>  (1) 
0.816244423

$$$$
