
     RDKit          3D

 52 55  0  0  0  0  0  0  0  0999 V2000
   46.6420   34.4230   41.4570 N   0  0  0  0  0  0  0  0  0  0  0  0
   46.0290   33.8580   40.3890 C   0  0  0  0  0  0  0  0  0  0  0  0
   46.7250   33.7020   39.1860 C   0  0  0  0  0  0  0  0  0  0  0  0
   48.0320   34.1480   39.1850 C   0  0  0  0  0  0  0  0  0  0  0  0
   48.6910   34.0180   38.1260 O   0  0  0  0  0  0  0  0  0  0  0  0
   48.6130   34.7030   40.2570 N   0  0  0  0  0  0  0  0  0  0  0  0
   47.9070   34.8420   41.4100 C   0  0  0  0  0  0  0  0  0  0  0  0
   48.5180   35.3690   42.3610 O   0  0  0  0  0  0  0  0  0  0  0  0
   44.6030   33.3930   40.5640 C   0  0  0  0  0  0  0  0  0  0  0  0
   44.3980   32.2910   41.5450 C   0  0  0  0  0  0  0  0  0  0  0  0
   42.9340   32.3650   41.9590 C   0  0  0  0  0  0  0  0  0  0  0  0
   42.1520   32.5910   40.6710 C   0  0  0  0  0  0  0  0  0  0  0  0
   42.2950   33.9630   40.0750 C   0  0  0  0  0  0  0  0  0  0  0  0
   43.6140   34.4980   40.6310 C   0  0  0  0  0  0  0  0  0  0  0  0
   44.7280   36.1130   44.1120 C   0  0  0  0  0  0  0  0  0  0  0  0
   45.3500   35.8860   42.8530 C   0  0  0  0  0  0  0  0  0  0  0  0
   46.0350   34.6470   42.7120 C   0  0  0  0  0  0  0  0  0  0  0  0
   46.0230   33.8360   43.7710 N   0  0  0  0  0  0  0  0  0  0  0  0
   45.4360   34.0710   44.9350 C   0  0  0  0  0  0  0  0  0  0  0  0
   44.7820   35.2180   45.1070 N   0  0  0  0  0  0  0  0  0  0  0  0
   46.0680   33.1050   38.0400 C   0  0  0  0  0  0  0  0  0  0  0  0
   46.4430   31.7250   37.8950 N   0  0  0  0  0  0  0  0  0  0  0  0
   47.1350   31.3600   36.7150 C   0  0  0  0  0  0  0  0  0  0  0  0
   46.8230   29.8950   36.3480 C   0  0  0  0  0  0  0  0  0  0  0  0
   45.4840   29.6300   36.2690 O   0  0  0  0  0  0  0  0  0  0  0  0
   44.6620   30.3460   37.1030 C   0  0  0  0  0  0  0  0  0  0  0  0
   45.4820   30.7660   38.3140 C   0  0  0  0  0  0  0  0  0  0  0  0
   49.5908   35.0231   40.2076 H   0  0  0  0  0  0  0  0  0  0  0  0
   44.3759   32.8878   39.6136 H   0  0  0  0  0  0  0  0  0  0  0  0
   44.6147   31.3187   41.0785 H   0  0  0  0  0  0  0  0  0  0  0  0
   45.0676   32.3931   42.4117 H   0  0  0  0  0  0  0  0  0  0  0  0
   42.6225   31.4244   42.4367 H   0  0  0  0  0  0  0  0  0  0  0  0
   42.7583   33.1705   42.6872 H   0  0  0  0  0  0  0  0  0  0  0  0
   42.4990   31.8580   39.9278 H   0  0  0  0  0  0  0  0  0  0  0  0
   41.0894   32.4779   40.9320 H   0  0  0  0  0  0  0  0  0  0  0  0
   41.4569   34.6068   40.3802 H   0  0  0  0  0  0  0  0  0  0  0  0
   42.2885   33.9394   38.9753 H   0  0  0  0  0  0  0  0  0  0  0  0
   43.4796   34.8199   41.6742 H   0  0  0  0  0  0  0  0  0  0  0  0
   43.9589   35.3647   40.0480 H   0  0  0  0  0  0  0  0  0  0  0  0
   44.1843   37.0554   44.2739 H   0  0  0  0  0  0  0  0  0  0  0  0
   45.3042   36.6235   42.0381 H   0  0  0  0  0  0  0  0  0  0  0  0
   45.4880   33.3303   45.7466 H   0  0  0  0  0  0  0  0  0  0  0  0
   44.9783   33.1698   38.1755 H   0  0  0  0  0  0  0  0  0  0  0  0
   46.3758   33.6497   37.1353 H   0  0  0  0  0  0  0  0  0  0  0  0
   46.8195   32.0165   35.8907 H   0  0  0  0  0  0  0  0  0  0  0  0
   48.2166   31.4655   36.8853 H   0  0  0  0  0  0  0  0  0  0  0  0
   47.2806   29.6746   35.3723 H   0  0  0  0  0  0  0  0  0  0  0  0
   47.2329   29.2641   37.1504 H   0  0  0  0  0  0  0  0  0  0  0  0
   44.2825   31.2366   36.5806 H   0  0  0  0  0  0  0  0  0  0  0  0
   43.8022   29.7344   37.4139 H   0  0  0  0  0  0  0  0  0  0  0  0
   45.9929   29.8893   38.7387 H   0  0  0  0  0  0  0  0  0  0  0  0
   44.8255   31.2001   39.0825 H   0  0  0  0  0  0  0  0  0  0  0  0
  1 17  1  0
  2  9  1  0
  2  1  1  0
  3  2  2  0
  4  3  1  0
  4  6  1  0
  5  4  2  0
  6  7  1  0
  7  1  1  0
  7  8  2  0
  9 14  1  0
  9 10  1  0
 10 11  1  0
 12 11  1  0
 13 14  1  0
 13 12  1  0
 15 20  2  0
 16 15  1  0
 17 16  2  0
 17 18  1  0
 18 19  2  0
 19 20  1  0
 21  3  1  0
 22 21  1  0
 22 27  1  0
 23 22  1  0
 24 23  1  0
 25 24  1  0
 25 26  1  0
 26 27  1  0
  6 28  1  0
  9 29  1  0
 10 30  1  0
 10 31  1  0
 11 32  1  0
 11 33  1  0
 12 34  1  0
 12 35  1  0
 13 36  1  0
 13 37  1  0
 14 38  1  0
 14 39  1  0
 15 40  1  0
 16 41  1  0
 19 42  1  0
 21 43  1  0
 21 44  1  0
 23 45  1  0
 23 46  1  0
 24 47  1  0
 24 48  1  0
 26 49  1  0
 26 50  1  0
 27 51  1  0
 27 52  1  0
M  ISO  8  28   9  29  13  30  13  31  13  32  13  33  13  34  13  35  13
M  ISO  8  36  13  37  13  38  13  39  13  40  14  41  14  42  14  43   8
M  ISO  8  44   8  45  13  46  13  47  13  48  13  49  13  50  13  51  13
M  ISO  1  52  13
M  END
>  <minimizedAffinity>  (1) 
-5.46203136

>  <minimizedRMSD>  (1) 
1.47663033

$$$$
