
     RDKit          3D

 33 36  0  0  0  0  0  0  0  0999 V2000
   44.1540   35.1520   42.6620 C   0  0  0  0  0  0  0  0  0  0  0  0
   45.1120   34.1300   42.4770 C   0  0  0  0  0  0  0  0  0  0  0  0
   45.9200   33.7810   43.5470 C   0  0  0  0  0  0  0  0  0  0  0  0
   45.7610   34.4430   44.7440 N   0  0  0  0  0  0  0  0  0  0  0  0
   44.8450   35.4010   44.8750 C   0  0  0  0  0  0  0  0  0  0  0  0
   44.0530   35.7560   43.8670 N   0  0  0  0  0  0  0  0  0  0  0  0
   46.9200   32.7420   43.3330 C   0  0  0  0  0  0  0  0  0  0  0  0
   46.5270   31.4040   43.5070 C   0  0  0  0  0  0  0  0  0  0  0  0
   47.3950   30.3360   43.3670 C   0  0  0  0  0  0  0  0  0  0  0  0
   48.7300   30.6000   43.0360 C   0  0  0  0  0  0  0  0  0  0  0  0
   49.1330   31.9110   42.8600 C   0  0  0  0  0  0  0  0  0  0  0  0
   50.4420   32.2550   42.5090 C   0  0  0  0  0  0  0  0  0  0  0  0
   50.8180   33.5660   42.3210 C   0  0  0  0  0  0  0  0  0  0  0  0
   49.8730   34.5850   42.4830 C   0  0  0  0  0  0  0  0  0  0  0  0
   48.5590   34.2970   42.8330 C   0  0  0  0  0  0  0  0  0  0  0  0
   48.2380   32.9610   43.0070 C   0  0  0  0  0  0  0  0  0  0  0  0
   45.1770   33.5730   41.1940 N   0  0  0  0  0  0  0  0  0  0  0  0
   46.0790   34.0030   40.3470 N   0  0  0  0  0  0  0  0  0  0  0  0
   45.9180   33.3160   39.1700 C   0  0  0  0  0  0  0  0  0  0  0  0
   44.8600   32.4570   39.3870 C   0  0  0  0  0  0  0  0  0  0  0  0
   44.3880   32.6260   40.6870 C   0  0  0  0  0  0  0  0  0  0  0  0
   43.4965   35.4533   41.8332 H   0  0  0  0  0  0  0  0  0  0  0  0
   44.7406   35.9126   45.8432 H   0  0  0  0  0  0  0  0  0  0  0  0
   45.4786   31.1959   43.7671 H   0  0  0  0  0  0  0  0  0  0  0  0
   47.0448   29.3034   43.5123 H   0  0  0  0  0  0  0  0  0  0  0  0
   49.4484   29.7754   42.9176 H   0  0  0  0  0  0  0  0  0  0  0  0
   51.1897   31.4586   42.3799 H   0  0  0  0  0  0  0  0  0  0  0  0
   51.8544   33.8107   42.0453 H   0  0  0  0  0  0  0  0  0  0  0  0
   50.1750   35.6317   42.3308 H   0  0  0  0  0  0  0  0  0  0  0  0
   47.8102   35.0918   42.9654 H   0  0  0  0  0  0  0  0  0  0  0  0
   46.5078   33.4267   38.2481 H   0  0  0  0  0  0  0  0  0  0  0  0
   44.4531   31.7497   38.6493 H   0  0  0  0  0  0  0  0  0  0  0  0
   43.5573   32.1001   41.1802 H   0  0  0  0  0  0  0  0  0  0  0  0
  1  6  2  0
  2  1  1  0
  2  3  2  0
  3  4  1  0
  4  5  2  0
  6  5  1  0
  7  8  2  0
  7  3  1  0
  9  8  1  0
 10  9  2  0
 11 16  2  0
 11 10  1  0
 12 11  1  0
 13 14  1  0
 13 12  2  0
 14 15  2  0
 15 16  1  0
 16  7  1  0
 17  2  1  0
 18 17  1  0
 19 20  1  0
 19 18  2  0
 20 21  2  0
 21 17  1  0
  1 22  1  0
  5 23  1  0
  8 24  1  0
  9 25  1  0
 10 26  1  0
 12 27  1  0
 13 28  1  0
 14 29  1  0
 15 30  1  0
 19 31  1  0
 20 32  1  0
 21 33  1  0
M  ISO  8  22  14  23  14  24  14  25  14  26  14  27  14  28  14  29  14
M  ISO  4  30  14  31  14  32  14  33  14
M  END
>  <minimizedAffinity>  (1) 
-4.78957891

>  <minimizedRMSD>  (1) 
2.96905184

$$$$
