
     RDKit          3D

 27 29  0  0  0  0  0  0  0  0999 V2000
   45.3800   34.1900   44.9230 C   0  0  0  0  0  0  0  0  0  0  0  0
   45.9410   33.8540   43.6850 C   0  0  0  0  0  0  0  0  0  0  0  0
   45.8790   34.7740   42.6550 C   0  0  0  0  0  0  0  0  0  0  0  0
   45.2710   35.9750   42.8930 N   0  0  0  0  0  0  0  0  0  0  0  0
   44.7390   36.2650   44.1030 C   0  0  0  0  0  0  0  0  0  0  0  0
   44.7900   35.3830   45.1150 N   0  0  0  0  0  0  0  0  0  0  0  0
   46.4520   34.4280   41.3990 N   0  0  0  0  0  0  0  0  0  0  0  0
   45.9170   33.7120   40.3890 C   0  0  0  0  0  0  0  0  0  0  0  0
   46.6600   33.4940   39.2470 C   0  0  0  0  0  0  0  0  0  0  0  0
   47.9420   34.0060   39.1370 C   0  0  0  0  0  0  0  0  0  0  0  0
   48.5760   33.7850   38.0870 O   0  0  0  0  0  0  0  0  0  0  0  0
   48.4440   34.7140   40.1640 N   0  0  0  0  0  0  0  0  0  0  0  0
   47.7120   34.9270   41.2870 C   0  0  0  0  0  0  0  0  0  0  0  0
   48.3350   35.6060   42.1410 O   0  0  0  0  0  0  0  0  0  0  0  0
   46.5380   32.5800   43.5810 N   0  0  0  0  0  0  0  0  0  0  0  0
   47.8110   32.3990   43.7750 N   0  0  0  0  0  0  0  0  0  0  0  0
   48.1330   31.0900   43.6170 C   0  0  0  0  0  0  0  0  0  0  0  0
   46.9230   30.4820   43.3050 C   0  0  0  0  0  0  0  0  0  0  0  0
   45.9080   31.4340   43.2820 C   0  0  0  0  0  0  0  0  0  0  0  0
   45.4225   33.4672   45.7511 H   0  0  0  0  0  0  0  0  0  0  0  0
   44.2560   37.2406   44.2608 H   0  0  0  0  0  0  0  0  0  0  0  0
   44.8983   33.3058   40.4748 H   0  0  0  0  0  0  0  0  0  0  0  0
   46.2315   32.9101   38.4191 H   0  0  0  0  0  0  0  0  0  0  0  0
   49.3967   35.0998   40.0976 H   0  0  0  0  0  0  0  0  0  0  0  0
   49.1225   30.6194   43.7136 H   0  0  0  0  0  0  0  0  0  0  0  0
   46.7876   29.4087   43.1059 H   0  0  0  0  0  0  0  0  0  0  0  0
   44.8396   31.2823   43.0687 H   0  0  0  0  0  0  0  0  0  0  0  0
  1  6  2  0
  2  1  1  0
  3  4  1  0
  3  2  2  0
  4  5  2  0
  5  6  1  0
  7  3  1  0
  8  7  1  0
  9  8  2  0
 10  9  1  0
 10 12  1  0
 11 10  2  0
 12 13  1  0
 13  7  1  0
 13 14  2  0
 15  2  1  0
 15 16  1  0
 17 16  2  0
 18 17  1  0
 19 18  2  0
 19 15  1  0
  1 20  1  0
  5 21  1  0
  8 22  1  0
  9 23  1  0
 12 24  1  0
 17 25  1  0
 18 26  1  0
 19 27  1  0
M  ISO  8  20  14  21  14  22  14  23  14  24   9  25  14  26  14  27  14
M  END
>  <minimizedAffinity>  (1) 
-4.86677265

>  <minimizedRMSD>  (1) 
4.13000536

$$$$
