
     RDKit          3D

 31 34  0  0  0  0  0  0  0  0999 V2000
   45.3090   36.0670   43.2930 C   0  0  0  0  0  0  0  0  0  0  0  0
   46.1100   34.9350   43.1800 C   0  0  0  0  0  0  0  0  0  0  0  0
   46.1390   34.0130   44.2230 C   0  0  0  0  0  0  0  0  0  0  0  0
   45.3750   34.2500   45.3260 N   0  0  0  0  0  0  0  0  0  0  0  0
   44.6070   35.3480   45.4140 C   0  0  0  0  0  0  0  0  0  0  0  0
   44.5690   36.2480   44.4190 N   0  0  0  0  0  0  0  0  0  0  0  0
   46.9220   32.8000   44.1830 C   0  0  0  0  0  0  0  0  0  0  0  0
   47.9030   32.3090   43.3160 C   0  0  0  0  0  0  0  0  0  0  0  0
   48.3730   31.1230   43.7340 N   0  0  0  0  0  0  0  0  0  0  0  0
   47.7000   30.8350   44.8790 C   0  0  0  0  0  0  0  0  0  0  0  0
   47.8690   29.6860   45.6500 C   0  0  0  0  0  0  0  0  0  0  0  0
   47.0830   29.5450   46.8000 C   0  0  0  0  0  0  0  0  0  0  0  0
   46.2100   30.5690   47.0590 C   0  0  0  0  0  0  0  0  0  0  0  0
   46.0090   31.7270   46.3240 C   0  0  0  0  0  0  0  0  0  0  0  0
   46.8080   31.8390   45.1810 C   0  0  0  0  0  0  0  0  0  0  0  0
   46.8260   34.7800   41.9840 N   0  0  0  0  0  0  0  0  0  0  0  0
   48.0040   35.2660   41.7990 N   0  0  0  0  0  0  0  0  0  0  0  0
   48.4650   34.9660   40.5690 C   0  0  0  0  0  0  0  0  0  0  0  0
   47.4520   34.2280   39.9740 C   0  0  0  0  0  0  0  0  0  0  0  0
   46.4200   34.1240   40.8920 C   0  0  0  0  0  0  0  0  0  0  0  0
   45.2748   36.8074   42.4802 H   0  0  0  0  0  0  0  0  0  0  0  0
   43.9993   35.5125   46.3160 H   0  0  0  0  0  0  0  0  0  0  0  0
   48.2455   32.8277   42.4084 H   0  0  0  0  0  0  0  0  0  0  0  0
   49.0966   30.5481   43.2793 H   0  0  0  0  0  0  0  0  0  0  0  0
   48.5978   28.9135   45.3635 H   0  0  0  0  0  0  0  0  0  0  0  0
   47.1615   28.6655   47.4559 H   0  0  0  0  0  0  0  0  0  0  0  0
   45.5920   30.4584   47.9622 H   0  0  0  0  0  0  0  0  0  0  0  0
   45.2794   32.4966   46.6162 H   0  0  0  0  0  0  0  0  0  0  0  0
   49.4346   35.2457   40.1313 H   0  0  0  0  0  0  0  0  0  0  0  0
   47.4659   33.8034   38.9594 H   0  0  0  0  0  0  0  0  0  0  0  0
   45.4599   33.6061   40.7510 H   0  0  0  0  0  0  0  0  0  0  0  0
  1  6  2  0
  2  1  1  0
  2  3  2  0
  3  4  1  0
  4  5  2  0
  6  5  1  0
  7  3  1  0
  7 15  1  0
  8  9  1  0
  8  7  2  0
  9 10  1  0
 10 15  2  0
 10 11  1  0
 11 12  2  0
 12 13  1  0
 14 13  2  0
 15 14  1  0
 16  2  1  0
 17 16  1  0
 18 17  2  0
 19 18  1  0
 19 20  2  0
 20 16  1  0
  1 21  1  0
  5 22  1  0
  8 23  1  0
  9 24  1  0
 11 25  1  0
 12 26  1  0
 13 27  1  0
 14 28  1  0
 18 29  1  0
 19 30  1  0
 20 31  1  0
M  ISO  8  21  14  22  14  23  14  24   9  25  14  26  14  27  14  28  14
M  ISO  3  29  14  30  14  31  14
M  END
>  <minimizedAffinity>  (1) 
-5.47233772

>  <minimizedRMSD>  (1) 
3.07369304

$$$$
