
     RDKit          3D

 31 34  0  0  0  0  0  0  0  0999 V2000
   45.8640   35.6510   43.0720 C   0  0  0  0  0  0  0  0  0  0  0  0
   46.4800   34.4300   43.4850 C   0  0  0  0  0  0  0  0  0  0  0  0
   46.1000   33.7680   44.6490 C   0  0  0  0  0  0  0  0  0  0  0  0
   45.0910   34.4160   45.3400 N   0  0  0  0  0  0  0  0  0  0  0  0
   44.5220   35.5410   44.9620 C   0  0  0  0  0  0  0  0  0  0  0  0
   44.8900   36.1730   43.8360 N   0  0  0  0  0  0  0  0  0  0  0  0
   46.6760   32.5230   45.0630 C   0  0  0  0  0  0  0  0  0  0  0  0
   47.3870   31.6370   44.3910 N   0  0  0  0  0  0  0  0  0  0  0  0
   47.9400   30.5000   44.7450 C   0  0  0  0  0  0  0  0  0  0  0  0
   47.7990   30.0970   46.0100 N   0  0  0  0  0  0  0  0  0  0  0  0
   47.0900   30.8970   46.8490 C   0  0  0  0  0  0  0  0  0  0  0  0
   46.9950   30.4280   48.1290 C   0  0  0  0  0  0  0  0  0  0  0  0
   46.3050   31.1870   49.0350 C   0  0  0  0  0  0  0  0  0  0  0  0
   45.7350   32.3670   48.6630 C   0  0  0  0  0  0  0  0  0  0  0  0
   45.8880   32.7490   47.3500 C   0  0  0  0  0  0  0  0  0  0  0  0
   46.5570   32.0730   46.3530 C   0  0  0  0  0  0  0  0  0  0  0  0
   47.5570   34.0040   42.6510 N   0  0  0  0  0  0  0  0  0  0  0  0
   48.7980   34.3140   42.9430 N   0  0  0  0  0  0  0  0  0  0  0  0
   49.6340   33.8220   41.9940 C   0  0  0  0  0  0  0  0  0  0  0  0
   48.7750   33.1710   41.0800 C   0  0  0  0  0  0  0  0  0  0  0  0
   47.4320   33.2880   41.5060 C   0  0  0  0  0  0  0  0  0  0  0  0
   46.1810   36.1539   42.1465 H   0  0  0  0  0  0  0  0  0  0  0  0
   43.7250   35.9743   45.5841 H   0  0  0  0  0  0  0  0  0  0  0  0
   48.5041   29.8959   44.0191 H   0  0  0  0  0  0  0  0  0  0  0  0
   47.4571   29.4735   48.4210 H   0  0  0  0  0  0  0  0  0  0  0  0
   46.2097   30.8405   50.0746 H   0  0  0  0  0  0  0  0  0  0  0  0
   45.1772   32.9869   49.3804 H   0  0  0  0  0  0  0  0  0  0  0  0
   45.4228   33.7037   47.0634 H   0  0  0  0  0  0  0  0  0  0  0  0
   50.7295   33.9098   41.9470 H   0  0  0  0  0  0  0  0  0  0  0  0
   49.1036   32.6490   40.1692 H   0  0  0  0  0  0  0  0  0  0  0  0
   46.5197   32.8983   41.0307 H   0  0  0  0  0  0  0  0  0  0  0  0
  1  2  2  0
  1  6  1  0
  2  3  1  0
  3  7  1  0
  3  4  2  0
  5  4  1  0
  6  5  2  0
  7 16  2  0
  8  9  2  0
  8  7  1  0
  9 10  1  0
 10 11  2  0
 11 12  1  0
 12 13  2  0
 14 13  1  0
 15 14  2  0
 16 11  1  0
 16 15  1  0
 17 18  1  0
 17  2  1  0
 19 18  2  0
 20 21  2  0
 20 19  1  0
 21 17  1  0
  1 22  1  0
  5 23  1  0
  9 24  1  0
 12 25  1  0
 13 26  1  0
 14 27  1  0
 15 28  1  0
 19 29  1  0
 20 30  1  0
 21 31  1  0
M  ISO  8  22  14  23  14  24  14  25  14  26  14  27  14  28  14  29  14
M  ISO  2  30  14  31  14
M  END
>  <minimizedAffinity>  (1) 
-5.75691414

>  <minimizedRMSD>  (1) 
4.19917583

$$$$
