
     RDKit          3D

 46 49  0  0  0  0  0  0  0  0999 V2000
   46.6410   34.3950   41.4080 N   0  0  0  0  0  0  0  0  0  0  0  0
   46.0200   33.8370   40.3480 C   0  0  0  0  0  0  0  0  0  0  0  0
   46.7100   33.6770   39.1450 C   0  0  0  0  0  0  0  0  0  0  0  0
   48.0200   34.1200   39.1460 C   0  0  0  0  0  0  0  0  0  0  0  0
   48.6690   33.9880   38.0760 O   0  0  0  0  0  0  0  0  0  0  0  0
   48.6130   34.6720   40.2160 N   0  0  0  0  0  0  0  0  0  0  0  0
   47.9000   34.8060   41.3610 C   0  0  0  0  0  0  0  0  0  0  0  0
   48.5230   35.3310   42.3140 O   0  0  0  0  0  0  0  0  0  0  0  0
   44.5820   33.4080   40.5180 C   0  0  0  0  0  0  0  0  0  0  0  0
   44.3660   32.2790   41.4610 C   0  0  0  0  0  0  0  0  0  0  0  0
   42.9160   32.3450   41.9100 C   0  0  0  0  0  0  0  0  0  0  0  0
   42.1170   32.6350   40.6470 C   0  0  0  0  0  0  0  0  0  0  0  0
   42.2730   34.0230   40.0960 C   0  0  0  0  0  0  0  0  0  0  0  0
   43.6050   34.5170   40.6500 C   0  0  0  0  0  0  0  0  0  0  0  0
   44.7560   36.1030   44.0900 C   0  0  0  0  0  0  0  0  0  0  0  0
   45.3680   35.8730   42.8320 C   0  0  0  0  0  0  0  0  0  0  0  0
   46.0360   34.6210   42.6740 C   0  0  0  0  0  0  0  0  0  0  0  0
   46.0170   33.8020   43.7270 N   0  0  0  0  0  0  0  0  0  0  0  0
   45.4380   34.0430   44.8940 C   0  0  0  0  0  0  0  0  0  0  0  0
   44.8030   35.1990   45.0760 N   0  0  0  0  0  0  0  0  0  0  0  0
   46.0300   33.0810   38.0190 C   0  0  0  0  0  0  0  0  0  0  0  0
   46.0960   31.6110   37.8420 C   0  0  0  0  0  0  0  0  0  0  0  0
   45.2750   31.1660   36.5940 C   0  0  0  0  0  0  0  0  0  0  0  0
   44.8650   30.7680   37.9750 C   0  0  0  0  0  0  0  0  0  0  0  0
   49.5921   34.9881   40.1680 H   0  0  0  0  0  0  0  0  0  0  0  0
   44.3435   32.9710   39.5371 H   0  0  0  0  0  0  0  0  0  0  0  0
   44.5615   31.3219   40.9552 H   0  0  0  0  0  0  0  0  0  0  0  0
   45.0468   32.3515   42.3220 H   0  0  0  0  0  0  0  0  0  0  0  0
   42.6052   31.3864   42.3509 H   0  0  0  0  0  0  0  0  0  0  0  0
   42.7598   33.1150   42.6799 H   0  0  0  0  0  0  0  0  0  0  0  0
   42.4363   31.9232   39.8715 H   0  0  0  0  0  0  0  0  0  0  0  0
   41.0578   32.5349   40.9264 H   0  0  0  0  0  0  0  0  0  0  0  0
   42.2947   34.0028   38.9964 H   0  0  0  0  0  0  0  0  0  0  0  0
   41.4369   34.6784   40.3813 H   0  0  0  0  0  0  0  0  0  0  0  0
   43.4919   34.7939   41.7086 H   0  0  0  0  0  0  0  0  0  0  0  0
   43.9490   35.4041   40.0980 H   0  0  0  0  0  0  0  0  0  0  0  0
   44.2270   37.0522   44.2608 H   0  0  0  0  0  0  0  0  0  0  0  0
   45.3303   36.6174   42.0230 H   0  0  0  0  0  0  0  0  0  0  0  0
   45.4813   33.2978   45.7020 H   0  0  0  0  0  0  0  0  0  0  0  0
   44.9666   33.3490   38.1046 H   0  0  0  0  0  0  0  0  0  0  0  0
   46.5650   33.4787   37.1440 H   0  0  0  0  0  0  0  0  0  0  0  0
   47.1037   31.5071   38.2706 H   0  0  0  0  0  0  0  0  0  0  0  0
   44.6817   31.9014   36.0307 H   0  0  0  0  0  0  0  0  0  0  0  0
   45.4968   30.6345   35.6568 H   0  0  0  0  0  0  0  0  0  0  0  0
   44.9586   29.7172   38.2867 H   0  0  0  0  0  0  0  0  0  0  0  0
   43.9329   30.8675   38.5506 H   0  0  0  0  0  0  0  0  0  0  0  0
  1 17  1  0
  2  9  1  0
  2  1  1  0
  3  4  1  0
  3  2  2  0
  4  6  1  0
  5  4  2  0
  6  7  1  0
  7  1  1  0
  7  8  2  0
  9 14  1  0
  9 10  1  0
 10 11  1  0
 12 11  1  0
 13 12  1  0
 13 14  1  0
 15 20  2  0
 16 15  1  0
 17 16  2  0
 17 18  1  0
 18 19  2  0
 19 20  1  0
 21  3  1  0
 22 24  1  0
 22 21  1  0
 23 22  1  0
 23 24  1  0
  6 25  1  0
  9 26  1  0
 10 27  1  0
 10 28  1  0
 11 29  1  0
 11 30  1  0
 12 31  1  0
 12 32  1  0
 13 33  1  0
 13 34  1  0
 14 35  1  0
 14 36  1  0
 15 37  1  0
 16 38  1  0
 19 39  1  0
 21 40  1  0
 21 41  1  0
 22 42  1  0
 23 43  1  0
 23 44  1  0
 24 45  1  0
 24 46  1  0
M  ISO  8  25   9  26  13  27  13  28  13  29  13  30  13  31  13  32  13
M  ISO  8  33  13  34  13  35  13  36  13  37  14  38  14  39  14  40   8
M  ISO  6  41   8  42  13  43  13  44  13  45  13  46  13
M  END
>  <minimizedAffinity>  (1) 
-5.25272465

>  <minimizedRMSD>  (1) 
1.09715545

$$$$
