
     RDKit          3D

 27 29  0  0  0  0  0  0  0  0999 V2000
   45.3590   36.1550   43.2460 C   0  0  0  0  0  0  0  0  0  0  0  0
   46.0500   34.9300   43.1120 C   0  0  0  0  0  0  0  0  0  0  0  0
   45.9970   33.9630   44.1210 C   0  0  0  0  0  0  0  0  0  0  0  0
   45.2460   34.2780   45.2330 N   0  0  0  0  0  0  0  0  0  0  0  0
   44.5970   35.4630   45.3290 C   0  0  0  0  0  0  0  0  0  0  0  0
   44.6440   36.4010   44.3520 N   0  0  0  0  0  0  0  0  0  0  0  0
   46.7990   34.7780   41.9210 N   0  0  0  0  0  0  0  0  0  0  0  0
   47.9970   35.3220   41.8010 N   0  0  0  0  0  0  0  0  0  0  0  0
   48.5000   35.0380   40.5630 C   0  0  0  0  0  0  0  0  0  0  0  0
   47.4870   34.2710   39.9490 C   0  0  0  0  0  0  0  0  0  0  0  0
   46.3940   34.1050   40.8240 C   0  0  0  0  0  0  0  0  0  0  0  0
   46.6880   32.6930   44.0240 C   0  0  0  0  0  0  0  0  0  0  0  0
   45.8550   31.6160   44.3240 C   0  0  0  0  0  0  0  0  0  0  0  0
   46.2820   30.3070   44.2790 C   0  0  0  0  0  0  0  0  0  0  0  0
   47.5810   30.0120   43.9250 C   0  0  0  0  0  0  0  0  0  0  0  0
   48.4000   31.0810   43.6290 C   0  0  0  0  0  0  0  0  0  0  0  0
   47.9840   32.3930   43.6700 C   0  0  0  0  0  0  0  0  0  0  0  0
   45.4080   36.9057   42.4435 H   0  0  0  0  0  0  0  0  0  0  0  0
   44.0091   35.6721   46.2349 H   0  0  0  0  0  0  0  0  0  0  0  0
   49.4709   35.3380   40.1418 H   0  0  0  0  0  0  0  0  0  0  0  0
   47.5424   33.8601   38.9301 H   0  0  0  0  0  0  0  0  0  0  0  0
   45.4510   33.5644   40.6552 H   0  0  0  0  0  0  0  0  0  0  0  0
   44.8123   31.8202   44.6088 H   0  0  0  0  0  0  0  0  0  0  0  0
   45.5835   29.4941   44.5265 H   0  0  0  0  0  0  0  0  0  0  0  0
   47.9461   28.9753   43.8808 H   0  0  0  0  0  0  0  0  0  0  0  0
   49.4424   30.8745   43.3446 H   0  0  0  0  0  0  0  0  0  0  0  0
   48.6871   33.2011   43.4199 H   0  0  0  0  0  0  0  0  0  0  0  0
  1  6  2  0
  2  1  1  0
  2  3  2  0
  3  4  1  0
  4  5  2  0
  6  5  1  0
  7  2  1  0
  8  7  1  0
  9  8  2  0
 10  9  1  0
 10 11  2  0
 11  7  1  0
 12  3  1  0
 12 13  2  0
 14 13  1  0
 15 14  2  0
 16 17  2  0
 16 15  1  0
 17 12  1  0
  1 18  1  0
  5 19  1  0
  9 20  1  0
 10 21  1  0
 11 22  1  0
 13 23  1  0
 14 24  1  0
 15 25  1  0
 16 26  1  0
 17 27  1  0
M  ISO  8  18  14  19  14  20  14  21  14  22  14  23  14  24  14  25  14
M  ISO  2  26  14  27  14
M  END
>  <minimizedAffinity>  (1) 
-4.59282207

>  <minimizedRMSD>  (1) 
3.05728555

$$$$
