
     RDKit          3D

 24 26  0  0  0  0  0  0  0  0999 V2000
   45.2870   36.0350   43.3210 C   0  0  0  0  0  0  0  0  0  0  0  0
   46.1090   34.8830   43.2320 C   0  0  0  0  0  0  0  0  0  0  0  0
   46.1610   33.9610   44.2690 C   0  0  0  0  0  0  0  0  0  0  0  0
   45.3690   34.2530   45.3670 N   0  0  0  0  0  0  0  0  0  0  0  0
   44.6070   35.3380   45.4310 C   0  0  0  0  0  0  0  0  0  0  0  0
   44.5510   36.2240   44.4410 N   0  0  0  0  0  0  0  0  0  0  0  0
   46.8680   34.7680   42.0360 N   0  0  0  0  0  0  0  0  0  0  0  0
   48.0450   35.3040   41.9310 N   0  0  0  0  0  0  0  0  0  0  0  0
   48.5710   35.0780   40.7030 C   0  0  0  0  0  0  0  0  0  0  0  0
   47.5700   34.3290   40.0520 C   0  0  0  0  0  0  0  0  0  0  0  0
   46.4730   34.1300   40.9110 C   0  0  0  0  0  0  0  0  0  0  0  0
   46.9650   32.7540   44.2080 C   0  0  0  0  0  0  0  0  0  0  0  0
   46.7760   31.8070   45.2020 C   0  0  0  0  0  0  0  0  0  0  0  0
   47.5760   30.7020   45.0630 C   0  0  0  0  0  0  0  0  0  0  0  0
   48.2710   30.9840   43.9540 N   0  0  0  0  0  0  0  0  0  0  0  0
   47.9030   32.1460   43.4970 N   0  0  0  0  0  0  0  0  0  0  0  0
   45.2483   36.7611   42.4956 H   0  0  0  0  0  0  0  0  0  0  0  0
   44.0016   35.5100   46.3332 H   0  0  0  0  0  0  0  0  0  0  0  0
   49.5456   35.4015   40.3086 H   0  0  0  0  0  0  0  0  0  0  0  0
   47.6367   33.9537   39.0202 H   0  0  0  0  0  0  0  0  0  0  0  0
   45.5333   33.5922   40.7167 H   0  0  0  0  0  0  0  0  0  0  0  0
   46.0542   31.9298   46.0229 H   0  0  0  0  0  0  0  0  0  0  0  0
   47.6325   29.8085   45.7021 H   0  0  0  0  0  0  0  0  0  0  0  0
   48.9855   30.3762   43.5287 H   0  0  0  0  0  0  0  0  0  0  0  0
  1  6  2  0
  2  1  1  0
  2  3  2  0
  3  4  1  0
  4  5  2  0
  6  5  1  0
  7  2  1  0
  8  7  1  0
  9  8  2  0
 10  9  1  0
 10 11  2  0
 11  7  1  0
 12  3  1  0
 12 13  1  0
 14 13  2  0
 15 14  1  0
 16 15  1  0
 16 12  2  0
  1 17  1  0
  5 18  1  0
  9 19  1  0
 10 20  1  0
 11 21  1  0
 13 22  1  0
 14 23  1  0
 15 24  1  0
M  ISO  8  17  14  18  14  19  14  20  14  21  14  22  14  23  14  24   9
M  END
>  <minimizedAffinity>  (1) 
-4.65931082

>  <minimizedRMSD>  (1) 
3.28770614

$$$$
