
     RDKit          3D

 22 24  0  0  0  0  0  0  0  0999 V2000
   45.2780   36.0510   43.3110 C   0  0  0  0  0  0  0  0  0  0  0  0
   46.1090   34.9070   43.2150 C   0  0  0  0  0  0  0  0  0  0  0  0
   46.1850   33.9550   44.2460 C   0  0  0  0  0  0  0  0  0  0  0  0
   45.3910   34.2410   45.3400 N   0  0  0  0  0  0  0  0  0  0  0  0
   44.6180   35.3190   45.4150 C   0  0  0  0  0  0  0  0  0  0  0  0
   44.5470   36.2180   44.4360 N   0  0  0  0  0  0  0  0  0  0  0  0
   46.8770   34.7940   42.0190 N   0  0  0  0  0  0  0  0  0  0  0  0
   48.0510   35.3340   41.9070 N   0  0  0  0  0  0  0  0  0  0  0  0
   48.5610   35.0900   40.6820 C   0  0  0  0  0  0  0  0  0  0  0  0
   47.5670   34.3300   40.0310 C   0  0  0  0  0  0  0  0  0  0  0  0
   46.4750   34.1410   40.9060 C   0  0  0  0  0  0  0  0  0  0  0  0
   46.9900   32.7600   44.1900 C   0  0  0  0  0  0  0  0  0  0  0  0
   48.0050   32.2270   43.5150 N   0  0  0  0  0  0  0  0  0  0  0  0
   48.3330   31.0600   43.9150 O   0  0  0  0  0  0  0  0  0  0  0  0
   47.5360   30.7470   44.9000 C   0  0  0  0  0  0  0  0  0  0  0  0
   46.7230   31.7820   45.0620 N   0  0  0  0  0  0  0  0  0  0  0  0
   45.2291   36.7836   42.4919 H   0  0  0  0  0  0  0  0  0  0  0  0
   44.0136   35.4745   46.3208 H   0  0  0  0  0  0  0  0  0  0  0  0
   49.5335   35.4115   40.2810 H   0  0  0  0  0  0  0  0  0  0  0  0
   47.6323   33.9448   39.0027 H   0  0  0  0  0  0  0  0  0  0  0  0
   45.5346   33.5991   40.7270 H   0  0  0  0  0  0  0  0  0  0  0  0
   47.5382   29.8121   45.4796 H   0  0  0  0  0  0  0  0  0  0  0  0
  1  6  2  0
  2  1  1  0
  2  3  2  0
  3  4  1  0
  4  5  2  0
  6  5  1  0
  7  2  1  0
  8  7  1  0
  9  8  2  0
 10  9  1  0
 10 11  2  0
 11  7  1  0
 12  3  1  0
 12 16  1  0
 13 14  1  0
 13 12  2  0
 14 15  1  0
 15 16  2  0
  1 17  1  0
  5 18  1  0
  9 19  1  0
 10 20  1  0
 11 21  1  0
 15 22  1  0
M  ISO  6  17  14  18  14  19  14  20  14  21  14  22  14
M  END
>  <minimizedAffinity>  (1) 
-4.62475061

>  <minimizedRMSD>  (1) 
3.34424424

$$$$
