
     RDKit          3D

 25 27  0  0  0  0  0  0  0  0999 V2000
   45.3530   36.2200   43.1060 C   0  0  0  0  0  0  0  0  0  0  0  0
   45.7830   34.8760   42.9800 C   0  0  0  0  0  0  0  0  0  0  0  0
   45.6030   33.9440   44.0100 C   0  0  0  0  0  0  0  0  0  0  0  0
   44.9840   34.4340   45.1470 N   0  0  0  0  0  0  0  0  0  0  0  0
   44.5840   35.6950   45.2580 C   0  0  0  0  0  0  0  0  0  0  0  0
   44.7580   36.5730   44.2690 N   0  0  0  0  0  0  0  0  0  0  0  0
   46.4350   34.5500   41.7590 N   0  0  0  0  0  0  0  0  0  0  0  0
   47.6750   34.8360   41.5400 N   0  0  0  0  0  0  0  0  0  0  0  0
   48.0580   34.4390   40.3020 C   0  0  0  0  0  0  0  0  0  0  0  0
   46.8880   33.8610   39.7650 C   0  0  0  0  0  0  0  0  0  0  0  0
   45.8390   33.9340   40.7090 C   0  0  0  0  0  0  0  0  0  0  0  0
   45.9840   32.5710   43.9280 C   0  0  0  0  0  0  0  0  0  0  0  0
   47.2010   32.2560   44.4920 C   0  0  0  0  0  0  0  0  0  0  0  0
   47.7860   31.0210   44.5430 C   0  0  0  0  0  0  0  0  0  0  0  0
   47.1350   29.9780   43.9960 N   0  0  0  0  0  0  0  0  0  0  0  0
   45.9440   30.2270   43.4320 C   0  0  0  0  0  0  0  0  0  0  0  0
   45.4740   31.4560   43.4400 N   0  0  0  0  0  0  0  0  0  0  0  0
   45.4968   36.9463   42.2924 H   0  0  0  0  0  0  0  0  0  0  0  0
   44.0973   36.0238   46.1881 H   0  0  0  0  0  0  0  0  0  0  0  0
   49.0455   34.5426   39.8286 H   0  0  0  0  0  0  0  0  0  0  0  0
   46.8049   33.4193   38.7610 H   0  0  0  0  0  0  0  0  0  0  0  0
   44.8016   33.5805   40.6154 H   0  0  0  0  0  0  0  0  0  0  0  0
   47.7609   33.0851   44.9493 H   0  0  0  0  0  0  0  0  0  0  0  0
   48.7672   30.8832   45.0207 H   0  0  0  0  0  0  0  0  0  0  0  0
   45.3669   29.4135   42.9682 H   0  0  0  0  0  0  0  0  0  0  0  0
  1  6  2  0
  2  1  1  0
  2  3  2  0
  3  4  1  0
  4  5  2  0
  6  5  1  0
  7  2  1  0
  8  7  1  0
  9  8  2  0
 10  9  1  0
 10 11  2  0
 11  7  1  0
 12  3  1  0
 12 13  2  0
 13 14  1  0
 15 14  2  0
 16 17  2  0
 16 15  1  0
 17 12  1  0
  1 18  1  0
  5 19  1  0
  9 20  1  0
 10 21  1  0
 11 22  1  0
 13 23  1  0
 14 24  1  0
 16 25  1  0
M  ISO  8  18  14  19  14  20  14  21  14  22  14  23  14  24  14  25  14
M  END
>  <minimizedAffinity>  (1) 
-4.16906548

>  <minimizedRMSD>  (1) 
2.62379026

$$$$
