
     RDKit          3D

 25 27  0  0  0  0  0  0  0  0999 V2000
   45.3660   36.2520   43.1150 C   0  0  0  0  0  0  0  0  0  0  0  0
   45.7830   34.9070   42.9820 C   0  0  0  0  0  0  0  0  0  0  0  0
   45.5880   33.9730   44.0040 C   0  0  0  0  0  0  0  0  0  0  0  0
   44.9660   34.4750   45.1380 N   0  0  0  0  0  0  0  0  0  0  0  0
   44.5810   35.7400   45.2480 C   0  0  0  0  0  0  0  0  0  0  0  0
   44.7690   36.6320   44.2610 N   0  0  0  0  0  0  0  0  0  0  0  0
   46.4420   34.5610   41.7670 N   0  0  0  0  0  0  0  0  0  0  0  0
   47.6890   34.8200   41.5570 N   0  0  0  0  0  0  0  0  0  0  0  0
   48.0540   34.3990   40.3140 C   0  0  0  0  0  0  0  0  0  0  0  0
   46.8690   33.8460   39.7790 C   0  0  0  0  0  0  0  0  0  0  0  0
   45.8210   33.9530   40.7240 C   0  0  0  0  0  0  0  0  0  0  0  0
   45.9540   32.5690   43.9230 C   0  0  0  0  0  0  0  0  0  0  0  0
   47.1840   32.2710   44.4650 C   0  0  0  0  0  0  0  0  0  0  0  0
   47.7840   31.0480   44.5290 C   0  0  0  0  0  0  0  0  0  0  0  0
   47.0760   30.0170   43.9920 N   0  0  0  0  0  0  0  0  0  0  0  0
   45.8540   30.2810   43.4470 C   0  0  0  0  0  0  0  0  0  0  0  0
   45.3780   31.4920   43.4420 N   0  0  0  0  0  0  0  0  0  0  0  0
   45.5259   36.9727   42.2995 H   0  0  0  0  0  0  0  0  0  0  0  0
   44.0923   36.0689   46.1770 H   0  0  0  0  0  0  0  0  0  0  0  0
   49.0425   34.4725   39.8371 H   0  0  0  0  0  0  0  0  0  0  0  0
   46.7751   33.3993   38.7782 H   0  0  0  0  0  0  0  0  0  0  0  0
   44.7739   33.6276   40.6362 H   0  0  0  0  0  0  0  0  0  0  0  0
   47.7456   33.1137   44.8945 H   0  0  0  0  0  0  0  0  0  0  0  0
   48.7748   30.9042   44.9846 H   0  0  0  0  0  0  0  0  0  0  0  0
   45.2652   29.4624   43.0075 H   0  0  0  0  0  0  0  0  0  0  0  0
  1  6  2  0
  2  1  1  0
  2  3  2  0
  3  4  1  0
  4  5  2  0
  6  5  1  0
  7  2  1  0
  8  7  1  0
  9  8  2  0
 10  9  1  0
 10 11  2  0
 11  7  1  0
 12  3  1  0
 12 13  2  0
 13 14  1  0
 15 14  2  0
 16 15  1  0
 17 16  2  0
 17 12  1  0
  1 18  1  0
  5 19  1  0
  9 20  1  0
 10 21  1  0
 11 22  1  0
 13 23  1  0
 14 24  1  0
 16 25  1  0
M  ISO  8  18  14  19  14  20  14  21  14  22  14  23  14  24  14  25  14
M  END
>  <minimizedAffinity>  (1) 
-4.14674854

>  <minimizedRMSD>  (1) 
2.83126378

$$$$
