
     RDKit          3D

 24 26  0  0  0  0  0  0  0  0999 V2000
   44.2430   35.8030   42.4570 C   0  0  0  0  0  0  0  0  0  0  0  0
   43.5740   34.7100   41.8760 C   0  0  0  0  0  0  0  0  0  0  0  0
   43.9970   33.4180   42.1230 C   0  0  0  0  0  0  0  0  0  0  0  0
   45.0760   33.2530   42.9400 N   0  0  0  0  0  0  0  0  0  0  0  0
   45.7080   34.3030   43.4890 C   0  0  0  0  0  0  0  0  0  0  0  0
   45.3070   35.5520   43.2570 N   0  0  0  0  0  0  0  0  0  0  0  0
   42.4660   35.0620   41.0480 N   0  0  0  0  0  0  0  0  0  0  0  0
   42.6080   35.0870   39.7480 N   0  0  0  0  0  0  0  0  0  0  0  0
   41.4280   35.4470   39.1750 C   0  0  0  0  0  0  0  0  0  0  0  0
   40.5580   35.6380   40.2590 C   0  0  0  0  0  0  0  0  0  0  0  0
   41.2300   35.3890   41.4470 C   0  0  0  0  0  0  0  0  0  0  0  0
   43.2220   32.3600   41.4630 C   0  0  0  0  0  0  0  0  0  0  0  0
   41.9910   31.7760   42.0340 C   0  0  0  0  0  0  0  0  0  0  0  0
   43.2560   31.0430   42.2050 C   0  0  0  0  0  0  0  0  0  0  0  0
   43.9108   36.8342   42.2666 H   0  0  0  0  0  0  0  0  0  0  0  0
   46.5745   34.1282   44.1437 H   0  0  0  0  0  0  0  0  0  0  0  0
   41.2060   35.5623   38.1038 H   0  0  0  0  0  0  0  0  0  0  0  0
   39.5031   35.9394   40.1791 H   0  0  0  0  0  0  0  0  0  0  0  0
   40.8399   35.4465   42.4739 H   0  0  0  0  0  0  0  0  0  0  0  0
   43.4348   32.7705   40.4649 H   0  0  0  0  0  0  0  0  0  0  0  0
   41.5145   32.2516   42.9039 H   0  0  0  0  0  0  0  0  0  0  0  0
   41.0029   31.5173   41.6257 H   0  0  0  0  0  0  0  0  0  0  0  0
   43.4288   30.1051   41.6569 H   0  0  0  0  0  0  0  0  0  0  0  0
   43.8179   30.6427   43.0618 H   0  0  0  0  0  0  0  0  0  0  0  0
  1  6  2  0
  2  3  2  0
  2  1  1  0
  3  4  1  0
  4  5  2  0
  6  5  1  0
  7 11  1  0
  7  2  1  0
  8  7  1  0
  9  8  2  0
  9 10  1  0
 10 11  2  0
 12 13  1  0
 12  3  1  0
 12 14  1  0
 13 14  1  0
  1 15  1  0
  5 16  1  0
  9 17  1  0
 10 18  1  0
 11 19  1  0
 12 20  1  0
 13 21  1  0
 13 22  1  0
 14 23  1  0
 14 24  1  0
M  ISO  8  15  14  16  14  17  14  18  14  19  14  20  13  21  13  22  13
M  ISO  2  23  13  24  13
M  END
>  <minimizedAffinity>  (1) 
-3.49720907

>  <minimizedRMSD>  (1) 
2.00353217

$$$$
