
     RDKit          3D

 23 25  0  0  0  0  0  0  0  0999 V2000
   45.3240   36.1520   43.1150 C   0  0  0  0  0  0  0  0  0  0  0  0
   45.8210   34.8370   42.9710 C   0  0  0  0  0  0  0  0  0  0  0  0
   45.6690   33.9450   44.0210 C   0  0  0  0  0  0  0  0  0  0  0  0
   45.0430   34.3750   45.1550 N   0  0  0  0  0  0  0  0  0  0  0  0
   44.5820   35.6310   45.2620 C   0  0  0  0  0  0  0  0  0  0  0  0
   44.7170   36.5080   44.2650 N   0  0  0  0  0  0  0  0  0  0  0  0
   46.4430   34.5380   41.7440 N   0  0  0  0  0  0  0  0  0  0  0  0
   47.6890   34.8340   41.5300 N   0  0  0  0  0  0  0  0  0  0  0  0
   48.0590   34.4490   40.2810 C   0  0  0  0  0  0  0  0  0  0  0  0
   46.9050   33.8830   39.7490 C   0  0  0  0  0  0  0  0  0  0  0  0
   45.8650   33.9400   40.6890 C   0  0  0  0  0  0  0  0  0  0  0  0
   46.1730   32.6280   43.8580 N   0  0  0  0  0  0  0  0  0  0  0  0
   47.3960   32.4540   44.4340 C   0  0  0  0  0  0  0  0  0  0  0  0
   47.7980   31.1750   44.2320 N   0  0  0  0  0  0  0  0  0  0  0  0
   46.7840   30.6070   43.5240 C   0  0  0  0  0  0  0  0  0  0  0  0
   45.8170   31.4820   43.3050 N   0  0  0  0  0  0  0  0  0  0  0  0
   45.4314   36.8786   42.2962 H   0  0  0  0  0  0  0  0  0  0  0  0
   44.0825   35.9441   46.1907 H   0  0  0  0  0  0  0  0  0  0  0  0
   49.0428   34.5592   39.8015 H   0  0  0  0  0  0  0  0  0  0  0  0
   46.8203   33.4538   38.7397 H   0  0  0  0  0  0  0  0  0  0  0  0
   44.8297   33.5825   40.5871 H   0  0  0  0  0  0  0  0  0  0  0  0
   47.9642   33.2254   44.9745 H   0  0  0  0  0  0  0  0  0  0  0  0
   46.7706   29.5621   43.1806 H   0  0  0  0  0  0  0  0  0  0  0  0
  1  6  2  0
  2  1  1  0
  2  3  2  0
  3  4  1  0
  4  5  2  0
  6  5  1  0
  7  2  1  0
  8  7  1  0
  9  8  2  0
 10  9  1  0
 10 11  2  0
 11  7  1  0
 12  3  1  0
 12 13  1  0
 14 13  2  0
 15 14  1  0
 16 15  2  0
 16 12  1  0
  1 17  1  0
  5 18  1  0
  9 19  1  0
 10 20  1  0
 11 21  1  0
 13 22  1  0
 15 23  1  0
M  ISO  7  17  14  18  14  19  14  20  14  21  14  22  14  23  14
M  END
>  <minimizedAffinity>  (1) 
-4.10359097

>  <minimizedRMSD>  (1) 
2.64836073

$$$$
