
     RDKit          3D

 26 27  0  0  0  0  0  0  0  0999 V2000
   43.9870   35.5530   42.0650 C   0  0  0  0  0  0  0  0  0  0  0  0
   43.1210   34.5620   41.5560 C   0  0  0  0  0  0  0  0  0  0  0  0
   43.3820   33.2110   41.7560 C   0  0  0  0  0  0  0  0  0  0  0  0
   44.5140   32.8960   42.4670 N   0  0  0  0  0  0  0  0  0  0  0  0
   45.3270   33.8470   42.9440 C   0  0  0  0  0  0  0  0  0  0  0  0
   45.0860   35.1660   42.7570 N   0  0  0  0  0  0  0  0  0  0  0  0
   41.9990   35.0600   40.8380 N   0  0  0  0  0  0  0  0  0  0  0  0
   42.0650   35.2080   39.5310 N   0  0  0  0  0  0  0  0  0  0  0  0
   40.8680   35.6990   39.0960 C   0  0  0  0  0  0  0  0  0  0  0  0
   40.0800   35.8320   40.2560 C   0  0  0  0  0  0  0  0  0  0  0  0
   40.8140   35.4210   41.3650 C   0  0  0  0  0  0  0  0  0  0  0  0
   42.4660   32.1950   41.2240 C   0  0  0  0  0  0  0  0  0  0  0  0
   41.0270   32.4570   41.5610 C   0  0  0  0  0  0  0  0  0  0  0  0
   42.5560   32.3260   39.6920 C   0  0  0  0  0  0  0  0  0  0  0  0
   43.7739   36.6200   41.9031 H   0  0  0  0  0  0  0  0  0  0  0  0
   46.2223   33.5459   43.5077 H   0  0  0  0  0  0  0  0  0  0  0  0
   40.5805   35.9392   38.0618 H   0  0  0  0  0  0  0  0  0  0  0  0
   39.0448   36.2032   40.2815 H   0  0  0  0  0  0  0  0  0  0  0  0
   40.5009   35.3970   42.4192 H   0  0  0  0  0  0  0  0  0  0  0  0
   42.7495   31.2180   41.6425 H   0  0  0  0  0  0  0  0  0  0  0  0
   40.9046   32.4793   42.6539 H   0  0  0  0  0  0  0  0  0  0  0  0
   40.7218   33.4255   41.1380 H   0  0  0  0  0  0  0  0  0  0  0  0
   40.4000   31.6582   41.1380 H   0  0  0  0  0  0  0  0  0  0  0  0
   43.1616   33.2074   39.4343 H   0  0  0  0  0  0  0  0  0  0  0  0
   43.0256   31.4235   39.2738 H   0  0  0  0  0  0  0  0  0  0  0  0
   41.5451   32.4407   39.2738 H   0  0  0  0  0  0  0  0  0  0  0  0
  1  6  2  0
  2  3  2  0
  2  1  1  0
  3  4  1  0
  4  5  2  0
  6  5  1  0
  7 11  1  0
  7  2  1  0
  8  7  1  0
  9  8  2  0
  9 10  1  0
 10 11  2  0
 12 13  1  0
 12  3  1  0
 14 12  1  0
  1 15  1  0
  5 16  1  0
  9 17  1  0
 10 18  1  0
 11 19  1  0
 12 20  1  0
 13 21  1  0
 13 22  1  0
 13 23  1  0
 14 24  1  0
 14 25  1  0
 14 26  1  0
M  ISO  8  15  14  16  14  17  14  18  14  19  14  20   8  21   8  22   8
M  ISO  4  23   8  24   8  25   8  26   8
M  END
>  <minimizedAffinity>  (1) 
-3.57544923

>  <minimizedRMSD>  (1) 
2.65948224

$$$$
