
     RDKit          3D

 20 21  0  0  0  0  0  0  0  0999 V2000
   44.1760   35.7210   42.0320 C   0  0  0  0  0  0  0  0  0  0  0  0
   43.2700   34.7330   41.6180 C   0  0  0  0  0  0  0  0  0  0  0  0
   43.5250   33.4080   41.9040 C   0  0  0  0  0  0  0  0  0  0  0  0
   44.6610   33.0890   42.5880 N   0  0  0  0  0  0  0  0  0  0  0  0
   45.5220   34.0580   42.9790 C   0  0  0  0  0  0  0  0  0  0  0  0
   45.2900   35.3500   42.7100 N   0  0  0  0  0  0  0  0  0  0  0  0
   42.1330   35.1830   40.9270 N   0  0  0  0  0  0  0  0  0  0  0  0
   42.0550   35.1950   39.6350 N   0  0  0  0  0  0  0  0  0  0  0  0
   40.8560   35.6750   39.2250 C   0  0  0  0  0  0  0  0  0  0  0  0
   40.1730   35.9680   40.4000 C   0  0  0  0  0  0  0  0  0  0  0  0
   40.9970   35.6510   41.4730 C   0  0  0  0  0  0  0  0  0  0  0  0
   42.5950   32.3400   41.4760 C   0  0  0  0  0  0  0  0  0  0  0  0
   42.9580   31.0810   41.8970 F   0  0  0  0  0  0  0  0  0  0  0  0
   41.2720   32.6180   41.7540 F   0  0  0  0  0  0  0  0  0  0  0  0
   42.6330   32.2600   40.0660 F   0  0  0  0  0  0  0  0  0  0  0  0
   43.9853   36.7813   41.8097 H   0  0  0  0  0  0  0  0  0  0  0  0
   46.4322   33.7784   43.5297 H   0  0  0  0  0  0  0  0  0  0  0  0
   40.5016   35.8042   38.1917 H   0  0  0  0  0  0  0  0  0  0  0  0
   39.1553   36.3799   40.4685 H   0  0  0  0  0  0  0  0  0  0  0  0
   40.7681   35.7600   42.5434 H   0  0  0  0  0  0  0  0  0  0  0  0
  1  6  2  0
  2  3  2  0
  2  1  1  0
  3  4  1  0
  4  5  2  0
  6  5  1  0
  7 11  1  0
  7  2  1  0
  8  7  1  0
  9  8  2  0
  9 10  1  0
 10 11  2  0
 12 14  1  0
 12 13  1  0
 12  3  1  0
 15 12  1  0
  1 16  1  0
  5 17  1  0
  9 18  1  0
 10 19  1  0
 11 20  1  0
M  ISO  5  16  14  17  14  18  14  19  14  20  14
M  END
>  <minimizedAffinity>  (1) 
-3.70847702

>  <minimizedRMSD>  (1) 
2.57078862

$$$$
