
     RDKit          3D

 20 21  0  0  0  0  0  0  0  0999 V2000
   44.3680   35.8840   42.3580 C   0  0  0  0  0  0  0  0  0  0  0  0
   43.6320   34.7680   41.9100 C   0  0  0  0  0  0  0  0  0  0  0  0
   44.0180   33.4900   42.2710 C   0  0  0  0  0  0  0  0  0  0  0  0
   45.1290   33.3670   43.0700 N   0  0  0  0  0  0  0  0  0  0  0  0
   45.8050   34.4410   43.4780 C   0  0  0  0  0  0  0  0  0  0  0  0
   45.4480   35.7010   43.1380 N   0  0  0  0  0  0  0  0  0  0  0  0
   42.5090   35.0900   41.0910 N   0  0  0  0  0  0  0  0  0  0  0  0
   42.6580   35.0730   39.7880 N   0  0  0  0  0  0  0  0  0  0  0  0
   41.4700   35.4090   39.2030 C   0  0  0  0  0  0  0  0  0  0  0  0
   40.5980   35.6280   40.2890 C   0  0  0  0  0  0  0  0  0  0  0  0
   41.2880   35.4180   41.4850 C   0  0  0  0  0  0  0  0  0  0  0  0
   43.2150   32.3700   41.7770 C   0  0  0  0  0  0  0  0  0  0  0  0
   44.0600   36.9002   42.0707 H   0  0  0  0  0  0  0  0  0  0  0  0
   46.6888   34.2971   44.1169 H   0  0  0  0  0  0  0  0  0  0  0  0
   41.2451   35.4902   38.1293 H   0  0  0  0  0  0  0  0  0  0  0  0
   39.5403   35.9186   40.2072 H   0  0  0  0  0  0  0  0  0  0  0  0
   40.9067   35.5047   42.5131 H   0  0  0  0  0  0  0  0  0  0  0  0
   42.8100   31.8051   42.6295 H   0  0  0  0  0  0  0  0  0  0  0  0
   42.3859   32.7550   41.1651 H   0  0  0  0  0  0  0  0  0  0  0  0
   43.8458   31.7084   41.1651 H   0  0  0  0  0  0  0  0  0  0  0  0
  1  6  2  0
  2  3  2  0
  2  1  1  0
  3  4  1  0
  4  5  2  0
  6  5  1  0
  7 11  1  0
  7  2  1  0
  8  7  1  0
  9  8  2  0
  9 10  1  0
 10 11  2  0
 12  3  1  0
  1 13  1  0
  5 14  1  0
  9 15  1  0
 10 16  1  0
 11 17  1  0
 12 18  1  0
 12 19  1  0
 12 20  1  0
M  ISO  8  13  14  14  14  15  14  16  14  17  14  18   8  19   8  20   8
M  END
>  <minimizedAffinity>  (1) 
-3.4352603

>  <minimizedRMSD>  (1) 
1.88004804

$$$$
