
     RDKit          3D

 37 39  0  0  1  0  0  0  0  0999 V2000
   46.2050   33.7300   44.8030 C   0  0  0  0  0  0  0  0  0  0  0  0
   46.9620   32.5440   45.0240 C   0  0  0  0  0  0  0  0  0  0  0  0
   47.8740   32.2090   44.0220 C   0  0  0  0  0  0  0  0  0  0  0  0
   47.9850   33.0040   42.9300 N   0  0  0  0  0  0  0  0  0  0  0  0
   47.2380   34.1230   42.7720 C   0  0  0  0  0  0  0  0  0  0  0  0
   46.3540   34.4980   43.6850 N   0  0  0  0  0  0  0  0  0  0  0  0
   46.6610   31.8830   46.2550 C   0  0  0  0  0  0  0  0  0  0  0  0
   47.1430   32.5360   47.3490 N   0  0  0  0  0  0  0  0  0  0  0  0
   46.9500   32.0560   48.6000 C   0  0  0  0  0  0  0  0  0  0  0  0
   46.2790   30.9180   48.8440 N   0  0  0  0  0  0  0  0  0  0  0  0
   45.7770   30.2290   47.7770 C   0  0  0  0  0  0  0  0  0  0  0  0
   45.0710   29.0500   47.8710 C   0  0  0  0  0  0  0  0  0  0  0  0
   44.5850   28.3900   46.7860 C   0  0  0  0  0  0  0  0  0  0  0  0
   44.7990   28.9080   45.5110 C   0  0  0  0  0  0  0  0  0  0  0  0
   45.5000   30.0820   45.3740 C   0  0  0  0  0  0  0  0  0  0  0  0
   45.9740   30.7180   46.5070 C   0  0  0  0  0  0  0  0  0  0  0  0
   47.4300   34.9260   41.5670 C   0  0  1  0  0  0  0  0  0  0  0  0
   48.8200   35.6230   41.5760 C   0  0  0  0  0  0  0  0  0  0  0  0
   47.3070   34.1920   40.2820 C   0  0  0  0  0  0  0  0  0  0  0  0
   48.2860   34.7220   39.4010 O   0  0  0  0  0  0  0  0  0  0  0  0
   48.1430   34.1480   38.1350 C   0  0  0  0  0  0  0  0  0  0  0  0
   46.8790   33.5490   38.1400 F   0  0  0  0  0  0  0  0  0  0  0  0
   49.0360   33.1070   38.0180 F   0  0  0  0  0  0  0  0  0  0  0  0
   48.3210   35.0210   37.1050 F   0  0  0  0  0  0  0  0  0  0  0  0
   45.4720   34.0388   45.5628 H   0  0  0  0  0  0  0  0  0  0  0  0
   48.4972   31.3076   44.1178 H   0  0  0  0  0  0  0  0  0  0  0  0
   47.3590   32.6205   49.4509 H   0  0  0  0  0  0  0  0  0  0  0  0
   44.8923   28.6231   48.8689 H   0  0  0  0  0  0  0  0  0  0  0  0
   44.0256   27.4516   46.9147 H   0  0  0  0  0  0  0  0  0  0  0  0
   44.4117   28.3839   44.6248 H   0  0  0  0  0  0  0  0  0  0  0  0
   45.6816   30.5100   44.3771 H   0  0  0  0  0  0  0  0  0  0  0  0
   46.6034   35.6506   41.6091 H   0  0  0  0  0  0  0  0  0  0  0  0
   49.1424   35.7847   42.6152 H   0  0  0  0  0  0  0  0  0  0  0  0
   49.5530   34.9858   41.0596 H   0  0  0  0  0  0  0  0  0  0  0  0
   48.7479   36.5916   41.0596 H   0  0  0  0  0  0  0  0  0  0  0  0
   47.4858   33.1186   40.4424 H   0  0  0  0  0  0  0  0  0  0  0  0
   46.2978   34.3088   39.8604 H   0  0  0  0  0  0  0  0  0  0  0  0
  1  2  2  0
  2  7  1  0
  3  2  1  0
  4  3  2  0
  5  4  1  0
  5  6  2  0
  6  1  1  0
  7 16  1  0
  7  8  2  0
  8  9  1  0
  9 10  2  0
 11 12  2  0
 11 10  1  0
 13 12  1  0
 14 13  2  0
 15 14  1  0
 15 16  2  0
 16 11  1  0
 17 18  1  0
 17  5  1  0
 19 17  1  0
 20 19  1  0
 21 22  1  0
 21 20  1  0
 23 21  1  0
 24 21  1  0
  1 25  1  0
  3 26  1  0
  9 27  1  0
 12 28  1  0
 13 29  1  0
 14 30  1  0
 15 31  1  0
 17 32  1  6
 18 33  1  0
 18 34  1  0
 18 35  1  0
 19 36  1  0
 19 37  1  0
M  ISO  8  25  14  26  14  27  14  28  14  29  14  30  14  31  14  32   8
M  ISO  5  33   8  34   8  35   8  36   8  37   8
M  END
>  <minimizedAffinity>  (1) 
-5.78604603

>  <minimizedRMSD>  (1) 
8.28396893

$$$$
