
     RDKit          3D

 38 41  0  0  0  0  0  0  0  0999 V2000
   44.5730   35.7180   42.7230 C   0  0  0  0  0  0  0  0  0  0  0  0
   44.9610   34.4030   42.4640 C   0  0  0  0  0  0  0  0  0  0  0  0
   45.2550   33.5970   43.5600 C   0  0  0  0  0  0  0  0  0  0  0  0
   45.1500   34.1240   44.8200 N   0  0  0  0  0  0  0  0  0  0  0  0
   44.7740   35.3890   45.0100 C   0  0  0  0  0  0  0  0  0  0  0  0
   44.4870   36.1780   43.9780 N   0  0  0  0  0  0  0  0  0  0  0  0
   45.6560   32.2490   43.3080 N   0  0  0  0  0  0  0  0  0  0  0  0
   46.9860   31.9490   43.4040 C   0  0  0  0  0  0  0  0  0  0  0  0
   47.3560   30.6540   43.1570 C   0  0  0  0  0  0  0  0  0  0  0  0
   46.4410   29.6720   42.8220 C   0  0  0  0  0  0  0  0  0  0  0  0
   46.8500   28.4990   42.6100 O   0  0  0  0  0  0  0  0  0  0  0  0
   45.1260   30.0060   42.7360 N   0  0  0  0  0  0  0  0  0  0  0  0
   44.7770   31.2760   42.9800 C   0  0  0  0  0  0  0  0  0  0  0  0
   43.5610   31.5410   42.8910 O   0  0  0  0  0  0  0  0  0  0  0  0
   48.8150   30.3270   43.2690 C   0  0  0  0  0  0  0  0  0  0  0  0
   45.0280   34.0010   41.1300 N   0  0  0  0  0  0  0  0  0  0  0  0
   46.1640   33.6520   40.5840 N   0  0  0  0  0  0  0  0  0  0  0  0
   45.9530   33.3020   39.2880 C   0  0  0  0  0  0  0  0  0  0  0  0
   44.5960   33.4620   39.0830 C   0  0  0  0  0  0  0  0  0  0  0  0
   44.0160   33.9140   40.2780 C   0  0  0  0  0  0  0  0  0  0  0  0
   42.6000   34.2140   40.4180 C   0  0  0  0  0  0  0  0  0  0  0  0
   42.0220   35.2320   39.6850 C   0  0  0  0  0  0  0  0  0  0  0  0
   40.6970   35.6060   39.7340 C   0  0  0  0  0  0  0  0  0  0  0  0
   39.8900   34.9220   40.5690 N   0  0  0  0  0  0  0  0  0  0  0  0
   40.4160   33.9110   41.3130 C   0  0  0  0  0  0  0  0  0  0  0  0
   41.7170   33.5950   41.2180 N   0  0  0  0  0  0  0  0  0  0  0  0
   44.3340   36.3873   41.8834 H   0  0  0  0  0  0  0  0  0  0  0  0
   44.7001   35.7855   46.0334 H   0  0  0  0  0  0  0  0  0  0  0  0
   47.7285   32.7162   43.6688 H   0  0  0  0  0  0  0  0  0  0  0  0
   44.4167   29.3010   42.4897 H   0  0  0  0  0  0  0  0  0  0  0  0
   49.0962   30.2640   44.3306 H   0  0  0  0  0  0  0  0  0  0  0  0
   49.0132   29.3622   42.7793 H   0  0  0  0  0  0  0  0  0  0  0  0
   49.4060   31.1150   42.7793 H   0  0  0  0  0  0  0  0  0  0  0  0
   46.7028   32.9635   38.5578 H   0  0  0  0  0  0  0  0  0  0  0  0
   44.0607   33.2678   38.1418 H   0  0  0  0  0  0  0  0  0  0  0  0
   42.6770   35.7933   39.0024 H   0  0  0  0  0  0  0  0  0  0  0  0
   40.3127   36.4307   39.1158 H   0  0  0  0  0  0  0  0  0  0  0  0
   39.7678   33.3467   41.9996 H   0  0  0  0  0  0  0  0  0  0  0  0
  1  6  2  0
  2  1  1  0
  2  3  2  0
  3  4  1  0
  4  5  2  0
  6  5  1  0
  7  8  1  0
  7  3  1  0
  9 15  1  0
  9  8  2  0
 10  9  1  0
 11 10  2  0
 12 10  1  0
 12 13  1  0
 13  7  1  0
 14 13  2  0
 16  2  1  0
 17 16  1  0
 18 17  2  0
 19 18  1  0
 19 20  2  0
 20 21  1  0
 20 16  1  0
 21 26  2  0
 22 23  2  0
 22 21  1  0
 23 24  1  0
 24 25  2  0
 26 25  1  0
  1 27  1  0
  5 28  1  0
  8 29  1  0
 12 30  1  0
 15 31  1  0
 15 32  1  0
 15 33  1  0
 18 34  1  0
 19 35  1  0
 22 36  1  0
 23 37  1  0
 25 38  1  0
M  ISO  8  27  14  28  14  29  14  30   9  31   8  32   8  33   8  34  14
M  ISO  4  35  14  36  14  37  14  38  14
M  END
>  <minimizedAffinity>  (1) 
-4.99237537

>  <minimizedRMSD>  (1) 
5.41542435

$$$$
