
     RDKit          3D

 35 38  0  0  0  0  0  0  0  0999 V2000
   42.8940   35.5250   41.4840 C   0  0  0  0  0  0  0  0  0  0  0  0
   42.9350   34.6470   40.3950 C   0  0  0  0  0  0  0  0  0  0  0  0
   43.8770   33.6430   40.4050 C   0  0  0  0  0  0  0  0  0  0  0  0
   44.7360   33.5390   41.4700 N   0  0  0  0  0  0  0  0  0  0  0  0
   44.6630   34.3990   42.4900 C   0  0  0  0  0  0  0  0  0  0  0  0
   43.7540   35.3790   42.4950 N   0  0  0  0  0  0  0  0  0  0  0  0
   43.9130   32.7500   39.2900 N   0  0  0  0  0  0  0  0  0  0  0  0
   44.6080   33.1120   38.1950 C   0  0  0  0  0  0  0  0  0  0  0  0
   44.6250   32.2330   37.1400 C   0  0  0  0  0  0  0  0  0  0  0  0
   43.9680   31.0180   37.1690 C   0  0  0  0  0  0  0  0  0  0  0  0
   44.0260   30.2640   36.1650 O   0  0  0  0  0  0  0  0  0  0  0  0
   43.2840   30.6860   38.2720 N   0  0  0  0  0  0  0  0  0  0  0  0
   43.2630   31.5440   39.3140 C   0  0  0  0  0  0  0  0  0  0  0  0
   42.6160   31.1990   40.3270 O   0  0  0  0  0  0  0  0  0  0  0  0
   45.4040   32.6540   35.9290 C   0  0  0  0  0  0  0  0  0  0  0  0
   41.9940   34.8680   39.3670 N   0  0  0  0  0  0  0  0  0  0  0  0
   42.2600   35.6710   38.3740 N   0  0  0  0  0  0  0  0  0  0  0  0
   41.2050   35.7120   37.5260 C   0  0  0  0  0  0  0  0  0  0  0  0
   40.2580   34.8540   38.0930 C   0  0  0  0  0  0  0  0  0  0  0  0
   40.7710   34.3180   39.2690 C   0  0  0  0  0  0  0  0  0  0  0  0
   40.1470   33.3950   40.1720 C   0  0  0  0  0  0  0  0  0  0  0  0
   40.0950   33.6030   41.5010 N   0  0  0  0  0  0  0  0  0  0  0  0
   39.4790   32.6230   42.0880 O   0  0  0  0  0  0  0  0  0  0  0  0
   39.1190   31.7630   41.1660 C   0  0  0  0  0  0  0  0  0  0  0  0
   39.5330   32.2360   39.9530 N   0  0  0  0  0  0  0  0  0  0  0  0
   42.1521   36.3368   41.5072 H   0  0  0  0  0  0  0  0  0  0  0  0
   45.3593   34.2993   43.3357 H   0  0  0  0  0  0  0  0  0  0  0  0
   45.1408   34.0732   38.1474 H   0  0  0  0  0  0  0  0  0  0  0  0
   42.7811   29.7886   38.3243 H   0  0  0  0  0  0  0  0  0  0  0  0
   46.3309   33.1549   36.2452 H   0  0  0  0  0  0  0  0  0  0  0  0
   45.6532   31.7677   35.3269 H   0  0  0  0  0  0  0  0  0  0  0  0
   44.7991   33.3480   35.3269 H   0  0  0  0  0  0  0  0  0  0  0  0
   41.1134   36.2924   36.5961 H   0  0  0  0  0  0  0  0  0  0  0  0
   39.2640   34.6372   37.6748 H   0  0  0  0  0  0  0  0  0  0  0  0
   38.5766   30.8219   41.3395 H   0  0  0  0  0  0  0  0  0  0  0  0
  1  6  2  0
  2  3  2  0
  2  1  1  0
  3  4  1  0
  4  5  2  0
  5  6  1  0
  7 13  1  0
  7  3  1  0
  8  7  1  0
  9 10  1  0
  9  8  2  0
 10 12  1  0
 11 10  2  0
 12 13  1  0
 13 14  2  0
 15  9  1  0
 16  2  1  0
 17 16  1  0
 18 19  1  0
 18 17  2  0
 19 20  2  0
 20 16  1  0
 20 21  1  0
 21 22  2  0
 22 23  1  0
 24 23  1  0
 25 21  1  0
 25 24  2  0
  1 26  1  0
  5 27  1  0
  8 28  1  0
 12 29  1  0
 15 30  1  0
 15 31  1  0
 15 32  1  0
 18 33  1  0
 19 34  1  0
 24 35  1  0
M  ISO  8  26  14  27  14  28  14  29   9  30   8  31   8  32   8  33  14
M  ISO  2  34  14  35  14
M  END
>  <minimizedAffinity>  (1) 
-4.84722567

>  <minimizedRMSD>  (1) 
3.61537361

$$$$
