
     RDKit          3D

 42 45  0  0  0  0  0  0  0  0999 V2000
   46.4830   33.3800   39.2530 C   0  0  0  0  0  0  0  0  0  0  0  0
   45.3750   33.1090   40.0630 C   0  0  0  0  0  0  0  0  0  0  0  0
   44.9090   31.7960   40.0780 C   0  0  0  0  0  0  0  0  0  0  0  0
   45.5400   30.8470   39.3180 N   0  0  0  0  0  0  0  0  0  0  0  0
   46.5950   31.1660   38.5620 C   0  0  0  0  0  0  0  0  0  0  0  0
   47.0620   32.4150   38.5280 N   0  0  0  0  0  0  0  0  0  0  0  0
   43.7760   31.5060   40.9020 N   0  0  0  0  0  0  0  0  0  0  0  0
   42.5490   31.4800   40.3060 C   0  0  0  0  0  0  0  0  0  0  0  0
   41.4740   31.2020   41.1170 C   0  0  0  0  0  0  0  0  0  0  0  0
   41.5960   30.9550   42.4820 C   0  0  0  0  0  0  0  0  0  0  0  0
   40.5660   30.7140   43.1320 O   0  0  0  0  0  0  0  0  0  0  0  0
   42.8360   30.9950   43.0210 N   0  0  0  0  0  0  0  0  0  0  0  0
   43.8850   31.2660   42.2260 C   0  0  0  0  0  0  0  0  0  0  0  0
   45.0060   31.2910   42.7690 O   0  0  0  0  0  0  0  0  0  0  0  0
   40.1220   31.1700   40.4460 C   0  0  0  0  0  0  0  0  0  0  0  0
   44.8240   34.1710   40.7800 N   0  0  0  0  0  0  0  0  0  0  0  0
   43.6630   34.6600   40.4890 N   0  0  0  0  0  0  0  0  0  0  0  0
   43.3740   35.6790   41.3500 C   0  0  0  0  0  0  0  0  0  0  0  0
   44.4640   35.7660   42.1960 C   0  0  0  0  0  0  0  0  0  0  0  0
   45.3780   34.7940   41.8130 C   0  0  0  0  0  0  0  0  0  0  0  0
   46.6230   34.6360   42.4720 N   0  0  0  0  0  0  0  0  0  0  0  0
   47.9240   35.1840   42.1400 C   0  0  0  0  0  0  0  0  0  0  0  0
   48.9320   34.0870   42.1760 C   0  0  0  0  0  0  0  0  0  0  0  0
   48.2540   33.0610   43.0610 C   0  0  0  0  0  0  0  0  0  0  0  0
   47.1350   33.9400   43.6240 C   0  0  0  0  0  0  0  0  0  0  0  0
   46.8851   34.4030   39.2112 H   0  0  0  0  0  0  0  0  0  0  0  0
   47.0852   30.3874   37.9592 H   0  0  0  0  0  0  0  0  0  0  0  0
   42.4258   31.6719   39.2299 H   0  0  0  0  0  0  0  0  0  0  0  0
   42.9742   30.8202   44.0266 H   0  0  0  0  0  0  0  0  0  0  0  0
   39.3328   31.1513   41.2121 H   0  0  0  0  0  0  0  0  0  0  0  0
   40.0028   32.0656   39.8185 H   0  0  0  0  0  0  0  0  0  0  0  0
   40.0453   30.2698   39.8185 H   0  0  0  0  0  0  0  0  0  0  0  0
   42.4660   36.2996   41.3671 H   0  0  0  0  0  0  0  0  0  0  0  0
   44.5854   36.4787   43.0251 H   0  0  0  0  0  0  0  0  0  0  0  0
   48.1957   35.9596   42.8712 H   0  0  0  0  0  0  0  0  0  0  0  0
   47.8952   35.6315   41.1356 H   0  0  0  0  0  0  0  0  0  0  0  0
   49.1199   33.6843   41.1697 H   0  0  0  0  0  0  0  0  0  0  0  0
   49.9189   34.4050   42.5434 H   0  0  0  0  0  0  0  0  0  0  0  0
   47.8611   32.2117   42.4828 H   0  0  0  0  0  0  0  0  0  0  0  0
   48.9000   32.5777   43.8087 H   0  0  0  0  0  0  0  0  0  0  0  0
   47.5312   34.6498   44.3651 H   0  0  0  0  0  0  0  0  0  0  0  0
   46.3607   33.3569   44.1440 H   0  0  0  0  0  0  0  0  0  0  0  0
  1  2  2  0
  2  3  1  0
  2 16  1  0
  3  7  1  0
  4  3  2  0
  5  4  1  0
  6  5  2  0
  6  1  1  0
  7 13  1  0
  8  7  1  0
  8  9  2  0
  9 10  1  0
 10 12  1  0
 10 11  2  0
 13 14  2  0
 13 12  1  0
 15  9  1  0
 16 20  1  0
 17 16  1  0
 17 18  2  0
 18 19  1  0
 20 19  2  0
 20 21  1  0
 21 25  1  0
 22 23  1  0
 22 21  1  0
 23 24  1  0
 24 25  1  0
  1 26  1  0
  5 27  1  0
  8 28  1  0
 12 29  1  0
 15 30  1  0
 15 31  1  0
 15 32  1  0
 18 33  1  0
 19 34  1  0
 22 35  1  0
 22 36  1  0
 23 37  1  0
 23 38  1  0
 24 39  1  0
 24 40  1  0
 25 41  1  0
 25 42  1  0
M  ISO  8  26  14  27  14  28  14  29   9  30   8  31   8  32   8  33  14
M  ISO  8  34  14  35  13  36  13  37  13  38  13  39  13  40  13  41  13
M  ISO  1  42  13
M  END
>  <minimizedAffinity>  (1) 
-4.82577467

>  <minimizedRMSD>  (1) 
4.87027311

$$$$
