
     RDKit          3D

 42 44  0  0  0  0  0  0  0  0999 V2000
   44.1490   34.7590   40.5180 C   0  0  0  0  0  0  0  0  0  0  0  0
   45.0430   34.0680   41.3370 C   0  0  0  0  0  0  0  0  0  0  0  0
   44.5300   33.0210   42.0900 C   0  0  0  0  0  0  0  0  0  0  0  0
   43.2020   32.7060   42.0060 N   0  0  0  0  0  0  0  0  0  0  0  0
   42.3880   33.4050   41.2000 C   0  0  0  0  0  0  0  0  0  0  0  0
   42.8520   34.4170   40.4660 N   0  0  0  0  0  0  0  0  0  0  0  0
   45.4370   32.3240   42.9470 N   0  0  0  0  0  0  0  0  0  0  0  0
   45.6440   32.8280   44.2010 C   0  0  0  0  0  0  0  0  0  0  0  0
   46.5170   32.1450   45.0070 C   0  0  0  0  0  0  0  0  0  0  0  0
   47.1780   30.9890   44.6010 C   0  0  0  0  0  0  0  0  0  0  0  0
   47.9570   30.4280   45.3980 O   0  0  0  0  0  0  0  0  0  0  0  0
   46.9360   30.5300   43.3450 N   0  0  0  0  0  0  0  0  0  0  0  0
   46.0820   31.2040   42.5630 C   0  0  0  0  0  0  0  0  0  0  0  0
   45.8930   30.7450   41.4230 O   0  0  0  0  0  0  0  0  0  0  0  0
   46.7430   32.7050   46.3870 C   0  0  0  0  0  0  0  0  0  0  0  0
   46.3680   34.4970   41.3300 N   0  0  0  0  0  0  0  0  0  0  0  0
   46.8200   35.2490   42.3050 N   0  0  0  0  0  0  0  0  0  0  0  0
   48.1400   35.5220   42.0730 C   0  0  0  0  0  0  0  0  0  0  0  0
   48.4480   34.8800   40.8850 C   0  0  0  0  0  0  0  0  0  0  0  0
   47.2980   34.2300   40.4240 C   0  0  0  0  0  0  0  0  0  0  0  0
   47.3460   33.5110   39.1750 C   0  0  0  0  0  0  0  0  0  0  0  0
   48.1790   32.2260   39.4250 C   0  0  0  0  0  0  0  0  0  0  0  0
   48.0080   34.1510   38.0290 C   0  0  0  0  0  0  0  0  0  0  0  0
   45.9660   32.9820   38.8440 C   0  0  0  0  0  0  0  0  0  0  0  0
   44.5129   35.5971   39.9054 H   0  0  0  0  0  0  0  0  0  0  0  0
   41.3221   33.1392   41.1440 H   0  0  0  0  0  0  0  0  0  0  0  0
   45.1337   33.7391   44.5468 H   0  0  0  0  0  0  0  0  0  0  0  0
   47.4013   29.6783   43.0000 H   0  0  0  0  0  0  0  0  0  0  0  0
   46.4424   31.9602   47.1387 H   0  0  0  0  0  0  0  0  0  0  0  0
   47.8087   32.9457   46.5150 H   0  0  0  0  0  0  0  0  0  0  0  0
   46.1429   33.6180   46.5150 H   0  0  0  0  0  0  0  0  0  0  0  0
   48.8150   36.1247   42.6984 H   0  0  0  0  0  0  0  0  0  0  0  0
   49.4296   34.8810   40.3885 H   0  0  0  0  0  0  0  0  0  0  0  0
   48.2850   32.0626   40.5076 H   0  0  0  0  0  0  0  0  0  0  0  0
   47.6676   31.3637   38.9723 H   0  0  0  0  0  0  0  0  0  0  0  0
   49.1749   32.3408   38.9723 H   0  0  0  0  0  0  0  0  0  0  0  0
   48.7544   34.8726   38.3927 H   0  0  0  0  0  0  0  0  0  0  0  0
   48.5068   33.3839   37.4184 H   0  0  0  0  0  0  0  0  0  0  0  0
   47.2582   34.6754   37.4184 H   0  0  0  0  0  0  0  0  0  0  0  0
   45.4203   32.7728   39.7759 H   0  0  0  0  0  0  0  0  0  0  0  0
   45.4162   33.7331   38.2579 H   0  0  0  0  0  0  0  0  0  0  0  0
   46.0592   32.0559   38.2579 H   0  0  0  0  0  0  0  0  0  0  0  0
  1  2  2  0
  2  3  1  0
  3  7  1  0
  4  3  2  0
  5  4  1  0
  6  1  1  0
  6  5  2  0
  7  8  1  0
  8  9  2  0
  9 15  1  0
 10  9  1  0
 10 11  2  0
 12 10  1  0
 13  7  1  0
 13 12  1  0
 14 13  2  0
 16  2  1  0
 16 17  1  0
 18 17  2  0
 19 18  1  0
 20 19  2  0
 20 16  1  0
 21 22  1  0
 21 20  1  0
 23 21  1  0
 24 21  1  0
  1 25  1  0
  5 26  1  0
  8 27  1  0
 12 28  1  0
 15 29  1  0
 15 30  1  0
 15 31  1  0
 18 32  1  0
 19 33  1  0
 22 34  1  0
 22 35  1  0
 22 36  1  0
 23 37  1  0
 23 38  1  0
 23 39  1  0
 24 40  1  0
 24 41  1  0
 24 42  1  0
M  ISO  8  25  14  26  14  27  14  28   9  29   8  30   8  31   8  32  14
M  ISO  8  33  14  34   8  35   8  36   8  37   8  38   8  39   8  40   8
M  ISO  2  41   8  42   8
M  END
>  <minimizedAffinity>  (1) 
-4.80569267

>  <minimizedRMSD>  (1) 
7.14648867

$$$$
