
     RDKit          3D

 37 40  0  0  0  0  0  0  0  0999 V2000
   42.7490   35.4840   41.3630 C   0  0  0  0  0  0  0  0  0  0  0  0
   42.7930   34.6440   40.2410 C   0  0  0  0  0  0  0  0  0  0  0  0
   43.6900   33.5790   40.2830 C   0  0  0  0  0  0  0  0  0  0  0  0
   44.4760   33.4000   41.3940 N   0  0  0  0  0  0  0  0  0  0  0  0
   44.3930   34.2290   42.4290 C   0  0  0  0  0  0  0  0  0  0  0  0
   43.5430   35.2580   42.4220 N   0  0  0  0  0  0  0  0  0  0  0  0
   43.7510   32.7180   39.1460 N   0  0  0  0  0  0  0  0  0  0  0  0
   44.5450   33.0900   38.0980 C   0  0  0  0  0  0  0  0  0  0  0  0
   44.5880   32.2550   37.0160 C   0  0  0  0  0  0  0  0  0  0  0  0
   43.8630   31.0620   36.9530 C   0  0  0  0  0  0  0  0  0  0  0  0
   43.9580   30.3560   35.9290 O   0  0  0  0  0  0  0  0  0  0  0  0
   43.0900   30.7360   38.0200 N   0  0  0  0  0  0  0  0  0  0  0  0
   43.0560   31.5620   39.0720 C   0  0  0  0  0  0  0  0  0  0  0  0
   42.3300   31.2150   40.0250 O   0  0  0  0  0  0  0  0  0  0  0  0
   45.4640   32.6740   35.8680 C   0  0  0  0  0  0  0  0  0  0  0  0
   41.9440   34.9400   39.1730 N   0  0  0  0  0  0  0  0  0  0  0  0
   42.2880   35.8040   38.2580 N   0  0  0  0  0  0  0  0  0  0  0  0
   41.2970   35.9110   37.3380 C   0  0  0  0  0  0  0  0  0  0  0  0
   40.3050   35.0300   37.7710 C   0  0  0  0  0  0  0  0  0  0  0  0
   40.7450   34.4150   38.9610 C   0  0  0  0  0  0  0  0  0  0  0  0
   39.9620   33.4590   39.7010 C   0  0  0  0  0  0  0  0  0  0  0  0
   39.6800   33.2420   40.9860 C   0  0  0  0  0  0  0  0  0  0  0  0
   38.8730   32.2410   41.3840 C   0  0  0  0  0  0  0  0  0  0  0  0
   38.3430   31.4370   40.3790 C   0  0  0  0  0  0  0  0  0  0  0  0
   39.0580   32.1790   38.7880 S   0  0  0  0  0  0  0  0  0  0  0  0
   42.0559   36.3381   41.3757 H   0  0  0  0  0  0  0  0  0  0  0  0
   45.0357   34.0645   43.3064 H   0  0  0  0  0  0  0  0  0  0  0  0
   45.1262   34.0236   38.1237 H   0  0  0  0  0  0  0  0  0  0  0  0
   42.5382   29.8663   38.0198 H   0  0  0  0  0  0  0  0  0  0  0  0
   46.3919   33.1178   36.2578 H   0  0  0  0  0  0  0  0  0  0  0  0
   45.7080   31.7951   35.2532 H   0  0  0  0  0  0  0  0  0  0  0  0
   44.9329   33.4156   35.2532 H   0  0  0  0  0  0  0  0  0  0  0  0
   41.2791   36.5527   36.4448 H   0  0  0  0  0  0  0  0  0  0  0  0
   39.3434   34.8466   37.2692 H   0  0  0  0  0  0  0  0  0  0  0  0
   40.1216   33.9031   41.7462 H   0  0  0  0  0  0  0  0  0  0  0  0
   38.6447   32.0677   42.4460 H   0  0  0  0  0  0  0  0  0  0  0  0
   37.6684   30.5745   40.4834 H   0  0  0  0  0  0  0  0  0  0  0  0
  1  6  2  0
  2  3  2  0
  2  1  1  0
  3  4  1  0
  4  5  2  0
  6  5  1  0
  7  3  1  0
  8  7  1  0
  9  8  2  0
 10  9  1  0
 10 12  1  0
 11 10  2  0
 12 13  1  0
 13  7  1  0
 13 14  2  0
 15  9  1  0
 16  2  1  0
 17 16  1  0
 18 19  1  0
 18 17  2  0
 19 20  2  0
 20 16  1  0
 20 21  1  0
 21 22  2  0
 22 23  1  0
 24 23  2  0
 25 21  1  0
 25 24  1  0
  1 26  1  0
  5 27  1  0
  8 28  1  0
 12 29  1  0
 15 30  1  0
 15 31  1  0
 15 32  1  0
 18 33  1  0
 19 34  1  0
 22 35  1  0
 23 36  1  0
 24 37  1  0
M  ISO  8  26  14  27  14  28  14  29   9  30   8  31   8  32   8  33  14
M  ISO  4  34  14  35  14  36  14  37  14
M  END
>  <minimizedAffinity>  (1) 
-4.80177021

>  <minimizedRMSD>  (1) 
3.83018994

$$$$
