
     RDKit          3D

 32 34  0  0  0  0  0  0  0  0999 V2000
   43.7740   34.2140   42.0290 C   0  0  0  0  0  0  0  0  0  0  0  0
   42.6970   33.5420   41.4480 C   0  0  0  0  0  0  0  0  0  0  0  0
   42.6850   32.1680   41.4990 C   0  0  0  0  0  0  0  0  0  0  0  0
   43.7220   31.5140   42.1130 N   0  0  0  0  0  0  0  0  0  0  0  0
   44.7330   32.1990   42.6560 C   0  0  0  0  0  0  0  0  0  0  0  0
   44.7620   33.5330   42.6170 N   0  0  0  0  0  0  0  0  0  0  0  0
   41.5860   31.4800   40.9050 N   0  0  0  0  0  0  0  0  0  0  0  0
   41.5860   31.3040   39.5570 C   0  0  0  0  0  0  0  0  0  0  0  0
   40.5340   30.6470   38.9940 C   0  0  0  0  0  0  0  0  0  0  0  0
   39.4660   30.1530   39.7570 C   0  0  0  0  0  0  0  0  0  0  0  0
   38.5410   29.5610   39.1660 O   0  0  0  0  0  0  0  0  0  0  0  0
   39.5040   30.3460   41.0830 N   0  0  0  0  0  0  0  0  0  0  0  0
   40.5440   30.9970   41.6390 C   0  0  0  0  0  0  0  0  0  0  0  0
   40.5370   31.1540   42.8770 O   0  0  0  0  0  0  0  0  0  0  0  0
   40.5480   30.4610   37.5060 C   0  0  0  0  0  0  0  0  0  0  0  0
   41.6930   34.3380   40.8460 N   0  0  0  0  0  0  0  0  0  0  0  0
   41.8880   34.8820   39.6710 N   0  0  0  0  0  0  0  0  0  0  0  0
   40.7760   35.5900   39.3250 C   0  0  0  0  0  0  0  0  0  0  0  0
   39.8950   35.4280   40.3850 C   0  0  0  0  0  0  0  0  0  0  0  0
   40.4950   34.6230   41.3540 C   0  0  0  0  0  0  0  0  0  0  0  0
   39.9400   34.2220   42.5740 N   0  0  0  0  0  0  0  0  0  0  0  0
   43.8096   35.3131   42.0025 H   0  0  0  0  0  0  0  0  0  0  0  0
   45.5551   31.6543   43.1433 H   0  0  0  0  0  0  0  0  0  0  0  0
   42.4130   31.6818   38.9378 H   0  0  0  0  0  0  0  0  0  0  0  0
   38.7382   29.9966   41.6766 H   0  0  0  0  0  0  0  0  0  0  0  0
   40.6287   29.3894   37.2712 H   0  0  0  0  0  0  0  0  0  0  0  0
   39.6172   30.8612   37.0777 H   0  0  0  0  0  0  0  0  0  0  0  0
   41.4084   30.9960   37.0777 H   0  0  0  0  0  0  0  0  0  0  0  0
   40.6119   36.1666   38.4027 H   0  0  0  0  0  0  0  0  0  0  0  0
   38.8871   35.8636   40.4506 H   0  0  0  0  0  0  0  0  0  0  0  0
   38.9904   34.5259   42.8325 H   0  0  0  0  0  0  0  0  0  0  0  0
   40.4810   33.6228   43.2137 H   0  0  0  0  0  0  0  0  0  0  0  0
  1  6  2  0
  2  3  2  0
  2  1  1  0
  3  4  1  0
  4  5  2  0
  6  5  1  0
  7  3  1  0
  7 13  1  0
  8  7  1  0
  9  8  2  0
  9 10  1  0
 10 12  1  0
 11 10  2  0
 12 13  1  0
 13 14  2  0
 15  9  1  0
 16 20  1  0
 16  2  1  0
 17 16  1  0
 18 17  2  0
 18 19  1  0
 19 20  2  0
 20 21  1  0
  1 22  1  0
  5 23  1  0
  8 24  1  0
 12 25  1  0
 15 26  1  0
 15 27  1  0
 15 28  1  0
 18 29  1  0
 19 30  1  0
 21 31  1  0
 21 32  1  0
M  ISO  8  22  14  23  14  24  14  25   9  26   8  27   8  28   8  29  14
M  ISO  1  30  14
M  END
>  <minimizedAffinity>  (1) 
-4.75868988

>  <minimizedRMSD>  (1) 
0.660863221

$$$$
