
     RDKit          3D

 31 33  0  0  0  0  0  0  0  0999 V2000
   43.6230   34.3270   42.0320 C   0  0  0  0  0  0  0  0  0  0  0  0
   42.5950   33.6080   41.4180 C   0  0  0  0  0  0  0  0  0  0  0  0
   42.6460   32.2320   41.4830 C   0  0  0  0  0  0  0  0  0  0  0  0
   43.6930   31.6430   42.1420 N   0  0  0  0  0  0  0  0  0  0  0  0
   44.6500   32.3620   42.7130 C   0  0  0  0  0  0  0  0  0  0  0  0
   44.6230   33.6970   42.6630 N   0  0  0  0  0  0  0  0  0  0  0  0
   41.6000   31.4960   40.8580 N   0  0  0  0  0  0  0  0  0  0  0  0
   41.6960   31.2670   39.5140 C   0  0  0  0  0  0  0  0  0  0  0  0
   40.6780   30.5580   38.9390 C   0  0  0  0  0  0  0  0  0  0  0  0
   39.5880   30.0770   39.6410 C   0  0  0  0  0  0  0  0  0  0  0  0
   38.7060   29.4420   39.0380 O   0  0  0  0  0  0  0  0  0  0  0  0
   39.5340   30.3250   40.9560 N   0  0  0  0  0  0  0  0  0  0  0  0
   40.5300   31.0260   41.5470 C   0  0  0  0  0  0  0  0  0  0  0  0
   40.4410   31.2340   42.7760 O   0  0  0  0  0  0  0  0  0  0  0  0
   40.7980   30.3120   37.4520 C   0  0  0  0  0  0  0  0  0  0  0  0
   41.5850   34.3520   40.7780 N   0  0  0  0  0  0  0  0  0  0  0  0
   41.7770   34.8680   39.6070 N   0  0  0  0  0  0  0  0  0  0  0  0
   40.6550   35.5340   39.2140 C   0  0  0  0  0  0  0  0  0  0  0  0
   39.7610   35.3740   40.2620 C   0  0  0  0  0  0  0  0  0  0  0  0
   40.3630   34.6150   41.2640 C   0  0  0  0  0  0  0  0  0  0  0  0
   39.8660   34.2080   42.4740 O   0  0  0  0  0  0  0  0  0  0  0  0
   43.6114   35.4264   41.9970 H   0  0  0  0  0  0  0  0  0  0  0  0
   45.4751   31.8538   43.2335 H   0  0  0  0  0  0  0  0  0  0  0  0
   42.5491   31.6345   38.9247 H   0  0  0  0  0  0  0  0  0  0  0  0
   38.7387   29.9841   41.5148 H   0  0  0  0  0  0  0  0  0  0  0  0
   41.2743   29.3356   37.2791 H   0  0  0  0  0  0  0  0  0  0  0  0
   39.7963   30.3169   36.9975 H   0  0  0  0  0  0  0  0  0  0  0  0
   41.4107   31.1045   36.9975 H   0  0  0  0  0  0  0  0  0  0  0  0
   40.4938   36.0789   38.2722 H   0  0  0  0  0  0  0  0  0  0  0  0
   38.7397   35.7812   40.2969 H   0  0  0  0  0  0  0  0  0  0  0  0
   38.9455   34.4569   42.7401 H   0  0  0  0  0  0  0  0  0  0  0  0
  1  6  2  0
  2  3  2  0
  2  1  1  0
  3  4  1  0
  4  5  2  0
  6  5  1  0
  7  3  1  0
  7 13  1  0
  8  7  1  0
  9  8  2  0
  9 10  1  0
 10 12  1  0
 11 10  2  0
 12 13  1  0
 13 14  2  0
 15  9  1  0
 16 20  1  0
 16  2  1  0
 17 16  1  0
 18 17  2  0
 18 19  1  0
 19 20  2  0
 20 21  1  0
  1 22  1  0
  5 23  1  0
  8 24  1  0
 12 25  1  0
 15 26  1  0
 15 27  1  0
 15 28  1  0
 18 29  1  0
 19 30  1  0
 21 31  1  0
M  ISO  8  22  14  23  14  24  14  25   9  26   8  27   8  28   8  29  14
M  ISO  2  30  14  31   3
M  END
>  <minimizedAffinity>  (1) 
-4.79511452

>  <minimizedRMSD>  (1) 
0.68566674

$$$$
