
     RDKit          3D

 36 39  0  0  0  0  0  0  0  0999 V2000
   44.5750   35.6980   42.6730 C   0  0  0  0  0  0  0  0  0  0  0  0
   45.0150   34.3930   42.4410 C   0  0  0  0  0  0  0  0  0  0  0  0
   45.3360   33.6230   43.5490 C   0  0  0  0  0  0  0  0  0  0  0  0
   45.2090   34.1720   44.8030 N   0  0  0  0  0  0  0  0  0  0  0  0
   44.7880   35.4180   44.9700 C   0  0  0  0  0  0  0  0  0  0  0  0
   44.4690   36.1870   43.9120 N   0  0  0  0  0  0  0  0  0  0  0  0
   45.7900   32.2880   43.3270 N   0  0  0  0  0  0  0  0  0  0  0  0
   47.1310   32.0590   43.3840 C   0  0  0  0  0  0  0  0  0  0  0  0
   47.5490   30.7660   43.1660 C   0  0  0  0  0  0  0  0  0  0  0  0
   46.6610   29.7170   42.8940 C   0  0  0  0  0  0  0  0  0  0  0  0
   47.1240   28.5740   42.7080 O   0  0  0  0  0  0  0  0  0  0  0  0
   45.3370   30.0060   42.8490 N   0  0  0  0  0  0  0  0  0  0  0  0
   44.9440   31.2680   43.0640 C   0  0  0  0  0  0  0  0  0  0  0  0
   43.7140   31.4760   43.0140 O   0  0  0  0  0  0  0  0  0  0  0  0
   49.0300   30.5110   43.2370 C   0  0  0  0  0  0  0  0  0  0  0  0
   45.0970   33.9680   41.1090 N   0  0  0  0  0  0  0  0  0  0  0  0
   46.2440   33.7010   40.5600 N   0  0  0  0  0  0  0  0  0  0  0  0
   46.0570   33.2970   39.2740 C   0  0  0  0  0  0  0  0  0  0  0  0
   44.6850   33.3440   39.0940 C   0  0  0  0  0  0  0  0  0  0  0  0
   44.0750   33.7790   40.2820 C   0  0  0  0  0  0  0  0  0  0  0  0
   42.6490   34.0140   40.5290 C   0  0  0  0  0  0  0  0  0  0  0  0
   42.0590   35.3190   40.0360 C   0  0  0  0  0  0  0  0  0  0  0  0
   40.2800   35.0360   40.6310 S   0  0  0  0  0  0  0  0  0  0  0  0
   40.6870   33.3330   41.3680 C   0  0  0  0  0  0  0  0  0  0  0  0
   41.8910   33.1280   41.1590 N   0  0  0  0  0  0  0  0  0  0  0  0
   44.3101   36.3369   41.8176 H   0  0  0  0  0  0  0  0  0  0  0  0
   44.6982   35.8289   45.9864 H   0  0  0  0  0  0  0  0  0  0  0  0
   47.8457   32.8683   43.5941 H   0  0  0  0  0  0  0  0  0  0  0  0
   44.6458   29.2680   42.6529 H   0  0  0  0  0  0  0  0  0  0  0  0
   49.3427   30.4572   44.2902 H   0  0  0  0  0  0  0  0  0  0  0  0
   49.2627   29.5596   42.7363 H   0  0  0  0  0  0  0  0  0  0  0  0
   49.5675   31.3298   42.7363 H   0  0  0  0  0  0  0  0  0  0  0  0
   46.8230   33.0001   38.5425 H   0  0  0  0  0  0  0  0  0  0  0  0
   44.1557   33.0818   38.1661 H   0  0  0  0  0  0  0  0  0  0  0  0
   42.5174   36.1642   39.5016 H   0  0  0  0  0  0  0  0  0  0  0  0
   39.9873   32.6577   41.8822 H   0  0  0  0  0  0  0  0  0  0  0  0
  1  6  2  0
  2  1  1  0
  2  3  2  0
  3  4  1  0
  4  5  2  0
  6  5  1  0
  7  8  1  0
  7  3  1  0
  9 15  1  0
  9  8  2  0
 10  9  1  0
 11 10  2  0
 12 10  1  0
 12 13  1  0
 13  7  1  0
 14 13  2  0
 16  2  1  0
 17 16  1  0
 18 17  2  0
 19 18  1  0
 19 20  2  0
 20 21  1  0
 20 16  1  0
 21 25  1  0
 22 21  2  0
 22 23  1  0
 23 24  1  0
 25 24  2  0
  1 26  1  0
  5 27  1  0
  8 28  1  0
 12 29  1  0
 15 30  1  0
 15 31  1  0
 15 32  1  0
 18 33  1  0
 19 34  1  0
 22 35  1  0
 24 36  1  0
M  ISO  8  26  14  27  14  28  14  29   9  30   8  31   8  32   8  33  14
M  ISO  3  34  14  35  14  36  14
M  END
>  <minimizedAffinity>  (1) 
-4.54490042

>  <minimizedRMSD>  (1) 
5.52139139

$$$$
