
     RDKit          3D

 33 35  0  0  0  0  0  0  0  0999 V2000
   43.9750   34.5810   41.2780 C   0  0  0  0  0  0  0  0  0  0  0  0
   42.8250   34.0330   40.6970 C   0  0  0  0  0  0  0  0  0  0  0  0
   42.4270   32.7790   41.1350 C   0  0  0  0  0  0  0  0  0  0  0  0
   43.1560   32.1380   42.0990 N   0  0  0  0  0  0  0  0  0  0  0  0
   44.2450   32.6990   42.6230 C   0  0  0  0  0  0  0  0  0  0  0  0
   44.6510   33.9010   42.2230 N   0  0  0  0  0  0  0  0  0  0  0  0
   41.2490   32.2180   40.5410 N   0  0  0  0  0  0  0  0  0  0  0  0
   41.3700   31.5990   39.3470 C   0  0  0  0  0  0  0  0  0  0  0  0
   40.2330   31.0720   38.8020 C   0  0  0  0  0  0  0  0  0  0  0  0
   38.9870   31.1450   39.4110 C   0  0  0  0  0  0  0  0  0  0  0  0
   37.9980   30.6380   38.8480 O   0  0  0  0  0  0  0  0  0  0  0  0
   38.9130   31.7760   40.6120 N   0  0  0  0  0  0  0  0  0  0  0  0
   40.0240   32.2920   41.1440 C   0  0  0  0  0  0  0  0  0  0  0  0
   39.9150   32.8700   42.2600 O   0  0  0  0  0  0  0  0  0  0  0  0
   40.3820   30.3820   37.4630 C   0  0  0  0  0  0  0  0  0  0  0  0
   42.1750   34.8030   39.7180 N   0  0  0  0  0  0  0  0  0  0  0  0
   42.5300   34.7280   38.4780 N   0  0  0  0  0  0  0  0  0  0  0  0
   41.7580   35.5620   37.7290 C   0  0  0  0  0  0  0  0  0  0  0  0
   40.8950   36.1500   38.6460 C   0  0  0  0  0  0  0  0  0  0  0  0
   41.1720   35.6560   39.9120 C   0  0  0  0  0  0  0  0  0  0  0  0
   40.4800   36.0310   41.1510 C   0  0  0  0  0  0  0  0  0  0  0  0
   44.3283   35.5731   40.9604 H   0  0  0  0  0  0  0  0  0  0  0  0
   44.8150   32.1619   43.3954 H   0  0  0  0  0  0  0  0  0  0  0  0
   42.3409   31.5223   38.8356 H   0  0  0  0  0  0  0  0  0  0  0  0
   38.0124   31.8553   41.1054 H   0  0  0  0  0  0  0  0  0  0  0  0
   40.6117   29.3181   37.6223 H   0  0  0  0  0  0  0  0  0  0  0  0
   39.4434   30.4736   36.8968 H   0  0  0  0  0  0  0  0  0  0  0  0
   41.1992   30.8528   36.8968 H   0  0  0  0  0  0  0  0  0  0  0  0
   41.8062   35.7321   36.6433 H   0  0  0  0  0  0  0  0  0  0  0  0
   40.1165   36.8892   38.4060 H   0  0  0  0  0  0  0  0  0  0  0  0
   41.0768   35.7076   42.0166 H   0  0  0  0  0  0  0  0  0  0  0  0
   40.3502   37.1229   41.1825 H   0  0  0  0  0  0  0  0  0  0  0  0
   39.4944   35.5436   41.1825 H   0  0  0  0  0  0  0  0  0  0  0  0
  1  6  2  0
  2  3  2  0
  2  1  1  0
  3  4  1  0
  4  5  2  0
  6  5  1  0
  7  3  1  0
  7 13  1  0
  8  7  1  0
  9  8  2  0
  9 10  1  0
 10 12  1  0
 11 10  2  0
 12 13  1  0
 13 14  2  0
 15  9  1  0
 16 20  1  0
 16  2  1  0
 17 16  1  0
 18 17  2  0
 18 19  1  0
 19 20  2  0
 20 21  1  0
  1 22  1  0
  5 23  1  0
  8 24  1  0
 12 25  1  0
 15 26  1  0
 15 27  1  0
 15 28  1  0
 18 29  1  0
 19 30  1  0
 21 31  1  0
 21 32  1  0
 21 33  1  0
M  ISO  8  22  14  23  14  24  14  25   9  26   8  27   8  28   8  29  14
M  ISO  4  30  14  31   8  32   8  33   8
M  END
>  <minimizedAffinity>  (1) 
-4.46264935

>  <minimizedRMSD>  (1) 
0.892083347

$$$$
