
     RDKit          3D

 41 44  0  0  1  0  0  0  0  0999 V2000
   48.6830   31.3940   43.2180 C   0  0  0  0  0  0  0  0  0  0  0  0
   47.9390   32.6060   43.3120 C   0  0  0  0  0  0  0  0  0  0  0  0
   47.0820   32.6950   44.4100 C   0  0  0  0  0  0  0  0  0  0  0  0
   46.9980   31.6730   45.2960 N   0  0  0  0  0  0  0  0  0  0  0  0
   47.7350   30.5460   45.1470 C   0  0  0  0  0  0  0  0  0  0  0  0
   48.5680   30.3920   44.1300 N   0  0  0  0  0  0  0  0  0  0  0  0
   48.1990   33.5380   42.2630 C   0  0  0  0  0  0  0  0  0  0  0  0
   48.8250   34.6680   42.6960 N   0  0  0  0  0  0  0  0  0  0  0  0
   49.1570   35.6710   41.8480 C   0  0  0  0  0  0  0  0  0  0  0  0
   48.8850   35.6020   40.5260 N   0  0  0  0  0  0  0  0  0  0  0  0
   48.2600   34.4890   40.0540 C   0  0  0  0  0  0  0  0  0  0  0  0
   47.9290   34.2940   38.7370 C   0  0  0  0  0  0  0  0  0  0  0  0
   47.3060   33.1700   38.2950 C   0  0  0  0  0  0  0  0  0  0  0  0
   46.9780   32.1590   39.1950 C   0  0  0  0  0  0  0  0  0  0  0  0
   47.2910   32.3150   40.5200 C   0  0  0  0  0  0  0  0  0  0  0  0
   47.9250   33.4790   40.9150 C   0  0  0  0  0  0  0  0  0  0  0  0
   47.5990   29.4890   46.1460 C   0  0  1  0  0  0  0  0  0  0  0  0
   48.5300   29.7410   47.3650 C   0  0  0  0  0  0  0  0  0  0  0  0
   46.2290   29.2830   46.6790 C   0  0  0  0  0  0  0  0  0  0  0  0
   46.2320   29.7370   48.0220 O   0  0  0  0  0  0  0  0  0  0  0  0
   45.1020   30.4860   48.3010 C   0  0  0  0  0  0  0  0  0  0  0  0
   45.1070   31.9610   48.1770 C   0  0  0  0  0  0  0  0  0  0  0  0
   45.2440   31.3440   49.5530 C   0  0  0  0  0  0  0  0  0  0  0  0
   49.3773   31.2641   42.3748 H   0  0  0  0  0  0  0  0  0  0  0  0
   46.4721   33.5986   44.5568 H   0  0  0  0  0  0  0  0  0  0  0  0
   49.6608   36.5643   42.2456 H   0  0  0  0  0  0  0  0  0  0  0  0
   48.1781   35.0798   38.0087 H   0  0  0  0  0  0  0  0  0  0  0  0
   47.0612   33.0589   37.2283 H   0  0  0  0  0  0  0  0  0  0  0  0
   46.4735   31.2458   38.8463 H   0  0  0  0  0  0  0  0  0  0  0  0
   47.0437   31.5325   41.2525 H   0  0  0  0  0  0  0  0  0  0  0  0
   47.8791   28.5829   45.5887 H   0  0  0  0  0  0  0  0  0  0  0  0
   47.9646   29.5879   48.2960 H   0  0  0  0  0  0  0  0  0  0  0  0
   49.3768   29.0397   47.3308 H   0  0  0  0  0  0  0  0  0  0  0  0
   48.9075   30.7736   47.3308 H   0  0  0  0  0  0  0  0  0  0  0  0
   45.5031   29.8599   46.0872 H   0  0  0  0  0  0  0  0  0  0  0  0
   45.9430   28.2222   46.6248 H   0  0  0  0  0  0  0  0  0  0  0  0
   44.4183   29.7235   47.8996 H   0  0  0  0  0  0  0  0  0  0  0  0
   45.9680   32.4680   47.7170 H   0  0  0  0  0  0  0  0  0  0  0  0
   44.4263   32.6990   47.7275 H   0  0  0  0  0  0  0  0  0  0  0  0
   44.4176   31.4114   50.2759 H   0  0  0  0  0  0  0  0  0  0  0  0
   45.9651   31.4166   50.3805 H   0  0  0  0  0  0  0  0  0  0  0  0
  1  2  2  0
  1  6  1  0
  2  3  1  0
  3  4  2  0
  5  4  1  0
  5 17  1  0
  6  5  2  0
  7  8  2  0
  7  2  1  0
  9  8  1  0
 10  9  2  0
 11 10  1  0
 11 16  2  0
 12 11  1  0
 13 12  2  0
 13 14  1  0
 14 15  2  0
 15 16  1  0
 16  7  1  0
 17 19  1  0
 17 18  1  0
 19 20  1  0
 20 21  1  0
 21 23  1  0
 22 21  1  0
 22 23  1  0
  1 24  1  0
  3 25  1  0
  9 26  1  0
 12 27  1  0
 13 28  1  0
 14 29  1  0
 15 30  1  0
 17 31  1  6
 18 32  1  0
 18 33  1  0
 18 34  1  0
 19 35  1  0
 19 36  1  0
 21 37  1  0
 22 38  1  0
 22 39  1  0
 23 40  1  0
 23 41  1  0
M  ISO  8  24  14  25  14  26  14  27  14  28  14  29  14  30  14  31   8
M  ISO  8  32   8  33   8  34   8  35   8  36   8  37  13  38  13  39  13
M  ISO  2  40  13  41  13
M  END
>  <minimizedAffinity>  (1) 
-4.80612135

>  <minimizedRMSD>  (1) 
2.78512406

$$$$
