
     RDKit          3D

 32 34  0  0  0  0  0  0  0  0999 V2000
   44.0420   34.2540   41.3180 C   0  0  0  0  0  0  0  0  0  0  0  0
   42.8940   33.7460   40.7000 C   0  0  0  0  0  0  0  0  0  0  0  0
   42.4620   32.4950   41.0980 C   0  0  0  0  0  0  0  0  0  0  0  0
   43.1640   31.8180   42.0630 N   0  0  0  0  0  0  0  0  0  0  0  0
   44.2500   32.3440   42.6190 C   0  0  0  0  0  0  0  0  0  0  0  0
   44.6880   33.5460   42.2580 N   0  0  0  0  0  0  0  0  0  0  0  0
   41.2970   31.9710   40.4740 N   0  0  0  0  0  0  0  0  0  0  0  0
   41.4150   31.4300   39.2310 C   0  0  0  0  0  0  0  0  0  0  0  0
   40.2730   30.9320   38.6530 C   0  0  0  0  0  0  0  0  0  0  0  0
   39.0360   30.9620   39.2760 C   0  0  0  0  0  0  0  0  0  0  0  0
   38.0560   30.4820   38.6630 O   0  0  0  0  0  0  0  0  0  0  0  0
   38.9610   31.5080   40.5080 N   0  0  0  0  0  0  0  0  0  0  0  0
   40.0760   31.9950   41.0760 C   0  0  0  0  0  0  0  0  0  0  0  0
   39.9550   32.4900   42.2160 O   0  0  0  0  0  0  0  0  0  0  0  0
   40.4290   30.3370   37.2740 C   0  0  0  0  0  0  0  0  0  0  0  0
   42.2770   34.5500   39.7270 N   0  0  0  0  0  0  0  0  0  0  0  0
   42.6810   34.5450   38.4990 N   0  0  0  0  0  0  0  0  0  0  0  0
   41.9360   35.3930   37.7590 C   0  0  0  0  0  0  0  0  0  0  0  0
   41.0170   35.9280   38.6670 C   0  0  0  0  0  0  0  0  0  0  0  0
   41.2450   35.3810   39.9270 C   0  0  0  0  0  0  0  0  0  0  0  0
   40.5090   35.6720   41.1470 C   0  0  0  0  0  0  0  0  0  0  0  0
   41.0210   35.6730   42.2980 O   0  0  0  0  0  0  0  0  0  0  0  0
   44.4199   35.2461   41.0300 H   0  0  0  0  0  0  0  0  0  0  0  0
   44.7942   31.7770   43.3887 H   0  0  0  0  0  0  0  0  0  0  0  0
   42.3838   31.3931   38.7113 H   0  0  0  0  0  0  0  0  0  0  0  0
   38.0604   31.5506   41.0059 H   0  0  0  0  0  0  0  0  0  0  0  0
   40.7071   29.2763   37.3616 H   0  0  0  0  0  0  0  0  0  0  0  0
   39.4780   30.4228   36.7279 H   0  0  0  0  0  0  0  0  0  0  0  0
   41.2156   30.8784   36.7279 H   0  0  0  0  0  0  0  0  0  0  0  0
   42.0304   35.6132   36.6854 H   0  0  0  0  0  0  0  0  0  0  0  0
   40.2370   36.6647   38.4242 H   0  0  0  0  0  0  0  0  0  0  0  0
   39.4378   35.9060   41.0593 H   0  0  0  0  0  0  0  0  0  0  0  0
  1  6  2  0
  2  3  2  0
  2  1  1  0
  3  4  1  0
  4  5  2  0
  6  5  1  0
  7 13  1  0
  7  3  1  0
  8  7  1  0
  9  8  2  0
  9 10  1  0
 10 12  1  0
 11 10  2  0
 12 13  1  0
 13 14  2  0
 15  9  1  0
 16 20  1  0
 16  2  1  0
 17 16  1  0
 18 17  2  0
 18 19  1  0
 19 20  2  0
 20 21  1  0
 21 22  2  0
  1 23  1  0
  5 24  1  0
  8 25  1  0
 12 26  1  0
 15 27  1  0
 15 28  1  0
 15 29  1  0
 18 30  1  0
 19 31  1  0
 21 32  1  0
M  ISO  8  23  14  24  14  25  14  26   9  27   8  28   8  29   8  30  14
M  ISO  2  31  14  32   6
M  END
>  <minimizedAffinity>  (1) 
-4.1553092

>  <minimizedRMSD>  (1) 
0.884945691

$$$$
