
     RDKit          3D

 48 51  0  0  0  0  0  0  0  0999 V2000
   44.3940   35.4450   42.1430 C   0  0  0  0  0  0  0  0  0  0  0  0
   44.5060   34.1140   41.7520 C   0  0  0  0  0  0  0  0  0  0  0  0
   44.8570   33.1900   42.7200 C   0  0  0  0  0  0  0  0  0  0  0  0
   45.0750   33.6220   44.0040 N   0  0  0  0  0  0  0  0  0  0  0  0
   44.9540   34.9070   44.3300 C   0  0  0  0  0  0  0  0  0  0  0  0
   44.6170   35.8130   43.4120 N   0  0  0  0  0  0  0  0  0  0  0  0
   44.9750   31.8250   42.3290 N   0  0  0  0  0  0  0  0  0  0  0  0
   46.1940   31.3590   41.9530 C   0  0  0  0  0  0  0  0  0  0  0  0
   46.2770   30.0500   41.5840 C   0  0  0  0  0  0  0  0  0  0  0  0
   45.1900   29.1950   41.5770 C   0  0  0  0  0  0  0  0  0  0  0  0
   45.3660   28.0100   41.2220 O   0  0  0  0  0  0  0  0  0  0  0  0
   43.9900   29.6970   41.9580 N   0  0  0  0  0  0  0  0  0  0  0  0
   43.9030   30.9820   42.3220 C   0  0  0  0  0  0  0  0  0  0  0  0
   42.7890   31.4010   42.6630 O   0  0  0  0  0  0  0  0  0  0  0  0
   47.6350   29.5460   41.1690 C   0  0  0  0  0  0  0  0  0  0  0  0
   44.2550   33.8110   40.4090 N   0  0  0  0  0  0  0  0  0  0  0  0
   45.2130   33.4350   39.6190 N   0  0  0  0  0  0  0  0  0  0  0  0
   44.7290   33.2010   38.3760 C   0  0  0  0  0  0  0  0  0  0  0  0
   43.3640   33.4740   38.4830 C   0  0  0  0  0  0  0  0  0  0  0  0
   43.0660   33.8670   39.7950 C   0  0  0  0  0  0  0  0  0  0  0  0
   41.7580   34.2350   40.3030 C   0  0  0  0  0  0  0  0  0  0  0  0
   41.3960   35.4400   40.4800 O   0  0  0  0  0  0  0  0  0  0  0  0
   40.8370   33.1240   40.6160 C   0  0  0  0  0  0  0  0  0  0  0  0
   41.1340   31.8970   39.7820 C   0  0  0  0  0  0  0  0  0  0  0  0
   40.0540   30.8770   39.8600 C   0  0  0  0  0  0  0  0  0  0  0  0
   39.2100   31.0940   41.0990 C   0  0  0  0  0  0  0  0  0  0  0  0
   38.4680   32.4230   40.9840 C   0  0  0  0  0  0  0  0  0  0  0  0
   39.3850   33.4850   40.3840 C   0  0  0  0  0  0  0  0  0  0  0  0
   44.1182   36.2066   41.3988 H   0  0  0  0  0  0  0  0  0  0  0  0
   45.1340   35.2245   45.3677 H   0  0  0  0  0  0  0  0  0  0  0  0
   47.0790   32.0123   41.9466 H   0  0  0  0  0  0  0  0  0  0  0  0
   43.1537   29.0958   41.9673 H   0  0  0  0  0  0  0  0  0  0  0  0
   48.2332   29.3240   42.0650 H   0  0  0  0  0  0  0  0  0  0  0  0
   47.5191   28.6310   40.5695 H   0  0  0  0  0  0  0  0  0  0  0  0
   48.1441   30.3151   40.5695 H   0  0  0  0  0  0  0  0  0  0  0  0
   45.2844   32.8712   37.4856 H   0  0  0  0  0  0  0  0  0  0  0  0
   42.6346   33.3931   37.6636 H   0  0  0  0  0  0  0  0  0  0  0  0
   40.9989   32.9145   41.6836 H   0  0  0  0  0  0  0  0  0  0  0  0
   42.0711   31.4459   40.1403 H   0  0  0  0  0  0  0  0  0  0  0  0
   41.2134   32.2185   38.7330 H   0  0  0  0  0  0  0  0  0  0  0  0
   39.4153   30.9567   38.9680 H   0  0  0  0  0  0  0  0  0  0  0  0
   40.5106   29.8775   39.9103 H   0  0  0  0  0  0  0  0  0  0  0  0
   38.4820   30.2749   41.1947 H   0  0  0  0  0  0  0  0  0  0  0  0
   39.8600   31.1130   41.9862 H   0  0  0  0  0  0  0  0  0  0  0  0
   37.5883   32.2938   40.3363 H   0  0  0  0  0  0  0  0  0  0  0  0
   38.1504   32.7461   41.9864 H   0  0  0  0  0  0  0  0  0  0  0  0
   39.1732   34.4553   40.8569 H   0  0  0  0  0  0  0  0  0  0  0  0
   39.2014   33.5430   39.3010 H   0  0  0  0  0  0  0  0  0  0  0  0
  1  6  2  0
  2  1  1  0
  2  3  2  0
  3  4  1  0
  4  5  2  0
  6  5  1  0
  7  3  1  0
  8  7  1  0
  9  8  2  0
 10  9  1  0
 10 12  1  0
 11 10  2  0
 12 13  1  0
 13  7  1  0
 13 14  2  0
 15  9  1  0
 16  2  1  0
 17 16  1  0
 18 19  1  0
 18 17  2  0
 19 20  2  0
 20 21  1  0
 20 16  1  0
 21 22  2  0
 21 23  1  0
 24 25  1  0
 24 23  1  0
 25 26  1  0
 27 26  1  0
 28 23  1  0
 28 27  1  0
  1 29  1  0
  5 30  1  0
  8 31  1  0
 12 32  1  0
 15 33  1  0
 15 34  1  0
 15 35  1  0
 18 36  1  0
 19 37  1  0
 23 38  1  0
 24 39  1  0
 24 40  1  0
 25 41  1  0
 25 42  1  0
 26 43  1  0
 26 44  1  0
 27 45  1  0
 27 46  1  0
 28 47  1  0
 28 48  1  0
M  ISO  8  29  14  30  14  31  14  32   9  33   8  34   8  35   8  36  14
M  ISO  8  37  14  38  13  39  13  40  13  41  13  42  13  43  13  44  13
M  ISO  4  45  13  46  13  47  13  48  13
M  END
>  <minimizedAffinity>  (1) 
-4.49988794

>  <minimizedRMSD>  (1) 
4.52709436

$$$$
