
     RDKit          3D

 39 42  0  0  0  0  0  0  0  0999 V2000
   47.3730   33.6260   38.6630 C   0  0  0  0  0  0  0  0  0  0  0  0
   46.5660   32.9610   39.6080 C   0  0  0  0  0  0  0  0  0  0  0  0
   47.0070   31.7530   40.0860 C   0  0  0  0  0  0  0  0  0  0  0  0
   48.2000   31.2510   39.6300 N   0  0  0  0  0  0  0  0  0  0  0  0
   48.9340   31.9090   38.7360 C   0  0  0  0  0  0  0  0  0  0  0  0
   48.5230   33.0850   38.2580 N   0  0  0  0  0  0  0  0  0  0  0  0
   46.1960   31.0900   41.0350 N   0  0  0  0  0  0  0  0  0  0  0  0
   45.0500   30.4940   40.6170 C   0  0  0  0  0  0  0  0  0  0  0  0
   44.2810   29.8570   41.5580 C   0  0  0  0  0  0  0  0  0  0  0  0
   44.6280   29.7990   42.8960 C   0  0  0  0  0  0  0  0  0  0  0  0
   43.8640   29.1950   43.6800 O   0  0  0  0  0  0  0  0  0  0  0  0
   45.7720   30.4000   43.2820 N   0  0  0  0  0  0  0  0  0  0  0  0
   46.5220   31.0230   42.3610 C   0  0  0  0  0  0  0  0  0  0  0  0
   47.5740   31.5660   42.7650 O   0  0  0  0  0  0  0  0  0  0  0  0
   43.0190   29.2080   41.0650 C   0  0  0  0  0  0  0  0  0  0  0  0
   45.3710   33.6020   39.9800 N   0  0  0  0  0  0  0  0  0  0  0  0
   44.2950   33.4820   39.2530 N   0  0  0  0  0  0  0  0  0  0  0  0
   43.2790   34.1810   39.8040 C   0  0  0  0  0  0  0  0  0  0  0  0
   43.8380   34.7490   40.9500 C   0  0  0  0  0  0  0  0  0  0  0  0
   45.1780   34.3800   41.0650 C   0  0  0  0  0  0  0  0  0  0  0  0
   46.1240   34.7420   42.0930 C   0  0  0  0  0  0  0  0  0  0  0  0
   47.3170   35.0470   41.8980 O   0  0  0  0  0  0  0  0  0  0  0  0
   45.6620   34.7580   43.4930 C   0  0  0  0  0  0  0  0  0  0  0  0
   45.9330   33.8380   44.5070 C   0  0  0  0  0  0  0  0  0  0  0  0
   45.3680   34.1040   45.7210 C   0  0  0  0  0  0  0  0  0  0  0  0
   44.5850   35.1940   45.9440 C   0  0  0  0  0  0  0  0  0  0  0  0
   44.6210   35.9990   44.2090 S   0  0  0  0  0  0  0  0  0  0  0  0
   47.0526   34.5969   38.2571 H   0  0  0  0  0  0  0  0  0  0  0  0
   49.8858   31.4806   38.3888 H   0  0  0  0  0  0  0  0  0  0  0  0
   44.7482   30.5209   39.5596 H   0  0  0  0  0  0  0  0  0  0  0  0
   46.0653   30.3808   44.2692 H   0  0  0  0  0  0  0  0  0  0  0  0
   42.4083   28.8940   41.9243 H   0  0  0  0  0  0  0  0  0  0  0  0
   42.4516   29.9261   40.4548 H   0  0  0  0  0  0  0  0  0  0  0  0
   43.2731   28.3287   40.4548 H   0  0  0  0  0  0  0  0  0  0  0  0
   42.2477   34.2799   39.4344 H   0  0  0  0  0  0  0  0  0  0  0  0
   43.2995   35.3943   41.6597 H   0  0  0  0  0  0  0  0  0  0  0  0
   46.5634   32.9525   44.3383 H   0  0  0  0  0  0  0  0  0  0  0  0
   45.5534   33.4086   46.5529 H   0  0  0  0  0  0  0  0  0  0  0  0
   44.0752   35.5203   46.8625 H   0  0  0  0  0  0  0  0  0  0  0  0
  1  2  2  0
  2 16  1  0
  2  3  1  0
  3  7  1  0
  4  3  2  0
  5  4  1  0
  6  1  1  0
  6  5  2  0
  7 13  1  0
  8  7  1  0
  8  9  2  0
  9 10  1  0
 10 12  1  0
 10 11  2  0
 13 14  2  0
 13 12  1  0
 15  9  1  0
 16 20  1  0
 17 18  2  0
 17 16  1  0
 18 19  1  0
 19 20  2  0
 20 21  1  0
 21 23  1  0
 22 21  2  0
 23 27  1  0
 23 24  2  0
 24 25  1  0
 25 26  2  0
 27 26  1  0
  1 28  1  0
  5 29  1  0
  8 30  1  0
 12 31  1  0
 15 32  1  0
 15 33  1  0
 15 34  1  0
 18 35  1  0
 19 36  1  0
 24 37  1  0
 25 38  1  0
 26 39  1  0
M  ISO  8  28  14  29  14  30  14  31   9  32   8  33   8  34   8  35  14
M  ISO  4  36  14  37  14  38  14  39  14
M  END
>  <minimizedAffinity>  (1) 
-4.41219568

>  <minimizedRMSD>  (1) 
6.11702442

$$$$
