
     RDKit          3D

 41 44  0  0  0  0  0  0  0  0999 V2000
   45.4430   34.9390   41.9210 C   0  0  0  0  0  0  0  0  0  0  0  0
   44.8680   33.7290   41.5200 C   0  0  0  0  0  0  0  0  0  0  0  0
   44.6260   32.7930   42.5140 C   0  0  0  0  0  0  0  0  0  0  0  0
   44.9550   33.0920   43.8150 N   0  0  0  0  0  0  0  0  0  0  0  0
   45.4970   34.2560   44.1390 C   0  0  0  0  0  0  0  0  0  0  0  0
   45.7420   35.1770   43.2030 N   0  0  0  0  0  0  0  0  0  0  0  0
   44.0420   31.5600   42.1200 N   0  0  0  0  0  0  0  0  0  0  0  0
   44.8550   30.5130   41.8320 C   0  0  0  0  0  0  0  0  0  0  0  0
   44.2710   29.3390   41.4560 C   0  0  0  0  0  0  0  0  0  0  0  0
   42.8910   29.1840   41.3600 C   0  0  0  0  0  0  0  0  0  0  0  0
   42.4490   28.0690   41.0070 O   0  0  0  0  0  0  0  0  0  0  0  0
   42.1190   30.2410   41.6530 N   0  0  0  0  0  0  0  0  0  0  0  0
   42.6900   31.3910   42.0210 C   0  0  0  0  0  0  0  0  0  0  0  0
   41.9280   32.3520   42.2860 O   0  0  0  0  0  0  0  0  0  0  0  0
   45.1990   28.1930   41.1410 C   0  0  0  0  0  0  0  0  0  0  0  0
   44.5870   33.5650   40.1590 N   0  0  0  0  0  0  0  0  0  0  0  0
   45.4130   32.9460   39.3750 N   0  0  0  0  0  0  0  0  0  0  0  0
   44.9230   32.9160   38.1140 C   0  0  0  0  0  0  0  0  0  0  0  0
   43.7010   33.5840   38.2030 C   0  0  0  0  0  0  0  0  0  0  0  0
   43.4840   34.0020   39.5180 C   0  0  0  0  0  0  0  0  0  0  0  0
   42.3430   34.7230   40.0310 C   0  0  0  0  0  0  0  0  0  0  0  0
   42.4210   35.5650   40.9540 O   0  0  0  0  0  0  0  0  0  0  0  0
   41.0100   34.5020   39.4820 C   0  0  0  0  0  0  0  0  0  0  0  0
   39.9600   34.2040   40.3460 C   0  0  0  0  0  0  0  0  0  0  0  0
   38.6620   33.9830   39.8710 C   0  0  0  0  0  0  0  0  0  0  0  0
   38.4090   34.0640   38.4970 C   0  0  0  0  0  0  0  0  0  0  0  0
   39.4730   34.3580   37.6990 C   0  0  0  0  0  0  0  0  0  0  0  0
   40.7430   34.5750   38.1450 N   0  0  0  0  0  0  0  0  0  0  0  0
   45.6538   35.7112   41.1665 H   0  0  0  0  0  0  0  0  0  0  0  0
   45.7479   34.4665   45.1891 H   0  0  0  0  0  0  0  0  0  0  0  0
   45.9489   30.6076   41.8994 H   0  0  0  0  0  0  0  0  0  0  0  0
   41.0934   30.1664   41.5946 H   0  0  0  0  0  0  0  0  0  0  0  0
   45.5610   27.7460   42.0786 H   0  0  0  0  0  0  0  0  0  0  0  0
   44.6585   27.4333   40.5573 H   0  0  0  0  0  0  0  0  0  0  0  0
   46.0545   28.5637   40.5573 H   0  0  0  0  0  0  0  0  0  0  0  0
   45.3833   32.4670   37.2215 H   0  0  0  0  0  0  0  0  0  0  0  0
   43.0117   33.7557   37.3631 H   0  0  0  0  0  0  0  0  0  0  0  0
   40.1548   34.1407   41.4268 H   0  0  0  0  0  0  0  0  0  0  0  0
   37.8476   33.7476   40.5719 H   0  0  0  0  0  0  0  0  0  0  0  0
   37.4033   33.8989   38.0830 H   0  0  0  0  0  0  0  0  0  0  0  0
   39.2946   34.4253   36.6156 H   0  0  0  0  0  0  0  0  0  0  0  0
  1  6  2  0
  2  1  1  0
  2  3  2  0
  3  4  1  0
  4  5  2  0
  6  5  1  0
  7  3  1  0
  8  7  1  0
  9  8  2  0
 10  9  1  0
 10 12  1  0
 11 10  2  0
 12 13  1  0
 13  7  1  0
 13 14  2  0
 15  9  1  0
 16  2  1  0
 17 16  1  0
 18 19  1  0
 18 17  2  0
 19 20  2  0
 20 21  1  0
 20 16  1  0
 21 22  2  0
 23 21  1  0
 23 24  2  0
 25 24  1  0
 26 25  2  0
 27 28  2  0
 27 26  1  0
 28 23  1  0
  1 29  1  0
  5 30  1  0
  8 31  1  0
 12 32  1  0
 15 33  1  0
 15 34  1  0
 15 35  1  0
 18 36  1  0
 19 37  1  0
 24 38  1  0
 25 39  1  0
 26 40  1  0
 27 41  1  0
M  ISO  8  29  14  30  14  31  14  32   9  33   8  34   8  35   8  36  14
M  ISO  5  37  14  38  14  39  14  40  14  41  14
M  END
>  <minimizedAffinity>  (1) 
-4.87815714

>  <minimizedRMSD>  (1) 
3.56570721

$$$$
