
     RDKit          3D

 39 42  0  0  0  0  0  0  0  0999 V2000
   43.0090   35.6200   41.4580 C   0  0  0  0  0  0  0  0  0  0  0  0
   42.7900   34.6530   40.4720 C   0  0  0  0  0  0  0  0  0  0  0  0
   43.5050   33.4710   40.5540 C   0  0  0  0  0  0  0  0  0  0  0  0
   44.3930   33.3120   41.6000 N   0  0  0  0  0  0  0  0  0  0  0  0
   44.5670   34.2540   42.5100 C   0  0  0  0  0  0  0  0  0  0  0  0
   43.8960   35.3970   42.4550 N   0  0  0  0  0  0  0  0  0  0  0  0
   43.2840   32.4890   39.5570 N   0  0  0  0  0  0  0  0  0  0  0  0
   43.9990   32.5590   38.4060 C   0  0  0  0  0  0  0  0  0  0  0  0
   43.7670   31.5960   37.4580 C   0  0  0  0  0  0  0  0  0  0  0  0
   42.8460   30.5760   37.6310 C   0  0  0  0  0  0  0  0  0  0  0  0
   42.7040   29.7470   36.7100 O   0  0  0  0  0  0  0  0  0  0  0  0
   42.1540   30.5410   38.7890 N   0  0  0  0  0  0  0  0  0  0  0  0
   42.3760   31.4810   39.7240 C   0  0  0  0  0  0  0  0  0  0  0  0
   41.7170   31.4080   40.7710 O   0  0  0  0  0  0  0  0  0  0  0  0
   44.5690   31.6920   36.1900 C   0  0  0  0  0  0  0  0  0  0  0  0
   41.8540   34.9600   39.4700 N   0  0  0  0  0  0  0  0  0  0  0  0
   42.2150   35.5180   38.3640 N   0  0  0  0  0  0  0  0  0  0  0  0
   41.1530   35.7150   37.5620 C   0  0  0  0  0  0  0  0  0  0  0  0
   40.0760   35.2120   38.2970 C   0  0  0  0  0  0  0  0  0  0  0  0
   40.5380   34.7340   39.5130 C   0  0  0  0  0  0  0  0  0  0  0  0
   39.7370   34.1250   40.5760 C   0  0  0  0  0  0  0  0  0  0  0  0
   40.0360   34.1830   41.8040 O   0  0  0  0  0  0  0  0  0  0  0  0
   38.4870   33.3920   40.1650 C   0  0  0  0  0  0  0  0  0  0  0  0
   38.6390   32.1460   39.3640 C   0  0  0  0  0  0  0  0  0  0  0  0
   38.2570   32.0470   40.8340 C   0  0  0  0  0  0  0  0  0  0  0  0
   42.4555   36.5699   41.4228 H   0  0  0  0  0  0  0  0  0  0  0  0
   45.2821   34.0872   43.3290 H   0  0  0  0  0  0  0  0  0  0  0  0
   44.7367   33.3579   38.2398 H   0  0  0  0  0  0  0  0  0  0  0  0
   41.4599   29.7985   38.9555 H   0  0  0  0  0  0  0  0  0  0  0  0
   45.6331   31.8194   36.4379 H   0  0  0  0  0  0  0  0  0  0  0  0
   44.4371   30.7717   35.6022 H   0  0  0  0  0  0  0  0  0  0  0  0
   44.2236   32.5552   35.6022 H   0  0  0  0  0  0  0  0  0  0  0  0
   41.1362   36.1674   36.5595 H   0  0  0  0  0  0  0  0  0  0  0  0
   39.0279   35.1978   37.9633 H   0  0  0  0  0  0  0  0  0  0  0  0
   37.9035   34.3153   40.0341 H   0  0  0  0  0  0  0  0  0  0  0  0
   37.8997   31.8997   38.5876 H   0  0  0  0  0  0  0  0  0  0  0  0
   39.4388   31.7186   38.7414 H   0  0  0  0  0  0  0  0  0  0  0  0
   38.9796   31.6635   41.5693 H   0  0  0  0  0  0  0  0  0  0  0  0
   37.4387   31.5824   41.4037 H   0  0  0  0  0  0  0  0  0  0  0  0
  1  6  2  0
  2  3  2  0
  2  1  1  0
  3  4  1  0
  4  5  2  0
  6  5  1  0
  7 13  1  0
  7  3  1  0
  8  7  1  0
  9 10  1  0
  9  8  2  0
 10 12  1  0
 11 10  2  0
 12 13  1  0
 13 14  2  0
 15  9  1  0
 16 20  1  0
 16  2  1  0
 17 16  1  0
 18 19  1  0
 18 17  2  0
 19 20  2  0
 20 21  1  0
 21 22  2  0
 23 21  1  0
 23 25  1  0
 24 23  1  0
 24 25  1  0
  1 26  1  0
  5 27  1  0
  8 28  1  0
 12 29  1  0
 15 30  1  0
 15 31  1  0
 15 32  1  0
 18 33  1  0
 19 34  1  0
 23 35  1  0
 24 36  1  0
 24 37  1  0
 25 38  1  0
 25 39  1  0
M  ISO  8  26  14  27  14  28  14  29   9  30   8  31   8  32   8  33  14
M  ISO  6  34  14  35  13  36  13  37  13  38  13  39  13
M  END
>  <minimizedAffinity>  (1) 
-5.03197718

>  <minimizedRMSD>  (1) 
2.66554427

$$$$
