
     RDKit          3D

 40 43  0  0  0  0  0  0  0  0999 V2000
   47.0890   34.1160   39.5900 C   0  0  0  0  0  0  0  0  0  0  0  0
   46.6780   33.6960   40.8570 C   0  0  0  0  0  0  0  0  0  0  0  0
   47.3360   32.6110   41.4090 C   0  0  0  0  0  0  0  0  0  0  0  0
   48.3440   32.0090   40.6990 N   0  0  0  0  0  0  0  0  0  0  0  0
   48.6940   32.4470   39.5020 C   0  0  0  0  0  0  0  0  0  0  0  0
   48.0780   33.4920   38.9430 N   0  0  0  0  0  0  0  0  0  0  0  0
   46.9200   32.1760   42.7080 N   0  0  0  0  0  0  0  0  0  0  0  0
   46.0060   31.1810   42.7820 C   0  0  0  0  0  0  0  0  0  0  0  0
   45.6240   30.7830   44.0480 C   0  0  0  0  0  0  0  0  0  0  0  0
   46.1300   31.3490   45.2000 C   0  0  0  0  0  0  0  0  0  0  0  0
   45.7230   30.9210   46.3050 O   0  0  0  0  0  0  0  0  0  0  0  0
   47.0440   32.3450   45.0800 N   0  0  0  0  0  0  0  0  0  0  0  0
   47.4130   32.7300   43.8510 C   0  0  0  0  0  0  0  0  0  0  0  0
   48.2580   33.6510   43.7790 O   0  0  0  0  0  0  0  0  0  0  0  0
   44.6080   29.6750   44.1190 C   0  0  0  0  0  0  0  0  0  0  0  0
   45.6270   34.4110   41.4680 N   0  0  0  0  0  0  0  0  0  0  0  0
   45.8640   35.3170   42.3480 N   0  0  0  0  0  0  0  0  0  0  0  0
   44.6930   35.8520   42.7820 C   0  0  0  0  0  0  0  0  0  0  0  0
   43.7150   35.1720   42.0700 C   0  0  0  0  0  0  0  0  0  0  0  0
   44.3120   34.2480   41.2280 C   0  0  0  0  0  0  0  0  0  0  0  0
   43.6570   33.3280   40.3090 C   0  0  0  0  0  0  0  0  0  0  0  0
   43.9540   32.1210   40.1660 O   0  0  0  0  0  0  0  0  0  0  0  0
   42.5710   33.8550   39.4890 C   0  0  0  0  0  0  0  0  0  0  0  0
   41.4220   33.0860   39.3100 C   0  0  0  0  0  0  0  0  0  0  0  0
   40.3870   33.5750   38.5370 C   0  0  0  0  0  0  0  0  0  0  0  0
   40.4690   34.7900   37.9480 N   0  0  0  0  0  0  0  0  0  0  0  0
   41.5980   35.5340   38.1300 C   0  0  0  0  0  0  0  0  0  0  0  0
   42.6310   35.0650   38.8910 N   0  0  0  0  0  0  0  0  0  0  0  0
   46.5904   34.9747   39.1167 H   0  0  0  0  0  0  0  0  0  0  0  0
   49.5058   31.9427   38.9574 H   0  0  0  0  0  0  0  0  0  0  0  0
   45.5881   30.7125   41.8788 H   0  0  0  0  0  0  0  0  0  0  0  0
   47.4451   32.7949   45.9152 H   0  0  0  0  0  0  0  0  0  0  0  0
   44.3935   29.4411   45.1722 H   0  0  0  0  0  0  0  0  0  0  0  0
   43.6820   29.9940   43.6183 H   0  0  0  0  0  0  0  0  0  0  0  0
   45.0059   28.7800   43.6183 H   0  0  0  0  0  0  0  0  0  0  0  0
   44.5518   36.6461   43.5300 H   0  0  0  0  0  0  0  0  0  0  0  0
   42.6318   35.3408   42.1604 H   0  0  0  0  0  0  0  0  0  0  0  0
   41.3401   32.0956   39.7816 H   0  0  0  0  0  0  0  0  0  0  0  0
   39.4812   32.9665   38.3981 H   0  0  0  0  0  0  0  0  0  0  0  0
   41.6775   36.5243   37.6579 H   0  0  0  0  0  0  0  0  0  0  0  0
  1  2  2  0
  2  3  1  0
  2 16  1  0
  3  7  1  0
  4  3  2  0
  5  4  1  0
  6  5  2  0
  6  1  1  0
  7  8  1  0
  7 13  1  0
  8  9  2  0
  9 15  1  0
  9 10  1  0
 10 11  2  0
 12 10  1  0
 13 12  1  0
 14 13  2  0
 16 17  1  0
 17 18  2  0
 19 18  1  0
 20 16  1  0
 20 19  2  0
 21 20  1  0
 22 21  2  0
 23 21  1  0
 24 23  2  0
 25 24  1  0
 26 27  1  0
 26 25  2  0
 27 28  2  0
 28 23  1  0
  1 29  1  0
  5 30  1  0
  8 31  1  0
 12 32  1  0
 15 33  1  0
 15 34  1  0
 15 35  1  0
 18 36  1  0
 19 37  1  0
 24 38  1  0
 25 39  1  0
 27 40  1  0
M  ISO  8  29  14  30  14  31  14  32   9  33   8  34   8  35   8  36  14
M  ISO  4  37  14  38  14  39  14  40  14
M  END
>  <minimizedAffinity>  (1) 
-4.96588326

>  <minimizedRMSD>  (1) 
6.13803959

$$$$
