
     RDKit          3D

 47 50  0  0  0  0  0  0  0  0999 V2000
   43.6640   35.0170   40.4840 C   0  0  0  0  0  0  0  0  0  0  0  0
   44.5060   34.1670   41.2050 C   0  0  0  0  0  0  0  0  0  0  0  0
   43.9110   33.1410   41.9160 C   0  0  0  0  0  0  0  0  0  0  0  0
   42.5450   33.0120   41.8790 N   0  0  0  0  0  0  0  0  0  0  0  0
   41.7920   33.8480   41.1770 C   0  0  0  0  0  0  0  0  0  0  0  0
   42.3330   34.8420   40.4850 N   0  0  0  0  0  0  0  0  0  0  0  0
   44.7520   32.2750   42.6490 N   0  0  0  0  0  0  0  0  0  0  0  0
   45.1740   32.6660   43.8900 C   0  0  0  0  0  0  0  0  0  0  0  0
   45.9880   31.8050   44.5770 C   0  0  0  0  0  0  0  0  0  0  0  0
   46.3880   30.5850   44.0750 C   0  0  0  0  0  0  0  0  0  0  0  0
   47.1330   29.8620   44.7740 O   0  0  0  0  0  0  0  0  0  0  0  0
   45.9510   30.2310   42.8470 N   0  0  0  0  0  0  0  0  0  0  0  0
   45.1590   31.0590   42.1670 C   0  0  0  0  0  0  0  0  0  0  0  0
   44.7810   30.6970   41.0430 O   0  0  0  0  0  0  0  0  0  0  0  0
   46.4360   32.2660   45.9420 C   0  0  0  0  0  0  0  0  0  0  0  0
   45.8880   34.4210   41.1500 N   0  0  0  0  0  0  0  0  0  0  0  0
   46.4610   35.1700   42.0290 N   0  0  0  0  0  0  0  0  0  0  0  0
   47.7820   35.2620   41.7640 C   0  0  0  0  0  0  0  0  0  0  0  0
   47.9650   34.4770   40.6100 C   0  0  0  0  0  0  0  0  0  0  0  0
   46.7460   33.9450   40.2260 C   0  0  0  0  0  0  0  0  0  0  0  0
   46.4950   33.0830   39.0940 C   0  0  0  0  0  0  0  0  0  0  0  0
   45.6320   33.3100   38.1970 O   0  0  0  0  0  0  0  0  0  0  0  0
   47.2000   31.8680   38.8560 N   0  0  0  0  0  0  0  0  0  0  0  0
   47.0940   31.2720   37.5340 C   0  0  0  0  0  0  0  0  0  0  0  0
   48.5160   30.8650   37.1850 C   0  0  0  0  0  0  0  0  0  0  0  0
   48.8590   29.6620   38.0200 C   0  0  0  0  0  0  0  0  0  0  0  0
   48.1160   29.6920   39.3370 C   0  0  0  0  0  0  0  0  0  0  0  0
   48.0330   31.1410   39.8200 C   0  0  0  0  0  0  0  0  0  0  0  0
   44.0994   35.8447   39.9050 H   0  0  0  0  0  0  0  0  0  0  0  0
   40.7001   33.7149   41.1684 H   0  0  0  0  0  0  0  0  0  0  0  0
   44.8718   33.6328   44.3189 H   0  0  0  0  0  0  0  0  0  0  0  0
   46.2282   29.3268   42.4389 H   0  0  0  0  0  0  0  0  0  0  0  0
   45.8910   31.7052   46.7156 H   0  0  0  0  0  0  0  0  0  0  0  0
   47.5159   32.0885   46.0528 H   0  0  0  0  0  0  0  0  0  0  0  0
   46.2277   33.3404   46.0528 H   0  0  0  0  0  0  0  0  0  0  0  0
   48.5438   35.8241   42.3241 H   0  0  0  0  0  0  0  0  0  0  0  0
   48.9233   34.3126   40.0956 H   0  0  0  0  0  0  0  0  0  0  0  0
   46.4323   30.3935   37.5555 H   0  0  0  0  0  0  0  0  0  0  0  0
   46.6642   31.9652   36.7959 H   0  0  0  0  0  0  0  0  0  0  0  0
   48.5829   30.6122   36.1165 H   0  0  0  0  0  0  0  0  0  0  0  0
   49.2158   31.6893   37.3868 H   0  0  0  0  0  0  0  0  0  0  0  0
   48.5815   28.7506   37.4702 H   0  0  0  0  0  0  0  0  0  0  0  0
   49.9397   29.6719   38.2249 H   0  0  0  0  0  0  0  0  0  0  0  0
   47.1018   29.2891   39.1991 H   0  0  0  0  0  0  0  0  0  0  0  0
   48.6461   29.0787   40.0806 H   0  0  0  0  0  0  0  0  0  0  0  0
   49.0390   31.5841   39.8595 H   0  0  0  0  0  0  0  0  0  0  0  0
   47.6008   31.1936   40.8301 H   0  0  0  0  0  0  0  0  0  0  0  0
  1  6  2  0
  1  2  1  0
  2  3  2  0
  3  7  1  0
  4  3  1  0
  5  4  2  0
  6  5  1  0
  7  8  1  0
  8  9  2  0
  9 15  1  0
 10  9  1  0
 10 11  2  0
 12 10  1  0
 13  7  1  0
 13 12  1  0
 14 13  2  0
 16  2  1  0
 16 17  1  0
 18 17  2  0
 19 18  1  0
 20 19  2  0
 20 16  1  0
 21 20  1  0
 22 21  2  0
 23 21  1  0
 23 28  1  0
 24 23  1  0
 25 24  1  0
 25 26  1  0
 26 27  1  0
 27 28  1  0
  1 29  1  0
  5 30  1  0
  8 31  1  0
 12 32  1  0
 15 33  1  0
 15 34  1  0
 15 35  1  0
 18 36  1  0
 19 37  1  0
 24 38  1  0
 24 39  1  0
 25 40  1  0
 25 41  1  0
 26 42  1  0
 26 43  1  0
 27 44  1  0
 27 45  1  0
 28 46  1  0
 28 47  1  0
M  ISO  8  29  14  30  14  31  14  32   9  33   8  34   8  35   8  36  14
M  ISO  8  37  14  38  13  39  13  40  13  41  13  42  13  43  13  44  13
M  ISO  3  45  13  46  13  47  13
M  END
>  <minimizedAffinity>  (1) 
-4.29346657

>  <minimizedRMSD>  (1) 
7.90791512

$$$$
