
     RDKit          3D

 31 34  0  0  0  0  0  0  0  0999 V2000
   45.2380   34.0240   44.8600 N   0  0  0  0  0  0  0  0  0  0  0  0
   44.9780   33.6480   43.6280 C   0  0  0  0  0  0  0  0  0  0  0  0
   44.4370   34.6850   42.8900 C   0  0  0  0  0  0  0  0  0  0  0  0
   44.3800   35.6950   43.7270 N   0  0  0  0  0  0  0  0  0  0  0  0
   44.8610   35.3200   44.9230 C   0  0  0  0  0  0  0  0  0  0  0  0
   44.0970   34.3890   41.4780 C   0  0  0  0  0  0  0  0  0  0  0  0
   44.8960   33.7240   40.6250 N   0  0  0  0  0  0  0  0  0  0  0  0
   44.5670   33.4710   39.3560 C   0  0  0  0  0  0  0  0  0  0  0  0
   43.3940   33.8670   38.8280 N   0  0  0  0  0  0  0  0  0  0  0  0
   42.5150   34.5500   39.6160 C   0  0  0  0  0  0  0  0  0  0  0  0
   41.3150   34.9580   39.0830 C   0  0  0  0  0  0  0  0  0  0  0  0
   40.4150   35.6460   39.8510 C   0  0  0  0  0  0  0  0  0  0  0  0
   40.7470   35.9110   41.1610 C   0  0  0  0  0  0  0  0  0  0  0  0
   41.9650   35.4770   41.6400 C   0  0  0  0  0  0  0  0  0  0  0  0
   42.9060   34.7830   40.9140 C   0  0  0  0  0  0  0  0  0  0  0  0
   45.0940   33.4110   47.1580 C   0  0  0  0  0  0  0  0  0  0  0  0
   45.7900   33.2950   45.9320 C   0  0  0  0  0  0  0  0  0  0  0  0
   46.9330   32.4930   45.8770 C   0  0  0  0  0  0  0  0  0  0  0  0
   47.3240   31.8580   47.0160 N   0  0  0  0  0  0  0  0  0  0  0  0
   46.6330   31.9900   48.1830 C   0  0  0  0  0  0  0  0  0  0  0  0
   45.5170   32.7700   48.2480 N   0  0  0  0  0  0  0  0  0  0  0  0
   45.1664   32.6383   43.2343 H   0  0  0  0  0  0  0  0  0  0  0  0
   44.9361   35.9643   45.8114 H   0  0  0  0  0  0  0  0  0  0  0  0
   45.2776   32.9211   38.7215 H   0  0  0  0  0  0  0  0  0  0  0  0
   41.0770   34.7302   38.0335 H   0  0  0  0  0  0  0  0  0  0  0  0
   39.4531   35.9781   39.4334 H   0  0  0  0  0  0  0  0  0  0  0  0
   40.0524   36.4595   41.8141 H   0  0  0  0  0  0  0  0  0  0  0  0
   42.2044   35.7043   42.6893 H   0  0  0  0  0  0  0  0  0  0  0  0
   44.1920   34.0382   47.2129 H   0  0  0  0  0  0  0  0  0  0  0  0
   47.4999   32.3782   44.9414 H   0  0  0  0  0  0  0  0  0  0  0  0
   46.9798   31.4610   49.0830 H   0  0  0  0  0  0  0  0  0  0  0  0
  1  5  1  0
  1 17  1  0
  2  1  1  0
  3  2  2  0
  3  4  1  0
  4  5  2  0
  6  3  1  0
  7  6  2  0
  8  7  1  0
  9  8  2  0
  9 10  1  0
 10 15  2  0
 11 10  1  0
 11 12  2  0
 12 13  1  0
 13 14  2  0
 15  6  1  0
 15 14  1  0
 16 21  2  0
 17 16  1  0
 18 17  2  0
 18 19  1  0
 19 20  2  0
 20 21  1  0
  2 22  1  0
  5 23  1  0
  8 24  1  0
 11 25  1  0
 12 26  1  0
 13 27  1  0
 14 28  1  0
 16 29  1  0
 18 30  1  0
 20 31  1  0
M  ISO  8  22  14  23  14  24  14  25  14  26  14  27  14  28  14  29  14
M  ISO  2  30  14  31  14
M  END
>  <minimizedAffinity>  (1) 
-5.87135839

>  <minimizedRMSD>  (1) 
4.62718916

$$$$
