
     RDKit          3D

 33 35  0  0  0  0  0  0  0  0999 V2000
   43.9180   34.7830   41.1950 C   0  0  0  0  0  0  0  0  0  0  0  0
   42.9170   34.1450   40.4590 C   0  0  0  0  0  0  0  0  0  0  0  0
   42.5570   32.8730   40.8580 C   0  0  0  0  0  0  0  0  0  0  0  0
   43.1870   32.3080   41.9360 N   0  0  0  0  0  0  0  0  0  0  0  0
   44.1300   32.9540   42.6020 C   0  0  0  0  0  0  0  0  0  0  0  0
   44.4970   34.1770   42.2410 N   0  0  0  0  0  0  0  0  0  0  0  0
   41.5430   32.2150   40.1170 N   0  0  0  0  0  0  0  0  0  0  0  0
   41.8800   31.6480   38.9170 C   0  0  0  0  0  0  0  0  0  0  0  0
   40.8750   31.0200   38.2240 C   0  0  0  0  0  0  0  0  0  0  0  0
   39.5790   30.9410   38.6770 C   0  0  0  0  0  0  0  0  0  0  0  0
   38.7280   30.3420   37.9660 O   0  0  0  0  0  0  0  0  0  0  0  0
   39.2790   31.5090   39.8600 N   0  0  0  0  0  0  0  0  0  0  0  0
   40.2640   32.1270   40.5430 C   0  0  0  0  0  0  0  0  0  0  0  0
   39.9440   32.6430   41.6380 O   0  0  0  0  0  0  0  0  0  0  0  0
   41.2700   30.4010   36.9030 C   0  0  0  0  0  0  0  0  0  0  0  0
   42.3610   34.8490   39.3760 N   0  0  0  0  0  0  0  0  0  0  0  0
   42.9570   34.8730   38.2250 N   0  0  0  0  0  0  0  0  0  0  0  0
   42.2470   35.6010   37.3460 C   0  0  0  0  0  0  0  0  0  0  0  0
   41.1380   36.0290   38.0850 C   0  0  0  0  0  0  0  0  0  0  0  0
   41.2250   35.5400   39.3800 C   0  0  0  0  0  0  0  0  0  0  0  0
   40.2790   35.7510   40.4650 C   0  0  0  0  0  0  0  0  0  0  0  0
   40.5270   36.4430   41.4930 O   0  0  0  0  0  0  0  0  0  0  0  0
   38.9930   35.2330   40.5220 O   0  0  0  0  0  0  0  0  0  0  0  0
   44.2358   35.7974   40.9122 H   0  0  0  0  0  0  0  0  0  0  0  0
   44.6149   32.4723   43.4639 H   0  0  0  0  0  0  0  0  0  0  0  0
   42.9074   31.6936   38.5267 H   0  0  0  0  0  0  0  0  0  0  0  0
   38.3202   31.4725   40.2345 H   0  0  0  0  0  0  0  0  0  0  0  0
   41.8534   29.4867   37.0864 H   0  0  0  0  0  0  0  0  0  0  0  0
   40.3649   30.1498   36.3306 H   0  0  0  0  0  0  0  0  0  0  0  0
   41.8791   31.1160   36.3306 H   0  0  0  0  0  0  0  0  0  0  0  0
   42.4824   35.8113   36.2923 H   0  0  0  0  0  0  0  0  0  0  0  0
   40.3222   36.6572   37.6979 H   0  0  0  0  0  0  0  0  0  0  0  0
   38.4149   35.4281   41.3016 H   0  0  0  0  0  0  0  0  0  0  0  0
  1  6  2  0
  2  3  2  0
  2  1  1  0
  3  4  1  0
  4  5  2  0
  6  5  1  0
  7 13  1  0
  7  3  1  0
  8  7  1  0
  9 10  1  0
  9  8  2  0
 10 12  1  0
 11 10  2  0
 12 13  1  0
 13 14  2  0
 15  9  1  0
 16 20  1  0
 16  2  1  0
 17 16  1  0
 18 19  1  0
 18 17  2  0
 19 20  2  0
 20 21  1  0
 21 23  1  0
 21 22  2  0
  1 24  1  0
  5 25  1  0
  8 26  1  0
 12 27  1  0
 15 28  1  0
 15 29  1  0
 15 30  1  0
 18 31  1  0
 19 32  1  0
 23 33  1  0
M  ISO  8  24  14  25  14  26  14  27   9  28   8  29   8  30   8  31  14
M  ISO  2  32  14  33   3
M  END
>  <minimizedAffinity>  (1) 
-3.88531423

>  <minimizedRMSD>  (1) 
0.697808623

$$$$
