
     RDKit          3D

 37 39  0  0  1  0  0  0  0  0999 V2000
   47.4770   32.1130   44.6260 C   0  0  0  0  0  0  0  0  0  0  0  0
   46.8400   33.3230   44.2280 C   0  0  0  0  0  0  0  0  0  0  0  0
   45.9730   33.8810   45.1690 C   0  0  0  0  0  0  0  0  0  0  0  0
   45.7850   33.2740   46.3650 N   0  0  0  0  0  0  0  0  0  0  0  0
   46.4240   32.1220   46.6810 C   0  0  0  0  0  0  0  0  0  0  0  0
   47.2630   31.5280   45.8430 N   0  0  0  0  0  0  0  0  0  0  0  0
   47.2010   33.7690   42.9230 C   0  0  0  0  0  0  0  0  0  0  0  0
   48.3020   34.5800   42.9190 N   0  0  0  0  0  0  0  0  0  0  0  0
   48.7960   35.1030   41.7740 C   0  0  0  0  0  0  0  0  0  0  0  0
   48.2300   34.8530   40.5660 N   0  0  0  0  0  0  0  0  0  0  0  0
   47.1340   34.0520   40.5270 C   0  0  0  0  0  0  0  0  0  0  0  0
   46.4540   33.7100   39.3740 C   0  0  0  0  0  0  0  0  0  0  0  0
   45.3600   32.9040   39.3670 C   0  0  0  0  0  0  0  0  0  0  0  0
   44.8940   32.3950   40.5650 C   0  0  0  0  0  0  0  0  0  0  0  0
   45.5270   32.6990   41.7410 C   0  0  0  0  0  0  0  0  0  0  0  0
   46.6360   33.5240   41.6900 C   0  0  0  0  0  0  0  0  0  0  0  0
   46.1750   31.5300   47.9970 C   0  0  1  0  0  0  0  0  0  0  0  0
   44.7210   31.8080   48.4720 C   0  0  0  0  0  0  0  0  0  0  0  0
   46.4090   30.0660   48.0930 C   0  0  0  0  0  0  0  0  0  0  0  0
   45.1550   29.4260   47.9370 O   0  0  0  0  0  0  0  0  0  0  0  0
   44.9790   28.0580   47.8330 C   0  0  0  0  0  0  0  0  0  0  0  0
   44.9890   27.4740   46.7210 O   0  0  0  0  0  0  0  0  0  0  0  0
   44.7900   27.3340   49.0100 O   0  0  0  0  0  0  0  0  0  0  0  0
   48.1712   31.6281   43.9239 H   0  0  0  0  0  0  0  0  0  0  0  0
   45.4412   34.8159   44.9386 H   0  0  0  0  0  0  0  0  0  0  0  0
   49.6836   35.7508   41.8231 H   0  0  0  0  0  0  0  0  0  0  0  0
   46.8157   34.1096   38.4151 H   0  0  0  0  0  0  0  0  0  0  0  0
   44.8526   32.6601   38.4220 H   0  0  0  0  0  0  0  0  0  0  0  0
   44.0091   31.7416   40.5738 H   0  0  0  0  0  0  0  0  0  0  0  0
   45.1637   32.2984   42.6989 H   0  0  0  0  0  0  0  0  0  0  0  0
   46.9175   32.0216   48.6428 H   0  0  0  0  0  0  0  0  0  0  0  0
   44.6893   31.8141   49.5715 H   0  0  0  0  0  0  0  0  0  0  0  0
   44.3911   32.7855   48.0903 H   0  0  0  0  0  0  0  0  0  0  0  0
   44.0538   31.0212   48.0903 H   0  0  0  0  0  0  0  0  0  0  0  0
   47.0978   29.7424   47.2988 H   0  0  0  0  0  0  0  0  0  0  0  0
   46.8594   29.8072   49.0626 H   0  0  0  0  0  0  0  0  0  0  0  0
   44.6609   26.3532   48.9725 H   0  0  0  0  0  0  0  0  0  0  0  0
  1  6  2  0
  2  1  1  0
  2  3  2  0
  3  4  1  0
  4  5  2  0
  5 17  1  0
  6  5  1  0
  7  2  1  0
  8  7  2  0
  9  8  1  0
 10  9  2  0
 11 10  1  0
 11 16  2  0
 12 11  1  0
 13 12  2  0
 13 14  1  0
 14 15  2  0
 16 15  1  0
 16  7  1  0
 17 19  1  0
 17 18  1  0
 20 19  1  0
 21 20  1  0
 21 23  1  0
 22 21  2  0
  1 24  1  0
  3 25  1  0
  9 26  1  0
 12 27  1  0
 13 28  1  0
 14 29  1  0
 15 30  1  0
 17 31  1  1
 18 32  1  0
 18 33  1  0
 18 34  1  0
 19 35  1  0
 19 36  1  0
 23 37  1  0
M  ISO  8  24  14  25  14  26  14  27  14  28  14  29  14  30  14  31   8
M  ISO  6  32   8  33   8  34   8  35   8  36   8  37   3
M  END
>  <minimizedAffinity>  (1) 
-4.71854544

>  <minimizedRMSD>  (1) 
2.69806409

$$$$
