
     RDKit          3D

 30 32  0  0  0  0  0  0  0  0999 V2000
   45.6570   34.5010   41.3570 N   0  0  0  0  0  0  0  0  0  0  0  0
   44.8170   34.1920   40.3890 C   0  0  0  0  0  0  0  0  0  0  0  0
   43.5770   34.7520   40.6180 C   0  0  0  0  0  0  0  0  0  0  0  0
   43.6870   35.4200   41.7710 N   0  0  0  0  0  0  0  0  0  0  0  0
   44.9490   35.2680   42.2180 C   0  0  0  0  0  0  0  0  0  0  0  0
   42.4230   34.6600   39.8330 N   0  0  0  0  0  0  0  0  0  0  0  0
   42.2260   35.5350   38.8040 C   0  0  0  0  0  0  0  0  0  0  0  0
   41.1160   35.5220   37.9740 C   0  0  0  0  0  0  0  0  0  0  0  0
   41.0240   36.5290   36.8930 C   0  0  0  0  0  0  0  0  0  0  0  0
   40.1370   34.5560   38.2010 C   0  0  0  0  0  0  0  0  0  0  0  0
   39.1510   34.5730   37.4340 O   0  0  0  0  0  0  0  0  0  0  0  0
   40.3360   33.6880   39.2250 N   0  0  0  0  0  0  0  0  0  0  0  0
   41.4400   33.7760   39.9750 C   0  0  0  0  0  0  0  0  0  0  0  0
   41.5390   32.9280   40.9040 O   0  0  0  0  0  0  0  0  0  0  0  0
   47.8210   35.1300   42.1540 C   0  0  0  0  0  0  0  0  0  0  0  0
   47.0050   34.1480   41.5230 C   0  0  0  0  0  0  0  0  0  0  0  0
   47.5890   32.9510   41.1320 C   0  0  0  0  0  0  0  0  0  0  0  0
   48.9200   32.7760   41.3740 N   0  0  0  0  0  0  0  0  0  0  0  0
   49.6670   33.7180   41.9700 C   0  0  0  0  0  0  0  0  0  0  0  0
   49.1110   34.8880   42.3560 N   0  0  0  0  0  0  0  0  0  0  0  0
   45.0705   33.5716   39.5167 H   0  0  0  0  0  0  0  0  0  0  0  0
   45.3456   35.7037   43.1469 H   0  0  0  0  0  0  0  0  0  0  0  0
   42.9967   36.2985   38.6220 H   0  0  0  0  0  0  0  0  0  0  0  0
   40.9323   37.5327   37.3337 H   0  0  0  0  0  0  0  0  0  0  0  0
   41.9301   36.4830   36.2710 H   0  0  0  0  0  0  0  0  0  0  0  0
   40.1412   36.3196   36.2710 H   0  0  0  0  0  0  0  0  0  0  0  0
   39.6354   32.9599   39.4251 H   0  0  0  0  0  0  0  0  0  0  0  0
   47.3834   36.0873   42.4735 H   0  0  0  0  0  0  0  0  0  0  0  0
   46.9954   32.1659   40.6410 H   0  0  0  0  0  0  0  0  0  0  0  0
   50.7377   33.5371   42.1454 H   0  0  0  0  0  0  0  0  0  0  0  0
  1 16  1  0
  1  5  1  0
  2  3  2  0
  2  1  1  0
  3  4  1  0
  4  5  2  0
  6 13  1  0
  6  3  1  0
  7  6  1  0
  8 10  1  0
  8  7  2  0
  9  8  1  0
 10 12  1  0
 11 10  2  0
 12 13  1  0
 13 14  2  0
 15 20  2  0
 16 15  1  0
 17 18  1  0
 17 16  2  0
 18 19  2  0
 19 20  1  0
  2 21  1  0
  5 22  1  0
  7 23  1  0
  9 24  1  0
  9 25  1  0
  9 26  1  0
 12 27  1  0
 15 28  1  0
 17 29  1  0
 19 30  1  0
M  ISO  8  21  14  22  14  23  14  24   8  25   8  26   8  27   9  28  14
M  ISO  2  29  14  30  14
M  END
>  <minimizedAffinity>  (1) 
-5.35402346

>  <minimizedRMSD>  (1) 
3.84394813

$$$$
