
     RDKit          3D

 24 26  0  0  0  0  0  0  0  0999 V2000
   46.3000   33.1750   45.6220 N   0  0  0  0  0  0  0  0  0  0  0  0
   47.0920   33.1630   44.5490 C   0  0  0  0  0  0  0  0  0  0  0  0
   46.6280   34.1320   43.6690 C   0  0  0  0  0  0  0  0  0  0  0  0
   45.5770   34.7110   44.2120 N   0  0  0  0  0  0  0  0  0  0  0  0
   45.3620   34.1360   45.4090 C   0  0  0  0  0  0  0  0  0  0  0  0
   45.3640   32.6620   47.7690 C   0  0  0  0  0  0  0  0  0  0  0  0
   46.3620   32.3790   46.7880 C   0  0  0  0  0  0  0  0  0  0  0  0
   47.2890   31.3790   47.0370 C   0  0  0  0  0  0  0  0  0  0  0  0
   47.1960   30.7100   48.2240 N   0  0  0  0  0  0  0  0  0  0  0  0
   46.2470   30.9950   49.1340 C   0  0  0  0  0  0  0  0  0  0  0  0
   45.3270   31.9720   48.9100 N   0  0  0  0  0  0  0  0  0  0  0  0
   47.2560   34.4060   42.3770 C   0  0  0  0  0  0  0  0  0  0  0  0
   48.2220   35.2620   42.0640 C   0  0  0  0  0  0  0  0  0  0  0  0
   48.6710   35.3600   40.7750 C   0  0  0  0  0  0  0  0  0  0  0  0
   48.0260   34.4870   39.8310 C   0  0  0  0  0  0  0  0  0  0  0  0
   46.8030   33.5820   40.9010 S   0  0  0  0  0  0  0  0  0  0  0  0
   47.9579   32.5036   44.3896 H   0  0  0  0  0  0  0  0  0  0  0  0
   44.5538   34.4017   46.1063 H   0  0  0  0  0  0  0  0  0  0  0  0
   44.6222   33.4527   47.5830 H   0  0  0  0  0  0  0  0  0  0  0  0
   48.0719   31.1330   46.3045 H   0  0  0  0  0  0  0  0  0  0  0  0
   46.2143   30.4280   50.0760 H   0  0  0  0  0  0  0  0  0  0  0  0
   48.6642   35.8965   42.8462 H   0  0  0  0  0  0  0  0  0  0  0  0
   49.4693   36.0575   40.4813 H   0  0  0  0  0  0  0  0  0  0  0  0
   48.2093   34.3815   38.7515 H   0  0  0  0  0  0  0  0  0  0  0  0
  1  7  1  0
  2  1  1  0
  3  4  1  0
  3  2  2  0
  4  5  2  0
  5  1  1  0
  6 11  2  0
  7  8  2  0
  7  6  1  0
  8  9  1  0
  9 10  2  0
 11 10  1  0
 12  3  1  0
 13 12  2  0
 14 13  1  0
 15 14  2  0
 15 16  1  0
 16 12  1  0
  2 17  1  0
  5 18  1  0
  6 19  1  0
  8 20  1  0
 10 21  1  0
 13 22  1  0
 14 23  1  0
 15 24  1  0
M  ISO  8  17  14  18  14  19  14  20  14  21  14  22  14  23  14  24  14
M  END
>  <minimizedAffinity>  (1) 
-4.99327421

>  <minimizedRMSD>  (1) 
5.69042921

$$$$
