
     RDKit          3D

 22 24  0  0  0  0  0  0  0  0999 V2000
   46.2410   33.3850   45.3420 N   0  0  0  0  0  0  0  0  0  0  0  0
   47.0380   33.4320   44.2730 C   0  0  0  0  0  0  0  0  0  0  0  0
   46.5480   34.4140   43.3990 C   0  0  0  0  0  0  0  0  0  0  0  0
   45.4660   34.9430   43.9540 N   0  0  0  0  0  0  0  0  0  0  0  0
   45.2680   34.3200   45.1440 C   0  0  0  0  0  0  0  0  0  0  0  0
   45.4110   32.8680   47.5170 C   0  0  0  0  0  0  0  0  0  0  0  0
   46.3250   32.5700   46.4720 C   0  0  0  0  0  0  0  0  0  0  0  0
   47.2050   31.5160   46.6570 C   0  0  0  0  0  0  0  0  0  0  0  0
   47.1510   30.8200   47.8300 N   0  0  0  0  0  0  0  0  0  0  0  0
   46.2730   31.1270   48.8030 C   0  0  0  0  0  0  0  0  0  0  0  0
   45.4030   32.1570   48.6370 N   0  0  0  0  0  0  0  0  0  0  0  0
   47.2720   34.6400   42.1510 C   0  0  0  0  0  0  0  0  0  0  0  0
   48.2630   35.5300   41.9510 N   0  0  0  0  0  0  0  0  0  0  0  0
   48.6980   35.4820   40.7260 O   0  0  0  0  0  0  0  0  0  0  0  0
   47.9890   34.5600   40.1280 C   0  0  0  0  0  0  0  0  0  0  0  0
   47.0820   33.9960   40.9610 N   0  0  0  0  0  0  0  0  0  0  0  0
   47.9277   32.8072   44.1055 H   0  0  0  0  0  0  0  0  0  0  0  0
   44.4467   34.5367   45.8430 H   0  0  0  0  0  0  0  0  0  0  0  0
   44.7005   33.6990   47.3963 H   0  0  0  0  0  0  0  0  0  0  0  0
   47.9310   31.2461   45.8760 H   0  0  0  0  0  0  0  0  0  0  0  0
   46.2600   30.5425   49.7347 H   0  0  0  0  0  0  0  0  0  0  0  0
   48.1145   34.2760   39.0727 H   0  0  0  0  0  0  0  0  0  0  0  0
  1  7  1  0
  2  1  1  0
  3  4  1  0
  3  2  2  0
  4  5  2  0
  5  1  1  0
  6 11  2  0
  7  8  2  0
  7  6  1  0
  8  9  1  0
  9 10  2  0
 11 10  1  0
 12  3  1  0
 13 12  2  0
 14 13  1  0
 15 14  1  0
 15 16  2  0
 16 12  1  0
  2 17  1  0
  5 18  1  0
  6 19  1  0
  8 20  1  0
 10 21  1  0
 15 22  1  0
M  ISO  6  17  14  18  14  19  14  20  14  21  14  22  14
M  END
>  <minimizedAffinity>  (1) 
-4.69634867

>  <minimizedRMSD>  (1) 
5.40342808

$$$$
