
     RDKit          3D

 31 33  0  0  0  0  0  0  0  0999 V2000
   45.7790   33.5290   44.1990 N   0  0  0  0  0  0  0  0  0  0  0  0
   45.6040   33.4520   45.5100 C   0  0  0  0  0  0  0  0  0  0  0  0
   46.5660   32.5860   46.0240 C   0  0  0  0  0  0  0  0  0  0  0  0
   47.3020   32.1550   45.0200 N   0  0  0  0  0  0  0  0  0  0  0  0
   46.8310   32.7290   43.8900 C   0  0  0  0  0  0  0  0  0  0  0  0
   44.2520   33.5200   42.3600 C   0  0  0  0  0  0  0  0  0  0  0  0
   45.0490   34.2790   43.2590 C   0  0  0  0  0  0  0  0  0  0  0  0
   45.0370   35.6700   43.1320 C   0  0  0  0  0  0  0  0  0  0  0  0
   44.2620   36.2190   42.1550 N   0  0  0  0  0  0  0  0  0  0  0  0
   43.5200   35.4660   41.3220 C   0  0  0  0  0  0  0  0  0  0  0  0
   43.5170   34.1290   41.4250 N   0  0  0  0  0  0  0  0  0  0  0  0
   46.6930   32.2500   47.4010 N   0  0  0  0  0  0  0  0  0  0  0  0
   45.6650   32.5850   48.3660 C   0  0  0  0  0  0  0  0  0  0  0  0
   45.2850   31.3770   49.1740 C   0  0  0  0  0  0  0  0  0  0  0  0
   46.3860   30.5630   49.5840 N   0  0  0  0  0  0  0  0  0  0  0  0
   47.6780   31.0920   49.2780 C   0  0  0  0  0  0  0  0  0  0  0  0
   47.8630   31.5610   47.8700 C   0  0  0  0  0  0  0  0  0  0  0  0
   44.8335   33.9799   46.0910 H   0  0  0  0  0  0  0  0  0  0  0  0
   47.2365   32.5723   42.8795 H   0  0  0  0  0  0  0  0  0  0  0  0
   44.2401   32.4226   42.4344 H   0  0  0  0  0  0  0  0  0  0  0  0
   45.6363   36.3043   43.8018 H   0  0  0  0  0  0  0  0  0  0  0  0
   42.9090   35.9530   40.5477 H   0  0  0  0  0  0  0  0  0  0  0  0
   46.0435   33.3669   49.0408 H   0  0  0  0  0  0  0  0  0  0  0  0
   44.7763   32.9453   47.8271 H   0  0  0  0  0  0  0  0  0  0  0  0
   44.7577   31.7202   50.0763 H   0  0  0  0  0  0  0  0  0  0  0  0
   44.6608   30.7497   48.5207 H   0  0  0  0  0  0  0  0  0  0  0  0
   46.3266   30.4363   50.6044 H   0  0  0  0  0  0  0  0  0  0  0  0
   47.8621   31.9457   49.9468 H   0  0  0  0  0  0  0  0  0  0  0  0
   48.3857   30.2612   49.4158 H   0  0  0  0  0  0  0  0  0  0  0  0
   48.0527   30.6919   47.2229 H   0  0  0  0  0  0  0  0  0  0  0  0
   48.7154   32.2557   47.8402 H   0  0  0  0  0  0  0  0  0  0  0  0
  1  2  1  0
  2  3  2  0
  3 12  1  0
  4  3  1  0
  5  1  1  0
  5  4  2  0
  6  7  2  0
  7  1  1  0
  8  7  1  0
  9  8  2  0
 10 11  2  0
 10  9  1  0
 11  6  1  0
 12 17  1  0
 12 13  1  0
 13 14  1  0
 14 15  1  0
 16 15  1  0
 17 16  1  0
  2 18  1  0
  5 19  1  0
  6 20  1  0
  8 21  1  0
 10 22  1  0
 13 23  1  0
 13 24  1  0
 14 25  1  0
 14 26  1  0
 15 27  1  0
 16 28  1  0
 16 29  1  0
 17 30  1  0
 17 31  1  0
M  ISO  8  18  14  19  14  20  14  21  14  22  14  23  13  24  13  25  13
M  ISO  6  26  13  27   5  28  13  29  13  30  13  31  13
M  END
>  <minimizedAffinity>  (1) 
-4.65875053

>  <minimizedRMSD>  (1) 
8.26238728

$$$$
