
     RDKit          3D

 28 30  0  0  0  0  0  0  0  0999 V2000
   45.1020   33.5600   41.8000 N   0  0  0  0  0  0  0  0  0  0  0  0
   46.1020   33.6450   40.9270 C   0  0  0  0  0  0  0  0  0  0  0  0
   45.7270   32.9560   39.7670 C   0  0  0  0  0  0  0  0  0  0  0  0
   44.5130   32.4720   39.9650 N   0  0  0  0  0  0  0  0  0  0  0  0
   44.1070   32.8330   41.2120 C   0  0  0  0  0  0  0  0  0  0  0  0
   46.6620   32.9220   38.6940 N   0  0  0  0  0  0  0  0  0  0  0  0
   47.9540   32.6740   39.0500 C   0  0  0  0  0  0  0  0  0  0  0  0
   48.8940   32.6330   38.0360 C   0  0  0  0  0  0  0  0  0  0  0  0
   48.4390   32.8460   36.7510 C   0  0  0  0  0  0  0  0  0  0  0  0
   49.3940   32.8040   35.7170 N   0  0  0  0  0  0  0  0  0  0  0  0
   47.1590   33.0900   36.4080 N   0  0  0  0  0  0  0  0  0  0  0  0
   46.2440   33.1270   37.4190 C   0  0  0  0  0  0  0  0  0  0  0  0
   45.0160   33.3440   37.2460 O   0  0  0  0  0  0  0  0  0  0  0  0
   44.4160   35.3670   43.2060 C   0  0  0  0  0  0  0  0  0  0  0  0
   45.0070   34.0880   43.0950 C   0  0  0  0  0  0  0  0  0  0  0  0
   45.4400   33.4670   44.2670 C   0  0  0  0  0  0  0  0  0  0  0  0
   45.2730   34.1210   45.4490 N   0  0  0  0  0  0  0  0  0  0  0  0
   44.7050   35.3400   45.5180 C   0  0  0  0  0  0  0  0  0  0  0  0
   44.2770   35.9620   44.3950 N   0  0  0  0  0  0  0  0  0  0  0  0
   47.0573   34.1659   41.0882 H   0  0  0  0  0  0  0  0  0  0  0  0
   43.1391   32.5814   41.6701 H   0  0  0  0  0  0  0  0  0  0  0  0
   48.2376   32.5130   40.1005 H   0  0  0  0  0  0  0  0  0  0  0  0
   49.9565   32.4393   38.2448 H   0  0  0  0  0  0  0  0  0  0  0  0
   49.1032   32.9570   34.7408 H   0  0  0  0  0  0  0  0  0  0  0  0
   50.3834   32.6203   35.9369 H   0  0  0  0  0  0  0  0  0  0  0  0
   44.0647   35.8812   42.2993 H   0  0  0  0  0  0  0  0  0  0  0  0
   45.9060   32.4710   44.2365 H   0  0  0  0  0  0  0  0  0  0  0  0
   44.5881   35.8336   46.4941 H   0  0  0  0  0  0  0  0  0  0  0  0
  1 15  1  0
  2  1  1  0
  3  4  1  0
  3  2  2  0
  4  5  2  0
  5  1  1  0
  6  7  1  0
  6  3  1  0
  8  7  2  0
  9  8  1  0
 10  9  1  0
 11  9  2  0
 11 12  1  0
 12  6  1  0
 13 12  2  0
 14 19  2  0
 15 14  1  0
 15 16  2  0
 16 17  1  0
 17 18  2  0
 19 18  1  0
  2 20  1  0
  5 21  1  0
  7 22  1  0
  8 23  1  0
 10 24  1  0
 10 25  1  0
 14 26  1  0
 16 27  1  0
 18 28  1  0
M  ISO  7  20  14  21  14  22  14  23  14  26  14  27  14  28  14
M  END
>  <minimizedAffinity>  (1) 
-4.34323978

>  <minimizedRMSD>  (1) 
3.12572122

$$$$
