
     RDKit          3D

 33 35  0  0  0  0  0  0  0  0999 V2000
   43.9640   34.3970   41.7040 N   0  0  0  0  0  0  0  0  0  0  0  0
   44.0640   33.5110   40.7170 C   0  0  0  0  0  0  0  0  0  0  0  0
   43.4100   34.0320   39.6120 C   0  0  0  0  0  0  0  0  0  0  0  0
   42.9290   35.2210   39.9480 N   0  0  0  0  0  0  0  0  0  0  0  0
   43.2600   35.4620   41.2300 C   0  0  0  0  0  0  0  0  0  0  0  0
   44.2650   35.4850   43.8300 C   0  0  0  0  0  0  0  0  0  0  0  0
   44.4650   34.3280   43.0230 C   0  0  0  0  0  0  0  0  0  0  0  0
   45.1290   33.2230   43.5710 C   0  0  0  0  0  0  0  0  0  0  0  0
   45.5480   33.3270   44.8630 N   0  0  0  0  0  0  0  0  0  0  0  0
   45.3450   34.4330   45.6090 C   0  0  0  0  0  0  0  0  0  0  0  0
   44.7030   35.5100   45.0860 N   0  0  0  0  0  0  0  0  0  0  0  0
   43.3110   33.3200   38.3130 C   0  0  0  0  0  0  0  0  0  0  0  0
   44.6470   32.6890   38.0240 C   0  0  0  0  0  0  0  0  0  0  0  0
   44.6550   31.8780   36.7650 C   0  0  0  0  0  0  0  0  0  0  0  0
   43.5530   30.8680   36.6910 C   0  0  0  0  0  0  0  0  0  0  0  0
   42.2530   31.3080   37.2600 C   0  0  0  0  0  0  0  0  0  0  0  0
   42.2980   32.2310   38.4150 C   0  0  0  0  0  0  0  0  0  0  0  0
   44.5748   32.5382   40.7687 H   0  0  0  0  0  0  0  0  0  0  0  0
   43.0046   36.3677   41.7997 H   0  0  0  0  0  0  0  0  0  0  0  0
   43.7465   36.3609   43.4130 H   0  0  0  0  0  0  0  0  0  0  0  0
   45.3046   32.3101   42.9830 H   0  0  0  0  0  0  0  0  0  0  0  0
   45.7022   34.4628   46.6490 H   0  0  0  0  0  0  0  0  0  0  0  0
   43.0216   34.0263   37.5209 H   0  0  0  0  0  0  0  0  0  0  0  0
   45.3981   33.4872   37.9307 H   0  0  0  0  0  0  0  0  0  0  0  0
   44.8729   32.0052   38.8555 H   0  0  0  0  0  0  0  0  0  0  0  0
   44.5556   32.5632   35.9103 H   0  0  0  0  0  0  0  0  0  0  0  0
   45.6029   31.3202   36.7488 H   0  0  0  0  0  0  0  0  0  0  0  0
   43.3932   30.6155   35.6324 H   0  0  0  0  0  0  0  0  0  0  0  0
   43.8802   30.0136   37.3017 H   0  0  0  0  0  0  0  0  0  0  0  0
   41.6933   31.8099   36.4570 H   0  0  0  0  0  0  0  0  0  0  0  0
   41.7886   30.3898   37.6489 H   0  0  0  0  0  0  0  0  0  0  0  0
   42.5219   31.6401   39.3154 H   0  0  0  0  0  0  0  0  0  0  0  0
   41.3167   32.7267   38.4504 H   0  0  0  0  0  0  0  0  0  0  0  0
  1  7  1  0
  2  1  1  0
  3  4  1  0
  3  2  2  0
  4  5  2  0
  5  1  1  0
  6 11  2  0
  7  8  2  0
  7  6  1  0
  8  9  1  0
  9 10  2  0
 11 10  1  0
 12 17  1  0
 12  3  1  0
 13 12  1  0
 14 13  1  0
 15 14  1  0
 15 16  1  0
 16 17  1  0
  2 18  1  0
  5 19  1  0
  6 20  1  0
  8 21  1  0
 10 22  1  0
 12 23  1  0
 13 24  1  0
 13 25  1  0
 14 26  1  0
 14 27  1  0
 15 28  1  0
 15 29  1  0
 16 30  1  0
 16 31  1  0
 17 32  1  0
 17 33  1  0
M  ISO  8  18  14  19  14  20  14  21  14  22  14  23  13  24  13  25  13
M  ISO  8  26  13  27  13  28  13  29  13  30  13  31  13  32  13  33  13
M  END
>  <minimizedAffinity>  (1) 
-3.93134499

>  <minimizedRMSD>  (1) 
0.555817246

$$$$
