
     RDKit          3D

 24 26  0  0  0  0  0  0  0  0999 V2000
   46.0560   34.2550   41.8420 N   0  0  0  0  0  0  0  0  0  0  0  0
   47.2310   34.5640   41.2850 C   0  0  0  0  0  0  0  0  0  0  0  0
   47.1870   34.1150   39.9750 C   0  0  0  0  0  0  0  0  0  0  0  0
   46.0070   33.5470   39.7480 N   0  0  0  0  0  0  0  0  0  0  0  0
   45.3010   33.6290   40.8960 C   0  0  0  0  0  0  0  0  0  0  0  0
   44.9270   35.7370   43.3400 C   0  0  0  0  0  0  0  0  0  0  0  0
   45.6260   34.5100   43.1650 C   0  0  0  0  0  0  0  0  0  0  0  0
   45.8320   33.6760   44.2670 C   0  0  0  0  0  0  0  0  0  0  0  0
   45.3410   34.0970   45.4650 N   0  0  0  0  0  0  0  0  0  0  0  0
   44.6820   35.2630   45.6000 C   0  0  0  0  0  0  0  0  0  0  0  0
   44.4720   36.0840   44.5510 N   0  0  0  0  0  0  0  0  0  0  0  0
   48.3300   34.2760   39.0100 C   0  0  0  0  0  0  0  0  0  0  0  0
   48.0630   34.2430   37.5550 C   0  0  0  0  0  0  0  0  0  0  0  0
   48.7400   33.0540   38.1810 C   0  0  0  0  0  0  0  0  0  0  0  0
   48.0725   35.0770   41.7735 H   0  0  0  0  0  0  0  0  0  0  0  0
   44.2788   33.2506   41.0441 H   0  0  0  0  0  0  0  0  0  0  0  0
   44.7601   36.4015   42.4795 H   0  0  0  0  0  0  0  0  0  0  0  0
   46.3679   32.7202   44.1707 H   0  0  0  0  0  0  0  0  0  0  0  0
   44.3050   35.5536   46.5917 H   0  0  0  0  0  0  0  0  0  0  0  0
   48.8417   34.9810   39.6817 H   0  0  0  0  0  0  0  0  0  0  0  0
   48.6311   34.9016   36.8816 H   0  0  0  0  0  0  0  0  0  0  0  0
   47.1627   34.3758   36.9371 H   0  0  0  0  0  0  0  0  0  0  0  0
   48.1995   32.1023   38.2911 H   0  0  0  0  0  0  0  0  0  0  0  0
   49.6724   32.4968   38.0074 H   0  0  0  0  0  0  0  0  0  0  0  0
  1  7  1  0
  2  1  1  0
  3  2  2  0
  4  3  1  0
  4  5  2  0
  5  1  1  0
  6 11  2  0
  7  6  1  0
  7  8  2  0
  8  9  1  0
  9 10  2  0
 11 10  1  0
 12  3  1  0
 13 14  1  0
 13 12  1  0
 14 12  1  0
  2 15  1  0
  5 16  1  0
  6 17  1  0
  8 18  1  0
 10 19  1  0
 12 20  1  0
 13 21  1  0
 13 22  1  0
 14 23  1  0
 14 24  1  0
M  ISO  8  15  14  16  14  17  14  18  14  19  14  20  13  21  13  22  13
M  ISO  2  23  13  24  13
M  END
>  <minimizedAffinity>  (1) 
-4.08583784

>  <minimizedRMSD>  (1) 
3.37904978

$$$$
