
     RDKit          3D

 25 27  0  0  0  0  0  0  0  0999 V2000
   46.1320   32.5230   45.5300 N   0  0  0  0  0  0  0  0  0  0  0  0
   46.9560   32.4130   46.5580 C   0  0  0  0  0  0  0  0  0  0  0  0
   47.2570   31.0710   46.7740 C   0  0  0  0  0  0  0  0  0  0  0  0
   46.6030   30.3650   45.8630 N   0  0  0  0  0  0  0  0  0  0  0  0
   45.9150   31.2470   45.1000 C   0  0  0  0  0  0  0  0  0  0  0  0
   45.5610   33.6720   43.5210 C   0  0  0  0  0  0  0  0  0  0  0  0
   45.5600   33.6500   44.9440 C   0  0  0  0  0  0  0  0  0  0  0  0
   45.0030   34.7260   45.6140 C   0  0  0  0  0  0  0  0  0  0  0  0
   44.4850   35.7490   44.8750 N   0  0  0  0  0  0  0  0  0  0  0  0
   44.5030   35.7360   43.5250 C   0  0  0  0  0  0  0  0  0  0  0  0
   45.0400   34.7020   42.8540 N   0  0  0  0  0  0  0  0  0  0  0  0
   48.1390   30.5850   47.8310 C   0  0  0  0  0  0  0  0  0  0  0  0
   48.4480   31.4260   48.8760 C   0  0  0  0  0  0  0  0  0  0  0  0
   49.2820   30.9630   49.8720 C   0  0  0  0  0  0  0  0  0  0  0  0
   49.7840   29.7160   49.8270 N   0  0  0  0  0  0  0  0  0  0  0  0
   49.4630   28.9190   48.7920 C   0  0  0  0  0  0  0  0  0  0  0  0
   48.6410   29.3580   47.7970 N   0  0  0  0  0  0  0  0  0  0  0  0
   47.3444   33.2534   47.1519 H   0  0  0  0  0  0  0  0  0  0  0  0
   45.2708   30.9726   44.2516 H   0  0  0  0  0  0  0  0  0  0  0  0
   45.9969   32.8290   42.9648 H   0  0  0  0  0  0  0  0  0  0  0  0
   44.9788   34.7552   46.7133 H   0  0  0  0  0  0  0  0  0  0  0  0
   44.0733   36.5813   42.9675 H   0  0  0  0  0  0  0  0  0  0  0  0
   48.0383   32.4461   48.9158 H   0  0  0  0  0  0  0  0  0  0  0  0
   49.5400   31.6220   50.7141 H   0  0  0  0  0  0  0  0  0  0  0  0
   49.8698   27.8979   48.7478 H   0  0  0  0  0  0  0  0  0  0  0  0
  1  2  1  0
  2  3  2  0
  3 12  1  0
  4  3  1  0
  5  1  1  0
  5  4  2  0
  6  7  2  0
  7  1  1  0
  7  8  1  0
  9  8  2  0
 10  9  1  0
 11  6  1  0
 11 10  2  0
 12 13  2  0
 13 14  1  0
 15 14  2  0
 16 15  1  0
 17 12  1  0
 17 16  2  0
  2 18  1  0
  5 19  1  0
  6 20  1  0
  8 21  1  0
 10 22  1  0
 13 23  1  0
 14 24  1  0
 16 25  1  0
M  ISO  8  18  14  19  14  20  14  21  14  22  14  23  14  24  14  25  14
M  END
>  <minimizedAffinity>  (1) 
-4.40758133

>  <minimizedRMSD>  (1) 
9.18749619

$$$$
