
     RDKit          3D

 40 43  0  0  0  0  0  0  0  0999 V2000
   48.0610   30.7910   48.5060 N   0  0  0  0  0  0  0  0  0  0  0  0
   48.0500   31.2510   47.2680 C   0  0  0  0  0  0  0  0  0  0  0  0
   46.9730   32.1170   47.0950 C   0  0  0  0  0  0  0  0  0  0  0  0
   46.3320   32.1710   48.2580 N   0  0  0  0  0  0  0  0  0  0  0  0
   46.9960   31.3640   49.1130 C   0  0  0  0  0  0  0  0  0  0  0  0
   49.4930   30.3430   50.3460 C   0  0  0  0  0  0  0  0  0  0  0  0
   48.9470   29.9080   49.1170 C   0  0  0  0  0  0  0  0  0  0  0  0
   49.3420   28.6680   48.6510 C   0  0  0  0  0  0  0  0  0  0  0  0
   50.2250   27.9460   49.3980 N   0  0  0  0  0  0  0  0  0  0  0  0
   50.7260   28.3800   50.5560 C   0  0  0  0  0  0  0  0  0  0  0  0
   50.3550   29.5780   51.0250 N   0  0  0  0  0  0  0  0  0  0  0  0
   46.6370   32.8180   45.8620 C   0  0  0  0  0  0  0  0  0  0  0  0
   45.6060   33.7340   45.6930 C   0  0  0  0  0  0  0  0  0  0  0  0
   45.6860   34.1200   44.3690 C   0  0  0  0  0  0  0  0  0  0  0  0
   46.7460   33.4280   43.8100 C   0  0  0  0  0  0  0  0  0  0  0  0
   47.2870   32.6700   44.7110 O   0  0  0  0  0  0  0  0  0  0  0  0
   47.3200   33.4210   42.4290 C   0  0  0  0  0  0  0  0  0  0  0  0
   47.0240   34.6830   41.6850 C   0  0  0  0  0  0  0  0  0  0  0  0
   47.9550   35.8100   42.0790 C   0  0  0  0  0  0  0  0  0  0  0  0
   49.3700   35.3690   41.7550 C   0  0  0  0  0  0  0  0  0  0  0  0
   49.7250   34.1640   42.5750 C   0  0  0  0  0  0  0  0  0  0  0  0
   48.7710   33.0250   42.4050 C   0  0  0  0  0  0  0  0  0  0  0  0
   48.7821   30.9893   46.4898 H   0  0  0  0  0  0  0  0  0  0  0  0
   46.7098   31.1951   50.1616 H   0  0  0  0  0  0  0  0  0  0  0  0
   49.2049   31.3248   50.7499 H   0  0  0  0  0  0  0  0  0  0  0  0
   48.9534   28.2733   47.7006 H   0  0  0  0  0  0  0  0  0  0  0  0
   51.4374   27.7592   51.1203 H   0  0  0  0  0  0  0  0  0  0  0  0
   44.8838   34.0769   46.4485 H   0  0  0  0  0  0  0  0  0  0  0  0
   45.0315   34.8405   43.8565 H   0  0  0  0  0  0  0  0  0  0  0  0
   46.8008   32.6263   41.8733 H   0  0  0  0  0  0  0  0  0  0  0  0
   45.9889   34.9868   41.9002 H   0  0  0  0  0  0  0  0  0  0  0  0
   47.1680   34.4849   40.6126 H   0  0  0  0  0  0  0  0  0  0  0  0
   47.7058   36.7186   41.5112 H   0  0  0  0  0  0  0  0  0  0  0  0
   47.8563   36.0364   43.1509 H   0  0  0  0  0  0  0  0  0  0  0  0
   49.4387   35.1172   40.6864 H   0  0  0  0  0  0  0  0  0  0  0  0
   50.0683   36.1864   41.9879 H   0  0  0  0  0  0  0  0  0  0  0  0
   50.7286   33.8247   42.2790 H   0  0  0  0  0  0  0  0  0  0  0  0
   49.6820   34.4673   43.6315 H   0  0  0  0  0  0  0  0  0  0  0  0
   48.9449   32.3061   43.2192 H   0  0  0  0  0  0  0  0  0  0  0  0
   48.9640   32.5998   41.4090 H   0  0  0  0  0  0  0  0  0  0  0  0
  1  5  1  0
  1  7  1  0
  2  1  1  0
  3  2  2  0
  3  4  1  0
  4  5  2  0
  6 11  2  0
  7  6  1  0
  8  7  2  0
  8  9  1  0
  9 10  2  0
 10 11  1  0
 12  3  1  0
 13 12  2  0
 14 13  1  0
 15 14  2  0
 15 16  1  0
 16 12  1  0
 17 15  1  0
 18 19  1  0
 18 17  1  0
 20 19  1  0
 20 21  1  0
 22 17  1  0
 22 21  1  0
  2 23  1  0
  5 24  1  0
  6 25  1  0
  8 26  1  0
 10 27  1  0
 13 28  1  0
 14 29  1  0
 17 30  1  0
 18 31  1  0
 18 32  1  0
 19 33  1  0
 19 34  1  0
 20 35  1  0
 20 36  1  0
 21 37  1  0
 21 38  1  0
 22 39  1  0
 22 40  1  0
M  ISO  8  23  14  24  14  25  14  26  14  27  14  28  14  29  14  30  13
M  ISO  8  31  13  32  13  33  13  34  13  35  13  36  13  37  13  38  13
M  ISO  2  39  13  40  13
M  END
>  <minimizedAffinity>  (1) 
-5.40852737

>  <minimizedRMSD>  (1) 
3.97422338

$$$$
