
     RDKit          3D

 31 34  0  0  0  0  0  0  0  0999 V2000
   47.0140   31.6560   47.7180 N   0  0  0  0  0  0  0  0  0  0  0  0
   46.9820   32.3770   46.6210 C   0  0  0  0  0  0  0  0  0  0  0  0
   45.8200   33.1510   46.5910 C   0  0  0  0  0  0  0  0  0  0  0  0
   45.1580   32.8660   47.7110 N   0  0  0  0  0  0  0  0  0  0  0  0
   45.8750   31.9630   48.3960 C   0  0  0  0  0  0  0  0  0  0  0  0
   48.4960   30.9840   49.4560 C   0  0  0  0  0  0  0  0  0  0  0  0
   47.9840   30.7450   48.1560 C   0  0  0  0  0  0  0  0  0  0  0  0
   48.4800   29.6600   47.4580 C   0  0  0  0  0  0  0  0  0  0  0  0
   49.4220   28.8920   48.0560 N   0  0  0  0  0  0  0  0  0  0  0  0
   49.8940   29.1290   49.2810 C   0  0  0  0  0  0  0  0  0  0  0  0
   49.4220   30.1720   49.9580 N   0  0  0  0  0  0  0  0  0  0  0  0
   45.4220   34.0760   45.5470 C   0  0  0  0  0  0  0  0  0  0  0  0
   44.6260   35.1970   45.7270 C   0  0  0  0  0  0  0  0  0  0  0  0
   44.5230   35.7610   44.4500 C   0  0  0  0  0  0  0  0  0  0  0  0
   45.2520   34.9600   43.5840 C   0  0  0  0  0  0  0  0  0  0  0  0
   45.7660   33.9800   44.2660 O   0  0  0  0  0  0  0  0  0  0  0  0
   45.4010   35.2140   42.1120 C   0  0  0  0  0  0  0  0  0  0  0  0
   44.1080   35.1150   41.3370 C   0  0  0  0  0  0  0  0  0  0  0  0
   45.2680   34.1220   41.1460 C   0  0  0  0  0  0  0  0  0  0  0  0
   47.7568   32.3720   45.8402 H   0  0  0  0  0  0  0  0  0  0  0  0
   45.5843   31.5328   49.3657 H   0  0  0  0  0  0  0  0  0  0  0  0
   48.1294   31.8366   50.0465 H   0  0  0  0  0  0  0  0  0  0  0  0
   48.1198   29.4267   46.4452 H   0  0  0  0  0  0  0  0  0  0  0  0
   50.6593   28.4740   49.7230 H   0  0  0  0  0  0  0  0  0  0  0  0
   44.1766   35.5611   46.6627 H   0  0  0  0  0  0  0  0  0  0  0  0
   43.9665   36.6715   44.1828 H   0  0  0  0  0  0  0  0  0  0  0  0
   46.1964   35.9597   42.2582 H   0  0  0  0  0  0  0  0  0  0  0  0
   43.1810   34.7992   41.8379 H   0  0  0  0  0  0  0  0  0  0  0  0
   43.5191   35.7806   40.6888 H   0  0  0  0  0  0  0  0  0  0  0  0
   45.1672   33.0853   41.4997 H   0  0  0  0  0  0  0  0  0  0  0  0
   45.8560   33.7724   40.2846 H   0  0  0  0  0  0  0  0  0  0  0  0
  1  7  1  0
  1  5  1  0
  2  1  1  0
  3  2  2  0
  3  4  1  0
  4  5  2  0
  6 11  2  0
  7  6  1  0
  8  9  1  0
  8  7  2  0
  9 10  2  0
 10 11  1  0
 12 13  2  0
 12  3  1  0
 14 13  1  0
 15 16  1  0
 15 14  2  0
 16 12  1  0
 17 15  1  0
 18 17  1  0
 19 18  1  0
 19 17  1  0
  2 20  1  0
  5 21  1  0
  6 22  1  0
  8 23  1  0
 10 24  1  0
 13 25  1  0
 14 26  1  0
 17 27  1  0
 18 28  1  0
 18 29  1  0
 19 30  1  0
 19 31  1  0
M  ISO  8  20  14  21  14  22  14  23  14  24  14  25  14  26  14  27  13
M  ISO  4  28  13  29  13  30  13  31  13
M  END
>  <minimizedAffinity>  (1) 
-5.347857

>  <minimizedRMSD>  (1) 
1.92319834

$$$$
