
     RDKit          3D

 25 27  0  0  0  0  0  0  0  0999 V2000
   47.2450   31.4270   47.9290 N   0  0  0  0  0  0  0  0  0  0  0  0
   47.2590   32.0890   46.8010 C   0  0  0  0  0  0  0  0  0  0  0  0
   46.1390   32.8840   46.6710 C   0  0  0  0  0  0  0  0  0  0  0  0
   45.4210   32.6880   47.7730 N   0  0  0  0  0  0  0  0  0  0  0  0
   46.0910   31.8030   48.5390 C   0  0  0  0  0  0  0  0  0  0  0  0
   48.7860   30.9080   49.6660 C   0  0  0  0  0  0  0  0  0  0  0  0
   48.1580   30.5240   48.4640 C   0  0  0  0  0  0  0  0  0  0  0  0
   48.4930   29.2830   47.9040 C   0  0  0  0  0  0  0  0  0  0  0  0
   49.4150   28.5240   48.5710 N   0  0  0  0  0  0  0  0  0  0  0  0
   49.9940   28.9140   49.7090 C   0  0  0  0  0  0  0  0  0  0  0  0
   49.6730   30.0920   50.2380 N   0  0  0  0  0  0  0  0  0  0  0  0
   45.8000   33.7580   45.5660 C   0  0  0  0  0  0  0  0  0  0  0  0
   46.3550   33.7000   44.2940 C   0  0  0  0  0  0  0  0  0  0  0  0
   45.7250   34.7280   43.5830 C   0  0  0  0  0  0  0  0  0  0  0  0
   44.8460   35.3330   44.4450 C   0  0  0  0  0  0  0  0  0  0  0  0
   44.9120   34.7430   45.6010 O   0  0  0  0  0  0  0  0  0  0  0  0
   44.0680   36.4000   44.0160 O   0  0  0  0  0  0  0  0  0  0  0  0
   48.0614   32.0206   46.0517 H   0  0  0  0  0  0  0  0  0  0  0  0
   45.7510   31.4373   49.5192 H   0  0  0  0  0  0  0  0  0  0  0  0
   48.5459   31.8759   50.1302 H   0  0  0  0  0  0  0  0  0  0  0  0
   48.0335   28.9343   46.9674 H   0  0  0  0  0  0  0  0  0  0  0  0
   50.7312   28.2661   50.2058 H   0  0  0  0  0  0  0  0  0  0  0  0
   47.1205   33.0007   43.9266 H   0  0  0  0  0  0  0  0  0  0  0  0
   45.9014   34.9994   42.5317 H   0  0  0  0  0  0  0  0  0  0  0  0
   43.4348   36.8339   44.6413 H   0  0  0  0  0  0  0  0  0  0  0  0
  1  7  1  0
  1  5  1  0
  2  1  1  0
  3  2  2  0
  3  4  1  0
  4  5  2  0
  6 11  2  0
  7  6  1  0
  8  7  2  0
  8  9  1  0
  9 10  2  0
 10 11  1  0
 12 16  1  0
 12  3  1  0
 13 12  2  0
 14 13  1  0
 14 15  2  0
 15 16  1  0
 17 15  1  0
  2 18  1  0
  5 19  1  0
  6 20  1  0
  8 21  1  0
 10 22  1  0
 13 23  1  0
 14 24  1  0
 17 25  1  0
M  ISO  8  18  14  19  14  20  14  21  14  22  14  23  14  24  14  25   3
M  END
>  <minimizedAffinity>  (1) 
-5.11860371

>  <minimizedRMSD>  (1) 
0.639115572

$$$$
