
     RDKit          3D

 25 26  0  0  0  0  0  0  0  0999 V2000
   44.9250   35.0580   44.5010 C   0  0  0  0  0  0  0  0  0  0  0  0
   45.6920   35.1340   43.3360 C   0  0  0  0  0  0  0  0  0  0  0  0
   46.8240   34.2860   43.2360 C   0  0  0  0  0  0  0  0  0  0  0  0
   47.0930   33.4500   44.2870 N   0  0  0  0  0  0  0  0  0  0  0  0
   46.3150   33.4210   45.3880 C   0  0  0  0  0  0  0  0  0  0  0  0
   45.2320   34.2170   45.5080 N   0  0  0  0  0  0  0  0  0  0  0  0
   43.7690   35.8580   44.7120 N   0  0  0  0  0  0  0  0  0  0  0  0
   47.6570   34.3260   42.0390 C   0  0  0  0  0  0  0  0  0  0  0  0
   48.3410   35.6670   41.8300 C   0  0  0  0  0  0  0  0  0  0  0  0
   48.9730   35.4150   40.4550 C   0  0  0  0  0  0  0  0  0  0  0  0
   48.0020   34.5030   39.7360 C   0  0  0  0  0  0  0  0  0  0  0  0
   46.9180   34.1780   40.7420 C   0  0  0  0  0  0  0  0  0  0  0  0
   45.4270   35.8276   42.5244 H   0  0  0  0  0  0  0  0  0  0  0  0
   46.5691   32.7325   46.2074 H   0  0  0  0  0  0  0  0  0  0  0  0
   43.4668   36.5270   43.9895 H   0  0  0  0  0  0  0  0  0  0  0  0
   43.2336   35.7687   45.5874 H   0  0  0  0  0  0  0  0  0  0  0  0
   48.3383   33.4863   42.2407 H   0  0  0  0  0  0  0  0  0  0  0  0
   47.6192   36.4966   41.8044 H   0  0  0  0  0  0  0  0  0  0  0  0
   49.0443   35.9632   42.6222 H   0  0  0  0  0  0  0  0  0  0  0  0
   49.0933   36.3606   39.9061 H   0  0  0  0  0  0  0  0  0  0  0  0
   49.9746   34.9678   40.5374 H   0  0  0  0  0  0  0  0  0  0  0  0
   47.5724   35.0141   38.8618 H   0  0  0  0  0  0  0  0  0  0  0  0
   48.4985   33.5930   39.3681 H   0  0  0  0  0  0  0  0  0  0  0  0
   46.0808   34.8882   40.6736 H   0  0  0  0  0  0  0  0  0  0  0  0
   46.4568   33.1895   40.5997 H   0  0  0  0  0  0  0  0  0  0  0  0
  1  7  1  0
  1  6  2  0
  2  1  1  0
  3  2  2  0
  3  4  1  0
  4  5  2  0
  5  6  1  0
  8  3  1  0
  9  8  1  0
 10  9  1  0
 11 10  1  0
 11 12  1  0
 12  8  1  0
  2 13  1  0
  5 14  1  0
  7 15  1  0
  7 16  1  0
  8 17  1  0
  9 18  1  0
  9 19  1  0
 10 20  1  0
 10 21  1  0
 11 22  1  0
 11 23  1  0
 12 24  1  0
 12 25  1  0
M  ISO  8  13  14  14  14  17  13  18  13  19  13  20  13  21  13  22  13
M  ISO  3  23  13  24  13  25  13
M  END
>  <minimizedAffinity>  (1) 
-4.8309412

>  <minimizedRMSD>  (1) 
0.660105526

$$$$
