
     RDKit          3D

 19 20  0  0  0  0  0  0  0  0999 V2000
   44.9530   35.1710   44.0050 C   0  0  0  0  0  0  0  0  0  0  0  0
   45.7580   35.3950   42.8840 C   0  0  0  0  0  0  0  0  0  0  0  0
   46.9450   34.6490   42.7890 C   0  0  0  0  0  0  0  0  0  0  0  0
   47.2360   33.7640   43.7850 N   0  0  0  0  0  0  0  0  0  0  0  0
   46.4340   33.5840   44.8390 C   0  0  0  0  0  0  0  0  0  0  0  0
   45.2930   34.2900   44.9460 N   0  0  0  0  0  0  0  0  0  0  0  0
   43.7320   35.8610   44.2140 N   0  0  0  0  0  0  0  0  0  0  0  0
   47.8060   34.8780   41.6040 C   0  0  0  0  0  0  0  0  0  0  0  0
   49.2360   34.4020   41.7020 C   0  0  0  0  0  0  0  0  0  0  0  0
   48.9250   35.8540   41.6730 C   0  0  0  0  0  0  0  0  0  0  0  0
   45.4745   36.1235   42.1101 H   0  0  0  0  0  0  0  0  0  0  0  0
   46.7066   32.8584   45.6195 H   0  0  0  0  0  0  0  0  0  0  0  0
   43.4089   36.5561   43.5259 H   0  0  0  0  0  0  0  0  0  0  0  0
   43.1681   35.6672   45.0539 H   0  0  0  0  0  0  0  0  0  0  0  0
   46.9599   34.7366   40.9154 H   0  0  0  0  0  0  0  0  0  0  0  0
   49.5992   33.9343   42.6290 H   0  0  0  0  0  0  0  0  0  0  0  0
   49.8769   33.7289   41.1137 H   0  0  0  0  0  0  0  0  0  0  0  0
   49.1851   36.4515   40.7868 H   0  0  0  0  0  0  0  0  0  0  0  0
   49.1651   36.7074   42.3242 H   0  0  0  0  0  0  0  0  0  0  0  0
  1  7  1  0
  1  6  2  0
  2  1  1  0
  3  2  2  0
  3  4  1  0
  4  5  2  0
  5  6  1  0
  8 10  1  0
  8  9  1  0
  8  3  1  0
 10  9  1  0
  2 11  1  0
  5 12  1  0
  7 13  1  0
  7 14  1  0
  8 15  1  0
  9 16  1  0
  9 17  1  0
 10 18  1  0
 10 19  1  0
M  ISO  7  11  14  12  14  15  13  16  13  17  13  18  13  19  13
M  END
>  <minimizedAffinity>  (1) 
-4.50016928

>  <minimizedRMSD>  (1) 
1.0942142

$$$$
