
     RDKit          3D

 25 26  0  0  0  0  0  0  0  0999 V2000
   44.8970   35.0830   44.5390 C   0  0  0  0  0  0  0  0  0  0  0  0
   45.6890   35.2110   43.3770 C   0  0  0  0  0  0  0  0  0  0  0  0
   46.8090   34.3720   43.2680 C   0  0  0  0  0  0  0  0  0  0  0  0
   47.0860   33.4870   44.2620 N   0  0  0  0  0  0  0  0  0  0  0  0
   46.2920   33.4050   45.3570 C   0  0  0  0  0  0  0  0  0  0  0  0
   45.2100   34.1990   45.4860 N   0  0  0  0  0  0  0  0  0  0  0  0
   43.7400   35.8560   44.7920 N   0  0  0  0  0  0  0  0  0  0  0  0
   47.6260   34.4680   42.1240 N   0  0  0  0  0  0  0  0  0  0  0  0
   47.1010   34.0600   40.8350 C   0  0  0  0  0  0  0  0  0  0  0  0
   48.0010   34.3960   39.6960 C   0  0  0  0  0  0  0  0  0  0  0  0
   48.8610   35.4270   39.8630 O   0  0  0  0  0  0  0  0  0  0  0  0
   49.0910   35.9390   41.0900 C   0  0  0  0  0  0  0  0  0  0  0  0
   48.9820   34.9740   42.2480 C   0  0  0  0  0  0  0  0  0  0  0  0
   45.4387   35.9378   42.5901 H   0  0  0  0  0  0  0  0  0  0  0  0
   46.5331   32.6820   46.1502 H   0  0  0  0  0  0  0  0  0  0  0  0
   43.4321   36.5614   44.1075 H   0  0  0  0  0  0  0  0  0  0  0  0
   43.2053   35.7136   45.6607 H   0  0  0  0  0  0  0  0  0  0  0  0
   46.9488   32.9707   40.8495 H   0  0  0  0  0  0  0  0  0  0  0  0
   46.1608   34.6092   40.6788 H   0  0  0  0  0  0  0  0  0  0  0  0
   47.3637   34.6351   38.8318 H   0  0  0  0  0  0  0  0  0  0  0  0
   48.6437   33.5114   39.5760 H   0  0  0  0  0  0  0  0  0  0  0  0
   50.1094   36.3546   41.0945 H   0  0  0  0  0  0  0  0  0  0  0  0
   48.2970   36.6829   41.2516 H   0  0  0  0  0  0  0  0  0  0  0  0
   49.1250   35.4909   43.2084 H   0  0  0  0  0  0  0  0  0  0  0  0
   49.7445   34.1815   42.2256 H   0  0  0  0  0  0  0  0  0  0  0  0
  1  7  1  0
  1  6  2  0
  2  1  1  0
  3  2  2  0
  3  4  1  0
  4  5  2  0
  5  6  1  0
  8 13  1  0
  8  3  1  0
  9  8  1  0
 10 11  1  0
 10  9  1  0
 11 12  1  0
 12 13  1  0
  2 14  1  0
  5 15  1  0
  7 16  1  0
  7 17  1  0
  9 18  1  0
  9 19  1  0
 10 20  1  0
 10 21  1  0
 12 22  1  0
 12 23  1  0
 13 24  1  0
 13 25  1  0
M  ISO  8  14  14  15  14  18  13  19  13  20  13  21  13  22  13  23  13
M  ISO  2  24  13  25  13
M  END
>  <minimizedAffinity>  (1) 
-4.44653893

>  <minimizedRMSD>  (1) 
0.800220788

$$$$
