
     RDKit          3D

 24 25  0  0  0  0  0  0  0  0999 V2000
   44.9360   35.0740   44.3420 C   0  0  0  0  0  0  0  0  0  0  0  0
   45.7550   35.1780   43.1950 C   0  0  0  0  0  0  0  0  0  0  0  0
   46.8870   34.3510   43.1710 C   0  0  0  0  0  0  0  0  0  0  0  0
   47.1470   33.5120   44.2050 N   0  0  0  0  0  0  0  0  0  0  0  0
   46.3220   33.4580   45.2790 C   0  0  0  0  0  0  0  0  0  0  0  0
   45.2350   34.2260   45.3460 N   0  0  0  0  0  0  0  0  0  0  0  0
   43.7490   35.8380   44.5350 N   0  0  0  0  0  0  0  0  0  0  0  0
   47.7300   34.4310   42.0330 N   0  0  0  0  0  0  0  0  0  0  0  0
   48.5700   35.5830   41.7570 C   0  0  0  0  0  0  0  0  0  0  0  0
   48.8970   35.4410   40.2850 C   0  0  0  0  0  0  0  0  0  0  0  0
   47.9950   34.3430   39.7610 C   0  0  0  0  0  0  0  0  0  0  0  0
   47.9010   33.4350   40.9910 C   0  0  0  0  0  0  0  0  0  0  0  0
   45.5185   35.8666   42.3704 H   0  0  0  0  0  0  0  0  0  0  0  0
   46.5528   32.7710   46.1065 H   0  0  0  0  0  0  0  0  0  0  0  0
   43.4470   36.5108   43.8160 H   0  0  0  0  0  0  0  0  0  0  0  0
   43.1929   35.7175   45.3936 H   0  0  0  0  0  0  0  0  0  0  0  0
   48.0272   36.5201   41.9501 H   0  0  0  0  0  0  0  0  0  0  0  0
   49.4671   35.6198   42.3925 H   0  0  0  0  0  0  0  0  0  0  0  0
   48.6971   36.3847   39.7563 H   0  0  0  0  0  0  0  0  0  0  0  0
   49.9587   35.1987   40.1297 H   0  0  0  0  0  0  0  0  0  0  0  0
   47.0087   34.7339   39.4704 H   0  0  0  0  0  0  0  0  0  0  0  0
   48.3664   33.8433   38.8542 H   0  0  0  0  0  0  0  0  0  0  0  0
   47.0378   32.7558   40.9310 H   0  0  0  0  0  0  0  0  0  0  0  0
   48.7584   32.7607   41.1334 H   0  0  0  0  0  0  0  0  0  0  0  0
  1  7  1  0
  1  6  2  0
  2  1  1  0
  3  2  2  0
  3  4  1  0
  4  5  2  0
  5  6  1  0
  8  3  1  0
  9  8  1  0
 10  9  1  0
 11 10  1  0
 11 12  1  0
 12  8  1  0
  2 13  1  0
  5 14  1  0
  7 15  1  0
  7 16  1  0
  9 17  1  0
  9 18  1  0
 10 19  1  0
 10 20  1  0
 11 21  1  0
 11 22  1  0
 12 23  1  0
 12 24  1  0
M  ISO  8  13  14  14  14  17  13  18  13  19  13  20  13  21  13  22  13
M  ISO  2  23  13  24  13
M  END
>  <minimizedAffinity>  (1) 
-4.52656651

>  <minimizedRMSD>  (1) 
0.687534034

$$$$
