
     RDKit          3D

 17 18  0  0  0  0  0  0  0  0999 V2000
   44.8910   35.0490   44.4680 C   0  0  0  0  0  0  0  0  0  0  0  0
   45.7000   34.9130   43.3390 C   0  0  0  0  0  0  0  0  0  0  0  0
   46.7810   34.0220   43.4270 C   0  0  0  0  0  0  0  0  0  0  0  0
   46.9870   33.3430   44.5870 N   0  0  0  0  0  0  0  0  0  0  0  0
   46.1720   33.5130   45.6530 C   0  0  0  0  0  0  0  0  0  0  0  0
   45.1440   34.3560   45.5790 N   0  0  0  0  0  0  0  0  0  0  0  0
   43.7690   35.9120   44.5190 N   0  0  0  0  0  0  0  0  0  0  0  0
   47.6200   33.8870   42.2420 C   0  0  0  0  0  0  0  0  0  0  0  0
   48.6960   33.1770   41.8320 N   0  0  0  0  0  0  0  0  0  0  0  0
   48.9870   33.5220   40.6110 O   0  0  0  0  0  0  0  0  0  0  0  0
   48.1480   34.4430   40.1710 C   0  0  0  0  0  0  0  0  0  0  0  0
   47.2800   34.6810   41.1920 N   0  0  0  0  0  0  0  0  0  0  0  0
   45.4989   35.4805   42.4184 H   0  0  0  0  0  0  0  0  0  0  0  0
   46.3586   32.9543   46.5820 H   0  0  0  0  0  0  0  0  0  0  0  0
   43.5161   36.4771   43.6958 H   0  0  0  0  0  0  0  0  0  0  0  0
   43.2060   35.9744   45.3792 H   0  0  0  0  0  0  0  0  0  0  0  0
   48.1505   34.9207   39.1801 H   0  0  0  0  0  0  0  0  0  0  0  0
  1  7  1  0
  1  6  2  0
  2  3  2  0
  2  1  1  0
  3  4  1  0
  4  5  2  0
  6  5  1  0
  8  3  1  0
  9  8  2  0
 10  9  1  0
 11 10  1  0
 11 12  2  0
 12  8  1  0
  2 13  1  0
  5 14  1  0
  7 15  1  0
  7 16  1  0
 11 17  1  0
M  ISO  3  13  14  14  14  17  14
M  END
>  <minimizedAffinity>  (1) 
-4.13951969

>  <minimizedRMSD>  (1) 
0.345061988

$$$$
