
     RDKit          3D

 15 15  0  0  0  0  0  0  0  0999 V2000
   45.0040   35.1490   43.9920 C   0  0  0  0  0  0  0  0  0  0  0  0
   45.7850   35.4460   42.8590 C   0  0  0  0  0  0  0  0  0  0  0  0
   46.9940   34.7560   42.6890 C   0  0  0  0  0  0  0  0  0  0  0  0
   47.3350   33.8400   43.6330 N   0  0  0  0  0  0  0  0  0  0  0  0
   46.5610   33.5810   44.7080 C   0  0  0  0  0  0  0  0  0  0  0  0
   45.3960   34.2390   44.8830 N   0  0  0  0  0  0  0  0  0  0  0  0
   43.7660   35.7770   44.2750 N   0  0  0  0  0  0  0  0  0  0  0  0
   47.8230   35.0460   41.5220 C   0  0  0  0  0  0  0  0  0  0  0  0
   47.5120   34.5110   40.4510 O   0  0  0  0  0  0  0  0  0  0  0  0
   48.9070   35.9130   41.7270 O   0  0  0  0  0  0  0  0  0  0  0  0
   45.4560   36.1985   42.1272 H   0  0  0  0  0  0  0  0  0  0  0  0
   46.8815   32.8299   45.4450 H   0  0  0  0  0  0  0  0  0  0  0  0
   43.3931   36.4924   43.6346 H   0  0  0  0  0  0  0  0  0  0  0  0
   43.2388   35.5182   45.1212 H   0  0  0  0  0  0  0  0  0  0  0  0
   49.5040   36.1461   40.9724 H   0  0  0  0  0  0  0  0  0  0  0  0
  1  7  1  0
  1  6  2  0
  2  1  1  0
  3  2  2  0
  3  4  1  0
  4  5  2  0
  5  6  1  0
  8 10  1  0
  8  3  1  0
  9  8  2  0
  2 11  1  0
  5 12  1  0
  7 13  1  0
  7 14  1  0
 10 15  1  0
M  ISO  3  11  14  12  14  15   3
M  END
>  <minimizedAffinity>  (1) 
-4.02489948

>  <minimizedRMSD>  (1) 
1.33599126

$$$$
