
     RDKit          3D

 13 13  0  0  0  0  0  0  0  0999 V2000
   44.9310   35.1440   44.0290 C   0  0  0  0  0  0  0  0  0  0  0  0
   45.7970   35.3560   42.9400 C   0  0  0  0  0  0  0  0  0  0  0  0
   46.9870   34.6040   42.9000 C   0  0  0  0  0  0  0  0  0  0  0  0
   47.2280   33.7230   43.9080 N   0  0  0  0  0  0  0  0  0  0  0  0
   46.3680   33.5590   44.9250 C   0  0  0  0  0  0  0  0  0  0  0  0
   45.2380   34.2620   44.9810 N   0  0  0  0  0  0  0  0  0  0  0  0
   43.7080   35.8300   44.1930 N   0  0  0  0  0  0  0  0  0  0  0  0
   48.0260   34.9200   41.5060 S   0  0  0  0  0  0  0  0  0  0  0  0
   45.5535   36.0817   42.1500 H   0  0  0  0  0  0  0  0  0  0  0  0
   46.5988   32.8360   45.7212 H   0  0  0  0  0  0  0  0  0  0  0  0
   43.4098   36.5253   43.4941 H   0  0  0  0  0  0  0  0  0  0  0  0
   43.1140   35.6351   45.0116 H   0  0  0  0  0  0  0  0  0  0  0  0
   49.2694   35.2982   41.9396 H   0  0  0  0  0  0  0  0  0  0  0  0
  1  7  1  0
  1  6  2  0
  2  1  1  0
  3  2  2  0
  3  4  1  0
  4  5  2  0
  5  6  1  0
  8  3  1  0
  2  9  1  0
  5 10  1  0
  7 11  1  0
  7 12  1  0
  8 13  1  0
M  ISO  3   9  14  10  14  13  11
M  END
>  <minimizedAffinity>  (1) 
-3.53044891

>  <minimizedRMSD>  (1) 
0.745397568

$$$$
