
     RDKit          3D

 24 26  0  0  0  0  0  0  0  0999 V2000
   46.5150   32.8990   43.1140 N   0  0  0  0  0  0  0  0  0  0  0  0
   46.0070   31.7180   42.7230 C   0  0  0  0  0  0  0  0  0  0  0  0
   46.9790   31.0120   42.1300 N   0  0  0  0  0  0  0  0  0  0  0  0
   48.1000   31.7300   42.1390 C   0  0  0  0  0  0  0  0  0  0  0  0
   49.4010   31.5390   41.6870 C   0  0  0  0  0  0  0  0  0  0  0  0
   50.2990   32.5270   41.8820 N   0  0  0  0  0  0  0  0  0  0  0  0
   50.0350   33.6930   42.4830 C   0  0  0  0  0  0  0  0  0  0  0  0
   48.7630   33.8990   42.9350 N   0  0  0  0  0  0  0  0  0  0  0  0
   47.8130   32.9260   42.7610 C   0  0  0  0  0  0  0  0  0  0  0  0
   45.0990   36.2590   43.7400 C   0  0  0  0  0  0  0  0  0  0  0  0
   45.7500   35.1940   43.0710 C   0  0  0  0  0  0  0  0  0  0  0  0
   45.8600   33.9710   43.7850 C   0  0  0  0  0  0  0  0  0  0  0  0
   45.3450   33.8910   45.0410 N   0  0  0  0  0  0  0  0  0  0  0  0
   44.7410   34.9340   45.6190 C   0  0  0  0  0  0  0  0  0  0  0  0
   44.6150   36.1080   44.9800 N   0  0  0  0  0  0  0  0  0  0  0  0
   44.9170   37.5290   43.1550 N   0  0  0  0  0  0  0  0  0  0  0  0
   50.9280   34.7090   42.6920 O   0  0  0  0  0  0  0  0  0  0  0  0
   44.9679   31.3866   42.8658 H   0  0  0  0  0  0  0  0  0  0  0  0
   49.6910   30.6054   41.1828 H   0  0  0  0  0  0  0  0  0  0  0  0
   46.1493   35.3079   42.0524 H   0  0  0  0  0  0  0  0  0  0  0  0
   44.3395   34.8284   46.6377 H   0  0  0  0  0  0  0  0  0  0  0  0
   45.2654   37.7123   42.2032 H   0  0  0  0  0  0  0  0  0  0  0  0
   44.4356   38.2734   43.6795 H   0  0  0  0  0  0  0  0  0  0  0  0
   50.6368   35.5379   43.1483 H   0  0  0  0  0  0  0  0  0  0  0  0
  1 12  1  0
  2  1  1  0
  3  4  1  0
  3  2  2  0
  4  9  2  0
  5  6  2  0
  5  4  1  0
  6  7  1  0
  7 17  1  0
  7  8  2  0
  9  8  1  0
  9  1  1  0
 10 15  2  0
 11 10  1  0
 11 12  2  0
 12 13  1  0
 13 14  2  0
 15 14  1  0
 16 10  1  0
  2 18  1  0
  5 19  1  0
 11 20  1  0
 14 21  1  0
 16 22  1  0
 16 23  1  0
 17 24  1  0
M  ISO  5  18  14  19  14  20  14  21  14  24   3
M  END
>  <minimizedAffinity>  (1) 
-5.10079432

>  <minimizedRMSD>  (1) 
0.764527261

$$$$
