
     RDKit          3D

 34 37  0  0  0  0  0  0  0  0999 V2000
   45.2060   33.7220   41.0180 N   0  0  0  0  0  0  0  0  0  0  0  0
   45.9860   33.8320   39.9210 C   0  0  0  0  0  0  0  0  0  0  0  0
   47.2740   33.6560   40.2840 N   0  0  0  0  0  0  0  0  0  0  0  0
   47.3080   33.4340   41.6140 C   0  0  0  0  0  0  0  0  0  0  0  0
   48.3230   33.1910   42.5330 C   0  0  0  0  0  0  0  0  0  0  0  0
   47.9790   33.0090   43.8200 N   0  0  0  0  0  0  0  0  0  0  0  0
   46.7290   33.0460   44.2860 C   0  0  0  0  0  0  0  0  0  0  0  0
   45.7220   33.2830   43.3990 N   0  0  0  0  0  0  0  0  0  0  0  0
   46.0210   33.4730   42.0830 C   0  0  0  0  0  0  0  0  0  0  0  0
   46.4360   32.8450   45.6620 N   0  0  0  0  0  0  0  0  0  0  0  0
   47.2260   31.9680   46.2930 C   0  0  0  0  0  0  0  0  0  0  0  0
   46.9760   31.7430   47.6370 C   0  0  0  0  0  0  0  0  0  0  0  0
   45.9330   32.4450   48.2030 C   0  0  0  0  0  0  0  0  0  0  0  0
   45.6940   32.1980   49.5830 N   0  0  0  0  0  0  0  0  0  0  0  0
   45.1650   33.3220   47.5150 N   0  0  0  0  0  0  0  0  0  0  0  0
   45.4180   33.5380   46.1930 C   0  0  0  0  0  0  0  0  0  0  0  0
   44.7670   34.3240   45.4800 O   0  0  0  0  0  0  0  0  0  0  0  0
   41.8620   35.2440   41.3590 C   0  0  0  0  0  0  0  0  0  0  0  0
   43.2640   35.1420   41.2550 C   0  0  0  0  0  0  0  0  0  0  0  0
   43.7980   33.8310   41.1240 C   0  0  0  0  0  0  0  0  0  0  0  0
   42.9420   32.7770   41.1070 N   0  0  0  0  0  0  0  0  0  0  0  0
   41.6170   32.9410   41.2110 C   0  0  0  0  0  0  0  0  0  0  0  0
   41.0790   34.1570   41.3360 N   0  0  0  0  0  0  0  0  0  0  0  0
   41.1880   36.4760   41.4960 N   0  0  0  0  0  0  0  0  0  0  0  0
   45.6301   34.0321   38.8996 H   0  0  0  0  0  0  0  0  0  0  0  0
   49.3757   33.1489   42.2165 H   0  0  0  0  0  0  0  0  0  0  0  0
   48.0397   31.4477   45.7665 H   0  0  0  0  0  0  0  0  0  0  0  0
   47.5813   31.0374   48.2250 H   0  0  0  0  0  0  0  0  0  0  0  0
   44.9301   32.6888   50.0693 H   0  0  0  0  0  0  0  0  0  0  0  0
   46.2848   31.5283   50.0962 H   0  0  0  0  0  0  0  0  0  0  0  0
   43.9116   36.0310   41.2742 H   0  0  0  0  0  0  0  0  0  0  0  0
   40.9602   32.0588   41.1932 H   0  0  0  0  0  0  0  0  0  0  0  0
   40.1607   36.4958   41.5682 H   0  0  0  0  0  0  0  0  0  0  0  0
   41.7233   37.3556   41.5238 H   0  0  0  0  0  0  0  0  0  0  0  0
  1 20  1  0
  1  9  1  0
  2  3  2  0
  2  1  1  0
  3  4  1  0
  4  9  2  0
  4  5  1  0
  5  6  2  0
  6  7  1  0
  7 10  1  0
  8  7  2  0
  9  8  1  0
 10 16  1  0
 10 11  1  0
 11 12  2  0
 12 13  1  0
 13 14  1  0
 15 13  2  0
 16 15  1  0
 17 16  2  0
 18 24  1  0
 19 18  2  0
 20 19  1  0
 21 20  2  0
 21 22  1  0
 22 23  2  0
 23 18  1  0
  2 25  1  0
  5 26  1  0
 11 27  1  0
 12 28  1  0
 14 29  1  0
 14 30  1  0
 19 31  1  0
 22 32  1  0
 24 33  1  0
 24 34  1  0
M  ISO  6  25  14  26  14  27  14  28  14  31  14  32  14
M  END
>  <minimizedAffinity>  (1) 
-6.16112089

>  <minimizedRMSD>  (1) 
5.9894619

$$$$
