
     RDKit          3D

 26 28  0  0  0  0  0  0  0  0999 V2000
   46.1460   32.3100   43.8930 N   0  0  0  0  0  0  0  0  0  0  0  0
   45.6560   31.0630   44.0600 C   0  0  0  0  0  0  0  0  0  0  0  0
   46.6140   30.1830   43.7130 N   0  0  0  0  0  0  0  0  0  0  0  0
   47.6980   30.8600   43.3310 C   0  0  0  0  0  0  0  0  0  0  0  0
   48.9810   30.5240   42.8720 C   0  0  0  0  0  0  0  0  0  0  0  0
   49.8390   31.5070   42.5730 N   0  0  0  0  0  0  0  0  0  0  0  0
   49.5600   32.8170   42.6820 C   0  0  0  0  0  0  0  0  0  0  0  0
   48.3240   33.1770   43.1240 N   0  0  0  0  0  0  0  0  0  0  0  0
   47.4150   32.1980   43.4410 C   0  0  0  0  0  0  0  0  0  0  0  0
   44.3340   35.4570   43.2070 C   0  0  0  0  0  0  0  0  0  0  0  0
   44.9850   34.2250   43.0000 C   0  0  0  0  0  0  0  0  0  0  0  0
   45.4990   33.5420   44.1320 C   0  0  0  0  0  0  0  0  0  0  0  0
   45.3330   34.1120   45.3510 N   0  0  0  0  0  0  0  0  0  0  0  0
   44.7050   35.2890   45.5010 C   0  0  0  0  0  0  0  0  0  0  0  0
   44.2150   35.9510   44.4670 N   0  0  0  0  0  0  0  0  0  0  0  0
   43.7830   36.2310   42.1760 N   0  0  0  0  0  0  0  0  0  0  0  0
   50.5500   33.8800   42.3350 C   0  0  0  0  0  0  0  0  0  0  0  0
   44.6473   30.8096   44.4181 H   0  0  0  0  0  0  0  0  0  0  0  0
   49.2766   29.4704   42.7598 H   0  0  0  0  0  0  0  0  0  0  0  0
   45.0917   33.8045   41.9891 H   0  0  0  0  0  0  0  0  0  0  0  0
   44.5954   35.7133   46.5099 H   0  0  0  0  0  0  0  0  0  0  0  0
   43.8430   35.9068   41.2002 H   0  0  0  0  0  0  0  0  0  0  0  0
   43.3182   37.1238   42.3944 H   0  0  0  0  0  0  0  0  0  0  0  0
   50.9573   34.3173   43.2585 H   0  0  0  0  0  0  0  0  0  0  0  0
   51.3682   33.4407   41.7455 H   0  0  0  0  0  0  0  0  0  0  0  0
   50.0537   34.6649   41.7455 H   0  0  0  0  0  0  0  0  0  0  0  0
  1  2  1  0
  1 12  1  0
  3  2  2  0
  4  9  2  0
  4  3  1  0
  5  4  1  0
  6  7  1  0
  6  5  2  0
  7  8  2  0
  8  9  1  0
  9  1  1  0
 10 15  2  0
 11 10  1  0
 11 12  2  0
 12 13  1  0
 13 14  2  0
 15 14  1  0
 16 10  1  0
 17  7  1  0
  2 18  1  0
  5 19  1  0
 11 20  1  0
 14 21  1  0
 16 22  1  0
 16 23  1  0
 17 24  1  0
 17 25  1  0
 17 26  1  0
M  ISO  7  18  14  19  14  20  14  21  14  24   8  25   8  26   8
M  END
>  <minimizedAffinity>  (1) 
-4.3654213

>  <minimizedRMSD>  (1) 
1.475245

$$$$
