
     RDKit          3D

 30 33  0  0  0  0  0  0  0  0999 V2000
   46.0750   32.3520   45.3480 N   0  0  0  0  0  0  0  0  0  0  0  0
   45.7530   31.7060   46.4880 C   0  0  0  0  0  0  0  0  0  0  0  0
   46.5840   30.6610   46.6240 N   0  0  0  0  0  0  0  0  0  0  0  0
   47.4340   30.6390   45.5750 C   0  0  0  0  0  0  0  0  0  0  0  0
   48.4770   29.8150   45.1910 C   0  0  0  0  0  0  0  0  0  0  0  0
   49.1210   30.1150   44.0370 N   0  0  0  0  0  0  0  0  0  0  0  0
   48.8190   31.1510   43.2440 C   0  0  0  0  0  0  0  0  0  0  0  0
   47.7860   31.9690   43.6210 N   0  0  0  0  0  0  0  0  0  0  0  0
   47.1130   31.7090   44.7660 C   0  0  0  0  0  0  0  0  0  0  0  0
   44.5490   34.6150   42.8660 C   0  0  0  0  0  0  0  0  0  0  0  0
   45.1450   33.4650   43.4060 C   0  0  0  0  0  0  0  0  0  0  0  0
   45.4710   33.5160   44.7930 C   0  0  0  0  0  0  0  0  0  0  0  0
   45.1930   34.6490   45.4980 N   0  0  0  0  0  0  0  0  0  0  0  0
   44.6220   35.7100   44.9140 C   0  0  0  0  0  0  0  0  0  0  0  0
   44.3010   35.7090   43.6300 N   0  0  0  0  0  0  0  0  0  0  0  0
   44.1760   34.6960   41.5010 N   0  0  0  0  0  0  0  0  0  0  0  0
   49.5830   31.3770   42.0220 C   0  0  0  0  0  0  0  0  0  0  0  0
   50.9420   31.6790   42.1630 C   0  0  0  0  0  0  0  0  0  0  0  0
   51.4730   31.8530   40.9020 C   0  0  0  0  0  0  0  0  0  0  0  0
   50.3900   31.6430   40.0440 C   0  0  0  0  0  0  0  0  0  0  0  0
   49.3060   31.3680   40.7310 O   0  0  0  0  0  0  0  0  0  0  0  0
   44.9493   31.9869   47.1846 H   0  0  0  0  0  0  0  0  0  0  0  0
   48.7727   28.9481   45.8001 H   0  0  0  0  0  0  0  0  0  0  0  0
   45.3492   32.5743   42.7936 H   0  0  0  0  0  0  0  0  0  0  0  0
   44.4142   36.6061   45.5173 H   0  0  0  0  0  0  0  0  0  0  0  0
   43.7404   35.5551   41.1363 H   0  0  0  0  0  0  0  0  0  0  0  0
   44.3405   33.8957   40.8738 H   0  0  0  0  0  0  0  0  0  0  0  0
   51.4905   31.7629   43.1128 H   0  0  0  0  0  0  0  0  0  0  0  0
   52.5106   32.1003   40.6333 H   0  0  0  0  0  0  0  0  0  0  0  0
   50.4392   31.7002   38.9466 H   0  0  0  0  0  0  0  0  0  0  0  0
  1  2  1  0
  2  3  2  0
  4  3  1  0
  5  4  2  0
  6  5  1  0
  7  8  1  0
  7  6  2  0
  8  9  2  0
  9  1  1  0
  9  4  1  0
 10 11  2  0
 10 15  1  0
 11 12  1  0
 12  1  1  0
 12 13  2  0
 14 13  1  0
 15 14  2  0
 16 10  1  0
 17 18  2  0
 17  7  1  0
 19 18  1  0
 20 21  1  0
 20 19  2  0
 21 17  1  0
  2 22  1  0
  5 23  1  0
 11 24  1  0
 14 25  1  0
 16 26  1  0
 16 27  1  0
 18 28  1  0
 19 29  1  0
 20 30  1  0
M  ISO  7  22  14  23  14  24  14  25  14  28  14  29  14  30  14
M  END
>  <minimizedAffinity>  (1) 
-4.49912739

>  <minimizedRMSD>  (1) 
3.60229635

$$$$
