
     RDKit          3D

 31 34  0  0  0  0  0  0  0  0999 V2000
   43.7600   33.3930   39.5040 N   0  0  0  0  0  0  0  0  0  0  0  0
   44.3230   33.2940   38.2860 C   0  0  0  0  0  0  0  0  0  0  0  0
   45.6360   33.0590   38.4400 N   0  0  0  0  0  0  0  0  0  0  0  0
   45.9130   33.0080   39.7590 C   0  0  0  0  0  0  0  0  0  0  0  0
   47.0640   32.8020   40.4980 C   0  0  0  0  0  0  0  0  0  0  0  0
   46.9520   32.8200   41.8460 N   0  0  0  0  0  0  0  0  0  0  0  0
   45.8060   33.0250   42.5150 C   0  0  0  0  0  0  0  0  0  0  0  0
   44.6700   33.2290   41.8020 N   0  0  0  0  0  0  0  0  0  0  0  0
   44.7380   33.2180   40.4310 C   0  0  0  0  0  0  0  0  0  0  0  0
   40.6750   35.2240   40.3620 C   0  0  0  0  0  0  0  0  0  0  0  0
   42.0220   34.9800   40.0340 C   0  0  0  0  0  0  0  0  0  0  0  0
   42.4020   33.6360   39.8340 C   0  0  0  0  0  0  0  0  0  0  0  0
   41.4600   32.6590   39.9660 N   0  0  0  0  0  0  0  0  0  0  0  0
   40.1860   32.9480   40.2810 C   0  0  0  0  0  0  0  0  0  0  0  0
   39.7960   34.2180   40.4780 N   0  0  0  0  0  0  0  0  0  0  0  0
   40.1450   36.5020   40.5920 N   0  0  0  0  0  0  0  0  0  0  0  0
   45.7750   33.0290   43.9730 C   0  0  0  0  0  0  0  0  0  0  0  0
   45.3160   34.1500   44.6330 C   0  0  0  0  0  0  0  0  0  0  0  0
   45.2950   34.1370   46.0110 C   0  0  0  0  0  0  0  0  0  0  0  0
   45.7170   33.0370   46.6980 N   0  0  0  0  0  0  0  0  0  0  0  0
   46.1490   31.9870   46.0130 C   0  0  0  0  0  0  0  0  0  0  0  0
   46.1850   31.9630   44.6510 N   0  0  0  0  0  0  0  0  0  0  0  0
   43.7960   33.3896   37.3252 H   0  0  0  0  0  0  0  0  0  0  0  0
   48.0337   32.6300   40.0081 H   0  0  0  0  0  0  0  0  0  0  0  0
   42.7470   35.8016   39.9378 H   0  0  0  0  0  0  0  0  0  0  0  0
   39.4529   32.1337   40.3788 H   0  0  0  0  0  0  0  0  0  0  0  0
   40.7520   37.3313   40.5233 H   0  0  0  0  0  0  0  0  0  0  0  0
   39.1488   36.6113   40.8296 H   0  0  0  0  0  0  0  0  0  0  0  0
   44.9749   35.0331   44.0729 H   0  0  0  0  0  0  0  0  0  0  0  0
   44.9355   35.0196   46.5603 H   0  0  0  0  0  0  0  0  0  0  0  0
   46.4919   31.1002   46.5661 H   0  0  0  0  0  0  0  0  0  0  0  0
  1 12  1  0
  1  9  1  0
  2  3  2  0
  2  1  1  0
  3  4  1  0
  4  9  2  0
  4  5  1  0
  5  6  2  0
  6  7  1  0
  7 17  1  0
  8  7  2  0
  9  8  1  0
 10 15  2  0
 10 16  1  0
 11 10  1  0
 12 13  1  0
 12 11  2  0
 13 14  2  0
 14 15  1  0
 17 18  2  0
 17 22  1  0
 18 19  1  0
 19 20  2  0
 21 20  1  0
 22 21  2  0
  2 23  1  0
  5 24  1  0
 11 25  1  0
 14 26  1  0
 16 27  1  0
 16 28  1  0
 18 29  1  0
 19 30  1  0
 21 31  1  0
M  ISO  7  23  14  24  14  25  14  26  14  29  14  30  14  31  14
M  END
>  <minimizedAffinity>  (1) 
-4.75283957

>  <minimizedRMSD>  (1) 
6.1792345

$$$$
