
     RDKit          3D

 31 34  0  0  0  0  0  0  0  0999 V2000
   44.4580   33.1470   41.5060 N   0  0  0  0  0  0  0  0  0  0  0  0
   45.0050   33.7340   40.4440 C   0  0  0  0  0  0  0  0  0  0  0  0
   46.2750   34.0690   40.7360 N   0  0  0  0  0  0  0  0  0  0  0  0
   46.5300   33.6910   41.9900 C   0  0  0  0  0  0  0  0  0  0  0  0
   47.6350   33.7590   42.8480 C   0  0  0  0  0  0  0  0  0  0  0  0
   47.5160   33.2510   44.0980 N   0  0  0  0  0  0  0  0  0  0  0  0
   46.4070   32.6870   44.5710 C   0  0  0  0  0  0  0  0  0  0  0  0
   45.3150   32.6050   43.7630 N   0  0  0  0  0  0  0  0  0  0  0  0
   45.3860   33.1010   42.5000 C   0  0  0  0  0  0  0  0  0  0  0  0
   40.7680   33.0540   41.7460 C   0  0  0  0  0  0  0  0  0  0  0  0
   42.0690   33.5590   41.5950 C   0  0  0  0  0  0  0  0  0  0  0  0
   43.1350   32.6250   41.6620 C   0  0  0  0  0  0  0  0  0  0  0  0
   42.8350   31.3210   41.8650 N   0  0  0  0  0  0  0  0  0  0  0  0
   41.5790   30.8960   42.0020 C   0  0  0  0  0  0  0  0  0  0  0  0
   40.5520   31.7310   41.9470 N   0  0  0  0  0  0  0  0  0  0  0  0
   39.6070   33.8720   41.7020 N   0  0  0  0  0  0  0  0  0  0  0  0
   46.3470   32.1600   45.9300 C   0  0  0  0  0  0  0  0  0  0  0  0
   46.9460   30.9430   46.2190 C   0  0  0  0  0  0  0  0  0  0  0  0
   46.8550   30.4970   47.5220 C   0  0  0  0  0  0  0  0  0  0  0  0
   46.2050   31.2510   48.4250 N   0  0  0  0  0  0  0  0  0  0  0  0
   45.6310   32.4310   48.1240 C   0  0  0  0  0  0  0  0  0  0  0  0
   45.7110   32.8740   46.8630 N   0  0  0  0  0  0  0  0  0  0  0  0
   44.5006   33.9157   39.4835 H   0  0  0  0  0  0  0  0  0  0  0  0
   48.5787   34.2149   42.5140 H   0  0  0  0  0  0  0  0  0  0  0  0
   42.2538   34.6310   41.4320 H   0  0  0  0  0  0  0  0  0  0  0  0
   41.3905   29.8246   42.1649 H   0  0  0  0  0  0  0  0  0  0  0  0
   39.6975   34.8871   41.5524 H   0  0  0  0  0  0  0  0  0  0  0  0
   38.6749   33.4499   41.8197 H   0  0  0  0  0  0  0  0  0  0  0  0
   47.4690   30.3606   45.4462 H   0  0  0  0  0  0  0  0  0  0  0  0
   47.3077   29.5388   47.8170 H   0  0  0  0  0  0  0  0  0  0  0  0
   45.1091   33.0168   48.8950 H   0  0  0  0  0  0  0  0  0  0  0  0
  1 12  1  0
  1  9  1  0
  2  3  2  0
  2  1  1  0
  3  4  1  0
  4  9  2  0
  4  5  1  0
  5  6  2  0
  6  7  1  0
  7 17  1  0
  8  7  2  0
  9  8  1  0
 10 15  2  0
 11 12  2  0
 11 10  1  0
 12 13  1  0
 13 14  2  0
 15 14  1  0
 16 10  1  0
 17 18  2  0
 17 22  1  0
 18 19  1  0
 19 20  2  0
 21 20  1  0
 22 21  2  0
  2 23  1  0
  5 24  1  0
 11 25  1  0
 14 26  1  0
 16 27  1  0
 16 28  1  0
 18 29  1  0
 19 30  1  0
 21 31  1  0
M  ISO  7  23  14  24  14  25  14  26  14  29  14  30  14  31  14
M  END
>  <minimizedAffinity>  (1) 
-4.76194954

>  <minimizedRMSD>  (1) 
6.20949984

$$$$
