
     RDKit          3D

 36 39  0  0  0  0  0  0  0  0999 V2000
   47.4110   34.1390   42.7180 N   0  0  0  0  0  0  0  0  0  0  0  0
   48.7160   34.4120   42.6980 C   0  0  0  0  0  0  0  0  0  0  0  0
   49.2650   33.8830   41.5890 N   0  0  0  0  0  0  0  0  0  0  0  0
   48.2930   33.2640   40.8970 C   0  0  0  0  0  0  0  0  0  0  0  0
   48.2250   32.5490   39.7000 C   0  0  0  0  0  0  0  0  0  0  0  0
   47.0280   32.0600   39.3120 N   0  0  0  0  0  0  0  0  0  0  0  0
   45.8860   32.2090   39.9940 C   0  0  0  0  0  0  0  0  0  0  0  0
   45.9400   32.9020   41.1580 N   0  0  0  0  0  0  0  0  0  0  0  0
   47.1200   33.4240   41.6070 C   0  0  0  0  0  0  0  0  0  0  0  0
   45.4110   34.0530   45.8180 C   0  0  0  0  0  0  0  0  0  0  0  0
   46.3750   33.7060   44.8600 C   0  0  0  0  0  0  0  0  0  0  0  0
   46.4370   34.4900   43.6840 C   0  0  0  0  0  0  0  0  0  0  0  0
   45.5620   35.5340   43.5480 N   0  0  0  0  0  0  0  0  0  0  0  0
   44.6600   35.8210   44.4930 C   0  0  0  0  0  0  0  0  0  0  0  0
   44.5730   35.0980   45.6220 N   0  0  0  0  0  0  0  0  0  0  0  0
   45.2310   33.3700   47.0290 N   0  0  0  0  0  0  0  0  0  0  0  0
   42.2880   30.5600   38.7020 C   0  0  0  0  0  0  0  0  0  0  0  0
   43.2040   30.9870   37.7660 C   0  0  0  0  0  0  0  0  0  0  0  0
   44.4010   31.5360   38.1460 C   0  0  0  0  0  0  0  0  0  0  0  0
   44.6610   31.6480   39.4930 C   0  0  0  0  0  0  0  0  0  0  0  0
   43.7330   31.2160   40.4400 C   0  0  0  0  0  0  0  0  0  0  0  0
   42.5290   30.6640   40.0630 C   0  0  0  0  0  0  0  0  0  0  0  0
   40.7740   29.8660   38.1920 S   0  0  0  0  0  0  0  0  0  0  0  0
   39.7590   29.9160   39.2830 O   0  0  0  0  0  0  0  0  0  0  0  0
   40.2750   30.6290   36.9720 O   0  0  0  0  0  0  0  0  0  0  0  0
   49.2588   34.9806   43.4675 H   0  0  0  0  0  0  0  0  0  0  0  0
   49.1247   32.3880   39.0879 H   0  0  0  0  0  0  0  0  0  0  0  0
   47.0565   32.8570   45.0170 H   0  0  0  0  0  0  0  0  0  0  0  0
   43.9742   36.6678   44.3424 H   0  0  0  0  0  0  0  0  0  0  0  0
   44.5033   33.6769   47.6901 H   0  0  0  0  0  0  0  0  0  0  0  0
   45.8265   32.5613   47.2576 H   0  0  0  0  0  0  0  0  0  0  0  0
   42.9709   30.8857   36.6958 H   0  0  0  0  0  0  0  0  0  0  0  0
   45.1315   31.8767   37.3974 H   0  0  0  0  0  0  0  0  0  0  0  0
   43.9675   31.3182   41.5099 H   0  0  0  0  0  0  0  0  0  0  0  0
   41.7938   30.3220   40.8063 H   0  0  0  0  0  0  0  0  0  0  0  0
   40.9707   28.5475   37.8762 H   0  0  0  0  0  0  0  0  0  0  0  0
  1 12  1  0
  2  1  1  0
  3  2  2  0
  4  3  1  0
  4  9  2  0
  5  4  1  0
  6  5  2  0
  6  7  1  0
  7  8  2  0
  8  9  1  0
  9  1  1  0
 10 16  1  0
 11 10  2  0
 12 11  1  0
 13 12  2  0
 13 14  1  0
 14 15  2  0
 15 10  1  0
 17 22  2  0
 18 19  2  0
 18 17  1  0
 19 20  1  0
 20  7  1  0
 20 21  2  0
 22 21  1  0
 23 17  1  0
 23 24  2  0
 25 23  2  0
  2 26  1  0
  5 27  1  0
 11 28  1  0
 14 29  1  0
 16 30  1  0
 16 31  1  0
 18 32  1  0
 19 33  1  0
 21 34  1  0
 22 35  1  0
 23 36  1  0
M  ISO  8  26  14  27  14  28  14  29  14  32  14  33  14  34  14  35  14
M  ISO  1  36  11
M  END
>  <minimizedAffinity>  (1) 
-4.86375761

>  <minimizedRMSD>  (1) 
8.32611942

$$$$
