
     RDKit          3D

 42 45  0  0  0  0  0  0  0  0999 V2000
   47.5560   30.4650   45.4800 N   0  0  0  0  0  0  0  0  0  0  0  0
   47.9230   29.1790   45.2880 C   0  0  0  0  0  0  0  0  0  0  0  0
   48.3520   29.0520   44.0120 N   0  0  0  0  0  0  0  0  0  0  0  0
   48.2590   30.2360   43.4080 C   0  0  0  0  0  0  0  0  0  0  0  0
   48.5370   30.7320   42.1370 C   0  0  0  0  0  0  0  0  0  0  0  0
   48.3050   32.0320   41.8830 N   0  0  0  0  0  0  0  0  0  0  0  0
   47.8210   32.9040   42.7650 C   0  0  0  0  0  0  0  0  0  0  0  0
   47.5370   32.4540   44.0160 N   0  0  0  0  0  0  0  0  0  0  0  0
   47.7550   31.1430   44.3210 C   0  0  0  0  0  0  0  0  0  0  0  0
   45.5550   32.6670   47.6660 C   0  0  0  0  0  0  0  0  0  0  0  0
   46.0790   32.0670   46.5150 C   0  0  0  0  0  0  0  0  0  0  0  0
   47.0490   31.0470   46.6560 C   0  0  0  0  0  0  0  0  0  0  0  0
   47.4090   30.7190   47.9160 N   0  0  0  0  0  0  0  0  0  0  0  0
   46.8970   31.3020   49.0080 C   0  0  0  0  0  0  0  0  0  0  0  0
   45.9770   32.2700   48.8870 N   0  0  0  0  0  0  0  0  0  0  0  0
   44.5850   33.6920   47.6560 N   0  0  0  0  0  0  0  0  0  0  0  0
   47.6220   34.2920   42.3420 C   0  0  0  0  0  0  0  0  0  0  0  0
   46.4070   34.9330   42.9580 C   0  0  0  0  0  0  0  0  0  0  0  0
   43.0690   34.7470   40.2290 C   0  0  0  0  0  0  0  0  0  0  0  0
   43.0170   35.5290   41.3420 C   0  0  0  0  0  0  0  0  0  0  0  0
   44.0580   35.6190   42.2400 C   0  0  0  0  0  0  0  0  0  0  0  0
   45.2320   34.9090   42.0590 C   0  0  0  0  0  0  0  0  0  0  0  0
   45.2860   34.1080   40.9200 C   0  0  0  0  0  0  0  0  0  0  0  0
   44.2310   34.0330   40.0340 C   0  0  0  0  0  0  0  0  0  0  0  0
   41.7740   34.6100   39.0780 S   0  0  0  0  0  0  0  0  0  0  0  0
   40.9270   33.4100   39.3480 O   0  0  0  0  0  0  0  0  0  0  0  0
   40.8900   35.8230   39.1420 O   0  0  0  0  0  0  0  0  0  0  0  0
   47.8803   28.3758   46.0384 H   0  0  0  0  0  0  0  0  0  0  0  0
   48.9394   30.0720   41.3544 H   0  0  0  0  0  0  0  0  0  0  0  0
   45.7419   32.3835   45.5169 H   0  0  0  0  0  0  0  0  0  0  0  0
   47.2322   30.9857   50.0068 H   0  0  0  0  0  0  0  0  0  0  0  0
   44.2175   34.0445   46.7607 H   0  0  0  0  0  0  0  0  0  0  0  0
   44.2446   34.0876   48.5440 H   0  0  0  0  0  0  0  0  0  0  0  0
   48.5088   34.8756   42.6302 H   0  0  0  0  0  0  0  0  0  0  0  0
   47.4688   34.2823   41.2528 H   0  0  0  0  0  0  0  0  0  0  0  0
   46.1543   34.3927   43.8822 H   0  0  0  0  0  0  0  0  0  0  0  0
   46.6518   35.9867   43.1573 H   0  0  0  0  0  0  0  0  0  0  0  0
   42.1051   36.1139   41.5325 H   0  0  0  0  0  0  0  0  0  0  0  0
   43.9536   36.2698   43.1206 H   0  0  0  0  0  0  0  0  0  0  0  0
   46.1941   33.5197   40.7219 H   0  0  0  0  0  0  0  0  0  0  0  0
   44.3200   33.3862   39.1487 H   0  0  0  0  0  0  0  0  0  0  0  0
   42.3480   34.4943   37.8394 H   0  0  0  0  0  0  0  0  0  0  0  0
  1 12  1  0
  2  1  1  0
  3  2  2  0
  4  3  1  0
  4  9  2  0
  5  4  1  0
  6  5  2  0
  6  7  1  0
  7  8  2  0
  8  9  1  0
  9  1  1  0
 10 15  2  0
 11 12  2  0
 11 10  1  0
 12 13  1  0
 13 14  2  0
 15 14  1  0
 16 10  1  0
 17  7  1  0
 17 18  1  0
 19 20  2  0
 20 21  1  0
 22 21  2  0
 22 18  1  0
 23 22  1  0
 24 19  1  0
 24 23  2  0
 25 27  2  0
 25 26  2  0
 25 19  1  0
  2 28  1  0
  5 29  1  0
 11 30  1  0
 14 31  1  0
 16 32  1  0
 16 33  1  0
 17 34  1  0
 17 35  1  0
 18 36  1  0
 18 37  1  0
 20 38  1  0
 21 39  1  0
 23 40  1  0
 24 41  1  0
 25 42  1  0
M  ISO  8  28  14  29  14  30  14  31  14  34   8  35   8  36   8  37   8
M  ISO  5  38  14  39  14  40  14  41  14  42  11
M  END
>  <minimizedAffinity>  (1) 
-6.11882782

>  <minimizedRMSD>  (1) 
5.90143156

$$$$
