
     RDKit          3D

 29 31  0  0  0  0  0  0  0  0999 V2000
   46.8550   32.0120   44.4780 N   0  0  0  0  0  0  0  0  0  0  0  0
   46.7660   30.6660   44.3880 C   0  0  0  0  0  0  0  0  0  0  0  0
   47.7170   30.2380   43.5360 N   0  0  0  0  0  0  0  0  0  0  0  0
   48.4020   31.2940   43.0890 C   0  0  0  0  0  0  0  0  0  0  0  0
   49.4660   31.4920   42.2170 C   0  0  0  0  0  0  0  0  0  0  0  0
   49.9000   32.7390   42.0040 N   0  0  0  0  0  0  0  0  0  0  0  0
   49.3870   33.8400   42.5710 C   0  0  0  0  0  0  0  0  0  0  0  0
   48.3410   33.6740   43.4310 N   0  0  0  0  0  0  0  0  0  0  0  0
   47.8680   32.4280   43.6780 C   0  0  0  0  0  0  0  0  0  0  0  0
   44.6860   34.8650   45.3440 C   0  0  0  0  0  0  0  0  0  0  0  0
   45.4750   33.9880   44.5970 C   0  0  0  0  0  0  0  0  0  0  0  0
   46.0600   32.8880   45.2560 C   0  0  0  0  0  0  0  0  0  0  0  0
   45.8170   32.7510   46.5750 N   0  0  0  0  0  0  0  0  0  0  0  0
   45.0560   33.6020   47.2720 C   0  0  0  0  0  0  0  0  0  0  0  0
   44.4930   34.6520   46.6650 N   0  0  0  0  0  0  0  0  0  0  0  0
   44.0420   36.0070   44.8050 N   0  0  0  0  0  0  0  0  0  0  0  0
   49.9810   35.1430   42.2310 C   0  0  0  0  0  0  0  0  0  0  0  0
   49.0710   36.0200   41.4290 C   0  0  0  0  0  0  0  0  0  0  0  0
   46.0420   30.0304   44.9189 H   0  0  0  0  0  0  0  0  0  0  0  0
   49.9423   30.6390   41.7115 H   0  0  0  0  0  0  0  0  0  0  0  0
   45.6360   34.1515   43.5212 H   0  0  0  0  0  0  0  0  0  0  0  0
   44.8929   33.4376   48.3474 H   0  0  0  0  0  0  0  0  0  0  0  0
   44.1444   36.2321   43.8051 H   0  0  0  0  0  0  0  0  0  0  0  0
   43.4717   36.6117   45.4132 H   0  0  0  0  0  0  0  0  0  0  0  0
   50.2343   35.6652   43.1654 H   0  0  0  0  0  0  0  0  0  0  0  0
   50.8684   34.9438   41.6123 H   0  0  0  0  0  0  0  0  0  0  0  0
   48.4480   36.6204   42.1082 H   0  0  0  0  0  0  0  0  0  0  0  0
   49.6714   36.6887   40.7947 H   0  0  0  0  0  0  0  0  0  0  0  0
   48.4249   35.3953   40.7947 H   0  0  0  0  0  0  0  0  0  0  0  0
  1 12  1  0
  2  1  1  0
  3  2  2  0
  4  3  1  0
  4  9  2  0
  5  4  1  0
  6  5  2  0
  6  7  1  0
  7  8  2  0
  8  9  1  0
  9  1  1  0
 10 15  2  0
 11 12  2  0
 11 10  1  0
 12 13  1  0
 13 14  2  0
 15 14  1  0
 16 10  1  0
 17  7  1  0
 18 17  1  0
  2 19  1  0
  5 20  1  0
 11 21  1  0
 14 22  1  0
 16 23  1  0
 16 24  1  0
 17 25  1  0
 17 26  1  0
 18 27  1  0
 18 28  1  0
 18 29  1  0
M  ISO  8  19  14  20  14  21  14  22  14  25   8  26   8  27   8  28   8
M  ISO  1  29   8
M  END
>  <minimizedAffinity>  (1) 
-4.56774855

>  <minimizedRMSD>  (1) 
1.54186916

$$$$
