
     RDKit          3D

 43 47  0  0  0  0  0  0  0  0999 V2000
   47.9350   31.2920   43.5210 N   0  0  0  0  0  0  0  0  0  0  0  0
   49.0560   30.5460   43.5040 C   0  0  0  0  0  0  0  0  0  0  0  0
   49.4480   30.4230   42.2120 N   0  0  0  0  0  0  0  0  0  0  0  0
   48.5860   31.0790   41.4330 C   0  0  0  0  0  0  0  0  0  0  0  0
   48.4720   31.2990   40.0730 C   0  0  0  0  0  0  0  0  0  0  0  0
   47.4390   32.0340   39.6280 N   0  0  0  0  0  0  0  0  0  0  0  0
   46.4930   32.5810   40.4040 C   0  0  0  0  0  0  0  0  0  0  0  0
   46.5910   32.3740   41.7510 N   0  0  0  0  0  0  0  0  0  0  0  0
   47.6190   31.6380   42.2400 C   0  0  0  0  0  0  0  0  0  0  0  0
   45.6820   31.0690   46.4270 C   0  0  0  0  0  0  0  0  0  0  0  0
   46.4420   30.6980   45.3220 C   0  0  0  0  0  0  0  0  0  0  0  0
   47.1690   31.6850   44.6380 C   0  0  0  0  0  0  0  0  0  0  0  0
   47.0800   32.9460   45.1090 N   0  0  0  0  0  0  0  0  0  0  0  0
   46.3480   33.2930   46.1710 C   0  0  0  0  0  0  0  0  0  0  0  0
   45.6470   32.3510   46.8310 N   0  0  0  0  0  0  0  0  0  0  0  0
   44.9050   30.1740   47.2010 N   0  0  0  0  0  0  0  0  0  0  0  0
   45.4180   33.3620   39.7830 C   0  0  0  0  0  0  0  0  0  0  0  0
   44.6490   34.1980   40.7710 C   0  0  0  0  0  0  0  0  0  0  0  0
   43.3240   33.6700   41.0830 C   0  0  0  0  0  0  0  0  0  0  0  0
   42.9580   32.5580   41.7820 C   0  0  0  0  0  0  0  0  0  0  0  0
   41.6200   32.4190   41.8480 N   0  0  0  0  0  0  0  0  0  0  0  0
   41.0620   33.4660   41.1760 C   0  0  0  0  0  0  0  0  0  0  0  0
   39.7680   33.8770   40.8940 C   0  0  0  0  0  0  0  0  0  0  0  0
   39.5670   35.0200   40.1690 C   0  0  0  0  0  0  0  0  0  0  0  0
   40.5730   35.8220   39.6770 C   0  0  0  0  0  0  0  0  0  0  0  0
   41.8480   35.3740   39.9810 C   0  0  0  0  0  0  0  0  0  0  0  0
   42.1150   34.2240   40.7130 C   0  0  0  0  0  0  0  0  0  0  0  0
   49.5622   30.1144   44.3801 H   0  0  0  0  0  0  0  0  0  0  0  0
   49.2097   30.8821   39.3716 H   0  0  0  0  0  0  0  0  0  0  0  0
   46.4726   29.6497   44.9903 H   0  0  0  0  0  0  0  0  0  0  0  0
   46.3178   34.3408   46.5043 H   0  0  0  0  0  0  0  0  0  0  0  0
   44.8773   29.1734   46.9581 H   0  0  0  0  0  0  0  0  0  0  0  0
   44.3673   30.5234   48.0071 H   0  0  0  0  0  0  0  0  0  0  0  0
   45.8608   34.0297   39.0293 H   0  0  0  0  0  0  0  0  0  0  0  0
   44.7102   32.6484   39.3361 H   0  0  0  0  0  0  0  0  0  0  0  0
   45.2289   34.2536   41.7041 H   0  0  0  0  0  0  0  0  0  0  0  0
   44.5003   35.1851   40.3089 H   0  0  0  0  0  0  0  0  0  0  0  0
   43.6719   31.8566   42.2385 H   0  0  0  0  0  0  0  0  0  0  0  0
   41.1103   31.6590   42.3208 H   0  0  0  0  0  0  0  0  0  0  0  0
   38.9096   33.2887   41.2504 H   0  0  0  0  0  0  0  0  0  0  0  0
   38.5285   35.3196   39.9646 H   0  0  0  0  0  0  0  0  0  0  0  0
   40.3812   36.7357   39.0953 H   0  0  0  0  0  0  0  0  0  0  0  0
   42.7023   35.9657   39.6203 H   0  0  0  0  0  0  0  0  0  0  0  0
  1 12  1  0
  2  1  1  0
  3  2  2  0
  4  3  1  0
  4  9  2  0
  5  4  1  0
  6  5  2  0
  6  7  1  0
  7  8  2  0
  8  9  1  0
  9  1  1  0
 10 15  2  0
 10 16  1  0
 11 10  1  0
 12 13  1  0
 12 11  2  0
 13 14  2  0
 14 15  1  0
 17  7  1  0
 17 18  1  0
 18 19  1  0
 19 20  2  0
 20 21  1  0
 22 21  1  0
 23 22  2  0
 24 23  1  0
 25 26  1  0
 25 24  2  0
 26 27  2  0
 27 19  1  0
 27 22  1  0
  2 28  1  0
  5 29  1  0
 11 30  1  0
 14 31  1  0
 16 32  1  0
 16 33  1  0
 17 34  1  0
 17 35  1  0
 18 36  1  0
 18 37  1  0
 20 38  1  0
 21 39  1  0
 23 40  1  0
 24 41  1  0
 25 42  1  0
 26 43  1  0
M  ISO  8  28  14  29  14  30  14  31  14  34   8  35   8  36   8  37   8
M  ISO  6  38  14  39   9  40  14  41  14  42  14  43  14
M  END
>  <minimizedAffinity>  (1) 
-5.44622898

>  <minimizedRMSD>  (1) 
6.43650579

$$$$
