
     RDKit          3D

 36 39  0  0  0  0  0  0  0  0999 V2000
   45.9610   33.0680   46.5620 N   0  0  0  0  0  0  0  0  0  0  0  0
   44.9680   33.5870   47.3290 C   0  0  0  0  0  0  0  0  0  0  0  0
   44.4060   34.6090   46.6530 N   0  0  0  0  0  0  0  0  0  0  0  0
   45.0210   34.7430   45.4860 C   0  0  0  0  0  0  0  0  0  0  0  0
   44.8950   35.5900   44.3980 C   0  0  0  0  0  0  0  0  0  0  0  0
   45.7320   35.4160   43.3520 N   0  0  0  0  0  0  0  0  0  0  0  0
   46.6810   34.4890   43.2740 C   0  0  0  0  0  0  0  0  0  0  0  0
   46.8350   33.6400   44.3240 N   0  0  0  0  0  0  0  0  0  0  0  0
   46.0120   33.7770   45.4040 C   0  0  0  0  0  0  0  0  0  0  0  0
   48.1030   30.8370   48.5600 C   0  0  0  0  0  0  0  0  0  0  0  0
   47.2590   31.8960   48.2190 C   0  0  0  0  0  0  0  0  0  0  0  0
   46.8100   31.9900   46.8740 C   0  0  0  0  0  0  0  0  0  0  0  0
   47.2290   31.0500   46.0190 N   0  0  0  0  0  0  0  0  0  0  0  0
   48.0380   30.0410   46.3630 C   0  0  0  0  0  0  0  0  0  0  0  0
   48.4740   29.9330   47.6280 N   0  0  0  0  0  0  0  0  0  0  0  0
   48.6130   30.6330   49.8530 N   0  0  0  0  0  0  0  0  0  0  0  0
   47.5090   34.4250   42.0660 C   0  0  0  0  0  0  0  0  0  0  0  0
   48.9670   34.6810   42.3260 C   0  0  0  0  0  0  0  0  0  0  0  0
   49.8440   33.5620   41.9040 C   0  0  0  0  0  0  0  0  0  0  0  0
   49.2640   32.5580   41.1220 C   0  0  0  0  0  0  0  0  0  0  0  0
   50.2530   31.6660   40.8720 N   0  0  0  0  0  0  0  0  0  0  0  0
   51.3740   32.1010   41.4680 C   0  0  0  0  0  0  0  0  0  0  0  0
   51.1500   33.2490   42.0990 N   0  0  0  0  0  0  0  0  0  0  0  0
   44.6733   33.2347   48.3285 H   0  0  0  0  0  0  0  0  0  0  0  0
   44.1335   36.3837   44.3857 H   0  0  0  0  0  0  0  0  0  0  0  0
   46.9502   32.6371   48.9709 H   0  0  0  0  0  0  0  0  0  0  0  0
   48.3455   29.3007   45.6097 H   0  0  0  0  0  0  0  0  0  0  0  0
   49.2320   29.8318   50.0420 H   0  0  0  0  0  0  0  0  0  0  0  0
   48.3679   31.2847   50.6120 H   0  0  0  0  0  0  0  0  0  0  0  0
   47.1444   35.1794   41.3533 H   0  0  0  0  0  0  0  0  0  0  0  0
   47.4251   33.4025   41.6693 H   0  0  0  0  0  0  0  0  0  0  0  0
   49.2661   35.5854   41.7759 H   0  0  0  0  0  0  0  0  0  0  0  0
   49.0883   34.7975   43.4131 H   0  0  0  0  0  0  0  0  0  0  0  0
   48.2199   32.5036   40.7802 H   0  0  0  0  0  0  0  0  0  0  0  0
   52.3425   31.5803   41.4384 H   0  0  0  0  0  0  0  0  0  0  0  0
   51.8377   33.7975   42.6348 H   0  0  0  0  0  0  0  0  0  0  0  0
  1 12  1  0
  1  2  1  0
  3  2  2  0
  4  3  1  0
  5  4  2  0
  6  5  1  0
  7  6  2  0
  7  8  1  0
  8  9  2  0
  9  4  1  0
  9  1  1  0
 10 16  1  0
 11 10  2  0
 12 11  1  0
 13 14  1  0
 13 12  2  0
 14 15  2  0
 15 10  1  0
 17 18  1  0
 17  7  1  0
 19 23  1  0
 19 18  1  0
 20 19  2  0
 21 20  1  0
 21 22  2  0
 22 23  1  0
  2 24  1  0
  5 25  1  0
 11 26  1  0
 14 27  1  0
 16 28  1  0
 16 29  1  0
 17 30  1  0
 17 31  1  0
 18 32  1  0
 18 33  1  0
 20 34  1  0
 22 35  1  0
 23 36  1  0
M  ISO  8  24  14  25  14  26  14  27  14  30   8  31   8  32   8  33   8
M  ISO  3  34  14  35  14  36   9
M  END
>  <minimizedAffinity>  (1) 
-6.01922846

>  <minimizedRMSD>  (1) 
5.03696489

$$$$
