
     RDKit          3D

 36 39  0  0  0  0  0  0  0  0999 V2000
   47.1960   30.0880   45.3540 N   0  0  0  0  0  0  0  0  0  0  0  0
   47.0530   28.7520   45.1740 C   0  0  0  0  0  0  0  0  0  0  0  0
   47.3930   28.4610   43.9030 N   0  0  0  0  0  0  0  0  0  0  0  0
   47.7440   29.5840   43.2850 C   0  0  0  0  0  0  0  0  0  0  0  0
   48.1810   29.9290   42.0080 C   0  0  0  0  0  0  0  0  0  0  0  0
   48.4510   31.2060   41.7420 N   0  0  0  0  0  0  0  0  0  0  0  0
   48.3380   32.2160   42.6120 C   0  0  0  0  0  0  0  0  0  0  0  0
   47.9140   31.9150   43.8690 N   0  0  0  0  0  0  0  0  0  0  0  0
   47.6280   30.6340   44.1860 C   0  0  0  0  0  0  0  0  0  0  0  0
   45.6660   32.5540   47.6250 C   0  0  0  0  0  0  0  0  0  0  0  0
   45.9370   31.7980   46.4810 C   0  0  0  0  0  0  0  0  0  0  0  0
   46.9500   30.8350   46.5350 C   0  0  0  0  0  0  0  0  0  0  0  0
   47.6230   30.6800   47.6960 N   0  0  0  0  0  0  0  0  0  0  0  0
   47.3470   31.4180   48.7840 C   0  0  0  0  0  0  0  0  0  0  0  0
   46.3770   32.3490   48.7570 N   0  0  0  0  0  0  0  0  0  0  0  0
   44.6750   33.5520   47.7050 N   0  0  0  0  0  0  0  0  0  0  0  0
   48.6710   33.5910   42.1800 C   0  0  0  0  0  0  0  0  0  0  0  0
   47.8320   34.6360   42.8390 C   0  0  0  0  0  0  0  0  0  0  0  0
   46.5090   34.7990   42.2010 C   0  0  0  0  0  0  0  0  0  0  0  0
   45.4760   35.4640   42.8450 C   0  0  0  0  0  0  0  0  0  0  0  0
   44.3780   35.4550   42.0090 C   0  0  0  0  0  0  0  0  0  0  0  0
   44.7670   34.7980   40.9020 N   0  0  0  0  0  0  0  0  0  0  0  0
   46.0400   34.4010   41.0050 N   0  0  0  0  0  0  0  0  0  0  0  0
   46.7176   28.0306   45.9337 H   0  0  0  0  0  0  0  0  0  0  0  0
   48.3012   29.1591   41.2316 H   0  0  0  0  0  0  0  0  0  0  0  0
   45.3643   31.9574   45.5555 H   0  0  0  0  0  0  0  0  0  0  0  0
   47.9215   31.2588   49.7084 H   0  0  0  0  0  0  0  0  0  0  0  0
   44.0920   33.7659   46.8833 H   0  0  0  0  0  0  0  0  0  0  0  0
   44.5334   34.0678   48.5852 H   0  0  0  0  0  0  0  0  0  0  0  0
   49.7262   33.7870   42.4212 H   0  0  0  0  0  0  0  0  0  0  0  0
   48.4754   33.6496   41.0991 H   0  0  0  0  0  0  0  0  0  0  0  0
   47.6816   34.3530   43.8913 H   0  0  0  0  0  0  0  0  0  0  0  0
   48.3640   35.5941   42.7444 H   0  0  0  0  0  0  0  0  0  0  0  0
   45.5236   35.9184   43.8456 H   0  0  0  0  0  0  0  0  0  0  0  0
   43.3892   35.8943   42.2072 H   0  0  0  0  0  0  0  0  0  0  0  0
   44.1652   34.6239   40.0844 H   0  0  0  0  0  0  0  0  0  0  0  0
  1 12  1  0
  2  1  1  0
  3  2  2  0
  4  3  1  0
  4  9  2  0
  5  4  1  0
  6  5  2  0
  6  7  1  0
  7  8  2  0
  8  9  1  0
  9  1  1  0
 10 16  1  0
 10 15  2  0
 11 12  2  0
 11 10  1  0
 12 13  1  0
 13 14  2  0
 15 14  1  0
 17  7  1  0
 17 18  1  0
 19 18  1  0
 19 20  1  0
 21 20  2  0
 22 23  1  0
 22 21  1  0
 23 19  2  0
  2 24  1  0
  5 25  1  0
 11 26  1  0
 14 27  1  0
 16 28  1  0
 16 29  1  0
 17 30  1  0
 17 31  1  0
 18 32  1  0
 18 33  1  0
 20 34  1  0
 21 35  1  0
 22 36  1  0
M  ISO  8  24  14  25  14  26  14  27  14  30   8  31   8  32   8  33   8
M  ISO  3  34  14  35  14  36   9
M  END
>  <minimizedAffinity>  (1) 
-5.10116959

>  <minimizedRMSD>  (1) 
3.69930053

$$$$
