
     RDKit          3D

 37 40  0  0  0  0  0  0  0  0999 V2000
   47.2890   31.2270   44.5960 N   0  0  0  0  0  0  0  0  0  0  0  0
   48.3760   30.6860   43.9960 C   0  0  0  0  0  0  0  0  0  0  0  0
   48.6620   31.4230   42.9080 N   0  0  0  0  0  0  0  0  0  0  0  0
   47.7770   32.4140   42.8120 C   0  0  0  0  0  0  0  0  0  0  0  0
   47.5600   33.4650   41.9340 C   0  0  0  0  0  0  0  0  0  0  0  0
   46.5350   34.2920   42.1650 N   0  0  0  0  0  0  0  0  0  0  0  0
   45.6750   34.1920   43.1960 C   0  0  0  0  0  0  0  0  0  0  0  0
   45.8610   33.1750   44.0710 N   0  0  0  0  0  0  0  0  0  0  0  0
   46.8920   32.3040   43.8820 C   0  0  0  0  0  0  0  0  0  0  0  0
   46.5910   30.6790   48.1800 C   0  0  0  0  0  0  0  0  0  0  0  0
   47.2230   31.1050   47.0020 C   0  0  0  0  0  0  0  0  0  0  0  0
   46.6290   30.7850   45.7740 C   0  0  0  0  0  0  0  0  0  0  0  0
   45.4810   30.0860   45.7980 N   0  0  0  0  0  0  0  0  0  0  0  0
   44.8900   29.6860   46.9370 C   0  0  0  0  0  0  0  0  0  0  0  0
   45.4430   29.9820   48.1220 N   0  0  0  0  0  0  0  0  0  0  0  0
   47.0860   30.9370   49.4790 N   0  0  0  0  0  0  0  0  0  0  0  0
   44.6010   35.1790   43.3100 C   0  0  0  0  0  0  0  0  0  0  0  0
   44.0460   35.6150   41.9850 C   0  0  0  0  0  0  0  0  0  0  0  0
   42.7700   34.9250   41.6550 C   0  0  0  0  0  0  0  0  0  0  0  0
   41.5400   35.5670   41.7270 C   0  0  0  0  0  0  0  0  0  0  0  0
   40.4060   34.8340   41.3980 C   0  0  0  0  0  0  0  0  0  0  0  0
   40.5310   33.5390   41.0240 N   0  0  0  0  0  0  0  0  0  0  0  0
   41.7610   32.9580   40.9710 C   0  0  0  0  0  0  0  0  0  0  0  0
   42.8850   33.6190   41.2770 N   0  0  0  0  0  0  0  0  0  0  0  0
   48.9285   29.7987   44.3387 H   0  0  0  0  0  0  0  0  0  0  0  0
   48.2176   33.6154   41.0652 H   0  0  0  0  0  0  0  0  0  0  0  0
   48.1621   31.6764   47.0416 H   0  0  0  0  0  0  0  0  0  0  0  0
   43.9508   29.1147   46.8969 H   0  0  0  0  0  0  0  0  0  0  0  0
   46.5719   30.5950   50.3034 H   0  0  0  0  0  0  0  0  0  0  0  0
   47.9607   31.4669   49.6009 H   0  0  0  0  0  0  0  0  0  0  0  0
   43.7848   34.7388   43.9016 H   0  0  0  0  0  0  0  0  0  0  0  0
   45.0303   36.0706   43.7904 H   0  0  0  0  0  0  0  0  0  0  0  0
   43.8643   36.6994   42.0167 H   0  0  0  0  0  0  0  0  0  0  0  0
   44.7809   35.3544   41.2091 H   0  0  0  0  0  0  0  0  0  0  0  0
   41.4661   36.6206   42.0342 H   0  0  0  0  0  0  0  0  0  0  0  0
   39.4122   35.3036   41.4413 H   0  0  0  0  0  0  0  0  0  0  0  0
   41.8347   31.9041   40.6648 H   0  0  0  0  0  0  0  0  0  0  0  0
  1 12  1  0
  2  1  1  0
  3  2  2  0
  4  3  1  0
  4  9  2  0
  5  6  2  0
  5  4  1  0
  6  7  1  0
  7 17  1  0
  7  8  2  0
  9  8  1  0
  9  1  1  0
 10 16  1  0
 11 10  2  0
 12 13  2  0
 12 11  1  0
 13 14  1  0
 14 15  2  0
 15 10  1  0
 18 17  1  0
 19 20  2  0
 19 18  1  0
 21 20  1  0
 22 21  2  0
 23 22  1  0
 23 24  2  0
 24 19  1  0
  2 25  1  0
  5 26  1  0
 11 27  1  0
 14 28  1  0
 16 29  1  0
 16 30  1  0
 17 31  1  0
 17 32  1  0
 18 33  1  0
 18 34  1  0
 20 35  1  0
 21 36  1  0
 23 37  1  0
M  ISO  8  25  14  26  14  27  14  28  14  31   8  32   8  33   8  34   8
M  ISO  3  35  14  36  14  37  14
M  END
>  <minimizedAffinity>  (1) 
-5.27676725

>  <minimizedRMSD>  (1) 
5.93933105

$$$$
