
     RDKit          3D

 36 39  0  0  0  0  0  0  0  0999 V2000
   47.1660   30.4690   45.4360 N   0  0  0  0  0  0  0  0  0  0  0  0
   47.2150   29.1540   45.1320 C   0  0  0  0  0  0  0  0  0  0  0  0
   47.7150   29.0280   43.8920 N   0  0  0  0  0  0  0  0  0  0  0  0
   47.9850   30.2350   43.3990 C   0  0  0  0  0  0  0  0  0  0  0  0
   48.4950   30.7470   42.2240 C   0  0  0  0  0  0  0  0  0  0  0  0
   48.6240   32.0620   42.0910 N   0  0  0  0  0  0  0  0  0  0  0  0
   48.2980   32.9830   43.0180 C   0  0  0  0  0  0  0  0  0  0  0  0
   47.7930   32.4990   44.1860 N   0  0  0  0  0  0  0  0  0  0  0  0
   47.6430   31.1610   44.3660 C   0  0  0  0  0  0  0  0  0  0  0  0
   45.3820   32.7860   47.6740 C   0  0  0  0  0  0  0  0  0  0  0  0
   45.8390   32.1800   46.5060 C   0  0  0  0  0  0  0  0  0  0  0  0
   46.7110   31.0740   46.6320 C   0  0  0  0  0  0  0  0  0  0  0  0
   47.0480   30.6750   47.8720 N   0  0  0  0  0  0  0  0  0  0  0  0
   46.5980   31.2700   48.9800 C   0  0  0  0  0  0  0  0  0  0  0  0
   45.7700   32.3200   48.8870 N   0  0  0  0  0  0  0  0  0  0  0  0
   44.5130   33.8920   47.7120 N   0  0  0  0  0  0  0  0  0  0  0  0
   48.5000   34.3990   42.7270 C   0  0  0  0  0  0  0  0  0  0  0  0
   47.8770   34.8290   41.4450 C   0  0  0  0  0  0  0  0  0  0  0  0
   46.4490   34.7520   41.5300 C   0  0  0  0  0  0  0  0  0  0  0  0
   45.4270   34.1770   40.8280 C   0  0  0  0  0  0  0  0  0  0  0  0
   44.1310   34.3090   41.2010 C   0  0  0  0  0  0  0  0  0  0  0  0
   43.9160   35.1450   42.4550 C   0  0  0  0  0  0  0  0  0  0  0  0
   45.6790   35.6270   42.9190 S   0  0  0  0  0  0  0  0  0  0  0  0
   46.8997   28.3285   45.7871 H   0  0  0  0  0  0  0  0  0  0  0  0
   48.7915   30.0736   41.4063 H   0  0  0  0  0  0  0  0  0  0  0  0
   45.5313   32.5501   45.5169 H   0  0  0  0  0  0  0  0  0  0  0  0
   46.9067   30.8985   49.9683 H   0  0  0  0  0  0  0  0  0  0  0  0
   44.1702   34.3080   46.8343 H   0  0  0  0  0  0  0  0  0  0  0  0
   44.2196   34.2856   48.6175 H   0  0  0  0  0  0  0  0  0  0  0  0
   48.0612   34.9900   43.5445 H   0  0  0  0  0  0  0  0  0  0  0  0
   49.5839   34.5624   42.6347 H   0  0  0  0  0  0  0  0  0  0  0  0
   48.2272   34.1730   40.6345 H   0  0  0  0  0  0  0  0  0  0  0  0
   48.1654   35.8708   41.2413 H   0  0  0  0  0  0  0  0  0  0  0  0
   45.6644   33.5874   39.9302 H   0  0  0  0  0  0  0  0  0  0  0  0
   43.3018   33.8495   40.6431 H   0  0  0  0  0  0  0  0  0  0  0  0
   42.9736   35.4020   42.9608 H   0  0  0  0  0  0  0  0  0  0  0  0
  1 12  1  0
  2  1  1  0
  3  2  2  0
  4  3  1  0
  4  9  2  0
  5  4  1  0
  6  5  2  0
  6  7  1  0
  7  8  2  0
  8  9  1  0
  9  1  1  0
 10 16  1  0
 10 15  2  0
 11 12  2  0
 11 10  1  0
 12 13  1  0
 13 14  2  0
 15 14  1  0
 17  7  1  0
 18 19  1  0
 18 17  1  0
 19 23  1  0
 20 21  1  0
 20 19  2  0
 21 22  2  0
 22 23  1  0
  2 24  1  0
  5 25  1  0
 11 26  1  0
 14 27  1  0
 16 28  1  0
 16 29  1  0
 17 30  1  0
 17 31  1  0
 18 32  1  0
 18 33  1  0
 20 34  1  0
 21 35  1  0
 22 36  1  0
M  ISO  8  24  14  25  14  26  14  27  14  30   8  31   8  32   8  33   8
M  ISO  3  34  14  35  14  36  14
M  END
>  <minimizedAffinity>  (1) 
-5.34749222

>  <minimizedRMSD>  (1) 
3.75020504

$$$$
