
     RDKit          3D

 43 46  0  0  0  0  0  0  0  0999 V2000
   46.5240   32.4470   44.7550 N   0  0  0  0  0  0  0  0  0  0  0  0
   46.6550   31.5860   45.7990 C   0  0  0  0  0  0  0  0  0  0  0  0
   47.4950   30.5960   45.4170 N   0  0  0  0  0  0  0  0  0  0  0  0
   47.8820   30.8250   44.1680 C   0  0  0  0  0  0  0  0  0  0  0  0
   48.7220   30.1830   43.2620 C   0  0  0  0  0  0  0  0  0  0  0  0
   48.8950   30.7070   42.0570 N   0  0  0  0  0  0  0  0  0  0  0  0
   48.3150   31.8370   41.6240 C   0  0  0  0  0  0  0  0  0  0  0  0
   47.4770   32.5080   42.4820 N   0  0  0  0  0  0  0  0  0  0  0  0
   47.2870   31.9840   43.7240 C   0  0  0  0  0  0  0  0  0  0  0  0
   44.6110   35.2490   43.3250 C   0  0  0  0  0  0  0  0  0  0  0  0
   45.3830   34.0950   43.4120 C   0  0  0  0  0  0  0  0  0  0  0  0
   45.7420   33.6200   44.7010 C   0  0  0  0  0  0  0  0  0  0  0  0
   45.3040   34.3260   45.7490 N   0  0  0  0  0  0  0  0  0  0  0  0
   44.5630   35.4320   45.6390 C   0  0  0  0  0  0  0  0  0  0  0  0
   44.2160   35.8950   44.4410 N   0  0  0  0  0  0  0  0  0  0  0  0
   44.1870   35.8240   42.0950 N   0  0  0  0  0  0  0  0  0  0  0  0
   48.6010   32.3260   40.2490 C   0  0  0  0  0  0  0  0  0  0  0  0
   48.2470   33.7770   40.0740 C   0  0  0  0  0  0  0  0  0  0  0  0
   47.4710   34.0540   38.8760 N   0  0  0  0  0  0  0  0  0  0  0  0
   48.4550   34.5490   37.9050 C   0  0  0  0  0  0  0  0  0  0  0  0
   48.7920   33.5580   36.8350 C   0  0  0  0  0  0  0  0  0  0  0  0
   47.6110   33.2290   36.0640 N   0  0  0  0  0  0  0  0  0  0  0  0
   46.6310   32.6920   36.9820 C   0  0  0  0  0  0  0  0  0  0  0  0
   47.0660   32.7250   38.4080 C   0  0  0  0  0  0  0  0  0  0  0  0
   46.1653   31.6777   46.7797 H   0  0  0  0  0  0  0  0  0  0  0  0
   49.2360   29.2519   43.5430 H   0  0  0  0  0  0  0  0  0  0  0  0
   45.7072   33.5638   42.5049 H   0  0  0  0  0  0  0  0  0  0  0  0
   44.2374   35.9637   46.5453 H   0  0  0  0  0  0  0  0  0  0  0  0
   43.6158   36.6811   42.0970 H   0  0  0  0  0  0  0  0  0  0  0  0
   44.4512   35.3833   41.2023 H   0  0  0  0  0  0  0  0  0  0  0  0
   49.6738   32.1964   40.0435 H   0  0  0  0  0  0  0  0  0  0  0  0
   47.9845   31.7425   39.5494 H   0  0  0  0  0  0  0  0  0  0  0  0
   47.6614   34.0984   40.9479 H   0  0  0  0  0  0  0  0  0  0  0  0
   49.1945   34.3270   39.9749 H   0  0  0  0  0  0  0  0  0  0  0  0
   48.0478   35.4521   37.4268 H   0  0  0  0  0  0  0  0  0  0  0  0
   49.3825   34.7518   38.4605 H   0  0  0  0  0  0  0  0  0  0  0  0
   49.5525   33.9894   36.1675 H   0  0  0  0  0  0  0  0  0  0  0  0
   49.1789   32.6418   37.3051 H   0  0  0  0  0  0  0  0  0  0  0  0
   47.2405   34.0755   35.6090 H   0  0  0  0  0  0  0  0  0  0  0  0
   45.7066   33.2806   36.8869 H   0  0  0  0  0  0  0  0  0  0  0  0
   46.4842   31.6352   36.7144 H   0  0  0  0  0  0  0  0  0  0  0  0
   46.2300   32.3778   39.0330 H   0  0  0  0  0  0  0  0  0  0  0  0
   47.9507   32.0761   38.4865 H   0  0  0  0  0  0  0  0  0  0  0  0
  1  2  1  0
  3  2  2  0
  4  3  1  0
  5  4  2  0
  6  5  1  0
  7  6  2  0
  7  8  1  0
  8  9  2  0
  9  4  1  0
  9  1  1  0
 10 11  2  0
 10 15  1  0
 11 12  1  0
 12  1  1  0
 12 13  2  0
 14 13  1  0
 15 14  2  0
 16 10  1  0
 17  7  1  0
 18 17  1  0
 19 18  1  0
 20 19  1  0
 21 20  1  0
 22 21  1  0
 22 23  1  0
 23 24  1  0
 24 19  1  0
  2 25  1  0
  5 26  1  0
 11 27  1  0
 14 28  1  0
 16 29  1  0
 16 30  1  0
 17 31  1  0
 17 32  1  0
 18 33  1  0
 18 34  1  0
 20 35  1  0
 20 36  1  0
 21 37  1  0
 21 38  1  0
 22 39  1  0
 23 40  1  0
 23 41  1  0
 24 42  1  0
 24 43  1  0
M  ISO  8  25  14  26  14  27  14  28  14  31   8  32   8  33   8  34   8
M  ISO  8  35  13  36  13  37  13  38  13  39   5  40  13  41  13  42  13
M  ISO  1  43  13
M  END
>  <minimizedAffinity>  (1) 
-5.04033852

>  <minimizedRMSD>  (1) 
2.26551819

$$$$
