
     RDKit          3D

 25 25  0  0  0  0  0  0  0  0999 V2000
   48.2760   34.4880   41.5010 C   0  0  0  0  0  0  0  0  0  0  0  0
   45.6250   34.8930   44.1770 C   0  0  0  0  0  0  0  0  0  0  0  0
   46.3770   35.1730   43.0190 C   0  0  0  0  0  0  0  0  0  0  0  0
   47.4260   34.2990   42.6830 C   0  0  0  0  0  0  0  0  0  0  0  0
   47.6640   33.2230   43.4970 N   0  0  0  0  0  0  0  0  0  0  0  0
   46.9110   32.9920   44.6060 C   0  0  0  0  0  0  0  0  0  0  0  0
   45.9000   33.8270   44.9380 N   0  0  0  0  0  0  0  0  0  0  0  0
   44.5100   35.8100   44.5480 C   0  0  0  0  0  0  0  0  0  0  0  0
   44.2090   35.4920   45.8720 F   0  0  0  0  0  0  0  0  0  0  0  0
   43.4240   35.6320   43.7280 F   0  0  0  0  0  0  0  0  0  0  0  0
   44.9250   37.1160   44.5220 F   0  0  0  0  0  0  0  0  0  0  0  0
   47.3970   34.2640   40.2700 C   0  0  0  0  0  0  0  0  0  0  0  0
   49.3250   33.3820   41.4740 C   0  0  0  0  0  0  0  0  0  0  0  0
   48.9970   35.7780   41.4250 C   0  0  0  0  0  0  0  0  0  0  0  0
   46.1500   36.0503   42.3955 H   0  0  0  0  0  0  0  0  0  0  0  0
   47.1262   32.1182   45.2386 H   0  0  0  0  0  0  0  0  0  0  0  0
   46.3772   34.0041   40.5900 H   0  0  0  0  0  0  0  0  0  0  0  0
   47.3690   35.1837   39.6672 H   0  0  0  0  0  0  0  0  0  0  0  0
   47.8125   33.4430   39.6672 H   0  0  0  0  0  0  0  0  0  0  0  0
   49.5899   33.1027   42.5044 H   0  0  0  0  0  0  0  0  0  0  0  0
   48.9193   32.5046   40.9490 H   0  0  0  0  0  0  0  0  0  0  0  0
   50.2226   33.7407   40.9490 H   0  0  0  0  0  0  0  0  0  0  0  0
   49.2016   36.1441   42.4419 H   0  0  0  0  0  0  0  0  0  0  0  0
   49.9467   35.6362   40.8883 H   0  0  0  0  0  0  0  0  0  0  0  0
   48.3787   36.5126   40.8883 H   0  0  0  0  0  0  0  0  0  0  0  0
  1  4  1  0
  2  8  1  0
  2  7  2  0
  3  2  1  0
  4  3  2  0
  4  5  1  0
  5  6  2  0
  6  7  1  0
  8  9  1  0
 10  8  1  0
 11  8  1  0
 12  1  1  0
 13  1  1  0
 14  1  1  0
  3 15  1  0
  6 16  1  0
 12 17  1  0
 12 18  1  0
 12 19  1  0
 13 20  1  0
 13 21  1  0
 13 22  1  0
 14 23  1  0
 14 24  1  0
 14 25  1  0
M  ISO  8  15  14  16  14  17   8  18   8  19   8  20   8  21   8  22   8
M  ISO  3  23   8  24   8  25   8
M  END
>  <minimizedAffinity>  (1) 
-5.03423738

>  <minimizedRMSD>  (1) 
1.57262301

$$$$
