
     RDKit          3D

 35 38  0  0  0  0  0  0  0  0999 V2000
   46.1740   32.0660   45.5280 N   0  0  0  0  0  0  0  0  0  0  0  0
   45.7770   31.2640   46.5510 C   0  0  0  0  0  0  0  0  0  0  0  0
   46.5550   30.1680   46.5500 N   0  0  0  0  0  0  0  0  0  0  0  0
   47.4320   30.2610   45.5510 C   0  0  0  0  0  0  0  0  0  0  0  0
   48.4540   29.4640   45.0650 C   0  0  0  0  0  0  0  0  0  0  0  0
   49.1490   29.9080   43.9940 N   0  0  0  0  0  0  0  0  0  0  0  0
   48.9300   31.0570   43.3610 C   0  0  0  0  0  0  0  0  0  0  0  0
   47.9360   31.8570   43.8140 N   0  0  0  0  0  0  0  0  0  0  0  0
   47.2040   31.4620   44.8880 C   0  0  0  0  0  0  0  0  0  0  0  0
   45.1190   34.8570   43.3650 C   0  0  0  0  0  0  0  0  0  0  0  0
   45.6410   33.6320   43.7810 C   0  0  0  0  0  0  0  0  0  0  0  0
   45.6370   33.3130   45.1570 C   0  0  0  0  0  0  0  0  0  0  0  0
   45.1230   34.2240   45.9960 N   0  0  0  0  0  0  0  0  0  0  0  0
   44.6260   35.3960   45.5820 C   0  0  0  0  0  0  0  0  0  0  0  0
   44.6190   35.7200   44.2820 N   0  0  0  0  0  0  0  0  0  0  0  0
   45.0620   35.2960   42.0270 N   0  0  0  0  0  0  0  0  0  0  0  0
   49.7790   31.3960   42.2100 C   0  0  0  0  0  0  0  0  0  0  0  0
   49.0320   32.0720   41.0940 C   0  0  0  0  0  0  0  0  0  0  0  0
   49.0250   33.4970   41.3710 N   0  0  0  0  0  0  0  0  0  0  0  0
   48.1120   34.3890   40.8940 C   0  0  0  0  0  0  0  0  0  0  0  0
   48.4510   35.6140   41.3790 N   0  0  0  0  0  0  0  0  0  0  0  0
   49.5500   35.4770   42.1410 C   0  0  0  0  0  0  0  0  0  0  0  0
   49.9000   34.1690   42.1330 N   0  0  0  0  0  0  0  0  0  0  0  0
   44.9606   31.4753   47.2573 H   0  0  0  0  0  0  0  0  0  0  0  0
   48.6932   28.4991   45.5358 H   0  0  0  0  0  0  0  0  0  0  0  0
   46.0507   32.9231   43.0464 H   0  0  0  0  0  0  0  0  0  0  0  0
   44.2177   36.1028   46.3193 H   0  0  0  0  0  0  0  0  0  0  0  0
   44.6595   36.2175   41.8040 H   0  0  0  0  0  0  0  0  0  0  0  0
   45.4229   34.6953   41.2721 H   0  0  0  0  0  0  0  0  0  0  0  0
   50.5780   32.0699   42.5528 H   0  0  0  0  0  0  0  0  0  0  0  0
   50.1746   30.4510   41.8095 H   0  0  0  0  0  0  0  0  0  0  0  0
   48.0002   31.6933   41.0499 H   0  0  0  0  0  0  0  0  0  0  0  0
   49.5150   31.8687   40.1269 H   0  0  0  0  0  0  0  0  0  0  0  0
   47.2588   34.1608   40.2382 H   0  0  0  0  0  0  0  0  0  0  0  0
   50.0721   36.2840   42.6759 H   0  0  0  0  0  0  0  0  0  0  0  0
  1  2  1  0
  3  2  2  0
  4  3  1  0
  5  4  2  0
  6  5  1  0
  7  8  1  0
  7  6  2  0
  8  9  2  0
  9  1  1  0
  9  4  1  0
 10 11  2  0
 10 15  1  0
 11 12  1  0
 12  1  1  0
 12 13  2  0
 14 13  1  0
 15 14  2  0
 16 10  1  0
 17  7  1  0
 18 19  1  0
 18 17  1  0
 19 23  1  0
 20 19  1  0
 20 21  2  0
 21 22  1  0
 23 22  2  0
  2 24  1  0
  5 25  1  0
 11 26  1  0
 14 27  1  0
 16 28  1  0
 16 29  1  0
 17 30  1  0
 17 31  1  0
 18 32  1  0
 18 33  1  0
 20 34  1  0
 22 35  1  0
M  ISO  8  24  14  25  14  26  14  27  14  30   8  31   8  32   8  33   8
M  ISO  2  34  14  35  14
M  END
>  <minimizedAffinity>  (1) 
-4.83613253

>  <minimizedRMSD>  (1) 
3.02460933

$$$$
