
     RDKit          3D

 36 39  0  0  0  0  0  0  0  0999 V2000
   46.3200   32.2980   44.8150 N   0  0  0  0  0  0  0  0  0  0  0  0
   46.0810   31.3460   45.7380 C   0  0  0  0  0  0  0  0  0  0  0  0
   46.9910   30.3630   45.5750 N   0  0  0  0  0  0  0  0  0  0  0  0
   47.7940   30.6900   44.5630 C   0  0  0  0  0  0  0  0  0  0  0  0
   48.8840   30.1060   43.9370 C   0  0  0  0  0  0  0  0  0  0  0  0
   49.4580   30.7470   42.9180 N   0  0  0  0  0  0  0  0  0  0  0  0
   49.0680   31.9280   42.4340 C   0  0  0  0  0  0  0  0  0  0  0  0
   47.9990   32.5350   43.0240 N   0  0  0  0  0  0  0  0  0  0  0  0
   47.3820   31.9160   44.0700 C   0  0  0  0  0  0  0  0  0  0  0  0
   44.5360   35.0070   43.0730 C   0  0  0  0  0  0  0  0  0  0  0  0
   45.2310   33.8240   43.2910 C   0  0  0  0  0  0  0  0  0  0  0  0
   45.6070   33.5160   44.6160 C   0  0  0  0  0  0  0  0  0  0  0  0
   45.2750   34.3840   45.5960 N   0  0  0  0  0  0  0  0  0  0  0  0
   44.6010   35.5210   45.3520 C   0  0  0  0  0  0  0  0  0  0  0  0
   44.2310   35.8340   44.0970 N   0  0  0  0  0  0  0  0  0  0  0  0
   44.0920   35.4460   41.8010 N   0  0  0  0  0  0  0  0  0  0  0  0
   49.7940   32.5300   41.2970 C   0  0  0  0  0  0  0  0  0  0  0  0
   49.6460   31.7710   40.0220 C   0  0  0  0  0  0  0  0  0  0  0  0
   49.2110   32.5790   38.9110 N   0  0  0  0  0  0  0  0  0  0  0  0
   48.3770   33.5940   39.1230 N   0  0  0  0  0  0  0  0  0  0  0  0
   48.0840   34.2290   37.9700 C   0  0  0  0  0  0  0  0  0  0  0  0
   48.7960   33.5430   36.9960 C   0  0  0  0  0  0  0  0  0  0  0  0
   49.5000   32.5090   37.5980 C   0  0  0  0  0  0  0  0  0  0  0  0
   45.2821   31.3665   46.4939 H   0  0  0  0  0  0  0  0  0  0  0  0
   49.2684   29.1321   44.2743 H   0  0  0  0  0  0  0  0  0  0  0  0
   45.4800   33.1496   42.4584 H   0  0  0  0  0  0  0  0  0  0  0  0
   44.3509   36.1984   46.1818 H   0  0  0  0  0  0  0  0  0  0  0  0
   43.5810   36.3359   41.7128 H   0  0  0  0  0  0  0  0  0  0  0  0
   44.2802   34.8752   40.9646 H   0  0  0  0  0  0  0  0  0  0  0  0
   49.4110   33.5493   41.1409 H   0  0  0  0  0  0  0  0  0  0  0  0
   50.8631   32.5185   41.5558 H   0  0  0  0  0  0  0  0  0  0  0  0
   50.6198   31.3271   39.7676 H   0  0  0  0  0  0  0  0  0  0  0  0
   48.8680   31.0117   40.1898 H   0  0  0  0  0  0  0  0  0  0  0  0
   47.4255   35.0992   37.8318 H   0  0  0  0  0  0  0  0  0  0  0  0
   48.8016   33.7800   35.9219 H   0  0  0  0  0  0  0  0  0  0  0  0
   50.1595   31.7809   37.1031 H   0  0  0  0  0  0  0  0  0  0  0  0
  1  2  1  0
  3  2  2  0
  4  3  1  0
  5  4  2  0
  6  5  1  0
  7  6  2  0
  7  8  1  0
  8  9  2  0
  9  4  1  0
  9  1  1  0
 10 11  2  0
 10 15  1  0
 11 12  1  0
 12  1  1  0
 12 13  2  0
 14 13  1  0
 15 14  2  0
 16 10  1  0
 17  7  1  0
 18 17  1  0
 19 20  1  0
 19 18  1  0
 21 20  2  0
 22 23  2  0
 22 21  1  0
 23 19  1  0
  2 24  1  0
  5 25  1  0
 11 26  1  0
 14 27  1  0
 16 28  1  0
 16 29  1  0
 17 30  1  0
 17 31  1  0
 18 32  1  0
 18 33  1  0
 21 34  1  0
 22 35  1  0
 23 36  1  0
M  ISO  8  24  14  25  14  26  14  27  14  30   8  31   8  32   8  33   8
M  ISO  3  34  14  35  14  36  14
M  END
>  <minimizedAffinity>  (1) 
-4.76126623

>  <minimizedRMSD>  (1) 
3.46808553

$$$$
