
     RDKit          3D

 23 23  0  0  0  0  0  0  0  0999 V2000
   48.1270   34.7480   41.4470 C   0  0  0  0  0  0  0  0  0  0  0  0
   46.4460   33.1460   38.4260 C   0  0  0  0  0  0  0  0  0  0  0  0
   46.6930   33.4880   39.7710 C   0  0  0  0  0  0  0  0  0  0  0  0
   47.7790   34.3270   40.0720 C   0  0  0  0  0  0  0  0  0  0  0  0
   48.5410   34.7670   39.0330 N   0  0  0  0  0  0  0  0  0  0  0  0
   48.2820   34.4230   37.7510 C   0  0  0  0  0  0  0  0  0  0  0  0
   47.2340   33.6120   37.4510 N   0  0  0  0  0  0  0  0  0  0  0  0
   45.0310   32.0760   38.2220 S   0  0  0  0  0  0  0  0  0  0  0  0
   49.0370   35.9670   41.3230 C   0  0  0  0  0  0  0  0  0  0  0  0
   48.9420   33.6530   42.0900 C   0  0  0  0  0  0  0  0  0  0  0  0
   46.9650   35.0270   42.3240 C   0  0  0  0  0  0  0  0  0  0  0  0
   46.0453   33.1038   40.5728 H   0  0  0  0  0  0  0  0  0  0  0  0
   48.9255   34.8032   36.9439 H   0  0  0  0  0  0  0  0  0  0  0  0
   44.5514   31.7134   39.4530 H   0  0  0  0  0  0  0  0  0  0  0  0
   49.3060   36.3274   42.3269 H   0  0  0  0  0  0  0  0  0  0  0  0
   49.9501   35.6888   40.7764 H   0  0  0  0  0  0  0  0  0  0  0  0
   48.5107   36.7634   40.7764 H   0  0  0  0  0  0  0  0  0  0  0  0
   48.8762   33.7414   43.1845 H   0  0  0  0  0  0  0  0  0  0  0  0
   48.5515   32.6734   41.7771 H   0  0  0  0  0  0  0  0  0  0  0  0
   49.9925   33.7459   41.7771 H   0  0  0  0  0  0  0  0  0  0  0  0
   47.2742   34.9528   43.3770 H   0  0  0  0  0  0  0  0  0  0  0  0
   46.5889   36.0410   42.1229 H   0  0  0  0  0  0  0  0  0  0  0  0
   46.1696   34.2943   42.1229 H   0  0  0  0  0  0  0  0  0  0  0  0
  1 10  1  0
  1 11  1  0
  2  3  2  0
  3  4  1  0
  4  1  1  0
  5  4  2  0
  6  5  1  0
  7  6  2  0
  7  2  1  0
  8  2  1  0
  9  1  1  0
  3 12  1  0
  6 13  1  0
  8 14  1  0
  9 15  1  0
  9 16  1  0
  9 17  1  0
 10 18  1  0
 10 19  1  0
 10 20  1  0
 11 21  1  0
 11 22  1  0
 11 23  1  0
M  ISO  8  12  14  13  14  14  11  15   8  16   8  17   8  18   8  19   8
M  ISO  4  20   8  21   8  22   8  23   8
M  END
>  <minimizedAffinity>  (1) 
-3.58248568

>  <minimizedRMSD>  (1) 
5.427001

$$$$
