
     RDKit          3D

 31 31  0  0  0  0  0  0  0  0999 V2000
   49.1100   34.0970   41.8390 C   0  0  0  0  0  0  0  0  0  0  0  0
   45.9580   34.2710   43.9610 C   0  0  0  0  0  0  0  0  0  0  0  0
   46.9420   34.6550   43.0160 C   0  0  0  0  0  0  0  0  0  0  0  0
   48.0250   33.7890   42.8020 C   0  0  0  0  0  0  0  0  0  0  0  0
   48.0890   32.6220   43.5060 N   0  0  0  0  0  0  0  0  0  0  0  0
   47.1210   32.2930   44.4030 C   0  0  0  0  0  0  0  0  0  0  0  0
   46.0750   33.1060   44.6260 N   0  0  0  0  0  0  0  0  0  0  0  0
   44.8290   35.1830   44.1790 C   0  0  0  0  0  0  0  0  0  0  0  0
   44.9900   36.4930   43.4350 C   0  0  0  0  0  0  0  0  0  0  0  0
   44.5130   35.4470   45.6210 C   0  0  0  0  0  0  0  0  0  0  0  0
   48.8970   35.5000   41.3200 C   0  0  0  0  0  0  0  0  0  0  0  0
   48.9600   33.1760   40.6370 C   0  0  0  0  0  0  0  0  0  0  0  0
   50.4960   33.8910   42.3810 C   0  0  0  0  0  0  0  0  0  0  0  0
   46.8591   35.6042   42.4664 H   0  0  0  0  0  0  0  0  0  0  0  0
   47.1959   31.3448   44.9555 H   0  0  0  0  0  0  0  0  0  0  0  0
   43.9680   34.6400   43.7620 H   0  0  0  0  0  0  0  0  0  0  0  0
   45.0911   37.3155   44.1584 H   0  0  0  0  0  0  0  0  0  0  0  0
   45.8893   36.4477   42.8032 H   0  0  0  0  0  0  0  0  0  0  0  0
   44.1065   36.6669   42.8032 H   0  0  0  0  0  0  0  0  0  0  0  0
   45.2010   34.8722   46.2583 H   0  0  0  0  0  0  0  0  0  0  0  0
   44.6289   36.5205   45.8312 H   0  0  0  0  0  0  0  0  0  0  0  0
   43.4773   35.1420   45.8312 H   0  0  0  0  0  0  0  0  0  0  0  0
   48.7918   36.1926   42.1681 H   0  0  0  0  0  0  0  0  0  0  0  0
   49.7600   35.7992   40.7071 H   0  0  0  0  0  0  0  0  0  0  0  0
   47.9841   35.5296   40.7071 H   0  0  0  0  0  0  0  0  0  0  0  0
   48.7922   32.1455   40.9833 H   0  0  0  0  0  0  0  0  0  0  0  0
   48.1032   33.5027   40.0294 H   0  0  0  0  0  0  0  0  0  0  0  0
   49.8762   33.2140   40.0294 H   0  0  0  0  0  0  0  0  0  0  0  0
   50.4642   33.8957   43.4805 H   0  0  0  0  0  0  0  0  0  0  0  0
   50.8873   32.9248   42.0297 H   0  0  0  0  0  0  0  0  0  0  0  0
   51.1513   34.7016   42.0297 H   0  0  0  0  0  0  0  0  0  0  0  0
  1 13  1  0
  1  4  1  0
  2  8  1  0
  2  7  2  0
  3  2  1  0
  4  3  2  0
  4  5  1  0
  5  6  2  0
  6  7  1  0
  8 10  1  0
  9  8  1  0
 11  1  1  0
 12  1  1  0
  3 14  1  0
  6 15  1  0
  8 16  1  0
  9 17  1  0
  9 18  1  0
  9 19  1  0
 10 20  1  0
 10 21  1  0
 10 22  1  0
 11 23  1  0
 11 24  1  0
 11 25  1  0
 12 26  1  0
 12 27  1  0
 12 28  1  0
 13 29  1  0
 13 30  1  0
 13 31  1  0
M  ISO  8  14  14  15  14  16   8  17   8  18   8  19   8  20   8  21   8
M  ISO  8  22   8  23   8  24   8  25   8  26   8  27   8  28   8  29   8
M  ISO  2  30   8  31   8
M  END
>  <minimizedAffinity>  (1) 
-4.40224266

>  <minimizedRMSD>  (1) 
2.48271394

$$$$
