
     RDKit          3D

 25 25  0  0  0  0  0  0  0  0999 V2000
   48.4340   34.6210   41.6100 C   0  0  0  0  0  0  0  0  0  0  0  0
   45.4790   34.9420   44.0000 C   0  0  0  0  0  0  0  0  0  0  0  0
   46.3170   35.2350   42.9030 C   0  0  0  0  0  0  0  0  0  0  0  0
   47.4580   34.4240   42.7180 C   0  0  0  0  0  0  0  0  0  0  0  0
   47.6880   33.4100   43.5990 N   0  0  0  0  0  0  0  0  0  0  0  0
   46.8530   33.1660   44.6410 C   0  0  0  0  0  0  0  0  0  0  0  0
   45.7620   33.9240   44.8380 N   0  0  0  0  0  0  0  0  0  0  0  0
   44.2840   35.8310   44.1500 C   0  0  0  0  0  0  0  0  0  0  0  0
   47.6870   34.3660   40.3190 C   0  0  0  0  0  0  0  0  0  0  0  0
   49.5240   33.5930   41.7280 C   0  0  0  0  0  0  0  0  0  0  0  0
   49.0830   35.9730   41.6080 C   0  0  0  0  0  0  0  0  0  0  0  0
   46.0897   36.0646   42.2173 H   0  0  0  0  0  0  0  0  0  0  0  0
   47.0723   32.3384   45.3316 H   0  0  0  0  0  0  0  0  0  0  0  0
   44.0747   35.9867   45.2186 H   0  0  0  0  0  0  0  0  0  0  0  0
   44.4857   36.8004   43.6708 H   0  0  0  0  0  0  0  0  0  0  0  0
   43.4135   35.3592   43.6708 H   0  0  0  0  0  0  0  0  0  0  0  0
   46.6686   34.0184   40.5472 H   0  0  0  0  0  0  0  0  0  0  0  0
   47.6345   35.2971   39.7357 H   0  0  0  0  0  0  0  0  0  0  0  0
   48.2148   33.5971   39.7357 H   0  0  0  0  0  0  0  0  0  0  0  0
   49.7307   33.3981   42.7907 H   0  0  0  0  0  0  0  0  0  0  0  0
   49.2033   32.6609   41.2398 H   0  0  0  0  0  0  0  0  0  0  0  0
   50.4358   33.9677   41.2398 H   0  0  0  0  0  0  0  0  0  0  0  0
   49.2423   36.3048   42.6446 H   0  0  0  0  0  0  0  0  0  0  0  0
   50.0511   35.9143   41.0890 H   0  0  0  0  0  0  0  0  0  0  0  0
   48.4317   36.6916   41.0890 H   0  0  0  0  0  0  0  0  0  0  0  0
  1 10  1  0
  1  4  1  0
  2  8  1  0
  2  7  2  0
  3  2  1  0
  4  3  2  0
  4  5  1  0
  5  6  2  0
  6  7  1  0
  9  1  1  0
 11  1  1  0
  3 12  1  0
  6 13  1  0
  8 14  1  0
  8 15  1  0
  8 16  1  0
  9 17  1  0
  9 18  1  0
  9 19  1  0
 10 20  1  0
 10 21  1  0
 10 22  1  0
 11 23  1  0
 11 24  1  0
 11 25  1  0
M  ISO  8  12  14  13  14  14   8  15   8  16   8  17   8  18   8  19   8
M  ISO  6  20   8  21   8  22   8  23   8  24   8  25   8
M  END
>  <minimizedAffinity>  (1) 
-4.19362688

>  <minimizedRMSD>  (1) 
1.43726015

$$$$
