
     RDKit          3D

 53 56  0  0  1  0  0  0  0  0999 V2000
   47.2700   32.5150   44.5650 C   0  0  0  0  0  0  0  0  0  0  0  0
   46.6910   33.6880   44.0260 C   0  0  0  0  0  0  0  0  0  0  0  0
   45.7240   34.2840   44.8220 C   0  0  0  0  0  0  0  0  0  0  0  0
   45.3910   33.7470   46.0210 N   0  0  0  0  0  0  0  0  0  0  0  0
   45.9800   32.6280   46.4770 C   0  0  0  0  0  0  0  0  0  0  0  0
   46.9070   32.0020   45.7820 N   0  0  0  0  0  0  0  0  0  0  0  0
   47.2040   34.0630   42.7530 C   0  0  0  0  0  0  0  0  0  0  0  0
   48.2790   34.8900   42.8270 N   0  0  0  0  0  0  0  0  0  0  0  0
   48.9090   35.3530   41.7240 C   0  0  0  0  0  0  0  0  0  0  0  0
   48.5000   35.0140   40.4680 N   0  0  0  0  0  0  0  0  0  0  0  0
   47.4270   34.1870   40.3450 C   0  0  0  0  0  0  0  0  0  0  0  0
   46.8910   33.7530   39.1490 C   0  0  0  0  0  0  0  0  0  0  0  0
   45.8250   32.9330   39.0570 C   0  0  0  0  0  0  0  0  0  0  0  0
   45.2290   32.4980   40.2150 C   0  0  0  0  0  0  0  0  0  0  0  0
   45.7010   32.8830   41.4410 C   0  0  0  0  0  0  0  0  0  0  0  0
   46.7940   33.7220   41.4720 C   0  0  0  0  0  0  0  0  0  0  0  0
   45.5790   32.1180   47.7800 C   0  0  1  0  0  0  0  0  0  0  0  0
   45.1080   30.6320   47.6920 C   0  0  0  0  0  0  0  0  0  0  0  0
   46.6340   32.2080   48.8400 C   0  0  0  0  0  0  0  0  0  0  0  0
   47.1250   30.9700   49.0660 O   0  0  0  0  0  0  0  0  0  0  0  0
   48.4060   30.4540   48.9940 C   0  0  0  0  0  0  0  0  0  0  0  0
   48.9500   30.1360   47.9020 O   0  0  0  0  0  0  0  0  0  0  0  0
   49.0860   30.2890   50.1840 O   0  0  0  0  0  0  0  0  0  0  0  0
   50.3200   31.0310   50.4720 C   0  0  0  0  0  0  0  0  0  0  0  0
   50.3160   32.3300   49.7180 C   0  0  0  0  0  0  0  0  0  0  0  0
   51.3450   33.2360   50.3560 C   0  0  0  0  0  0  0  0  0  0  0  0
   52.4340   32.3740   50.9420 C   0  0  0  0  0  0  0  0  0  0  0  0
   52.7050   31.1540   50.0830 C   0  0  0  0  0  0  0  0  0  0  0  0
   51.5300   30.1990   50.2230 C   0  0  0  0  0  0  0  0  0  0  0  0
   48.0437   31.9934   43.9826 H   0  0  0  0  0  0  0  0  0  0  0  0
   45.2230   35.2005   44.4771 H   0  0  0  0  0  0  0  0  0  0  0  0
   49.7747   36.0211   41.8429 H   0  0  0  0  0  0  0  0  0  0  0  0
   47.3616   34.0966   38.2160 H   0  0  0  0  0  0  0  0  0  0  0  0
   45.4408   32.6191   38.0752 H   0  0  0  0  0  0  0  0  0  0  0  0
   44.3578   31.8290   40.1566 H   0  0  0  0  0  0  0  0  0  0  0  0
   45.2244   32.5348   42.3692 H   0  0  0  0  0  0  0  0  0  0  0  0
   44.7515   32.7787   48.0779 H   0  0  0  0  0  0  0  0  0  0  0  0
   44.9797   30.2273   48.7068 H   0  0  0  0  0  0  0  0  0  0  0  0
   44.1501   30.5823   47.1536 H   0  0  0  0  0  0  0  0  0  0  0  0
   45.8624   30.0395   47.1536 H   0  0  0  0  0  0  0  0  0  0  0  0
   47.4435   32.8716   48.5017 H   0  0  0  0  0  0  0  0  0  0  0  0
   46.2023   32.6157   49.7660 H   0  0  0  0  0  0  0  0  0  0  0  0
   50.3579   31.2775   51.5434 H   0  0  0  0  0  0  0  0  0  0  0  0
   49.3205   32.7941   49.7769 H   0  0  0  0  0  0  0  0  0  0  0  0
   50.5566   32.1606   48.6581 H   0  0  0  0  0  0  0  0  0  0  0  0
   51.7707   33.9085   49.5967 H   0  0  0  0  0  0  0  0  0  0  0  0
   50.8779   33.8453   51.1438 H   0  0  0  0  0  0  0  0  0  0  0  0
   53.3566   32.9681   51.0191 H   0  0  0  0  0  0  0  0  0  0  0  0
   52.1037   32.0298   51.9331 H   0  0  0  0  0  0  0  0  0  0  0  0
   53.6280   30.6596   50.4202 H   0  0  0  0  0  0  0  0  0  0  0  0
   52.8275   31.4515   49.0311 H   0  0  0  0  0  0  0  0  0  0  0  0
   51.4043   29.6166   49.2983 H   0  0  0  0  0  0  0  0  0  0  0  0
   51.6960   29.4907   51.0481 H   0  0  0  0  0  0  0  0  0  0  0  0
  1  6  2  0
  2  1  1  0
  2  3  2  0
  3  4  1  0
  4  5  2  0
  5 17  1  0
  6  5  1  0
  7  8  2  0
  7  2  1  0
  9  8  1  0
 10  9  2  0
 11 10  1  0
 11 16  2  0
 12 11  1  0
 13 12  2  0
 13 14  1  0
 14 15  2  0
 15 16  1  0
 16  7  1  0
 17 19  1  0
 18 17  1  0
 19 20  1  0
 21 20  1  0
 21 23  1  0
 22 21  2  0
 23 24  1  0
 25 26  1  0
 25 24  1  0
 26 27  1  0
 28 29  1  0
 28 27  1  0
 29 24  1  0
  1 30  1  0
  3 31  1  0
  9 32  1  0
 12 33  1  0
 13 34  1  0
 14 35  1  0
 15 36  1  0
 17 37  1  1
 18 38  1  0
 18 39  1  0
 18 40  1  0
 19 41  1  0
 19 42  1  0
 24 43  1  0
 25 44  1  0
 25 45  1  0
 26 46  1  0
 26 47  1  0
 27 48  1  0
 27 49  1  0
 28 50  1  0
 28 51  1  0
 29 52  1  0
 29 53  1  0
M  ISO  8  30  14  31  14  32  14  33  14  34  14  35  14  36  14  37   8
M  ISO  8  38   8  39   8  40   8  41   8  42   8  43  13  44  13  45  13
M  ISO  8  46  13  47  13  48  13  49  13  50  13  51  13  52  13  53  13
M  END
>  <minimizedAffinity>  (1) 
-5.78095388

>  <minimizedRMSD>  (1) 
5.09390688

$$$$
