
     RDKit          3D

 31 31  0  0  0  0  0  0  0  0999 V2000
   48.2180   34.7200   41.0760 C   0  0  0  0  0  0  0  0  0  0  0  0
   45.0360   35.3670   43.0720 C   0  0  0  0  0  0  0  0  0  0  0  0
   46.4220   35.3650   42.7530 C   0  0  0  0  0  0  0  0  0  0  0  0
   46.8020   34.7840   41.5410 C   0  0  0  0  0  0  0  0  0  0  0  0
   45.8650   34.2470   40.7190 N   0  0  0  0  0  0  0  0  0  0  0  0
   44.5430   34.2740   41.0740 C   0  0  0  0  0  0  0  0  0  0  0  0
   44.1500   34.8230   42.2240 N   0  0  0  0  0  0  0  0  0  0  0  0
   44.7190   35.9890   44.3440 C   0  0  0  0  0  0  0  0  0  0  0  0
   44.5620   35.3900   45.4200 O   0  0  0  0  0  0  0  0  0  0  0  0
   48.8310   33.4480   41.6240 C   0  0  0  0  0  0  0  0  0  0  0  0
   48.9830   35.8830   41.7060 C   0  0  0  0  0  0  0  0  0  0  0  0
   48.3910   34.8610   39.6100 C   0  0  0  0  0  0  0  0  0  0  0  0
   48.5290   33.6210   38.9170 N   0  0  0  0  0  0  0  0  0  0  0  0
   47.8740   33.6240   37.6630 C   0  0  0  0  0  0  0  0  0  0  0  0
   47.6570   34.6170   36.8360 N   0  0  0  0  0  0  0  0  0  0  0  0
   47.2520   32.6570   36.8380 N   0  0  0  0  0  0  0  0  0  0  0  0
   47.9780   35.5810   37.0470 H   0  0  0  0  0  0  0  0  0  0  0  0
   47.1658   35.8039   43.4343 H   0  0  0  0  0  0  0  0  0  0  0  0
   43.7927   33.8356   40.3995 H   0  0  0  0  0  0  0  0  0  0  0  0
   44.6085   37.0834   44.3559 H   0  0  0  0  0  0  0  0  0  0  0  0
   48.8165   33.4781   42.7235 H   0  0  0  0  0  0  0  0  0  0  0  0
   48.2518   32.5811   41.2732 H   0  0  0  0  0  0  0  0  0  0  0  0
   49.8699   33.3610   41.2732 H   0  0  0  0  0  0  0  0  0  0  0  0
   48.9316   35.8048   42.8020 H   0  0  0  0  0  0  0  0  0  0  0  0
   50.0344   35.8471   41.3848 H   0  0  0  0  0  0  0  0  0  0  0  0
   48.5337   36.8343   41.3848 H   0  0  0  0  0  0  0  0  0  0  0  0
   47.5120   35.3856   39.2074 H   0  0  0  0  0  0  0  0  0  0  0  0
   49.3269   35.4174   39.4534 H   0  0  0  0  0  0  0  0  0  0  0  0
   49.0483   32.8129   39.2889 H   0  0  0  0  0  0  0  0  0  0  0  0
   46.8370   32.9380   35.9382 H   0  0  0  0  0  0  0  0  0  0  0  0
   47.2143   31.6722   37.1374 H   0  0  0  0  0  0  0  0  0  0  0  0
  1  4  1  0
  1 10  1  0
  1 11  1  0
  2  8  1  0
  3  2  2  0
  4  3  1  0
  5  6  1  0
  5  4  2  0
  6  7  2  0
  7  2  1  0
  8  9  2  0
 12  1  1  0
 13 12  1  0
 14 13  1  0
 15 17  1  0
 15 14  2  0
 16 14  1  0
  3 18  1  0
  6 19  1  0
  8 20  1  0
 10 21  1  0
 10 22  1  0
 10 23  1  0
 11 24  1  0
 11 25  1  0
 11 26  1  0
 12 27  1  0
 12 28  1  0
 13 29  1  0
 16 30  1  0
 16 31  1  0
M  ISO  8  18  14  19  14  20   6  21   8  22   8  23   8  24   8  25   8
M  ISO  3  26   8  27   8  28   8
M  END
>  <minimizedAffinity>  (1) 
-5.11565208

>  <minimizedRMSD>  (1) 
2.51687193

$$$$
