
     RDKit          3D

 37 38  0  0  0  0  0  0  0  0999 V2000
   47.4640   34.2600   42.0230 C   0  0  0  0  0  0  0  0  0  0  0  0
   45.7770   33.8840   45.4170 C   0  0  0  0  0  0  0  0  0  0  0  0
   46.6690   33.6110   44.3630 C   0  0  0  0  0  0  0  0  0  0  0  0
   46.5870   34.4210   43.2220 C   0  0  0  0  0  0  0  0  0  0  0  0
   45.6470   35.4340   43.1910 N   0  0  0  0  0  0  0  0  0  0  0  0
   44.8170   35.6460   44.2370 C   0  0  0  0  0  0  0  0  0  0  0  0
   44.8850   34.8730   45.3420 N   0  0  0  0  0  0  0  0  0  0  0  0
   45.9360   32.9890   46.5670 C   0  0  0  0  0  0  0  0  0  0  0  0
   46.9990   32.7000   47.1190 O   0  0  0  0  0  0  0  0  0  0  0  0
   48.2650   35.5510   41.8830 C   0  0  0  0  0  0  0  0  0  0  0  0
   46.5670   34.2250   40.8060 C   0  0  0  0  0  0  0  0  0  0  0  0
   48.3290   33.0880   42.0620 C   0  0  0  0  0  0  0  0  0  0  0  0
   49.5490   33.0160   41.2410 C   0  0  0  0  0  0  0  0  0  0  0  0
   49.6210   31.9880   40.1750 C   0  0  0  0  0  0  0  0  0  0  0  0
   51.0740   31.4990   40.1710 C   0  0  0  0  0  0  0  0  0  0  0  0
   51.3960   31.4740   41.6290 C   0  0  0  0  0  0  0  0  0  0  0  0
   50.7100   32.6860   42.1900 C   0  0  0  0  0  0  0  0  0  0  0  0
   47.4020   32.7937   44.4320 H   0  0  0  0  0  0  0  0  0  0  0  0
   44.0770   36.4584   44.1872 H   0  0  0  0  0  0  0  0  0  0  0  0
   45.0217   32.5332   46.9749 H   0  0  0  0  0  0  0  0  0  0  0  0
   48.5077   35.9421   42.8821 H   0  0  0  0  0  0  0  0  0  0  0  0
   49.1956   35.3473   41.3330 H   0  0  0  0  0  0  0  0  0  0  0  0
   47.6692   36.2943   41.3330 H   0  0  0  0  0  0  0  0  0  0  0  0
   45.5155   34.1840   41.1265 H   0  0  0  0  0  0  0  0  0  0  0  0
   46.7315   35.1302   40.2031 H   0  0  0  0  0  0  0  0  0  0  0  0
   46.8015   33.3353   40.2031 H   0  0  0  0  0  0  0  0  0  0  0  0
   48.6490   32.9707   43.1079 H   0  0  0  0  0  0  0  0  0  0  0  0
   47.6946   32.3055   41.6201 H   0  0  0  0  0  0  0  0  0  0  0  0
   49.5760   33.9870   40.7249 H   0  0  0  0  0  0  0  0  0  0  0  0
   48.9365   31.1560   40.3971 H   0  0  0  0  0  0  0  0  0  0  0  0
   49.3259   32.3950   39.1966 H   0  0  0  0  0  0  0  0  0  0  0  0
   51.1573   30.4966   39.7259 H   0  0  0  0  0  0  0  0  0  0  0  0
   51.7527   32.1288   39.5772 H   0  0  0  0  0  0  0  0  0  0  0  0
   51.0080   30.5571   42.0966 H   0  0  0  0  0  0  0  0  0  0  0  0
   52.4798   31.4842   41.8168 H   0  0  0  0  0  0  0  0  0  0  0  0
   51.4125   33.5311   42.2374 H   0  0  0  0  0  0  0  0  0  0  0  0
   50.3449   32.4968   43.2103 H   0  0  0  0  0  0  0  0  0  0  0  0
  1 12  1  0
  1  4  1  0
  2  8  1  0
  3  2  2  0
  4  3  1  0
  5  4  2  0
  5  6  1  0
  6  7  2  0
  7  2  1  0
  8  9  2  0
 10  1  1  0
 11  1  1  0
 13 12  1  0
 13 17  1  0
 14 13  1  0
 15 14  1  0
 15 16  1  0
 16 17  1  0
  3 18  1  0
  6 19  1  0
  8 20  1  0
 10 21  1  0
 10 22  1  0
 10 23  1  0
 11 24  1  0
 11 25  1  0
 11 26  1  0
 12 27  1  0
 12 28  1  0
 13 29  1  0
 14 30  1  0
 14 31  1  0
 15 32  1  0
 15 33  1  0
 16 34  1  0
 16 35  1  0
 17 36  1  0
 17 37  1  0
M  ISO  8  18  14  19  14  20   6  21   8  22   8  23   8  24   8  25   8
M  ISO  8  26   8  27   8  28   8  29  13  30  13  31  13  32  13  33  13
M  ISO  4  34  13  35  13  36  13  37  13
M  END
>  <minimizedAffinity>  (1) 
-4.76173544

>  <minimizedRMSD>  (1) 
3.24692941

$$$$
