
     RDKit          3D

 29 29  0  0  0  0  0  0  0  0999 V2000
   46.9000   33.3440   40.9560 C   0  0  0  0  0  0  0  0  0  0  0  0
   44.6150   35.4490   43.1450 C   0  0  0  0  0  0  0  0  0  0  0  0
   45.7450   34.7060   42.7600 C   0  0  0  0  0  0  0  0  0  0  0  0
   45.7770   34.1450   41.4820 C   0  0  0  0  0  0  0  0  0  0  0  0
   44.6970   34.3490   40.6600 N   0  0  0  0  0  0  0  0  0  0  0  0
   43.6330   35.0740   41.0820 C   0  0  0  0  0  0  0  0  0  0  0  0
   43.5850   35.6190   42.3000 N   0  0  0  0  0  0  0  0  0  0  0  0
   44.6730   35.9990   44.5050 C   0  0  0  0  0  0  0  0  0  0  0  0
   44.5580   35.3640   45.5460 O   0  0  0  0  0  0  0  0  0  0  0  0
   47.2240   33.8550   39.5660 C   0  0  0  0  0  0  0  0  0  0  0  0
   46.4210   31.9160   40.7580 C   0  0  0  0  0  0  0  0  0  0  0  0
   48.0970   33.3120   41.8050 C   0  0  0  0  0  0  0  0  0  0  0  0
   49.0160   34.2240   41.2620 O   0  0  0  0  0  0  0  0  0  0  0  0
   49.4600   35.3520   41.9530 C   0  0  0  0  0  0  0  0  0  0  0  0
   50.1680   35.0460   43.1460 N   0  0  0  0  0  0  0  0  0  0  0  0
   49.2480   36.5250   41.5520 O   0  0  0  0  0  0  0  0  0  0  0  0
   46.5882   34.5693   43.4530 H   0  0  0  0  0  0  0  0  0  0  0  0
   42.7822   35.2181   40.3999 H   0  0  0  0  0  0  0  0  0  0  0  0
   44.8349   37.0831   44.5977 H   0  0  0  0  0  0  0  0  0  0  0  0
   47.8116   34.7817   39.6437 H   0  0  0  0  0  0  0  0  0  0  0  0
   47.8063   33.0961   39.0228 H   0  0  0  0  0  0  0  0  0  0  0  0
   46.2892   34.0580   39.0228 H   0  0  0  0  0  0  0  0  0  0  0  0
   46.2624   31.4432   41.7385 H   0  0  0  0  0  0  0  0  0  0  0  0
   45.4754   31.9210   40.1961 H   0  0  0  0  0  0  0  0  0  0  0  0
   47.1784   31.3498   40.1961 H   0  0  0  0  0  0  0  0  0  0  0  0
   47.8378   33.6052   42.8330 H   0  0  0  0  0  0  0  0  0  0  0  0
   48.5252   32.2993   41.8380 H   0  0  0  0  0  0  0  0  0  0  0  0
   50.5402   35.8059   43.7333 H   0  0  0  0  0  0  0  0  0  0  0  0
   50.3091   34.0642   43.4237 H   0  0  0  0  0  0  0  0  0  0  0  0
  1  4  1  0
  1 12  1  0
  2  8  1  0
  3  2  2  0
  4  3  1  0
  5  6  1  0
  5  4  2  0
  6  7  2  0
  7  2  1  0
  8  9  2  0
 10  1  1  0
 11  1  1  0
 13 12  1  0
 13 14  1  0
 14 15  1  0
 16 14  2  0
  3 17  1  0
  6 18  1  0
  8 19  1  0
 10 20  1  0
 10 21  1  0
 10 22  1  0
 11 23  1  0
 11 24  1  0
 11 25  1  0
 12 26  1  0
 12 27  1  0
 15 28  1  0
 15 29  1  0
M  ISO  8  17  14  18  14  19   6  20   8  21   8  22   8  23   8  24   8
M  ISO  3  25   8  26   8  27   8
M  END
>  <minimizedAffinity>  (1) 
-4.70582247

>  <minimizedRMSD>  (1) 
1.71169591

$$$$
