
     RDKit          3D

 28 28  0  0  0  0  0  0  0  0999 V2000
   46.9650   33.3230   41.0390 C   0  0  0  0  0  0  0  0  0  0  0  0
   44.6610   35.4470   43.1560 C   0  0  0  0  0  0  0  0  0  0  0  0
   45.7830   34.6970   42.8020 C   0  0  0  0  0  0  0  0  0  0  0  0
   45.8280   34.1360   41.5200 C   0  0  0  0  0  0  0  0  0  0  0  0
   44.7660   34.3470   40.6630 N   0  0  0  0  0  0  0  0  0  0  0  0
   43.7080   35.0830   41.0660 C   0  0  0  0  0  0  0  0  0  0  0  0
   43.6450   35.6290   42.2880 N   0  0  0  0  0  0  0  0  0  0  0  0
   44.6730   36.0040   44.5020 C   0  0  0  0  0  0  0  0  0  0  0  0
   44.5580   35.3600   45.5600 O   0  0  0  0  0  0  0  0  0  0  0  0
   47.3530   33.8920   39.6670 C   0  0  0  0  0  0  0  0  0  0  0  0
   46.4890   31.9230   40.7470 C   0  0  0  0  0  0  0  0  0  0  0  0
   48.1320   33.2560   41.9280 C   0  0  0  0  0  0  0  0  0  0  0  0
   49.1100   34.1040   41.3860 O   0  0  0  0  0  0  0  0  0  0  0  0
   49.4930   35.2460   42.0390 C   0  0  0  0  0  0  0  0  0  0  0  0
   49.2660   36.4260   41.6700 O   0  0  0  0  0  0  0  0  0  0  0  0
   50.2070   35.2000   43.2340 O   0  0  0  0  0  0  0  0  0  0  0  0
   46.6106   34.5503   43.5116 H   0  0  0  0  0  0  0  0  0  0  0  0
   42.8714   35.2392   40.3691 H   0  0  0  0  0  0  0  0  0  0  0  0
   44.7949   37.0936   44.5909 H   0  0  0  0  0  0  0  0  0  0  0  0
   47.9679   34.7937   39.8046 H   0  0  0  0  0  0  0  0  0  0  0  0
   47.9266   33.1390   39.1067 H   0  0  0  0  0  0  0  0  0  0  0  0
   46.4425   34.1510   39.1067 H   0  0  0  0  0  0  0  0  0  0  0  0
   46.3085   31.3922   41.6934 H   0  0  0  0  0  0  0  0  0  0  0  0
   45.5552   31.9667   40.1672 H   0  0  0  0  0  0  0  0  0  0  0  0
   47.2559   31.3884   40.1672 H   0  0  0  0  0  0  0  0  0  0  0  0
   47.8572   33.5935   42.9382 H   0  0  0  0  0  0  0  0  0  0  0  0
   48.5066   32.2248   42.0069 H   0  0  0  0  0  0  0  0  0  0  0  0
   50.4714   36.0405   43.6853 H   0  0  0  0  0  0  0  0  0  0  0  0
  1  4  1  0
  1 12  1  0
  2  8  1  0
  3  2  2  0
  4  3  1  0
  5  6  1  0
  5  4  2  0
  6  7  2  0
  7  2  1  0
  8  9  2  0
 10  1  1  0
 11  1  1  0
 13 12  1  0
 13 14  1  0
 14 16  1  0
 15 14  2  0
  3 17  1  0
  6 18  1  0
  8 19  1  0
 10 20  1  0
 10 21  1  0
 10 22  1  0
 11 23  1  0
 11 24  1  0
 11 25  1  0
 12 26  1  0
 12 27  1  0
 16 28  1  0
M  ISO  8  17  14  18  14  19   6  20   8  21   8  22   8  23   8  24   8
M  ISO  4  25   8  26   8  27   8  28   3
M  END
>  <minimizedAffinity>  (1) 
-4.75520277

>  <minimizedRMSD>  (1) 
1.74377763

$$$$
