
     RDKit          3D

 44 47  0  0  1  0  0  0  0  0999 V2000
   47.4170   32.0990   44.6860 C   0  0  0  0  0  0  0  0  0  0  0  0
   46.7690   33.2870   44.2850 C   0  0  0  0  0  0  0  0  0  0  0  0
   45.9110   33.8470   45.2330 C   0  0  0  0  0  0  0  0  0  0  0  0
   45.7440   33.2550   46.4390 N   0  0  0  0  0  0  0  0  0  0  0  0
   46.3900   32.1230   46.7640 C   0  0  0  0  0  0  0  0  0  0  0  0
   47.2130   31.5390   45.9210 N   0  0  0  0  0  0  0  0  0  0  0  0
   47.1010   33.7270   42.9710 C   0  0  0  0  0  0  0  0  0  0  0  0
   48.1590   34.5770   42.9410 N   0  0  0  0  0  0  0  0  0  0  0  0
   48.6250   35.1020   41.7850 C   0  0  0  0  0  0  0  0  0  0  0  0
   48.0590   34.8070   40.5910 N   0  0  0  0  0  0  0  0  0  0  0  0
   46.9930   33.9580   40.5710 C   0  0  0  0  0  0  0  0  0  0  0  0
   46.3190   33.5690   39.4290 C   0  0  0  0  0  0  0  0  0  0  0  0
   45.2610   32.7190   39.4490 C   0  0  0  0  0  0  0  0  0  0  0  0
   44.8230   32.2090   40.6590 C   0  0  0  0  0  0  0  0  0  0  0  0
   45.4540   32.5610   41.8220 C   0  0  0  0  0  0  0  0  0  0  0  0
   46.5330   33.4350   41.7480 C   0  0  0  0  0  0  0  0  0  0  0  0
   46.1690   31.5510   48.0840 C   0  0  1  0  0  0  0  0  0  0  0  0
   44.6760   31.7100   48.5280 C   0  0  0  0  0  0  0  0  0  0  0  0
   46.5430   30.1130   48.2210 C   0  0  0  0  0  0  0  0  0  0  0  0
   45.4410   29.3610   48.0150 O   0  0  0  0  0  0  0  0  0  0  0  0
   45.1960   28.2890   47.1850 C   0  0  0  0  0  0  0  0  0  0  0  0
   45.7340   28.1530   46.0560 O   0  0  0  0  0  0  0  0  0  0  0  0
   44.3180   27.3200   47.6070 O   0  0  0  0  0  0  0  0  0  0  0  0
   44.6080   25.5420   50.6860 N   0  0  0  0  0  0  0  0  0  0  0  0
   44.0620   26.4730   49.8880 N   0  0  0  0  0  0  0  0  0  0  0  0
   44.6790   26.4300   48.7000 C   0  0  0  0  0  0  0  0  0  0  0  0
   45.6580   25.4550   48.6920 C   0  0  0  0  0  0  0  0  0  0  0  0
   45.5850   24.9090   49.9730 C   0  0  0  0  0  0  0  0  0  0  0  0
   48.1076   31.6067   43.9856 H   0  0  0  0  0  0  0  0  0  0  0  0
   45.3676   34.7743   44.9989 H   0  0  0  0  0  0  0  0  0  0  0  0
   49.4858   35.7861   41.8157 H   0  0  0  0  0  0  0  0  0  0  0  0
   46.6552   33.9662   38.4599 H   0  0  0  0  0  0  0  0  0  0  0  0
   44.7565   32.4381   38.5127 H   0  0  0  0  0  0  0  0  0  0  0  0
   43.9663   31.5196   40.6863 H   0  0  0  0  0  0  0  0  0  0  0  0
   45.1161   32.1626   42.7900 H   0  0  0  0  0  0  0  0  0  0  0  0
   46.8441   32.1257   48.7351 H   0  0  0  0  0  0  0  0  0  0  0  0
   44.6188   31.7161   49.6265 H   0  0  0  0  0  0  0  0  0  0  0  0
   44.2753   32.6559   48.1347 H   0  0  0  0  0  0  0  0  0  0  0  0
   44.0850   30.8697   48.1347 H   0  0  0  0  0  0  0  0  0  0  0  0
   47.3111   29.8571   47.4763 H   0  0  0  0  0  0  0  0  0  0  0  0
   46.9455   29.9231   49.2269 H   0  0  0  0  0  0  0  0  0  0  0  0
   44.3387   25.3415   51.6597 H   0  0  0  0  0  0  0  0  0  0  0  0
   46.3342   25.1759   47.8705 H   0  0  0  0  0  0  0  0  0  0  0  0
   46.2180   24.0928   50.3513 H   0  0  0  0  0  0  0  0  0  0  0  0
  1  6  2  0
  2  1  1  0
  2  3  2  0
  3  4  1  0
  4  5  2  0
  5 17  1  0
  6  5  1  0
  7  2  1  0
  8  7  2  0
  9  8  1  0
 10  9  2  0
 11 10  1  0
 11 16  2  0
 12 13  2  0
 12 11  1  0
 13 14  1  0
 14 15  2  0
 16 15  1  0
 16  7  1  0
 17 19  1  0
 17 18  1  0
 20 19  1  0
 21 23  1  0
 21 20  1  0
 22 21  2  0
 23 26  1  0
 25 24  1  0
 26 25  2  0
 27 26  1  0
 27 28  2  0
 28 24  1  0
  1 29  1  0
  3 30  1  0
  9 31  1  0
 12 32  1  0
 13 33  1  0
 14 34  1  0
 15 35  1  0
 17 36  1  1
 18 37  1  0
 18 38  1  0
 18 39  1  0
 19 40  1  0
 19 41  1  0
 24 42  1  0
 27 43  1  0
 28 44  1  0
M  ISO  8  29  14  30  14  31  14  32  14  33  14  34  14  35  14  36   8
M  ISO  8  37   8  38   8  39   8  40   8  41   8  42   9  43  14  44  14
M  END
>  <minimizedAffinity>  (1) 
-5.51751518

>  <minimizedRMSD>  (1) 
0.957471788

$$$$
