
     RDKit          3D

 37 40  0  0  0  0  0  0  0  0999 V2000
   41.1280   35.5640   41.8130 C   0  0  0  0  0  0  0  0  0  0  0  0
   42.5290   35.4180   41.8170 C   0  0  0  0  0  0  0  0  0  0  0  0
   43.1110   34.5470   40.9070 C   0  0  0  0  0  0  0  0  0  0  0  0
   42.2230   33.9440   40.1220 N   0  0  0  0  0  0  0  0  0  0  0  0
   40.9170   34.0270   40.0610 C   0  0  0  0  0  0  0  0  0  0  0  0
   40.3800   34.8740   40.9480 N   0  0  0  0  0  0  0  0  0  0  0  0
   44.5700   34.3020   40.8100 C   0  0  0  0  0  0  0  0  0  0  0  0
   45.1070   33.5750   39.8250 C   0  0  0  0  0  0  0  0  0  0  0  0
   46.8880   33.6030   40.1910 S   0  0  0  0  0  0  0  0  0  0  0  0
   46.5720   34.6710   41.7240 C   0  0  0  0  0  0  0  0  0  0  0  0
   45.4180   34.7860   41.6840 N   0  0  0  0  0  0  0  0  0  0  0  0
   47.7360   35.0440   42.4920 N   0  0  0  0  0  0  0  0  0  0  0  0
   49.0060   35.2330   41.9300 C   0  0  0  0  0  0  0  0  0  0  0  0
   49.0580   35.4810   40.6600 N   0  0  0  0  0  0  0  0  0  0  0  0
   50.0980   35.1220   42.8440 N   0  0  0  0  0  0  0  0  0  0  0  0
   50.0090   35.6320   40.2530 H   0  0  0  0  0  0  0  0  0  0  0  0
   39.9800   33.3580   39.1920 C   0  0  0  0  0  0  0  0  0  0  0  0
   39.3610   34.0350   38.1860 N   0  0  0  0  0  0  0  0  0  0  0  0
   38.4870   33.5010   37.3410 C   0  0  0  0  0  0  0  0  0  0  0  0
   38.1420   32.1900   37.4330 N   0  0  0  0  0  0  0  0  0  0  0  0
   38.7000   31.4140   38.4030 C   0  0  0  0  0  0  0  0  0  0  0  0
   38.3610   30.0960   38.5040 C   0  0  0  0  0  0  0  0  0  0  0  0
   38.9120   29.2960   39.4760 C   0  0  0  0  0  0  0  0  0  0  0  0
   39.8250   29.9180   40.3330 C   0  0  0  0  0  0  0  0  0  0  0  0
   40.1330   31.2390   40.1940 C   0  0  0  0  0  0  0  0  0  0  0  0
   39.5850   32.0420   39.2260 C   0  0  0  0  0  0  0  0  0  0  0  0
   40.6474   36.2500   42.5261 H   0  0  0  0  0  0  0  0  0  0  0  0
   43.1496   35.9835   42.5277 H   0  0  0  0  0  0  0  0  0  0  0  0
   44.5926   33.0771   38.9898 H   0  0  0  0  0  0  0  0  0  0  0  0
   47.6274   35.1785   43.5074 H   0  0  0  0  0  0  0  0  0  0  0  0
   51.0641   35.2475   42.5098 H   0  0  0  0  0  0  0  0  0  0  0  0
   49.9193   34.9164   43.8373 H   0  0  0  0  0  0  0  0  0  0  0  0
   38.0368   34.1276   36.5570 H   0  0  0  0  0  0  0  0  0  0  0  0
   37.6357   29.6675   37.7967 H   0  0  0  0  0  0  0  0  0  0  0  0
   38.6509   28.2319   39.5738 H   0  0  0  0  0  0  0  0  0  0  0  0
   40.3025   29.3322   41.1323 H   0  0  0  0  0  0  0  0  0  0  0  0
   40.8571   31.6830   40.8930 H   0  0  0  0  0  0  0  0  0  0  0  0
  1  2  2  0
  3  2  1  0
  4  3  2  0
  5  4  1  0
  5  6  2  0
  6  1  1  0
  7  3  1  0
  7 11  1  0
  8  9  1  0
  8  7  2  0
  9 10  1  0
 10 12  1  0
 11 10  2  0
 13 12  1  0
 13 15  1  0
 14 13  2  0
 16 14  1  0
 17 26  1  0
 17  5  1  0
 18 17  2  0
 19 20  2  0
 19 18  1  0
 20 21  1  0
 21 22  1  0
 21 26  2  0
 22 23  2  0
 23 24  1  0
 25 24  2  0
 26 25  1  0
  1 27  1  0
  2 28  1  0
  8 29  1  0
 12 30  1  0
 15 31  1  0
 15 32  1  0
 19 33  1  0
 22 34  1  0
 23 35  1  0
 24 36  1  0
 25 37  1  0
M  ISO  8  27  14  28  14  29  14  33  14  34  14  35  14  36  14  37  14
M  END
>  <minimizedAffinity>  (1) 
-6.82800531

>  <minimizedRMSD>  (1) 
3.66740704

$$$$
