
     RDKit          3D

 46 49  0  0  1  0  0  0  0  0999 V2000
   48.5180   33.1680   41.6800 C   0  0  0  0  0  0  0  0  0  0  0  0
   47.9720   34.4100   41.2050 C   0  0  0  0  0  0  0  0  0  0  0  0
   44.2070   34.7960   41.3440 C   0  0  0  0  0  0  0  0  0  0  0  0
   45.4570   34.4050   40.8420 C   0  0  0  0  0  0  0  0  0  0  0  0
   46.6040   34.7540   41.5910 C   0  0  0  0  0  0  0  0  0  0  0  0
   46.4360   35.4500   42.7580 N   0  0  0  0  0  0  0  0  0  0  0  0
   45.1940   35.8020   43.1940 C   0  0  0  0  0  0  0  0  0  0  0  0
   44.1090   35.4830   42.5070 N   0  0  0  0  0  0  0  0  0  0  0  0
   43.0630   34.3950   40.5220 C   0  0  0  0  0  0  0  0  0  0  0  0
   42.4640   35.0740   39.7100 O   0  0  0  0  0  0  0  0  0  0  0  0
   48.8710   35.5990   41.5320 C   0  0  0  0  0  0  0  0  0  0  0  0
   48.0410   34.3360   39.6690 C   0  0  0  0  0  0  0  0  0  0  0  0
   49.9090   33.1950   41.5370 O   0  0  0  0  0  0  0  0  0  0  0  0
   50.2530   31.8890   41.2830 C   0  0  1  0  0  0  0  0  0  0  0  0
   50.1570   31.2830   39.9610 C   0  0  0  0  0  0  0  0  0  0  0  0
   51.4890   31.7810   40.3800 C   0  0  2  0  0  0  0  0  0  0  0  0
   52.4960   30.7960   40.7260 N   0  0  0  0  0  0  0  0  0  0  0  0
   52.6270   30.0490   41.8490 C   0  0  0  0  0  0  0  0  0  0  0  0
   53.7190   29.2560   41.7450 N   0  0  0  0  0  0  0  0  0  0  0  0
   54.2680   29.5180   40.5410 C   0  0  0  0  0  0  0  0  0  0  0  0
   55.3920   28.9800   39.9490 C   0  0  0  0  0  0  0  0  0  0  0  0
   56.0770   28.1060   40.5390 O   0  0  0  0  0  0  0  0  0  0  0  0
   55.7770   29.3870   38.7140 N   0  0  0  0  0  0  0  0  0  0  0  0
   55.0190   30.3300   38.1030 C   0  0  0  0  0  0  0  0  0  0  0  0
   55.3780   30.7860   36.8200 N   0  0  0  0  0  0  0  0  0  0  0  0
   53.9140   30.8670   38.6730 N   0  0  0  0  0  0  0  0  0  0  0  0
   53.5060   30.4750   39.9110 C   0  0  0  0  0  0  0  0  0  0  0  0
   48.2593   33.0336   42.7407 H   0  0  0  0  0  0  0  0  0  0  0  0
   48.1017   32.3332   41.0970 H   0  0  0  0  0  0  0  0  0  0  0  0
   45.5418   33.8462   39.8983 H   0  0  0  0  0  0  0  0  0  0  0  0
   45.0913   36.3621   44.1351 H   0  0  0  0  0  0  0  0  0  0  0  0
   42.7052   33.3632   40.6540 H   0  0  0  0  0  0  0  0  0  0  0  0
   48.9530   35.7074   42.6236 H   0  0  0  0  0  0  0  0  0  0  0  0
   49.8704   35.4316   41.1041 H   0  0  0  0  0  0  0  0  0  0  0  0
   48.4376   36.5150   41.1041 H   0  0  0  0  0  0  0  0  0  0  0  0
   48.7632   33.5615   39.3713 H   0  0  0  0  0  0  0  0  0  0  0  0
   47.0477   34.0843   39.2690 H   0  0  0  0  0  0  0  0  0  0  0  0
   48.3615   35.3093   39.2690 H   0  0  0  0  0  0  0  0  0  0  0  0
   49.8879   31.5426   42.2611 H   0  0  0  0  0  0  0  0  0  0  0  0
   49.6092   31.8065   39.1636 H   0  0  0  0  0  0  0  0  0  0  0  0
   49.7888   30.3136   39.5940 H   0  0  0  0  0  0  0  0  0  0  0  0
   52.2364   32.4803   39.9770 H   0  0  0  0  0  0  0  0  0  0  0  0
   51.9485   30.0821   42.7142 H   0  0  0  0  0  0  0  0  0  0  0  0
   56.6131   28.9947   38.2580 H   0  0  0  0  0  0  0  0  0  0  0  0
   56.2116   30.4028   36.3518 H   0  0  0  0  0  0  0  0  0  0  0  0
   54.8070   31.5027   36.3497 H   0  0  0  0  0  0  0  0  0  0  0  0
  2 11  1  0
  2  5  1  0
  2  1  1  0
  3  8  2  0
  4  3  1  0
  4  5  2  0
  5  6  1  0
  6  7  2  0
  8  7  1  0
  9  3  1  0
 10  9  2  0
 12  2  1  0
 13  1  1  0
 14 13  1  0
 15 16  1  0
 15 14  1  0
 16 17  1  0
 16 14  1  0
 17 18  1  0
 19 18  2  0
 20 19  1  0
 21 22  2  0
 21 20  1  0
 23 21  1  0
 24 26  2  0
 24 23  1  0
 25 24  1  0
 26 27  1  0
 27 20  2  0
 27 17  1  0
  1 28  1  0
  1 29  1  0
  4 30  1  0
  7 31  1  0
  9 32  1  0
 11 33  1  0
 11 34  1  0
 11 35  1  0
 12 36  1  0
 12 37  1  0
 12 38  1  0
 14 39  1  1
 15 40  1  0
 15 41  1  0
 16 42  1  6
 18 43  1  0
 23 44  1  0
 25 45  1  0
 25 46  1  0
M  ISO  8  28   8  29   8  30  14  31  14  32   6  33   8  34   8  35   8
M  ISO  8  36   8  37   8  38   8  39  13  40  13  41  13  42  13  43  14
M  ISO  1  44   9
M  END
>  <minimizedAffinity>  (1) 
-5.01123285

>  <minimizedRMSD>  (1) 
2.58189344

$$$$
