
     RDKit          3D

 44 47  0  0  1  0  0  0  0  0999 V2000
   46.2680   31.8140   44.9770 C   0  0  0  0  0  0  0  0  0  0  0  0
   46.0340   33.1940   44.7580 C   0  0  0  0  0  0  0  0  0  0  0  0
   45.5210   33.8950   45.8600 C   0  0  0  0  0  0  0  0  0  0  0  0
   45.2830   33.2520   47.0280 N   0  0  0  0  0  0  0  0  0  0  0  0
   45.5260   31.9390   47.1720 C   0  0  0  0  0  0  0  0  0  0  0  0
   46.0080   31.2180   46.1790 N   0  0  0  0  0  0  0  0  0  0  0  0
   46.3600   33.6550   43.4510 C   0  0  0  0  0  0  0  0  0  0  0  0
   47.6170   34.1610   43.3620 N   0  0  0  0  0  0  0  0  0  0  0  0
   48.1010   34.6470   42.1950 C   0  0  0  0  0  0  0  0  0  0  0  0
   47.3540   34.6520   41.0500 N   0  0  0  0  0  0  0  0  0  0  0  0
   46.0930   34.1520   41.1050 C   0  0  0  0  0  0  0  0  0  0  0  0
   45.2280   34.0950   40.0290 C   0  0  0  0  0  0  0  0  0  0  0  0
   43.9780   33.5930   40.1110 C   0  0  0  0  0  0  0  0  0  0  0  0
   43.5270   33.1080   41.3260 C   0  0  0  0  0  0  0  0  0  0  0  0
   44.3370   33.1370   42.4300 C   0  0  0  0  0  0  0  0  0  0  0  0
   45.6130   33.6640   42.2910 C   0  0  0  0  0  0  0  0  0  0  0  0
   45.2480   31.3230   48.4590 C   0  0  1  0  0  0  0  0  0  0  0  0
   45.0790   29.7760   48.3310 C   0  0  0  0  0  0  0  0  0  0  0  0
   46.2720   31.5920   49.5150 C   0  0  0  0  0  0  0  0  0  0  0  0
   47.2730   30.6870   49.3870 O   0  0  0  0  0  0  0  0  0  0  0  0
   48.5580   30.8040   48.8960 C   0  0  0  0  0  0  0  0  0  0  0  0
   48.9280   30.3040   47.8020 O   0  0  0  0  0  0  0  0  0  0  0  0
   49.4750   31.5100   49.6590 O   0  0  0  0  0  0  0  0  0  0  0  0
   50.1930   30.8140   50.7100 C   0  0  0  0  0  0  0  0  0  0  0  0
   50.2470   29.5830   51.1390 C   0  0  0  0  0  0  0  0  0  0  0  0
   51.0610   29.2840   52.1850 C   0  0  0  0  0  0  0  0  0  0  0  0
   51.7880   30.2970   52.7420 C   0  0  0  0  0  0  0  0  0  0  0  0
   51.2580   31.7800   51.6790 S   0  0  0  0  0  0  0  0  0  0  0  0
   46.6710   31.2041   44.1550 H   0  0  0  0  0  0  0  0  0  0  0  0
   45.3112   34.9715   45.7749 H   0  0  0  0  0  0  0  0  0  0  0  0
   49.1244   35.0493   42.1671 H   0  0  0  0  0  0  0  0  0  0  0  0
   45.5753   34.4776   39.0579 H   0  0  0  0  0  0  0  0  0  0  0  0
   43.3269   33.5697   39.2247 H   0  0  0  0  0  0  0  0  0  0  0  0
   42.5102   32.6960   41.4057 H   0  0  0  0  0  0  0  0  0  0  0  0
   43.9860   32.7534   43.3993 H   0  0  0  0  0  0  0  0  0  0  0  0
   44.3082   31.7968   48.7787 H   0  0  0  0  0  0  0  0  0  0  0  0
   45.0301   29.3282   49.3345 H   0  0  0  0  0  0  0  0  0  0  0  0
   44.1511   29.5525   47.7841 H   0  0  0  0  0  0  0  0  0  0  0  0
   45.9368   29.3574   47.7841 H   0  0  0  0  0  0  0  0  0  0  0  0
   46.6735   32.6086   49.3915 H   0  0  0  0  0  0  0  0  0  0  0  0
   45.8148   31.5083   50.5120 H   0  0  0  0  0  0  0  0  0  0  0  0
   49.6422   28.7985   50.6607 H   0  0  0  0  0  0  0  0  0  0  0  0
   51.1323   28.2567   52.5716 H   0  0  0  0  0  0  0  0  0  0  0  0
   52.4945   30.2633   53.5844 H   0  0  0  0  0  0  0  0  0  0  0  0
  1  6  2  0
  2  1  1  0
  2  3  2  0
  3  4  1  0
  4  5  2  0
  5 17  1  0
  6  5  1  0
  7  2  1  0
  8  7  2  0
  9  8  1  0
 10 11  1  0
 10  9  2  0
 11 16  2  0
 12 13  2  0
 12 11  1  0
 13 14  1  0
 14 15  2  0
 16 15  1  0
 16  7  1  0
 17 19  1  0
 18 17  1  0
 20 19  1  0
 21 20  1  0
 21 23  1  0
 22 21  2  0
 23 24  1  0
 24 25  2  0
 24 28  1  0
 25 26  1  0
 26 27  2  0
 28 27  1  0
  1 29  1  0
  3 30  1  0
  9 31  1  0
 12 32  1  0
 13 33  1  0
 14 34  1  0
 15 35  1  0
 17 36  1  1
 18 37  1  0
 18 38  1  0
 18 39  1  0
 19 40  1  0
 19 41  1  0
 25 42  1  0
 26 43  1  0
 27 44  1  0
M  ISO  8  29  14  30  14  31  14  32  14  33  14  34  14  35  14  36   8
M  ISO  8  37   8  38   8  39   8  40   8  41   8  42  14  43  14  44  14
M  END
>  <minimizedAffinity>  (1) 
-5.48403215

>  <minimizedRMSD>  (1) 
4.51805449

$$$$
