
     RDKit          3D

 52 55  0  0  1  0  0  0  0  0999 V2000
   47.4670   31.9100   44.5740 C   0  0  0  0  0  0  0  0  0  0  0  0
   46.8700   33.1620   44.2630 C   0  0  0  0  0  0  0  0  0  0  0  0
   46.0560   33.6900   45.2550 C   0  0  0  0  0  0  0  0  0  0  0  0
   45.8710   33.0260   46.4200 N   0  0  0  0  0  0  0  0  0  0  0  0
   46.4610   31.8440   46.6600 C   0  0  0  0  0  0  0  0  0  0  0  0
   47.2480   31.2780   45.7700 N   0  0  0  0  0  0  0  0  0  0  0  0
   47.2150   33.6710   42.9780 C   0  0  0  0  0  0  0  0  0  0  0  0
   48.3010   34.4950   43.0060 N   0  0  0  0  0  0  0  0  0  0  0  0
   48.7770   35.0710   41.8760 C   0  0  0  0  0  0  0  0  0  0  0  0
   48.1990   34.8620   40.6550 N   0  0  0  0  0  0  0  0  0  0  0  0
   47.1190   34.0460   40.6000 C   0  0  0  0  0  0  0  0  0  0  0  0
   46.4310   33.7400   39.4370 C   0  0  0  0  0  0  0  0  0  0  0  0
   45.3570   32.9230   39.4030 C   0  0  0  0  0  0  0  0  0  0  0  0
   44.9080   32.3580   40.5800 C   0  0  0  0  0  0  0  0  0  0  0  0
   45.5470   32.6250   41.7600 C   0  0  0  0  0  0  0  0  0  0  0  0
   46.6500   33.4720   41.7440 C   0  0  0  0  0  0  0  0  0  0  0  0
   46.2200   31.1970   47.9400 C   0  0  1  0  0  0  0  0  0  0  0  0
   44.7810   31.5010   48.4740 C   0  0  0  0  0  0  0  0  0  0  0  0
   46.4030   29.7100   47.9300 C   0  0  0  0  0  0  0  0  0  0  0  0
   45.1930   29.1250   47.7860 O   0  0  0  0  0  0  0  0  0  0  0  0
   44.8230   27.8510   47.3970 C   0  0  0  0  0  0  0  0  0  0  0  0
   43.9060   27.6290   46.5640 O   0  0  0  0  0  0  0  0  0  0  0  0
   45.5100   26.7930   47.9670 O   0  0  0  0  0  0  0  0  0  0  0  0
   45.5800   23.2310   49.6790 N   0  0  0  0  0  0  0  0  0  0  0  0
   45.7620   24.4450   50.4540 C   0  0  0  0  0  0  0  0  0  0  0  0
   44.8630   25.5380   49.9370 C   0  0  0  0  0  0  0  0  0  0  0  0
   44.7740   25.6040   48.4540 C   0  0  0  0  0  0  0  0  0  0  0  0
   45.2140   24.4410   47.6770 C   0  0  0  0  0  0  0  0  0  0  0  0
   46.1850   23.5270   48.3780 C   0  0  0  0  0  0  0  0  0  0  0  0
   48.1248   31.4340   43.8320 H   0  0  0  0  0  0  0  0  0  0  0  0
   45.5566   34.6567   45.0933 H   0  0  0  0  0  0  0  0  0  0  0  0
   49.6568   35.7279   41.9431 H   0  0  0  0  0  0  0  0  0  0  0  0
   46.7777   34.1857   38.4930 H   0  0  0  0  0  0  0  0  0  0  0  0
   44.8471   32.7106   38.4517 H   0  0  0  0  0  0  0  0  0  0  0  0
   44.0335   31.6909   40.5690 H   0  0  0  0  0  0  0  0  0  0  0  0
   45.1955   32.1789   42.7020 H   0  0  0  0  0  0  0  0  0  0  0  0
   46.9867   31.6258   48.6020 H   0  0  0  0  0  0  0  0  0  0  0  0
   44.7901   31.4991   49.5740 H   0  0  0  0  0  0  0  0  0  0  0  0
   44.4563   32.4876   48.1117 H   0  0  0  0  0  0  0  0  0  0  0  0
   44.0850   30.7301   48.1117 H   0  0  0  0  0  0  0  0  0  0  0  0
   47.0549   29.4230   47.0918 H   0  0  0  0  0  0  0  0  0  0  0  0
   46.8672   29.3834   48.8722 H   0  0  0  0  0  0  0  0  0  0  0  0
   46.0574   22.4373   50.1296 H   0  0  0  0  0  0  0  0  0  0  0  0
   45.5177   24.2426   51.5073 H   0  0  0  0  0  0  0  0  0  0  0  0
   46.8086   24.7717   50.3647 H   0  0  0  0  0  0  0  0  0  0  0  0
   43.8517   25.3705   50.3361 H   0  0  0  0  0  0  0  0  0  0  0  0
   45.3003   26.4908   50.2700 H   0  0  0  0  0  0  0  0  0  0  0  0
   43.6889   25.6478   48.2788 H   0  0  0  0  0  0  0  0  0  0  0  0
   45.6958   24.8085   46.7589 H   0  0  0  0  0  0  0  0  0  0  0  0
   44.3113   23.8404   47.4917 H   0  0  0  0  0  0  0  0  0  0  0  0
   46.3259   22.6013   47.8007 H   0  0  0  0  0  0  0  0  0  0  0  0
   47.1756   23.9927   48.4868 H   0  0  0  0  0  0  0  0  0  0  0  0
  1  6  2  0
  2  1  1  0
  2  3  2  0
  3  4  1  0
  4  5  2  0
  5 17  1  0
  6  5  1  0
  7  8  2  0
  7  2  1  0
  9  8  1  0
 10  9  2  0
 11 10  1  0
 11 16  2  0
 12 11  1  0
 13 12  2  0
 13 14  1  0
 14 15  2  0
 16 15  1  0
 16  7  1  0
 17 18  1  0
 19 17  1  0
 20 19  1  0
 21 20  1  0
 21 23  1  0
 22 21  2  0
 23 27  1  0
 24 25  1  0
 26 25  1  0
 27 26  1  0
 28 29  1  0
 28 27  1  0
 29 24  1  0
  1 30  1  0
  3 31  1  0
  9 32  1  0
 12 33  1  0
 13 34  1  0
 14 35  1  0
 15 36  1  0
 17 37  1  1
 18 38  1  0
 18 39  1  0
 18 40  1  0
 19 41  1  0
 19 42  1  0
 24 43  1  0
 25 44  1  0
 25 45  1  0
 26 46  1  0
 26 47  1  0
 27 48  1  0
 28 49  1  0
 28 50  1  0
 29 51  1  0
 29 52  1  0
M  ISO  8  30  14  31  14  32  14  33  14  34  14  35  14  36  14  37   8
M  ISO  8  38   8  39   8  40   8  41   8  42   8  43   5  44  13  45  13
M  ISO  7  46  13  47  13  48  13  49  13  50  13  51  13  52  13
M  END
>  <minimizedAffinity>  (1) 
-5.46244764

>  <minimizedRMSD>  (1) 
1.19842362

$$$$
