
     RDKit          3D

 45 47  0  0  1  0  0  0  0  0999 V2000
   47.9260   34.3640   41.1380 C   0  0  0  0  0  0  0  0  0  0  0  0
   44.1780   34.8160   41.3480 C   0  0  0  0  0  0  0  0  0  0  0  0
   45.4090   34.4040   40.8160 C   0  0  0  0  0  0  0  0  0  0  0  0
   46.5740   34.7320   41.5510 C   0  0  0  0  0  0  0  0  0  0  0  0
   46.4280   35.4260   42.7230 N   0  0  0  0  0  0  0  0  0  0  0  0
   45.2010   35.7910   43.1750 C   0  0  0  0  0  0  0  0  0  0  0  0
   44.1010   35.4950   42.5050 N   0  0  0  0  0  0  0  0  0  0  0  0
   43.0120   34.4300   40.5220 C   0  0  0  0  0  0  0  0  0  0  0  0
   42.4390   35.1160   39.6960 O   0  0  0  0  0  0  0  0  0  0  0  0
   48.8530   35.5360   41.4910 C   0  0  0  0  0  0  0  0  0  0  0  0
   47.9840   34.3410   39.6030 C   0  0  0  0  0  0  0  0  0  0  0  0
   48.4490   33.1010   41.5790 C   0  0  0  0  0  0  0  0  0  0  0  0
   49.8510   33.1220   41.4340 O   0  0  0  0  0  0  0  0  0  0  0  0
   50.1540   31.8460   41.0070 C   0  0  1  0  0  0  0  0  0  0  0  0
   51.1250   31.5630   39.9610 C   0  0  0  0  0  0  0  0  0  0  0  0
   51.5910   31.4460   41.3550 C   0  0  2  0  0  0  0  0  0  0  0  0
   51.7270   30.1980   42.0320 N   0  0  0  0  0  0  0  0  0  0  0  0
   51.9120   30.3110   43.4290 C   0  0  0  0  0  0  0  0  0  0  0  0
   52.8570   29.3920   44.0970 C   0  0  0  0  0  0  0  0  0  0  0  0
   53.8110   28.8110   43.2980 O   0  0  0  0  0  0  0  0  0  0  0  0
   53.9510   29.4000   42.0540 C   0  0  0  0  0  0  0  0  0  0  0  0
   52.5930   29.2620   41.3970 C   0  0  0  0  0  0  0  0  0  0  0  0
   45.4668   33.8495   39.8678 H   0  0  0  0  0  0  0  0  0  0  0  0
   45.1205   36.3462   44.1212 H   0  0  0  0  0  0  0  0  0  0  0  0
   42.6209   33.4127   40.6709 H   0  0  0  0  0  0  0  0  0  0  0  0
   48.9265   35.6289   42.5846 H   0  0  0  0  0  0  0  0  0  0  0  0
   49.8528   35.3522   41.0706 H   0  0  0  0  0  0  0  0  0  0  0  0
   48.4439   36.4666   41.0706 H   0  0  0  0  0  0  0  0  0  0  0  0
   48.9611   33.9535   39.2788 H   0  0  0  0  0  0  0  0  0  0  0  0
   47.1851   33.6916   39.2156 H   0  0  0  0  0  0  0  0  0  0  0  0
   47.8473   35.3614   39.2156 H   0  0  0  0  0  0  0  0  0  0  0  0
   48.1876   32.9396   42.6352 H   0  0  0  0  0  0  0  0  0  0  0  0
   48.0203   32.2852   40.9784 H   0  0  0  0  0  0  0  0  0  0  0  0
   49.1201   31.4958   41.1429 H   0  0  0  0  0  0  0  0  0  0  0  0
   51.0131   30.6554   39.3496 H   0  0  0  0  0  0  0  0  0  0  0  0
   51.4830   32.1239   39.0851 H   0  0  0  0  0  0  0  0  0  0  0  0
   52.4674   31.8502   41.8828 H   0  0  0  0  0  0  0  0  0  0  0  0
   52.2615   31.3350   43.6274 H   0  0  0  0  0  0  0  0  0  0  0  0
   50.9329   30.0396   43.8506 H   0  0  0  0  0  0  0  0  0  0  0  0
   53.3782   29.9600   44.8817 H   0  0  0  0  0  0  0  0  0  0  0  0
   52.2416   28.5600   44.4698 H   0  0  0  0  0  0  0  0  0  0  0  0
   54.2240   30.4606   42.1574 H   0  0  0  0  0  0  0  0  0  0  0  0
   54.7462   28.9254   41.4604 H   0  0  0  0  0  0  0  0  0  0  0  0
   52.2096   28.2400   41.5328 H   0  0  0  0  0  0  0  0  0  0  0  0
   52.6577   29.4570   40.3164 H   0  0  0  0  0  0  0  0  0  0  0  0
  1 10  1  0
  1  4  1  0
  1 12  1  0
  2  7  2  0
  3  2  1  0
  3  4  2  0
  4  5  1  0
  5  6  2  0
  7  6  1  0
  8  2  1  0
  9  8  2  0
 11  1  1  0
 13 12  1  0
 14 16  1  0
 14 13  1  0
 15 14  1  0
 15 16  1  0
 16 17  1  0
 17 18  1  0
 18 19  1  0
 20 19  1  0
 21 20  1  0
 22 17  1  0
 22 21  1  0
  3 23  1  0
  6 24  1  0
  8 25  1  0
 10 26  1  0
 10 27  1  0
 10 28  1  0
 11 29  1  0
 11 30  1  0
 11 31  1  0
 12 32  1  0
 12 33  1  0
 14 34  1  1
 15 35  1  0
 15 36  1  0
 16 37  1  6
 18 38  1  0
 18 39  1  0
 19 40  1  0
 19 41  1  0
 21 42  1  0
 21 43  1  0
 22 44  1  0
 22 45  1  0
M  ISO  8  23  14  24  14  25   6  26   8  27   8  28   8  29   8  30   8
M  ISO  8  31   8  32   8  33   8  34  13  35  13  36  13  37  13  38  13
M  ISO  7  39  13  40  13  41  13  42  13  43  13  44  13  45  13
M  END
>  <minimizedAffinity>  (1) 
-4.34803343

>  <minimizedRMSD>  (1) 
1.19808781

$$$$
