
     RDKit          3D

 45 47  0  0  1  0  0  0  0  0999 V2000
   47.9450   34.4700   41.1520 C   0  0  0  0  0  0  0  0  0  0  0  0
   44.1630   34.7390   41.3780 C   0  0  0  0  0  0  0  0  0  0  0  0
   45.4160   34.3790   40.8640 C   0  0  0  0  0  0  0  0  0  0  0  0
   46.5680   34.7620   41.5560 C   0  0  0  0  0  0  0  0  0  0  0  0
   46.4100   35.4770   42.7120 N   0  0  0  0  0  0  0  0  0  0  0  0
   45.1620   35.8030   43.1710 C   0  0  0  0  0  0  0  0  0  0  0  0
   44.0680   35.4430   42.5210 N   0  0  0  0  0  0  0  0  0  0  0  0
   43.0090   34.2950   40.5840 C   0  0  0  0  0  0  0  0  0  0  0  0
   42.4280   34.9310   39.7170 O   0  0  0  0  0  0  0  0  0  0  0  0
   48.8320   35.6080   41.5390 C   0  0  0  0  0  0  0  0  0  0  0  0
   47.9870   34.4050   39.6220 C   0  0  0  0  0  0  0  0  0  0  0  0
   48.4690   33.1380   41.6020 C   0  0  0  0  0  0  0  0  0  0  0  0
   49.8790   33.2780   41.5660 O   0  0  0  0  0  0  0  0  0  0  0  0
   50.3080   31.9900   41.3390 C   0  0  1  0  0  0  0  0  0  0  0  0
   51.6980   31.6700   41.0180 C   0  0  0  0  0  0  0  0  0  0  0  0
   51.2430   31.4450   42.4040 C   0  0  2  0  0  0  0  0  0  0  0  0
   51.1600   29.9960   42.8170 C   0  0  0  0  0  0  0  0  0  0  0  0
   52.4740   29.6620   43.4980 C   0  0  0  0  0  0  0  0  0  0  0  0
   52.1110   29.0200   44.8200 C   0  0  0  0  0  0  0  0  0  0  0  0
   50.6990   28.5430   44.5730 C   0  0  0  0  0  0  0  0  0  0  0  0
   50.0910   29.7520   43.8520 C   0  0  0  0  0  0  0  0  0  0  0  0
   45.4916   33.8034   39.9296 H   0  0  0  0  0  0  0  0  0  0  0  0
   45.0669   36.3786   44.1035 H   0  0  0  0  0  0  0  0  0  0  0  0
   42.6281   33.2842   40.7917 H   0  0  0  0  0  0  0  0  0  0  0  0
   48.8845   35.6754   42.6357 H   0  0  0  0  0  0  0  0  0  0  0  0
   49.8407   35.4411   41.1331 H   0  0  0  0  0  0  0  0  0  0  0  0
   48.4239   36.5454   41.1331 H   0  0  0  0  0  0  0  0  0  0  0  0
   48.5592   33.5195   39.3082 H   0  0  0  0  0  0  0  0  0  0  0  0
   46.9616   34.3370   39.2296 H   0  0  0  0  0  0  0  0  0  0  0  0
   48.4704   35.3119   39.2296 H   0  0  0  0  0  0  0  0  0  0  0  0
   48.1272   32.9109   42.6226 H   0  0  0  0  0  0  0  0  0  0  0  0
   48.1152   32.3137   40.9653 H   0  0  0  0  0  0  0  0  0  0  0  0
   49.3602   31.7196   40.8505 H   0  0  0  0  0  0  0  0  0  0  0  0
   51.9224   30.8079   40.3727 H   0  0  0  0  0  0  0  0  0  0  0  0
   52.5281   32.2344   40.5680 H   0  0  0  0  0  0  0  0  0  0  0  0
   51.5118   31.7778   43.4174 H   0  0  0  0  0  0  0  0  0  0  0  0
   50.9397   29.3954   41.9222 H   0  0  0  0  0  0  0  0  0  0  0  0
   53.0565   28.9620   42.8810 H   0  0  0  0  0  0  0  0  0  0  0  0
   53.0906   30.5611   43.6440 H   0  0  0  0  0  0  0  0  0  0  0  0
   52.7806   28.1783   45.0507 H   0  0  0  0  0  0  0  0  0  0  0  0
   52.2004   29.7018   45.6786 H   0  0  0  0  0  0  0  0  0  0  0  0
   50.6832   27.6458   43.9368 H   0  0  0  0  0  0  0  0  0  0  0  0
   50.1596   28.2458   45.4844 H   0  0  0  0  0  0  0  0  0  0  0  0
   49.9702   30.6126   44.5264 H   0  0  0  0  0  0  0  0  0  0  0  0
   49.0798   29.5939   43.4489 H   0  0  0  0  0  0  0  0  0  0  0  0
  1 10  1  0
  1  4  1  0
  1 12  1  0
  2  7  2  0
  3  2  1  0
  3  4  2  0
  4  5  1  0
  5  6  2  0
  7  6  1  0
  8  2  1  0
  9  8  2  0
 11  1  1  0
 13 12  1  0
 14 13  1  0
 14 16  1  0
 15 14  1  0
 15 16  1  0
 16 17  1  0
 17 18  1  0
 17 21  1  0
 18 19  1  0
 20 19  1  0
 21 20  1  0
  3 22  1  0
  6 23  1  0
  8 24  1  0
 10 25  1  0
 10 26  1  0
 10 27  1  0
 11 28  1  0
 11 29  1  0
 11 30  1  0
 12 31  1  0
 12 32  1  0
 14 33  1  6
 15 34  1  0
 15 35  1  0
 16 36  1  1
 17 37  1  0
 18 38  1  0
 18 39  1  0
 19 40  1  0
 19 41  1  0
 20 42  1  0
 20 43  1  0
 21 44  1  0
 21 45  1  0
M  ISO  8  22  14  23  14  24   6  25   8  26   8  27   8  28   8  29   8
M  ISO  8  30   8  31   8  32   8  33  13  34  13  35  13  36  13  37  13
M  ISO  8  38  13  39  13  40  13  41  13  42  13  43  13  44  13  45  13
M  END
>  <minimizedAffinity>  (1) 
-4.42333841

>  <minimizedRMSD>  (1) 
0.607332051

$$$$
