
     RDKit          3D

 35 36  0  0  1  0  0  0  0  0999 V2000
   47.9540   34.4050   41.1790 C   0  0  0  0  0  0  0  0  0  0  0  0
   44.1970   34.7860   41.3370 C   0  0  0  0  0  0  0  0  0  0  0  0
   45.4460   34.4000   40.8310 C   0  0  0  0  0  0  0  0  0  0  0  0
   46.5940   34.7520   41.5770 C   0  0  0  0  0  0  0  0  0  0  0  0
   46.4340   35.4470   42.7440 N   0  0  0  0  0  0  0  0  0  0  0  0
   45.1860   35.7950   43.1820 C   0  0  0  0  0  0  0  0  0  0  0  0
   44.0960   35.4740   42.4980 N   0  0  0  0  0  0  0  0  0  0  0  0
   43.0510   34.3860   40.5250 C   0  0  0  0  0  0  0  0  0  0  0  0
   42.4570   35.0550   39.7000 O   0  0  0  0  0  0  0  0  0  0  0  0
   48.8620   35.5950   41.5290 C   0  0  0  0  0  0  0  0  0  0  0  0
   48.0330   34.3710   39.6450 C   0  0  0  0  0  0  0  0  0  0  0  0
   48.5100   33.1670   41.6350 C   0  0  0  0  0  0  0  0  0  0  0  0
   49.3300   32.6220   40.6400 O   0  0  0  0  0  0  0  0  0  0  0  0
   49.2590   31.2610   40.8500 C   0  0  1  0  0  0  0  0  0  0  0  0
   49.6900   30.2820   39.8640 C   0  0  0  0  0  0  0  0  0  0  0  0
   50.6480   30.6220   40.9400 C   0  0  1  0  0  0  0  0  0  0  0  0
   51.8680   31.4610   40.6670 C   0  0  0  0  0  0  0  0  0  0  0  0
   51.8370   32.6560   41.3670 F   0  0  0  0  0  0  0  0  0  0  0  0
   51.7910   31.8110   39.3250 F   0  0  0  0  0  0  0  0  0  0  0  0
   53.0540   30.7870   40.8200 F   0  0  0  0  0  0  0  0  0  0  0  0
   45.5299   33.8426   39.8864 H   0  0  0  0  0  0  0  0  0  0  0  0
   45.0839   36.3543   44.1237 H   0  0  0  0  0  0  0  0  0  0  0  0
   42.6818   33.3610   40.6767 H   0  0  0  0  0  0  0  0  0  0  0  0
   48.9353   35.6911   42.6223 H   0  0  0  0  0  0  0  0  0  0  0  0
   49.8642   35.4279   41.1076 H   0  0  0  0  0  0  0  0  0  0  0  0
   48.4362   36.5175   41.1076 H   0  0  0  0  0  0  0  0  0  0  0  0
   49.0030   33.9535   39.3370 H   0  0  0  0  0  0  0  0  0  0  0  0
   47.2212   33.7426   39.2499 H   0  0  0  0  0  0  0  0  0  0  0  0
   47.9314   35.3925   39.2499 H   0  0  0  0  0  0  0  0  0  0  0  0
   49.1059   33.3461   42.5421 H   0  0  0  0  0  0  0  0  0  0  0  0
   47.6951   32.4634   41.8607 H   0  0  0  0  0  0  0  0  0  0  0  0
   48.3242   31.3379   41.4247 H   0  0  0  0  0  0  0  0  0  0  0  0
   49.2229   29.2862   39.8492 H   0  0  0  0  0  0  0  0  0  0  0  0
   49.7482   30.2841   38.7655 H   0  0  0  0  0  0  0  0  0  0  0  0
   51.2204   30.0488   41.6842 H   0  0  0  0  0  0  0  0  0  0  0  0
  1 10  1  0
  1  4  1  0
  1 12  1  0
  2  7  2  0
  3  2  1  0
  3  4  2  0
  4  5  1  0
  5  6  2  0
  7  6  1  0
  8  2  1  0
  9  8  2  0
 11  1  1  0
 13 14  1  0
 13 12  1  0
 14 16  1  0
 15 14  1  0
 15 16  1  0
 17 20  1  0
 17 16  1  0
 17 18  1  0
 19 17  1  0
  3 21  1  0
  6 22  1  0
  8 23  1  0
 10 24  1  0
 10 25  1  0
 10 26  1  0
 11 27  1  0
 11 28  1  0
 11 29  1  0
 12 30  1  0
 12 31  1  0
 14 32  1  1
 15 33  1  0
 15 34  1  0
 16 35  1  1
M  ISO  8  21  14  22  14  23   6  24   8  25   8  26   8  27   8  28   8
M  ISO  7  29   8  30   8  31   8  32  13  33  13  34  13  35  13
M  END
>  <minimizedAffinity>  (1) 
-4.37781239

>  <minimizedRMSD>  (1) 
1.74060154

$$$$
