
     RDKit          3D

 39 41  0  0  1  0  0  0  0  0999 V2000
   47.9420   34.3820   41.1750 C   0  0  0  0  0  0  0  0  0  0  0  0
   44.1880   34.8030   41.3440 C   0  0  0  0  0  0  0  0  0  0  0  0
   45.4360   34.3990   40.8390 C   0  0  0  0  0  0  0  0  0  0  0  0
   46.5820   34.7430   41.5760 C   0  0  0  0  0  0  0  0  0  0  0  0
   46.4260   35.4500   42.7440 N   0  0  0  0  0  0  0  0  0  0  0  0
   45.2050   35.8130   43.1850 C   0  0  0  0  0  0  0  0  0  0  0  0
   44.0980   35.4980   42.5020 N   0  0  0  0  0  0  0  0  0  0  0  0
   43.0350   34.4160   40.5210 C   0  0  0  0  0  0  0  0  0  0  0  0
   42.4440   35.1260   39.7140 O   0  0  0  0  0  0  0  0  0  0  0  0
   48.8540   35.5690   41.5180 C   0  0  0  0  0  0  0  0  0  0  0  0
   48.0120   34.3460   39.6400 C   0  0  0  0  0  0  0  0  0  0  0  0
   48.4760   33.1310   41.6350 C   0  0  0  0  0  0  0  0  0  0  0  0
   49.8720   33.1610   41.4570 O   0  0  0  0  0  0  0  0  0  0  0  0
   50.1850   31.8790   41.0730 C   0  0  1  0  0  0  0  0  0  0  0  0
   50.7220   31.5530   39.7480 C   0  0  0  0  0  0  0  0  0  0  0  0
   51.6690   31.6410   40.8930 C   0  0  2  0  0  0  0  0  0  0  0  0
   52.3120   30.4280   41.3960 C   0  0  0  0  0  0  0  0  0  0  0  0
   52.9830   29.5200   40.6240 C   0  0  0  0  0  0  0  0  0  0  0  0
   53.4380   28.5240   41.4760 C   0  0  0  0  0  0  0  0  0  0  0  0
   53.0340   28.8490   42.7320 N   0  0  0  0  0  0  0  0  0  0  0  0
   52.3650   29.9860   42.6650 N   0  0  0  0  0  0  0  0  0  0  0  0
   45.5130   33.8329   39.8990 H   0  0  0  0  0  0  0  0  0  0  0  0
   45.1168   36.3789   44.1241 H   0  0  0  0  0  0  0  0  0  0  0  0
   42.6645   33.3871   40.6400 H   0  0  0  0  0  0  0  0  0  0  0  0
   48.9306   35.6687   42.6108 H   0  0  0  0  0  0  0  0  0  0  0  0
   49.8545   35.3971   41.0944 H   0  0  0  0  0  0  0  0  0  0  0  0
   48.4301   36.4915   41.0944 H   0  0  0  0  0  0  0  0  0  0  0  0
   48.9498   33.8637   39.3269 H   0  0  0  0  0  0  0  0  0  0  0  0
   47.1574   33.7755   39.2473 H   0  0  0  0  0  0  0  0  0  0  0  0
   47.9789   35.3730   39.2473 H   0  0  0  0  0  0  0  0  0  0  0  0
   48.2386   32.9931   42.7002 H   0  0  0  0  0  0  0  0  0  0  0  0
   48.0368   32.2970   41.0680 H   0  0  0  0  0  0  0  0  0  0  0  0
   49.3377   31.4601   41.6357 H   0  0  0  0  0  0  0  0  0  0  0  0
   50.7422   32.3233   38.9630 H   0  0  0  0  0  0  0  0  0  0  0  0
   50.4958   30.7830   38.9957 H   0  0  0  0  0  0  0  0  0  0  0  0
   52.5812   32.2080   41.1304 H   0  0  0  0  0  0  0  0  0  0  0  0
   53.1332   29.5699   39.5354 H   0  0  0  0  0  0  0  0  0  0  0  0
   54.0186   27.6353   41.1879 H   0  0  0  0  0  0  0  0  0  0  0  0
   53.2173   28.3042   43.5867 H   0  0  0  0  0  0  0  0  0  0  0  0
  1 10  1  0
  1  4  1  0
  1 12  1  0
  2  7  2  0
  3  2  1  0
  3  4  2  0
  4  5  1  0
  5  6  2  0
  7  6  1  0
  8  2  1  0
  9  8  2  0
 11  1  1  0
 13 12  1  0
 14 13  1  0
 15 16  1  0
 15 14  1  0
 16 14  1  0
 16 17  1  0
 17 21  2  0
 18 17  1  0
 18 19  2  0
 19 20  1  0
 21 20  1  0
  3 22  1  0
  6 23  1  0
  8 24  1  0
 10 25  1  0
 10 26  1  0
 10 27  1  0
 11 28  1  0
 11 29  1  0
 11 30  1  0
 12 31  1  0
 12 32  1  0
 14 33  1  1
 15 34  1  0
 15 35  1  0
 16 36  1  6
 18 37  1  0
 19 38  1  0
 20 39  1  0
M  ISO  8  22  14  23  14  24   6  25   8  26   8  27   8  28   8  29   8
M  ISO  8  30   8  31   8  32   8  33  13  34  13  35  13  36  13  37  14
M  ISO  2  38  14  39   9
M  END
>  <minimizedAffinity>  (1) 
-4.30919552

>  <minimizedRMSD>  (1) 
1.18286276

$$$$
