
     RDKit          3D

 39 40  0  0  1  0  0  0  0  0999 V2000
   47.9420   34.3870   41.1660 C   0  0  0  0  0  0  0  0  0  0  0  0
   44.1870   34.8140   41.3440 C   0  0  0  0  0  0  0  0  0  0  0  0
   45.4290   34.4140   40.8280 C   0  0  0  0  0  0  0  0  0  0  0  0
   46.5850   34.7490   41.5700 C   0  0  0  0  0  0  0  0  0  0  0  0
   46.4370   35.4400   42.7430 N   0  0  0  0  0  0  0  0  0  0  0  0
   45.2050   35.8020   43.1910 C   0  0  0  0  0  0  0  0  0  0  0  0
   44.1010   35.4960   42.5090 N   0  0  0  0  0  0  0  0  0  0  0  0
   43.0350   34.4270   40.5360 C   0  0  0  0  0  0  0  0  0  0  0  0
   42.4470   35.0880   39.7050 O   0  0  0  0  0  0  0  0  0  0  0  0
   48.8640   35.5610   41.5220 C   0  0  0  0  0  0  0  0  0  0  0  0
   48.0110   34.3600   39.6320 C   0  0  0  0  0  0  0  0  0  0  0  0
   48.4750   33.1320   41.6170 C   0  0  0  0  0  0  0  0  0  0  0  0
   49.8650   33.1240   41.3950 O   0  0  0  0  0  0  0  0  0  0  0  0
   50.1190   31.8430   40.9580 C   0  0  1  0  0  0  0  0  0  0  0  0
   50.9270   31.5450   39.7800 C   0  0  0  0  0  0  0  0  0  0  0  0
   51.5860   31.4450   41.1010 C   0  0  2  0  0  0  0  0  0  0  0  0
   51.9100   30.1100   41.5610 N   0  0  0  0  0  0  0  0  0  0  0  0
   53.2290   29.7120   41.8530 C   0  0  0  0  0  0  0  0  0  0  0  0
   54.2100   30.3310   41.2470 N   0  0  0  0  0  0  0  0  0  0  0  0
   53.4160   28.6560   42.7950 N   0  0  0  0  0  0  0  0  0  0  0  0
   55.2010   30.0360   41.4640 H   0  0  0  0  0  0  0  0  0  0  0  0
   45.5007   33.8598   39.8805 H   0  0  0  0  0  0  0  0  0  0  0  0
   45.1176   36.3588   44.1356 H   0  0  0  0  0  0  0  0  0  0  0  0
   42.6517   33.4092   40.7006 H   0  0  0  0  0  0  0  0  0  0  0  0
   48.9357   35.6523   42.6159 H   0  0  0  0  0  0  0  0  0  0  0  0
   49.8649   35.3814   41.1027 H   0  0  0  0  0  0  0  0  0  0  0  0
   48.4522   36.4908   41.1027 H   0  0  0  0  0  0  0  0  0  0  0  0
   48.9921   33.9761   39.3158 H   0  0  0  0  0  0  0  0  0  0  0  0
   47.2179   33.7059   39.2407 H   0  0  0  0  0  0  0  0  0  0  0  0
   47.8724   35.3787   39.2407 H   0  0  0  0  0  0  0  0  0  0  0  0
   48.2713   33.0082   42.6909 H   0  0  0  0  0  0  0  0  0  0  0  0
   48.0034   32.3055   41.0652 H   0  0  0  0  0  0  0  0  0  0  0  0
   49.1195   31.4933   41.2558 H   0  0  0  0  0  0  0  0  0  0  0  0
   50.7276   30.6303   39.2024 H   0  0  0  0  0  0  0  0  0  0  0  0
   51.1553   32.0928   38.8538 H   0  0  0  0  0  0  0  0  0  0  0  0
   52.4635   31.8852   41.5973 H   0  0  0  0  0  0  0  0  0  0  0  0
   51.1480   29.4271   41.6788 H   0  0  0  0  0  0  0  0  0  0  0  0
   54.3672   28.3397   43.0320 H   0  0  0  0  0  0  0  0  0  0  0  0
   52.5998   28.2103   43.2378 H   0  0  0  0  0  0  0  0  0  0  0  0
  1 10  1  0
  1  4  1  0
  1 12  1  0
  2  7  2  0
  3  2  1  0
  3  4  2  0
  4  5  1  0
  5  6  2  0
  7  6  1  0
  8  2  1  0
  9  8  2  0
 11  1  1  0
 13 12  1  0
 14 16  1  0
 14 13  1  0
 15 14  1  0
 15 16  1  0
 16 17  1  0
 17 18  1  0
 18 20  1  0
 19 21  1  0
 19 18  2  0
  3 22  1  0
  6 23  1  0
  8 24  1  0
 10 25  1  0
 10 26  1  0
 10 27  1  0
 11 28  1  0
 11 29  1  0
 11 30  1  0
 12 31  1  0
 12 32  1  0
 14 33  1  1
 15 34  1  0
 15 35  1  0
 16 36  1  6
 17 37  1  0
 20 38  1  0
 20 39  1  0
M  ISO  8  22  14  23  14  24   6  25   8  26   8  27   8  28   8  29   8
M  ISO  7  30   8  31   8  32   8  33  13  34  13  35  13  36  13
M  END
>  <minimizedAffinity>  (1) 
-4.3866415

>  <minimizedRMSD>  (1) 
1.28767776

$$$$
