
     RDKit          3D

 40 42  0  0  1  0  0  0  0  0999 V2000
   47.9320   34.4740   41.1980 C   0  0  0  0  0  0  0  0  0  0  0  0
   44.1550   34.7830   41.4080 C   0  0  0  0  0  0  0  0  0  0  0  0
   45.4000   34.4090   40.8870 C   0  0  0  0  0  0  0  0  0  0  0  0
   46.5590   34.7880   41.5930 C   0  0  0  0  0  0  0  0  0  0  0  0
   46.4010   35.5040   42.7540 N   0  0  0  0  0  0  0  0  0  0  0  0
   45.1510   35.8380   43.2070 C   0  0  0  0  0  0  0  0  0  0  0  0
   44.0580   35.4810   42.5440 N   0  0  0  0  0  0  0  0  0  0  0  0
   43.0030   34.3290   40.6180 C   0  0  0  0  0  0  0  0  0  0  0  0
   42.4510   34.9160   39.7120 O   0  0  0  0  0  0  0  0  0  0  0  0
   48.8160   35.6280   41.5370 C   0  0  0  0  0  0  0  0  0  0  0  0
   47.9750   34.3650   39.6710 C   0  0  0  0  0  0  0  0  0  0  0  0
   48.4580   33.1560   41.6830 C   0  0  0  0  0  0  0  0  0  0  0  0
   49.8520   33.2050   41.4150 O   0  0  0  0  0  0  0  0  0  0  0  0
   50.1460   31.8800   41.1350 C   0  0  1  0  0  0  0  0  0  0  0  0
   50.9060   31.4620   39.9700 C   0  0  0  0  0  0  0  0  0  0  0  0
   51.6490   31.5800   41.2400 C   0  0  2  0  0  0  0  0  0  0  0  0
   51.9760   30.3790   42.0450 C   0  0  0  0  0  0  0  0  0  0  0  0
   52.4200   29.2080   41.4600 C   0  0  0  0  0  0  0  0  0  0  0  0
   52.7400   28.0560   42.1720 C   0  0  0  0  0  0  0  0  0  0  0  0
   52.6130   28.0670   43.5070 N   0  0  0  0  0  0  0  0  0  0  0  0
   52.1770   29.2190   44.0790 C   0  0  0  0  0  0  0  0  0  0  0  0
   51.8690   30.3290   43.3850 N   0  0  0  0  0  0  0  0  0  0  0  0
   45.4712   33.8347   39.9515 H   0  0  0  0  0  0  0  0  0  0  0  0
   45.0518   36.4137   44.1391 H   0  0  0  0  0  0  0  0  0  0  0  0
   42.5935   33.3419   40.8785 H   0  0  0  0  0  0  0  0  0  0  0  0
   48.8899   35.7245   42.6303 H   0  0  0  0  0  0  0  0  0  0  0  0
   49.8178   35.4588   41.1153 H   0  0  0  0  0  0  0  0  0  0  0  0
   48.3918   36.5511   41.1153 H   0  0  0  0  0  0  0  0  0  0  0  0
   48.3648   33.3770   39.3848 H   0  0  0  0  0  0  0  0  0  0  0  0
   46.9601   34.4903   39.2657 H   0  0  0  0  0  0  0  0  0  0  0  0
   48.6310   35.1495   39.2657 H   0  0  0  0  0  0  0  0  0  0  0  0
   48.2739   33.0376   42.7610 H   0  0  0  0  0  0  0  0  0  0  0  0
   47.9682   32.3043   41.1884 H   0  0  0  0  0  0  0  0  0  0  0  0
   49.1829   31.5267   41.5321 H   0  0  0  0  0  0  0  0  0  0  0  0
   50.7289   30.4661   39.5377 H   0  0  0  0  0  0  0  0  0  0  0  0
   51.0491   31.8873   38.9657 H   0  0  0  0  0  0  0  0  0  0  0  0
   52.5796   32.0928   41.5246 H   0  0  0  0  0  0  0  0  0  0  0  0
   52.5268   29.1854   40.3654 H   0  0  0  0  0  0  0  0  0  0  0  0
   53.0904   27.1535   41.6497 H   0  0  0  0  0  0  0  0  0  0  0  0
   52.0695   29.2457   45.1734 H   0  0  0  0  0  0  0  0  0  0  0  0
  1 10  1  0
  1  4  1  0
  1 12  1  0
  2  7  2  0
  3  2  1  0
  3  4  2  0
  4  5  1  0
  5  6  2  0
  7  6  1  0
  8  2  1  0
  9  8  2  0
 11  1  1  0
 13 12  1  0
 14 16  1  0
 14 13  1  0
 15 14  1  0
 15 16  1  0
 16 17  1  0
 17 22  1  0
 18 17  2  0
 18 19  1  0
 19 20  2  0
 20 21  1  0
 22 21  2  0
  3 23  1  0
  6 24  1  0
  8 25  1  0
 10 26  1  0
 10 27  1  0
 10 28  1  0
 11 29  1  0
 11 30  1  0
 11 31  1  0
 12 32  1  0
 12 33  1  0
 14 34  1  1
 15 35  1  0
 15 36  1  0
 16 37  1  6
 18 38  1  0
 19 39  1  0
 21 40  1  0
M  ISO  8  23  14  24  14  25   6  26   8  27   8  28   8  29   8  30   8
M  ISO  8  31   8  32   8  33   8  34  13  35  13  36  13  37  13  38  14
M  ISO  2  39  14  40  14
M  END
>  <minimizedAffinity>  (1) 
-4.322258

>  <minimizedRMSD>  (1) 
1.20250678

$$$$
