
     RDKit          3D

 38 39  0  0  1  0  0  0  0  0999 V2000
   47.9520   34.3640   41.1620 C   0  0  0  0  0  0  0  0  0  0  0  0
   44.1990   34.8020   41.3410 C   0  0  0  0  0  0  0  0  0  0  0  0
   45.4370   34.3910   40.8260 C   0  0  0  0  0  0  0  0  0  0  0  0
   46.5950   34.7270   41.5660 C   0  0  0  0  0  0  0  0  0  0  0  0
   46.4550   35.4290   42.7360 N   0  0  0  0  0  0  0  0  0  0  0  0
   45.2130   35.8000   43.1810 C   0  0  0  0  0  0  0  0  0  0  0  0
   44.1190   35.4950   42.5020 N   0  0  0  0  0  0  0  0  0  0  0  0
   43.0420   34.4200   40.5380 C   0  0  0  0  0  0  0  0  0  0  0  0
   42.4530   35.0920   39.7120 O   0  0  0  0  0  0  0  0  0  0  0  0
   48.8710   35.5400   41.5250 C   0  0  0  0  0  0  0  0  0  0  0  0
   48.0210   34.3400   39.6290 C   0  0  0  0  0  0  0  0  0  0  0  0
   48.4800   33.1050   41.6140 C   0  0  0  0  0  0  0  0  0  0  0  0
   49.8780   33.1210   41.4570 O   0  0  0  0  0  0  0  0  0  0  0  0
   50.1790   31.8410   41.0400 C   0  0  1  0  0  0  0  0  0  0  0  0
   50.4960   31.4990   39.6610 C   0  0  0  0  0  0  0  0  0  0  0  0
   51.6340   31.7180   40.5740 C   0  0  2  0  0  0  0  0  0  0  0  0
   52.4020   30.5600   41.1550 C   0  0  0  0  0  0  0  0  0  0  0  0
   53.7540   30.3520   40.4960 C   0  0  0  0  0  0  0  0  0  0  0  0
   45.5050   33.8290   39.8829 H   0  0  0  0  0  0  0  0  0  0  0  0
   45.1238   36.3628   44.1219 H   0  0  0  0  0  0  0  0  0  0  0  0
   42.6560   33.4026   40.6986 H   0  0  0  0  0  0  0  0  0  0  0  0
   48.9395   35.6276   42.6194 H   0  0  0  0  0  0  0  0  0  0  0  0
   49.8735   35.3643   41.1078 H   0  0  0  0  0  0  0  0  0  0  0  0
   48.4582   36.4703   41.1078 H   0  0  0  0  0  0  0  0  0  0  0  0
   49.0159   33.9939   39.3121 H   0  0  0  0  0  0  0  0  0  0  0  0
   47.2532   33.6561   39.2381 H   0  0  0  0  0  0  0  0  0  0  0  0
   47.8433   35.3527   39.2381 H   0  0  0  0  0  0  0  0  0  0  0  0
   48.2281   32.9570   42.6745 H   0  0  0  0  0  0  0  0  0  0  0  0
   48.0457   32.2830   41.0260 H   0  0  0  0  0  0  0  0  0  0  0  0
   49.4715   31.3841   41.7476 H   0  0  0  0  0  0  0  0  0  0  0  0
   50.2946   32.2282   38.8624 H   0  0  0  0  0  0  0  0  0  0  0  0
   50.2032   30.6722   38.9971 H   0  0  0  0  0  0  0  0  0  0  0  0
   52.5378   32.3428   40.5210 H   0  0  0  0  0  0  0  0  0  0  0  0
   52.5602   30.7475   42.2273 H   0  0  0  0  0  0  0  0  0  0  0  0
   51.8079   29.6510   40.9794 H   0  0  0  0  0  0  0  0  0  0  0  0
   54.5254   30.2333   41.2712 H   0  0  0  0  0  0  0  0  0  0  0  0
   53.7215   29.4483   39.8697 H   0  0  0  0  0  0  0  0  0  0  0  0
   53.9946   31.2237   39.8697 H   0  0  0  0  0  0  0  0  0  0  0  0
  1 10  1  0
  1  4  1  0
  1 12  1  0
  2  7  2  0
  3  2  1  0
  3  4  2  0
  4  5  1  0
  5  6  2  0
  7  6  1  0
  8  2  1  0
  9  8  2  0
 11  1  1  0
 13 12  1  0
 14 13  1  0
 15 16  1  0
 15 14  1  0
 16 14  1  0
 16 17  1  0
 18 17  1  0
  3 19  1  0
  6 20  1  0
  8 21  1  0
 10 22  1  0
 10 23  1  0
 10 24  1  0
 11 25  1  0
 11 26  1  0
 11 27  1  0
 12 28  1  0
 12 29  1  0
 14 30  1  1
 15 31  1  0
 15 32  1  0
 16 33  1  6
 17 34  1  0
 17 35  1  0
 18 36  1  0
 18 37  1  0
 18 38  1  0
M  ISO  8  19  14  20  14  21   6  22   8  23   8  24   8  25   8  26   8
M  ISO  8  27   8  28   8  29   8  30  13  31  13  32  13  33  13  34   8
M  ISO  4  35   8  36   8  37   8  38   8
M  END
>  <minimizedAffinity>  (1) 
-4.20092487

>  <minimizedRMSD>  (1) 
1.22484267

$$$$
