
     RDKit          3D

 38 40  0  0  1  0  0  0  0  0999 V2000
   47.9470   34.3740   41.1600 C   0  0  0  0  0  0  0  0  0  0  0  0
   44.1920   34.7980   41.3420 C   0  0  0  0  0  0  0  0  0  0  0  0
   45.4320   34.3960   40.8270 C   0  0  0  0  0  0  0  0  0  0  0  0
   46.5900   34.7330   41.5650 C   0  0  0  0  0  0  0  0  0  0  0  0
   46.4430   35.4300   42.7320 N   0  0  0  0  0  0  0  0  0  0  0  0
   45.2060   35.7920   43.1770 C   0  0  0  0  0  0  0  0  0  0  0  0
   44.1090   35.4880   42.5060 N   0  0  0  0  0  0  0  0  0  0  0  0
   43.0330   34.4120   40.5350 C   0  0  0  0  0  0  0  0  0  0  0  0
   42.4520   35.0900   39.7090 O   0  0  0  0  0  0  0  0  0  0  0  0
   48.8690   35.5490   41.5080 C   0  0  0  0  0  0  0  0  0  0  0  0
   48.0120   34.3420   39.6230 C   0  0  0  0  0  0  0  0  0  0  0  0
   48.4810   33.1170   41.6030 C   0  0  0  0  0  0  0  0  0  0  0  0
   49.8770   33.1330   41.4510 O   0  0  0  0  0  0  0  0  0  0  0  0
   50.1830   31.8540   41.0380 C   0  0  1  0  0  0  0  0  0  0  0  0
   50.7570   31.5570   39.7370 C   0  0  0  0  0  0  0  0  0  0  0  0
   51.6920   31.6420   40.8800 C   0  0  2  0  0  0  0  0  0  0  0  0
   52.2090   30.4120   41.4410 N   0  0  0  0  0  0  0  0  0  0  0  0
   52.2960   29.9140   42.6870 C   0  0  0  0  0  0  0  0  0  0  0  0
   52.8700   28.7080   42.6590 N   0  0  0  0  0  0  0  0  0  0  0  0
   53.1500   28.4410   41.3800 C   0  0  0  0  0  0  0  0  0  0  0  0
   52.7390   29.4890   40.6550 N   0  0  0  0  0  0  0  0  0  0  0  0
   45.5018   33.8378   39.8817 H   0  0  0  0  0  0  0  0  0  0  0  0
   45.1190   36.3521   44.1197 H   0  0  0  0  0  0  0  0  0  0  0  0
   42.6442   33.3953   40.6934 H   0  0  0  0  0  0  0  0  0  0  0  0
   48.9442   35.6448   42.6012 H   0  0  0  0  0  0  0  0  0  0  0  0
   49.8687   35.3681   41.0862 H   0  0  0  0  0  0  0  0  0  0  0  0
   48.4555   36.4770   41.0862 H   0  0  0  0  0  0  0  0  0  0  0  0
   48.9569   33.8768   39.3056 H   0  0  0  0  0  0  0  0  0  0  0  0
   47.1661   33.7574   39.2323 H   0  0  0  0  0  0  0  0  0  0  0  0
   47.9595   35.3689   39.2323 H   0  0  0  0  0  0  0  0  0  0  0  0
   48.2273   32.9614   42.6620 H   0  0  0  0  0  0  0  0  0  0  0  0
   48.0519   32.2999   41.0046 H   0  0  0  0  0  0  0  0  0  0  0  0
   49.3186   31.4174   41.5598 H   0  0  0  0  0  0  0  0  0  0  0  0
   50.7761   32.3379   38.9625 H   0  0  0  0  0  0  0  0  0  0  0  0
   50.5561   30.7893   38.9753 H   0  0  0  0  0  0  0  0  0  0  0  0
   52.6143   32.2048   41.0864 H   0  0  0  0  0  0  0  0  0  0  0  0
   51.9459   30.4248   43.5961 H   0  0  0  0  0  0  0  0  0  0  0  0
   53.6293   27.5292   40.9942 H   0  0  0  0  0  0  0  0  0  0  0  0
  1 10  1  0
  1  4  1  0
  1 12  1  0
  2  7  2  0
  3  2  1  0
  3  4  2  0
  4  5  1  0
  5  6  2  0
  7  6  1  0
  8  2  1  0
  9  8  2  0
 11  1  1  0
 13 12  1  0
 14 13  1  0
 15 16  1  0
 15 14  1  0
 16 14  1  0
 16 17  1  0
 17 18  1  0
 19 18  2  0
 20 19  1  0
 21 20  2  0
 21 17  1  0
  3 22  1  0
  6 23  1  0
  8 24  1  0
 10 25  1  0
 10 26  1  0
 10 27  1  0
 11 28  1  0
 11 29  1  0
 11 30  1  0
 12 31  1  0
 12 32  1  0
 14 33  1  1
 15 34  1  0
 15 35  1  0
 16 36  1  6
 18 37  1  0
 20 38  1  0
M  ISO  8  22  14  23  14  24   6  25   8  26   8  27   8  28   8  29   8
M  ISO  8  30   8  31   8  32   8  33  13  34  13  35  13  36  13  37  14
M  ISO  1  38  14
M  END
>  <minimizedAffinity>  (1) 
-4.29076147

>  <minimizedRMSD>  (1) 
1.16116524

$$$$
