
     RDKit          3D

 33 34  0  0  1  0  0  0  0  0999 V2000
   47.9390   34.2250   41.1040 C   0  0  0  0  0  0  0  0  0  0  0  0
   44.2080   34.8100   41.3550 C   0  0  0  0  0  0  0  0  0  0  0  0
   45.4180   34.3440   40.8220 C   0  0  0  0  0  0  0  0  0  0  0  0
   46.6030   34.6490   41.5230 C   0  0  0  0  0  0  0  0  0  0  0  0
   46.5120   35.3810   42.6760 N   0  0  0  0  0  0  0  0  0  0  0  0
   45.3070   35.8060   43.1430 C   0  0  0  0  0  0  0  0  0  0  0  0
   44.1820   35.5320   42.5010 N   0  0  0  0  0  0  0  0  0  0  0  0
   43.0150   34.4510   40.5820 C   0  0  0  0  0  0  0  0  0  0  0  0
   42.4540   35.1190   39.7350 O   0  0  0  0  0  0  0  0  0  0  0  0
   48.9640   35.0840   41.8380 C   0  0  0  0  0  0  0  0  0  0  0  0
   48.1390   34.6340   39.6310 C   0  0  0  0  0  0  0  0  0  0  0  0
   48.2580   32.8250   41.1580 C   0  0  0  0  0  0  0  0  0  0  0  0
   49.6280   32.6770   41.3920 O   0  0  0  0  0  0  0  0  0  0  0  0
   50.0380   31.7620   40.4500 C   0  0  1  0  0  0  0  0  0  0  0  0
   51.4400   31.5610   40.1090 C   0  0  0  0  0  0  0  0  0  0  0  0
   50.8420   30.6150   41.0690 C   0  0  1  0  0  0  0  0  0  0  0  0
   51.2600   30.7020   42.8320 S   0  0  0  0  0  0  0  0  0  0  0  0
   45.4422   33.7609   39.8896 H   0  0  0  0  0  0  0  0  0  0  0  0
   45.2665   36.3900   44.0743 H   0  0  0  0  0  0  0  0  0  0  0  0
   42.5772   33.4641   40.7925 H   0  0  0  0  0  0  0  0  0  0  0  0
   48.8279   34.9700   42.9236 H   0  0  0  0  0  0  0  0  0  0  0  0
   49.9785   34.7623   41.5598 H   0  0  0  0  0  0  0  0  0  0  0  0
   48.8247   36.1391   41.5598 H   0  0  0  0  0  0  0  0  0  0  0  0
   48.6218   35.6214   39.5869 H   0  0  0  0  0  0  0  0  0  0  0  0
   48.7758   33.8917   39.1276 H   0  0  0  0  0  0  0  0  0  0  0  0
   47.1621   34.6808   39.1276 H   0  0  0  0  0  0  0  0  0  0  0  0
   47.6917   32.3493   41.9722 H   0  0  0  0  0  0  0  0  0  0  0  0
   47.9911   32.3469   40.2039 H   0  0  0  0  0  0  0  0  0  0  0  0
   49.1549   31.9267   39.8152 H   0  0  0  0  0  0  0  0  0  0  0  0
   51.7075   31.2126   39.1005 H   0  0  0  0  0  0  0  0  0  0  0  0
   52.3285   32.2090   40.1340 H   0  0  0  0  0  0  0  0  0  0  0  0
   50.7575   29.5201   41.1325 H   0  0  0  0  0  0  0  0  0  0  0  0
   50.1362   30.4681   43.5799 H   0  0  0  0  0  0  0  0  0  0  0  0
  1 12  1  0
  1  4  1  0
  1 10  1  0
  2  7  2  0
  3  2  1  0
  3  4  2  0
  4  5  1  0
  5  6  2  0
  7  6  1  0
  8  2  1  0
  9  8  2  0
 11  1  1  0
 12 13  1  0
 14 16  1  0
 14 13  1  0
 15 14  1  0
 15 16  1  0
 16 17  1  0
  3 18  1  0
  6 19  1  0
  8 20  1  0
 10 21  1  0
 10 22  1  0
 10 23  1  0
 11 24  1  0
 11 25  1  0
 11 26  1  0
 12 27  1  0
 12 28  1  0
 14 29  1  6
 15 30  1  0
 15 31  1  0
 16 32  1  6
 17 33  1  0
M  ISO  8  18  14  19  14  20   6  21   8  22   8  23   8  24   8  25   8
M  ISO  8  26   8  27   8  28   8  29  13  30  13  31  13  32  13  33  11
M  END
>  <minimizedAffinity>  (1) 
-3.94514179

>  <minimizedRMSD>  (1) 
0.70900768

$$$$
