
     RDKit          3D

 49 51  0  0  1  0  0  0  0  0999 V2000
   49.8860   33.1960   41.4660 O   0  0  0  0  0  0  0  0  0  0  0  0
   50.2540   31.8950   41.2510 C   0  0  1  0  0  0  0  0  0  0  0  0
   50.1580   31.2710   39.9290 C   0  0  0  0  0  0  0  0  0  0  0  0
   51.4730   31.6980   40.3560 C   0  0  2  0  0  0  0  0  0  0  0  0
   52.4770   30.7080   40.8980 C   0  0  1  0  0  0  0  0  0  0  0  0
   52.1190   30.0760   42.2080 C   0  0  0  0  0  0  0  0  0  0  0  0
   52.7800   29.6540   39.9250 C   0  0  0  0  0  0  0  0  0  0  0  0
   53.7790   30.0510   38.9400 C   0  0  0  0  0  0  0  0  0  0  0  0
   54.1170   30.7610   37.8470 C   0  0  0  0  0  0  0  0  0  0  0  0
   55.2550   30.8800   37.1010 C   0  0  0  0  0  0  0  0  0  0  0  0
   56.2930   30.1100   37.5500 N   0  0  0  0  0  0  0  0  0  0  0  0
   56.0620   29.3430   38.6580 C   0  0  0  0  0  0  0  0  0  0  0  0
   54.8980   29.3260   39.2880 N   0  0  0  0  0  0  0  0  0  0  0  0
   48.4720   33.0740   41.6180 C   0  0  0  0  0  0  0  0  0  0  0  0
   47.9720   34.4260   41.1790 C   0  0  0  0  0  0  0  0  0  0  0  0
   44.1940   34.7460   41.3790 C   0  0  0  0  0  0  0  0  0  0  0  0
   45.4400   34.3580   40.8550 C   0  0  0  0  0  0  0  0  0  0  0  0
   46.5980   34.7290   41.5550 C   0  0  0  0  0  0  0  0  0  0  0  0
   46.4400   35.4420   42.7000 N   0  0  0  0  0  0  0  0  0  0  0  0
   45.2030   35.7960   43.1700 C   0  0  0  0  0  0  0  0  0  0  0  0
   44.1050   35.4540   42.5190 N   0  0  0  0  0  0  0  0  0  0  0  0
   43.0320   34.3070   40.5810 C   0  0  0  0  0  0  0  0  0  0  0  0
   42.4460   34.9260   39.7190 O   0  0  0  0  0  0  0  0  0  0  0  0
   48.8550   35.5620   41.4980 C   0  0  0  0  0  0  0  0  0  0  0  0
   48.0140   34.3190   39.6330 C   0  0  0  0  0  0  0  0  0  0  0  0
   49.9049   31.5983   42.2511 H   0  0  0  0  0  0  0  0  0  0  0  0
   49.6533   31.8082   39.1125 H   0  0  0  0  0  0  0  0  0  0  0  0
   49.7504   30.3148   39.5691 H   0  0  0  0  0  0  0  0  0  0  0  0
   52.2492   32.3090   39.8720 H   0  0  0  0  0  0  0  0  0  0  0  0
   53.3662   31.3274   41.0867 H   0  0  0  0  0  0  0  0  0  0  0  0
   52.4784   30.7105   43.0316 H   0  0  0  0  0  0  0  0  0  0  0  0
   51.0264   29.9694   42.2772 H   0  0  0  0  0  0  0  0  0  0  0  0
   52.5893   29.0840   42.2772 H   0  0  0  0  0  0  0  0  0  0  0  0
   53.1552   28.7742   40.4683 H   0  0  0  0  0  0  0  0  0  0  0  0
   51.8504   29.4370   39.3784 H   0  0  0  0  0  0  0  0  0  0  0  0
   53.2925   31.3845   37.4708 H   0  0  0  0  0  0  0  0  0  0  0  0
   55.3300   31.5347   36.2202 H   0  0  0  0  0  0  0  0  0  0  0  0
   56.8781   28.7133   39.0422 H   0  0  0  0  0  0  0  0  0  0  0  0
   48.0717   32.2757   40.9758 H   0  0  0  0  0  0  0  0  0  0  0  0
   48.1650   32.8065   42.6399 H   0  0  0  0  0  0  0  0  0  0  0  0
   45.5050   33.7794   39.9217 H   0  0  0  0  0  0  0  0  0  0  0  0
   45.1224   36.3733   44.1028 H   0  0  0  0  0  0  0  0  0  0  0  0
   42.6524   33.2969   40.7942 H   0  0  0  0  0  0  0  0  0  0  0  0
   48.9369   35.6674   42.5899 H   0  0  0  0  0  0  0  0  0  0  0  0
   49.8527   35.3821   41.0711 H   0  0  0  0  0  0  0  0  0  0  0  0
   48.4345   36.4844   41.0711 H   0  0  0  0  0  0  0  0  0  0  0  0
   48.4018   33.3310   39.3442 H   0  0  0  0  0  0  0  0  0  0  0  0
   46.9989   34.4469   39.2289 H   0  0  0  0  0  0  0  0  0  0  0  0
   48.6710   35.1032   39.2289 H   0  0  0  0  0  0  0  0  0  0  0  0
  1 14  1  0
  2  1  1  0
  3  4  1  0
  3  2  1  0
  4  5  1  0
  4  2  1  0
  5  6  1  0
  7  5  1  0
  8 13  1  0
  8  7  1  0
  9  8  2  0
 10 11  2  0
 10  9  1  0
 11 12  1  0
 12 13  2  0
 15 24  1  0
 15 18  1  0
 15 14  1  0
 16 21  2  0
 17 16  1  0
 17 18  2  0
 18 19  1  0
 19 20  2  0
 21 20  1  0
 22 16  1  0
 23 22  2  0
 25 15  1  0
  2 26  1  1
  3 27  1  0
  3 28  1  0
  4 29  1  6
  5 30  1  1
  6 31  1  0
  6 32  1  0
  6 33  1  0
  7 34  1  0
  7 35  1  0
  9 36  1  0
 10 37  1  0
 12 38  1  0
 14 39  1  0
 14 40  1  0
 17 41  1  0
 20 42  1  0
 22 43  1  0
 24 44  1  0
 24 45  1  0
 24 46  1  0
 25 47  1  0
 25 48  1  0
 25 49  1  0
M  ISO  8  26  13  27  13  28  13  29  13  30   8  31   8  32   8  33   8
M  ISO  8  34   8  35   8  36  14  37  14  38  14  39   8  40   8  41  14
M  ISO  8  42  14  43   6  44   8  45   8  46   8  47   8  48   8  49   8
M  END
>  <minimizedAffinity>  (1) 
-4.54536057

>  <minimizedRMSD>  (1) 
2.07937098

$$$$
