
     RDKit          3D

 40 42  0  0  1  0  0  0  0  0999 V2000
   47.5420   32.0230   44.4810 C   0  0  0  0  0  0  0  0  0  0  0  0
   46.9080   33.2470   44.1330 C   0  0  0  0  0  0  0  0  0  0  0  0
   46.0610   33.7670   45.0990 C   0  0  0  0  0  0  0  0  0  0  0  0
   45.8780   33.1260   46.2760 N   0  0  0  0  0  0  0  0  0  0  0  0
   46.5040   31.9700   46.5540 C   0  0  0  0  0  0  0  0  0  0  0  0
   47.3240   31.4110   45.6890 N   0  0  0  0  0  0  0  0  0  0  0  0
   47.2600   33.7330   42.8410 C   0  0  0  0  0  0  0  0  0  0  0  0
   48.2850   34.6220   42.8620 N   0  0  0  0  0  0  0  0  0  0  0  0
   48.7580   35.1890   41.7280 C   0  0  0  0  0  0  0  0  0  0  0  0
   48.2390   34.9040   40.5040 N   0  0  0  0  0  0  0  0  0  0  0  0
   47.2200   34.0230   40.4420 C   0  0  0  0  0  0  0  0  0  0  0  0
   46.5770   33.6210   39.2750 C   0  0  0  0  0  0  0  0  0  0  0  0
   45.5580   32.7380   39.2400 C   0  0  0  0  0  0  0  0  0  0  0  0
   45.1190   32.1960   40.4220 C   0  0  0  0  0  0  0  0  0  0  0  0
   45.6960   32.5360   41.6160 C   0  0  0  0  0  0  0  0  0  0  0  0
   46.7350   33.4460   41.5910 C   0  0  0  0  0  0  0  0  0  0  0  0
   46.2610   31.3460   47.8450 C   0  0  1  0  0  0  0  0  0  0  0  0
   44.7920   31.5800   48.3280 C   0  0  0  0  0  0  0  0  0  0  0  0
   46.5330   29.8780   47.8920 C   0  0  0  0  0  0  0  0  0  0  0  0
   45.3830   29.2120   47.6360 O   0  0  0  0  0  0  0  0  0  0  0  0
   44.9780   27.9250   47.9210 C   0  0  0  0  0  0  0  0  0  0  0  0
   45.1100   26.9680   47.1050 O   0  0  0  0  0  0  0  0  0  0  0  0
   44.4040   27.6860   49.1480 O   0  0  0  0  0  0  0  0  0  0  0  0
   44.1070   26.2990   49.5800 C   0  0  0  0  0  0  0  0  0  0  0  0
   43.5660   26.5170   50.8540 F   0  0  0  0  0  0  0  0  0  0  0  0
   43.1140   25.8020   48.7940 F   0  0  0  0  0  0  0  0  0  0  0  0
   45.2520   25.5630   49.6260 F   0  0  0  0  0  0  0  0  0  0  0  0
   48.2274   31.5530   43.7604 H   0  0  0  0  0  0  0  0  0  0  0  0
   45.5315   34.7118   44.9063 H   0  0  0  0  0  0  0  0  0  0  0  0
   49.5904   35.9046   41.7988 H   0  0  0  0  0  0  0  0  0  0  0  0
   46.9211   34.0499   38.3223 H   0  0  0  0  0  0  0  0  0  0  0  0
   45.0891   32.4584   38.2850 H   0  0  0  0  0  0  0  0  0  0  0  0
   44.2882   31.4751   40.4097 H   0  0  0  0  0  0  0  0  0  0  0  0
   45.3444   32.0996   42.5626 H   0  0  0  0  0  0  0  0  0  0  0  0
   46.9817   31.8395   48.5136 H   0  0  0  0  0  0  0  0  0  0  0  0
   44.7639   31.5845   49.4276 H   0  0  0  0  0  0  0  0  0  0  0  0
   44.4307   32.5470   47.9480 H   0  0  0  0  0  0  0  0  0  0  0  0
   44.1482   30.7731   47.9480 H   0  0  0  0  0  0  0  0  0  0  0  0
   47.2873   29.6175   47.1349 H   0  0  0  0  0  0  0  0  0  0  0  0
   46.9118   29.6002   48.8867 H   0  0  0  0  0  0  0  0  0  0  0  0
  1  6  2  0
  2  1  1  0
  2  3  2  0
  3  4  1  0
  4  5  2  0
  5 17  1  0
  6  5  1  0
  7  8  2  0
  7  2  1  0
  9  8  1  0
 10  9  2  0
 11 10  1  0
 11 16  2  0
 12 11  1  0
 13 12  2  0
 13 14  1  0
 14 15  2  0
 16 15  1  0
 16  7  1  0
 17 19  1  0
 17 18  1  0
 20 19  1  0
 20 21  1  0
 21 23  1  0
 22 21  2  0
 23 24  1  0
 24 27  1  0
 24 25  1  0
 26 24  1  0
  1 28  1  0
  3 29  1  0
  9 30  1  0
 12 31  1  0
 13 32  1  0
 14 33  1  0
 15 34  1  0
 17 35  1  1
 18 36  1  0
 18 37  1  0
 18 38  1  0
 19 39  1  0
 19 40  1  0
M  ISO  8  28  14  29  14  30  14  31  14  32  14  33  14  34  14  35   8
M  ISO  5  36   8  37   8  38   8  39   8  40   8
M  END
>  <minimizedAffinity>  (1) 
-5.09555197

>  <minimizedRMSD>  (1) 
0.496310353

$$$$
