
     RDKit          3D

 51 53  0  0  1  0  0  0  0  0999 V2000
   50.2990   31.9980   41.1860 C   0  0  1  0  0  0  0  0  0  0  0  0
   51.6970   31.7820   40.8060 C   0  0  0  0  0  0  0  0  0  0  0  0
   51.2790   31.2790   42.1070 C   0  0  2  0  0  0  0  0  0  0  0  0
   50.9760   29.8170   42.3080 C   0  0  1  0  0  0  0  0  0  0  0  0
   50.4060   29.1000   41.1140 C   0  0  0  0  0  0  0  0  0  0  0  0
   52.1710   29.0660   42.7370 C   0  0  0  0  0  0  0  0  0  0  0  0
   52.9030   29.5170   43.9170 C   0  0  0  0  0  0  0  0  0  0  0  0
   52.9600   29.9670   45.1850 C   0  0  0  0  0  0  0  0  0  0  0  0
   53.9980   30.2180   46.0320 C   0  0  0  0  0  0  0  0  0  0  0  0
   55.2560   29.9880   45.5630 C   0  0  0  0  0  0  0  0  0  0  0  0
   55.4160   29.5200   44.2700 C   0  0  0  0  0  0  0  0  0  0  0  0
   54.2510   29.3050   43.5040 C   0  0  0  0  0  0  0  0  0  0  0  0
   49.8550   33.2110   41.6340 O   0  0  0  0  0  0  0  0  0  0  0  0
   48.4420   33.0500   41.5640 C   0  0  0  0  0  0  0  0  0  0  0  0
   47.9660   34.4310   41.1750 C   0  0  0  0  0  0  0  0  0  0  0  0
   44.1850   34.7660   41.3710 C   0  0  0  0  0  0  0  0  0  0  0  0
   45.4360   34.3820   40.8570 C   0  0  0  0  0  0  0  0  0  0  0  0
   46.5920   34.7390   41.5490 C   0  0  0  0  0  0  0  0  0  0  0  0
   46.4390   35.4490   42.6970 N   0  0  0  0  0  0  0  0  0  0  0  0
   45.2070   35.8060   43.1680 C   0  0  0  0  0  0  0  0  0  0  0  0
   44.1080   35.4730   42.5230 N   0  0  0  0  0  0  0  0  0  0  0  0
   43.0210   34.3460   40.5820 C   0  0  0  0  0  0  0  0  0  0  0  0
   42.4480   34.9800   39.7190 O   0  0  0  0  0  0  0  0  0  0  0  0
   48.8700   35.5350   41.5280 C   0  0  0  0  0  0  0  0  0  0  0  0
   48.0080   34.3570   39.6220 C   0  0  0  0  0  0  0  0  0  0  0  0
   49.3429   31.7964   40.6809 H   0  0  0  0  0  0  0  0  0  0  0  0
   51.9360   31.0708   40.0016 H   0  0  0  0  0  0  0  0  0  0  0  0
   52.5059   32.4489   40.4730 H   0  0  0  0  0  0  0  0  0  0  0  0
   51.6924   31.3930   43.1200 H   0  0  0  0  0  0  0  0  0  0  0  0
   50.2005   29.8355   43.0879 H   0  0  0  0  0  0  0  0  0  0  0  0
   49.7551   28.2812   41.4543 H   0  0  0  0  0  0  0  0  0  0  0  0
   49.8201   29.8063   40.5075 H   0  0  0  0  0  0  0  0  0  0  0  0
   51.2262   28.6884   40.5075 H   0  0  0  0  0  0  0  0  0  0  0  0
   51.8495   28.0323   42.9324 H   0  0  0  0  0  0  0  0  0  0  0  0
   52.8843   29.2104   41.9122 H   0  0  0  0  0  0  0  0  0  0  0  0
   51.9728   30.1729   45.6244 H   0  0  0  0  0  0  0  0  0  0  0  0
   53.8268   30.5910   47.0526 H   0  0  0  0  0  0  0  0  0  0  0  0
   56.1321   30.1715   46.2024 H   0  0  0  0  0  0  0  0  0  0  0  0
   56.4154   29.3229   43.8549 H   0  0  0  0  0  0  0  0  0  0  0  0
   54.3984   28.9343   42.4789 H   0  0  0  0  0  0  0  0  0  0  0  0
   48.1653   32.3064   40.8021 H   0  0  0  0  0  0  0  0  0  0  0  0
   47.9985   32.6849   42.5021 H   0  0  0  0  0  0  0  0  0  0  0  0
   45.5016   33.8075   39.9212 H   0  0  0  0  0  0  0  0  0  0  0  0
   45.1317   36.3817   44.1023 H   0  0  0  0  0  0  0  0  0  0  0  0
   42.6224   33.3435   40.7965 H   0  0  0  0  0  0  0  0  0  0  0  0
   48.9377   35.6177   42.6228 H   0  0  0  0  0  0  0  0  0  0  0  0
   49.8693   35.3377   41.1127 H   0  0  0  0  0  0  0  0  0  0  0  0
   48.4795   36.4758   41.1127 H   0  0  0  0  0  0  0  0  0  0  0  0
   48.5290   33.4390   39.3126 H   0  0  0  0  0  0  0  0  0  0  0  0
   46.9812   34.3465   39.2275 H   0  0  0  0  0  0  0  0  0  0  0  0
   48.5434   35.2332   39.2275 H   0  0  0  0  0  0  0  0  0  0  0  0
  1 13  1  0
  1  3  1  0
  2  1  1  0
  2  3  1  0
  3  4  1  0
  4  6  1  0
  5  4  1  0
  6  7  1  0
  7  8  2  0
  8  9  1  0
 10  9  2  0
 11 10  1  0
 12  7  1  0
 12 11  2  0
 14 13  1  0
 15 24  1  0
 15 18  1  0
 15 14  1  0
 16 21  2  0
 17 16  1  0
 17 18  2  0
 18 19  1  0
 19 20  2  0
 21 20  1  0
 22 16  1  0
 23 22  2  0
 25 15  1  0
  1 26  1  6
  2 27  1  0
  2 28  1  0
  3 29  1  1
  4 30  1  1
  5 31  1  0
  5 32  1  0
  5 33  1  0
  6 34  1  0
  6 35  1  0
  8 36  1  0
  9 37  1  0
 10 38  1  0
 11 39  1  0
 12 40  1  0
 14 41  1  0
 14 42  1  0
 17 43  1  0
 20 44  1  0
 22 45  1  0
 24 46  1  0
 24 47  1  0
 24 48  1  0
 25 49  1  0
 25 50  1  0
 25 51  1  0
M  ISO  8  26  13  27  13  28  13  29  13  30   8  31   8  32   8  33   8
M  ISO  8  34   8  35   8  36  14  37  14  38  14  39  14  40  14  41   8
M  ISO  8  42   8  43  14  44  14  45   6  46   8  47   8  48   8  49   8
M  ISO  2  50   8  51   8
M  END
>  <minimizedAffinity>  (1) 
-4.44966793

>  <minimizedRMSD>  (1) 
2.55553365

$$$$
