
     RDKit          3D

 47 49  0  0  1  0  0  0  0  0999 V2000
   48.4470   33.0760   41.5950 C   0  0  0  0  0  0  0  0  0  0  0  0
   47.9540   34.4420   41.1740 C   0  0  0  0  0  0  0  0  0  0  0  0
   44.1720   34.7580   41.3690 C   0  0  0  0  0  0  0  0  0  0  0  0
   45.4260   34.3860   40.8680 C   0  0  0  0  0  0  0  0  0  0  0  0
   46.5830   34.7460   41.5540 C   0  0  0  0  0  0  0  0  0  0  0  0
   46.4250   35.4540   42.7010 N   0  0  0  0  0  0  0  0  0  0  0  0
   45.1840   35.8010   43.1630 C   0  0  0  0  0  0  0  0  0  0  0  0
   44.0900   35.4660   42.5220 N   0  0  0  0  0  0  0  0  0  0  0  0
   43.0090   34.3370   40.5920 C   0  0  0  0  0  0  0  0  0  0  0  0
   42.4400   34.9530   39.7160 O   0  0  0  0  0  0  0  0  0  0  0  0
   48.8480   35.5630   41.5100 C   0  0  0  0  0  0  0  0  0  0  0  0
   47.9950   34.3520   39.6280 C   0  0  0  0  0  0  0  0  0  0  0  0
   49.8650   33.2470   41.6150 O   0  0  0  0  0  0  0  0  0  0  0  0
   50.2990   31.9820   41.2930 C   0  0  1  0  0  0  0  0  0  0  0  0
   51.6410   31.7210   40.7890 C   0  0  0  0  0  0  0  0  0  0  0  0
   51.4020   31.4320   42.1930 C   0  0  2  0  0  0  0  0  0  0  0  0
   51.1920   30.0200   42.6880 C   0  0  1  0  0  0  0  0  0  0  0  0
   50.2190   29.2000   41.9000 C   0  0  0  0  0  0  0  0  0  0  0  0
   52.5020   29.3020   42.6820 C   0  0  0  0  0  0  0  0  0  0  0  0
   53.2660   29.6260   43.9440 C   0  0  0  0  0  0  0  0  0  0  0  0
   54.5890   29.2790   43.8280 C   0  0  0  0  0  0  0  0  0  0  0  0
   55.3590   29.7580   45.4900 S   0  0  0  0  0  0  0  0  0  0  0  0
   53.6460   30.3600   46.0290 C   0  0  0  0  0  0  0  0  0  0  0  0
   53.0390   30.1420   45.1240 N   0  0  0  0  0  0  0  0  0  0  0  0
   48.1505   32.3057   40.8679 H   0  0  0  0  0  0  0  0  0  0  0  0
   48.0340   32.7402   42.5576 H   0  0  0  0  0  0  0  0  0  0  0  0
   45.4967   33.8100   39.9335 H   0  0  0  0  0  0  0  0  0  0  0  0
   45.1022   36.3763   44.0970 H   0  0  0  0  0  0  0  0  0  0  0  0
   42.6010   33.3435   40.8296 H   0  0  0  0  0  0  0  0  0  0  0  0
   48.9231   35.6571   42.6034 H   0  0  0  0  0  0  0  0  0  0  0  0
   49.8465   35.3746   41.0888 H   0  0  0  0  0  0  0  0  0  0  0  0
   48.4422   36.4946   41.0888 H   0  0  0  0  0  0  0  0  0  0  0  0
   48.4338   33.3888   39.3283 H   0  0  0  0  0  0  0  0  0  0  0  0
   46.9728   34.4293   39.2290 H   0  0  0  0  0  0  0  0  0  0  0  0
   48.6075   35.1740   39.2290 H   0  0  0  0  0  0  0  0  0  0  0  0
   49.2996   31.6960   40.9334 H   0  0  0  0  0  0  0  0  0  0  0  0
   51.8026   30.8906   40.0859 H   0  0  0  0  0  0  0  0  0  0  0  0
   52.3835   32.3338   40.2568 H   0  0  0  0  0  0  0  0  0  0  0  0
   51.9268   31.7145   43.1175 H   0  0  0  0  0  0  0  0  0  0  0  0
   50.7628   30.1303   43.6948 H   0  0  0  0  0  0  0  0  0  0  0  0
   49.5631   28.6472   42.5887 H   0  0  0  0  0  0  0  0  0  0  0  0
   49.6106   29.8618   41.2661 H   0  0  0  0  0  0  0  0  0  0  0  0
   50.7682   28.4883   41.2661 H   0  0  0  0  0  0  0  0  0  0  0  0
   52.3244   28.2177   42.6303 H   0  0  0  0  0  0  0  0  0  0  0  0
   53.0889   29.6223   41.8085 H   0  0  0  0  0  0  0  0  0  0  0  0
   55.0907   28.8236   42.9615 H   0  0  0  0  0  0  0  0  0  0  0  0
   53.3345   30.8070   46.9846 H   0  0  0  0  0  0  0  0  0  0  0  0
  1 13  1  0
  2 11  1  0
  2  5  1  0
  2  1  1  0
  3  8  2  0
  4  3  1  0
  4  5  2  0
  5  6  1  0
  6  7  2  0
  8  7  1  0
  9  3  1  0
 10  9  2  0
 12  2  1  0
 14 13  1  0
 14 16  1  0
 15 14  1  0
 15 16  1  0
 16 17  1  0
 18 17  1  0
 19 17  1  0
 19 20  1  0
 20 24  1  0
 21 20  2  0
 21 22  1  0
 22 23  1  0
 24 23  2  0
  1 25  1  0
  1 26  1  0
  4 27  1  0
  7 28  1  0
  9 29  1  0
 11 30  1  0
 11 31  1  0
 11 32  1  0
 12 33  1  0
 12 34  1  0
 12 35  1  0
 14 36  1  6
 15 37  1  0
 15 38  1  0
 16 39  1  1
 17 40  1  1
 18 41  1  0
 18 42  1  0
 18 43  1  0
 19 44  1  0
 19 45  1  0
 21 46  1  0
 23 47  1  0
M  ISO  8  25   8  26   8  27  14  28  14  29   6  30   8  31   8  32   8
M  ISO  8  33   8  34   8  35   8  36  13  37  13  38  13  39  13  40   8
M  ISO  7  41   8  42   8  43   8  44   8  45   8  46  14  47  14
M  END
>  <minimizedAffinity>  (1) 
-4.33012295

>  <minimizedRMSD>  (1) 
2.05321431

$$$$
