
     RDKit          3D

 48 50  0  0  1  0  0  0  0  0999 V2000
   48.4600   33.1030   41.5880 C   0  0  0  0  0  0  0  0  0  0  0  0
   47.9470   34.4140   41.1810 C   0  0  0  0  0  0  0  0  0  0  0  0
   44.1840   34.8090   41.3460 C   0  0  0  0  0  0  0  0  0  0  0  0
   45.4270   34.4150   40.8330 C   0  0  0  0  0  0  0  0  0  0  0  0
   46.5820   34.7490   41.5580 C   0  0  0  0  0  0  0  0  0  0  0  0
   46.4350   35.4390   42.7210 N   0  0  0  0  0  0  0  0  0  0  0  0
   45.1970   35.8010   43.1790 C   0  0  0  0  0  0  0  0  0  0  0  0
   44.0980   35.4930   42.5060 N   0  0  0  0  0  0  0  0  0  0  0  0
   43.0270   34.4270   40.5470 C   0  0  0  0  0  0  0  0  0  0  0  0
   42.4500   35.0720   39.6920 O   0  0  0  0  0  0  0  0  0  0  0  0
   48.8560   35.5670   41.5130 C   0  0  0  0  0  0  0  0  0  0  0  0
   48.0090   34.3590   39.6300 C   0  0  0  0  0  0  0  0  0  0  0  0
   49.8740   33.2280   41.6060 O   0  0  0  0  0  0  0  0  0  0  0  0
   50.2980   31.9680   41.2790 C   0  0  1  0  0  0  0  0  0  0  0  0
   51.6380   31.7060   40.7950 C   0  0  0  0  0  0  0  0  0  0  0  0
   51.3910   31.4310   42.2320 C   0  0  2  0  0  0  0  0  0  0  0  0
   51.2050   30.0200   42.6990 C   0  0  1  0  0  0  0  0  0  0  0  0
   50.3080   29.1830   41.8110 C   0  0  0  0  0  0  0  0  0  0  0  0
   52.5440   29.2930   42.7100 C   0  0  0  0  0  0  0  0  0  0  0  0
   53.2830   29.6070   43.9670 C   0  0  0  0  0  0  0  0  0  0  0  0
   54.6430   29.4820   44.1680 C   0  0  0  0  0  0  0  0  0  0  0  0
   54.9010   29.8830   45.4820 C   0  0  0  0  0  0  0  0  0  0  0  0
   53.6520   30.2320   46.0010 C   0  0  0  0  0  0  0  0  0  0  0  0
   52.7500   30.0570   45.0950 O   0  0  0  0  0  0  0  0  0  0  0  0
   48.1531   32.3311   40.8669 H   0  0  0  0  0  0  0  0  0  0  0  0
   48.0681   32.8030   42.5711 H   0  0  0  0  0  0  0  0  0  0  0  0
   45.4961   33.8584   39.8867 H   0  0  0  0  0  0  0  0  0  0  0  0
   45.1129   36.3582   44.1237 H   0  0  0  0  0  0  0  0  0  0  0  0
   42.6219   33.4232   40.7426 H   0  0  0  0  0  0  0  0  0  0  0  0
   48.9358   35.6682   42.6054 H   0  0  0  0  0  0  0  0  0  0  0  0
   49.8535   35.3816   41.0881 H   0  0  0  0  0  0  0  0  0  0  0  0
   48.4429   36.4937   41.0881 H   0  0  0  0  0  0  0  0  0  0  0  0
   48.7984   33.6588   39.3192 H   0  0  0  0  0  0  0  0  0  0  0  0
   47.0403   34.0178   39.2362 H   0  0  0  0  0  0  0  0  0  0  0  0
   48.2323   35.3615   39.2362 H   0  0  0  0  0  0  0  0  0  0  0  0
   49.3115   31.6753   40.8902 H   0  0  0  0  0  0  0  0  0  0  0  0
   51.8082   30.8654   40.1062 H   0  0  0  0  0  0  0  0  0  0  0  0
   52.3805   32.3153   40.2588 H   0  0  0  0  0  0  0  0  0  0  0  0
   51.8805   31.7326   43.1698 H   0  0  0  0  0  0  0  0  0  0  0  0
   50.7463   30.1180   43.6940 H   0  0  0  0  0  0  0  0  0  0  0  0
   49.6462   28.5655   42.4361 H   0  0  0  0  0  0  0  0  0  0  0  0
   49.7004   29.8444   41.1760 H   0  0  0  0  0  0  0  0  0  0  0  0
   50.9259   28.5311   41.1760 H   0  0  0  0  0  0  0  0  0  0  0  0
   52.3704   28.2084   42.6504 H   0  0  0  0  0  0  0  0  0  0  0  0
   53.1415   29.6224   41.8472 H   0  0  0  0  0  0  0  0  0  0  0  0
   55.3835   29.1329   43.4333 H   0  0  0  0  0  0  0  0  0  0  0  0
   55.8737   29.9164   45.9946 H   0  0  0  0  0  0  0  0  0  0  0  0
   53.4665   30.5984   47.0215 H   0  0  0  0  0  0  0  0  0  0  0  0
  1 13  1  0
  2 11  1  0
  2  5  1  0
  2  1  1  0
  3  8  2  0
  4  3  1  0
  4  5  2  0
  5  6  1  0
  6  7  2  0
  8  7  1  0
  9  3  1  0
 10  9  2  0
 12  2  1  0
 14 13  1  0
 14 16  1  0
 15 14  1  0
 15 16  1  0
 16 17  1  0
 17 19  1  0
 18 17  1  0
 19 20  1  0
 20 21  2  0
 20 24  1  0
 21 22  1  0
 22 23  2  0
 24 23  1  0
  1 25  1  0
  1 26  1  0
  4 27  1  0
  7 28  1  0
  9 29  1  0
 11 30  1  0
 11 31  1  0
 11 32  1  0
 12 33  1  0
 12 34  1  0
 12 35  1  0
 14 36  1  6
 15 37  1  0
 15 38  1  0
 16 39  1  1
 17 40  1  1
 18 41  1  0
 18 42  1  0
 18 43  1  0
 19 44  1  0
 19 45  1  0
 21 46  1  0
 22 47  1  0
 23 48  1  0
M  ISO  8  25   8  26   8  27  14  28  14  29   6  30   8  31   8  32   8
M  ISO  8  33   8  34   8  35   8  36  13  37  13  38  13  39  13  40   8
M  ISO  8  41   8  42   8  43   8  44   8  45   8  46  14  47  14  48  14
M  END
>  <minimizedAffinity>  (1) 
-4.30988312

>  <minimizedRMSD>  (1) 
2.37508202

$$$$
