
     RDKit          3D

 54 57  0  0  1  0  0  0  0  0999 V2000
   50.3090   32.0130   41.4120 C   0  0  1  0  0  0  0  0  0  0  0  0
   51.6570   31.7520   40.9470 C   0  0  0  0  0  0  0  0  0  0  0  0
   51.3910   31.5130   42.3890 C   0  0  2  0  0  0  0  0  0  0  0  0
   51.2090   30.1050   42.8870 C   0  0  1  0  0  0  0  0  0  0  0  0
   49.7820   29.7430   43.2370 C   0  0  0  0  0  0  0  0  0  0  0  0
   51.6340   29.1270   41.8210 C   0  0  0  0  0  0  0  0  0  0  0  0
   52.9420   28.5530   42.0670 N   0  0  0  0  0  0  0  0  0  0  0  0
   53.3850   27.8270   43.0990 C   0  0  0  0  0  0  0  0  0  0  0  0
   54.6810   27.4890   42.9300 N   0  0  0  0  0  0  0  0  0  0  0  0
   55.0150   28.0380   41.7500 C   0  0  0  0  0  0  0  0  0  0  0  0
   56.2520   27.9820   41.1120 C   0  0  0  0  0  0  0  0  0  0  0  0
   56.3790   28.6120   39.9080 N   0  0  0  0  0  0  0  0  0  0  0  0
   55.3040   29.2670   39.3810 C   0  0  0  0  0  0  0  0  0  0  0  0
   54.1070   29.3240   39.9940 N   0  0  0  0  0  0  0  0  0  0  0  0
   53.9650   28.7070   41.1810 C   0  0  0  0  0  0  0  0  0  0  0  0
   57.4200   27.3250   41.5880 N   0  0  0  0  0  0  0  0  0  0  0  0
   49.8660   33.2780   41.6910 O   0  0  0  0  0  0  0  0  0  0  0  0
   48.4520   33.1320   41.6460 C   0  0  0  0  0  0  0  0  0  0  0  0
   47.9310   34.4300   41.2190 C   0  0  0  0  0  0  0  0  0  0  0  0
   44.1640   34.8190   41.3480 C   0  0  0  0  0  0  0  0  0  0  0  0
   45.4120   34.4320   40.8440 C   0  0  0  0  0  0  0  0  0  0  0  0
   46.5630   34.7590   41.5820 C   0  0  0  0  0  0  0  0  0  0  0  0
   46.4020   35.4360   42.7490 N   0  0  0  0  0  0  0  0  0  0  0  0
   45.1620   35.7940   43.2000 C   0  0  0  0  0  0  0  0  0  0  0  0
   44.0680   35.4920   42.5160 N   0  0  0  0  0  0  0  0  0  0  0  0
   43.0180   34.4370   40.5330 C   0  0  0  0  0  0  0  0  0  0  0  0
   42.4530   35.0640   39.6700 O   0  0  0  0  0  0  0  0  0  0  0  0
   48.8280   35.5960   41.5230 C   0  0  0  0  0  0  0  0  0  0  0  0
   47.9930   34.3380   39.6660 C   0  0  0  0  0  0  0  0  0  0  0  0
   49.3286   31.6986   41.0246 H   0  0  0  0  0  0  0  0  0  0  0  0
   51.8432   30.8954   40.2825 H   0  0  0  0  0  0  0  0  0  0  0  0
   52.4006   32.3531   40.4031 H   0  0  0  0  0  0  0  0  0  0  0  0
   51.8644   31.8442   43.3251 H   0  0  0  0  0  0  0  0  0  0  0  0
   51.8203   30.0507   43.7999 H   0  0  0  0  0  0  0  0  0  0  0  0
   49.6687   29.7143   44.3308 H   0  0  0  0  0  0  0  0  0  0  0  0
   49.0991   30.4964   42.8173 H   0  0  0  0  0  0  0  0  0  0  0  0
   49.5408   28.7552   42.8173 H   0  0  0  0  0  0  0  0  0  0  0  0
   51.6575   29.6509   40.8541 H   0  0  0  0  0  0  0  0  0  0  0  0
   50.9070   28.3015   41.8236 H   0  0  0  0  0  0  0  0  0  0  0  0
   52.7749   27.5432   43.9692 H   0  0  0  0  0  0  0  0  0  0  0  0
   55.4211   29.7716   38.4106 H   0  0  0  0  0  0  0  0  0  0  0  0
   58.2864   27.3472   41.0314 H   0  0  0  0  0  0  0  0  0  0  0  0
   57.3996   26.8269   42.4893 H   0  0  0  0  0  0  0  0  0  0  0  0
   48.1704   32.3502   40.9252 H   0  0  0  0  0  0  0  0  0  0  0  0
   48.0444   32.8336   42.6232 H   0  0  0  0  0  0  0  0  0  0  0  0
   45.4898   33.8849   39.8929 H   0  0  0  0  0  0  0  0  0  0  0  0
   45.0707   36.3432   44.1487 H   0  0  0  0  0  0  0  0  0  0  0  0
   42.6099   33.4352   40.7325 H   0  0  0  0  0  0  0  0  0  0  0  0
   48.9190   35.7143   42.6128 H   0  0  0  0  0  0  0  0  0  0  0  0
   49.8228   35.4161   41.0894 H   0  0  0  0  0  0  0  0  0  0  0  0
   48.3991   36.5114   41.0894 H   0  0  0  0  0  0  0  0  0  0  0  0
   48.5857   33.4585   39.3742 H   0  0  0  0  0  0  0  0  0  0  0  0
   46.9737   34.2433   39.2633 H   0  0  0  0  0  0  0  0  0  0  0  0
   48.4633   35.2472   39.2633 H   0  0  0  0  0  0  0  0  0  0  0  0
  1 17  1  0
  1  3  1  0
  2  1  1  0
  2  3  1  0
  3  4  1  0
  4  5  1  0
  6  7  1  0
  6  4  1  0
  7  8  1  0
  9  8  2  0
 10  9  1  0
 11 16  1  0
 11 10  2  0
 12 11  1  0
 13 12  2  0
 13 14  1  0
 14 15  2  0
 15 10  1  0
 15  7  1  0
 18 17  1  0
 19 28  1  0
 19 22  1  0
 19 18  1  0
 20 25  2  0
 21 20  1  0
 21 22  2  0
 22 23  1  0
 23 24  2  0
 25 24  1  0
 26 20  1  0
 27 26  2  0
 29 19  1  0
  1 30  1  6
  2 31  1  0
  2 32  1  0
  3 33  1  1
  4 34  1  1
  5 35  1  0
  5 36  1  0
  5 37  1  0
  6 38  1  0
  6 39  1  0
  8 40  1  0
 13 41  1  0
 16 42  1  0
 16 43  1  0
 18 44  1  0
 18 45  1  0
 21 46  1  0
 24 47  1  0
 26 48  1  0
 28 49  1  0
 28 50  1  0
 28 51  1  0
 29 52  1  0
 29 53  1  0
 29 54  1  0
M  ISO  8  30  13  31  13  32  13  33  13  34   8  35   8  36   8  37   8
M  ISO  8  38   8  39   8  40  14  41  14  44   8  45   8  46  14  47  14
M  ISO  7  48   6  49   8  50   8  51   8  52   8  53   8  54   8
M  END
>  <minimizedAffinity>  (1) 
-4.26985741

>  <minimizedRMSD>  (1) 
3.13165689

$$$$
