
     RDKit          3D

 57 59  0  0  1  0  0  0  0  0999 V2000
   48.4680   33.1330   41.5750 C   0  0  0  0  0  0  0  0  0  0  0  0
   47.9360   34.4400   41.1880 C   0  0  0  0  0  0  0  0  0  0  0  0
   44.1630   34.7520   41.3740 C   0  0  0  0  0  0  0  0  0  0  0  0
   45.4130   34.3770   40.8620 C   0  0  0  0  0  0  0  0  0  0  0  0
   46.5660   34.7510   41.5650 C   0  0  0  0  0  0  0  0  0  0  0  0
   46.4120   35.4610   42.7120 N   0  0  0  0  0  0  0  0  0  0  0  0
   45.1770   35.8060   43.1760 C   0  0  0  0  0  0  0  0  0  0  0  0
   44.0740   35.4570   42.5180 N   0  0  0  0  0  0  0  0  0  0  0  0
   43.0070   34.3250   40.5950 C   0  0  0  0  0  0  0  0  0  0  0  0
   42.4340   34.9170   39.7060 O   0  0  0  0  0  0  0  0  0  0  0  0
   48.8310   35.6030   41.5120 C   0  0  0  0  0  0  0  0  0  0  0  0
   47.9880   34.3860   39.6300 C   0  0  0  0  0  0  0  0  0  0  0  0
   49.8770   33.2710   41.5890 O   0  0  0  0  0  0  0  0  0  0  0  0
   50.3160   31.9900   41.3800 C   0  0  1  0  0  0  0  0  0  0  0  0
   51.6520   31.7040   40.8990 C   0  0  0  0  0  0  0  0  0  0  0  0
   51.4340   31.5640   42.3590 C   0  0  2  0  0  0  0  0  0  0  0  0
   51.2670   30.2000   42.9610 C   0  0  1  0  0  0  0  0  0  0  0  0
   49.8370   29.7150   43.0310 C   0  0  0  0  0  0  0  0  0  0  0  0
   52.0060   29.1700   42.1230 C   0  0  0  0  0  0  0  0  0  0  0  0
   53.3080   28.7500   42.8210 C   0  0  0  0  0  0  0  0  0  0  0  0
   54.4920   29.4510   42.1870 C   0  0  0  0  0  0  0  0  0  0  0  0
   55.7630   28.8400   42.6700 C   0  0  0  0  0  0  0  0  0  0  0  0
   55.8160   29.0240   44.1590 C   0  0  0  0  0  0  0  0  0  0  0  0
   54.6130   29.7270   44.7250 C   0  0  0  0  0  0  0  0  0  0  0  0
   53.2940   29.1590   44.2700 C   0  0  0  0  0  0  0  0  0  0  0  0
   48.1667   32.3669   40.8454 H   0  0  0  0  0  0  0  0  0  0  0  0
   48.0853   32.8182   42.5570 H   0  0  0  0  0  0  0  0  0  0  0  0
   45.4872   33.8011   39.9277 H   0  0  0  0  0  0  0  0  0  0  0  0
   45.0910   36.3820   44.1092 H   0  0  0  0  0  0  0  0  0  0  0  0
   42.6010   33.3343   40.8475 H   0  0  0  0  0  0  0  0  0  0  0  0
   48.9130   35.7096   42.6038 H   0  0  0  0  0  0  0  0  0  0  0  0
   49.8293   35.4276   41.0847 H   0  0  0  0  0  0  0  0  0  0  0  0
   48.4058   36.5231   41.0847 H   0  0  0  0  0  0  0  0  0  0  0  0
   48.7188   33.6271   39.3136 H   0  0  0  0  0  0  0  0  0  0  0  0
   46.9940   34.1234   39.2388 H   0  0  0  0  0  0  0  0  0  0  0  0
   48.2879   35.3694   39.2388 H   0  0  0  0  0  0  0  0  0  0  0  0
   49.3277   31.6455   41.0416 H   0  0  0  0  0  0  0  0  0  0  0  0
   51.8254   30.8042   40.2905 H   0  0  0  0  0  0  0  0  0  0  0  0
   52.3748   32.2708   40.2937 H   0  0  0  0  0  0  0  0  0  0  0  0
   51.9389   31.9600   43.2525 H   0  0  0  0  0  0  0  0  0  0  0  0
   51.6600   30.3009   43.9834 H   0  0  0  0  0  0  0  0  0  0  0  0
   49.5356   29.6128   44.0840 H   0  0  0  0  0  0  0  0  0  0  0  0
   49.1789   30.4402   42.5300 H   0  0  0  0  0  0  0  0  0  0  0  0
   49.7559   28.7391   42.5300 H   0  0  0  0  0  0  0  0  0  0  0  0
   52.2445   29.6046   41.1411 H   0  0  0  0  0  0  0  0  0  0  0  0
   51.3655   28.2846   41.9976 H   0  0  0  0  0  0  0  0  0  0  0  0
   53.3899   27.6573   42.7241 H   0  0  0  0  0  0  0  0  0  0  0  0
   54.4733   30.5166   42.4592 H   0  0  0  0  0  0  0  0  0  0  0  0
   54.4322   29.3448   41.0938 H   0  0  0  0  0  0  0  0  0  0  0  0
   55.7818   27.7682   42.4233 H   0  0  0  0  0  0  0  0  0  0  0  0
   56.6294   29.3184   42.1898 H   0  0  0  0  0  0  0  0  0  0  0  0
   55.8916   28.0323   44.6289 H   0  0  0  0  0  0  0  0  0  0  0  0
   56.6890   29.6580   44.3735 H   0  0  0  0  0  0  0  0  0  0  0  0
   54.6580   29.6584   45.8219 H   0  0  0  0  0  0  0  0  0  0  0  0
   54.6528   30.7641   44.3604 H   0  0  0  0  0  0  0  0  0  0  0  0
   52.5141   29.9213   44.4132 H   0  0  0  0  0  0  0  0  0  0  0  0
   53.0955   28.2576   44.8684 H   0  0  0  0  0  0  0  0  0  0  0  0
  1 13  1  0
  2 11  1  0
  2  5  1  0
  2  1  1  0
  3  8  2  0
  4  3  1  0
  4  5  2  0
  5  6  1  0
  6  7  2  0
  8  7  1  0
  9  3  1  0
 10  9  2  0
 12  2  1  0
 14 13  1  0
 14 16  1  0
 15 14  1  0
 15 16  1  0
 16 17  1  0
 17 18  1  0
 19 20  1  0
 19 17  1  0
 20 25  1  0
 21 22  1  0
 21 20  1  0
 22 23  1  0
 23 24  1  0
 25 24  1  0
  1 26  1  0
  1 27  1  0
  4 28  1  0
  7 29  1  0
  9 30  1  0
 11 31  1  0
 11 32  1  0
 11 33  1  0
 12 34  1  0
 12 35  1  0
 12 36  1  0
 14 37  1  6
 15 38  1  0
 15 39  1  0
 16 40  1  1
 17 41  1  1
 18 42  1  0
 18 43  1  0
 18 44  1  0
 19 45  1  0
 19 46  1  0
 20 47  1  0
 21 48  1  0
 21 49  1  0
 22 50  1  0
 22 51  1  0
 23 52  1  0
 23 53  1  0
 24 54  1  0
 24 55  1  0
 25 56  1  0
 25 57  1  0
M  ISO  8  26   8  27   8  28  14  29  14  30   6  31   8  32   8  33   8
M  ISO  8  34   8  35   8  36   8  37  13  38  13  39  13  40  13  41   8
M  ISO  8  42   8  43   8  44   8  45   8  46   8  47  13  48  13  49  13
M  ISO  8  50  13  51  13  52  13  53  13  54  13  55  13  56  13  57  13
M  END
>  <minimizedAffinity>  (1) 
-4.23182869

>  <minimizedRMSD>  (1) 
2.2472055

$$$$
