
     RDKit          3D

 41 43  0  0  1  0  0  0  0  0999 V2000
   47.4560   32.1050   44.5830 C   0  0  0  0  0  0  0  0  0  0  0  0
   46.8070   33.3050   44.1890 C   0  0  0  0  0  0  0  0  0  0  0  0
   45.9530   33.8580   45.1380 C   0  0  0  0  0  0  0  0  0  0  0  0
   45.7850   33.2590   46.3400 N   0  0  0  0  0  0  0  0  0  0  0  0
   46.4260   32.1230   46.6610 C   0  0  0  0  0  0  0  0  0  0  0  0
   47.2490   31.5410   45.8160 N   0  0  0  0  0  0  0  0  0  0  0  0
   47.1450   33.7450   42.8760 C   0  0  0  0  0  0  0  0  0  0  0  0
   48.2120   34.5880   42.8530 N   0  0  0  0  0  0  0  0  0  0  0  0
   48.6800   35.1080   41.6940 C   0  0  0  0  0  0  0  0  0  0  0  0
   48.1100   34.8180   40.4910 N   0  0  0  0  0  0  0  0  0  0  0  0
   47.0420   33.9820   40.4720 C   0  0  0  0  0  0  0  0  0  0  0  0
   46.3620   33.5970   39.3300 C   0  0  0  0  0  0  0  0  0  0  0  0
   45.2930   32.7530   39.3500 C   0  0  0  0  0  0  0  0  0  0  0  0
   44.8650   32.2570   40.5560 C   0  0  0  0  0  0  0  0  0  0  0  0
   45.4940   32.5990   41.7230 C   0  0  0  0  0  0  0  0  0  0  0  0
   46.5750   33.4580   41.6500 C   0  0  0  0  0  0  0  0  0  0  0  0
   46.1970   31.5470   47.9770 C   0  0  1  0  0  0  0  0  0  0  0  0
   44.7130   31.7330   48.4320 C   0  0  0  0  0  0  0  0  0  0  0  0
   46.5400   30.0990   48.0970 C   0  0  0  0  0  0  0  0  0  0  0  0
   45.4280   29.3670   47.8570 O   0  0  0  0  0  0  0  0  0  0  0  0
   45.1540   28.0230   48.0110 C   0  0  0  0  0  0  0  0  0  0  0  0
   45.5360   27.1470   47.1840 O   0  0  0  0  0  0  0  0  0  0  0  0
   44.4320   27.6400   49.1180 O   0  0  0  0  0  0  0  0  0  0  0  0
   44.0690   26.2410   49.3150 C   0  0  0  0  0  0  0  0  0  0  0  0
   44.7560   25.5910   50.3800 N   0  0  0  0  0  0  0  0  0  0  0  0
   43.2020   25.7140   48.5600 O   0  0  0  0  0  0  0  0  0  0  0  0
   48.1443   31.6138   43.8794 H   0  0  0  0  0  0  0  0  0  0  0  0
   45.4111   34.7877   44.9100 H   0  0  0  0  0  0  0  0  0  0  0  0
   49.5465   35.7850   41.7245 H   0  0  0  0  0  0  0  0  0  0  0  0
   46.7006   33.9910   38.3604 H   0  0  0  0  0  0  0  0  0  0  0  0
   44.7821   32.4741   38.4166 H   0  0  0  0  0  0  0  0  0  0  0  0
   44.0032   31.5741   40.5854 H   0  0  0  0  0  0  0  0  0  0  0  0
   45.1497   32.2024   42.6895 H   0  0  0  0  0  0  0  0  0  0  0  0
   46.8852   32.1040   48.6298 H   0  0  0  0  0  0  0  0  0  0  0  0
   44.6644   31.7391   49.5309 H   0  0  0  0  0  0  0  0  0  0  0  0
   44.3269   32.6866   48.0426 H   0  0  0  0  0  0  0  0  0  0  0  0
   44.1035   30.9042   48.0426 H   0  0  0  0  0  0  0  0  0  0  0  0
   47.3180   29.8412   47.3633 H   0  0  0  0  0  0  0  0  0  0  0  0
   46.9168   29.8864   49.1084 H   0  0  0  0  0  0  0  0  0  0  0  0
   44.5616   24.6016   50.5903 H   0  0  0  0  0  0  0  0  0  0  0  0
   45.4472   26.1104   50.9399 H   0  0  0  0  0  0  0  0  0  0  0  0
  1  6  2  0
  2  1  1  0
  2  3  2  0
  3  4  1  0
  4  5  2  0
  5 17  1  0
  6  5  1  0
  7  2  1  0
  8  7  2  0
  9  8  1  0
 10  9  2  0
 11 10  1  0
 11 16  2  0
 12 13  2  0
 12 11  1  0
 13 14  1  0
 14 15  2  0
 16 15  1  0
 16  7  1  0
 17 19  1  0
 17 18  1  0
 20 21  1  0
 20 19  1  0
 21 23  1  0
 22 21  2  0
 23 24  1  0
 24 25  1  0
 26 24  2  0
  1 27  1  0
  3 28  1  0
  9 29  1  0
 12 30  1  0
 13 31  1  0
 14 32  1  0
 15 33  1  0
 17 34  1  1
 18 35  1  0
 18 36  1  0
 18 37  1  0
 19 38  1  0
 19 39  1  0
 25 40  1  0
 25 41  1  0
M  ISO  8  27  14  28  14  29  14  30  14  31  14  32  14  33  14  34   8
M  ISO  5  35   8  36   8  37   8  38   8  39   8
M  END
>  <minimizedAffinity>  (1) 
-4.9409852

>  <minimizedRMSD>  (1) 
0.408035249

$$$$
