
     RDKit          3D

 29 30  0  0  0  0  0  0  0  0999 V2000
   47.4920   34.5180   41.9980 C   0  0  0  0  0  0  0  0  0  0  0  0
   46.1690   34.4510   41.4720 C   0  0  0  0  0  0  0  0  0  0  0  0
   45.1640   33.9980   42.3230 C   0  0  0  0  0  0  0  0  0  0  0  0
   45.4670   33.6460   43.5900 N   0  0  0  0  0  0  0  0  0  0  0  0
   46.7550   33.7270   44.0550 C   0  0  0  0  0  0  0  0  0  0  0  0
   47.7240   34.1580   43.2500 N   0  0  0  0  0  0  0  0  0  0  0  0
   43.8190   33.9030   41.8690 N   0  0  0  0  0  0  0  0  0  0  0  0
   43.1620   32.7500   41.6810 C   0  0  0  0  0  0  0  0  0  0  0  0
   41.8540   32.7560   41.2370 C   0  0  0  0  0  0  0  0  0  0  0  0
   41.1240   31.4680   41.0290 C   0  0  0  0  0  0  0  0  0  0  0  0
   41.1750   33.9330   40.9700 C   0  0  0  0  0  0  0  0  0  0  0  0
   39.9740   33.9370   40.5610 O   0  0  0  0  0  0  0  0  0  0  0  0
   41.8570   35.0820   41.1650 N   0  0  0  0  0  0  0  0  0  0  0  0
   43.1320   35.0420   41.6000 C   0  0  0  0  0  0  0  0  0  0  0  0
   43.7390   36.1410   41.7710 O   0  0  0  0  0  0  0  0  0  0  0  0
   48.4620   35.0070   41.0060 C   0  0  0  0  0  0  0  0  0  0  0  0
   49.2550   36.1770   41.5200 C   0  0  0  0  0  0  0  0  0  0  0  0
   45.9504   34.7454   40.4349 H   0  0  0  0  0  0  0  0  0  0  0  0
   46.9867   33.4366   45.0904 H   0  0  0  0  0  0  0  0  0  0  0  0
   43.6672   31.7936   41.8814 H   0  0  0  0  0  0  0  0  0  0  0  0
   40.8738   31.0266   42.0050 H   0  0  0  0  0  0  0  0  0  0  0  0
   40.1992   31.6577   40.4645 H   0  0  0  0  0  0  0  0  0  0  0  0
   41.7619   30.7720   40.4645 H   0  0  0  0  0  0  0  0  0  0  0  0
   41.4032   35.9882   40.9815 H   0  0  0  0  0  0  0  0  0  0  0  0
   47.9186   35.3168   40.1012 H   0  0  0  0  0  0  0  0  0  0  0  0
   49.1656   34.1899   40.7885 H   0  0  0  0  0  0  0  0  0  0  0  0
   49.2495   36.1688   42.6200 H   0  0  0  0  0  0  0  0  0  0  0  0
   50.2912   36.1050   41.1580 H   0  0  0  0  0  0  0  0  0  0  0  0
   48.8043   37.1128   41.1580 H   0  0  0  0  0  0  0  0  0  0  0  0
  1  6  2  0
  2  1  1  0
  2  3  2  0
  3  4  1  0
  4  5  2  0
  6  5  1  0
  7  3  1  0
  8  7  1  0
  9  8  2  0
 10  9  1  0
 11 13  1  0
 11  9  1  0
 12 11  2  0
 13 14  1  0
 14 15  2  0
 14  7  1  0
 16 17  1  0
 16  1  1  0
  2 18  1  0
  5 19  1  0
  8 20  1  0
 10 21  1  0
 10 22  1  0
 10 23  1  0
 13 24  1  0
 16 25  1  0
 16 26  1  0
 17 27  1  0
 17 28  1  0
 17 29  1  0
M  ISO  8  18  14  19  14  20  14  21   8  22   8  23   8  24   9  25   8
M  ISO  4  26   8  27   8  28   8  29   8
M  END
>  <minimizedAffinity>  (1) 
-5.04768085

>  <minimizedRMSD>  (1) 
3.50116515

$$$$
