
     RDKit          3D

 53 55  0  0  1  0  0  0  0  0999 V2000
   48.4320   33.0580   41.6020 C   0  0  0  0  0  0  0  0  0  0  0  0
   47.9430   34.4250   41.1650 C   0  0  0  0  0  0  0  0  0  0  0  0
   44.1620   34.7600   41.3720 C   0  0  0  0  0  0  0  0  0  0  0  0
   45.4080   34.3810   40.8650 C   0  0  0  0  0  0  0  0  0  0  0  0
   46.5690   34.7270   41.5400 C   0  0  0  0  0  0  0  0  0  0  0  0
   46.4310   35.4420   42.7040 N   0  0  0  0  0  0  0  0  0  0  0  0
   45.1830   35.7910   43.1630 C   0  0  0  0  0  0  0  0  0  0  0  0
   44.0810   35.4610   42.5170 N   0  0  0  0  0  0  0  0  0  0  0  0
   42.9960   34.3460   40.5880 C   0  0  0  0  0  0  0  0  0  0  0  0
   42.4300   34.9450   39.7010 O   0  0  0  0  0  0  0  0  0  0  0  0
   48.8460   35.5410   41.4850 C   0  0  0  0  0  0  0  0  0  0  0  0
   47.9770   34.3120   39.6200 C   0  0  0  0  0  0  0  0  0  0  0  0
   49.8450   33.1620   41.4290 O   0  0  0  0  0  0  0  0  0  0  0  0
   50.1840   31.8710   41.1030 C   0  0  1  0  0  0  0  0  0  0  0  0
   50.8570   31.5400   39.8590 C   0  0  0  0  0  0  0  0  0  0  0  0
   51.6970   31.6040   41.0520 C   0  0  2  0  0  0  0  0  0  0  0  0
   52.1590   30.3520   41.7550 C   0  0  1  0  0  0  0  0  0  0  0  0
   51.1710   29.7870   42.7310 C   0  0  0  0  0  0  0  0  0  0  0  0
   52.4370   29.2650   40.7420 C   0  0  0  0  0  0  0  0  0  0  0  0
   53.6870   28.5920   40.8980 N   0  0  0  0  0  0  0  0  0  0  0  0
   54.7950   29.4470   40.4440 C   0  0  0  0  0  0  0  0  0  0  0  0
   54.3770   29.7710   39.0330 C   0  0  0  0  0  0  0  0  0  0  0  0
   53.9190   28.3870   38.5640 C   0  0  0  0  0  0  0  0  0  0  0  0
   53.7850   27.5550   39.8450 C   0  0  0  0  0  0  0  0  0  0  0  0
   48.1742   32.8615   42.6532 H   0  0  0  0  0  0  0  0  0  0  0  0
   47.9817   32.2305   41.0341 H   0  0  0  0  0  0  0  0  0  0  0  0
   45.4679   33.8070   39.9285 H   0  0  0  0  0  0  0  0  0  0  0  0
   45.1006   36.3636   44.0986 H   0  0  0  0  0  0  0  0  0  0  0  0
   42.5790   33.3594   40.8385 H   0  0  0  0  0  0  0  0  0  0  0  0
   48.9292   35.6438   42.5770 H   0  0  0  0  0  0  0  0  0  0  0  0
   49.8403   35.3420   41.0587 H   0  0  0  0  0  0  0  0  0  0  0  0
   48.4439   36.4719   41.0587 H   0  0  0  0  0  0  0  0  0  0  0  0
   48.2830   33.2950   39.3334 H   0  0  0  0  0  0  0  0  0  0  0  0
   46.9760   34.5216   39.2149 H   0  0  0  0  0  0  0  0  0  0  0  0
   48.6961   35.0392   39.2149 H   0  0  0  0  0  0  0  0  0  0  0  0
   49.2846   31.4680   41.5916 H   0  0  0  0  0  0  0  0  0  0  0  0
   50.9641   32.3111   39.0818 H   0  0  0  0  0  0  0  0  0  0  0  0
   50.6911   30.7687   39.0924 H   0  0  0  0  0  0  0  0  0  0  0  0
   52.6346   32.1279   41.2896 H   0  0  0  0  0  0  0  0  0  0  0  0
   53.0567   30.6575   42.3125 H   0  0  0  0  0  0  0  0  0  0  0  0
   51.5154   29.9840   43.7569 H   0  0  0  0  0  0  0  0  0  0  0  0
   50.1905   30.2609   42.5761 H   0  0  0  0  0  0  0  0  0  0  0  0
   51.0822   28.7016   42.5761 H   0  0  0  0  0  0  0  0  0  0  0  0
   52.4186   29.7204   39.7409 H   0  0  0  0  0  0  0  0  0  0  0  0
   51.6592   28.5019   40.8928 H   0  0  0  0  0  0  0  0  0  0  0  0
   54.8756   30.3570   41.0567 H   0  0  0  0  0  0  0  0  0  0  0  0
   55.7838   28.9706   40.5171 H   0  0  0  0  0  0  0  0  0  0  0  0
   53.5556   30.5023   39.0088 H   0  0  0  0  0  0  0  0  0  0  0  0
   55.1597   30.2334   38.4136 H   0  0  0  0  0  0  0  0  0  0  0  0
   52.9515   28.4557   38.0452 H   0  0  0  0  0  0  0  0  0  0  0  0
   54.6278   27.9375   37.8529 H   0  0  0  0  0  0  0  0  0  0  0  0
   52.8805   26.9295   39.8189 H   0  0  0  0  0  0  0  0  0  0  0  0
   54.6183   26.8537   39.9992 H   0  0  0  0  0  0  0  0  0  0  0  0
  2 11  1  0
  2  5  1  0
  2  1  1  0
  3  8  2  0
  4  3  1  0
  4  5  2  0
  5  6  1  0
  6  7  2  0
  8  7  1  0
  9  3  1  0
 10  9  2  0
 12  2  1  0
 13  1  1  0
 14 13  1  0
 15 16  1  0
 15 14  1  0
 16 14  1  0
 16 17  1  0
 17 18  1  0
 19 20  1  0
 19 17  1  0
 21 20  1  0
 22 21  1  0
 23 22  1  0
 23 24  1  0
 24 20  1  0
  1 25  1  0
  1 26  1  0
  4 27  1  0
  7 28  1  0
  9 29  1  0
 11 30  1  0
 11 31  1  0
 11 32  1  0
 12 33  1  0
 12 34  1  0
 12 35  1  0
 14 36  1  1
 15 37  1  0
 15 38  1  0
 16 39  1  6
 17 40  1  1
 18 41  1  0
 18 42  1  0
 18 43  1  0
 19 44  1  0
 19 45  1  0
 21 46  1  0
 21 47  1  0
 22 48  1  0
 22 49  1  0
 23 50  1  0
 23 51  1  0
 24 52  1  0
 24 53  1  0
M  ISO  8  25   8  26   8  27  14  28  14  29   6  30   8  31   8  32   8
M  ISO  8  33   8  34   8  35   8  36  13  37  13  38  13  39  13  40   8
M  ISO  8  41   8  42   8  43   8  44   8  45   8  46  13  47  13  48  13
M  ISO  5  49  13  50  13  51  13  52  13  53  13
M  END
>  <minimizedAffinity>  (1) 
-4.14721441

>  <minimizedRMSD>  (1) 
1.22957981

$$$$
