
     RDKit          3D

 21 22  0  0  0  0  0  0  0  0999 V2000
   47.1650   34.5820   42.0020 C   0  0  0  0  0  0  0  0  0  0  0  0
   45.8880   34.6050   41.4260 C   0  0  0  0  0  0  0  0  0  0  0  0
   44.7550   34.3260   42.2180 C   0  0  0  0  0  0  0  0  0  0  0  0
   44.9770   34.0440   43.5300 N   0  0  0  0  0  0  0  0  0  0  0  0
   46.2390   34.0320   44.0570 C   0  0  0  0  0  0  0  0  0  0  0  0
   47.2920   34.2970   43.2900 N   0  0  0  0  0  0  0  0  0  0  0  0
   43.4130   34.3430   41.6490 C   0  0  0  0  0  0  0  0  0  0  0  0
   42.9680   35.5670   41.3140 N   0  0  0  0  0  0  0  0  0  0  0  0
   41.7850   35.5340   40.8170 O   0  0  0  0  0  0  0  0  0  0  0  0
   41.4420   34.2600   40.8240 C   0  0  0  0  0  0  0  0  0  0  0  0
   42.4440   33.4900   41.3400 N   0  0  0  0  0  0  0  0  0  0  0  0
   48.2220   34.8950   41.0300 C   0  0  0  0  0  0  0  0  0  0  0  0
   49.1330   36.0030   41.5440 C   0  0  0  0  0  0  0  0  0  0  0  0
   45.7694   34.8402   40.3580 H   0  0  0  0  0  0  0  0  0  0  0  0
   46.3837   33.8015   45.1228 H   0  0  0  0  0  0  0  0  0  0  0  0
   40.4786   33.8709   40.4628 H   0  0  0  0  0  0  0  0  0  0  0  0
   47.7577   35.2206   40.0875 H   0  0  0  0  0  0  0  0  0  0  0  0
   48.8284   33.9910   40.8717 H   0  0  0  0  0  0  0  0  0  0  0  0
   49.1300   35.9994   42.6440 H   0  0  0  0  0  0  0  0  0  0  0  0
   50.1571   35.8343   41.1795 H   0  0  0  0  0  0  0  0  0  0  0  0
   48.7696   36.9751   41.1795 H   0  0  0  0  0  0  0  0  0  0  0  0
  1  6  2  0
  2  1  1  0
  2  3  2  0
  3  4  1  0
  4  5  2  0
  6  5  1  0
  7  3  1  0
  8  7  2  0
  9 10  1  0
  9  8  1  0
 10 11  2  0
 11  7  1  0
 12 13  1  0
 12  1  1  0
  2 14  1  0
  5 15  1  0
 10 16  1  0
 12 17  1  0
 12 18  1  0
 13 19  1  0
 13 20  1  0
 13 21  1  0
M  ISO  8  14  14  15  14  16  14  17   8  18   8  19   8  20   8  21   8
M  END
>  <minimizedAffinity>  (1) 
-4.11990595

>  <minimizedRMSD>  (1) 
2.66328001

$$$$
