
     RDKit          3D

 35 37  0  0  0  0  0  0  0  0999 V2000
   44.2590   34.4690   42.3170 C   0  0  0  0  0  0  0  0  0  0  0  0
   44.0020   35.6600   42.8790 C   0  0  0  0  0  0  0  0  0  0  0  0
   44.8120   35.5210   44.4980 S   0  0  0  0  0  0  0  0  0  0  0  0
   45.3930   33.7610   44.0990 C   0  0  0  0  0  0  0  0  0  0  0  0
   44.9570   33.6250   43.0290 N   0  0  0  0  0  0  0  0  0  0  0  0
   46.1600   33.0790   45.1150 N   0  0  0  0  0  0  0  0  0  0  0  0
   46.0500   33.3450   46.4760 C   0  0  0  0  0  0  0  0  0  0  0  0
   44.9090   33.8310   46.8670 N   0  0  0  0  0  0  0  0  0  0  0  0
   47.2040   33.0530   47.2770 N   0  0  0  0  0  0  0  0  0  0  0  0
   44.8030   33.9950   47.8950 H   0  0  0  0  0  0  0  0  0  0  0  0
   44.0700   33.3420   38.6740 C   0  0  0  0  0  0  0  0  0  0  0  0
   44.5740   33.6320   39.9400 C   0  0  0  0  0  0  0  0  0  0  0  0
   43.7700   34.1440   40.9520 C   0  0  0  0  0  0  0  0  0  0  0  0
   42.4750   34.3290   40.5980 N   0  0  0  0  0  0  0  0  0  0  0  0
   41.9750   34.0550   39.3860 C   0  0  0  0  0  0  0  0  0  0  0  0
   42.7610   33.5680   38.4400 N   0  0  0  0  0  0  0  0  0  0  0  0
   40.6010   34.2790   39.1000 N   0  0  0  0  0  0  0  0  0  0  0  0
   39.8260   33.7790   37.9800 C   0  0  0  0  0  0  0  0  0  0  0  0
   38.4160   33.5500   38.4720 C   0  0  0  0  0  0  0  0  0  0  0  0
   38.5020   34.0040   39.9140 C   0  0  0  0  0  0  0  0  0  0  0  0
   39.5980   35.0470   39.8120 C   0  0  0  0  0  0  0  0  0  0  0  0
   43.4404   36.5092   42.4625 H   0  0  0  0  0  0  0  0  0  0  0  0
   46.8269   32.3538   44.8146 H   0  0  0  0  0  0  0  0  0  0  0  0
   47.1843   33.2284   48.2918 H   0  0  0  0  0  0  0  0  0  0  0  0
   48.0521   32.6680   46.8373 H   0  0  0  0  0  0  0  0  0  0  0  0
   44.7227   32.9391   37.8856 H   0  0  0  0  0  0  0  0  0  0  0  0
   45.6394   33.4505   40.1449 H   0  0  0  0  0  0  0  0  0  0  0  0
   40.2559   32.8335   37.6177 H   0  0  0  0  0  0  0  0  0  0  0  0
   39.8350   34.4998   37.1491 H   0  0  0  0  0  0  0  0  0  0  0  0
   37.6929   34.1554   37.9058 H   0  0  0  0  0  0  0  0  0  0  0  0
   38.0713   32.5119   38.3560 H   0  0  0  0  0  0  0  0  0  0  0  0
   37.5542   34.4435   40.2583 H   0  0  0  0  0  0  0  0  0  0  0  0
   38.7020   33.1989   40.6363 H   0  0  0  0  0  0  0  0  0  0  0  0
   39.9535   35.3656   40.8030 H   0  0  0  0  0  0  0  0  0  0  0  0
   39.3014   35.9890   39.3275 H   0  0  0  0  0  0  0  0  0  0  0  0
  1  2  2  0
  1  5  1  0
  2  3  1  0
  4  3  1  0
  4  6  1  0
  5  4  2  0
  6  7  1  0
  7  8  2  0
  7  9  1  0
  8 10  1  0
 11 12  2  0
 12 13  1  0
 13  1  1  0
 14 13  2  0
 15 14  1  0
 16 11  1  0
 16 15  2  0
 17 15  1  0
 17 21  1  0
 18 19  1  0
 18 17  1  0
 19 20  1  0
 21 20  1  0
  2 22  1  0
  6 23  1  0
  9 24  1  0
  9 25  1  0
 11 26  1  0
 12 27  1  0
 18 28  1  0
 18 29  1  0
 19 30  1  0
 19 31  1  0
 20 32  1  0
 20 33  1  0
 21 34  1  0
 21 35  1  0
M  ISO  8  22  14  26  14  27  14  28  13  29  13  30  13  31  13  32  13
M  ISO  3  33  13  34  13  35  13
M  END
>  <minimizedAffinity>  (1) 
-6.69824171

>  <minimizedRMSD>  (1) 
3.17662525

$$$$
