
     RDKit          3D

 22 22  0  0  0  0  0  0  0  0999 V2000
   47.6180   34.3740   43.0850 C   0  0  0  0  0  0  0  0  0  0  0  0
   46.6290   35.1100   42.4130 C   0  0  0  0  0  0  0  0  0  0  0  0
   45.2850   35.0110   42.8340 C   0  0  0  0  0  0  0  0  0  0  0  0
   45.0210   34.1920   43.8860 N   0  0  0  0  0  0  0  0  0  0  0  0
   46.0170   33.4930   44.5100 C   0  0  0  0  0  0  0  0  0  0  0  0
   47.2910   33.5960   44.1010 N   0  0  0  0  0  0  0  0  0  0  0  0
   48.9520   34.5990   42.5050 C   0  0  0  0  0  0  0  0  0  0  0  0
   48.9340   35.7430   41.5080 C   0  0  0  0  0  0  0  0  0  0  0  0
   44.2180   35.7790   42.1390 C   0  0  0  0  0  0  0  0  0  0  0  0
   43.6800   35.0520   40.9250 C   0  0  0  0  0  0  0  0  0  0  0  0
   46.8989   35.7580   41.5661 H   0  0  0  0  0  0  0  0  0  0  0  0
   45.7707   32.8376   45.3584 H   0  0  0  0  0  0  0  0  0  0  0  0
   49.6583   34.8393   43.3133 H   0  0  0  0  0  0  0  0  0  0  0  0
   49.2603   33.6840   41.9780 H   0  0  0  0  0  0  0  0  0  0  0  0
   48.9189   36.7006   42.0490 H   0  0  0  0  0  0  0  0  0  0  0  0
   49.8330   35.6929   40.8762 H   0  0  0  0  0  0  0  0  0  0  0  0
   48.0370   35.6647   40.8762 H   0  0  0  0  0  0  0  0  0  0  0  0
   43.3906   35.9505   42.8433 H   0  0  0  0  0  0  0  0  0  0  0  0
   44.6576   36.7266   41.7945 H   0  0  0  0  0  0  0  0  0  0  0  0
   43.0550   34.2074   41.2505 H   0  0  0  0  0  0  0  0  0  0  0  0
   43.0751   35.7444   40.3212 H   0  0  0  0  0  0  0  0  0  0  0  0
   44.5190   34.6759   40.3212 H   0  0  0  0  0  0  0  0  0  0  0  0
  1  6  2  0
  2  3  2  0
  2  1  1  0
  3  4  1  0
  4  5  2  0
  6  5  1  0
  7  1  1  0
  8  7  1  0
  9  3  1  0
 10  9  1  0
  2 11  1  0
  5 12  1  0
  7 13  1  0
  7 14  1  0
  8 15  1  0
  8 16  1  0
  8 17  1  0
  9 18  1  0
  9 19  1  0
 10 20  1  0
 10 21  1  0
 10 22  1  0
M  ISO  8  11  14  12  14  13   8  14   8  15   8  16   8  17   8  18   8
M  ISO  4  19   8  20   8  21   8  22   8
M  END
>  <minimizedAffinity>  (1) 
-3.64148664

>  <minimizedRMSD>  (1) 
1.65559614

$$$$
