
     RDKit          3D

 31 33  0  0  0  0  0  0  0  0999 V2000
   48.3580   33.9860   41.8410 C   0  0  0  0  0  0  0  0  0  0  0  0
   47.4780   34.1740   42.9290 C   0  0  0  0  0  0  0  0  0  0  0  0
   47.3030   33.1460   43.8580 C   0  0  0  0  0  0  0  0  0  0  0  0
   48.0070   31.9970   43.6560 N   0  0  0  0  0  0  0  0  0  0  0  0
   48.8330   31.8630   42.6070 C   0  0  0  0  0  0  0  0  0  0  0  0
   49.0180   32.8170   41.7150 N   0  0  0  0  0  0  0  0  0  0  0  0
   48.4290   35.1630   40.9590 C   0  0  0  0  0  0  0  0  0  0  0  0
   49.2730   36.2530   41.5930 C   0  0  0  0  0  0  0  0  0  0  0  0
   46.2190   33.3240   45.2320 S   0  0  0  0  0  0  0  0  0  0  0  0
   46.5780   32.1420   46.5220 C   0  0  0  0  0  0  0  0  0  0  0  0
   47.3520   32.6330   47.5180 N   0  0  0  0  0  0  0  0  0  0  0  0
   47.7110   31.8510   48.5730 C   0  0  0  0  0  0  0  0  0  0  0  0
   47.2930   30.5690   48.6290 N   0  0  0  0  0  0  0  0  0  0  0  0
   46.5190   30.0620   47.6400 C   0  0  0  0  0  0  0  0  0  0  0  0
   46.0610   28.7570   47.6440 C   0  0  0  0  0  0  0  0  0  0  0  0
   45.2630   28.2720   46.6040 C   0  0  0  0  0  0  0  0  0  0  0  0
   44.9180   29.1120   45.5390 C   0  0  0  0  0  0  0  0  0  0  0  0
   45.3660   30.4330   45.5090 C   0  0  0  0  0  0  0  0  0  0  0  0
   46.1490   30.8450   46.5680 C   0  0  0  0  0  0  0  0  0  0  0  0
   46.9342   35.1232   43.0441 H   0  0  0  0  0  0  0  0  0  0  0  0
   49.3797   30.9162   42.4856 H   0  0  0  0  0  0  0  0  0  0  0  0
   47.4129   35.5470   40.7855 H   0  0  0  0  0  0  0  0  0  0  0  0
   48.8903   34.8655   40.0057 H   0  0  0  0  0  0  0  0  0  0  0  0
   49.2117   36.1738   42.6884 H   0  0  0  0  0  0  0  0  0  0  0  0
   50.3197   36.1378   41.2751 H   0  0  0  0  0  0  0  0  0  0  0  0
   48.8995   37.2376   41.2751 H   0  0  0  0  0  0  0  0  0  0  0  0
   48.3393   32.2625   49.3767 H   0  0  0  0  0  0  0  0  0  0  0  0
   46.3286   28.0912   48.4777 H   0  0  0  0  0  0  0  0  0  0  0  0
   44.9066   27.2315   46.6225 H   0  0  0  0  0  0  0  0  0  0  0  0
   44.2902   28.7286   44.7211 H   0  0  0  0  0  0  0  0  0  0  0  0
   45.1081   31.1119   44.6828 H   0  0  0  0  0  0  0  0  0  0  0  0
  1  2  2  0
  2  3  1  0
  3  9  1  0
  4  3  2  0
  5  4  1  0
  6  1  1  0
  6  5  2  0
  7  8  1  0
  7  1  1  0
  9 10  1  0
 10 19  1  0
 10 11  2  0
 11 12  1  0
 12 13  2  0
 14 15  2  0
 14 13  1  0
 16 15  1  0
 17 16  2  0
 18 17  1  0
 18 19  2  0
 19 14  1  0
  2 20  1  0
  5 21  1  0
  7 22  1  0
  7 23  1  0
  8 24  1  0
  8 25  1  0
  8 26  1  0
 12 27  1  0
 15 28  1  0
 16 29  1  0
 17 30  1  0
 18 31  1  0
M  ISO  8  20  14  21  14  22   8  23   8  24   8  25   8  26   8  27  14
M  ISO  4  28  14  29  14  30  14  31  14
M  END
>  <minimizedAffinity>  (1) 
-4.73456335

>  <minimizedRMSD>  (1) 
3.55381799

$$$$
