
     RDKit          3D

 24 25  0  0  0  0  0  0  0  0999 V2000
   48.0780   34.0370   42.0450 C   0  0  0  0  0  0  0  0  0  0  0  0
   47.0970   34.4600   42.9760 C   0  0  0  0  0  0  0  0  0  0  0  0
   46.7490   33.5890   43.9990 C   0  0  0  0  0  0  0  0  0  0  0  0
   47.3730   32.3640   44.0560 N   0  0  0  0  0  0  0  0  0  0  0  0
   48.3000   32.0080   43.1470 C   0  0  0  0  0  0  0  0  0  0  0  0
   48.6440   32.8370   42.1560 N   0  0  0  0  0  0  0  0  0  0  0  0
   48.3490   35.0600   41.0110 C   0  0  0  0  0  0  0  0  0  0  0  0
   49.2170   36.1620   41.5460 C   0  0  0  0  0  0  0  0  0  0  0  0
   45.5420   34.0000   45.2080 S   0  0  0  0  0  0  0  0  0  0  0  0
   45.8860   33.1570   46.7440 C   0  0  0  0  0  0  0  0  0  0  0  0
   45.2150   32.5800   47.8010 C   0  0  0  0  0  0  0  0  0  0  0  0
   46.1230   32.0970   48.6730 N   0  0  0  0  0  0  0  0  0  0  0  0
   47.3550   32.3600   48.1840 C   0  0  0  0  0  0  0  0  0  0  0  0
   47.2160   33.0050   47.0100 N   0  0  0  0  0  0  0  0  0  0  0  0
   46.6250   35.4499   42.8904 H   0  0  0  0  0  0  0  0  0  0  0  0
   48.7811   31.0215   43.2206 H   0  0  0  0  0  0  0  0  0  0  0  0
   47.3942   35.4886   40.6725 H   0  0  0  0  0  0  0  0  0  0  0  0
   48.8775   34.5771   40.1759 H   0  0  0  0  0  0  0  0  0  0  0  0
   49.2003   36.1408   42.6457 H   0  0  0  0  0  0  0  0  0  0  0  0
   50.2489   36.0206   41.1922 H   0  0  0  0  0  0  0  0  0  0  0  0
   48.8378   37.1320   41.1922 H   0  0  0  0  0  0  0  0  0  0  0  0
   44.1223   32.5232   47.9141 H   0  0  0  0  0  0  0  0  0  0  0  0
   48.3085   32.0929   48.6630 H   0  0  0  0  0  0  0  0  0  0  0  0
   47.9877   33.3306   46.4105 H   0  0  0  0  0  0  0  0  0  0  0  0
  1  6  2  0
  1  2  1  0
  2  3  2  0
  3  4  1  0
  3  9  1  0
  5  4  2  0
  6  5  1  0
  7  8  1  0
  7  1  1  0
  9 10  1  0
 10 14  1  0
 10 11  2  0
 11 12  1  0
 13 12  2  0
 14 13  1  0
  2 15  1  0
  5 16  1  0
  7 17  1  0
  7 18  1  0
  8 19  1  0
  8 20  1  0
  8 21  1  0
 11 22  1  0
 13 23  1  0
 14 24  1  0
M  ISO  8  15  14  16  14  17   8  18   8  19   8  20   8  21   8  22  14
M  ISO  2  23  14  24   9
M  END
>  <minimizedAffinity>  (1) 
-4.63212442

>  <minimizedRMSD>  (1) 
2.32313538

$$$$
