
     RDKit          3D

 27 28  0  0  0  0  0  0  0  0999 V2000
   47.4880   34.3900   42.9640 C   0  0  0  0  0  0  0  0  0  0  0  0
   46.5350   34.9280   42.0720 C   0  0  0  0  0  0  0  0  0  0  0  0
   45.1890   34.7900   42.3920 C   0  0  0  0  0  0  0  0  0  0  0  0
   44.8570   34.1460   43.5440 N   0  0  0  0  0  0  0  0  0  0  0  0
   45.8000   33.6470   44.3690 C   0  0  0  0  0  0  0  0  0  0  0  0
   47.1010   33.7710   44.0760 N   0  0  0  0  0  0  0  0  0  0  0  0
   48.8790   34.6050   42.5050 C   0  0  0  0  0  0  0  0  0  0  0  0
   48.9500   35.7450   41.5080 C   0  0  0  0  0  0  0  0  0  0  0  0
   43.9280   35.4340   41.3310 S   0  0  0  0  0  0  0  0  0  0  0  0
   42.4620   34.4040   41.3700 C   0  0  0  0  0  0  0  0  0  0  0  0
   42.4000   33.0300   41.2630 C   0  0  0  0  0  0  0  0  0  0  0  0
   41.1700   32.4060   41.3160 C   0  0  0  0  0  0  0  0  0  0  0  0
   40.0010   33.1210   41.4720 C   0  0  0  0  0  0  0  0  0  0  0  0
   40.0690   34.5030   41.5780 C   0  0  0  0  0  0  0  0  0  0  0  0
   41.2960   35.1580   41.5290 C   0  0  0  0  0  0  0  0  0  0  0  0
   46.8482   35.4413   41.1509 H   0  0  0  0  0  0  0  0  0  0  0  0
   45.4972   33.1324   45.2929 H   0  0  0  0  0  0  0  0  0  0  0  0
   49.5113   34.8453   43.3724 H   0  0  0  0  0  0  0  0  0  0  0  0
   49.2329   33.6864   42.0141 H   0  0  0  0  0  0  0  0  0  0  0  0
   49.0096   36.7014   42.0482 H   0  0  0  0  0  0  0  0  0  0  0  0
   49.8424   35.6245   40.8762 H   0  0  0  0  0  0  0  0  0  0  0  0
   48.0496   35.7362   40.8762 H   0  0  0  0  0  0  0  0  0  0  0  0
   43.3193   32.4392   41.1370 H   0  0  0  0  0  0  0  0  0  0  0  0
   41.1209   31.3103   41.2317 H   0  0  0  0  0  0  0  0  0  0  0  0
   39.0307   32.6043   41.5117 H   0  0  0  0  0  0  0  0  0  0  0  0
   39.1446   35.0862   41.7019 H   0  0  0  0  0  0  0  0  0  0  0  0
   41.3474   36.2535   41.6142 H   0  0  0  0  0  0  0  0  0  0  0  0
  1  6  2  0
  2  3  2  0
  2  1  1  0
  3  4  1  0
  4  5  2  0
  6  5  1  0
  7  1  1  0
  8  7  1  0
  9 10  1  0
  9  3  1  0
 10 15  2  0
 11 12  2  0
 11 10  1  0
 12 13  1  0
 13 14  2  0
 15 14  1  0
  2 16  1  0
  5 17  1  0
  7 18  1  0
  7 19  1  0
  8 20  1  0
  8 21  1  0
  8 22  1  0
 11 23  1  0
 12 24  1  0
 13 25  1  0
 14 26  1  0
 15 27  1  0
M  ISO  8  16  14  17  14  18   8  19   8  20   8  21   8  22   8  23  14
M  ISO  4  24  14  25  14  26  14  27  14
M  END
>  <minimizedAffinity>  (1) 
-4.58206272

>  <minimizedRMSD>  (1) 
5.20370054

$$$$
