
     RDKit          3D

 31 32  0  0  1  0  0  0  0  0999 V2000
   48.0520   33.9670   42.1810 C   0  0  0  0  0  0  0  0  0  0  0  0
   47.1290   34.3120   43.1930 C   0  0  0  0  0  0  0  0  0  0  0  0
   46.8760   33.3780   44.1920 C   0  0  0  0  0  0  0  0  0  0  0  0
   47.5310   32.1730   44.1480 N   0  0  0  0  0  0  0  0  0  0  0  0
   48.4020   31.8920   43.1620 C   0  0  0  0  0  0  0  0  0  0  0  0
   48.6620   32.7710   42.1920 N   0  0  0  0  0  0  0  0  0  0  0  0
   48.2310   35.0470   41.1800 C   0  0  0  0  0  0  0  0  0  0  0  0
   49.2420   36.0690   41.6770 C   0  0  0  0  0  0  0  0  0  0  0  0
   45.7430   33.7060   45.5010 S   0  0  0  0  0  0  0  0  0  0  0  0
   45.9080   32.4810   46.8320 C   0  0  2  0  0  0  0  0  0  0  0  0
   47.2940   32.6090   47.4700 C   0  0  0  0  0  0  0  0  0  0  0  0
   47.2200   31.7290   48.6940 C   0  0  0  0  0  0  0  0  0  0  0  0
   46.9270   30.2960   48.3690 C   0  0  0  0  0  0  0  0  0  0  0  0
   46.5490   30.0290   46.9570 C   0  0  0  0  0  0  0  0  0  0  0  0
   45.8760   31.1260   46.2070 C   0  0  0  0  0  0  0  0  0  0  0  0
   46.6254   35.2900   43.1911 H   0  0  0  0  0  0  0  0  0  0  0  0
   48.9108   30.9168   43.1551 H   0  0  0  0  0  0  0  0  0  0  0  0
   47.2657   35.5459   41.0087 H   0  0  0  0  0  0  0  0  0  0  0  0
   48.6007   34.6065   40.2423 H   0  0  0  0  0  0  0  0  0  0  0  0
   49.2474   36.0745   42.7770 H   0  0  0  0  0  0  0  0  0  0  0  0
   50.2434   35.8042   41.3067 H   0  0  0  0  0  0  0  0  0  0  0  0
   48.9664   37.0675   41.3067 H   0  0  0  0  0  0  0  0  0  0  0  0
   45.1088   32.6320   47.5726 H   0  0  0  0  0  0  0  0  0  0  0  0
   48.0749   32.2546   46.7812 H   0  0  0  0  0  0  0  0  0  0  0  0
   47.5512   33.6502   47.7142 H   0  0  0  0  0  0  0  0  0  0  0  0
   48.1847   31.7788   49.2201 H   0  0  0  0  0  0  0  0  0  0  0  0
   46.3927   32.1006   49.3164 H   0  0  0  0  0  0  0  0  0  0  0  0
   47.8262   29.7051   48.5975 H   0  0  0  0  0  0  0  0  0  0  0  0
   46.0518   30.0197   48.9754 H   0  0  0  0  0  0  0  0  0  0  0  0
   46.7582   29.0583   46.4836 H   0  0  0  0  0  0  0  0  0  0  0  0
   45.3805   30.9466   45.2414 H   0  0  0  0  0  0  0  0  0  0  0  0
  1  6  2  0
  1  2  1  0
  2  3  2  0
  3  9  1  0
  4  3  1  0
  5  4  2  0
  6  5  1  0
  7  8  1  0
  7  1  1  0
 10  9  1  0
 10 11  1  0
 11 12  1  0
 13 12  1  0
 14 13  1  0
 15 10  1  0
 15 14  2  0
  2 16  1  0
  5 17  1  0
  7 18  1  0
  7 19  1  0
  8 20  1  0
  8 21  1  0
  8 22  1  0
 10 23  1  1
 11 24  1  0
 11 25  1  0
 12 26  1  0
 12 27  1  0
 13 28  1  0
 13 29  1  0
 14 30  1  0
 15 31  1  0
M  ISO  8  16  14  17  14  18   8  19   8  20   8  21   8  22   8  23  13
M  ISO  8  24  13  25  13  26  13  27  13  28  13  29  13  30  13  31  13
M  END
>  <minimizedAffinity>  (1) 
-4.24432611

>  <minimizedRMSD>  (1) 
2.80979538

$$$$
