
     RDKit          3D

 27 28  0  0  0  0  0  0  0  0999 V2000
   47.0650   34.8760   42.6140 C   0  0  0  0  0  0  0  0  0  0  0  0
   47.1640   33.5540   43.1080 C   0  0  0  0  0  0  0  0  0  0  0  0
   46.0910   33.0590   43.8620 C   0  0  0  0  0  0  0  0  0  0  0  0
   45.0040   33.8730   44.0850 N   0  0  0  0  0  0  0  0  0  0  0  0
   44.9760   35.1350   43.5780 C   0  0  0  0  0  0  0  0  0  0  0  0
   45.9930   35.6260   42.8550 N   0  0  0  0  0  0  0  0  0  0  0  0
   48.2540   35.2700   41.8440 C   0  0  0  0  0  0  0  0  0  0  0  0
   48.2030   34.7470   40.4360 C   0  0  0  0  0  0  0  0  0  0  0  0
   46.0930   31.4360   44.5300 S   0  0  0  0  0  0  0  0  0  0  0  0
   46.9060   31.4130   46.1160 C   0  0  0  0  0  0  0  0  0  0  0  0
   47.5610   30.2510   46.4920 C   0  0  0  0  0  0  0  0  0  0  0  0
   48.1860   30.2360   47.7140 C   0  0  0  0  0  0  0  0  0  0  0  0
   48.1640   31.3270   48.5310 C   0  0  0  0  0  0  0  0  0  0  0  0
   47.5040   32.4910   48.1460 C   0  0  0  0  0  0  0  0  0  0  0  0
   46.8650   32.5390   46.9250 C   0  0  0  0  0  0  0  0  0  0  0  0
   48.0518   32.9363   42.9074 H   0  0  0  0  0  0  0  0  0  0  0  0
   44.0968   35.7688   43.7659 H   0  0  0  0  0  0  0  0  0  0  0  0
   48.3118   36.3681   41.8145 H   0  0  0  0  0  0  0  0  0  0  0  0
   49.1392   34.8417   42.3370 H   0  0  0  0  0  0  0  0  0  0  0  0
   48.0963   33.6524   40.4551 H   0  0  0  0  0  0  0  0  0  0  0  0
   47.3438   35.1901   39.9112 H   0  0  0  0  0  0  0  0  0  0  0  0
   49.1316   35.0158   39.9112 H   0  0  0  0  0  0  0  0  0  0  0  0
   47.5794   29.3703   45.8333 H   0  0  0  0  0  0  0  0  0  0  0  0
   48.7139   29.3276   48.0398 H   0  0  0  0  0  0  0  0  0  0  0  0
   48.6733   31.2874   49.5052 H   0  0  0  0  0  0  0  0  0  0  0  0
   47.4924   33.3667   48.8116 H   0  0  0  0  0  0  0  0  0  0  0  0
   46.3361   33.4473   46.6007 H   0  0  0  0  0  0  0  0  0  0  0  0
  1  6  2  0
  1  2  1  0
  2  3  2  0
  3  4  1  0
  3  9  1  0
  5  4  2  0
  6  5  1  0
  7  1  1  0
  8  7  1  0
  9 10  1  0
 10 11  2  0
 10 15  1  0
 11 12  1  0
 12 13  2  0
 14 13  1  0
 15 14  2  0
  2 16  1  0
  5 17  1  0
  7 18  1  0
  7 19  1  0
  8 20  1  0
  8 21  1  0
  8 22  1  0
 11 23  1  0
 12 24  1  0
 13 25  1  0
 14 26  1  0
 15 27  1  0
M  ISO  8  16  14  17  14  18   8  19   8  20   8  21   8  22   8  23  14
M  ISO  4  24  14  25  14  26  14  27  14
M  END
>  <minimizedAffinity>  (1) 
-4.26193857

>  <minimizedRMSD>  (1) 
4.89281082

$$$$
