
     RDKit          3D

 24 25  0  0  0  0  0  0  0  0999 V2000
   47.0690   34.8790   42.0690 C   0  0  0  0  0  0  0  0  0  0  0  0
   46.9060   34.1410   40.8660 C   0  0  0  0  0  0  0  0  0  0  0  0
   45.6160   33.9050   40.4380 C   0  0  0  0  0  0  0  0  0  0  0  0
   44.5660   34.3760   41.1670 N   0  0  0  0  0  0  0  0  0  0  0  0
   44.7840   35.0730   42.3060 C   0  0  0  0  0  0  0  0  0  0  0  0
   46.0000   35.3230   42.7510 N   0  0  0  0  0  0  0  0  0  0  0  0
   48.4980   35.0800   42.4420 C   0  0  0  0  0  0  0  0  0  0  0  0
   49.1620   36.0440   41.4910 C   0  0  0  0  0  0  0  0  0  0  0  0
   45.3240   32.9910   38.9460 S   0  0  0  0  0  0  0  0  0  0  0  0
   46.9200   33.3360   37.8550 C   0  0  0  0  0  0  0  0  0  0  0  0
   48.0540   34.2610   37.2920 C   0  0  0  0  0  0  0  0  0  0  0  0
   48.7210   33.3880   36.5190 C   0  0  0  0  0  0  0  0  0  0  0  0
   48.5870   32.0280   36.1930 C   0  0  0  0  0  0  0  0  0  0  0  0
   47.1160   31.5510   37.1500 S   0  0  0  0  0  0  0  0  0  0  0  0
   47.7735   33.7726   40.2987 H   0  0  0  0  0  0  0  0  0  0  0  0
   43.9204   35.4425   42.8784 H   0  0  0  0  0  0  0  0  0  0  0  0
   48.5520   35.4844   43.4635 H   0  0  0  0  0  0  0  0  0  0  0  0
   49.0188   34.1126   42.3889 H   0  0  0  0  0  0  0  0  0  0  0  0
   49.6944   36.8169   42.0647 H   0  0  0  0  0  0  0  0  0  0  0  0
   49.8776   35.4996   40.8573 H   0  0  0  0  0  0  0  0  0  0  0  0
   48.3983   36.5186   40.8573 H   0  0  0  0  0  0  0  0  0  0  0  0
   48.2490   35.3275   37.4781 H   0  0  0  0  0  0  0  0  0  0  0  0
   49.5838   33.8517   36.0185 H   0  0  0  0  0  0  0  0  0  0  0  0
   49.2110   31.4108   35.5299 H   0  0  0  0  0  0  0  0  0  0  0  0
  1  7  1  0
  1  6  2  0
  2  1  1  0
  3  2  2  0
  3  4  1  0
  4  5  2  0
  5  6  1  0
  8  7  1  0
  9  3  1  0
 10  9  1  0
 11 10  2  0
 12 11  1  0
 13 12  2  0
 13 14  1  0
 14 10  1  0
  2 15  1  0
  5 16  1  0
  7 17  1  0
  7 18  1  0
  8 19  1  0
  8 20  1  0
  8 21  1  0
 11 22  1  0
 12 23  1  0
 13 24  1  0
M  ISO  8  15  14  16  14  17   8  18   8  19   8  20   8  21   8  22  14
M  ISO  2  23  14  24  14
M  END
>  <minimizedAffinity>  (1) 
-3.83423877

>  <minimizedRMSD>  (1) 
6.87913609

$$$$
