
     RDKit          3D

 22 23  0  0  0  0  0  0  0  0999 V2000
   46.5500   34.9580   42.1260 C   0  0  0  0  0  0  0  0  0  0  0  0
   46.0660   34.2200   41.0230 C   0  0  0  0  0  0  0  0  0  0  0  0
   44.7160   34.2640   40.7180 C   0  0  0  0  0  0  0  0  0  0  0  0
   43.9060   35.0340   41.5180 N   0  0  0  0  0  0  0  0  0  0  0  0
   44.4030   35.7220   42.5600 C   0  0  0  0  0  0  0  0  0  0  0  0
   45.7080   35.6830   42.8580 N   0  0  0  0  0  0  0  0  0  0  0  0
   48.0070   34.8110   42.3220 C   0  0  0  0  0  0  0  0  0  0  0  0
   48.7780   35.5850   41.2730 C   0  0  0  0  0  0  0  0  0  0  0  0
   44.0310   33.3740   39.3580 S   0  0  0  0  0  0  0  0  0  0  0  0
   42.5730   34.2310   38.7190 C   0  0  0  0  0  0  0  0  0  0  0  0
   42.2620   35.4780   38.2930 N   0  0  0  0  0  0  0  0  0  0  0  0
   41.0260   35.4830   37.9470 O   0  0  0  0  0  0  0  0  0  0  0  0
   40.4940   34.2800   38.1250 C   0  0  0  0  0  0  0  0  0  0  0  0
   41.4560   33.4700   38.6130 N   0  0  0  0  0  0  0  0  0  0  0  0
   46.7543   33.6167   40.4128 H   0  0  0  0  0  0  0  0  0  0  0  0
   43.7255   36.3282   43.1794 H   0  0  0  0  0  0  0  0  0  0  0  0
   48.2757   35.1908   43.3188 H   0  0  0  0  0  0  0  0  0  0  0  0
   48.2664   33.7458   42.2319 H   0  0  0  0  0  0  0  0  0  0  0  0
   49.4716   36.2813   41.7671 H   0  0  0  0  0  0  0  0  0  0  0  0
   49.3475   34.8841   40.6450 H   0  0  0  0  0  0  0  0  0  0  0  0
   48.0749   36.1518   40.6450 H   0  0  0  0  0  0  0  0  0  0  0  0
   39.4533   33.9943   37.9123 H   0  0  0  0  0  0  0  0  0  0  0  0
  1  7  1  0
  1  6  2  0
  2  1  1  0
  3  2  2  0
  3  4  1  0
  4  5  2  0
  5  6  1  0
  8  7  1  0
  9  3  1  0
 10  9  1  0
 11 10  2  0
 12 13  1  0
 12 11  1  0
 13 14  2  0
 14 10  1  0
  2 15  1  0
  5 16  1  0
  7 17  1  0
  7 18  1  0
  8 19  1  0
  8 20  1  0
  8 21  1  0
 13 22  1  0
M  ISO  8  15  14  16  14  17   8  18   8  19   8  20   8  21   8  22  14
M  END
>  <minimizedAffinity>  (1) 
-4.14457655

>  <minimizedRMSD>  (1) 
6.26708317

$$$$
