
     RDKit          3D

 20 20  0  0  0  0  0  0  0  0999 V2000
   45.9390   34.7520   41.7580 C   0  0  0  0  0  0  0  0  0  0  0  0
   44.8610   34.5470   40.8720 C   0  0  0  0  0  0  0  0  0  0  0  0
   43.5840   34.9050   41.2990 C   0  0  0  0  0  0  0  0  0  0  0  0
   43.4380   35.4400   42.5610 N   0  0  0  0  0  0  0  0  0  0  0  0
   44.5080   35.6080   43.3550 C   0  0  0  0  0  0  0  0  0  0  0  0
   45.7260   35.2770   42.9690 N   0  0  0  0  0  0  0  0  0  0  0  0
   47.2300   34.3280   41.1800 C   0  0  0  0  0  0  0  0  0  0  0  0
   48.3200   35.3110   41.4950 C   0  0  0  0  0  0  0  0  0  0  0  0
   42.1650   34.6830   40.2840 S   0  0  0  0  0  0  0  0  0  0  0  0
   40.6520   35.3970   40.9460 C   0  0  0  0  0  0  0  0  0  0  0  0
   40.2870   34.7360   42.1020 F   0  0  0  0  0  0  0  0  0  0  0  0
   40.7890   36.7380   41.2770 F   0  0  0  0  0  0  0  0  0  0  0  0
   39.6580   35.2200   39.9920 F   0  0  0  0  0  0  0  0  0  0  0  0
   45.0237   34.1169   39.8727 H   0  0  0  0  0  0  0  0  0  0  0  0
   44.3648   36.0349   44.3586 H   0  0  0  0  0  0  0  0  0  0  0  0
   47.1244   34.2484   40.0880 H   0  0  0  0  0  0  0  0  0  0  0  0
   47.5029   33.3563   41.6175 H   0  0  0  0  0  0  0  0  0  0  0  0
   48.4246   35.4054   42.5859 H   0  0  0  0  0  0  0  0  0  0  0  0
   49.2685   34.9570   41.0649 H   0  0  0  0  0  0  0  0  0  0  0  0
   48.0655   36.2909   41.0649 H   0  0  0  0  0  0  0  0  0  0  0  0
  1  6  2  0
  2  3  2  0
  2  1  1  0
  3  4  1  0
  4  5  2  0
  6  5  1  0
  7  8  1  0
  7  1  1  0
  9 10  1  0
  9  3  1  0
 10 12  1  0
 10 11  1  0
 13 10  1  0
  2 14  1  0
  5 15  1  0
  7 16  1  0
  7 17  1  0
  8 18  1  0
  8 19  1  0
  8 20  1  0
M  ISO  7  14  14  15  14  16   8  17   8  18   8  19   8  20   8
M  END
>  <minimizedAffinity>  (1) 
-4.1562562

>  <minimizedRMSD>  (1) 
4.62844372

$$$$
