
     RDKit          3D

 25 26  0  0  0  0  0  0  0  0999 V2000
   49.7160   32.7200   42.3530 C   0  0  0  0  0  0  0  0  0  0  0  0
   48.3280   33.0280   42.4360 C   0  0  0  0  0  0  0  0  0  0  0  0
   47.4270   31.9620   42.3570 C   0  0  0  0  0  0  0  0  0  0  0  0
   47.9160   30.6850   42.2040 N   0  0  0  0  0  0  0  0  0  0  0  0
   49.2360   30.4660   42.1330 C   0  0  0  0  0  0  0  0  0  0  0  0
   50.1140   31.4600   42.2050 N   0  0  0  0  0  0  0  0  0  0  0  0
   50.5740   33.9110   42.4460 C   0  0  0  0  0  0  0  0  0  0  0  0
   49.7370   35.1820   42.4290 C   0  0  0  0  0  0  0  0  0  0  0  0
   45.6870   32.2650   42.4530 S   0  0  0  0  0  0  0  0  0  0  0  0
   45.3230   33.8460   43.1940 C   0  0  0  0  0  0  0  0  0  0  0  0
   45.1990   33.8820   44.5730 C   0  0  0  0  0  0  0  0  0  0  0  0
   44.9170   35.0920   45.1760 C   0  0  0  0  0  0  0  0  0  0  0  0
   44.7570   36.2500   44.4680 N   0  0  0  0  0  0  0  0  0  0  0  0
   44.8880   36.1620   43.1360 C   0  0  0  0  0  0  0  0  0  0  0  0
   45.1620   35.0060   42.4910 N   0  0  0  0  0  0  0  0  0  0  0  0
   47.9786   34.0639   42.5575 H   0  0  0  0  0  0  0  0  0  0  0  0
   49.6021   29.4358   42.0119 H   0  0  0  0  0  0  0  0  0  0  0  0
   51.1482   33.8697   43.3834 H   0  0  0  0  0  0  0  0  0  0  0  0
   51.2537   33.9246   41.5813 H   0  0  0  0  0  0  0  0  0  0  0  0
   49.5290   35.4979   43.4619 H   0  0  0  0  0  0  0  0  0  0  0  0
   50.2886   35.9773   41.9064 H   0  0  0  0  0  0  0  0  0  0  0  0
   48.7884   34.9894   41.9064 H   0  0  0  0  0  0  0  0  0  0  0  0
   45.3222   32.9687   45.1735 H   0  0  0  0  0  0  0  0  0  0  0  0
   44.8171   35.1251   46.2710 H   0  0  0  0  0  0  0  0  0  0  0  0
   44.7663   37.0772   42.5380 H   0  0  0  0  0  0  0  0  0  0  0  0
  1  2  2  0
  1  7  1  0
  3  2  1  0
  3  9  1  0
  4  3  2  0
  5  4  1  0
  5  6  2  0
  6  1  1  0
  8  7  1  0
  9 10  1  0
 10 11  2  0
 11 12  1  0
 13 12  2  0
 14 13  1  0
 15 14  2  0
 15 10  1  0
  2 16  1  0
  5 17  1  0
  7 18  1  0
  7 19  1  0
  8 20  1  0
  8 21  1  0
  8 22  1  0
 11 23  1  0
 12 24  1  0
 14 25  1  0
M  ISO  8  16  14  17  14  18   8  19   8  20   8  21   8  22   8  23  14
M  ISO  2  24  14  25  14
M  END
>  <minimizedAffinity>  (1) 
-3.7566483

>  <minimizedRMSD>  (1) 
3.61435151

$$$$
