
     RDKit          3D

 33 35  0  0  0  0  0  0  0  0999 V2000
   46.0920   34.6710   43.3030 C   0  0  0  0  0  0  0  0  0  0  0  0
   46.3670   33.7340   44.3230 C   0  0  0  0  0  0  0  0  0  0  0  0
   45.7020   33.8750   45.5270 C   0  0  0  0  0  0  0  0  0  0  0  0
   44.8140   34.9140   45.6630 N   0  0  0  0  0  0  0  0  0  0  0  0
   44.5900   35.7780   44.6600 C   0  0  0  0  0  0  0  0  0  0  0  0
   45.2180   35.6600   43.4950 N   0  0  0  0  0  0  0  0  0  0  0  0
   46.8810   34.3910   42.0670 C   0  0  0  0  0  0  0  0  0  0  0  0
   48.0650   35.3230   41.9650 C   0  0  0  0  0  0  0  0  0  0  0  0
   45.9540   32.7810   46.8710 S   0  0  0  0  0  0  0  0  0  0  0  0
   45.9980   31.0640   46.3830 C   0  0  0  0  0  0  0  0  0  0  0  0
   46.6820   30.2650   45.4560 C   0  0  0  0  0  0  0  0  0  0  0  0
   46.1970   28.9960   45.6410 C   0  0  0  0  0  0  0  0  0  0  0  0
   45.2660   29.0020   46.6250 N   0  0  0  0  0  0  0  0  0  0  0  0
   45.1500   30.2580   47.0710 N   0  0  0  0  0  0  0  0  0  0  0  0
   44.5610   27.8470   47.0720 C   0  0  0  0  0  0  0  0  0  0  0  0
   43.5890   27.3810   46.1910 C   0  0  0  0  0  0  0  0  0  0  0  0
   42.8580   26.2570   46.5560 C   0  0  0  0  0  0  0  0  0  0  0  0
   43.0950   25.6250   47.7630 C   0  0  0  0  0  0  0  0  0  0  0  0
   44.0820   26.1300   48.6150 C   0  0  0  0  0  0  0  0  0  0  0  0
   44.7970   27.2290   48.2560 N   0  0  0  0  0  0  0  0  0  0  0  0
   47.0874   32.9179   44.1647 H   0  0  0  0  0  0  0  0  0  0  0  0
   43.8728   36.5993   44.8055 H   0  0  0  0  0  0  0  0  0  0  0  0
   47.2411   33.3520   42.0965 H   0  0  0  0  0  0  0  0  0  0  0  0
   46.2330   34.5465   41.1918 H   0  0  0  0  0  0  0  0  0  0  0  0
   48.4075   35.5926   42.9750 H   0  0  0  0  0  0  0  0  0  0  0  0
   48.8805   34.8219   41.4229 H   0  0  0  0  0  0  0  0  0  0  0  0
   47.7694   36.2333   41.4229 H   0  0  0  0  0  0  0  0  0  0  0  0
   47.4459   30.5878   44.7334 H   0  0  0  0  0  0  0  0  0  0  0  0
   46.5156   28.1076   45.0760 H   0  0  0  0  0  0  0  0  0  0  0  0
   43.4048   27.8884   45.2326 H   0  0  0  0  0  0  0  0  0  0  0  0
   42.0840   25.8665   45.8789 H   0  0  0  0  0  0  0  0  0  0  0  0
   42.5141   24.7358   48.0493 H   0  0  0  0  0  0  0  0  0  0  0  0
   44.2804   25.6368   49.5780 H   0  0  0  0  0  0  0  0  0  0  0  0
  1  6  2  0
  1  2  1  0
  2  3  2  0
  3  4  1  0
  3  9  1  0
  5  4  2  0
  6  5  1  0
  7  1  1  0
  8  7  1  0
 10  9  1  0
 10 14  2  0
 11 12  2  0
 11 10  1  0
 12 13  1  0
 13 14  1  0
 13 15  1  0
 15 20  2  0
 16 17  2  0
 16 15  1  0
 17 18  1  0
 18 19  2  0
 20 19  1  0
  2 21  1  0
  5 22  1  0
  7 23  1  0
  7 24  1  0
  8 25  1  0
  8 26  1  0
  8 27  1  0
 11 28  1  0
 12 29  1  0
 16 30  1  0
 17 31  1  0
 18 32  1  0
 19 33  1  0
M  ISO  8  21  14  22  14  23   8  24   8  25   8  26   8  27   8  28  14
M  ISO  5  29  14  30  14  31  14  32  14  33  14
M  END
>  <minimizedAffinity>  (1) 
-5.19279337

>  <minimizedRMSD>  (1) 
2.07237434

$$$$
