
     RDKit          3D

 34 36  0  0  0  0  0  0  0  0999 V2000
   46.5300   31.9510   44.8780 S   0  0  0  0  0  0  0  0  0  0  0  0
   44.6450   35.1900   43.3510 C   0  0  0  0  0  0  0  0  0  0  0  0
   45.3410   33.9750   43.4280 C   0  0  0  0  0  0  0  0  0  0  0  0
   45.6630   33.4600   44.6710 C   0  0  0  0  0  0  0  0  0  0  0  0
   45.2820   34.1720   45.7800 N   0  0  0  0  0  0  0  0  0  0  0  0
   44.6140   35.3380   45.6600 C   0  0  0  0  0  0  0  0  0  0  0  0
   44.3030   35.8360   44.4660 N   0  0  0  0  0  0  0  0  0  0  0  0
   44.3800   35.6000   41.9460 C   0  0  0  0  0  0  0  0  0  0  0  0
   44.5940   34.4430   40.9970 C   0  0  0  0  0  0  0  0  0  0  0  0
   45.9630   31.0130   46.2820 C   0  0  0  0  0  0  0  0  0  0  0  0
   45.8850   31.1350   47.6790 C   0  0  0  0  0  0  0  0  0  0  0  0
   45.3030   29.9630   48.1140 C   0  0  0  0  0  0  0  0  0  0  0  0
   45.0370   29.1700   47.0570 N   0  0  0  0  0  0  0  0  0  0  0  0
   45.4330   29.8000   45.9630 N   0  0  0  0  0  0  0  0  0  0  0  0
   44.4310   27.8910   47.2120 C   0  0  0  0  0  0  0  0  0  0  0  0
   44.6680   27.1000   48.2910 C   0  0  0  0  0  0  0  0  0  0  0  0
   44.0330   25.8600   48.3650 C   0  0  0  0  0  0  0  0  0  0  0  0
   43.1770   25.4510   47.3490 C   0  0  0  0  0  0  0  0  0  0  0  0
   42.9500   26.2640   46.2670 C   0  0  0  0  0  0  0  0  0  0  0  0
   43.5820   27.4890   46.2010 C   0  0  0  0  0  0  0  0  0  0  0  0
   45.6273   33.4382   42.5116 H   0  0  0  0  0  0  0  0  0  0  0  0
   44.3208   35.8875   46.5667 H   0  0  0  0  0  0  0  0  0  0  0  0
   43.3395   35.9468   41.8622 H   0  0  0  0  0  0  0  0  0  0  0  0
   45.0770   36.4078   41.6782 H   0  0  0  0  0  0  0  0  0  0  0  0
   44.7643   33.5221   41.5741 H   0  0  0  0  0  0  0  0  0  0  0  0
   43.7035   34.3191   40.3632 H   0  0  0  0  0  0  0  0  0  0  0  0
   45.4699   34.6458   40.3632 H   0  0  0  0  0  0  0  0  0  0  0  0
   46.2172   31.9840   48.2946 H   0  0  0  0  0  0  0  0  0  0  0  0
   45.0885   29.7133   49.1636 H   0  0  0  0  0  0  0  0  0  0  0  0
   45.3472   27.4308   49.0905 H   0  0  0  0  0  0  0  0  0  0  0  0
   44.2102   25.2039   49.2300 H   0  0  0  0  0  0  0  0  0  0  0  0
   42.6797   24.4719   47.4126 H   0  0  0  0  0  0  0  0  0  0  0  0
   42.2725   25.9431   45.4620 H   0  0  0  0  0  0  0  0  0  0  0  0
   43.4081   28.1485   45.3380 H   0  0  0  0  0  0  0  0  0  0  0  0
  1 10  1  0
  2  3  2  0
  2  7  1  0
  3  4  1  0
  4  1  1  0
  4  5  2  0
  6  5  1  0
  7  6  2  0
  8  2  1  0
  9  8  1  0
 10 11  1  0
 11 12  2  0
 13 15  1  0
 13 12  1  0
 14 10  2  0
 14 13  1  0
 15 16  2  0
 16 17  1  0
 18 17  2  0
 19 18  1  0
 20 19  2  0
 20 15  1  0
  3 21  1  0
  6 22  1  0
  8 23  1  0
  8 24  1  0
  9 25  1  0
  9 26  1  0
  9 27  1  0
 11 28  1  0
 12 29  1  0
 16 30  1  0
 17 31  1  0
 18 32  1  0
 19 33  1  0
 20 34  1  0
M  ISO  8  21  14  22  14  23   8  24   8  25   8  26   8  27   8  28  14
M  ISO  6  29  14  30  14  31  14  32  14  33  14  34  14
M  END
>  <minimizedAffinity>  (1) 
-5.09364939

>  <minimizedRMSD>  (1) 
2.42703152

$$$$
