
     RDKit          3D

 32 34  0  0  0  0  0  0  0  0999 V2000
   47.2360   34.7220   42.7120 C   0  0  0  0  0  0  0  0  0  0  0  0
   47.7430   33.5140   43.2420 C   0  0  0  0  0  0  0  0  0  0  0  0
   46.9590   32.8010   44.1280 C   0  0  0  0  0  0  0  0  0  0  0  0
   45.7310   33.3090   44.4440 N   0  0  0  0  0  0  0  0  0  0  0  0
   45.2820   34.4600   43.9210 C   0  0  0  0  0  0  0  0  0  0  0  0
   46.0270   35.1630   43.0620 N   0  0  0  0  0  0  0  0  0  0  0  0
   48.1900   35.3720   41.7760 C   0  0  0  0  0  0  0  0  0  0  0  0
   49.5920   35.2140   42.2660 C   0  0  0  0  0  0  0  0  0  0  0  0
   47.4790   31.2920   44.8510 S   0  0  0  0  0  0  0  0  0  0  0  0
   46.3490   30.7160   46.1150 C   0  0  0  0  0  0  0  0  0  0  0  0
   45.7420   31.1670   47.2840 C   0  0  0  0  0  0  0  0  0  0  0  0
   44.9740   30.1070   47.7280 C   0  0  0  0  0  0  0  0  0  0  0  0
   45.1050   29.0710   46.8810 N   0  0  0  0  0  0  0  0  0  0  0  0
   45.9260   29.4370   45.9160 N   0  0  0  0  0  0  0  0  0  0  0  0
   44.4070   27.8560   47.1230 C   0  0  0  0  0  0  0  0  0  0  0  0
   43.5060   27.3190   46.2390 C   0  0  0  0  0  0  0  0  0  0  0  0
   42.9070   26.1220   46.6270 C   0  0  0  0  0  0  0  0  0  0  0  0
   43.1900   25.5130   47.8050 N   0  0  0  0  0  0  0  0  0  0  0  0
   44.0860   26.1070   48.6130 C   0  0  0  0  0  0  0  0  0  0  0  0
   44.7050   27.2600   48.3100 N   0  0  0  0  0  0  0  0  0  0  0  0
   48.7404   33.1494   42.9552 H   0  0  0  0  0  0  0  0  0  0  0  0
   44.2856   34.8309   44.2033 H   0  0  0  0  0  0  0  0  0  0  0  0
   47.9510   36.4431   41.7013 H   0  0  0  0  0  0  0  0  0  0  0  0
   48.1018   34.8944   40.7890 H   0  0  0  0  0  0  0  0  0  0  0  0
   49.5981   35.2133   43.3660 H   0  0  0  0  0  0  0  0  0  0  0  0
   50.0047   34.2637   41.8965 H   0  0  0  0  0  0  0  0  0  0  0  0
   50.2058   36.0487   41.8965 H   0  0  0  0  0  0  0  0  0  0  0  0
   45.8504   32.1557   47.7539 H   0  0  0  0  0  0  0  0  0  0  0  0
   44.3514   30.1105   48.6348 H   0  0  0  0  0  0  0  0  0  0  0  0
   43.2702   27.8045   45.2805 H   0  0  0  0  0  0  0  0  0  0  0  0
   42.1764   25.6531   45.9515 H   0  0  0  0  0  0  0  0  0  0  0  0
   44.3244   25.6236   49.5719 H   0  0  0  0  0  0  0  0  0  0  0  0
  1  6  2  0
  1  2  1  0
  2  3  2  0
  3  4  1  0
  3  9  1  0
  5  4  2  0
  6  5  1  0
  7  8  1  0
  7  1  1  0
  9 10  1  0
 10 11  1  0
 11 12  2  0
 13 15  1  0
 13 12  1  0
 14 10  2  0
 14 13  1  0
 15 20  2  0
 16 17  2  0
 16 15  1  0
 17 18  1  0
 18 19  2  0
 20 19  1  0
  2 21  1  0
  5 22  1  0
  7 23  1  0
  7 24  1  0
  8 25  1  0
  8 26  1  0
  8 27  1  0
 11 28  1  0
 12 29  1  0
 16 30  1  0
 17 31  1  0
 19 32  1  0
M  ISO  8  21  14  22  14  23   8  24   8  25   8  26   8  27   8  28  14
M  ISO  4  29  14  30  14  31  14  32  14
M  END
>  <minimizedAffinity>  (1) 
-4.73469782

>  <minimizedRMSD>  (1) 
1.57733929

$$$$
