
     RDKit          3D

 35 38  0  0  0  0  0  0  0  0999 V2000
   46.1790   30.4540   45.8000 C   0  0  0  0  0  0  0  0  0  0  0  0
   45.7120   30.8050   47.0580 C   0  0  0  0  0  0  0  0  0  0  0  0
   44.8150   29.8170   47.4160 C   0  0  0  0  0  0  0  0  0  0  0  0
   44.7410   28.9090   46.4240 N   0  0  0  0  0  0  0  0  0  0  0  0
   45.5560   29.2910   45.4610 N   0  0  0  0  0  0  0  0  0  0  0  0
   40.7760   27.1210   44.9980 N   0  0  0  0  0  0  0  0  0  0  0  0
   40.9980   28.3470   44.4790 C   0  0  0  0  0  0  0  0  0  0  0  0
   42.1800   28.7650   44.9650 N   0  0  0  0  0  0  0  0  0  0  0  0
   42.7160   27.8310   45.7840 C   0  0  0  0  0  0  0  0  0  0  0  0
   43.8900   27.7730   46.5180 C   0  0  0  0  0  0  0  0  0  0  0  0
   44.1310   26.6560   47.2580 N   0  0  0  0  0  0  0  0  0  0  0  0
   43.2570   25.6410   47.2740 C   0  0  0  0  0  0  0  0  0  0  0  0
   42.1160   25.6940   46.5610 N   0  0  0  0  0  0  0  0  0  0  0  0
   41.8140   26.7860   45.7990 C   0  0  0  0  0  0  0  0  0  0  0  0
   47.3130   31.0520   44.5570 S   0  0  0  0  0  0  0  0  0  0  0  0
   47.2500   34.6430   42.6730 C   0  0  0  0  0  0  0  0  0  0  0  0
   47.6850   33.3840   43.1150 C   0  0  0  0  0  0  0  0  0  0  0  0
   46.8750   32.6320   43.9450 C   0  0  0  0  0  0  0  0  0  0  0  0
   45.6700   33.1680   44.2960 N   0  0  0  0  0  0  0  0  0  0  0  0
   45.2730   34.3820   43.8590 C   0  0  0  0  0  0  0  0  0  0  0  0
   46.0620   35.1080   43.0540 N   0  0  0  0  0  0  0  0  0  0  0  0
   48.2350   35.3140   41.7950 C   0  0  0  0  0  0  0  0  0  0  0  0
   49.6330   35.1600   42.3400 C   0  0  0  0  0  0  0  0  0  0  0  0
   45.9970   31.6880   47.6489 H   0  0  0  0  0  0  0  0  0  0  0  0
   44.2516   29.7782   48.3599 H   0  0  0  0  0  0  0  0  0  0  0  0
   39.9494   26.5347   44.8140 H   0  0  0  0  0  0  0  0  0  0  0  0
   40.3393   28.8977   43.7914 H   0  0  0  0  0  0  0  0  0  0  0  0
   43.4751   24.7492   47.8798 H   0  0  0  0  0  0  0  0  0  0  0  0
   48.6662   32.9974   42.8023 H   0  0  0  0  0  0  0  0  0  0  0  0
   44.2941   34.7789   44.1659 H   0  0  0  0  0  0  0  0  0  0  0  0
   47.9895   36.3843   41.7299 H   0  0  0  0  0  0  0  0  0  0  0  0
   48.1925   34.8494   40.7989 H   0  0  0  0  0  0  0  0  0  0  0  0
   49.6004   35.1636   43.4395 H   0  0  0  0  0  0  0  0  0  0  0  0
   50.0607   34.2093   41.9890 H   0  0  0  0  0  0  0  0  0  0  0  0
   50.2574   35.9948   41.9890 H   0  0  0  0  0  0  0  0  0  0  0  0
  1  2  1  0
  2  3  2  0
  4 10  1  0
  4  3  1  0
  5  1  2  0
  5  4  1  0
  6 14  1  0
  7  8  2  0
  7  6  1  0
  8  9  1  0
  9 14  2  0
  9 10  1  0
 10 11  2  0
 11 12  1  0
 13 12  2  0
 14 13  1  0
 15  1  1  0
 16 21  2  0
 16 17  1  0
 17 18  2  0
 18 19  1  0
 18 15  1  0
 20 19  2  0
 21 20  1  0
 22 23  1  0
 22 16  1  0
  2 24  1  0
  3 25  1  0
  6 26  1  0
  7 27  1  0
 12 28  1  0
 17 29  1  0
 20 30  1  0
 22 31  1  0
 22 32  1  0
 23 33  1  0
 23 34  1  0
 23 35  1  0
M  ISO  8  24  14  25  14  26   9  27  14  28  14  29  14  30  14  31   8
M  ISO  4  32   8  33   8  34   8  35   8
M  END
>  <minimizedAffinity>  (1) 
-4.9824295

>  <minimizedRMSD>  (1) 
1.84758747

$$$$
