
     RDKit          3D

 31 33  0  0  0  0  0  0  0  0999 V2000
   47.2030   34.7040   42.7350 C   0  0  0  0  0  0  0  0  0  0  0  0
   47.7100   33.5090   43.2720 C   0  0  0  0  0  0  0  0  0  0  0  0
   46.9180   32.7980   44.1560 C   0  0  0  0  0  0  0  0  0  0  0  0
   45.6710   33.2930   44.4670 N   0  0  0  0  0  0  0  0  0  0  0  0
   45.2370   34.4410   43.9240 C   0  0  0  0  0  0  0  0  0  0  0  0
   45.9870   35.1340   43.0750 N   0  0  0  0  0  0  0  0  0  0  0  0
   48.1760   35.3460   41.8050 C   0  0  0  0  0  0  0  0  0  0  0  0
   49.5900   35.1810   42.3030 C   0  0  0  0  0  0  0  0  0  0  0  0
   47.4500   31.2880   44.8890 S   0  0  0  0  0  0  0  0  0  0  0  0
   46.3580   30.7150   46.1830 C   0  0  0  0  0  0  0  0  0  0  0  0
   45.7290   31.2490   47.3230 C   0  0  0  0  0  0  0  0  0  0  0  0
   45.0180   30.2150   47.8620 C   0  0  0  0  0  0  0  0  0  0  0  0
   45.1900   29.1100   47.1120 N   0  0  0  0  0  0  0  0  0  0  0  0
   46.0040   29.4150   46.0930 N   0  0  0  0  0  0  0  0  0  0  0  0
   44.5880   27.8340   47.3890 C   0  0  0  0  0  0  0  0  0  0  0  0
   44.6240   27.0420   48.4390 C   0  0  0  0  0  0  0  0  0  0  0  0
   43.9440   25.8500   48.4480 C   0  0  0  0  0  0  0  0  0  0  0  0
   43.2380   25.5480   47.3120 C   0  0  0  0  0  0  0  0  0  0  0  0
   43.5630   27.0190   46.2030 S   0  0  0  0  0  0  0  0  0  0  0  0
   48.7117   33.1476   42.9965 H   0  0  0  0  0  0  0  0  0  0  0  0
   44.2374   34.8164   44.1882 H   0  0  0  0  0  0  0  0  0  0  0  0
   47.9450   36.4187   41.7272 H   0  0  0  0  0  0  0  0  0  0  0  0
   48.0924   34.8611   40.8212 H   0  0  0  0  0  0  0  0  0  0  0  0
   49.5936   35.1806   43.4030 H   0  0  0  0  0  0  0  0  0  0  0  0
   49.9997   34.2289   41.9346 H   0  0  0  0  0  0  0  0  0  0  0  0
   50.2079   36.0131   41.9346 H   0  0  0  0  0  0  0  0  0  0  0  0
   45.7958   32.2802   47.6999 H   0  0  0  0  0  0  0  0  0  0  0  0
   44.3996   30.2756   48.7697 H   0  0  0  0  0  0  0  0  0  0  0  0
   45.2077   27.3396   49.3226 H   0  0  0  0  0  0  0  0  0  0  0  0
   43.9642   25.1755   49.3167 H   0  0  0  0  0  0  0  0  0  0  0  0
   42.6282   24.6566   47.1033 H   0  0  0  0  0  0  0  0  0  0  0  0
  1  6  2  0
  1  2  1  0
  2  3  2  0
  3  4  1  0
  3  9  1  0
  5  4  2  0
  6  5  1  0
  7  8  1  0
  7  1  1  0
  9 10  1  0
 10 11  1  0
 11 12  2  0
 13 15  1  0
 13 12  1  0
 14 10  2  0
 14 13  1  0
 15 16  2  0
 16 17  1  0
 18 17  2  0
 19 18  1  0
 19 15  1  0
  2 20  1  0
  5 21  1  0
  7 22  1  0
  7 23  1  0
  8 24  1  0
  8 25  1  0
  8 26  1  0
 11 27  1  0
 12 28  1  0
 16 29  1  0
 17 30  1  0
 18 31  1  0
M  ISO  8  20  14  21  14  22   8  23   8  24   8  25   8  26   8  27  14
M  ISO  4  28  14  29  14  30  14  31  14
M  END
>  <minimizedAffinity>  (1) 
-4.65988779

>  <minimizedRMSD>  (1) 
1.35220551

$$$$
