
     RDKit          3D

 31 33  0  0  0  0  0  0  0  0999 V2000
   47.2200   34.6900   42.7470 C   0  0  0  0  0  0  0  0  0  0  0  0
   47.7190   33.4770   43.2710 C   0  0  0  0  0  0  0  0  0  0  0  0
   46.9210   32.7740   44.1600 C   0  0  0  0  0  0  0  0  0  0  0  0
   45.6940   33.2910   44.4830 N   0  0  0  0  0  0  0  0  0  0  0  0
   45.2610   34.4450   43.9620 C   0  0  0  0  0  0  0  0  0  0  0  0
   46.0040   35.1450   43.1040 N   0  0  0  0  0  0  0  0  0  0  0  0
   48.1760   35.3310   41.8120 C   0  0  0  0  0  0  0  0  0  0  0  0
   49.5900   35.1670   42.3210 C   0  0  0  0  0  0  0  0  0  0  0  0
   47.4370   31.2550   44.8770 S   0  0  0  0  0  0  0  0  0  0  0  0
   46.3260   30.6840   46.1540 C   0  0  0  0  0  0  0  0  0  0  0  0
   45.6860   31.1650   47.2880 C   0  0  0  0  0  0  0  0  0  0  0  0
   44.9600   30.0980   47.7860 C   0  0  0  0  0  0  0  0  0  0  0  0
   45.1500   29.0260   46.9960 N   0  0  0  0  0  0  0  0  0  0  0  0
   45.9670   29.3800   46.0220 N   0  0  0  0  0  0  0  0  0  0  0  0
   44.5140   27.7870   47.2850 C   0  0  0  0  0  0  0  0  0  0  0  0
   43.6800   26.9890   46.5340 C   0  0  0  0  0  0  0  0  0  0  0  0
   43.4030   25.9260   47.3720 C   0  0  0  0  0  0  0  0  0  0  0  0
   44.0670   26.1200   48.5730 C   0  0  0  0  0  0  0  0  0  0  0  0
   44.7280   27.2560   48.4800 O   0  0  0  0  0  0  0  0  0  0  0  0
   48.7117   33.1013   42.9821 H   0  0  0  0  0  0  0  0  0  0  0  0
   44.2692   34.8250   44.2481 H   0  0  0  0  0  0  0  0  0  0  0  0
   47.9411   36.4024   41.7294 H   0  0  0  0  0  0  0  0  0  0  0  0
   48.0907   34.8519   40.8255 H   0  0  0  0  0  0  0  0  0  0  0  0
   49.5861   35.1675   43.4210 H   0  0  0  0  0  0  0  0  0  0  0  0
   50.0029   34.2149   41.9562 H   0  0  0  0  0  0  0  0  0  0  0  0
   50.2099   35.9993   41.9562 H   0  0  0  0  0  0  0  0  0  0  0  0
   45.7440   32.1818   47.7036 H   0  0  0  0  0  0  0  0  0  0  0  0
   44.3275   30.1223   48.6856 H   0  0  0  0  0  0  0  0  0  0  0  0
   43.3194   27.1580   45.5086 H   0  0  0  0  0  0  0  0  0  0  0  0
   42.7611   25.0671   47.1264 H   0  0  0  0  0  0  0  0  0  0  0  0
   44.0460   25.4487   49.4441 H   0  0  0  0  0  0  0  0  0  0  0  0
  1  6  2  0
  1  2  1  0
  2  3  2  0
  3  4  1  0
  3  9  1  0
  5  4  2  0
  6  5  1  0
  7  8  1  0
  7  1  1  0
  9 10  1  0
 10 11  1  0
 11 12  2  0
 13 15  1  0
 13 12  1  0
 14 10  2  0
 14 13  1  0
 15 19  1  0
 16 15  2  0
 16 17  1  0
 17 18  2  0
 19 18  1  0
  2 20  1  0
  5 21  1  0
  7 22  1  0
  7 23  1  0
  8 24  1  0
  8 25  1  0
  8 26  1  0
 11 27  1  0
 12 28  1  0
 16 29  1  0
 17 30  1  0
 18 31  1  0
M  ISO  8  20  14  21  14  22   8  23   8  24   8  25   8  26   8  27  14
M  ISO  4  28  14  29  14  30  14  31  14
M  END
>  <minimizedAffinity>  (1) 
-4.63405323

>  <minimizedRMSD>  (1) 
1.43751466

$$$$
