
     RDKit          3D

 30 32  0  0  0  0  0  0  0  0999 V2000
   47.2190   34.6940   42.7410 C   0  0  0  0  0  0  0  0  0  0  0  0
   47.7220   33.4920   43.2640 C   0  0  0  0  0  0  0  0  0  0  0  0
   46.9200   32.7880   44.1500 C   0  0  0  0  0  0  0  0  0  0  0  0
   45.6930   33.2960   44.4660 N   0  0  0  0  0  0  0  0  0  0  0  0
   45.2510   34.4580   43.9380 C   0  0  0  0  0  0  0  0  0  0  0  0
   46.0050   35.1370   43.0930 N   0  0  0  0  0  0  0  0  0  0  0  0
   48.1760   35.3460   41.8050 C   0  0  0  0  0  0  0  0  0  0  0  0
   49.5920   35.1860   42.2980 C   0  0  0  0  0  0  0  0  0  0  0  0
   47.4490   31.2760   44.8780 S   0  0  0  0  0  0  0  0  0  0  0  0
   46.3450   30.6960   46.1530 C   0  0  0  0  0  0  0  0  0  0  0  0
   45.7180   31.2120   47.3030 C   0  0  0  0  0  0  0  0  0  0  0  0
   44.9890   30.1530   47.8180 C   0  0  0  0  0  0  0  0  0  0  0  0
   45.1650   29.0750   47.0310 N   0  0  0  0  0  0  0  0  0  0  0  0
   45.9720   29.3910   46.0360 N   0  0  0  0  0  0  0  0  0  0  0  0
   44.5330   27.8330   47.3150 C   0  0  0  0  0  0  0  0  0  0  0  0
   43.6360   27.1290   46.3540 C   0  0  0  0  0  0  0  0  0  0  0  0
   43.1850   25.6130   47.3670 S   0  0  0  0  0  0  0  0  0  0  0  0
   44.2530   26.2150   48.8190 C   0  0  0  0  0  0  0  0  0  0  0  0
   44.7040   27.2010   48.4840 N   0  0  0  0  0  0  0  0  0  0  0  0
   48.7181   33.1213   42.9807 H   0  0  0  0  0  0  0  0  0  0  0  0
   44.2573   34.8409   44.2135 H   0  0  0  0  0  0  0  0  0  0  0  0
   47.9374   36.4173   41.7320 H   0  0  0  0  0  0  0  0  0  0  0  0
   48.0878   34.8687   40.8179 H   0  0  0  0  0  0  0  0  0  0  0  0
   49.5994   35.1852   43.3980 H   0  0  0  0  0  0  0  0  0  0  0  0
   50.0039   34.2356   41.9278 H   0  0  0  0  0  0  0  0  0  0  0  0
   50.2056   36.0205   41.9278 H   0  0  0  0  0  0  0  0  0  0  0  0
   45.7911   32.2334   47.7048 H   0  0  0  0  0  0  0  0  0  0  0  0
   44.3664   30.1872   48.7242 H   0  0  0  0  0  0  0  0  0  0  0  0
   43.3260   27.4164   45.3385 H   0  0  0  0  0  0  0  0  0  0  0  0
   44.4031   25.7114   49.7853 H   0  0  0  0  0  0  0  0  0  0  0  0
  1  6  2  0
  1  2  1  0
  2  3  2  0
  3  4  1  0
  3  9  1  0
  5  4  2  0
  6  5  1  0
  7  8  1  0
  7  1  1  0
  9 10  1  0
 10 11  1  0
 11 12  2  0
 13 15  1  0
 13 12  1  0
 14 10  2  0
 14 13  1  0
 15 19  1  0
 16 15  2  0
 16 17  1  0
 17 18  1  0
 19 18  2  0
  2 20  1  0
  5 21  1  0
  7 22  1  0
  7 23  1  0
  8 24  1  0
  8 25  1  0
  8 26  1  0
 11 27  1  0
 12 28  1  0
 16 29  1  0
 18 30  1  0
M  ISO  8  20  14  21  14  22   8  23   8  24   8  25   8  26   8  27  14
M  ISO  3  28  14  29  14  30  14
M  END
>  <minimizedAffinity>  (1) 
-4.53391886

>  <minimizedRMSD>  (1) 
1.45295095

$$$$
