
     RDKit          3D

 43 46  0  0  0  0  0  0  0  0999 V2000
   46.0080   32.1100   46.8120 C   0  0  0  0  0  0  0  0  0  0  0  0
   45.2350   32.1980   47.9950 C   0  0  0  0  0  0  0  0  0  0  0  0
   44.6930   30.9400   48.1570 C   0  0  0  0  0  0  0  0  0  0  0  0
   45.1150   30.1500   47.1370 N   0  0  0  0  0  0  0  0  0  0  0  0
   45.8930   30.8380   46.3380 N   0  0  0  0  0  0  0  0  0  0  0  0
   44.7060   28.7830   47.0510 C   0  0  0  0  0  0  0  0  0  0  0  0
   43.8890   28.2570   45.9240 C   0  0  0  0  0  0  0  0  0  0  0  0
   43.7390   26.4600   46.4590 S   0  0  0  0  0  0  0  0  0  0  0  0
   44.7630   26.7870   48.0150 C   0  0  0  0  0  0  0  0  0  0  0  0
   45.0270   27.8830   47.9750 N   0  0  0  0  0  0  0  0  0  0  0  0
   45.1050   25.7540   49.0320 N   0  0  0  0  0  0  0  0  0  0  0  0
   46.0220   24.8480   48.6350 C   0  0  0  0  0  0  0  0  0  0  0  0
   46.4060   23.8530   49.4990 C   0  0  0  0  0  0  0  0  0  0  0  0
   47.4120   22.8460   49.0850 C   0  0  0  0  0  0  0  0  0  0  0  0
   45.8180   23.8410   50.7400 C   0  0  0  0  0  0  0  0  0  0  0  0
   46.1380   22.9390   51.5790 O   0  0  0  0  0  0  0  0  0  0  0  0
   44.9020   24.7680   51.0960 N   0  0  0  0  0  0  0  0  0  0  0  0
   44.5270   25.7460   50.2430 C   0  0  0  0  0  0  0  0  0  0  0  0
   43.6860   26.6470   50.4870 O   0  0  0  0  0  0  0  0  0  0  0  0
   47.0370   33.1940   45.8540 S   0  0  0  0  0  0  0  0  0  0  0  0
   46.6500   34.1850   41.9700 C   0  0  0  0  0  0  0  0  0  0  0  0
   47.2510   33.9430   43.2280 C   0  0  0  0  0  0  0  0  0  0  0  0
   46.4120   33.5150   44.2520 C   0  0  0  0  0  0  0  0  0  0  0  0
   45.0910   33.3510   44.0040 N   0  0  0  0  0  0  0  0  0  0  0  0
   44.5660   33.5960   42.7810 C   0  0  0  0  0  0  0  0  0  0  0  0
   45.3400   34.0060   41.7890 N   0  0  0  0  0  0  0  0  0  0  0  0
   47.6380   34.6400   40.9500 C   0  0  0  0  0  0  0  0  0  0  0  0
   48.6760   35.5300   41.5870 C   0  0  0  0  0  0  0  0  0  0  0  0
   45.0970   33.0765   48.6425 H   0  0  0  0  0  0  0  0  0  0  0  0
   44.0289   30.6286   48.9768 H   0  0  0  0  0  0  0  0  0  0  0  0
   43.4893   28.7697   45.0366 H   0  0  0  0  0  0  0  0  0  0  0  0
   46.4585   24.9061   47.6270 H   0  0  0  0  0  0  0  0  0  0  0  0
   47.8655   22.3920   49.9784 H   0  0  0  0  0  0  0  0  0  0  0  0
   46.9231   22.0646   48.4847 H   0  0  0  0  0  0  0  0  0  0  0  0
   48.1939   23.3341   48.4847 H   0  0  0  0  0  0  0  0  0  0  0  0
   44.4817   24.7283   52.0355 H   0  0  0  0  0  0  0  0  0  0  0  0
   48.3297   34.0864   43.3886 H   0  0  0  0  0  0  0  0  0  0  0  0
   43.4887   33.4534   42.6103 H   0  0  0  0  0  0  0  0  0  0  0  0
   47.1139   35.2004   40.1618 H   0  0  0  0  0  0  0  0  0  0  0  0
   48.1374   33.7601   40.5182 H   0  0  0  0  0  0  0  0  0  0  0  0
   48.5958   35.4613   42.6819 H   0  0  0  0  0  0  0  0  0  0  0  0
   49.6792   35.2071   41.2718 H   0  0  0  0  0  0  0  0  0  0  0  0
   48.5099   36.5707   41.2718 H   0  0  0  0  0  0  0  0  0  0  0  0
  1  2  1  0
  2  3  2  0
  4  3  1  0
  5  1  2  0
  5  4  1  0
  6  4  1  0
  6 10  1  0
  7  8  1  0
  7  6  2  0
  8  9  1  0
  9 11  1  0
 10  9  2  0
 11 18  1  0
 12 11  1  0
 12 13  2  0
 13 15  1  0
 14 13  1  0
 15 17  1  0
 15 16  2  0
 18 19  2  0
 18 17  1  0
 20  1  1  0
 21 22  2  0
 22 23  1  0
 23 20  1  0
 24 23  2  0
 25 24  1  0
 26 21  1  0
 26 25  2  0
 27 28  1  0
 27 21  1  0
  2 29  1  0
  3 30  1  0
  7 31  1  0
 12 32  1  0
 14 33  1  0
 14 34  1  0
 14 35  1  0
 17 36  1  0
 22 37  1  0
 25 38  1  0
 27 39  1  0
 27 40  1  0
 28 41  1  0
 28 42  1  0
 28 43  1  0
M  ISO  8  29  14  30  14  31  14  32  14  33   8  34   8  35   8  36   9
M  ISO  7  37  14  38  14  39   8  40   8  41   8  42   8  43   8
M  END
>  <minimizedAffinity>  (1) 
-6.49981403

>  <minimizedRMSD>  (1) 
1.45382977

$$$$
