
     RDKit          3D

 38 41  0  0  0  0  0  0  0  0999 V2000
   45.8540   32.9310   46.6480 C   0  0  0  0  0  0  0  0  0  0  0  0
   45.1820   32.7750   47.8800 C   0  0  0  0  0  0  0  0  0  0  0  0
   45.9970   31.9450   48.6090 C   0  0  0  0  0  0  0  0  0  0  0  0
   47.0770   31.6140   47.8970 N   0  0  0  0  0  0  0  0  0  0  0  0
   47.0010   32.2070   46.7060 N   0  0  0  0  0  0  0  0  0  0  0  0
   48.1050   30.7650   48.3990 C   0  0  0  0  0  0  0  0  0  0  0  0
   48.5070   29.5010   47.7440 C   0  0  0  0  0  0  0  0  0  0  0  0
   49.8620   28.9510   48.8970 S   0  0  0  0  0  0  0  0  0  0  0  0
   49.6230   30.4780   49.9900 C   0  0  0  0  0  0  0  0  0  0  0  0
   48.7860   31.0620   49.4990 N   0  0  0  0  0  0  0  0  0  0  0  0
   50.5310   30.5660   51.1790 C   0  0  0  0  0  0  0  0  0  0  0  0
   50.9100   29.4890   51.9090 C   0  0  0  0  0  0  0  0  0  0  0  0
   51.7610   29.7700   52.9800 C   0  0  0  0  0  0  0  0  0  0  0  0
   52.1510   31.0530   53.2300 N   0  0  0  0  0  0  0  0  0  0  0  0
   51.7340   32.0790   52.4610 C   0  0  0  0  0  0  0  0  0  0  0  0
   50.9130   31.8280   51.4210 N   0  0  0  0  0  0  0  0  0  0  0  0
   45.5600   33.8070   45.1350 S   0  0  0  0  0  0  0  0  0  0  0  0
   48.5210   33.7230   42.4140 C   0  0  0  0  0  0  0  0  0  0  0  0
   47.7150   34.1600   43.4690 C   0  0  0  0  0  0  0  0  0  0  0  0
   46.6410   33.3670   43.8360 C   0  0  0  0  0  0  0  0  0  0  0  0
   46.4240   32.2040   43.1510 N   0  0  0  0  0  0  0  0  0  0  0  0
   47.2350   31.8300   42.1390 C   0  0  0  0  0  0  0  0  0  0  0  0
   48.2610   32.5810   41.7830 N   0  0  0  0  0  0  0  0  0  0  0  0
   49.6430   34.6650   42.1140 C   0  0  0  0  0  0  0  0  0  0  0  0
   49.1050   35.9580   41.5390 C   0  0  0  0  0  0  0  0  0  0  0  0
   44.2229   33.2181   48.1862 H   0  0  0  0  0  0  0  0  0  0  0  0
   45.7899   31.6017   49.6333 H   0  0  0  0  0  0  0  0  0  0  0  0
   48.1164   29.0219   46.8341 H   0  0  0  0  0  0  0  0  0  0  0  0
   50.5722   28.4686   51.6752 H   0  0  0  0  0  0  0  0  0  0  0  0
   52.1183   28.9534   53.6246 H   0  0  0  0  0  0  0  0  0  0  0  0
   52.0591   33.1070   52.6790 H   0  0  0  0  0  0  0  0  0  0  0  0
   47.9273   35.1045   43.9914 H   0  0  0  0  0  0  0  0  0  0  0  0
   47.0389   30.8887   41.6047 H   0  0  0  0  0  0  0  0  0  0  0  0
   50.1927   34.8816   43.0419 H   0  0  0  0  0  0  0  0  0  0  0  0
   50.3143   34.1985   41.3780 H   0  0  0  0  0  0  0  0  0  0  0  0
   48.8234   36.6348   42.3591 H   0  0  0  0  0  0  0  0  0  0  0  0
   49.8796   36.4344   40.9200 H   0  0  0  0  0  0  0  0  0  0  0  0
   48.2211   35.7443   40.9200 H   0  0  0  0  0  0  0  0  0  0  0  0
  1  5  2  0
  1  2  1  0
  2  3  2  0
  4  6  1  0
  4  3  1  0
  5  4  1  0
  6 10  1  0
  7  6  2  0
  7  8  1  0
  8  9  1  0
  9 11  1  0
 10  9  2  0
 11 16  1  0
 11 12  2  0
 12 13  1  0
 13 14  2  0
 15 14  1  0
 16 15  2  0
 17  1  1  0
 18 19  2  0
 19 20  1  0
 20 17  1  0
 21 20  2  0
 22 21  1  0
 23 22  2  0
 23 18  1  0
 24 18  1  0
 25 24  1  0
  2 26  1  0
  3 27  1  0
  7 28  1  0
 12 29  1  0
 13 30  1  0
 15 31  1  0
 19 32  1  0
 22 33  1  0
 24 34  1  0
 24 35  1  0
 25 36  1  0
 25 37  1  0
 25 38  1  0
M  ISO  8  26  14  27  14  28  14  29  14  30  14  31  14  32  14  33  14
M  ISO  5  34   8  35   8  36   8  37   8  38   8
M  END
>  <minimizedAffinity>  (1) 
-6.0751214

>  <minimizedRMSD>  (1) 
5.68138885

$$$$
