
     RDKit          3D

 41 45  0  0  0  0  0  0  0  0999 V2000
   46.3910   30.6870   46.0640 C   0  0  0  0  0  0  0  0  0  0  0  0
   45.6230   31.1840   47.1220 C   0  0  0  0  0  0  0  0  0  0  0  0
   44.9700   30.0850   47.6500 C   0  0  0  0  0  0  0  0  0  0  0  0
   45.3240   29.0000   46.9540 N   0  0  0  0  0  0  0  0  0  0  0  0
   46.1800   29.3390   45.9930 N   0  0  0  0  0  0  0  0  0  0  0  0
   44.8180   27.6950   47.2580 C   0  0  0  0  0  0  0  0  0  0  0  0
   43.6310   27.1010   46.6050 C   0  0  0  0  0  0  0  0  0  0  0  0
   43.5720   25.4480   47.4630 S   0  0  0  0  0  0  0  0  0  0  0  0
   45.1200   25.8760   48.5050 C   0  0  0  0  0  0  0  0  0  0  0  0
   45.3990   26.9150   48.1660 N   0  0  0  0  0  0  0  0  0  0  0  0
   45.6160   24.9110   49.4440 N   0  0  0  0  0  0  0  0  0  0  0  0
   45.1230   24.6310   50.6700 C   0  0  0  0  0  0  0  0  0  0  0  0
   45.8990   23.6560   51.2110 N   0  0  0  0  0  0  0  0  0  0  0  0
   46.8660   23.3420   50.3120 C   0  0  0  0  0  0  0  0  0  0  0  0
   47.9080   22.4240   50.3560 C   0  0  0  0  0  0  0  0  0  0  0  0
   48.7190   22.3490   49.2740 N   0  0  0  0  0  0  0  0  0  0  0  0
   48.5330   23.1320   48.1890 C   0  0  0  0  0  0  0  0  0  0  0  0
   47.5240   24.0330   48.1260 N   0  0  0  0  0  0  0  0  0  0  0  0
   46.6960   24.1400   49.1780 C   0  0  0  0  0  0  0  0  0  0  0  0
   47.5150   31.3570   44.8670 S   0  0  0  0  0  0  0  0  0  0  0  0
   47.2170   34.7380   42.6970 C   0  0  0  0  0  0  0  0  0  0  0  0
   47.7410   33.5600   43.2360 C   0  0  0  0  0  0  0  0  0  0  0  0
   46.9650   32.8450   44.1270 C   0  0  0  0  0  0  0  0  0  0  0  0
   45.7330   33.3180   44.4360 N   0  0  0  0  0  0  0  0  0  0  0  0
   45.2560   34.4670   43.8930 C   0  0  0  0  0  0  0  0  0  0  0  0
   45.9880   35.1550   43.0440 N   0  0  0  0  0  0  0  0  0  0  0  0
   48.1600   35.4070   41.7530 C   0  0  0  0  0  0  0  0  0  0  0  0
   49.5850   35.2550   42.2450 C   0  0  0  0  0  0  0  0  0  0  0  0
   45.5531   32.2278   47.4621 H   0  0  0  0  0  0  0  0  0  0  0  0
   44.2743   30.1011   48.5019 H   0  0  0  0  0  0  0  0  0  0  0  0
   42.9696   27.5177   45.8311 H   0  0  0  0  0  0  0  0  0  0  0  0
   44.2515   25.1061   51.1442 H   0  0  0  0  0  0  0  0  0  0  0  0
   48.0680   21.7830   51.2355 H   0  0  0  0  0  0  0  0  0  0  0  0
   49.2189   23.0352   47.3345 H   0  0  0  0  0  0  0  0  0  0  0  0
   48.7463   33.2110   42.9576 H   0  0  0  0  0  0  0  0  0  0  0  0
   44.2518   34.8247   44.1645 H   0  0  0  0  0  0  0  0  0  0  0  0
   47.9103   36.4762   41.6862 H   0  0  0  0  0  0  0  0  0  0  0  0
   48.0696   34.9387   40.7618 H   0  0  0  0  0  0  0  0  0  0  0  0
   49.5950   35.2539   43.3450 H   0  0  0  0  0  0  0  0  0  0  0  0
   50.0020   34.3073   41.8736 H   0  0  0  0  0  0  0  0  0  0  0  0
   50.1925   36.0934   41.8736 H   0  0  0  0  0  0  0  0  0  0  0  0
  1  2  1  0
  2  3  2  0
  4  6  1  0
  4  3  1  0
  5  1  2  0
  5  4  1  0
  6 10  1  0
  7  6  2  0
  7  8  1  0
  8  9  1  0
  9 11  1  0
 10  9  2  0
 11 12  1  0
 12 13  2  0
 14 15  2  0
 14 13  1  0
 16 15  1  0
 17 16  2  0
 18 17  1  0
 18 19  2  0
 19 11  1  0
 19 14  1  0
 20  1  1  0
 21 26  2  0
 21 22  1  0
 22 23  2  0
 23 24  1  0
 23 20  1  0
 25 24  2  0
 26 25  1  0
 27 28  1  0
 27 21  1  0
  2 29  1  0
  3 30  1  0
  7 31  1  0
 12 32  1  0
 15 33  1  0
 17 34  1  0
 22 35  1  0
 25 36  1  0
 27 37  1  0
 27 38  1  0
 28 39  1  0
 28 40  1  0
 28 41  1  0
M  ISO  8  29  14  30  14  31  14  32  14  33  14  34  14  35  14  36  14
M  ISO  5  37   8  38   8  39   8  40   8  41   8
M  END
>  <minimizedAffinity>  (1) 
-5.78285074

>  <minimizedRMSD>  (1) 
1.25881302

$$$$
