
     RDKit          3D

 43 46  0  0  0  0  0  0  0  0999 V2000
   46.2870   31.3460   46.4900 C   0  0  0  0  0  0  0  0  0  0  0  0
   45.5510   31.5750   47.6810 C   0  0  0  0  0  0  0  0  0  0  0  0
   44.7700   30.4580   47.8310 C   0  0  0  0  0  0  0  0  0  0  0  0
   45.0180   29.6090   46.8000 N   0  0  0  0  0  0  0  0  0  0  0  0
   45.9160   30.1270   45.9990 N   0  0  0  0  0  0  0  0  0  0  0  0
   44.3330   28.3550   46.7090 C   0  0  0  0  0  0  0  0  0  0  0  0
   43.2700   28.0890   45.6970 C   0  0  0  0  0  0  0  0  0  0  0  0
   42.8410   26.3240   46.1620 S   0  0  0  0  0  0  0  0  0  0  0  0
   44.1240   26.3110   47.5560 C   0  0  0  0  0  0  0  0  0  0  0  0
   44.5920   27.3380   47.5250 N   0  0  0  0  0  0  0  0  0  0  0  0
   44.3130   25.0810   48.4090 C   0  0  0  0  0  0  0  0  0  0  0  0
   44.9160   25.5690   49.7270 C   0  0  0  0  0  0  0  0  0  0  0  0
   45.7610   24.4190   50.2240 C   0  0  0  0  0  0  0  0  0  0  0  0
   46.1860   23.6420   49.0110 C   0  0  0  0  0  0  0  0  0  0  0  0
   45.3850   24.1930   47.8760 C   0  0  0  0  0  0  0  0  0  0  0  0
   47.5080   32.2170   45.5420 S   0  0  0  0  0  0  0  0  0  0  0  0
   46.8570   34.8100   42.5310 C   0  0  0  0  0  0  0  0  0  0  0  0
   47.4730   33.8100   43.3080 C   0  0  0  0  0  0  0  0  0  0  0  0
   46.8410   33.4420   44.4900 C   0  0  0  0  0  0  0  0  0  0  0  0
   45.6690   34.0620   44.8320 N   0  0  0  0  0  0  0  0  0  0  0  0
   45.1240   35.0130   44.0520 C   0  0  0  0  0  0  0  0  0  0  0  0
   45.7170   35.3760   42.9170 N   0  0  0  0  0  0  0  0  0  0  0  0
   47.6110   35.1250   41.2950 C   0  0  0  0  0  0  0  0  0  0  0  0
   48.9360   35.7480   41.6200 C   0  0  0  0  0  0  0  0  0  0  0  0
   45.5968   32.4551   48.3393 H   0  0  0  0  0  0  0  0  0  0  0  0
   44.0594   30.2789   48.6514 H   0  0  0  0  0  0  0  0  0  0  0  0
   42.8587   28.7376   44.9095 H   0  0  0  0  0  0  0  0  0  0  0  0
   43.3486   24.5553   48.4687 H   0  0  0  0  0  0  0  0  0  0  0  0
   45.5377   26.4610   49.5602 H   0  0  0  0  0  0  0  0  0  0  0  0
   44.1411   25.8547   50.4536 H   0  0  0  0  0  0  0  0  0  0  0  0
   46.6435   24.8001   50.7588 H   0  0  0  0  0  0  0  0  0  0  0  0
   45.1957   23.7849   50.9228 H   0  0  0  0  0  0  0  0  0  0  0  0
   47.2612   23.7804   48.8243 H   0  0  0  0  0  0  0  0  0  0  0  0
   46.0170   22.5628   49.1407 H   0  0  0  0  0  0  0  0  0  0  0  0
   44.9291   23.3651   47.3131 H   0  0  0  0  0  0  0  0  0  0  0  0
   46.0425   24.7712   47.2101 H   0  0  0  0  0  0  0  0  0  0  0  0
   48.4158   33.3394   42.9924 H   0  0  0  0  0  0  0  0  0  0  0  0
   44.1820   35.4938   44.3543 H   0  0  0  0  0  0  0  0  0  0  0  0
   47.0237   35.8261   40.6838 H   0  0  0  0  0  0  0  0  0  0  0  0
   47.7883   34.1898   40.7437 H   0  0  0  0  0  0  0  0  0  0  0  0
   49.0566   35.8047   42.7119 H   0  0  0  0  0  0  0  0  0  0  0  0
   49.7438   35.1353   41.1932 H   0  0  0  0  0  0  0  0  0  0  0  0
   48.9795   36.7609   41.1932 H   0  0  0  0  0  0  0  0  0  0  0  0
  1  2  1  0
  2  3  2  0
  4  3  1  0
  5  1  2  0
  5  4  1  0
  6  4  1  0
  6 10  1  0
  7  8  1  0
  7  6  2  0
  8  9  1  0
  9 11  1  0
 10  9  2  0
 11 12  1  0
 12 13  1  0
 14 13  1  0
 15 11  1  0
 15 14  1  0
 16  1  1  0
 17 22  2  0
 17 18  1  0
 18 19  2  0
 19 20  1  0
 19 16  1  0
 21 20  2  0
 22 21  1  0
 23 24  1  0
 23 17  1  0
  2 25  1  0
  3 26  1  0
  7 27  1  0
 11 28  1  0
 12 29  1  0
 12 30  1  0
 13 31  1  0
 13 32  1  0
 14 33  1  0
 14 34  1  0
 15 35  1  0
 15 36  1  0
 18 37  1  0
 21 38  1  0
 23 39  1  0
 23 40  1  0
 24 41  1  0
 24 42  1  0
 24 43  1  0
M  ISO  8  25  14  26  14  27  14  28  13  29  13  30  13  31  13  32  13
M  ISO  8  33  13  34  13  35  13  36  13  37  14  38  14  39   8  40   8
M  ISO  3  41   8  42   8  43   8
M  END
>  <minimizedAffinity>  (1) 
-4.96942997

>  <minimizedRMSD>  (1) 
1.50991464

$$$$
