
     RDKit          3D

 37 40  0  0  0  0  0  0  0  0999 V2000
   46.4070   30.7000   46.0860 C   0  0  0  0  0  0  0  0  0  0  0  0
   45.5800   31.1790   47.1080 C   0  0  0  0  0  0  0  0  0  0  0  0
   44.9640   30.0580   47.6280 C   0  0  0  0  0  0  0  0  0  0  0  0
   45.4020   28.9660   46.9490 N   0  0  0  0  0  0  0  0  0  0  0  0
   46.2600   29.3510   46.0340 N   0  0  0  0  0  0  0  0  0  0  0  0
   44.9330   27.6540   47.2710 C   0  0  0  0  0  0  0  0  0  0  0  0
   43.7290   27.0580   46.6440 C   0  0  0  0  0  0  0  0  0  0  0  0
   43.7360   25.3940   47.5230 S   0  0  0  0  0  0  0  0  0  0  0  0
   45.2900   25.8430   48.5010 C   0  0  0  0  0  0  0  0  0  0  0  0
   45.5500   26.8860   48.1570 N   0  0  0  0  0  0  0  0  0  0  0  0
   45.7860   24.8280   49.4200 C   0  0  0  0  0  0  0  0  0  0  0  0
   45.4050   24.4010   50.6270 C   0  0  0  0  0  0  0  0  0  0  0  0
   46.0910   23.4060   51.2500 C   0  0  0  0  0  0  0  0  0  0  0  0
   47.2110   22.8780   50.5320 C   0  0  0  0  0  0  0  0  0  0  0  0
   47.1590   23.9080   48.9710 S   0  0  0  0  0  0  0  0  0  0  0  0
   47.5450   31.3940   44.9080 S   0  0  0  0  0  0  0  0  0  0  0  0
   47.1860   34.7410   42.6920 C   0  0  0  0  0  0  0  0  0  0  0  0
   47.7250   33.5800   43.2460 C   0  0  0  0  0  0  0  0  0  0  0  0
   46.9700   32.8630   44.1520 C   0  0  0  0  0  0  0  0  0  0  0  0
   45.7340   33.3280   44.4600 N   0  0  0  0  0  0  0  0  0  0  0  0
   45.2400   34.4590   43.9030 C   0  0  0  0  0  0  0  0  0  0  0  0
   45.9580   35.1440   43.0390 N   0  0  0  0  0  0  0  0  0  0  0  0
   48.1110   35.4070   41.7350 C   0  0  0  0  0  0  0  0  0  0  0  0
   49.5290   35.3040   42.2090 C   0  0  0  0  0  0  0  0  0  0  0  0
   45.4489   32.2232   47.4281 H   0  0  0  0  0  0  0  0  0  0  0  0
   44.2388   30.0504   48.4550 H   0  0  0  0  0  0  0  0  0  0  0  0
   43.0387   27.4660   45.8910 H   0  0  0  0  0  0  0  0  0  0  0  0
   44.5327   24.8562   51.1189 H   0  0  0  0  0  0  0  0  0  0  0  0
   45.8034   23.0305   52.2431 H   0  0  0  0  0  0  0  0  0  0  0  0
   47.9129   22.0816   50.8202 H   0  0  0  0  0  0  0  0  0  0  0  0
   48.7336   33.2419   42.9659 H   0  0  0  0  0  0  0  0  0  0  0  0
   44.2325   34.8072   44.1744 H   0  0  0  0  0  0  0  0  0  0  0  0
   47.8361   36.4684   41.6467 H   0  0  0  0  0  0  0  0  0  0  0  0
   48.0279   34.9083   40.7581 H   0  0  0  0  0  0  0  0  0  0  0  0
   49.5488   35.3026   43.3088 H   0  0  0  0  0  0  0  0  0  0  0  0
   49.9744   34.3711   41.8330 H   0  0  0  0  0  0  0  0  0  0  0  0
   50.1046   36.1627   41.8330 H   0  0  0  0  0  0  0  0  0  0  0  0
  1  2  1  0
  2  3  2  0
  4  6  1  0
  4  3  1  0
  5  1  2  0
  5  4  1  0
  6 10  1  0
  7  6  2  0
  7  8  1  0
  8  9  1  0
  9 11  1  0
 10  9  2  0
 11 12  2  0
 12 13  1  0
 14 13  2  0
 15 11  1  0
 15 14  1  0
 16  1  1  0
 17 22  2  0
 17 18  1  0
 18 19  2  0
 19 20  1  0
 19 16  1  0
 21 20  2  0
 22 21  1  0
 23 24  1  0
 23 17  1  0
  2 25  1  0
  3 26  1  0
  7 27  1  0
 12 28  1  0
 13 29  1  0
 14 30  1  0
 18 31  1  0
 21 32  1  0
 23 33  1  0
 23 34  1  0
 24 35  1  0
 24 36  1  0
 24 37  1  0
M  ISO  8  25  14  26  14  27  14  28  14  29  14  30  14  31  14  32  14
M  ISO  5  33   8  34   8  35   8  36   8  37   8
M  END
>  <minimizedAffinity>  (1) 
-5.11276102

>  <minimizedRMSD>  (1) 
1.10749793

$$$$
