
     RDKit          3D

 33 35  0  0  0  0  0  0  0  0999 V2000
   46.3920   30.6930   46.1130 C   0  0  0  0  0  0  0  0  0  0  0  0
   45.6070   31.1660   47.1710 C   0  0  0  0  0  0  0  0  0  0  0  0
   44.9570   30.0550   47.6690 C   0  0  0  0  0  0  0  0  0  0  0  0
   45.3270   28.9860   46.9560 N   0  0  0  0  0  0  0  0  0  0  0  0
   46.1910   29.3460   46.0130 N   0  0  0  0  0  0  0  0  0  0  0  0
   44.8130   27.6810   47.2400 C   0  0  0  0  0  0  0  0  0  0  0  0
   43.6150   27.1090   46.5480 C   0  0  0  0  0  0  0  0  0  0  0  0
   43.5230   25.4430   47.3820 S   0  0  0  0  0  0  0  0  0  0  0  0
   45.0570   25.8410   48.4550 C   0  0  0  0  0  0  0  0  0  0  0  0
   45.3670   26.8820   48.1450 N   0  0  0  0  0  0  0  0  0  0  0  0
   45.5630   24.8190   49.4410 C   0  0  0  0  0  0  0  0  0  0  0  0
   46.9030   25.1180   49.5880 F   0  0  0  0  0  0  0  0  0  0  0  0
   44.9660   24.9900   50.6720 F   0  0  0  0  0  0  0  0  0  0  0  0
   45.4130   23.5310   48.9460 F   0  0  0  0  0  0  0  0  0  0  0  0
   47.5240   31.3840   44.9350 S   0  0  0  0  0  0  0  0  0  0  0  0
   47.1850   34.7230   42.7080 C   0  0  0  0  0  0  0  0  0  0  0  0
   47.7330   33.5490   43.2660 C   0  0  0  0  0  0  0  0  0  0  0  0
   46.9500   32.8500   44.1740 C   0  0  0  0  0  0  0  0  0  0  0  0
   45.7140   33.3170   44.4770 N   0  0  0  0  0  0  0  0  0  0  0  0
   45.2260   34.4490   43.9180 C   0  0  0  0  0  0  0  0  0  0  0  0
   45.9490   35.1320   43.0550 N   0  0  0  0  0  0  0  0  0  0  0  0
   48.1060   35.3900   41.7540 C   0  0  0  0  0  0  0  0  0  0  0  0
   49.5320   35.2720   42.2290 C   0  0  0  0  0  0  0  0  0  0  0  0
   45.5255   32.2028   47.5293 H   0  0  0  0  0  0  0  0  0  0  0  0
   44.2513   30.0498   48.5128 H   0  0  0  0  0  0  0  0  0  0  0  0
   42.9723   27.5464   45.7697 H   0  0  0  0  0  0  0  0  0  0  0  0
   48.7402   33.2016   42.9925 H   0  0  0  0  0  0  0  0  0  0  0  0
   44.2189   34.8007   44.1864 H   0  0  0  0  0  0  0  0  0  0  0  0
   47.8374   36.4538   41.6748 H   0  0  0  0  0  0  0  0  0  0  0  0
   48.0160   34.9028   40.7719 H   0  0  0  0  0  0  0  0  0  0  0  0
   49.5532   35.2702   43.3288 H   0  0  0  0  0  0  0  0  0  0  0  0
   49.9676   34.3347   41.8524 H   0  0  0  0  0  0  0  0  0  0  0  0
   50.1157   36.1249   41.8524 H   0  0  0  0  0  0  0  0  0  0  0  0
  1  2  1  0
  2  3  2  0
  4  6  1  0
  4  3  1  0
  5  1  2  0
  5  4  1  0
  6 10  1  0
  7  6  2  0
  7  8  1  0
  8  9  1  0
  9 11  1  0
 10  9  2  0
 11 12  1  0
 11 13  1  0
 14 11  1  0
 15  1  1  0
 16 21  2  0
 16 17  1  0
 17 18  2  0
 18 19  1  0
 18 15  1  0
 20 19  2  0
 21 20  1  0
 22 23  1  0
 22 16  1  0
  2 24  1  0
  3 25  1  0
  7 26  1  0
 17 27  1  0
 20 28  1  0
 22 29  1  0
 22 30  1  0
 23 31  1  0
 23 32  1  0
 23 33  1  0
M  ISO  8  24  14  25  14  26  14  27  14  28  14  29   8  30   8  31   8
M  ISO  2  32   8  33   8
M  END
>  <minimizedAffinity>  (1) 
-5.00089884

>  <minimizedRMSD>  (1) 
0.741737247

$$$$
