
     RDKit          3D

 32 34  0  0  0  0  0  0  0  0999 V2000
   47.4350   31.2780   44.8970 S   0  0  0  0  0  0  0  0  0  0  0  0
   47.2230   34.6810   42.7510 C   0  0  0  0  0  0  0  0  0  0  0  0
   47.7160   33.4850   43.2800 C   0  0  0  0  0  0  0  0  0  0  0  0
   46.9170   32.7840   44.1720 C   0  0  0  0  0  0  0  0  0  0  0  0
   45.7000   33.2900   44.4870 N   0  0  0  0  0  0  0  0  0  0  0  0
   45.2520   34.4510   43.9560 C   0  0  0  0  0  0  0  0  0  0  0  0
   46.0040   35.1270   43.1070 N   0  0  0  0  0  0  0  0  0  0  0  0
   48.1790   35.3290   41.8110 C   0  0  0  0  0  0  0  0  0  0  0  0
   49.5940   35.1680   42.3210 C   0  0  0  0  0  0  0  0  0  0  0  0
   46.3390   30.6750   46.1560 C   0  0  0  0  0  0  0  0  0  0  0  0
   45.7210   31.1820   47.3040 C   0  0  0  0  0  0  0  0  0  0  0  0
   44.9910   30.1370   47.8220 C   0  0  0  0  0  0  0  0  0  0  0  0
   45.1630   29.0620   47.0240 N   0  0  0  0  0  0  0  0  0  0  0  0
   45.9630   29.3680   46.0280 N   0  0  0  0  0  0  0  0  0  0  0  0
   44.5190   27.8180   47.3180 C   0  0  0  0  0  0  0  0  0  0  0  0
   43.6400   27.1130   46.3370 C   0  0  0  0  0  0  0  0  0  0  0  0
   43.1580   25.6150   47.3370 S   0  0  0  0  0  0  0  0  0  0  0  0
   44.2000   26.2200   48.8190 C   0  0  0  0  0  0  0  0  0  0  0  0
   44.6530   27.1930   48.4820 N   0  0  0  0  0  0  0  0  0  0  0  0
   44.3620   25.5230   50.1470 N   0  0  0  0  0  0  0  0  0  0  0  0
   48.7104   33.1096   42.9969 H   0  0  0  0  0  0  0  0  0  0  0  0
   44.2582   34.8329   44.2325 H   0  0  0  0  0  0  0  0  0  0  0  0
   47.9406   36.3998   41.7294 H   0  0  0  0  0  0  0  0  0  0  0  0
   48.0943   34.8521   40.8234 H   0  0  0  0  0  0  0  0  0  0  0  0
   49.5896   35.1685   43.4210 H   0  0  0  0  0  0  0  0  0  0  0  0
   50.0092   34.2168   41.9564 H   0  0  0  0  0  0  0  0  0  0  0  0
   50.2122   36.0016   41.9564 H   0  0  0  0  0  0  0  0  0  0  0  0
   45.8017   32.2020   47.7078 H   0  0  0  0  0  0  0  0  0  0  0  0
   44.3728   30.1717   48.7312 H   0  0  0  0  0  0  0  0  0  0  0  0
   43.3568   27.3976   45.3129 H   0  0  0  0  0  0  0  0  0  0  0  0
   44.9520   25.9420   50.8800 H   0  0  0  0  0  0  0  0  0  0  0  0
   43.8826   24.6281   50.3208 H   0  0  0  0  0  0  0  0  0  0  0  0
  1 10  1  0
  2  7  2  0
  2  3  1  0
  3  4  2  0
  4  5  1  0
  4  1  1  0
  6  5  2  0
  7  6  1  0
  8  9  1  0
  8  2  1  0
 10 11  1  0
 11 12  2  0
 13 15  1  0
 13 12  1  0
 14 10  2  0
 14 13  1  0
 15 19  1  0
 16 15  2  0
 16 17  1  0
 17 18  1  0
 18 20  1  0
 19 18  2  0
  3 21  1  0
  6 22  1  0
  8 23  1  0
  8 24  1  0
  9 25  1  0
  9 26  1  0
  9 27  1  0
 11 28  1  0
 12 29  1  0
 16 30  1  0
 20 31  1  0
 20 32  1  0
M  ISO  8  21  14  22  14  23   8  24   8  25   8  26   8  27   8  28  14
M  ISO  2  29  14  30  14
M  END
>  <minimizedAffinity>  (1) 
-4.99502563

>  <minimizedRMSD>  (1) 
0.0341974944

$$$$
