
     RDKit          3D

 33 35  0  0  0  0  0  0  0  0999 V2000
   47.3910   31.2620   44.6600 S   0  0  0  0  0  0  0  0  0  0  0  0
   47.2520   34.7460   42.6420 C   0  0  0  0  0  0  0  0  0  0  0  0
   47.7400   33.5200   43.1410 C   0  0  0  0  0  0  0  0  0  0  0  0
   46.9050   32.7970   43.9730 C   0  0  0  0  0  0  0  0  0  0  0  0
   45.6780   33.2940   44.2630 N   0  0  0  0  0  0  0  0  0  0  0  0
   45.2500   34.4770   43.7600 C   0  0  0  0  0  0  0  0  0  0  0  0
   46.0320   35.1800   42.9660 N   0  0  0  0  0  0  0  0  0  0  0  0
   48.2340   35.4350   41.7610 C   0  0  0  0  0  0  0  0  0  0  0  0
   49.6410   35.2290   42.2720 C   0  0  0  0  0  0  0  0  0  0  0  0
   46.3410   30.7100   45.9860 C   0  0  0  0  0  0  0  0  0  0  0  0
   45.7600   31.2670   47.1300 C   0  0  0  0  0  0  0  0  0  0  0  0
   45.0600   30.2340   47.7190 C   0  0  0  0  0  0  0  0  0  0  0  0
   45.2100   29.1310   46.9790 N   0  0  0  0  0  0  0  0  0  0  0  0
   45.9770   29.3950   45.9310 N   0  0  0  0  0  0  0  0  0  0  0  0
   44.5930   27.8940   47.3490 C   0  0  0  0  0  0  0  0  0  0  0  0
   43.8000   27.0680   46.4060 C   0  0  0  0  0  0  0  0  0  0  0  0
   43.3190   25.6520   47.5270 S   0  0  0  0  0  0  0  0  0  0  0  0
   44.2540   26.4390   48.9880 C   0  0  0  0  0  0  0  0  0  0  0  0
   44.6880   27.3950   48.5750 N   0  0  0  0  0  0  0  0  0  0  0  0
   44.2730   25.7460   50.3330 C   0  0  0  0  0  0  0  0  0  0  0  0
   48.7437   33.1541   42.8789 H   0  0  0  0  0  0  0  0  0  0  0  0
   44.2476   34.8514   44.0150 H   0  0  0  0  0  0  0  0  0  0  0  0
   48.0100   36.5118   41.7422 H   0  0  0  0  0  0  0  0  0  0  0  0
   48.1589   35.0137   40.7477 H   0  0  0  0  0  0  0  0  0  0  0  0
   49.6354   35.2298   43.3720 H   0  0  0  0  0  0  0  0  0  0  0  0
   50.0258   34.2649   41.9080 H   0  0  0  0  0  0  0  0  0  0  0  0
   50.2860   36.0423   41.9080 H   0  0  0  0  0  0  0  0  0  0  0  0
   45.8432   32.3052   47.4840 H   0  0  0  0  0  0  0  0  0  0  0  0
   44.4737   30.3064   48.6469 H   0  0  0  0  0  0  0  0  0  0  0  0
   43.5621   27.2403   45.3459 H   0  0  0  0  0  0  0  0  0  0  0  0
   44.2523   26.4996   51.1341 H   0  0  0  0  0  0  0  0  0  0  0  0
   43.3924   25.0927   50.4213 H   0  0  0  0  0  0  0  0  0  0  0  0
   45.1880   25.1419   50.4213 H   0  0  0  0  0  0  0  0  0  0  0  0
  1 10  1  0
  2  7  2  0
  2  3  1  0
  3  4  2  0
  4  5  1  0
  4  1  1  0
  6  5  2  0
  7  6  1  0
  8  9  1  0
  8  2  1  0
 10 11  1  0
 11 12  2  0
 13 15  1  0
 13 12  1  0
 14 10  2  0
 14 13  1  0
 15 19  1  0
 16 15  2  0
 16 17  1  0
 17 18  1  0
 18 20  1  0
 19 18  2  0
  3 21  1  0
  6 22  1  0
  8 23  1  0
  8 24  1  0
  9 25  1  0
  9 26  1  0
  9 27  1  0
 11 28  1  0
 12 29  1  0
 16 30  1  0
 20 31  1  0
 20 32  1  0
 20 33  1  0
M  ISO  8  21  14  22  14  23   8  24   8  25   8  26   8  27   8  28  14
M  ISO  5  29  14  30  14  31   8  32   8  33   8
M  END
>  <minimizedAffinity>  (1) 
-4.71330023

>  <minimizedRMSD>  (1) 
0.186452508

$$$$
