
     RDKit          3D

 34 37  0  0  1  0  0  0  0  0999 V2000
   44.5370   34.7210   41.9240 C   0  0  2  0  0  0  0  0  0  0  0  0
   43.0300   34.8190   41.5720 C   0  0  0  0  0  0  0  0  0  0  0  0
   43.2380   35.0600   40.0620 C   0  0  1  0  0  0  0  0  0  0  0  0
   44.1450   33.9000   39.7470 C   0  0  0  0  0  0  0  0  0  0  0  0
   44.9630   33.6650   41.0050 C   0  0  0  0  0  0  0  0  0  0  0  0
   41.9900   35.0070   39.3450 N   0  0  0  0  0  0  0  0  0  0  0  0
   41.8860   35.5720   38.1130 C   0  0  0  0  0  0  0  0  0  0  0  0
   40.6400   35.3970   37.6520 N   0  0  0  0  0  0  0  0  0  0  0  0
   39.9420   34.7250   38.5730 C   0  0  0  0  0  0  0  0  0  0  0  0
   38.6760   34.2280   38.7620 C   0  0  0  0  0  0  0  0  0  0  0  0
   38.2800   33.5650   39.8660 N   0  0  0  0  0  0  0  0  0  0  0  0
   39.1630   33.3560   40.8810 C   0  0  0  0  0  0  0  0  0  0  0  0
   40.4170   33.8160   40.7620 N   0  0  0  0  0  0  0  0  0  0  0  0
   40.7910   34.4750   39.6530 C   0  0  0  0  0  0  0  0  0  0  0  0
   44.3810   35.5550   44.2130 C   0  0  0  0  0  0  0  0  0  0  0  0
   44.7790   34.5180   43.3520 C   0  0  0  0  0  0  0  0  0  0  0  0
   45.4080   33.3550   43.8820 C   0  0  0  0  0  0  0  0  0  0  0  0
   45.5920   33.3200   45.2240 N   0  0  0  0  0  0  0  0  0  0  0  0
   45.2040   34.3310   46.0500 C   0  0  0  0  0  0  0  0  0  0  0  0
   44.6020   35.4430   45.5530 N   0  0  0  0  0  0  0  0  0  0  0  0
   45.1292   35.6374   41.7845 H   0  0  0  0  0  0  0  0  0  0  0  0
   42.4820   33.8889   41.7832 H   0  0  0  0  0  0  0  0  0  0  0  0
   42.4312   35.5596   42.1225 H   0  0  0  0  0  0  0  0  0  0  0  0
   43.6453   36.0435   39.7848 H   0  0  0  0  0  0  0  0  0  0  0  0
   43.5531   33.0059   39.5017 H   0  0  0  0  0  0  0  0  0  0  0  0
   44.7867   34.1103   38.8787 H   0  0  0  0  0  0  0  0  0  0  0  0
   44.7488   32.6724   41.4278 H   0  0  0  0  0  0  0  0  0  0  0  0
   46.0453   33.6925   40.8104 H   0  0  0  0  0  0  0  0  0  0  0  0
   42.6961   36.0905   37.5792 H   0  0  0  0  0  0  0  0  0  0  0  0
   37.9379   34.3809   37.9608 H   0  0  0  0  0  0  0  0  0  0  0  0
   38.8516   32.8164   41.7876 H   0  0  0  0  0  0  0  0  0  0  0  0
   43.8931   36.4534   43.8069 H   0  0  0  0  0  0  0  0  0  0  0  0
   45.7286   32.5261   43.2338 H   0  0  0  0  0  0  0  0  0  0  0  0
   45.3801   34.2462   47.1325 H   0  0  0  0  0  0  0  0  0  0  0  0
  1 16  1  0
  2  1  1  0
  3  2  1  0
  4  3  1  0
  4  5  1  0
  5  1  1  0
  6 14  1  0
  6  3  1  0
  7  6  1  0
  8  7  2  0
  8  9  1  0
  9 10  2  0
  9 14  1  0
 10 11  1  0
 11 12  2  0
 13 12  1  0
 14 13  2  0
 15 20  2  0
 16 17  2  0
 16 15  1  0
 17 18  1  0
 18 19  2  0
 20 19  1  0
  1 21  1  6
  2 22  1  0
  2 23  1  0
  3 24  1  1
  4 25  1  0
  4 26  1  0
  5 27  1  0
  5 28  1  0
  7 29  1  0
 10 30  1  0
 12 31  1  0
 15 32  1  0
 17 33  1  0
 19 34  1  0
M  ISO  8  21  13  22  13  23  13  24  13  25  13  26  13  27  13  28  13
M  ISO  6  29  14  30  14  31  14  32  14  33  14  34  14
M  END
>  <minimizedAffinity>  (1) 
-5.64108896

>  <minimizedRMSD>  (1) 
1.48695707

$$$$
