
     RDKit          3D

 30 31  0  0  1  0  0  0  0  0999 V2000
   42.7460   34.3880   41.4110 C   0  0  2  0  0  0  0  0  0  0  0  0
   43.5220   35.7120   41.5320 C   0  0  0  0  0  0  0  0  0  0  0  0
   44.6620   35.2010   42.4270 C   0  0  2  0  0  0  0  0  0  0  0  0
   45.0440   33.9360   41.7000 C   0  0  0  0  0  0  0  0  0  0  0  0
   43.7920   33.4620   40.9720 C   0  0  0  0  0  0  0  0  0  0  0  0
   40.3440   34.0600   41.1670 C   0  0  0  0  0  0  0  0  0  0  0  0
   41.5520   34.4870   40.5900 C   0  0  0  0  0  0  0  0  0  0  0  0
   41.5510   34.9430   39.2620 C   0  0  0  0  0  0  0  0  0  0  0  0
   40.3680   34.9520   38.5820 N   0  0  0  0  0  0  0  0  0  0  0  0
   39.2070   34.5330   39.1600 C   0  0  0  0  0  0  0  0  0  0  0  0
   39.1900   34.0880   40.4470 N   0  0  0  0  0  0  0  0  0  0  0  0
   44.1680   34.8570   43.7430 N   0  0  0  0  0  0  0  0  0  0  0  0
   44.4910   35.8250   44.7450 C   0  0  0  0  0  0  0  0  0  0  0  0
   44.8160   37.0640   44.5720 N   0  0  0  0  0  0  0  0  0  0  0  0
   44.4880   35.5000   46.1430 N   0  0  0  0  0  0  0  0  0  0  0  0
   44.8710   37.4830   43.6260 H   0  0  0  0  0  0  0  0  0  0  0  0
   42.2768   34.0377   42.3422 H   0  0  0  0  0  0  0  0  0  0  0  0
   43.8849   36.0742   40.5588 H   0  0  0  0  0  0  0  0  0  0  0  0
   42.9550   36.5744   41.9125 H   0  0  0  0  0  0  0  0  0  0  0  0
   45.4733   35.9282   42.5786 H   0  0  0  0  0  0  0  0  0  0  0  0
   45.8489   34.1403   40.9786 H   0  0  0  0  0  0  0  0  0  0  0  0
   45.4122   33.1706   42.3990 H   0  0  0  0  0  0  0  0  0  0  0  0
   43.5429   32.4292   41.2571 H   0  0  0  0  0  0  0  0  0  0  0  0
   43.9176   33.4572   39.8792 H   0  0  0  0  0  0  0  0  0  0  0  0
   40.3313   33.7011   42.2067 H   0  0  0  0  0  0  0  0  0  0  0  0
   42.4801   35.2842   38.7821 H   0  0  0  0  0  0  0  0  0  0  0  0
   38.2726   34.5545   38.5800 H   0  0  0  0  0  0  0  0  0  0  0  0
   43.6351   33.9977   43.9391 H   0  0  0  0  0  0  0  0  0  0  0  0
   44.7254   36.2205   46.8397 H   0  0  0  0  0  0  0  0  0  0  0  0
   44.2484   34.5463   46.4495 H   0  0  0  0  0  0  0  0  0  0  0  0
  1  2  1  0
  2  3  1  0
  3 12  1  0
  4  3  1  0
  5  1  1  0
  5  4  1  0
  7  6  2  0
  7  1  1  0
  8  7  1  0
  9 10  1  0
  9  8  2  0
 10 11  2  0
 11  6  1  0
 12 13  1  0
 13 15  1  0
 14 13  2  0
 16 14  1  0
  1 17  1  1
  2 18  1  0
  2 19  1  0
  3 20  1  1
  4 21  1  0
  4 22  1  0
  5 23  1  0
  5 24  1  0
  6 25  1  0
  8 26  1  0
 10 27  1  0
 12 28  1  0
 15 29  1  0
 15 30  1  0
M  ISO  8  17  13  18  13  19  13  20  13  21  13  22  13  23  13  24  13
M  ISO  3  25  14  26  14  27  14
M  END
>  <minimizedAffinity>  (1) 
-5.51246166

>  <minimizedRMSD>  (1) 
5.78035736

$$$$
