
     RDKit          3D

 34 36  0  0  1  0  0  0  0  0999 V2000
   44.1350   34.7550   41.4100 C   0  0  2  0  0  0  0  0  0  0  0  0
   42.6130   34.5910   41.1650 C   0  0  0  0  0  0  0  0  0  0  0  0
   42.6610   34.7940   39.6390 C   0  0  1  0  0  0  0  0  0  0  0  0
   43.7750   33.8410   39.2740 C   0  0  0  0  0  0  0  0  0  0  0  0
   44.6740   33.7430   40.5020 C   0  0  0  0  0  0  0  0  0  0  0  0
   41.4100   34.4490   39.0180 N   0  0  0  0  0  0  0  0  0  0  0  0
   40.7730   33.3590   39.4960 C   0  0  0  0  0  0  0  0  0  0  0  0
   39.5530   32.9820   38.9270 C   0  0  0  0  0  0  0  0  0  0  0  0
   39.1020   33.7900   37.8950 C   0  0  0  0  0  0  0  0  0  0  0  0
   37.8610   33.3960   37.3240 N   0  0  0  0  0  0  0  0  0  0  0  0
   39.7670   34.8750   37.4400 N   0  0  0  0  0  0  0  0  0  0  0  0
   40.9280   35.2040   38.0090 C   0  0  0  0  0  0  0  0  0  0  0  0
   41.5940   36.2110   37.6240 O   0  0  0  0  0  0  0  0  0  0  0  0
   44.2680   35.7800   43.6300 C   0  0  0  0  0  0  0  0  0  0  0  0
   44.4860   34.6610   42.8130 C   0  0  0  0  0  0  0  0  0  0  0  0
   45.0650   33.5140   43.4040 C   0  0  0  0  0  0  0  0  0  0  0  0
   45.3890   33.5280   44.7250 N   0  0  0  0  0  0  0  0  0  0  0  0
   45.1580   34.6400   45.4830 C   0  0  0  0  0  0  0  0  0  0  0  0
   44.6010   35.7600   44.9390 N   0  0  0  0  0  0  0  0  0  0  0  0
   44.5611   35.7456   41.1927 H   0  0  0  0  0  0  0  0  0  0  0  0
   42.2438   33.5942   41.4479 H   0  0  0  0  0  0  0  0  0  0  0  0
   41.9432   35.2523   41.7342 H   0  0  0  0  0  0  0  0  0  0  0  0
   42.8299   35.8302   39.3108 H   0  0  0  0  0  0  0  0  0  0  0  0
   43.3635   32.8522   39.0233 H   0  0  0  0  0  0  0  0  0  0  0  0
   44.3344   34.1972   38.3964 H   0  0  0  0  0  0  0  0  0  0  0  0
   44.6148   32.7411   40.9522 H   0  0  0  0  0  0  0  0  0  0  0  0
   45.7361   33.9053   40.2660 H   0  0  0  0  0  0  0  0  0  0  0  0
   41.2076   32.7759   40.3213 H   0  0  0  0  0  0  0  0  0  0  0  0
   38.9892   32.1038   39.2747 H   0  0  0  0  0  0  0  0  0  0  0  0
   37.4533   33.9416   36.5513 H   0  0  0  0  0  0  0  0  0  0  0  0
   37.3696   32.5650   37.6830 H   0  0  0  0  0  0  0  0  0  0  0  0
   43.8194   36.6870   43.1986 H   0  0  0  0  0  0  0  0  0  0  0  0
   45.2524   32.6150   42.7984 H   0  0  0  0  0  0  0  0  0  0  0  0
   45.4255   34.6325   46.5500 H   0  0  0  0  0  0  0  0  0  0  0  0
  1 15  1  0
  2  1  1  0
  3  2  1  0
  4  3  1  0
  4  5  1  0
  5  1  1  0
  6  7  1  0
  6  3  1  0
  8  7  2  0
  9  8  1  0
 10  9  1  0
 11  9  2  0
 11 12  1  0
 12  6  1  0
 13 12  2  0
 14 19  2  0
 15 16  2  0
 15 14  1  0
 16 17  1  0
 17 18  2  0
 19 18  1  0
  1 20  1  6
  2 21  1  0
  2 22  1  0
  3 23  1  1
  4 24  1  0
  4 25  1  0
  5 26  1  0
  5 27  1  0
  7 28  1  0
  8 29  1  0
 10 30  1  0
 10 31  1  0
 14 32  1  0
 16 33  1  0
 18 34  1  0
M  ISO  8  20  13  21  13  22  13  23  13  24  13  25  13  26  13  27  13
M  ISO  5  28  14  29  14  32  14  33  14  34  14
M  END
>  <minimizedAffinity>  (1) 
-5.50853395

>  <minimizedRMSD>  (1) 
1.04759276

$$$$
