
     RDKit          3D

 36 38  0  0  1  0  0  0  0  0999 V2000
   46.9530   35.0610   42.0530 C   0  0  2  0  0  0  0  0  0  0  0  0
   46.6130   33.9390   41.0420 C   0  0  0  0  0  0  0  0  0  0  0  0
   47.5820   34.4370   39.9450 C   0  0  1  0  0  0  0  0  0  0  0  0
   48.8490   34.5480   40.7520 C   0  0  0  0  0  0  0  0  0  0  0  0
   48.4030   34.9250   42.1620 C   0  0  0  0  0  0  0  0  0  0  0  0
   45.2350   36.0250   43.4950 C   0  0  0  0  0  0  0  0  0  0  0  0
   46.1610   34.9920   43.2770 C   0  0  0  0  0  0  0  0  0  0  0  0
   46.3150   33.9590   44.2430 C   0  0  0  0  0  0  0  0  0  0  0  0
   45.5330   34.0280   45.3620 N   0  0  0  0  0  0  0  0  0  0  0  0
   44.6410   35.0450   45.5460 C   0  0  0  0  0  0  0  0  0  0  0  0
   44.4870   36.0370   44.6280 N   0  0  0  0  0  0  0  0  0  0  0  0
   47.6580   33.5650   38.8340 N   0  0  0  0  0  0  0  0  0  0  0  0
   46.4400   32.9560   38.4120 C   0  0  0  0  0  0  0  0  0  0  0  0
   46.2200   33.0960   36.9160 C   0  0  0  0  0  0  0  0  0  0  0  0
   47.3270   32.7920   36.1690 O   0  0  0  0  0  0  0  0  0  0  0  0
   48.4940   33.3860   36.6030 C   0  0  0  0  0  0  0  0  0  0  0  0
   48.2970   34.3170   37.7520 C   0  0  0  0  0  0  0  0  0  0  0  0
   46.6810   36.0817   41.7460 H   0  0  0  0  0  0  0  0  0  0  0  0
   46.8676   32.9358   41.4145 H   0  0  0  0  0  0  0  0  0  0  0  0
   45.5566   33.8068   40.7654 H   0  0  0  0  0  0  0  0  0  0  0  0
   47.2916   35.3738   39.4470 H   0  0  0  0  0  0  0  0  0  0  0  0
   49.3837   33.5868   40.7621 H   0  0  0  0  0  0  0  0  0  0  0  0
   49.5381   35.2938   40.3290 H   0  0  0  0  0  0  0  0  0  0  0  0
   48.8617   35.8743   42.4758 H   0  0  0  0  0  0  0  0  0  0  0  0
   48.7016   34.1786   42.9128 H   0  0  0  0  0  0  0  0  0  0  0  0
   45.1158   36.8239   42.7483 H   0  0  0  0  0  0  0  0  0  0  0  0
   47.0333   33.1391   44.0956 H   0  0  0  0  0  0  0  0  0  0  0  0
   44.0306   35.0627   46.4609 H   0  0  0  0  0  0  0  0  0  0  0  0
   46.4710   31.8865   38.6674 H   0  0  0  0  0  0  0  0  0  0  0  0
   45.6110   33.4650   38.9255 H   0  0  0  0  0  0  0  0  0  0  0  0
   45.4040   32.4205   36.6196 H   0  0  0  0  0  0  0  0  0  0  0  0
   45.9796   34.1518   36.7223 H   0  0  0  0  0  0  0  0  0  0  0  0
   49.1932   32.5950   36.9119 H   0  0  0  0  0  0  0  0  0  0  0  0
   48.8833   33.9837   35.7657 H   0  0  0  0  0  0  0  0  0  0  0  0
   49.2692   34.7053   38.0898 H   0  0  0  0  0  0  0  0  0  0  0  0
   47.6681   35.1684   37.4528 H   0  0  0  0  0  0  0  0  0  0  0  0
  1  5  1  0
  1  7  1  0
  2  1  1  0
  3  4  1  0
  3  2  1  0
  4  5  1  0
  6 11  2  0
  7  6  1  0
  7  8  2  0
  8  9  1  0
  9 10  2  0
 11 10  1  0
 12  3  1  0
 13 12  1  0
 14 13  1  0
 15 16  1  0
 15 14  1  0
 16 17  1  0
 17 12  1  0
  1 18  1  6
  2 19  1  0
  2 20  1  0
  3 21  1  6
  4 22  1  0
  4 23  1  0
  5 24  1  0
  5 25  1  0
  6 26  1  0
  8 27  1  0
 10 28  1  0
 13 29  1  0
 13 30  1  0
 14 31  1  0
 14 32  1  0
 16 33  1  0
 16 34  1  0
 17 35  1  0
 17 36  1  0
M  ISO  8  18  13  19  13  20  13  21  13  22  13  23  13  24  13  25  13
M  ISO  8  26  14  27  14  28  14  29  13  30  13  31  13  32  13  33  13
M  ISO  3  34  13  35  13  36  13
M  END
>  <minimizedAffinity>  (1) 
-5.12958288

>  <minimizedRMSD>  (1) 
5.47476768

$$$$
