
     RDKit          3D

 30 32  0  0  1  0  0  0  0  0999 V2000
   44.0810   34.8840   41.3980 C   0  0  2  0  0  0  0  0  0  0  0  0
   42.5480   34.8800   41.1990 C   0  0  0  0  0  0  0  0  0  0  0  0
   42.5750   35.0780   39.6650 C   0  0  1  0  0  0  0  0  0  0  0  0
   43.5610   34.0040   39.2830 C   0  0  0  0  0  0  0  0  0  0  0  0
   44.5050   33.8400   40.4680 C   0  0  0  0  0  0  0  0  0  0  0  0
   44.2640   35.8430   43.6510 C   0  0  0  0  0  0  0  0  0  0  0  0
   44.4730   34.7300   42.8020 C   0  0  0  0  0  0  0  0  0  0  0  0
   45.0580   33.5430   43.3350 C   0  0  0  0  0  0  0  0  0  0  0  0
   45.3830   33.5590   44.6510 N   0  0  0  0  0  0  0  0  0  0  0  0
   45.1720   34.6430   45.4500 C   0  0  0  0  0  0  0  0  0  0  0  0
   44.6130   35.7780   44.9440 N   0  0  0  0  0  0  0  0  0  0  0  0
   41.2110   34.8420   39.1170 C   0  0  0  0  0  0  0  0  0  0  0  0
   40.0410   34.8400   39.8650 C   0  0  0  0  0  0  0  0  0  0  0  0
   39.0200   34.5880   39.0010 N   0  0  0  0  0  0  0  0  0  0  0  0
   39.6100   34.4530   37.7980 C   0  0  0  0  0  0  0  0  0  0  0  0
   40.9460   34.6000   37.8240 N   0  0  0  0  0  0  0  0  0  0  0  0
   44.5839   35.8366   41.1749 H   0  0  0  0  0  0  0  0  0  0  0  0
   42.0848   33.9272   41.4951 H   0  0  0  0  0  0  0  0  0  0  0  0
   41.9669   35.6068   41.7856 H   0  0  0  0  0  0  0  0  0  0  0  0
   42.8541   36.0758   39.2954 H   0  0  0  0  0  0  0  0  0  0  0  0
   43.0347   33.0590   39.0831 H   0  0  0  0  0  0  0  0  0  0  0  0
   44.1121   34.2769   38.3709 H   0  0  0  0  0  0  0  0  0  0  0  0
   44.3959   32.8436   40.9211 H   0  0  0  0  0  0  0  0  0  0  0  0
   45.5640   33.9278   40.1837 H   0  0  0  0  0  0  0  0  0  0  0  0
   43.8144   36.7631   43.2493 H   0  0  0  0  0  0  0  0  0  0  0  0
   45.2368   32.6570   42.7080 H   0  0  0  0  0  0  0  0  0  0  0  0
   45.4553   34.6012   46.5121 H   0  0  0  0  0  0  0  0  0  0  0  0
   39.9557   35.0096   40.9485 H   0  0  0  0  0  0  0  0  0  0  0  0
   39.0486   34.2413   36.8760 H   0  0  0  0  0  0  0  0  0  0  0  0
   41.6089   34.5409   37.0379 H   0  0  0  0  0  0  0  0  0  0  0  0
  1  7  1  0
  2  1  1  0
  3  2  1  0
  4  3  1  0
  4  5  1  0
  5  1  1  0
  6 11  2  0
  7  8  2  0
  7  6  1  0
  8  9  1  0
  9 10  2  0
 11 10  1  0
 12  3  1  0
 12 13  2  0
 14 13  1  0
 15 16  1  0
 15 14  2  0
 16 12  1  0
  1 17  1  6
  2 18  1  0
  2 19  1  0
  3 20  1  1
  4 21  1  0
  4 22  1  0
  5 23  1  0
  5 24  1  0
  6 25  1  0
  8 26  1  0
 10 27  1  0
 13 28  1  0
 15 29  1  0
 16 30  1  0
M  ISO  8  17  13  18  13  19  13  20  13  21  13  22  13  23  13  24  13
M  ISO  6  25  14  26  14  27  14  28  14  29  14  30   9
M  END
>  <minimizedAffinity>  (1) 
-4.98731136

>  <minimizedRMSD>  (1) 
0.575887144

$$$$
