
     RDKit          3D

 30 32  0  0  1  0  0  0  0  0999 V2000
   43.9140   34.9610   41.6550 C   0  0  2  0  0  0  0  0  0  0  0  0
   42.3850   34.7590   41.5090 C   0  0  0  0  0  0  0  0  0  0  0  0
   42.3000   35.1350   40.0120 C   0  0  1  0  0  0  0  0  0  0  0  0
   43.4020   34.2780   39.4610 C   0  0  0  0  0  0  0  0  0  0  0  0
   44.4240   34.1090   40.5820 C   0  0  0  0  0  0  0  0  0  0  0  0
   44.2070   35.7320   43.9520 C   0  0  0  0  0  0  0  0  0  0  0  0
   44.3920   34.7090   43.0080 C   0  0  0  0  0  0  0  0  0  0  0  0
   45.0490   33.5070   43.4000 C   0  0  0  0  0  0  0  0  0  0  0  0
   45.4670   33.4220   44.6880 N   0  0  0  0  0  0  0  0  0  0  0  0
   45.2800   34.4240   45.5910 C   0  0  0  0  0  0  0  0  0  0  0  0
   44.6520   35.5760   45.2270 N   0  0  0  0  0  0  0  0  0  0  0  0
   40.9700   34.8780   39.4620 C   0  0  0  0  0  0  0  0  0  0  0  0
   40.7680   34.6730   38.1140 C   0  0  0  0  0  0  0  0  0  0  0  0
   39.4040   34.4570   37.9170 C   0  0  0  0  0  0  0  0  0  0  0  0
   38.8320   34.5380   39.1490 N   0  0  0  0  0  0  0  0  0  0  0  0
   39.7870   34.7900   40.0570 N   0  0  0  0  0  0  0  0  0  0  0  0
   44.2752   35.9934   41.5379 H   0  0  0  0  0  0  0  0  0  0  0  0
   42.0753   33.7214   41.7025 H   0  0  0  0  0  0  0  0  0  0  0  0
   41.7412   35.3228   42.2001 H   0  0  0  0  0  0  0  0  0  0  0  0
   42.4296   36.2002   39.7698 H   0  0  0  0  0  0  0  0  0  0  0  0
   43.0053   33.2978   39.1580 H   0  0  0  0  0  0  0  0  0  0  0  0
   43.8588   34.7407   38.5737 H   0  0  0  0  0  0  0  0  0  0  0  0
   44.4776   33.0597   40.9076 H   0  0  0  0  0  0  0  0  0  0  0  0
   45.4431   34.3827   40.2714 H   0  0  0  0  0  0  0  0  0  0  0  0
   43.7001   36.6631   43.6587 H   0  0  0  0  0  0  0  0  0  0  0  0
   45.2104   32.6833   42.6890 H   0  0  0  0  0  0  0  0  0  0  0  0
   45.6394   34.3017   46.6234 H   0  0  0  0  0  0  0  0  0  0  0  0
   41.5432   34.6787   37.3336 H   0  0  0  0  0  0  0  0  0  0  0  0
   38.8952   34.2613   36.9616 H   0  0  0  0  0  0  0  0  0  0  0  0
   37.8285   34.4243   39.3516 H   0  0  0  0  0  0  0  0  0  0  0  0
  1  7  1  0
  2  1  1  0
  3  2  1  0
  4  3  1  0
  4  5  1  0
  5  1  1  0
  6 11  2  0
  7  8  2  0
  7  6  1  0
  8  9  1  0
  9 10  2  0
 11 10  1  0
 12  3  1  0
 12 16  2  0
 13 12  1  0
 14 13  2  0
 14 15  1  0
 15 16  1  0
  1 17  1  6
  2 18  1  0
  2 19  1  0
  3 20  1  1
  4 21  1  0
  4 22  1  0
  5 23  1  0
  5 24  1  0
  6 25  1  0
  8 26  1  0
 10 27  1  0
 13 28  1  0
 14 29  1  0
 15 30  1  0
M  ISO  8  17  13  18  13  19  13  20  13  21  13  22  13  23  13  24  13
M  ISO  6  25  14  26  14  27  14  28  14  29  14  30   9
M  END
>  <minimizedAffinity>  (1) 
-4.88356209

>  <minimizedRMSD>  (1) 
0.693124354

$$$$
