
     RDKit          3D

 30 32  0  0  1  0  0  0  0  0999 V2000
   43.8000   35.0830   41.2850 C   0  0  2  0  0  0  0  0  0  0  0  0
   42.2680   35.3320   41.2590 C   0  0  0  0  0  0  0  0  0  0  0  0
   42.1600   35.5340   39.7300 C   0  0  1  0  0  0  0  0  0  0  0  0
   42.8720   34.3000   39.2640 C   0  0  0  0  0  0  0  0  0  0  0  0
   43.9410   34.0060   40.3110 C   0  0  0  0  0  0  0  0  0  0  0  0
   44.1950   35.8710   43.5810 C   0  0  0  0  0  0  0  0  0  0  0  0
   44.2940   34.8280   42.6450 C   0  0  0  0  0  0  0  0  0  0  0  0
   44.8740   33.5920   43.0510 C   0  0  0  0  0  0  0  0  0  0  0  0
   45.3010   33.4980   44.3320 N   0  0  0  0  0  0  0  0  0  0  0  0
   45.1940   34.5260   45.2230 C   0  0  0  0  0  0  0  0  0  0  0  0
   44.6380   35.7080   44.8300 N   0  0  0  0  0  0  0  0  0  0  0  0
   40.7410   35.6590   39.2970 C   0  0  0  0  0  0  0  0  0  0  0  0
   40.3100   34.8200   38.1070 C   0  0  0  0  0  0  0  0  0  0  0  0
   39.6990   34.6590   39.5190 C   0  0  0  0  0  0  0  0  0  0  0  0
   44.4321   35.9402   41.0097 H   0  0  0  0  0  0  0  0  0  0  0  0
   41.6910   34.4656   41.6145 H   0  0  0  0  0  0  0  0  0  0  0  0
   41.8808   36.1383   41.8992 H   0  0  0  0  0  0  0  0  0  0  0  0
   42.5934   36.4576   39.3188 H   0  0  0  0  0  0  0  0  0  0  0  0
   42.1680   33.4580   39.1907 H   0  0  0  0  0  0  0  0  0  0  0  0
   43.3152   34.4445   38.2676 H   0  0  0  0  0  0  0  0  0  0  0  0
   43.7649   33.0283   40.7834 H   0  0  0  0  0  0  0  0  0  0  0  0
   44.9512   33.9615   39.8781 H   0  0  0  0  0  0  0  0  0  0  0  0
   43.7484   36.8308   43.2821 H   0  0  0  0  0  0  0  0  0  0  0  0
   44.9709   32.7482   42.3520 H   0  0  0  0  0  0  0  0  0  0  0  0
   45.5549   34.4019   46.2547 H   0  0  0  0  0  0  0  0  0  0  0  0
   40.7764   36.7235   39.5718 H   0  0  0  0  0  0  0  0  0  0  0  0
   39.7222   35.2675   37.2920 H   0  0  0  0  0  0  0  0  0  0  0  0
   40.8046   34.1647   37.3749 H   0  0  0  0  0  0  0  0  0  0  0  0
   39.9195   33.7596   40.1127 H   0  0  0  0  0  0  0  0  0  0  0  0
   38.6783   34.6817   39.9285 H   0  0  0  0  0  0  0  0  0  0  0  0
  1  7  1  0
  2  1  1  0
  3  2  1  0
  4  3  1  0
  4  5  1  0
  5  1  1  0
  6 11  2  0
  7  8  2  0
  7  6  1  0
  8  9  1  0
  9 10  2  0
 11 10  1  0
 12 14  1  0
 12  3  1  0
 13 12  1  0
 13 14  1  0
  1 15  1  6
  2 16  1  0
  2 17  1  0
  3 18  1  1
  4 19  1  0
  4 20  1  0
  5 21  1  0
  5 22  1  0
  6 23  1  0
  8 24  1  0
 10 25  1  0
 12 26  1  0
 13 27  1  0
 13 28  1  0
 14 29  1  0
 14 30  1  0
M  ISO  8  15  13  16  13  17  13  18  13  19  13  20  13  21  13  22  13
M  ISO  8  23  14  24  14  25  14  26  13  27  13  28  13  29  13  30  13
M  END
>  <minimizedAffinity>  (1) 
-4.68406725

>  <minimizedRMSD>  (1) 
0.521695793

$$$$
