
     RDKit          3D

 30 32  0  0  1  0  0  0  0  0999 V2000
   43.9670   34.8870   41.6020 C   0  0  2  0  0  0  0  0  0  0  0  0
   42.4390   34.7360   41.4280 C   0  0  0  0  0  0  0  0  0  0  0  0
   42.4010   35.0920   39.9240 C   0  0  1  0  0  0  0  0  0  0  0  0
   43.4940   34.1900   39.3980 C   0  0  0  0  0  0  0  0  0  0  0  0
   44.4740   33.9980   40.5550 C   0  0  0  0  0  0  0  0  0  0  0  0
   44.2180   35.7060   43.8780 C   0  0  0  0  0  0  0  0  0  0  0  0
   44.4160   34.6570   42.9630 C   0  0  0  0  0  0  0  0  0  0  0  0
   45.0600   33.4740   43.3950 C   0  0  0  0  0  0  0  0  0  0  0  0
   45.4590   33.4170   44.6920 N   0  0  0  0  0  0  0  0  0  0  0  0
   45.2610   34.4420   45.5650 C   0  0  0  0  0  0  0  0  0  0  0  0
   44.6420   35.5870   45.1670 N   0  0  0  0  0  0  0  0  0  0  0  0
   41.1140   34.8660   39.3540 N   0  0  0  0  0  0  0  0  0  0  0  0
   40.0350   34.7130   40.1430 C   0  0  0  0  0  0  0  0  0  0  0  0
   38.9480   34.5110   39.3180 C   0  0  0  0  0  0  0  0  0  0  0  0
   39.3740   34.5440   38.0220 N   0  0  0  0  0  0  0  0  0  0  0  0
   40.7100   34.7630   38.0750 C   0  0  0  0  0  0  0  0  0  0  0  0
   44.3603   35.9061   41.4722 H   0  0  0  0  0  0  0  0  0  0  0  0
   42.0890   33.7129   41.6298 H   0  0  0  0  0  0  0  0  0  0  0  0
   41.8003   35.3313   42.0971 H   0  0  0  0  0  0  0  0  0  0  0  0
   42.5678   36.1520   39.6820 H   0  0  0  0  0  0  0  0  0  0  0  0
   43.0743   33.2217   39.0877 H   0  0  0  0  0  0  0  0  0  0  0  0
   43.9892   34.6273   38.5185 H   0  0  0  0  0  0  0  0  0  0  0  0
   44.4749   32.9525   40.8968 H   0  0  0  0  0  0  0  0  0  0  0  0
   45.5120   34.2270   40.2721 H   0  0  0  0  0  0  0  0  0  0  0  0
   43.7173   36.6291   43.5507 H   0  0  0  0  0  0  0  0  0  0  0  0
   45.2310   32.6328   42.7072 H   0  0  0  0  0  0  0  0  0  0  0  0
   45.6054   34.3440   46.6051 H   0  0  0  0  0  0  0  0  0  0  0  0
   40.0220   34.7434   41.2425 H   0  0  0  0  0  0  0  0  0  0  0  0
   37.9115   34.3503   39.6493 H   0  0  0  0  0  0  0  0  0  0  0  0
   41.3694   34.8448   37.1984 H   0  0  0  0  0  0  0  0  0  0  0  0
  1  7  1  0
  2  1  1  0
  3  2  1  0
  4  3  1  0
  4  5  1  0
  5  1  1  0
  6 11  2  0
  7  8  2  0
  7  6  1  0
  8  9  1  0
  9 10  2  0
 11 10  1  0
 12  3  1  0
 12 13  1  0
 14 13  2  0
 15 16  2  0
 15 14  1  0
 16 12  1  0
  1 17  1  6
  2 18  1  0
  2 19  1  0
  3 20  1  1
  4 21  1  0
  4 22  1  0
  5 23  1  0
  5 24  1  0
  6 25  1  0
  8 26  1  0
 10 27  1  0
 13 28  1  0
 14 29  1  0
 16 30  1  0
M  ISO  8  17  13  18  13  19  13  20  13  21  13  22  13  23  13  24  13
M  ISO  6  25  14  26  14  27  14  28  14  29  14  30  14
M  END
>  <minimizedAffinity>  (1) 
-4.69405603

>  <minimizedRMSD>  (1) 
0.445864081

$$$$
