
     RDKit          3D

 47 49  0  0  1  0  0  0  0  0999 V2000
   44.1000   34.9040   41.8160 C   0  0  2  0  0  0  0  0  0  0  0  0
   42.5420   34.8830   41.6790 C   0  0  0  0  0  0  0  0  0  0  0  0
   42.5380   35.2680   40.1800 C   0  0  1  0  0  0  0  0  0  0  0  0
   43.4430   34.2040   39.6610 C   0  0  0  0  0  0  0  0  0  0  0  0
   44.4730   33.9720   40.7690 C   0  0  0  0  0  0  0  0  0  0  0  0
   44.2790   35.6090   44.1480 C   0  0  0  0  0  0  0  0  0  0  0  0
   44.5370   34.6280   43.1660 C   0  0  0  0  0  0  0  0  0  0  0  0
   45.2290   33.4360   43.5570 C   0  0  0  0  0  0  0  0  0  0  0  0
   45.6130   33.2890   44.8580 N   0  0  0  0  0  0  0  0  0  0  0  0
   45.3350   34.2750   45.7740 C   0  0  0  0  0  0  0  0  0  0  0  0
   44.6750   35.4330   45.4430 N   0  0  0  0  0  0  0  0  0  0  0  0
   41.1620   35.3460   39.6310 C   0  0  0  0  0  0  0  0  0  0  0  0
   40.3390   36.3580   40.3340 C   0  0  0  0  0  0  0  0  0  0  0  0
   41.3630   35.8650   38.1870 C   0  0  0  0  0  0  0  0  0  0  0  0
   40.5440   34.0050   39.4580 C   0  0  0  0  0  0  0  0  0  0  0  0
   39.9390   33.7030   38.2240 N   0  0  0  0  0  0  0  0  0  0  0  0
   38.5770   34.0620   38.0370 C   0  0  0  0  0  0  0  0  0  0  0  0
   37.9990   32.9590   37.1420 C   0  0  0  0  0  0  0  0  0  0  0  0
   38.7440   31.7530   37.6480 C   0  0  0  0  0  0  0  0  0  0  0  0
   40.1280   32.3160   37.8900 C   0  0  0  0  0  0  0  0  0  0  0  0
   44.5998   35.8735   41.6735 H   0  0  0  0  0  0  0  0  0  0  0  0
   42.1072   33.8906   41.8690 H   0  0  0  0  0  0  0  0  0  0  0  0
   41.9579   35.5079   42.3706 H   0  0  0  0  0  0  0  0  0  0  0  0
   42.8888   36.2733   39.9037 H   0  0  0  0  0  0  0  0  0  0  0  0
   42.8780   33.2816   39.4612 H   0  0  0  0  0  0  0  0  0  0  0  0
   43.9194   34.4976   38.7140 H   0  0  0  0  0  0  0  0  0  0  0  0
   44.4227   32.9360   41.1353 H   0  0  0  0  0  0  0  0  0  0  0  0
   45.5042   34.1281   40.4194 H   0  0  0  0  0  0  0  0  0  0  0  0
   43.7499   36.5310   43.8651 H   0  0  0  0  0  0  0  0  0  0  0  0
   45.4476   32.6504   42.8188 H   0  0  0  0  0  0  0  0  0  0  0  0
   45.6547   34.1306   46.8166 H   0  0  0  0  0  0  0  0  0  0  0  0
   40.4458   36.2267   41.4209 H   0  0  0  0  0  0  0  0  0  0  0  0
   40.6769   37.3660   40.0515 H   0  0  0  0  0  0  0  0  0  0  0  0
   39.2833   36.2326   40.0515 H   0  0  0  0  0  0  0  0  0  0  0  0
   41.7601   36.8904   38.2179 H   0  0  0  0  0  0  0  0  0  0  0  0
   42.0734   35.2124   37.6584 H   0  0  0  0  0  0  0  0  0  0  0  0
   40.3984   35.8611   37.6584 H   0  0  0  0  0  0  0  0  0  0  0  0
   41.3344   33.2583   39.6245 H   0  0  0  0  0  0  0  0  0  0  0  0
   39.7121   33.9948   40.1776 H   0  0  0  0  0  0  0  0  0  0  0  0
   38.0491   34.0944   39.0015 H   0  0  0  0  0  0  0  0  0  0  0  0
   38.4692   35.0600   37.5871 H   0  0  0  0  0  0  0  0  0  0  0  0
   38.2124   33.1485   36.0797 H   0  0  0  0  0  0  0  0  0  0  0  0
   36.9039   32.8663   37.1892 H   0  0  0  0  0  0  0  0  0  0  0  0
   38.2999   31.3705   38.5788 H   0  0  0  0  0  0  0  0  0  0  0  0
   38.7278   30.8990   36.9549 H   0  0  0  0  0  0  0  0  0  0  0  0
   40.6164   31.7859   38.7209 H   0  0  0  0  0  0  0  0  0  0  0  0
   40.7712   32.1985   37.0054 H   0  0  0  0  0  0  0  0  0  0  0  0
  1  7  1  0
  2  1  1  0
  3  2  1  0
  4  3  1  0
  4  5  1  0
  5  1  1  0
  6 11  2  0
  7  8  2  0
  7  6  1  0
  8  9  1  0
  9 10  2  0
 11 10  1  0
 12  3  1  0
 12 13  1  0
 14 12  1  0
 15 12  1  0
 16 15  1  0
 17 16  1  0
 18 19  1  0
 18 17  1  0
 19 20  1  0
 20 16  1  0
  1 21  1  6
  2 22  1  0
  2 23  1  0
  3 24  1  1
  4 25  1  0
  4 26  1  0
  5 27  1  0
  5 28  1  0
  6 29  1  0
  8 30  1  0
 10 31  1  0
 13 32  1  0
 13 33  1  0
 13 34  1  0
 14 35  1  0
 14 36  1  0
 14 37  1  0
 15 38  1  0
 15 39  1  0
 17 40  1  0
 17 41  1  0
 18 42  1  0
 18 43  1  0
 19 44  1  0
 19 45  1  0
 20 46  1  0
 20 47  1  0
M  ISO  8  21  13  22  13  23  13  24  13  25  13  26  13  27  13  28  13
M  ISO  8  29  14  30  14  31  14  32   8  33   8  34   8  35   8  36   8
M  ISO  8  37   8  38   8  39   8  40  13  41  13  42  13  43  13  44  13
M  ISO  3  45  13  46  13  47  13
M  END
>  <minimizedAffinity>  (1) 
-5.74279594

>  <minimizedRMSD>  (1) 
2.09601545

$$$$
