
     RDKit          3D

 42 44  0  0  1  0  0  0  0  0999 V2000
   44.2620   34.6980   40.8310 C   0  0  2  0  0  0  0  0  0  0  0  0
   42.8720   34.7750   41.5430 C   0  0  0  0  0  0  0  0  0  0  0  0
   42.0640   35.0660   40.2970 C   0  0  1  0  0  0  0  0  0  0  0  0
   42.5310   34.0060   39.3760 C   0  0  0  0  0  0  0  0  0  0  0  0
   43.9930   33.7390   39.7880 C   0  0  0  0  0  0  0  0  0  0  0  0
   45.0020   34.1490   43.0970 C   0  0  0  0  0  0  0  0  0  0  0  0
   45.3360   34.4350   41.7740 C   0  0  0  0  0  0  0  0  0  0  0  0
   46.7100   34.4920   41.4270 C   0  0  0  0  0  0  0  0  0  0  0  0
   47.6440   34.2690   42.3820 N   0  0  0  0  0  0  0  0  0  0  0  0
   47.2950   33.9960   43.6600 C   0  0  0  0  0  0  0  0  0  0  0  0
   45.9780   33.9320   44.0260 N   0  0  0  0  0  0  0  0  0  0  0  0
   40.6290   35.2210   40.5670 C   0  0  0  0  0  0  0  0  0  0  0  0
   40.2150   36.6410   40.7140 C   0  0  0  0  0  0  0  0  0  0  0  0
   39.9760   34.7270   39.2470 C   0  0  0  0  0  0  0  0  0  0  0  0
   40.1050   34.3400   41.6100 C   0  0  0  0  0  0  0  0  0  0  0  0
   39.2930   33.1870   41.3720 C   0  0  0  0  0  0  0  0  0  0  0  0
   39.9690   31.9740   41.7120 C   0  0  0  0  0  0  0  0  0  0  0  0
   39.2390   30.8420   41.5290 N   0  0  0  0  0  0  0  0  0  0  0  0
   38.0550   31.2670   41.0610 C   0  0  0  0  0  0  0  0  0  0  0  0
   38.1460   32.5940   40.9930 N   0  0  0  0  0  0  0  0  0  0  0  0
   44.6536   35.6253   40.3875 H   0  0  0  0  0  0  0  0  0  0  0  0
   42.5873   33.8259   42.0207 H   0  0  0  0  0  0  0  0  0  0  0  0
   42.7770   35.4859   42.3770 H   0  0  0  0  0  0  0  0  0  0  0  0
   42.2202   36.0479   39.8264 H   0  0  0  0  0  0  0  0  0  0  0  0
   42.4795   34.3497   38.3323 H   0  0  0  0  0  0  0  0  0  0  0  0
   41.9107   33.0997   39.4388 H   0  0  0  0  0  0  0  0  0  0  0  0
   44.1079   32.7125   40.1662 H   0  0  0  0  0  0  0  0  0  0  0  0
   44.6883   33.8396   38.9416 H   0  0  0  0  0  0  0  0  0  0  0  0
   43.9442   34.0979   43.3943 H   0  0  0  0  0  0  0  0  0  0  0  0
   47.0137   34.7149   40.3935 H   0  0  0  0  0  0  0  0  0  0  0  0
   48.0781   33.8236   44.4130 H   0  0  0  0  0  0  0  0  0  0  0  0
   40.1416   36.8928   41.7823 H   0  0  0  0  0  0  0  0  0  0  0  0
   40.9608   37.2919   40.2343 H   0  0  0  0  0  0  0  0  0  0  0  0
   39.2363   36.7891   40.2343 H   0  0  0  0  0  0  0  0  0  0  0  0
   39.1190   34.0787   39.4821 H   0  0  0  0  0  0  0  0  0  0  0  0
   39.6314   35.5925   38.6621 H   0  0  0  0  0  0  0  0  0  0  0  0
   40.7151   34.1600   38.6621 H   0  0  0  0  0  0  0  0  0  0  0  0
   40.9869   33.9716   42.1546 H   0  0  0  0  0  0  0  0  0  0  0  0
   39.3715   35.0071   42.0863 H   0  0  0  0  0  0  0  0  0  0  0  0
   41.0009   31.9580   42.0926 H   0  0  0  0  0  0  0  0  0  0  0  0
   37.1879   30.6469   40.7895 H   0  0  0  0  0  0  0  0  0  0  0  0
   37.3519   33.1568   40.6560 H   0  0  0  0  0  0  0  0  0  0  0  0
  1  2  1  0
  1  7  1  0
  3 12  1  0
  3  2  1  0
  4  5  1  0
  4  3  1  0
  5  1  1  0
  6 11  2  0
  7  6  1  0
  8  7  2  0
  8  9  1  0
  9 10  2  0
 10 11  1  0
 12 13  1  0
 12 15  1  0
 14 12  1  0
 16 15  1  0
 16 17  2  0
 18 17  1  0
 19 18  2  0
 20 19  1  0
 20 16  1  0
  1 21  1  6
  2 22  1  0
  2 23  1  0
  3 24  1  6
  4 25  1  0
  4 26  1  0
  5 27  1  0
  5 28  1  0
  6 29  1  0
  8 30  1  0
 10 31  1  0
 13 32  1  0
 13 33  1  0
 13 34  1  0
 14 35  1  0
 14 36  1  0
 14 37  1  0
 15 38  1  0
 15 39  1  0
 17 40  1  0
 19 41  1  0
 20 42  1  0
M  ISO  8  21  13  22  13  23  13  24  13  25  13  26  13  27  13  28  13
M  ISO  8  29  14  30  14  31  14  32   8  33   8  34   8  35   8  36   8
M  ISO  6  37   8  38   8  39   8  40  14  41  14  42   9
M  END
>  <minimizedAffinity>  (1) 
-5.8315568

>  <minimizedRMSD>  (1) 
2.55871415

$$$$
