
     RDKit          3D

 36 37  0  0  1  0  0  0  0  0999 V2000
   44.0840   34.7780   41.2840 C   0  0  2  0  0  0  0  0  0  0  0  0
   42.5420   34.9720   41.0890 C   0  0  0  0  0  0  0  0  0  0  0  0
   42.6210   35.1360   39.5520 C   0  0  1  0  0  0  0  0  0  0  0  0
   43.3860   33.9050   39.2050 C   0  0  0  0  0  0  0  0  0  0  0  0
   44.3330   33.6660   40.3870 C   0  0  0  0  0  0  0  0  0  0  0  0
   44.2610   35.7830   43.4890 C   0  0  0  0  0  0  0  0  0  0  0  0
   44.4570   34.6620   42.6820 C   0  0  0  0  0  0  0  0  0  0  0  0
   45.0290   33.4660   43.2300 C   0  0  0  0  0  0  0  0  0  0  0  0
   45.3650   33.4820   44.5470 N   0  0  0  0  0  0  0  0  0  0  0  0
   45.1650   34.5950   45.3250 C   0  0  0  0  0  0  0  0  0  0  0  0
   44.6210   35.7340   44.8090 N   0  0  0  0  0  0  0  0  0  0  0  0
   41.2900   35.2880   38.9440 C   0  0  0  0  0  0  0  0  0  0  0  0
   41.3240   36.1270   37.7150 C   0  0  0  0  0  0  0  0  0  0  0  0
   40.8530   33.8860   38.5370 C   0  0  0  0  0  0  0  0  0  0  0  0
   40.2860   35.7700   39.9480 C   0  0  0  0  0  0  0  0  0  0  0  0
   39.1390   34.9900   39.8780 O   0  0  0  0  0  0  0  0  0  0  0  0
   44.7358   35.6257   41.0259 H   0  0  0  0  0  0  0  0  0  0  0  0
   41.9565   34.0933   41.3974 H   0  0  0  0  0  0  0  0  0  0  0  0
   42.0501   35.7704   41.6640 H   0  0  0  0  0  0  0  0  0  0  0  0
   43.1070   36.0462   39.1709 H   0  0  0  0  0  0  0  0  0  0  0  0
   42.7042   33.0510   39.0796 H   0  0  0  0  0  0  0  0  0  0  0  0
   43.9346   34.0181   38.2583 H   0  0  0  0  0  0  0  0  0  0  0  0
   44.1047   32.7099   40.8807 H   0  0  0  0  0  0  0  0  0  0  0  0
   45.3860   33.6095   40.0739 H   0  0  0  0  0  0  0  0  0  0  0  0
   43.8207   36.6990   43.0681 H   0  0  0  0  0  0  0  0  0  0  0  0
   45.1892   32.5720   42.6094 H   0  0  0  0  0  0  0  0  0  0  0  0
   45.4496   34.5676   46.3872 H   0  0  0  0  0  0  0  0  0  0  0  0
   41.3670   37.1893   37.9973 H   0  0  0  0  0  0  0  0  0  0  0  0
   42.2124   35.8695   37.1197 H   0  0  0  0  0  0  0  0  0  0  0  0
   40.4176   35.9422   37.1197 H   0  0  0  0  0  0  0  0  0  0  0  0
   40.6654   33.2842   39.4385 H   0  0  0  0  0  0  0  0  0  0  0  0
   39.9316   33.9481   37.9394 H   0  0  0  0  0  0  0  0  0  0  0  0
   41.6465   33.4136   37.9394 H   0  0  0  0  0  0  0  0  0  0  0  0
   40.7158   35.6976   40.9580 H   0  0  0  0  0  0  0  0  0  0  0  0
   40.0274   36.8166   39.7294 H   0  0  0  0  0  0  0  0  0  0  0  0
   38.8276   34.7782   40.7936 H   0  0  0  0  0  0  0  0  0  0  0  0
  1  7  1  0
  2  1  1  0
  3  2  1  0
  4  3  1  0
  4  5  1  0
  5  1  1  0
  6 11  2  0
  7  8  2  0
  7  6  1  0
  8  9  1  0
  9 10  2  0
 11 10  1  0
 12  3  1  0
 12 15  1  0
 13 12  1  0
 14 12  1  0
 16 15  1  0
  1 17  1  6
  2 18  1  0
  2 19  1  0
  3 20  1  1
  4 21  1  0
  4 22  1  0
  5 23  1  0
  5 24  1  0
  6 25  1  0
  8 26  1  0
 10 27  1  0
 13 28  1  0
 13 29  1  0
 13 30  1  0
 14 31  1  0
 14 32  1  0
 14 33  1  0
 15 34  1  0
 15 35  1  0
 16 36  1  0
M  ISO  8  17  13  18  13  19  13  20  13  21  13  22  13  23  13  24  13
M  ISO  8  25  14  26  14  27  14  28   8  29   8  30   8  31   8  32   8
M  ISO  4  33   8  34   8  35   8  36   3
M  END
>  <minimizedAffinity>  (1) 
-4.96108294

>  <minimizedRMSD>  (1) 
0.483127385

$$$$
