
     RDKit          3D

 33 35  0  0  0  0  0  0  0  0999 V2000
   47.0700   32.8200   44.0030 C   0  0  0  0  0  0  0  0  0  0  0  0
   47.8080   32.7620   42.8900 N   0  0  0  0  0  0  0  0  0  0  0  0
   47.7900   33.6890   41.9330 C   0  0  0  0  0  0  0  0  0  0  0  0
   47.0100   34.7680   42.0310 N   0  0  0  0  0  0  0  0  0  0  0  0
   46.2230   34.9340   43.1070 C   0  0  0  0  0  0  0  0  0  0  0  0
   45.4100   36.0470   43.2210 C   0  0  0  0  0  0  0  0  0  0  0  0
   44.6040   36.2260   44.3130 C   0  0  0  0  0  0  0  0  0  0  0  0
   44.6280   35.2610   45.2980 C   0  0  0  0  0  0  0  0  0  0  0  0
   45.4580   34.1650   45.1410 C   0  0  0  0  0  0  0  0  0  0  0  0
   46.2780   33.9470   44.0670 C   0  0  0  0  0  0  0  0  0  0  0  0
   47.1850   29.3590   45.3220 C   0  0  0  0  0  0  0  0  0  0  0  0
   47.1530   30.5060   44.5250 C   0  0  0  0  0  0  0  0  0  0  0  0
   47.0930   31.8000   45.0470 C   0  0  0  0  0  0  0  0  0  0  0  0
   47.0720   31.8050   46.3920 N   0  0  0  0  0  0  0  0  0  0  0  0
   47.1000   30.7290   47.1790 C   0  0  0  0  0  0  0  0  0  0  0  0
   47.1570   29.5150   46.6490 N   0  0  0  0  0  0  0  0  0  0  0  0
   47.0630   31.0870   48.6240 C   0  0  0  0  0  0  0  0  0  0  0  0
   48.4550   31.6560   48.9310 C   0  0  0  0  0  0  0  0  0  0  0  0
   46.0770   32.1820   48.8700 C   0  0  0  0  0  0  0  0  0  0  0  0
   48.4291   33.5630   41.0466 H   0  0  0  0  0  0  0  0  0  0  0  0
   45.4110   36.8014   42.4205 H   0  0  0  0  0  0  0  0  0  0  0  0
   43.9576   37.1116   44.4020 H   0  0  0  0  0  0  0  0  0  0  0  0
   43.9976   35.3609   46.1939 H   0  0  0  0  0  0  0  0  0  0  0  0
   45.4589   33.4104   45.9414 H   0  0  0  0  0  0  0  0  0  0  0  0
   47.2319   28.3570   44.8706 H   0  0  0  0  0  0  0  0  0  0  0  0
   47.1762   30.3838   43.4321 H   0  0  0  0  0  0  0  0  0  0  0  0
   46.7885   30.2150   49.2358 H   0  0  0  0  0  0  0  0  0  0  0  0
   48.5955   31.7134   50.0205 H   0  0  0  0  0  0  0  0  0  0  0  0
   49.2234   30.9998   48.4963 H   0  0  0  0  0  0  0  0  0  0  0  0
   48.5437   32.6626   48.4963 H   0  0  0  0  0  0  0  0  0  0  0  0
   45.9493   32.3238   49.9533 H   0  0  0  0  0  0  0  0  0  0  0  0
   46.4453   33.1152   48.4189 H   0  0  0  0  0  0  0  0  0  0  0  0
   45.1104   31.9132   48.4189 H   0  0  0  0  0  0  0  0  0  0  0  0
  1 10  1  0
  1 13  1  0
  2  1  2  0
  3  4  2  0
  3  2  1  0
  4  5  1  0
  5  6  1  0
  5 10  2  0
  6  7  2  0
  7  8  1  0
  9  8  2  0
 10  9  1  0
 11 16  2  0
 12 13  2  0
 12 11  1  0
 13 14  1  0
 14 15  2  0
 15 17  1  0
 16 15  1  0
 17 19  1  0
 17 18  1  0
  3 20  1  0
  6 21  1  0
  7 22  1  0
  8 23  1  0
  9 24  1  0
 11 25  1  0
 12 26  1  0
 17 27  1  0
 18 28  1  0
 18 29  1  0
 18 30  1  0
 19 31  1  0
 19 32  1  0
 19 33  1  0
M  ISO  8  20  14  21  14  22  14  23  14  24  14  25  14  26  14  27   8
M  ISO  6  28   8  29   8  30   8  31   8  32   8  33   8
M  END
>  <minimizedAffinity>  (1) 
-5.40451145

>  <minimizedRMSD>  (1) 
1.73199248

$$$$
