
     RDKit          3D

 38 40  0  0  0  0  0  0  0  0999 V2000
   44.7420   35.9610   43.1400 C   0  0  0  0  0  0  0  0  0  0  0  0
   45.9460   35.3540   42.7630 C   0  0  0  0  0  0  0  0  0  0  0  0
   45.9680   34.4320   41.7000 C   0  0  0  0  0  0  0  0  0  0  0  0
   44.7660   34.1960   41.1010 N   0  0  0  0  0  0  0  0  0  0  0  0
   43.6240   34.7790   41.4680 C   0  0  0  0  0  0  0  0  0  0  0  0
   43.6230   35.6450   42.4710 N   0  0  0  0  0  0  0  0  0  0  0  0
   42.4270   34.4580   40.7720 N   0  0  0  0  0  0  0  0  0  0  0  0
   41.8320   35.3790   39.8220 C   0  0  0  0  0  0  0  0  0  0  0  0
   40.6140   34.6980   39.2060 C   0  0  0  0  0  0  0  0  0  0  0  0
   39.6500   34.3500   40.3200 C   0  0  0  0  0  0  0  0  0  0  0  0
   40.3240   33.5660   41.3990 C   0  0  0  0  0  0  0  0  0  0  0  0
   41.7260   33.2030   40.9650 C   0  0  0  0  0  0  0  0  0  0  0  0
   47.2140   33.7550   41.2510 C   0  0  0  0  0  0  0  0  0  0  0  0
   48.0320   33.1470   42.1160 C   0  0  0  0  0  0  0  0  0  0  0  0
   49.3600   32.5060   41.0570 S   0  0  0  0  0  0  0  0  0  0  0  0
   48.5280   33.2180   39.5260 C   0  0  0  0  0  0  0  0  0  0  0  0
   47.5950   33.7030   40.0180 N   0  0  0  0  0  0  0  0  0  0  0  0
   49.1930   33.0000   38.2670 N   0  0  0  0  0  0  0  0  0  0  0  0
   49.9910   31.8720   38.0000 C   0  0  0  0  0  0  0  0  0  0  0  0
   49.7590   30.8140   38.7150 N   0  0  0  0  0  0  0  0  0  0  0  0
   50.9670   32.0420   36.9640 N   0  0  0  0  0  0  0  0  0  0  0  0
   50.3410   29.9770   38.4850 H   0  0  0  0  0  0  0  0  0  0  0  0
   44.7141   36.6834   43.9691 H   0  0  0  0  0  0  0  0  0  0  0  0
   46.8756   35.5980   43.2981 H   0  0  0  0  0  0  0  0  0  0  0  0
   41.5236   36.3002   40.3380 H   0  0  0  0  0  0  0  0  0  0  0  0
   42.5585   35.6439   39.0397 H   0  0  0  0  0  0  0  0  0  0  0  0
   40.1277   35.3798   38.4927 H   0  0  0  0  0  0  0  0  0  0  0  0
   40.9195   33.7869   38.6707 H   0  0  0  0  0  0  0  0  0  0  0  0
   39.2494   35.2798   40.7501 H   0  0  0  0  0  0  0  0  0  0  0  0
   38.8413   33.7348   39.8986 H   0  0  0  0  0  0  0  0  0  0  0  0
   40.3704   34.1713   42.3163 H   0  0  0  0  0  0  0  0  0  0  0  0
   39.7527   32.6460   41.5921 H   0  0  0  0  0  0  0  0  0  0  0  0
   41.6986   32.6329   40.0247 H   0  0  0  0  0  0  0  0  0  0  0  0
   42.2280   32.5745   41.7153 H   0  0  0  0  0  0  0  0  0  0  0  0
   47.9260   33.0568   43.2072 H   0  0  0  0  0  0  0  0  0  0  0  0
   49.0787   33.7051   37.5249 H   0  0  0  0  0  0  0  0  0  0  0  0
   51.5896   31.2618   36.7100 H   0  0  0  0  0  0  0  0  0  0  0  0
   51.0457   32.9444   36.4736 H   0  0  0  0  0  0  0  0  0  0  0  0
  2  1  2  0
  3  2  1  0
  4  5  1  0
  4  3  2  0
  5  6  2  0
  6  1  1  0
  7 12  1  0
  7  5  1  0
  8  7  1  0
  9  8  1  0
  9 10  1  0
 10 11  1  0
 12 11  1  0
 13  3  1  0
 13 14  2  0
 15 14  1  0
 16 17  2  0
 16 15  1  0
 17 13  1  0
 18 16  1  0
 19 18  1  0
 19 20  2  0
 21 19  1  0
 22 20  1  0
  1 23  1  0
  2 24  1  0
  8 25  1  0
  8 26  1  0
  9 27  1  0
  9 28  1  0
 10 29  1  0
 10 30  1  0
 11 31  1  0
 11 32  1  0
 12 33  1  0
 12 34  1  0
 14 35  1  0
 18 36  1  0
 21 37  1  0
 21 38  1  0
M  ISO  8  23  14  24  14  25  13  26  13  27  13  28  13  29  13  30  13
M  ISO  5  31  13  32  13  33  13  34  13  35  14
M  END
>  <minimizedAffinity>  (1) 
-5.73527718

>  <minimizedRMSD>  (1) 
5.23831272

$$$$
