
     RDKit          3D

 56 60  0  0  1  0  0  0  0  0999 V2000
   42.2200   34.2010   39.0170 C   0  0  0  0  0  0  0  0  0  0  0  0
   44.6770   34.4720   41.7530 C   0  0  2  0  0  0  0  0  0  0  0  0
   43.1790   34.2500   41.3130 C   0  0  0  0  0  0  0  0  0  0  0  0
   43.4370   34.4390   39.8160 C   0  0  1  0  0  0  0  0  0  0  0  0
   44.5760   33.4970   39.6180 C   0  0  0  0  0  0  0  0  0  0  0  0
   45.3790   33.5400   40.9270 C   0  0  0  0  0  0  0  0  0  0  0  0
   44.4080   35.5710   43.9090 C   0  0  0  0  0  0  0  0  0  0  0  0
   44.8200   34.4590   43.1950 C   0  0  0  0  0  0  0  0  0  0  0  0
   45.3980   33.3220   43.8750 C   0  0  0  0  0  0  0  0  0  0  0  0
   45.5230   33.3830   45.2290 N   0  0  0  0  0  0  0  0  0  0  0  0
   45.1030   34.5100   45.9150 C   0  0  0  0  0  0  0  0  0  0  0  0
   44.5570   35.5810   45.2770 N   0  0  0  0  0  0  0  0  0  0  0  0
   41.9750   35.3310   38.0540 C   0  0  0  0  0  0  0  0  0  0  0  0
   42.5190   32.9850   38.1570 C   0  0  0  0  0  0  0  0  0  0  0  0
   41.0560   33.8750   39.8590 C   0  0  0  0  0  0  0  0  0  0  0  0
   39.8770   34.7360   39.4690 C   0  0  2  0  0  0  0  0  0  0  0  0
   38.7160   34.9270   40.3810 C   0  0  0  0  0  0  0  0  0  0  0  0
   38.5310   33.9940   39.2530 C   0  0  2  0  0  0  0  0  0  0  0  0
   38.4740   32.5560   39.6350 C   0  0  0  0  0  0  0  0  0  0  0  0
   38.3520   32.2050   40.9490 N   0  0  0  0  0  0  0  0  0  0  0  0
   38.2960   30.9500   41.3790 C   0  0  0  0  0  0  0  0  0  0  0  0
   38.3600   29.9000   40.5160 N   0  0  0  0  0  0  0  0  0  0  0  0
   38.4800   30.1910   39.2130 C   0  0  0  0  0  0  0  0  0  0  0  0
   38.5430   29.1330   38.3260 C   0  0  0  0  0  0  0  0  0  0  0  0
   38.6660   29.3970   36.9780 C   0  0  0  0  0  0  0  0  0  0  0  0
   38.7240   30.7130   36.5400 C   0  0  0  0  0  0  0  0  0  0  0  0
   38.6600   31.7670   37.4320 C   0  0  0  0  0  0  0  0  0  0  0  0
   38.5380   31.5100   38.7670 C   0  0  0  0  0  0  0  0  0  0  0  0
   45.1223   35.4632   41.5820 H   0  0  0  0  0  0  0  0  0  0  0  0
   42.8062   33.2447   41.5586 H   0  0  0  0  0  0  0  0  0  0  0  0
   42.4139   34.8877   41.7799 H   0  0  0  0  0  0  0  0  0  0  0  0
   43.6917   35.4549   39.4796 H   0  0  0  0  0  0  0  0  0  0  0  0
   44.2042   32.4792   39.4287 H   0  0  0  0  0  0  0  0  0  0  0  0
   45.1928   33.7799   38.7523 H   0  0  0  0  0  0  0  0  0  0  0  0
   45.4052   32.5467   41.3988 H   0  0  0  0  0  0  0  0  0  0  0  0
   46.4260   33.8352   40.7635 H   0  0  0  0  0  0  0  0  0  0  0  0
   43.9675   36.4350   43.3899 H   0  0  0  0  0  0  0  0  0  0  0  0
   45.7270   32.4341   43.3151 H   0  0  0  0  0  0  0  0  0  0  0  0
   45.2140   34.5406   47.0090 H   0  0  0  0  0  0  0  0  0  0  0  0
   41.7747   36.2550   38.6162 H   0  0  0  0  0  0  0  0  0  0  0  0
   42.8634   35.4723   37.4209 H   0  0  0  0  0  0  0  0  0  0  0  0
   41.1079   35.0917   37.4209 H   0  0  0  0  0  0  0  0  0  0  0  0
   42.7314   32.1214   38.8043 H   0  0  0  0  0  0  0  0  0  0  0  0
   41.6489   32.7621   37.5220 H   0  0  0  0  0  0  0  0  0  0  0  0
   43.3932   33.1910   37.5220 H   0  0  0  0  0  0  0  0  0  0  0  0
   40.7937   32.8154   39.7231 H   0  0  0  0  0  0  0  0  0  0  0  0
   41.3085   34.0653   40.9126 H   0  0  0  0  0  0  0  0  0  0  0  0
   40.5300   35.4287   38.9179 H   0  0  0  0  0  0  0  0  0  0  0  0
   38.7633   34.5330   41.4069 H   0  0  0  0  0  0  0  0  0  0  0  0
   38.1646   35.8116   40.7324 H   0  0  0  0  0  0  0  0  0  0  0  0
   37.8354   33.8886   38.4074 H   0  0  0  0  0  0  0  0  0  0  0  0
   38.1956   30.7548   42.4569 H   0  0  0  0  0  0  0  0  0  0  0  0
   38.4957   28.0960   38.6897 H   0  0  0  0  0  0  0  0  0  0  0  0
   38.7178   28.5700   36.2545 H   0  0  0  0  0  0  0  0  0  0  0  0
   38.8226   30.9207   35.4643 H   0  0  0  0  0  0  0  0  0  0  0  0
   38.7070   32.8043   37.0690 H   0  0  0  0  0  0  0  0  0  0  0  0
  1  4  1  0
  1 15  1  0
  2  8  1  0
  3  2  1  0
  4  3  1  0
  5  4  1  0
  5  6  1  0
  6  2  1  0
  7 12  2  0
  8  9  2  0
  8  7  1  0
  9 10  1  0
 10 11  2  0
 12 11  1  0
 13  1  1  0
 14  1  1  0
 16 15  1  0
 16 17  1  0
 18 16  1  0
 18 19  1  0
 18 17  1  0
 19 20  2  0
 20 21  1  0
 22 21  2  0
 23 22  1  0
 24 23  2  0
 25 24  1  0
 26 25  2  0
 26 27  1  0
 27 28  2  0
 28 23  1  0
 28 19  1  0
  2 29  1  6
  3 30  1  0
  3 31  1  0
  4 32  1  1
  5 33  1  0
  5 34  1  0
  6 35  1  0
  6 36  1  0
  7 37  1  0
  9 38  1  0
 11 39  1  0
 13 40  1  0
 13 41  1  0
 13 42  1  0
 14 43  1  0
 14 44  1  0
 14 45  1  0
 15 46  1  0
 15 47  1  0
 16 48  1  6
 17 49  1  0
 17 50  1  0
 18 51  1  6
 21 52  1  0
 24 53  1  0
 25 54  1  0
 26 55  1  0
 27 56  1  0
M  ISO  8  29  13  30  13  31  13  32  13  33  13  34  13  35  13  36  13
M  ISO  8  37  14  38  14  39  14  40   8  41   8  42   8  43   8  44   8
M  ISO  8  45   8  46   8  47   8  48  13  49  13  50  13  51  13  52  14
M  ISO  4  53  14  54  14  55  14  56  14
M  END
>  <minimizedAffinity>  (1) 
-6.36175442

>  <minimizedRMSD>  (1) 
1.87842965

$$$$
