
     RDKit          3D

 42 44  0  0  1  0  0  0  0  0999 V2000
   44.7990   34.6040   42.0230 C   0  0  2  0  0  0  0  0  0  0  0  0
   43.3870   34.1630   41.4980 C   0  0  0  0  0  0  0  0  0  0  0  0
   43.6650   34.5690   40.0260 C   0  0  1  0  0  0  0  0  0  0  0  0
   44.9330   33.8180   39.8060 C   0  0  0  0  0  0  0  0  0  0  0  0
   45.6660   33.8350   41.1540 C   0  0  0  0  0  0  0  0  0  0  0  0
   44.4590   35.5060   44.2590 C   0  0  0  0  0  0  0  0  0  0  0  0
   44.9170   34.4560   43.4620 C   0  0  0  0  0  0  0  0  0  0  0  0
   45.5040   33.2960   44.0690 C   0  0  0  0  0  0  0  0  0  0  0  0
   45.5890   33.2680   45.4280 N   0  0  0  0  0  0  0  0  0  0  0  0
   45.1310   34.3170   46.1890 C   0  0  0  0  0  0  0  0  0  0  0  0
   44.5730   35.4230   45.6210 N   0  0  0  0  0  0  0  0  0  0  0  0
   42.5240   34.2370   39.1480 C   0  0  0  0  0  0  0  0  0  0  0  0
   42.1920   35.3660   38.2290 C   0  0  0  0  0  0  0  0  0  0  0  0
   42.9790   33.0620   38.2930 C   0  0  0  0  0  0  0  0  0  0  0  0
   41.3510   33.7650   39.9340 C   0  0  0  0  0  0  0  0  0  0  0  0
   40.0830   34.3890   39.4090 C   0  0  0  0  0  0  0  0  0  0  0  0
   39.2020   35.1930   40.2850 C   0  0  0  0  0  0  0  0  0  0  0  0
   38.7550   33.8080   39.9910 C   0  0  0  0  0  0  0  0  0  0  0  0
   45.0557   35.6716   41.9563 H   0  0  0  0  0  0  0  0  0  0  0  0
   43.2002   33.0858   41.6191 H   0  0  0  0  0  0  0  0  0  0  0  0
   42.5001   34.5892   41.9896 H   0  0  0  0  0  0  0  0  0  0  0  0
   43.7736   35.6406   39.8025 H   0  0  0  0  0  0  0  0  0  0  0  0
   44.7178   32.7837   39.4997 H   0  0  0  0  0  0  0  0  0  0  0  0
   45.5399   34.2715   39.0085 H   0  0  0  0  0  0  0  0  0  0  0  0
   45.7969   32.8130   41.5393 H   0  0  0  0  0  0  0  0  0  0  0  0
   46.6751   34.2664   41.0784 H   0  0  0  0  0  0  0  0  0  0  0  0
   44.0086   36.3960   43.7953 H   0  0  0  0  0  0  0  0  0  0  0  0
   45.8725   32.4587   43.4582 H   0  0  0  0  0  0  0  0  0  0  0  0
   45.2170   34.2624   47.2843 H   0  0  0  0  0  0  0  0  0  0  0  0
   41.9304   36.2556   38.8207 H   0  0  0  0  0  0  0  0  0  0  0  0
   43.0622   35.5904   37.5946 H   0  0  0  0  0  0  0  0  0  0  0  0
   41.3388   35.0837   37.5946 H   0  0  0  0  0  0  0  0  0  0  0  0
   43.2988   32.2360   38.9453 H   0  0  0  0  0  0  0  0  0  0  0  0
   42.1459   32.7263   37.6580 H   0  0  0  0  0  0  0  0  0  0  0  0
   43.8210   33.3749   37.6580 H   0  0  0  0  0  0  0  0  0  0  0  0
   41.2770   32.6705   39.8534 H   0  0  0  0  0  0  0  0  0  0  0  0
   41.4844   34.0576   40.9859 H   0  0  0  0  0  0  0  0  0  0  0  0
   40.5367   34.5711   38.4236 H   0  0  0  0  0  0  0  0  0  0  0  0
   39.5379   35.4476   41.3011 H   0  0  0  0  0  0  0  0  0  0  0  0
   38.7268   36.1794   40.1790 H   0  0  0  0  0  0  0  0  0  0  0  0
   37.8911   33.6311   39.3335 H   0  0  0  0  0  0  0  0  0  0  0  0
   38.4732   32.9268   40.5860 H   0  0  0  0  0  0  0  0  0  0  0  0
  1  7  1  0
  2  1  1  0
  3  2  1  0
  4  3  1  0
  4  5  1  0
  5  1  1  0
  6 11  2  0
  7  8  2  0
  7  6  1  0
  8  9  1  0
  9 10  2  0
 11 10  1  0
 12 15  1  0
 12  3  1  0
 13 12  1  0
 14 12  1  0
 16 15  1  0
 16 18  1  0
 16 17  1  0
 18 17  1  0
  1 19  1  1
  2 20  1  0
  2 21  1  0
  3 22  1  1
  4 23  1  0
  4 24  1  0
  5 25  1  0
  5 26  1  0
  6 27  1  0
  8 28  1  0
 10 29  1  0
 13 30  1  0
 13 31  1  0
 13 32  1  0
 14 33  1  0
 14 34  1  0
 14 35  1  0
 15 36  1  0
 15 37  1  0
 16 38  1  0
 17 39  1  0
 17 40  1  0
 18 41  1  0
 18 42  1  0
M  ISO  8  19  13  20  13  21  13  22  13  23  13  24  13  25  13  26  13
M  ISO  8  27  14  28  14  29  14  30   8  31   8  32   8  33   8  34   8
M  ISO  8  35   8  36   8  37   8  38  13  39  13  40  13  41  13  42  13
M  END
>  <minimizedAffinity>  (1) 
-4.64073277

>  <minimizedRMSD>  (1) 
2.12543678

$$$$
