
     RDKit          3D

 52 55  0  0  1  0  0  0  0  0999 V2000
   42.5560   34.3430   39.1570 C   0  0  0  0  0  0  0  0  0  0  0  0
   44.8630   34.5950   42.0290 C   0  0  2  0  0  0  0  0  0  0  0  0
   43.4130   34.2660   41.5060 C   0  0  0  0  0  0  0  0  0  0  0  0
   43.7100   34.6170   40.0460 C   0  0  1  0  0  0  0  0  0  0  0  0
   44.9350   33.7810   39.8250 C   0  0  0  0  0  0  0  0  0  0  0  0
   45.6770   33.8010   41.1620 C   0  0  0  0  0  0  0  0  0  0  0  0
   44.4750   35.5050   44.2550 C   0  0  0  0  0  0  0  0  0  0  0  0
   44.9540   34.4610   43.4750 C   0  0  0  0  0  0  0  0  0  0  0  0
   45.5470   33.2910   44.0800 C   0  0  0  0  0  0  0  0  0  0  0  0
   45.6160   33.2560   45.4420 N   0  0  0  0  0  0  0  0  0  0  0  0
   45.1320   34.3090   46.2000 C   0  0  0  0  0  0  0  0  0  0  0  0
   44.5710   35.4130   45.6230 N   0  0  0  0  0  0  0  0  0  0  0  0
   42.3660   35.4280   38.1530 C   0  0  0  0  0  0  0  0  0  0  0  0
   42.9110   33.0890   38.3900 C   0  0  0  0  0  0  0  0  0  0  0  0
   41.3320   34.0420   39.9350 C   0  0  0  0  0  0  0  0  0  0  0  0
   40.2520   35.0440   39.6080 C   0  0  2  0  0  0  0  0  0  0  0  0
   39.1480   35.3640   40.5250 C   0  0  0  0  0  0  0  0  0  0  0  0
   38.8130   34.4780   39.4020 C   0  0  2  0  0  0  0  0  0  0  0  0
   38.5960   33.0320   39.5580 C   0  0  0  0  0  0  0  0  0  0  0  0
   38.6320   32.2220   38.4410 C   0  0  0  0  0  0  0  0  0  0  0  0
   38.4200   30.8480   38.5310 C   0  0  0  0  0  0  0  0  0  0  0  0
   38.1670   30.2510   39.7270 C   0  0  0  0  0  0  0  0  0  0  0  0
   38.1240   31.0250   40.8610 C   0  0  0  0  0  0  0  0  0  0  0  0
   38.3370   32.3830   40.7430 C   0  0  0  0  0  0  0  0  0  0  0  0
   45.2133   35.6356   41.9614 H   0  0  0  0  0  0  0  0  0  0  0  0
   43.1367   33.2104   41.6451 H   0  0  0  0  0  0  0  0  0  0  0  0
   42.5682   34.7767   41.9912 H   0  0  0  0  0  0  0  0  0  0  0  0
   43.8802   35.6800   39.8199 H   0  0  0  0  0  0  0  0  0  0  0  0
   44.6566   32.7521   39.5531 H   0  0  0  0  0  0  0  0  0  0  0  0
   45.5555   34.1679   39.0033 H   0  0  0  0  0  0  0  0  0  0  0  0
   45.7836   32.7809   41.5596 H   0  0  0  0  0  0  0  0  0  0  0  0
   46.6934   34.2098   41.0628 H   0  0  0  0  0  0  0  0  0  0  0  0
   44.0255   36.3923   43.7852 H   0  0  0  0  0  0  0  0  0  0  0  0
   45.9279   32.4611   43.4667 H   0  0  0  0  0  0  0  0  0  0  0  0
   45.2011   34.2551   47.2965 H   0  0  0  0  0  0  0  0  0  0  0  0
   42.1988   36.3831   38.6725 H   0  0  0  0  0  0  0  0  0  0  0  0
   43.2642   35.5058   37.5228 H   0  0  0  0  0  0  0  0  0  0  0  0
   41.4948   35.1959   37.5228 H   0  0  0  0  0  0  0  0  0  0  0  0
   43.1404   32.2788   39.0978 H   0  0  0  0  0  0  0  0  0  0  0  0
   42.0613   32.7934   37.7571 H   0  0  0  0  0  0  0  0  0  0  0  0
   43.7896   33.2826   37.7571 H   0  0  0  0  0  0  0  0  0  0  0  0
   40.9794   33.0311   39.6824 H   0  0  0  0  0  0  0  0  0  0  0  0
   41.5640   34.0992   41.0087 H   0  0  0  0  0  0  0  0  0  0  0  0
   40.9835   35.6622   39.0669 H   0  0  0  0  0  0  0  0  0  0  0  0
   39.1615   34.9565   41.5466 H   0  0  0  0  0  0  0  0  0  0  0  0
   38.7228   36.3106   40.8900 H   0  0  0  0  0  0  0  0  0  0  0  0
   38.0351   34.4915   38.6244 H   0  0  0  0  0  0  0  0  0  0  0  0
   38.8327   32.6716   37.4573 H   0  0  0  0  0  0  0  0  0  0  0  0
   38.4579   30.2348   37.6186 H   0  0  0  0  0  0  0  0  0  0  0  0
   37.9995   29.1654   39.7850 H   0  0  0  0  0  0  0  0  0  0  0  0
   37.9239   30.5714   41.8429 H   0  0  0  0  0  0  0  0  0  0  0  0
   38.2969   32.9889   41.6602 H   0  0  0  0  0  0  0  0  0  0  0  0
  1 15  1  0
  1  4  1  0
  2  8  1  0
  3  2  1  0
  4  3  1  0
  5  4  1  0
  5  6  1  0
  6  2  1  0
  7 12  2  0
  8  9  2  0
  8  7  1  0
  9 10  1  0
 10 11  2  0
 12 11  1  0
 13  1  1  0
 14  1  1  0
 16 15  1  0
 16 17  1  0
 18 19  1  0
 18 16  1  0
 18 17  1  0
 19 24  2  0
 20 21  2  0
 20 19  1  0
 21 22  1  0
 22 23  2  0
 24 23  1  0
  2 25  1  1
  3 26  1  0
  3 27  1  0
  4 28  1  1
  5 29  1  0
  5 30  1  0
  6 31  1  0
  6 32  1  0
  7 33  1  0
  9 34  1  0
 11 35  1  0
 13 36  1  0
 13 37  1  0
 13 38  1  0
 14 39  1  0
 14 40  1  0
 14 41  1  0
 15 42  1  0
 15 43  1  0
 16 44  1  6
 17 45  1  0
 17 46  1  0
 18 47  1  6
 20 48  1  0
 21 49  1  0
 22 50  1  0
 23 51  1  0
 24 52  1  0
M  ISO  8  25  13  26  13  27  13  28  13  29  13  30  13  31  13  32  13
M  ISO  8  33  14  34  14  35  14  36   8  37   8  38   8  39   8  40   8
M  ISO  8  41   8  42   8  43   8  44  13  45  13  46  13  47  13  48  14
M  ISO  4  49  14  50  14  51  14  52  14
M  END
>  <minimizedAffinity>  (1) 
-6.02946138

>  <minimizedRMSD>  (1) 
1.34113479

$$$$
