
     RDKit          3D

 54 56  0  0  1  0  0  0  0  0999 V2000
   41.5790   34.9010   38.9230 C   0  0  0  0  0  0  0  0  0  0  0  0
   44.2840   34.7710   41.4280 C   0  0  2  0  0  0  0  0  0  0  0  0
   42.7350   34.7480   41.1270 C   0  0  0  0  0  0  0  0  0  0  0  0
   42.8820   34.9580   39.6140 C   0  0  1  0  0  0  0  0  0  0  0  0
   43.8700   33.8840   39.2900 C   0  0  0  0  0  0  0  0  0  0  0  0
   44.7840   33.7820   40.5240 C   0  0  0  0  0  0  0  0  0  0  0  0
   44.2850   35.8110   43.6290 C   0  0  0  0  0  0  0  0  0  0  0  0
   44.5550   34.6990   42.8510 C   0  0  0  0  0  0  0  0  0  0  0  0
   45.1170   33.5030   43.4380 C   0  0  0  0  0  0  0  0  0  0  0  0
   45.3680   33.5110   44.7760 N   0  0  0  0  0  0  0  0  0  0  0  0
   45.0880   34.6370   45.5310 C   0  0  0  0  0  0  0  0  0  0  0  0
   44.5560   35.7710   44.9780 N   0  0  0  0  0  0  0  0  0  0  0  0
   41.4810   35.9670   37.8720 C   0  0  0  0  0  0  0  0  0  0  0  0
   41.5650   33.5710   38.1840 C   0  0  0  0  0  0  0  0  0  0  0  0
   40.4510   34.8920   39.8690 C   0  0  0  0  0  0  0  0  0  0  0  0
   39.4600   33.8040   39.4810 C   0  0  2  0  0  0  0  0  0  0  0  0
   38.0360   33.8830   39.8540 C   0  0  0  0  0  0  0  0  0  0  0  0
   38.8800   32.9820   40.6600 C   0  0  1  0  0  0  0  0  0  0  0  0
   38.7560   31.4950   40.4580 C   0  0  0  0  0  0  0  0  0  0  0  0
   40.0960   30.8320   40.7590 C   0  0  0  0  0  0  0  0  0  0  0  0
   38.5120   31.2680   38.9800 C   0  0  0  0  0  0  0  0  0  0  0  0
   37.6560   30.8410   41.2220 C   0  0  0  0  0  0  0  0  0  0  0  0
   44.8333   35.7038   41.2326 H   0  0  0  0  0  0  0  0  0  0  0  0
   42.2638   33.7873   41.3819 H   0  0  0  0  0  0  0  0  0  0  0  0
   42.0990   35.4555   41.6792 H   0  0  0  0  0  0  0  0  0  0  0  0
   43.2331   35.9460   39.2813 H   0  0  0  0  0  0  0  0  0  0  0  0
   43.3550   32.9283   39.1128 H   0  0  0  0  0  0  0  0  0  0  0  0
   44.4396   34.1145   38.3776 H   0  0  0  0  0  0  0  0  0  0  0  0
   44.7207   32.7794   40.9720 H   0  0  0  0  0  0  0  0  0  0  0  0
   45.8425   33.9445   40.2728 H   0  0  0  0  0  0  0  0  0  0  0  0
   43.8584   36.7172   43.1743 H   0  0  0  0  0  0  0  0  0  0  0  0
   45.3344   32.6165   42.8241 H   0  0  0  0  0  0  0  0  0  0  0  0
   45.2998   34.6202   46.6103 H   0  0  0  0  0  0  0  0  0  0  0  0
   41.3905   36.9511   38.3552 H   0  0  0  0  0  0  0  0  0  0  0  0
   42.3847   35.9480   37.2451 H   0  0  0  0  0  0  0  0  0  0  0  0
   40.5959   35.7836   37.2451 H   0  0  0  0  0  0  0  0  0  0  0  0
   41.5563   32.7468   38.9125 H   0  0  0  0  0  0  0  0  0  0  0  0
   40.6662   33.5118   37.5526 H   0  0  0  0  0  0  0  0  0  0  0  0
   42.4624   33.4929   37.5526 H   0  0  0  0  0  0  0  0  0  0  0  0
   40.8275   34.6976   40.8841 H   0  0  0  0  0  0  0  0  0  0  0  0
   39.9464   35.8690   39.8411 H   0  0  0  0  0  0  0  0  0  0  0  0
   39.9780   33.6250   38.5273 H   0  0  0  0  0  0  0  0  0  0  0  0
   37.6465   34.8069   40.3064 H   0  0  0  0  0  0  0  0  0  0  0  0
   37.0983   33.7443   39.2959 H   0  0  0  0  0  0  0  0  0  0  0  0
   39.0890   32.8673   41.7339 H   0  0  0  0  0  0  0  0  0  0  0  0
   40.2347   30.7634   41.8481 H   0  0  0  0  0  0  0  0  0  0  0  0
   40.1116   29.8222   40.3230 H   0  0  0  0  0  0  0  0  0  0  0  0
   40.9082   31.4322   40.3230 H   0  0  0  0  0  0  0  0  0  0  0  0
   37.7122   30.5240   38.8504 H   0  0  0  0  0  0  0  0  0  0  0  0
   38.2115   32.2152   38.5083 H   0  0  0  0  0  0  0  0  0  0  0  0
   39.4351   30.9000   38.5083 H   0  0  0  0  0  0  0  0  0  0  0  0
   37.8423   30.9518   42.3004 H   0  0  0  0  0  0  0  0  0  0  0  0
   36.6979   31.3163   40.9647 H   0  0  0  0  0  0  0  0  0  0  0  0
   37.6159   29.7723   40.9647 H   0  0  0  0  0  0  0  0  0  0  0  0
  1  4  1  0
  1 15  1  0
  2  8  1  0
  3  2  1  0
  4  3  1  0
  5  4  1  0
  5  6  1  0
  6  2  1  0
  7 12  2  0
  8  9  2  0
  8  7  1  0
  9 10  1  0
 10 11  2  0
 12 11  1  0
 13  1  1  0
 14  1  1  0
 16 17  1  0
 16 15  1  0
 16 18  1  0
 17 18  1  0
 19 18  1  0
 19 20  1  0
 19 22  1  0
 21 19  1  0
  2 23  1  6
  3 24  1  0
  3 25  1  0
  4 26  1  1
  5 27  1  0
  5 28  1  0
  6 29  1  0
  6 30  1  0
  7 31  1  0
  9 32  1  0
 11 33  1  0
 13 34  1  0
 13 35  1  0
 13 36  1  0
 14 37  1  0
 14 38  1  0
 14 39  1  0
 15 40  1  0
 15 41  1  0
 16 42  1  6
 17 43  1  0
 17 44  1  0
 18 45  1  1
 20 46  1  0
 20 47  1  0
 20 48  1  0
 21 49  1  0
 21 50  1  0
 21 51  1  0
 22 52  1  0
 22 53  1  0
 22 54  1  0
M  ISO  8  23  13  24  13  25  13  26  13  27  13  28  13  29  13  30  13
M  ISO  8  31  14  32  14  33  14  34   8  35   8  36   8  37   8  38   8
M  ISO  8  39   8  40   8  41   8  42  13  43  13  44  13  45  13  46   8
M  ISO  8  47   8  48   8  49   8  50   8  51   8  52   8  53   8  54   8
M  END
>  <minimizedAffinity>  (1) 
-5.88494682

>  <minimizedRMSD>  (1) 
1.79694927

$$$$
