
     RDKit          3D

 49 52  0  0  1  0  0  0  0  0999 V2000
   41.5690   34.9570   38.8890 C   0  0  0  0  0  0  0  0  0  0  0  0
   44.2740   34.6370   41.3750 C   0  0  2  0  0  0  0  0  0  0  0  0
   42.7330   34.8020   41.0840 C   0  0  0  0  0  0  0  0  0  0  0  0
   42.8790   34.8960   39.5640 C   0  0  1  0  0  0  0  0  0  0  0  0
   43.7420   33.7170   39.2840 C   0  0  0  0  0  0  0  0  0  0  0  0
   44.6230   33.5370   40.5300 C   0  0  0  0  0  0  0  0  0  0  0  0
   44.2840   35.7570   43.5360 C   0  0  0  0  0  0  0  0  0  0  0  0
   44.5530   34.6150   42.7990 C   0  0  0  0  0  0  0  0  0  0  0  0
   45.1180   33.4410   43.4250 C   0  0  0  0  0  0  0  0  0  0  0  0
   45.3720   33.5100   44.7630 N   0  0  0  0  0  0  0  0  0  0  0  0
   45.0960   34.6600   45.4810 C   0  0  0  0  0  0  0  0  0  0  0  0
   44.5590   35.7720   44.8800 N   0  0  0  0  0  0  0  0  0  0  0  0
   41.4690   36.1670   38.0030 C   0  0  0  0  0  0  0  0  0  0  0  0
   41.5230   33.7520   37.9660 C   0  0  0  0  0  0  0  0  0  0  0  0
   40.4490   34.8260   39.8440 C   0  0  0  0  0  0  0  0  0  0  0  0
   39.3400   34.0060   39.2300 C   0  0  2  0  0  0  0  0  0  0  0  0
   38.1450   33.5880   40.0130 C   0  0  0  0  0  0  0  0  0  0  0  0
   39.1690   32.5610   39.7440 C   0  0  2  0  0  0  0  0  0  0  0  0
   39.9880   32.1180   40.8940 C   0  0  0  0  0  0  0  0  0  0  0  0
   41.1600   31.3750   40.7030 C   0  0  0  0  0  0  0  0  0  0  0  0
   41.6810   31.1240   41.9560 C   0  0  0  0  0  0  0  0  0  0  0  0
   40.8570   31.6910   42.8640 N   0  0  0  0  0  0  0  0  0  0  0  0
   39.8580   32.2760   42.2200 N   0  0  0  0  0  0  0  0  0  0  0  0
   44.9406   35.4744   41.1213 H   0  0  0  0  0  0  0  0  0  0  0  0
   42.1426   33.9304   41.4030 H   0  0  0  0  0  0  0  0  0  0  0  0
   42.2067   35.6225   41.5936 H   0  0  0  0  0  0  0  0  0  0  0  0
   43.3358   35.8160   39.1704 H   0  0  0  0  0  0  0  0  0  0  0  0
   43.1250   32.8215   39.1186 H   0  0  0  0  0  0  0  0  0  0  0  0
   44.3479   33.8651   38.3780 H   0  0  0  0  0  0  0  0  0  0  0  0
   44.4041   32.5801   41.0265 H   0  0  0  0  0  0  0  0  0  0  0  0
   45.6955   33.5198   40.2860 H   0  0  0  0  0  0  0  0  0  0  0  0
   43.8537   36.6439   43.0478 H   0  0  0  0  0  0  0  0  0  0  0  0
   45.3339   32.5306   42.8466 H   0  0  0  0  0  0  0  0  0  0  0  0
   45.3119   34.6842   46.5593 H   0  0  0  0  0  0  0  0  0  0  0  0
   41.3943   37.0714   38.6246 H   0  0  0  0  0  0  0  0  0  0  0  0
   42.3649   36.2315   37.3680 H   0  0  0  0  0  0  0  0  0  0  0  0
   40.5747   36.0836   37.3680 H   0  0  0  0  0  0  0  0  0  0  0  0
   41.4878   32.8312   38.5667 H   0  0  0  0  0  0  0  0  0  0  0  0
   40.6264   33.8103   37.3314 H   0  0  0  0  0  0  0  0  0  0  0  0
   42.4214   33.7417   37.3314 H   0  0  0  0  0  0  0  0  0  0  0  0
   40.8060   34.3292   40.7582 H   0  0  0  0  0  0  0  0  0  0  0  0
   40.0646   35.8271   40.0891 H   0  0  0  0  0  0  0  0  0  0  0  0
   39.4763   34.5190   38.2666 H   0  0  0  0  0  0  0  0  0  0  0  0
   38.0099   33.9635   41.0381 H   0  0  0  0  0  0  0  0  0  0  0  0
   37.0608   33.6464   39.8367 H   0  0  0  0  0  0  0  0  0  0  0  0
   39.1913   31.5656   39.2763 H   0  0  0  0  0  0  0  0  0  0  0  0
   41.5834   31.0536   39.7400 H   0  0  0  0  0  0  0  0  0  0  0  0
   42.6015   30.5632   42.1758 H   0  0  0  0  0  0  0  0  0  0  0  0
   40.9842   31.6717   43.8859 H   0  0  0  0  0  0  0  0  0  0  0  0
  1  4  1  0
  1 15  1  0
  2  8  1  0
  3  2  1  0
  4  3  1  0
  5  4  1  0
  5  6  1  0
  6  2  1  0
  7 12  2  0
  8  9  2  0
  8  7  1  0
  9 10  1  0
 10 11  2  0
 12 11  1  0
 13  1  1  0
 14  1  1  0
 16 18  1  0
 16 15  1  0
 16 17  1  0
 18 17  1  0
 18 19  1  0
 19 23  2  0
 20 19  1  0
 20 21  2  0
 21 22  1  0
 23 22  1  0
  2 24  1  6
  3 25  1  0
  3 26  1  0
  4 27  1  1
  5 28  1  0
  5 29  1  0
  6 30  1  0
  6 31  1  0
  7 32  1  0
  9 33  1  0
 11 34  1  0
 13 35  1  0
 13 36  1  0
 13 37  1  0
 14 38  1  0
 14 39  1  0
 14 40  1  0
 15 41  1  0
 15 42  1  0
 16 43  1  6
 17 44  1  0
 17 45  1  0
 18 46  1  6
 20 47  1  0
 21 48  1  0
 22 49  1  0
M  ISO  8  24  13  25  13  26  13  27  13  28  13  29  13  30  13  31  13
M  ISO  8  32  14  33  14  34  14  35   8  36   8  37   8  38   8  39   8
M  ISO  8  40   8  41   8  42   8  43  13  44  13  45  13  46  13  47  14
M  ISO  2  48  14  49   9
M  END
>  <minimizedAffinity>  (1) 
-5.78566217

>  <minimizedRMSD>  (1) 
1.568331

$$$$
