
     RDKit          3D

 54 57  0  0  1  0  0  0  0  0999 V2000
   42.0930   34.4810   39.1460 C   0  0  0  0  0  0  0  0  0  0  0  0
   44.6020   34.6640   41.8570 C   0  0  2  0  0  0  0  0  0  0  0  0
   43.1060   34.3890   41.4350 C   0  0  0  0  0  0  0  0  0  0  0  0
   43.3050   34.7130   39.9570 C   0  0  1  0  0  0  0  0  0  0  0  0
   44.5030   33.8880   39.6450 C   0  0  0  0  0  0  0  0  0  0  0  0
   45.3260   33.8430   40.9380 C   0  0  0  0  0  0  0  0  0  0  0  0
   44.3980   35.5930   44.0990 C   0  0  0  0  0  0  0  0  0  0  0  0
   44.7900   34.5420   43.2880 C   0  0  0  0  0  0  0  0  0  0  0  0
   45.3930   33.3610   43.8600 C   0  0  0  0  0  0  0  0  0  0  0  0
   45.5600   33.3190   45.2090 N   0  0  0  0  0  0  0  0  0  0  0  0
   45.1600   34.3840   45.9980 C   0  0  0  0  0  0  0  0  0  0  0  0
   44.5880   35.5030   45.4550 N   0  0  0  0  0  0  0  0  0  0  0  0
   41.8460   35.5880   38.1880 C   0  0  0  0  0  0  0  0  0  0  0  0
   42.3620   33.2330   38.3320 C   0  0  0  0  0  0  0  0  0  0  0  0
   40.9210   34.1810   40.0170 C   0  0  0  0  0  0  0  0  0  0  0  0
   39.6330   34.3880   39.2620 C   0  0  2  0  0  0  0  0  0  0  0  0
   38.3000   34.2710   39.8670 C   0  0  0  0  0  0  0  0  0  0  0  0
   38.7680   33.1520   38.9820 C   0  0  2  0  0  0  0  0  0  0  0  0
   38.9230   31.9150   39.6460 N   0  0  0  0  0  0  0  0  0  0  0  0
   38.1690   31.8660   40.8650 C   0  0  0  0  0  0  0  0  0  0  0  0
   38.0450   30.3490   41.0910 C   0  0  0  0  0  0  0  0  0  0  0  0
   37.7080   29.8820   39.6940 C   0  0  0  0  0  0  0  0  0  0  0  0
   38.4430   30.8600   38.8030 C   0  0  0  0  0  0  0  0  0  0  0  0
   44.9857   35.6904   41.7613 H   0  0  0  0  0  0  0  0  0  0  0  0
   42.7996   33.3464   41.6055 H   0  0  0  0  0  0  0  0  0  0  0  0
   42.3201   34.9407   41.9717 H   0  0  0  0  0  0  0  0  0  0  0  0
   43.4724   35.7733   39.7166 H   0  0  0  0  0  0  0  0  0  0  0  0
   44.2022   32.8729   39.3467 H   0  0  0  0  0  0  0  0  0  0  0  0
   45.0813   34.3122   38.8110 H   0  0  0  0  0  0  0  0  0  0  0  0
   45.4010   32.8122   41.3145 H   0  0  0  0  0  0  0  0  0  0  0  0
   46.3571   34.1955   40.7878 H   0  0  0  0  0  0  0  0  0  0  0  0
   43.9388   36.4914   43.6609 H   0  0  0  0  0  0  0  0  0  0  0  0
   45.7077   32.5207   43.2237 H   0  0  0  0  0  0  0  0  0  0  0  0
   45.3052   34.3298   47.0870 H   0  0  0  0  0  0  0  0  0  0  0  0
   41.6393   36.5145   38.7437 H   0  0  0  0  0  0  0  0  0  0  0  0
   42.7345   35.7304   37.5553 H   0  0  0  0  0  0  0  0  0  0  0  0
   40.9813   35.3392   37.5553 H   0  0  0  0  0  0  0  0  0  0  0  0
   42.5446   32.3857   39.0093 H   0  0  0  0  0  0  0  0  0  0  0  0
   41.4904   33.0140   37.6976 H   0  0  0  0  0  0  0  0  0  0  0  0
   43.2464   33.3925   37.6976 H   0  0  0  0  0  0  0  0  0  0  0  0
   40.9788   33.1354   40.3536 H   0  0  0  0  0  0  0  0  0  0  0  0
   40.9385   34.8604   40.8820 H   0  0  0  0  0  0  0  0  0  0  0  0
   40.1178   35.1915   38.6881 H   0  0  0  0  0  0  0  0  0  0  0  0
   38.2072   34.1050   40.9504 H   0  0  0  0  0  0  0  0  0  0  0  0
   37.4071   34.9133   39.8799 H   0  0  0  0  0  0  0  0  0  0  0  0
   38.4953   32.6431   38.0457 H   0  0  0  0  0  0  0  0  0  0  0  0
   38.7090   32.3521   41.6909 H   0  0  0  0  0  0  0  0  0  0  0  0
   37.2039   32.3916   40.8158 H   0  0  0  0  0  0  0  0  0  0  0  0
   38.9907   29.9139   41.4463 H   0  0  0  0  0  0  0  0  0  0  0  0
   37.3104   30.0610   41.8574 H   0  0  0  0  0  0  0  0  0  0  0  0
   38.0642   28.8548   39.5270 H   0  0  0  0  0  0  0  0  0  0  0  0
   36.6253   29.8595   39.5011 H   0  0  0  0  0  0  0  0  0  0  0  0
   37.7595   31.2654   38.0424 H   0  0  0  0  0  0  0  0  0  0  0  0
   39.2750   30.3659   38.2799 H   0  0  0  0  0  0  0  0  0  0  0  0
  1  4  1  0
  1 15  1  0
  2  8  1  0
  3  2  1  0
  4  3  1  0
  5  4  1  0
  5  6  1  0
  6  2  1  0
  7 12  2  0
  8  9  2  0
  8  7  1  0
  9 10  1  0
 10 11  2  0
 12 11  1  0
 13  1  1  0
 14  1  1  0
 16 17  1  0
 16 15  1  0
 18 16  1  0
 18 19  1  0
 18 17  1  0
 19 20  1  0
 20 21  1  0
 22 21  1  0
 23 19  1  0
 23 22  1  0
  2 24  1  6
  3 25  1  0
  3 26  1  0
  4 27  1  1
  5 28  1  0
  5 29  1  0
  6 30  1  0
  6 31  1  0
  7 32  1  0
  9 33  1  0
 11 34  1  0
 13 35  1  0
 13 36  1  0
 13 37  1  0
 14 38  1  0
 14 39  1  0
 14 40  1  0
 15 41  1  0
 15 42  1  0
 16 43  1  6
 17 44  1  0
 17 45  1  0
 18 46  1  6
 20 47  1  0
 20 48  1  0
 21 49  1  0
 21 50  1  0
 22 51  1  0
 22 52  1  0
 23 53  1  0
 23 54  1  0
M  ISO  8  24  13  25  13  26  13  27  13  28  13  29  13  30  13  31  13
M  ISO  8  32  14  33  14  34  14  35   8  36   8  37   8  38   8  39   8
M  ISO  8  40   8  41   8  42   8  43  13  44  13  45  13  46  13  47  13
M  ISO  7  48  13  49  13  50  13  51  13  52  13  53  13  54  13
M  END
>  <minimizedAffinity>  (1) 
-5.63081121

>  <minimizedRMSD>  (1) 
1.07163596

$$$$
