
     RDKit          3D

 56 60  0  0  1  0  0  0  0  0999 V2000
   42.2030   34.5910   39.2550 C   0  0  0  0  0  0  0  0  0  0  0  0
   44.6620   34.7300   42.0000 C   0  0  2  0  0  0  0  0  0  0  0  0
   43.1840   34.4300   41.5410 C   0  0  0  0  0  0  0  0  0  0  0  0
   43.4020   34.8300   40.0780 C   0  0  1  0  0  0  0  0  0  0  0  0
   44.6160   34.0070   39.7690 C   0  0  0  0  0  0  0  0  0  0  0  0
   45.4310   33.9680   41.0660 C   0  0  0  0  0  0  0  0  0  0  0  0
   44.4040   35.5790   44.2660 C   0  0  0  0  0  0  0  0  0  0  0  0
   44.8260   34.5570   43.4340 C   0  0  0  0  0  0  0  0  0  0  0  0
   45.4310   33.3590   43.9700 C   0  0  0  0  0  0  0  0  0  0  0  0
   45.5710   33.2780   45.3230 N   0  0  0  0  0  0  0  0  0  0  0  0
   45.1430   34.3140   46.1360 C   0  0  0  0  0  0  0  0  0  0  0  0
   44.5720   35.4410   45.6270 N   0  0  0  0  0  0  0  0  0  0  0  0
   42.0560   35.6230   38.1880 C   0  0  0  0  0  0  0  0  0  0  0  0
   42.4640   33.2660   38.5350 C   0  0  0  0  0  0  0  0  0  0  0  0
   40.9970   34.4040   40.0780 C   0  0  0  0  0  0  0  0  0  0  0  0
   39.7750   34.3030   39.1750 C   0  0  2  0  0  0  0  0  0  0  0  0
   38.4410   33.9960   39.7330 C   0  0  0  0  0  0  0  0  0  0  0  0
   39.1480   32.8720   39.0950 C   0  0  1  0  0  0  0  0  0  0  0  0
   38.6350   32.3990   37.8100 C   0  0  0  0  0  0  0  0  0  0  0  0
   37.7710   33.2790   37.1510 C   0  0  0  0  0  0  0  0  0  0  0  0
   37.3630   32.6910   35.9870 N   0  0  0  0  0  0  0  0  0  0  0  0
   37.9200   31.4730   35.8610 C   0  0  0  0  0  0  0  0  0  0  0  0
   37.9370   30.4120   34.9770 C   0  0  0  0  0  0  0  0  0  0  0  0
   38.6850   29.2760   35.2190 C   0  0  0  0  0  0  0  0  0  0  0  0
   39.4620   29.1400   36.3650 C   0  0  0  0  0  0  0  0  0  0  0  0
   39.4600   30.1890   37.2630 C   0  0  0  0  0  0  0  0  0  0  0  0
   38.7000   31.3020   36.9830 C   0  0  0  0  0  0  0  0  0  0  0  0
   45.0163   35.7701   41.9481 H   0  0  0  0  0  0  0  0  0  0  0  0
   42.9068   33.3719   41.6579 H   0  0  0  0  0  0  0  0  0  0  0  0
   42.3717   34.9310   42.0880 H   0  0  0  0  0  0  0  0  0  0  0  0
   43.5622   35.8980   39.8691 H   0  0  0  0  0  0  0  0  0  0  0  0
   44.3237   32.9899   39.4689 H   0  0  0  0  0  0  0  0  0  0  0  0
   45.1957   34.4345   38.9377 H   0  0  0  0  0  0  0  0  0  0  0  0
   45.5527   32.9326   41.4169 H   0  0  0  0  0  0  0  0  0  0  0  0
   46.4451   34.3729   40.9330 H   0  0  0  0  0  0  0  0  0  0  0  0
   43.9424   36.4859   43.8484 H   0  0  0  0  0  0  0  0  0  0  0  0
   45.7655   32.5441   43.3112 H   0  0  0  0  0  0  0  0  0  0  0  0
   45.2678   34.2242   47.2252 H   0  0  0  0  0  0  0  0  0  0  0  0
   41.9153   36.6111   38.6505 H   0  0  0  0  0  0  0  0  0  0  0  0
   42.9613   35.6361   37.5634 H   0  0  0  0  0  0  0  0  0  0  0  0
   41.1830   35.3828   37.5634 H   0  0  0  0  0  0  0  0  0  0  0  0
   42.6208   32.4698   39.2776 H   0  0  0  0  0  0  0  0  0  0  0  0
   41.5982   33.0143   37.9049 H   0  0  0  0  0  0  0  0  0  0  0  0
   43.3606   33.3615   37.9049 H   0  0  0  0  0  0  0  0  0  0  0  0
   41.0949   33.4800   40.6668 H   0  0  0  0  0  0  0  0  0  0  0  0
   40.8806   35.2616   40.7569 H   0  0  0  0  0  0  0  0  0  0  0  0
   40.1454   35.0842   38.4949 H   0  0  0  0  0  0  0  0  0  0  0  0
   38.3010   33.9945   40.8240 H   0  0  0  0  0  0  0  0  0  0  0  0
   37.4441   34.4382   39.5890 H   0  0  0  0  0  0  0  0  0  0  0  0
   39.4687   31.8618   39.3893 H   0  0  0  0  0  0  0  0  0  0  0  0
   37.4709   34.2750   37.5087 H   0  0  0  0  0  0  0  0  0  0  0  0
   36.7213   33.1188   35.3043 H   0  0  0  0  0  0  0  0  0  0  0  0
   37.3391   30.4731   34.0557 H   0  0  0  0  0  0  0  0  0  0  0  0
   38.6657   28.4565   34.4855 H   0  0  0  0  0  0  0  0  0  0  0  0
   40.0550   28.2319   36.5487 H   0  0  0  0  0  0  0  0  0  0  0  0
   40.0556   30.1361   38.1863 H   0  0  0  0  0  0  0  0  0  0  0  0
  1 15  1  0
  1  4  1  0
  2  8  1  0
  3  2  1  0
  4  3  1  0
  5  4  1  0
  5  6  1  0
  6  2  1  0
  7 12  2  0
  8  9  2  0
  8  7  1  0
  9 10  1  0
 10 11  2  0
 12 11  1  0
 13  1  1  0
 14  1  1  0
 16 17  1  0
 16 15  1  0
 18 16  1  0
 18 17  1  0
 19 18  1  0
 20 19  2  0
 21 20  1  0
 22 21  1  0
 22 27  2  0
 23 24  2  0
 23 22  1  0
 24 25  1  0
 25 26  2  0
 27 26  1  0
 27 19  1  0
  2 28  1  1
  3 29  1  0
  3 30  1  0
  4 31  1  1
  5 32  1  0
  5 33  1  0
  6 34  1  0
  6 35  1  0
  7 36  1  0
  9 37  1  0
 11 38  1  0
 13 39  1  0
 13 40  1  0
 13 41  1  0
 14 42  1  0
 14 43  1  0
 14 44  1  0
 15 45  1  0
 15 46  1  0
 16 47  1  6
 17 48  1  0
 17 49  1  0
 18 50  1  1
 20 51  1  0
 21 52  1  0
 23 53  1  0
 24 54  1  0
 25 55  1  0
 26 56  1  0
M  ISO  8  28  13  29  13  30  13  31  13  32  13  33  13  34  13  35  13
M  ISO  8  36  14  37  14  38  14  39   8  40   8  41   8  42   8  43   8
M  ISO  8  44   8  45   8  46   8  47  13  48  13  49  13  50  13  51  14
M  ISO  5  52   9  53  14  54  14  55  14  56  14
M  END
>  <minimizedAffinity>  (1) 
-5.77076626

>  <minimizedRMSD>  (1) 
2.02272058

$$$$
