
     RDKit          3D

 52 55  0  0  1  0  0  0  0  0999 V2000
   42.5930   34.2780   39.1360 C   0  0  0  0  0  0  0  0  0  0  0  0
   44.8820   34.5440   42.0140 C   0  0  2  0  0  0  0  0  0  0  0  0
   43.4350   34.2250   41.4790 C   0  0  0  0  0  0  0  0  0  0  0  0
   43.7430   34.5620   40.0160 C   0  0  1  0  0  0  0  0  0  0  0  0
   44.9690   33.7200   39.8170 C   0  0  0  0  0  0  0  0  0  0  0  0
   45.7080   33.7500   41.1580 C   0  0  0  0  0  0  0  0  0  0  0  0
   44.4880   35.4930   44.2210 C   0  0  0  0  0  0  0  0  0  0  0  0
   44.9620   34.4360   43.4610 C   0  0  0  0  0  0  0  0  0  0  0  0
   45.5420   33.2670   44.0810 C   0  0  0  0  0  0  0  0  0  0  0  0
   45.6030   33.2480   45.4420 N   0  0  0  0  0  0  0  0  0  0  0  0
   45.1230   34.3140   46.1840 C   0  0  0  0  0  0  0  0  0  0  0  0
   44.5730   35.4220   45.5890 N   0  0  0  0  0  0  0  0  0  0  0  0
   42.3970   35.3790   38.1380 C   0  0  0  0  0  0  0  0  0  0  0  0
   42.9800   33.0430   38.3300 C   0  0  0  0  0  0  0  0  0  0  0  0
   41.3800   33.9390   39.9000 C   0  0  0  0  0  0  0  0  0  0  0  0
   40.2950   34.9630   39.6090 C   0  0  2  0  0  0  0  0  0  0  0  0
   39.2090   35.2460   40.5670 C   0  0  0  0  0  0  0  0  0  0  0  0
   38.8650   34.3980   39.4100 C   0  0  2  0  0  0  0  0  0  0  0  0
   38.6290   33.0000   39.7170 N   0  0  0  0  0  0  0  0  0  0  0  0
   38.5080   32.4360   40.9320 C   0  0  0  0  0  0  0  0  0  0  0  0
   38.2830   31.0810   41.0620 C   0  0  0  0  0  0  0  0  0  0  0  0
   38.1730   30.2590   39.9590 C   0  0  0  0  0  0  0  0  0  0  0  0
   37.9690   29.0430   40.1380 O   0  0  0  0  0  0  0  0  0  0  0  0
   38.2980   30.8560   38.7500 N   0  0  0  0  0  0  0  0  0  0  0  0
   38.5180   32.1770   38.6410 C   0  0  0  0  0  0  0  0  0  0  0  0
   38.6100   32.5690   37.4290 O   0  0  0  0  0  0  0  0  0  0  0  0
   45.2387   35.5821   41.9421 H   0  0  0  0  0  0  0  0  0  0  0  0
   43.1483   33.1729   41.6238 H   0  0  0  0  0  0  0  0  0  0  0  0
   42.5922   34.7491   41.9533 H   0  0  0  0  0  0  0  0  0  0  0  0
   43.9204   35.6196   39.7709 H   0  0  0  0  0  0  0  0  0  0  0  0
   44.6889   32.6889   39.5554 H   0  0  0  0  0  0  0  0  0  0  0  0
   45.5961   34.0996   38.9969 H   0  0  0  0  0  0  0  0  0  0  0  0
   45.8192   32.7328   41.5617 H   0  0  0  0  0  0  0  0  0  0  0  0
   46.7235   34.1620   41.0628 H   0  0  0  0  0  0  0  0  0  0  0  0
   44.0496   36.3769   43.7347 H   0  0  0  0  0  0  0  0  0  0  0  0
   45.9188   32.4269   43.4791 H   0  0  0  0  0  0  0  0  0  0  0  0
   45.1842   34.2717   47.2815 H   0  0  0  0  0  0  0  0  0  0  0  0
   42.2280   36.3282   38.6676 H   0  0  0  0  0  0  0  0  0  0  0  0
   43.2938   35.4658   37.5070 H   0  0  0  0  0  0  0  0  0  0  0  0
   41.5253   35.1510   37.5070 H   0  0  0  0  0  0  0  0  0  0  0  0
   43.2370   32.2228   39.0165 H   0  0  0  0  0  0  0  0  0  0  0  0
   42.1340   32.7390   37.6960 H   0  0  0  0  0  0  0  0  0  0  0  0
   43.8482   33.2761   37.6960 H   0  0  0  0  0  0  0  0  0  0  0  0
   41.0288   32.9390   39.6056 H   0  0  0  0  0  0  0  0  0  0  0  0
   41.6106   33.9448   40.9755 H   0  0  0  0  0  0  0  0  0  0  0  0
   41.0093   35.6030   39.0703 H   0  0  0  0  0  0  0  0  0  0  0  0
   39.2451   34.8002   41.5720 H   0  0  0  0  0  0  0  0  0  0  0  0
   38.7849   36.1738   40.9786 H   0  0  0  0  0  0  0  0  0  0  0  0
   38.1370   34.4159   38.5856 H   0  0  0  0  0  0  0  0  0  0  0  0
   38.5894   33.0624   41.8326 H   0  0  0  0  0  0  0  0  0  0  0  0
   38.1891   30.6459   42.0679 H   0  0  0  0  0  0  0  0  0  0  0  0
   38.2228   30.2853   37.8958 H   0  0  0  0  0  0  0  0  0  0  0  0
  1 15  1  0
  1  4  1  0
  2  8  1  0
  3  2  1  0
  4  3  1  0
  5  4  1  0
  5  6  1  0
  6  2  1  0
  7 12  2  0
  8  9  2  0
  8  7  1  0
  9 10  1  0
 10 11  2  0
 12 11  1  0
 13  1  1  0
 14  1  1  0
 16 15  1  0
 16 17  1  0
 18 16  1  0
 18 19  1  0
 18 17  1  0
 19 20  1  0
 20 21  2  0
 22 23  2  0
 22 21  1  0
 24 22  1  0
 25 24  1  0
 25 19  1  0
 26 25  2  0
  2 27  1  1
  3 28  1  0
  3 29  1  0
  4 30  1  1
  5 31  1  0
  5 32  1  0
  6 33  1  0
  6 34  1  0
  7 35  1  0
  9 36  1  0
 11 37  1  0
 13 38  1  0
 13 39  1  0
 13 40  1  0
 14 41  1  0
 14 42  1  0
 14 43  1  0
 15 44  1  0
 15 45  1  0
 16 46  1  6
 17 47  1  0
 17 48  1  0
 18 49  1  6
 20 50  1  0
 21 51  1  0
 24 52  1  0
M  ISO  8  27  13  28  13  29  13  30  13  31  13  32  13  33  13  34  13
M  ISO  8  35  14  36  14  37  14  38   8  39   8  40   8  41   8  42   8
M  ISO  8  43   8  44   8  45   8  46  13  47  13  48  13  49  13  50  14
M  ISO  2  51  14  52   9
M  END
>  <minimizedAffinity>  (1) 
-5.74029636

>  <minimizedRMSD>  (1) 
1.54900515

$$$$
