
     RDKit          3D

 57 60  0  0  1  0  0  0  0  0999 V2000
   42.2300   34.3580   39.1660 C   0  0  0  0  0  0  0  0  0  0  0  0
   44.6850   34.5790   41.9220 C   0  0  2  0  0  0  0  0  0  0  0  0
   43.1980   34.2980   41.4750 C   0  0  0  0  0  0  0  0  0  0  0  0
   43.4260   34.6120   39.9950 C   0  0  1  0  0  0  0  0  0  0  0  0
   44.6260   33.7740   39.7210 C   0  0  0  0  0  0  0  0  0  0  0  0
   45.4210   33.7340   41.0370 C   0  0  0  0  0  0  0  0  0  0  0  0
   44.4180   35.5440   44.1410 C   0  0  0  0  0  0  0  0  0  0  0  0
   44.8380   34.4850   43.3550 C   0  0  0  0  0  0  0  0  0  0  0  0
   45.4390   33.3210   43.9680 C   0  0  0  0  0  0  0  0  0  0  0  0
   45.5780   33.2990   45.3210 N   0  0  0  0  0  0  0  0  0  0  0  0
   45.1470   34.3760   46.0770 C   0  0  0  0  0  0  0  0  0  0  0  0
   44.5750   35.4860   45.5030 N   0  0  0  0  0  0  0  0  0  0  0  0
   41.9620   35.4810   38.2270 C   0  0  0  0  0  0  0  0  0  0  0  0
   42.5460   33.1370   38.3320 C   0  0  0  0  0  0  0  0  0  0  0  0
   41.0560   34.0170   40.0090 C   0  0  0  0  0  0  0  0  0  0  0  0
   39.7830   34.5270   39.3830 C   0  0  2  0  0  0  0  0  0  0  0  0
   38.5510   34.7540   40.1820 C   0  0  0  0  0  0  0  0  0  0  0  0
   38.5860   33.5610   39.3190 C   0  0  2  0  0  0  0  0  0  0  0  0
   38.6700   32.2320   39.7340 N   0  0  0  0  0  0  0  0  0  0  0  0
   38.3320   31.8460   41.0440 C   0  0  0  0  0  0  0  0  0  0  0  0
   37.5170   30.5620   41.1080 C   0  0  0  0  0  0  0  0  0  0  0  0
   38.0390   29.4580   40.2600 C   0  0  0  0  0  0  0  0  0  0  0  0
   38.8450   29.8730   39.0750 C   0  0  0  0  0  0  0  0  0  0  0  0
   38.4520   31.2780   38.6960 C   0  0  0  0  0  0  0  0  0  0  0  0
   45.0778   35.6007   41.8129 H   0  0  0  0  0  0  0  0  0  0  0  0
   42.8901   33.2562   41.6477 H   0  0  0  0  0  0  0  0  0  0  0  0
   42.4009   34.8518   41.9927 H   0  0  0  0  0  0  0  0  0  0  0  0
   43.5979   35.6694   39.7451 H   0  0  0  0  0  0  0  0  0  0  0  0
   44.3241   32.7584   39.4252 H   0  0  0  0  0  0  0  0  0  0  0  0
   45.2277   34.1868   38.8978 H   0  0  0  0  0  0  0  0  0  0  0  0
   45.4713   32.7080   41.4304 H   0  0  0  0  0  0  0  0  0  0  0  0
   46.4617   34.0663   40.9086 H   0  0  0  0  0  0  0  0  0  0  0  0
   43.9599   36.4291   43.6755 H   0  0  0  0  0  0  0  0  0  0  0  0
   45.7760   32.4728   43.3541 H   0  0  0  0  0  0  0  0  0  0  0  0
   45.2660   34.3421   47.1700 H   0  0  0  0  0  0  0  0  0  0  0  0
   41.7441   36.3942   38.8002 H   0  0  0  0  0  0  0  0  0  0  0  0
   42.8455   35.6479   37.5934 H   0  0  0  0  0  0  0  0  0  0  0  0
   41.0983   35.2310   37.5934 H   0  0  0  0  0  0  0  0  0  0  0  0
   42.7660   32.2871   38.9948 H   0  0  0  0  0  0  0  0  0  0  0  0
   41.6815   32.8928   37.6972 H   0  0  0  0  0  0  0  0  0  0  0  0
   43.4205   33.3428   37.6972 H   0  0  0  0  0  0  0  0  0  0  0  0
   40.9932   32.9239   40.1152 H   0  0  0  0  0  0  0  0  0  0  0  0
   41.1793   34.4902   40.9943 H   0  0  0  0  0  0  0  0  0  0  0  0
   40.3654   35.1482   38.6866 H   0  0  0  0  0  0  0  0  0  0  0  0
   38.5836   34.6339   41.2749 H   0  0  0  0  0  0  0  0  0  0  0  0
   37.8549   35.5995   40.2846 H   0  0  0  0  0  0  0  0  0  0  0  0
   37.9098   33.1584   38.5505 H   0  0  0  0  0  0  0  0  0  0  0  0
   39.2611   31.6973   41.6137 H   0  0  0  0  0  0  0  0  0  0  0  0
   37.7072   32.6469   41.4660 H   0  0  0  0  0  0  0  0  0  0  0  0
   37.5024   30.2159   42.1520 H   0  0  0  0  0  0  0  0  0  0  0  0
   36.5164   30.8068   40.7222 H   0  0  0  0  0  0  0  0  0  0  0  0
   38.6729   28.8184   40.8917 H   0  0  0  0  0  0  0  0  0  0  0  0
   37.1523   28.9491   39.8540 H   0  0  0  0  0  0  0  0  0  0  0  0
   39.9156   29.8422   39.3255 H   0  0  0  0  0  0  0  0  0  0  0  0
   38.6568   29.1897   38.2338 H   0  0  0  0  0  0  0  0  0  0  0  0
   39.0418   31.5790   37.8176 H   0  0  0  0  0  0  0  0  0  0  0  0
   37.3714   31.2663   38.4906 H   0  0  0  0  0  0  0  0  0  0  0  0
  1  4  1  0
  1 15  1  0
  2  8  1  0
  3  2  1  0
  4  3  1  0
  5  4  1  0
  5  6  1  0
  6  2  1  0
  7 12  2  0
  8  9  2  0
  8  7  1  0
  9 10  1  0
 10 11  2  0
 12 11  1  0
 13  1  1  0
 14  1  1  0
 16 15  1  0
 16 17  1  0
 18 16  1  0
 18 19  1  0
 18 17  1  0
 19 20  1  0
 20 21  1  0
 22 21  1  0
 23 22  1  0
 24 23  1  0
 24 19  1  0
  2 25  1  6
  3 26  1  0
  3 27  1  0
  4 28  1  1
  5 29  1  0
  5 30  1  0
  6 31  1  0
  6 32  1  0
  7 33  1  0
  9 34  1  0
 11 35  1  0
 13 36  1  0
 13 37  1  0
 13 38  1  0
 14 39  1  0
 14 40  1  0
 14 41  1  0
 15 42  1  0
 15 43  1  0
 16 44  1  6
 17 45  1  0
 17 46  1  0
 18 47  1  6
 20 48  1  0
 20 49  1  0
 21 50  1  0
 21 51  1  0
 22 52  1  0
 22 53  1  0
 23 54  1  0
 23 55  1  0
 24 56  1  0
 24 57  1  0
M  ISO  8  25  13  26  13  27  13  28  13  29  13  30  13  31  13  32  13
M  ISO  8  33  14  34  14  35  14  36   8  37   8  38   8  39   8  40   8
M  ISO  8  41   8  42   8  43   8  44  13  45  13  46  13  47  13  48  13
M  ISO  8  49  13  50  13  51  13  52  13  53  13  54  13  55  13  56  13
M  ISO  1  57  13
M  END
>  <minimizedAffinity>  (1) 
-5.67423391

>  <minimizedRMSD>  (1) 
0.927613914

$$$$
