
     RDKit          3D

 56 60  0  0  1  0  0  0  0  0999 V2000
   42.1700   34.4920   39.2560 C   0  0  0  0  0  0  0  0  0  0  0  0
   44.6590   34.6520   41.9730 C   0  0  2  0  0  0  0  0  0  0  0  0
   43.1710   34.3750   41.5350 C   0  0  0  0  0  0  0  0  0  0  0  0
   43.3840   34.7340   40.0590 C   0  0  1  0  0  0  0  0  0  0  0  0
   44.5830   33.8950   39.7510 C   0  0  0  0  0  0  0  0  0  0  0  0
   45.4030   33.8530   41.0500 C   0  0  0  0  0  0  0  0  0  0  0  0
   44.4120   35.5430   44.2240 C   0  0  0  0  0  0  0  0  0  0  0  0
   44.8350   34.5100   43.4060 C   0  0  0  0  0  0  0  0  0  0  0  0
   45.4560   33.3300   43.9620 C   0  0  0  0  0  0  0  0  0  0  0  0
   45.6120   33.2710   45.3130 N   0  0  0  0  0  0  0  0  0  0  0  0
   45.1800   34.3180   46.1100 C   0  0  0  0  0  0  0  0  0  0  0  0
   44.5910   35.4350   45.5840 N   0  0  0  0  0  0  0  0  0  0  0  0
   41.9720   35.5600   38.2320 C   0  0  0  0  0  0  0  0  0  0  0  0
   42.4420   33.2060   38.4760 C   0  0  0  0  0  0  0  0  0  0  0  0
   40.9880   34.2440   40.0990 C   0  0  0  0  0  0  0  0  0  0  0  0
   39.7390   34.2390   39.2300 C   0  0  2  0  0  0  0  0  0  0  0  0
   38.3940   34.0490   39.8080 C   0  0  0  0  0  0  0  0  0  0  0  0
   38.9930   32.8700   39.1550 C   0  0  1  0  0  0  0  0  0  0  0  0
   38.4810   32.5220   37.8380 N   0  0  0  0  0  0  0  0  0  0  0  0
   37.6930   33.2380   37.0380 C   0  0  0  0  0  0  0  0  0  0  0  0
   37.4770   32.5200   35.9220 N   0  0  0  0  0  0  0  0  0  0  0  0
   38.1400   31.3480   36.0370 C   0  0  0  0  0  0  0  0  0  0  0  0
   38.2090   30.2990   35.1420 C   0  0  0  0  0  0  0  0  0  0  0  0
   37.5960   30.3580   34.0310 O   0  0  0  0  0  0  0  0  0  0  0  0
   38.9480   29.2340   35.5070 N   0  0  0  0  0  0  0  0  0  0  0  0
   39.5750   29.2320   36.6980 C   0  0  0  0  0  0  0  0  0  0  0  0
   40.3340   28.0710   37.0060 N   0  0  0  0  0  0  0  0  0  0  0  0
   39.5310   30.2430   37.6060 N   0  0  0  0  0  0  0  0  0  0  0  0
   38.7930   31.3410   37.2750 C   0  0  0  0  0  0  0  0  0  0  0  0
   45.0338   35.6831   41.8935 H   0  0  0  0  0  0  0  0  0  0  0  0
   42.8709   33.3268   41.6807 H   0  0  0  0  0  0  0  0  0  0  0  0
   42.3756   34.9080   42.0766 H   0  0  0  0  0  0  0  0  0  0  0  0
   43.5607   35.7941   39.8246 H   0  0  0  0  0  0  0  0  0  0  0  0
   44.2764   32.8802   39.4575 H   0  0  0  0  0  0  0  0  0  0  0  0
   45.1658   34.3093   38.9151 H   0  0  0  0  0  0  0  0  0  0  0  0
   45.4956   32.8203   41.4174 H   0  0  0  0  0  0  0  0  0  0  0  0
   46.4281   34.2257   40.9080 H   0  0  0  0  0  0  0  0  0  0  0  0
   43.9393   36.4379   43.7930 H   0  0  0  0  0  0  0  0  0  0  0  0
   45.7917   32.5063   43.3149 H   0  0  0  0  0  0  0  0  0  0  0  0
   45.3147   34.2493   47.1996 H   0  0  0  0  0  0  0  0  0  0  0  0
   41.7937   36.5218   38.7351 H   0  0  0  0  0  0  0  0  0  0  0  0
   42.8713   35.6363   37.6032 H   0  0  0  0  0  0  0  0  0  0  0  0
   41.1051   35.3089   37.6032 H   0  0  0  0  0  0  0  0  0  0  0  0
   42.6168   32.3797   39.1808 H   0  0  0  0  0  0  0  0  0  0  0  0
   41.5738   32.9705   37.8429 H   0  0  0  0  0  0  0  0  0  0  0  0
   43.3312   33.3422   37.8429 H   0  0  0  0  0  0  0  0  0  0  0  0
   41.0914   33.2694   40.5984 H   0  0  0  0  0  0  0  0  0  0  0  0
   40.9048   35.0367   40.8571 H   0  0  0  0  0  0  0  0  0  0  0  0
   40.1638   34.9886   38.5461 H   0  0  0  0  0  0  0  0  0  0  0  0
   38.2713   34.0555   40.9011 H   0  0  0  0  0  0  0  0  0  0  0  0
   37.4371   34.5766   39.6815 H   0  0  0  0  0  0  0  0  0  0  0  0
   39.1954   31.8311   39.4544 H   0  0  0  0  0  0  0  0  0  0  0  0
   37.2904   34.2390   37.2522 H   0  0  0  0  0  0  0  0  0  0  0  0
   39.0331   28.4237   34.8769 H   0  0  0  0  0  0  0  0  0  0  0  0
   40.8376   28.0077   37.9023 H   0  0  0  0  0  0  0  0  0  0  0  0
   40.3806   27.2927   36.3330 H   0  0  0  0  0  0  0  0  0  0  0  0
  1  4  1  0
  1 15  1  0
  2  8  1  0
  3  2  1  0
  4  3  1  0
  5  4  1  0
  5  6  1  0
  6  2  1  0
  7 12  2  0
  8  9  2  0
  8  7  1  0
  9 10  1  0
 10 11  2  0
 12 11  1  0
 13  1  1  0
 14  1  1  0
 16 17  1  0
 16 15  1  0
 18 16  1  0
 18 17  1  0
 19 18  1  0
 20 19  1  0
 21 22  1  0
 21 20  2  0
 22 29  2  0
 23 25  1  0
 23 22  1  0
 24 23  2  0
 25 26  1  0
 26 27  1  0
 26 28  2  0
 29 28  1  0
 29 19  1  0
  2 30  1  6
  3 31  1  0
  3 32  1  0
  4 33  1  1
  5 34  1  0
  5 35  1  0
  6 36  1  0
  6 37  1  0
  7 38  1  0
  9 39  1  0
 11 40  1  0
 13 41  1  0
 13 42  1  0
 13 43  1  0
 14 44  1  0
 14 45  1  0
 14 46  1  0
 15 47  1  0
 15 48  1  0
 16 49  1  6
 17 50  1  0
 17 51  1  0
 18 52  1  1
 20 53  1  0
 25 54  1  0
 27 55  1  0
 27 56  1  0
M  ISO  8  30  13  31  13  32  13  33  13  34  13  35  13  36  13  37  13
M  ISO  8  38  14  39  14  40  14  41   8  42   8  43   8  44   8  45   8
M  ISO  8  46   8  47   8  48   8  49  13  50  13  51  13  52  13  53  14
M  ISO  1  54   9
M  END
>  <minimizedAffinity>  (1) 
-5.57259274

>  <minimizedRMSD>  (1) 
1.68783605

$$$$
