
     RDKit          3D

 44 46  0  0  1  0  0  0  0  0999 V2000
   44.2810   34.7870   41.4190 C   0  0  2  0  0  0  0  0  0  0  0  0
   42.7350   34.7860   41.1250 C   0  0  0  0  0  0  0  0  0  0  0  0
   42.8700   34.9740   39.6090 C   0  0  1  0  0  0  0  0  0  0  0  0
   43.8480   33.8910   39.2950 C   0  0  0  0  0  0  0  0  0  0  0  0
   44.7650   33.7840   40.5210 C   0  0  0  0  0  0  0  0  0  0  0  0
   44.2920   35.8360   43.6160 C   0  0  0  0  0  0  0  0  0  0  0  0
   44.5580   34.7210   42.8390 C   0  0  0  0  0  0  0  0  0  0  0  0
   45.1190   33.5300   43.4340 C   0  0  0  0  0  0  0  0  0  0  0  0
   45.3750   33.5450   44.7710 N   0  0  0  0  0  0  0  0  0  0  0  0
   45.1000   34.6730   45.5250 C   0  0  0  0  0  0  0  0  0  0  0  0
   44.5680   35.8040   44.9640 N   0  0  0  0  0  0  0  0  0  0  0  0
   41.5630   34.9210   38.9310 C   0  0  0  0  0  0  0  0  0  0  0  0
   41.4590   35.9620   37.8700 C   0  0  0  0  0  0  0  0  0  0  0  0
   41.5250   33.5670   38.2150 C   0  0  0  0  0  0  0  0  0  0  0  0
   40.4410   34.9260   39.8860 C   0  0  0  0  0  0  0  0  0  0  0  0
   39.5790   33.6920   39.6610 C   0  0  2  0  0  0  0  0  0  0  0  0
   38.1140   33.7270   39.8430 C   0  0  0  0  0  0  0  0  0  0  0  0
   38.8900   33.1300   40.9490 C   0  0  1  0  0  0  0  0  0  0  0  0
   38.8120   31.6460   41.0640 C   0  0  0  0  0  0  0  0  0  0  0  0
   39.4500   31.0300   41.9020 O   0  0  0  0  0  0  0  0  0  0  0  0
   44.8410   35.7112   41.2137 H   0  0  0  0  0  0  0  0  0  0  0  0
   42.2501   33.8364   41.3955 H   0  0  0  0  0  0  0  0  0  0  0  0
   42.1163   35.5132   41.6712 H   0  0  0  0  0  0  0  0  0  0  0  0
   43.2245   35.9538   39.2566 H   0  0  0  0  0  0  0  0  0  0  0  0
   43.3234   32.9391   39.1253 H   0  0  0  0  0  0  0  0  0  0  0  0
   44.4190   34.1148   38.3818 H   0  0  0  0  0  0  0  0  0  0  0  0
   44.6902   32.7855   40.9765 H   0  0  0  0  0  0  0  0  0  0  0  0
   45.8249   33.9285   40.2645 H   0  0  0  0  0  0  0  0  0  0  0  0
   43.8634   36.7403   43.1593 H   0  0  0  0  0  0  0  0  0  0  0  0
   45.3326   32.6388   42.8256 H   0  0  0  0  0  0  0  0  0  0  0  0
   45.3145   34.6609   46.6038 H   0  0  0  0  0  0  0  0  0  0  0  0
   41.3600   36.9530   38.3371 H   0  0  0  0  0  0  0  0  0  0  0  0
   42.3638   35.9400   37.2448 H   0  0  0  0  0  0  0  0  0  0  0  0
   40.5764   35.7615   37.2448 H   0  0  0  0  0  0  0  0  0  0  0  0
   41.5023   32.7585   38.9605 H   0  0  0  0  0  0  0  0  0  0  0  0
   40.6249   33.5104   37.5852 H   0  0  0  0  0  0  0  0  0  0  0  0
   42.4205   33.4600   37.5852 H   0  0  0  0  0  0  0  0  0  0  0  0
   40.8338   34.9168   40.9135 H   0  0  0  0  0  0  0  0  0  0  0  0
   39.8338   35.8306   39.7342 H   0  0  0  0  0  0  0  0  0  0  0  0
   40.2252   33.3372   38.8446 H   0  0  0  0  0  0  0  0  0  0  0  0
   37.6133   34.6943   39.9971 H   0  0  0  0  0  0  0  0  0  0  0  0
   37.2703   33.3685   39.2350 H   0  0  0  0  0  0  0  0  0  0  0  0
   38.9896   33.2983   42.0315 H   0  0  0  0  0  0  0  0  0  0  0  0
   38.1606   31.0902   40.3736 H   0  0  0  0  0  0  0  0  0  0  0  0
  1  7  1  0
  2  1  1  0
  3  2  1  0
  4  3  1  0
  4  5  1  0
  5  1  1  0
  6 11  2  0
  7  8  2  0
  7  6  1  0
  8  9  1  0
  9 10  2  0
 11 10  1  0
 12  3  1  0
 12 15  1  0
 13 12  1  0
 14 12  1  0
 16 17  1  0
 16 15  1  0
 16 18  1  0
 17 18  1  0
 18 19  1  0
 19 20  2  0
  1 21  1  6
  2 22  1  0
  2 23  1  0
  3 24  1  1
  4 25  1  0
  4 26  1  0
  5 27  1  0
  5 28  1  0
  6 29  1  0
  8 30  1  0
 10 31  1  0
 13 32  1  0
 13 33  1  0
 13 34  1  0
 14 35  1  0
 14 36  1  0
 14 37  1  0
 15 38  1  0
 15 39  1  0
 16 40  1  6
 17 41  1  0
 17 42  1  0
 18 43  1  1
 19 44  1  0
M  ISO  8  21  13  22  13  23  13  24  13  25  13  26  13  27  13  28  13
M  ISO  8  29  14  30  14  31  14  32   8  33   8  34   8  35   8  36   8
M  ISO  8  37   8  38   8  39   8  40  13  41  13  42  13  43  13  44   6
M  END
>  <minimizedAffinity>  (1) 
-5.47663975

>  <minimizedRMSD>  (1) 
1.56188416

$$$$
