
     RDKit          3D

 53 56  0  0  1  0  0  0  0  0999 V2000
   42.2950   34.6800   39.3220 C   0  0  0  0  0  0  0  0  0  0  0  0
   44.7000   34.8030   42.1160 C   0  0  2  0  0  0  0  0  0  0  0  0
   43.2420   34.4660   41.6170 C   0  0  0  0  0  0  0  0  0  0  0  0
   43.4690   34.9370   40.1730 C   0  0  1  0  0  0  0  0  0  0  0  0
   44.7390   34.2360   39.8430 C   0  0  0  0  0  0  0  0  0  0  0  0
   45.5100   34.1060   41.1650 C   0  0  0  0  0  0  0  0  0  0  0  0
   44.3940   35.5720   44.4040 C   0  0  0  0  0  0  0  0  0  0  0  0
   44.8470   34.5870   43.5430 C   0  0  0  0  0  0  0  0  0  0  0  0
   45.4750   33.3860   44.0420 C   0  0  0  0  0  0  0  0  0  0  0  0
   45.6020   33.2670   45.3950 N   0  0  0  0  0  0  0  0  0  0  0  0
   45.1420   34.2640   46.2400 C   0  0  0  0  0  0  0  0  0  0  0  0
   44.5500   35.3940   45.7570 N   0  0  0  0  0  0  0  0  0  0  0  0
   42.1350   35.7380   38.2780 C   0  0  0  0  0  0  0  0  0  0  0  0
   42.6120   33.3840   38.5770 C   0  0  0  0  0  0  0  0  0  0  0  0
   41.0760   34.4370   40.1140 C   0  0  0  0  0  0  0  0  0  0  0  0
   39.9470   34.0010   39.1900 C   0  0  2  0  0  0  0  0  0  0  0  0
   38.6050   33.6750   39.7090 C   0  0  0  0  0  0  0  0  0  0  0  0
   39.4810   32.5290   39.3750 C   0  0  1  0  0  0  0  0  0  0  0  0
   39.0630   31.7990   38.1940 N   0  0  0  0  0  0  0  0  0  0  0  0
   39.6170   30.5540   38.1480 C   0  0  0  0  0  0  0  0  0  0  0  0
   39.3460   29.6930   37.0990 C   0  0  0  0  0  0  0  0  0  0  0  0
   38.4900   30.1840   36.1270 C   0  0  0  0  0  0  0  0  0  0  0  0
   38.1570   29.3670   35.0130 N   0  0  0  0  0  0  0  0  0  0  0  0
   37.9560   31.3970   36.1780 N   0  0  0  0  0  0  0  0  0  0  0  0
   38.2420   32.2160   37.2200 C   0  0  0  0  0  0  0  0  0  0  0  0
   37.8020   33.3860   37.3900 O   0  0  0  0  0  0  0  0  0  0  0  0
   45.0181   35.8560   42.1129 H   0  0  0  0  0  0  0  0  0  0  0  0
   43.0046   33.3940   41.6843 H   0  0  0  0  0  0  0  0  0  0  0  0
   42.4016   34.9118   42.1693 H   0  0  0  0  0  0  0  0  0  0  0  0
   43.5729   36.0203   40.0131 H   0  0  0  0  0  0  0  0  0  0  0  0
   44.5281   33.2408   39.4246 H   0  0  0  0  0  0  0  0  0  0  0  0
   45.3204   34.7904   39.0917 H   0  0  0  0  0  0  0  0  0  0  0  0
   45.6219   33.0491   41.4486 H   0  0  0  0  0  0  0  0  0  0  0  0
   46.5287   34.5159   41.0997 H   0  0  0  0  0  0  0  0  0  0  0  0
   43.9171   36.4820   44.0111 H   0  0  0  0  0  0  0  0  0  0  0  0
   45.8353   32.6012   43.3606 H   0  0  0  0  0  0  0  0  0  0  0  0
   45.2570   34.1413   47.3271 H   0  0  0  0  0  0  0  0  0  0  0  0
   41.9875   36.7136   38.7642 H   0  0  0  0  0  0  0  0  0  0  0  0
   43.0380   35.7737   37.6508 H   0  0  0  0  0  0  0  0  0  0  0  0
   41.2619   35.5051   37.6508 H   0  0  0  0  0  0  0  0  0  0  0  0
   42.8082   32.5819   39.3037 H   0  0  0  0  0  0  0  0  0  0  0  0
   41.7556   33.1052   37.9455 H   0  0  0  0  0  0  0  0  0  0  0  0
   43.5004   33.5320   37.9455 H   0  0  0  0  0  0  0  0  0  0  0  0
   41.2709   33.6458   40.8530 H   0  0  0  0  0  0  0  0  0  0  0  0
   40.7868   35.3622   40.6339 H   0  0  0  0  0  0  0  0  0  0  0  0
   40.2974   34.6611   38.3828 H   0  0  0  0  0  0  0  0  0  0  0  0
   38.3678   33.8844   40.7625 H   0  0  0  0  0  0  0  0  0  0  0  0
   37.5868   33.9622   39.4078 H   0  0  0  0  0  0  0  0  0  0  0  0
   39.9001   31.6499   39.8863 H   0  0  0  0  0  0  0  0  0  0  0  0
   40.2889   30.2293   38.9562 H   0  0  0  0  0  0  0  0  0  0  0  0
   39.7819   28.6847   37.0409 H   0  0  0  0  0  0  0  0  0  0  0  0
   38.5499   28.4181   34.9345 H   0  0  0  0  0  0  0  0  0  0  0  0
   37.5227   29.7237   34.2841 H   0  0  0  0  0  0  0  0  0  0  0  0
  1 15  1  0
  1  4  1  0
  2  8  1  0
  3  2  1  0
  4  3  1  0
  5  4  1  0
  5  6  1  0
  6  2  1  0
  7 12  2  0
  8  9  2  0
  8  7  1  0
  9 10  1  0
 10 11  2  0
 12 11  1  0
 13  1  1  0
 14  1  1  0
 16 18  1  0
 16 17  1  0
 16 15  1  0
 18 17  1  0
 19 18  1  0
 20 19  1  0
 21 20  2  0
 22 24  2  0
 22 21  1  0
 23 22  1  0
 24 25  1  0
 25 26  2  0
 25 19  1  0
  2 27  1  1
  3 28  1  0
  3 29  1  0
  4 30  1  1
  5 31  1  0
  5 32  1  0
  6 33  1  0
  6 34  1  0
  7 35  1  0
  9 36  1  0
 11 37  1  0
 13 38  1  0
 13 39  1  0
 13 40  1  0
 14 41  1  0
 14 42  1  0
 14 43  1  0
 15 44  1  0
 15 45  1  0
 16 46  1  6
 17 47  1  0
 17 48  1  0
 18 49  1  1
 20 50  1  0
 21 51  1  0
 23 52  1  0
 23 53  1  0
M  ISO  8  27  13  28  13  29  13  30  13  31  13  32  13  33  13  34  13
M  ISO  8  35  14  36  14  37  14  38   8  39   8  40   8  41   8  42   8
M  ISO  8  43   8  44   8  45   8  46  13  47  13  48  13  49  13  50  14
M  ISO  1  51  14
M  END
>  <minimizedAffinity>  (1) 
-5.21333838

>  <minimizedRMSD>  (1) 
2.24605131

$$$$
