
     RDKit          3D

 43 45  0  0  1  0  0  0  0  0999 V2000
   44.5740   34.7140   41.8950 C   0  0  2  0  0  0  0  0  0  0  0  0
   43.0970   34.3470   41.4760 C   0  0  0  0  0  0  0  0  0  0  0  0
   43.2630   34.7360   40.0040 C   0  0  1  0  0  0  0  0  0  0  0  0
   44.4840   33.9350   39.6780 C   0  0  0  0  0  0  0  0  0  0  0  0
   45.3510   33.9830   40.9440 C   0  0  0  0  0  0  0  0  0  0  0  0
   44.3940   35.5860   44.1610 C   0  0  0  0  0  0  0  0  0  0  0  0
   44.7800   34.5560   43.3220 C   0  0  0  0  0  0  0  0  0  0  0  0
   45.3930   33.3610   43.8560 C   0  0  0  0  0  0  0  0  0  0  0  0
   45.5760   33.2890   45.2030 N   0  0  0  0  0  0  0  0  0  0  0  0
   45.1810   34.3340   46.0200 C   0  0  0  0  0  0  0  0  0  0  0  0
   44.6010   35.4640   45.5180 N   0  0  0  0  0  0  0  0  0  0  0  0
   42.0480   34.4470   39.2180 C   0  0  0  0  0  0  0  0  0  0  0  0
   41.7620   35.5470   38.2420 C   0  0  0  0  0  0  0  0  0  0  0  0
   42.3870   33.2170   38.3810 C   0  0  0  0  0  0  0  0  0  0  0  0
   40.9050   34.0890   40.0740 C   0  0  0  0  0  0  0  0  0  0  0  0
   39.6080   34.3870   39.3330 C   0  0  2  0  0  0  0  0  0  0  0  0
   38.2940   34.0200   39.8990 C   0  0  0  0  0  0  0  0  0  0  0  0
   38.8230   33.1210   38.8590 C   0  0  1  0  0  0  0  0  0  0  0  0
   37.9710   33.1900   37.2770 S   0  0  0  0  0  0  0  0  0  0  0  0
   44.8828   35.7677   41.8295 H   0  0  0  0  0  0  0  0  0  0  0  0
   42.8667   33.2801   41.6127 H   0  0  0  0  0  0  0  0  0  0  0  0
   42.2781   34.8213   42.0367 H   0  0  0  0  0  0  0  0  0  0  0  0
   43.3885   35.8047   39.7756 H   0  0  0  0  0  0  0  0  0  0  0  0
   44.2108   32.8970   39.4374 H   0  0  0  0  0  0  0  0  0  0  0  0
   45.0152   34.3358   38.8021 H   0  0  0  0  0  0  0  0  0  0  0  0
   45.5560   32.9666   41.3113 H   0  0  0  0  0  0  0  0  0  0  0  0
   46.3280   34.4532   40.7589 H   0  0  0  0  0  0  0  0  0  0  0  0
   43.9268   36.4928   43.7493 H   0  0  0  0  0  0  0  0  0  0  0  0
   45.7015   32.5370   43.1958 H   0  0  0  0  0  0  0  0  0  0  0  0
   45.3388   34.2520   47.1055 H   0  0  0  0  0  0  0  0  0  0  0  0
   41.5220   36.4701   38.7899 H   0  0  0  0  0  0  0  0  0  0  0  0
   42.6463   35.7153   37.6097 H   0  0  0  0  0  0  0  0  0  0  0  0
   40.9078   35.2633   37.6097 H   0  0  0  0  0  0  0  0  0  0  0  0
   42.6196   32.3730   39.0470 H   0  0  0  0  0  0  0  0  0  0  0  0
   41.5270   32.9570   37.7463 H   0  0  0  0  0  0  0  0  0  0  0  0
   43.2587   33.4343   37.7463 H   0  0  0  0  0  0  0  0  0  0  0  0
   40.9506   33.0175   40.3186 H   0  0  0  0  0  0  0  0  0  0  0  0
   40.9420   34.6770   41.0029 H   0  0  0  0  0  0  0  0  0  0  0  0
   40.0100   35.3201   38.9115 H   0  0  0  0  0  0  0  0  0  0  0  0
   38.2354   33.6653   40.9386 H   0  0  0  0  0  0  0  0  0  0  0  0
   37.3445   34.5635   40.0135 H   0  0  0  0  0  0  0  0  0  0  0  0
   39.0654   32.0522   38.7641 H   0  0  0  0  0  0  0  0  0  0  0  0
   36.6220   33.2993   37.4892 H   0  0  0  0  0  0  0  0  0  0  0  0
  1  7  1  0
  2  1  1  0
  3  2  1  0
  4  3  1  0
  4  5  1  0
  5  1  1  0
  6 11  2  0
  7  8  2  0
  7  6  1  0
  8  9  1  0
  9 10  2  0
 11 10  1  0
 12  3  1  0
 12 15  1  0
 13 12  1  0
 14 12  1  0
 16 17  1  0
 16 15  1  0
 18 16  1  0
 18 17  1  0
 19 18  1  0
  1 20  1  6
  2 21  1  0
  2 22  1  0
  3 23  1  1
  4 24  1  0
  4 25  1  0
  5 26  1  0
  5 27  1  0
  6 28  1  0
  8 29  1  0
 10 30  1  0
 13 31  1  0
 13 32  1  0
 13 33  1  0
 14 34  1  0
 14 35  1  0
 14 36  1  0
 15 37  1  0
 15 38  1  0
 16 39  1  6
 17 40  1  0
 17 41  1  0
 18 42  1  1
 19 43  1  0
M  ISO  8  20  13  21  13  22  13  23  13  24  13  25  13  26  13  27  13
M  ISO  8  28  14  29  14  30  14  31   8  32   8  33   8  34   8  35   8
M  ISO  8  36   8  37   8  38   8  39  13  40  13  41  13  42  13  43  11
M  END
>  <minimizedAffinity>  (1) 
-5.11010265

>  <minimizedRMSD>  (1) 
0.725441873

$$$$
