
     RDKit          3D

 21 22  0  0  0  0  0  0  0  0999 V2000
   44.5710   35.5230   45.0210 C   0  0  0  0  0  0  0  0  0  0  0  0
   44.8690   36.0540   43.7650 C   0  0  0  0  0  0  0  0  0  0  0  0
   45.8240   35.3920   42.9760 C   0  0  0  0  0  0  0  0  0  0  0  0
   46.4050   34.2660   43.4890 N   0  0  0  0  0  0  0  0  0  0  0  0
   46.0840   33.7950   44.7040 C   0  0  0  0  0  0  0  0  0  0  0  0
   45.1740   34.4160   45.4690 N   0  0  0  0  0  0  0  0  0  0  0  0
   46.8820   32.3160   45.3190 S   0  0  0  0  0  0  0  0  0  0  0  0
   46.2590   31.8050   46.8960 C   0  0  0  0  0  0  0  0  0  0  0  0
   46.3390   32.4530   48.1260 C   0  0  0  0  0  0  0  0  0  0  0  0
   45.7900   31.8910   49.2390 C   0  0  0  0  0  0  0  0  0  0  0  0
   45.1340   30.6770   49.2230 C   0  0  0  0  0  0  0  0  0  0  0  0
   45.0510   30.0300   48.0070 C   0  0  0  0  0  0  0  0  0  0  0  0
   45.6020   30.5710   46.8410 C   0  0  0  0  0  0  0  0  0  0  0  0
   43.8254   36.0248   45.6552 H   0  0  0  0  0  0  0  0  0  0  0  0
   44.3700   36.9652   43.4033 H   0  0  0  0  0  0  0  0  0  0  0  0
   46.0954   35.7672   41.9782 H   0  0  0  0  0  0  0  0  0  0  0  0
   46.8488   33.4250   48.1994 H   0  0  0  0  0  0  0  0  0  0  0  0
   45.8735   32.4297   50.1944 H   0  0  0  0  0  0  0  0  0  0  0  0
   44.6980   30.2456   50.1361 H   0  0  0  0  0  0  0  0  0  0  0  0
   44.5360   29.0595   47.9532 H   0  0  0  0  0  0  0  0  0  0  0  0
   45.5194   30.0299   45.8869 H   0  0  0  0  0  0  0  0  0  0  0  0
  1  6  2  0
  2  1  1  0
  3  4  1  0
  3  2  2  0
  4  5  2  0
  5  7  1  0
  5  6  1  0
  7  8  1  0
  8  9  2  0
  9 10  1  0
 11 10  2  0
 12 11  1  0
 13  8  1  0
 13 12  2  0
  1 14  1  0
  2 15  1  0
  3 16  1  0
  9 17  1  0
 10 18  1  0
 11 19  1  0
 12 20  1  0
 13 21  1  0
M  ISO  8  14  14  15  14  16  14  17  14  18  14  19  14  20  14  21  14
M  END
>  <minimizedAffinity>  (1) 
-4.64197445

>  <minimizedRMSD>  (1) 
2.9392736

$$$$
