
     RDKit          3D

 27 28  0  0  0  0  0  0  0  0999 V2000
   44.6040   35.9970   44.5130 C   0  0  0  0  0  0  0  0  0  0  0  0
   45.3670   35.7730   43.3450 C   0  0  0  0  0  0  0  0  0  0  0  0
   46.1920   34.6380   43.3160 C   0  0  0  0  0  0  0  0  0  0  0  0
   46.2200   33.8150   44.4050 N   0  0  0  0  0  0  0  0  0  0  0  0
   45.4660   34.0830   45.4960 C   0  0  0  0  0  0  0  0  0  0  0  0
   44.6670   35.1530   45.5630 N   0  0  0  0  0  0  0  0  0  0  0  0
   45.5250   32.9850   46.9100 S   0  0  0  0  0  0  0  0  0  0  0  0
   47.1680   32.2550   47.1540 C   0  0  0  0  0  0  0  0  0  0  0  0
   47.3040   32.0130   48.6370 C   0  0  0  0  0  0  0  0  0  0  0  0
   48.6290   31.3210   48.8810 C   0  0  0  0  0  0  0  0  0  0  0  0
   48.4770   29.9460   48.2740 C   0  0  0  0  0  0  0  0  0  0  0  0
   48.1560   29.9460   46.8250 C   0  0  0  0  0  0  0  0  0  0  0  0
   47.2230   30.9950   46.3410 C   0  0  0  0  0  0  0  0  0  0  0  0
   43.9459   36.8768   44.5669 H   0  0  0  0  0  0  0  0  0  0  0  0
   45.3162   36.4629   42.4898 H   0  0  0  0  0  0  0  0  0  0  0  0
   46.8058   34.4152   42.4307 H   0  0  0  0  0  0  0  0  0  0  0  0
   48.0009   32.8943   46.8260 H   0  0  0  0  0  0  0  0  0  0  0  0
   47.2795   32.9721   49.1751 H   0  0  0  0  0  0  0  0  0  0  0  0
   46.4748   31.3872   48.9987 H   0  0  0  0  0  0  0  0  0  0  0  0
   49.4467   31.8703   48.3914 H   0  0  0  0  0  0  0  0  0  0  0  0
   48.8756   31.2721   49.9519 H   0  0  0  0  0  0  0  0  0  0  0  0
   49.4217   29.4009   48.4168 H   0  0  0  0  0  0  0  0  0  0  0  0
   47.6256   29.4710   48.7835 H   0  0  0  0  0  0  0  0  0  0  0  0
   49.1017   30.0640   46.2757 H   0  0  0  0  0  0  0  0  0  0  0  0
   47.6326   28.9948   46.6485 H   0  0  0  0  0  0  0  0  0  0  0  0
   47.5245   31.2674   45.3188 H   0  0  0  0  0  0  0  0  0  0  0  0
   46.2183   30.5529   46.4124 H   0  0  0  0  0  0  0  0  0  0  0  0
  1  6  2  0
  2  1  1  0
  3  2  2  0
  3  4  1  0
  4  5  2  0
  5  6  1  0
  5  7  1  0
  7  8  1  0
  8  9  1  0
  9 10  1  0
 11 10  1  0
 12 11  1  0
 13 12  1  0
 13  8  1  0
  1 14  1  0
  2 15  1  0
  3 16  1  0
  8 17  1  0
  9 18  1  0
  9 19  1  0
 10 20  1  0
 10 21  1  0
 11 22  1  0
 11 23  1  0
 12 24  1  0
 12 25  1  0
 13 26  1  0
 13 27  1  0
M  ISO  8  14  14  15  14  16  14  17  13  18  13  19  13  20  13  21  13
M  ISO  6  22  13  23  13  24  13  25  13  26  13  27  13
M  END
>  <minimizedAffinity>  (1) 
-4.16978168

>  <minimizedRMSD>  (1) 
1.53047812

$$$$
