
     RDKit          3D

 23 24  0  0  1  0  0  0  0  0999 V2000
   44.5180   35.8210   44.7020 C   0  0  0  0  0  0  0  0  0  0  0  0
   44.9820   36.1750   43.4140 C   0  0  0  0  0  0  0  0  0  0  0  0
   45.9720   35.3660   42.8330 C   0  0  0  0  0  0  0  0  0  0  0  0
   46.4490   34.2730   43.5260 N   0  0  0  0  0  0  0  0  0  0  0  0
   45.9570   33.9980   44.7560 C   0  0  0  0  0  0  0  0  0  0  0  0
   45.0070   34.7510   45.3430 N   0  0  0  0  0  0  0  0  0  0  0  0
   46.6050   32.5650   45.6320 S   0  0  0  0  0  0  0  0  0  0  0  0
   44.9100   31.3160   47.3410 N   0  0  0  0  0  0  0  0  0  0  0  0
   44.7470   31.2180   48.8000 C   0  0  0  0  0  0  0  0  0  0  0  0
   46.1880   31.2590   49.3190 C   0  0  0  0  0  0  0  0  0  0  0  0
   46.9470   31.9310   48.1960 C   0  0  0  0  0  0  0  0  0  0  0  0
   45.8430   32.4100   47.2630 C   0  0  1  0  0  0  0  0  0  0  0  0
   43.7431   36.4340   45.1854 H   0  0  0  0  0  0  0  0  0  0  0  0
   44.5817   37.0530   42.8859 H   0  0  0  0  0  0  0  0  0  0  0  0
   46.3641   35.6022   41.8328 H   0  0  0  0  0  0  0  0  0  0  0  0
   45.3017   30.4511   46.9418 H   0  0  0  0  0  0  0  0  0  0  0  0
   44.1637   32.0655   49.1892 H   0  0  0  0  0  0  0  0  0  0  0  0
   44.2023   30.3149   49.1127 H   0  0  0  0  0  0  0  0  0  0  0  0
   46.2556   31.8466   50.2464 H   0  0  0  0  0  0  0  0  0  0  0  0
   46.5829   30.2630   49.5680 H   0  0  0  0  0  0  0  0  0  0  0  0
   47.5394   32.7779   48.5726 H   0  0  0  0  0  0  0  0  0  0  0  0
   47.6667   31.2614   47.7024 H   0  0  0  0  0  0  0  0  0  0  0  0
   45.3583   33.3705   47.4921 H   0  0  0  0  0  0  0  0  0  0  0  0
  1  6  2  0
  2  1  1  0
  3  2  2  0
  3  4  1  0
  4  5  2  0
  5  6  1  0
  5  7  1  0
  8  9  1  0
  9 10  1  0
 11 10  1  0
 12  7  1  0
 12  8  1  0
 12 11  1  0
  1 13  1  0
  2 14  1  0
  3 15  1  0
  8 16  1  0
  9 17  1  0
  9 18  1  0
 10 19  1  0
 10 20  1  0
 11 21  1  0
 11 22  1  0
 12 23  1  1
M  ISO  8  13  14  14  14  15  14  16   5  17  13  18  13  19  13  20  13
M  ISO  3  21  13  22  13  23  13
M  END
>  <minimizedAffinity>  (1) 
-4.38697767

>  <minimizedRMSD>  (1) 
1.27205455

$$$$
