
     RDKit          3D

 16 17  0  0  0  0  0  0  0  0999 V2000
   45.1740   35.0750   44.4520 C   0  0  0  0  0  0  0  0  0  0  0  0
   46.1910   34.5800   43.6270 C   0  0  0  0  0  0  0  0  0  0  0  0
   46.9520   33.4930   44.0860 C   0  0  0  0  0  0  0  0  0  0  0  0
   46.6570   32.9700   45.3270 N   0  0  0  0  0  0  0  0  0  0  0  0
   45.6670   33.4850   46.0830 C   0  0  0  0  0  0  0  0  0  0  0  0
   44.9410   34.5200   45.6470 N   0  0  0  0  0  0  0  0  0  0  0  0
   45.3290   32.7660   47.6860 S   0  0  0  0  0  0  0  0  0  0  0  0
   46.8310   32.0740   48.3660 C   0  0  0  0  0  0  0  0  0  0  0  0
   46.7810   30.9150   49.0210 N   0  0  0  0  0  0  0  0  0  0  0  0
   47.9610   30.5890   49.4300 O   0  0  0  0  0  0  0  0  0  0  0  0
   48.8190   31.5320   49.0510 C   0  0  0  0  0  0  0  0  0  0  0  0
   48.1080   32.4760   48.3760 N   0  0  0  0  0  0  0  0  0  0  0  0
   44.5627   35.9254   44.1157 H   0  0  0  0  0  0  0  0  0  0  0  0
   46.3890   35.0314   42.6436 H   0  0  0  0  0  0  0  0  0  0  0  0
   47.7612   33.0704   43.4724 H   0  0  0  0  0  0  0  0  0  0  0  0
   49.9014   31.5463   49.2466 H   0  0  0  0  0  0  0  0  0  0  0  0
  1  6  2  0
  2  3  2  0
  2  1  1  0
  3  4  1  0
  4  5  2  0
  5  7  1  0
  6  5  1  0
  7  8  1  0
  8 12  1  0
  8  9  2  0
  9 10  1  0
 11 10  1  0
 12 11  2  0
  1 13  1  0
  2 14  1  0
  3 15  1  0
 11 16  1  0
M  ISO  4  13  14  14  14  15  14  16  14
M  END
>  <minimizedAffinity>  (1) 
-3.59041619

>  <minimizedRMSD>  (1) 
2.84060264

$$$$
