
     RDKit          3D

 18 19  0  0  0  0  0  0  0  0999 V2000
   45.0920   35.2650   44.4310 C   0  0  0  0  0  0  0  0  0  0  0  0
   46.0760   34.7310   43.5780 C   0  0  0  0  0  0  0  0  0  0  0  0
   46.7920   33.6020   44.0460 C   0  0  0  0  0  0  0  0  0  0  0  0
   46.4970   33.0980   45.2790 N   0  0  0  0  0  0  0  0  0  0  0  0
   45.5350   33.6680   46.0430 C   0  0  0  0  0  0  0  0  0  0  0  0
   44.8440   34.7290   45.6300 N   0  0  0  0  0  0  0  0  0  0  0  0
   45.1920   32.9600   47.6540 S   0  0  0  0  0  0  0  0  0  0  0  0
   47.4880   30.5390   49.5450 N   0  0  0  0  0  0  0  0  0  0  0  0
   46.3690   31.0780   49.0830 N   0  0  0  0  0  0  0  0  0  0  0  0
   46.6600   32.1710   48.3200 C   0  0  0  0  0  0  0  0  0  0  0  0
   48.0510   32.3090   48.3150 C   0  0  0  0  0  0  0  0  0  0  0  0
   48.5360   31.2640   49.0970 C   0  0  0  0  0  0  0  0  0  0  0  0
   44.5147   36.1423   44.1038 H   0  0  0  0  0  0  0  0  0  0  0  0
   46.2801   35.1713   42.5908 H   0  0  0  0  0  0  0  0  0  0  0  0
   47.5733   33.1390   43.4253 H   0  0  0  0  0  0  0  0  0  0  0  0
   47.5486   29.7050   50.1464 H   0  0  0  0  0  0  0  0  0  0  0  0
   48.6400   33.0824   47.8003 H   0  0  0  0  0  0  0  0  0  0  0  0
   49.5955   31.0625   49.3137 H   0  0  0  0  0  0  0  0  0  0  0  0
  1  6  2  0
  2  3  2  0
  2  1  1  0
  3  4  1  0
  4  5  2  0
  5  7  1  0
  6  5  1  0
  7 10  1  0
  9  8  1  0
 10  9  2  0
 11 10  1  0
 11 12  2  0
 12  8  1  0
  1 13  1  0
  2 14  1  0
  3 15  1  0
  8 16  1  0
 11 17  1  0
 12 18  1  0
M  ISO  6  13  14  14  14  15  14  16   9  17  14  18  14
M  END
>  <minimizedAffinity>  (1) 
-3.97224975

>  <minimizedRMSD>  (1) 
3.0035851

$$$$
