
     RDKit          3D

 24 25  0  0  0  0  0  0  0  0999 V2000
   44.5330   35.5650   44.8040 C   0  0  0  0  0  0  0  0  0  0  0  0
   45.0780   35.6100   43.5130 C   0  0  0  0  0  0  0  0  0  0  0  0
   46.1380   34.7190   43.2320 C   0  0  0  0  0  0  0  0  0  0  0  0
   46.5640   33.8780   44.2230 N   0  0  0  0  0  0  0  0  0  0  0  0
   45.9980   33.8880   45.4340 C   0  0  0  0  0  0  0  0  0  0  0  0
   44.9880   34.7200   45.7390 N   0  0  0  0  0  0  0  0  0  0  0  0
   46.6000   32.7610   46.6910 S   0  0  0  0  0  0  0  0  0  0  0  0
   45.8120   31.1560   46.5550 C   0  0  0  0  0  0  0  0  0  0  0  0
   45.1420   30.7120   47.8490 C   0  0  0  0  0  0  0  0  0  0  0  0
   45.0600   29.2010   47.5900 C   0  0  0  0  0  0  0  0  0  0  0  0
   46.4840   28.9010   47.1880 C   0  0  0  0  0  0  0  0  0  0  0  0
   46.7830   30.0330   46.2270 C   0  0  0  0  0  0  0  0  0  0  0  0
   43.7060   36.2447   45.0572 H   0  0  0  0  0  0  0  0  0  0  0  0
   44.6973   36.3079   42.7527 H   0  0  0  0  0  0  0  0  0  0  0  0
   46.6100   34.7021   42.2386 H   0  0  0  0  0  0  0  0  0  0  0  0
   45.0836   31.3101   45.7452 H   0  0  0  0  0  0  0  0  0  0  0  0
   45.7583   30.9439   48.7301 H   0  0  0  0  0  0  0  0  0  0  0  0
   44.1816   31.2009   48.0693 H   0  0  0  0  0  0  0  0  0  0  0  0
   44.7718   28.6504   48.4976 H   0  0  0  0  0  0  0  0  0  0  0  0
   44.3066   28.9087   46.8438 H   0  0  0  0  0  0  0  0  0  0  0  0
   47.1584   28.9251   48.0567 H   0  0  0  0  0  0  0  0  0  0  0  0
   46.6212   27.9004   46.7522 H   0  0  0  0  0  0  0  0  0  0  0  0
   46.6374   29.6974   45.1896 H   0  0  0  0  0  0  0  0  0  0  0  0
   47.8251   30.3706   46.3270 H   0  0  0  0  0  0  0  0  0  0  0  0
  1  6  2  0
  2  1  1  0
  3  2  2  0
  3  4  1  0
  4  5  2  0
  5  6  1  0
  5  7  1  0
  8  7  1  0
  8  9  1  0
 10  9  1  0
 11 10  1  0
 12  8  1  0
 12 11  1  0
  1 13  1  0
  2 14  1  0
  3 15  1  0
  8 16  1  0
  9 17  1  0
  9 18  1  0
 10 19  1  0
 10 20  1  0
 11 21  1  0
 11 22  1  0
 12 23  1  0
 12 24  1  0
M  ISO  8  13  14  14  14  15  14  16  13  17  13  18  13  19  13  20  13
M  ISO  4  21  13  22  13  23  13  24  13
M  END
>  <minimizedAffinity>  (1) 
-3.77519584

>  <minimizedRMSD>  (1) 
0.927303433

$$$$
