
     RDKit          3D

 14 14  0  0  0  0  0  0  0  0999 V2000
   44.5040   35.9940   44.5210 C   0  0  0  0  0  0  0  0  0  0  0  0
   45.1270   36.0120   43.2620 C   0  0  0  0  0  0  0  0  0  0  0  0
   46.0670   34.9960   43.0040 C   0  0  0  0  0  0  0  0  0  0  0  0
   46.3250   34.0500   43.9810 N   0  0  0  0  0  0  0  0  0  0  0  0
   45.6790   34.1030   45.1730 C   0  0  0  0  0  0  0  0  0  0  0  0
   44.7780   35.0540   45.4570 N   0  0  0  0  0  0  0  0  0  0  0  0
   46.0360   32.8660   46.4140 S   0  0  0  0  0  0  0  0  0  0  0  0
   47.0580   31.5450   45.7150 C   0  0  0  0  0  0  0  0  0  0  0  0
   43.7647   36.7739   44.7559 H   0  0  0  0  0  0  0  0  0  0  0  0
   44.8917   36.7830   42.5135 H   0  0  0  0  0  0  0  0  0  0  0  0
   46.5902   34.9545   42.0373 H   0  0  0  0  0  0  0  0  0  0  0  0
   47.5100   30.9608   46.5301 H   0  0  0  0  0  0  0  0  0  0  0  0
   46.4321   30.8862   45.0951 H   0  0  0  0  0  0  0  0  0  0  0  0
   47.8528   31.9854   45.0951 H   0  0  0  0  0  0  0  0  0  0  0  0
  1  6  2  0
  2  1  1  0
  3  2  2  0
  3  4  1  0
  4  5  2  0
  5  6  1  0
  5  7  1  0
  8  7  1  0
  1  9  1  0
  2 10  1  0
  3 11  1  0
  8 12  1  0
  8 13  1  0
  8 14  1  0
M  ISO  6   9  14  10  14  11  14  12   8  13   8  14   8
M  END
>  <minimizedAffinity>  (1) 
-3.0245285

>  <minimizedRMSD>  (1) 
0.121283211

$$$$
