
     RDKit          3D

 22 24  0  0  0  0  0  0  0  0999 V2000
   45.4110   32.9250   47.5120 S   0  0  0  0  0  0  0  0  0  0  0  0
   48.6710   29.5060   48.7560 N   0  0  0  0  0  0  0  0  0  0  0  0
   48.7980   30.6870   49.3940 C   0  0  0  0  0  0  0  0  0  0  0  0
   47.8460   31.5290   48.9620 N   0  0  0  0  0  0  0  0  0  0  0  0
   47.0840   30.9120   48.0380 C   0  0  0  0  0  0  0  0  0  0  0  0
   45.9780   31.2420   47.2480 C   0  0  0  0  0  0  0  0  0  0  0  0
   45.4650   30.3390   46.4070 N   0  0  0  0  0  0  0  0  0  0  0  0
   46.0460   29.1050   46.3480 C   0  0  0  0  0  0  0  0  0  0  0  0
   47.1230   28.7240   47.0910 N   0  0  0  0  0  0  0  0  0  0  0  0
   47.6220   29.6470   47.9270 C   0  0  0  0  0  0  0  0  0  0  0  0
   44.8790   35.4380   44.4990 C   0  0  0  0  0  0  0  0  0  0  0  0
   45.7980   35.0380   43.5310 C   0  0  0  0  0  0  0  0  0  0  0  0
   46.6370   33.9230   43.8230 C   0  0  0  0  0  0  0  0  0  0  0  0
   46.4790   33.3160   45.0540 N   0  0  0  0  0  0  0  0  0  0  0  0
   45.5700   33.7590   45.9370 C   0  0  0  0  0  0  0  0  0  0  0  0
   44.7660   34.8120   45.6790 N   0  0  0  0  0  0  0  0  0  0  0  0
   49.2572   28.6680   48.8785 H   0  0  0  0  0  0  0  0  0  0  0  0
   49.5616   30.9233   50.1497 H   0  0  0  0  0  0  0  0  0  0  0  0
   45.6156   28.3683   45.6537 H   0  0  0  0  0  0  0  0  0  0  0  0
   44.2242   36.2963   44.2878 H   0  0  0  0  0  0  0  0  0  0  0  0
   45.8739   35.5671   42.5696 H   0  0  0  0  0  0  0  0  0  0  0  0
   47.3802   33.5606   43.0975 H   0  0  0  0  0  0  0  0  0  0  0  0
  2  3  1  0
  4  3  2  0
  5  4  1  0
  6  1  1  0
  6  5  2  0
  7  6  1  0
  8  7  2  0
  8  9  1  0
  9 10  2  0
 10  5  1  0
 10  2  1  0
 11 16  2  0
 12 13  2  0
 12 11  1  0
 13 14  1  0
 14 15  2  0
 15  1  1  0
 16 15  1  0
  2 17  1  0
  3 18  1  0
  8 19  1  0
 11 20  1  0
 12 21  1  0
 13 22  1  0
M  ISO  6  17   9  18  14  19  14  20  14  21  14  22  14
M  END
>  <minimizedAffinity>  (1) 
-4.40849495

>  <minimizedRMSD>  (1) 
2.043751

$$$$
