
     RDKit          3D

 35 38  0  0  0  0  0  0  0  0999 V2000
   45.4660   33.0020   47.4280 S   0  0  0  0  0  0  0  0  0  0  0  0
   48.6710   29.5100   48.5950 N   0  0  0  0  0  0  0  0  0  0  0  0
   48.6720   30.5940   49.3920 C   0  0  0  0  0  0  0  0  0  0  0  0
   47.7590   31.4710   48.9740 N   0  0  0  0  0  0  0  0  0  0  0  0
   47.1330   30.9740   47.8810 C   0  0  0  0  0  0  0  0  0  0  0  0
   46.1240   31.3880   47.0100 C   0  0  0  0  0  0  0  0  0  0  0  0
   45.7460   30.6100   45.9990 N   0  0  0  0  0  0  0  0  0  0  0  0
   46.3760   29.4040   45.8460 C   0  0  0  0  0  0  0  0  0  0  0  0
   47.3660   28.9370   46.6570 N   0  0  0  0  0  0  0  0  0  0  0  0
   47.7290   29.7400   47.6680 C   0  0  0  0  0  0  0  0  0  0  0  0
   44.6030   35.6960   44.6480 C   0  0  0  0  0  0  0  0  0  0  0  0
   45.4580   35.4020   43.5940 C   0  0  0  0  0  0  0  0  0  0  0  0
   46.3490   34.3110   43.7490 C   0  0  0  0  0  0  0  0  0  0  0  0
   46.3080   33.6150   44.9360 N   0  0  0  0  0  0  0  0  0  0  0  0
   45.4610   33.9530   45.9120 C   0  0  0  0  0  0  0  0  0  0  0  0
   44.6010   34.9890   45.7880 N   0  0  0  0  0  0  0  0  0  0  0  0
   47.2830   33.9540   42.6490 C   0  0  0  0  0  0  0  0  0  0  0  0
   48.7040   34.2350   43.0990 C   0  0  0  0  0  0  0  0  0  0  0  0
   49.4490   34.6870   41.8730 C   0  0  0  0  0  0  0  0  0  0  0  0
   48.4310   35.0170   40.8280 C   0  0  0  0  0  0  0  0  0  0  0  0
   47.0560   34.7610   41.4140 C   0  0  0  0  0  0  0  0  0  0  0  0
   49.2697   28.6761   48.6792 H   0  0  0  0  0  0  0  0  0  0  0  0
   49.3302   30.7360   50.2618 H   0  0  0  0  0  0  0  0  0  0  0  0
   46.0599   28.7660   45.0075 H   0  0  0  0  0  0  0  0  0  0  0  0
   43.9029   36.5381   44.5445 H   0  0  0  0  0  0  0  0  0  0  0  0
   45.4441   35.9967   42.6687 H   0  0  0  0  0  0  0  0  0  0  0  0
   47.1110   32.8922   42.4190 H   0  0  0  0  0  0  0  0  0  0  0  0
   48.7128   35.0254   43.8639 H   0  0  0  0  0  0  0  0  0  0  0  0
   49.1679   33.3427   43.5446 H   0  0  0  0  0  0  0  0  0  0  0  0
   50.0512   35.5776   42.1059 H   0  0  0  0  0  0  0  0  0  0  0  0
   50.1285   33.8980   41.5182 H   0  0  0  0  0  0  0  0  0  0  0  0
   48.5841   34.3807   39.9439 H   0  0  0  0  0  0  0  0  0  0  0  0
   48.5255   36.0694   40.5221 H   0  0  0  0  0  0  0  0  0  0  0  0
   46.5629   35.7122   41.6634 H   0  0  0  0  0  0  0  0  0  0  0  0
   46.4041   34.2348   40.7011 H   0  0  0  0  0  0  0  0  0  0  0  0
  2  3  1  0
  4  3  2  0
  5  4  1  0
  6  1  1  0
  6  5  2  0
  7  6  1  0
  8  7  2  0
  8  9  1  0
  9 10  2  0
 10  5  1  0
 10  2  1  0
 11 16  2  0
 12 13  2  0
 12 11  1  0
 13 14  1  0
 14 15  2  0
 15  1  1  0
 16 15  1  0
 17 18  1  0
 17 13  1  0
 19 18  1  0
 20 21  1  0
 20 19  1  0
 21 17  1  0
  2 22  1  0
  3 23  1  0
  8 24  1  0
 11 25  1  0
 12 26  1  0
 17 27  1  0
 18 28  1  0
 18 29  1  0
 19 30  1  0
 19 31  1  0
 20 32  1  0
 20 33  1  0
 21 34  1  0
 21 35  1  0
M  ISO  8  22   9  23  14  24  14  25  14  26  14  27  13  28  13  29  13
M  ISO  6  30  13  31  13  32  13  33  13  34  13  35  13
M  END
>  <minimizedAffinity>  (1) 
-5.9459095

>  <minimizedRMSD>  (1) 
1.06133997

$$$$
