
     RDKit          3D

 36 38  0  0  0  0  0  0  0  0999 V2000
   46.1980   34.4320   43.6890 C   0  0  0  0  0  0  0  0  0  0  0  0
   45.4030   35.5020   43.6230 N   0  0  0  0  0  0  0  0  0  0  0  0
   44.5980   35.8960   44.6090 C   0  0  0  0  0  0  0  0  0  0  0  0
   44.5420   35.2070   45.7740 N   0  0  0  0  0  0  0  0  0  0  0  0
   45.2990   34.1210   45.9450 C   0  0  0  0  0  0  0  0  0  0  0  0
   45.2320   33.4370   47.1240 C   0  0  0  0  0  0  0  0  0  0  0  0
   46.0100   32.3030   47.3240 C   0  0  0  0  0  0  0  0  0  0  0  0
   46.8430   31.8990   46.2970 C   0  0  0  0  0  0  0  0  0  0  0  0
   46.8650   32.6300   45.1310 C   0  0  0  0  0  0  0  0  0  0  0  0
   46.1170   33.7540   44.8890 C   0  0  0  0  0  0  0  0  0  0  0  0
   47.3250   34.1830   40.1630 C   0  0  0  0  0  0  0  0  0  0  0  0
   46.6640   34.4510   41.3640 C   0  0  0  0  0  0  0  0  0  0  0  0
   47.0770   34.0040   42.6060 C   0  0  0  0  0  0  0  0  0  0  0  0
   48.1950   33.2810   42.4970 N   0  0  0  0  0  0  0  0  0  0  0  0
   48.8670   32.9890   41.4040 C   0  0  0  0  0  0  0  0  0  0  0  0
   48.4290   33.4440   40.2200 N   0  0  0  0  0  0  0  0  0  0  0  0
   50.0840   32.1540   41.6280 C   0  0  0  0  0  0  0  0  0  0  0  0
   50.6300   31.7300   40.2720 C   0  0  0  0  0  0  0  0  0  0  0  0
   51.1680   33.0640   42.2200 C   0  0  0  0  0  0  0  0  0  0  0  0
   49.8300   30.9670   42.5110 C   0  0  0  0  0  0  0  0  0  0  0  0
   43.9720   36.7906   44.4755 H   0  0  0  0  0  0  0  0  0  0  0  0
   44.5582   33.7853   47.9207 H   0  0  0  0  0  0  0  0  0  0  0  0
   45.9645   31.7440   48.2703 H   0  0  0  0  0  0  0  0  0  0  0  0
   47.4778   31.0078   46.4100 H   0  0  0  0  0  0  0  0  0  0  0  0
   47.5355   32.2856   44.3298 H   0  0  0  0  0  0  0  0  0  0  0  0
   46.9462   34.5691   39.2052 H   0  0  0  0  0  0  0  0  0  0  0  0
   45.7498   35.0611   41.3188 H   0  0  0  0  0  0  0  0  0  0  0  0
   51.4913   31.0612   40.4164 H   0  0  0  0  0  0  0  0  0  0  0  0
   49.8458   31.2018   39.7098 H   0  0  0  0  0  0  0  0  0  0  0  0
   50.9475   32.6206   39.7098 H   0  0  0  0  0  0  0  0  0  0  0  0
   51.1206   33.0242   43.3183 H   0  0  0  0  0  0  0  0  0  0  0  0
   52.1578   32.7223   41.8831 H   0  0  0  0  0  0  0  0  0  0  0  0
   51.0029   34.0980   41.8831 H   0  0  0  0  0  0  0  0  0  0  0  0
   49.8956   31.2736   43.5654 H   0  0  0  0  0  0  0  0  0  0  0  0
   48.8259   30.5667   42.3074 H   0  0  0  0  0  0  0  0  0  0  0  0
   50.5824   30.1908   42.3074 H   0  0  0  0  0  0  0  0  0  0  0  0
  1 10  1  0
  2  1  2  0
  2  3  1  0
  3  4  2  0
  4  5  1  0
  5  6  2  0
  6  7  1  0
  8  7  2  0
  9  8  1  0
 10  9  2  0
 10  5  1  0
 11 16  2  0
 11 12  1  0
 12 13  2  0
 13  1  1  0
 14 13  1  0
 15 17  1  0
 15 14  2  0
 16 15  1  0
 17 19  1  0
 17 20  1  0
 18 17  1  0
  3 21  1  0
  6 22  1  0
  7 23  1  0
  8 24  1  0
  9 25  1  0
 11 26  1  0
 12 27  1  0
 18 28  1  0
 18 29  1  0
 18 30  1  0
 19 31  1  0
 19 32  1  0
 19 33  1  0
 20 34  1  0
 20 35  1  0
 20 36  1  0
M  ISO  8  21  14  22  14  23  14  24  14  25  14  26  14  27  14  28   8
M  ISO  8  29   8  30   8  31   8  32   8  33   8  34   8  35   8  36   8
M  END
>  <minimizedAffinity>  (1) 
-5.59248829

>  <minimizedRMSD>  (1) 
6.35411644

$$$$
