
     RDKit          3D

 29 32  0  0  0  0  0  0  0  0999 V2000
   45.4520   33.1100   47.3370 S   0  0  0  0  0  0  0  0  0  0  0  0
   48.5780   29.5620   48.5180 N   0  0  0  0  0  0  0  0  0  0  0  0
   48.5540   30.6000   49.3640 C   0  0  0  0  0  0  0  0  0  0  0  0
   47.6580   31.4920   48.9200 N   0  0  0  0  0  0  0  0  0  0  0  0
   47.0930   31.0470   47.7870 C   0  0  0  0  0  0  0  0  0  0  0  0
   46.1250   31.5120   46.8880 C   0  0  0  0  0  0  0  0  0  0  0  0
   45.8000   30.7670   45.8230 N   0  0  0  0  0  0  0  0  0  0  0  0
   46.4240   29.5740   45.6490 C   0  0  0  0  0  0  0  0  0  0  0  0
   47.3740   29.0660   46.4900 N   0  0  0  0  0  0  0  0  0  0  0  0
   47.6890   29.8240   47.5510 C   0  0  0  0  0  0  0  0  0  0  0  0
   44.5160   35.8290   44.6110 C   0  0  0  0  0  0  0  0  0  0  0  0
   45.3550   35.5700   43.5420 C   0  0  0  0  0  0  0  0  0  0  0  0
   46.2630   34.4910   43.6710 C   0  0  0  0  0  0  0  0  0  0  0  0
   46.2670   33.7660   44.8320 N   0  0  0  0  0  0  0  0  0  0  0  0
   45.4200   34.0750   45.8380 C   0  0  0  0  0  0  0  0  0  0  0  0
   44.5450   35.1010   45.7320 N   0  0  0  0  0  0  0  0  0  0  0  0
   47.1720   34.1260   42.6480 C   0  0  0  0  0  0  0  0  0  0  0  0
   47.3680   34.6010   41.3870 C   0  0  0  0  0  0  0  0  0  0  0  0
   48.3270   34.0640   40.5920 C   0  0  0  0  0  0  0  0  0  0  0  0
   49.0930   33.0120   41.1250 C   0  0  0  0  0  0  0  0  0  0  0  0
   48.4330   32.7860   42.7880 S   0  0  0  0  0  0  0  0  0  0  0  0
   49.1682   28.7215   48.5962 H   0  0  0  0  0  0  0  0  0  0  0  0
   49.1672   30.7030   50.2714 H   0  0  0  0  0  0  0  0  0  0  0  0
   46.1456   28.9744   44.7698 H   0  0  0  0  0  0  0  0  0  0  0  0
   43.8012   36.6617   44.5362 H   0  0  0  0  0  0  0  0  0  0  0  0
   45.3182   36.1790   42.6267 H   0  0  0  0  0  0  0  0  0  0  0  0
   46.7447   35.4255   41.0106 H   0  0  0  0  0  0  0  0  0  0  0  0
   48.4986   34.4365   39.5713 H   0  0  0  0  0  0  0  0  0  0  0  0
   49.9076   32.4549   40.6392 H   0  0  0  0  0  0  0  0  0  0  0  0
  2  3  1  0
  4  3  2  0
  5  4  1  0
  6  1  1  0
  6  5  2  0
  7  6  1  0
  8  7  2  0
  8  9  1  0
  9 10  2  0
 10  5  1  0
 10  2  1  0
 11 16  2  0
 12 13  2  0
 12 11  1  0
 13 14  1  0
 14 15  2  0
 15  1  1  0
 16 15  1  0
 17 21  1  0
 17 13  1  0
 18 17  2  0
 19 20  2  0
 19 18  1  0
 20 21  1  0
  2 22  1  0
  3 23  1  0
  8 24  1  0
 11 25  1  0
 12 26  1  0
 18 27  1  0
 19 28  1  0
 20 29  1  0
M  ISO  8  22   9  23  14  24  14  25  14  26  14  27  14  28  14  29  14
M  END
>  <minimizedAffinity>  (1) 
-5.40540171

>  <minimizedRMSD>  (1) 
0.71922493

$$$$
