
     RDKit          3D

 32 35  0  0  0  0  0  0  0  0999 V2000
   45.6360   35.0890   43.2380 C   0  0  0  0  0  0  0  0  0  0  0  0
   46.7250   34.5700   42.5420 C   0  0  0  0  0  0  0  0  0  0  0  0
   47.4980   33.5790   43.1930 C   0  0  0  0  0  0  0  0  0  0  0  0
   47.1340   33.1890   44.4570 N   0  0  0  0  0  0  0  0  0  0  0  0
   46.0710   33.7320   45.0710 C   0  0  0  0  0  0  0  0  0  0  0  0
   45.3210   34.6780   44.4720 N   0  0  0  0  0  0  0  0  0  0  0  0
   48.6230   33.0120   42.5280 N   0  0  0  0  0  0  0  0  0  0  0  0
   48.6650   31.7920   41.9600 C   0  0  0  0  0  0  0  0  0  0  0  0
   49.8480   31.3900   41.3490 C   0  0  0  0  0  0  0  0  0  0  0  0
   50.9790   32.1810   41.2980 C   0  0  0  0  0  0  0  0  0  0  0  0
   52.0290   31.8150   40.7520 O   0  0  0  0  0  0  0  0  0  0  0  0
   50.9050   33.4000   41.8790 N   0  0  0  0  0  0  0  0  0  0  0  0
   49.7510   33.7790   42.4680 C   0  0  0  0  0  0  0  0  0  0  0  0
   49.7390   34.9410   43.0000 O   0  0  0  0  0  0  0  0  0  0  0  0
   45.6430   33.1890   46.7180 S   0  0  0  0  0  0  0  0  0  0  0  0
   48.5010   29.8590   48.8430 N   0  0  0  0  0  0  0  0  0  0  0  0
   48.6710   31.1250   49.2770 C   0  0  0  0  0  0  0  0  0  0  0  0
   47.8240   31.9300   48.6090 N   0  0  0  0  0  0  0  0  0  0  0  0
   47.1000   31.2090   47.7430 C   0  0  0  0  0  0  0  0  0  0  0  0
   46.0940   31.4510   46.7990 C   0  0  0  0  0  0  0  0  0  0  0  0
   45.5890   30.4480   46.0880 N   0  0  0  0  0  0  0  0  0  0  0  0
   46.0740   29.1870   46.3020 C   0  0  0  0  0  0  0  0  0  0  0  0
   47.0480   28.8900   47.2020 N   0  0  0  0  0  0  0  0  0  0  0  0
   47.5450   29.9080   47.9080 C   0  0  0  0  0  0  0  0  0  0  0  0
   45.0157   35.8606   42.7586 H   0  0  0  0  0  0  0  0  0  0  0  0
   46.9741   34.9160   41.5280 H   0  0  0  0  0  0  0  0  0  0  0  0
   47.7864   31.1303   41.9787 H   0  0  0  0  0  0  0  0  0  0  0  0
   49.8846   30.3938   40.8839 H   0  0  0  0  0  0  0  0  0  0  0  0
   51.7189   34.0312   41.8722 H   0  0  0  0  0  0  0  0  0  0  0  0
   49.0062   29.0218   49.1667 H   0  0  0  0  0  0  0  0  0  0  0  0
   49.3846   31.4466   50.0499 H   0  0  0  0  0  0  0  0  0  0  0  0
   45.6497   28.3631   45.7094 H   0  0  0  0  0  0  0  0  0  0  0  0
  1  6  2  0
  2  3  2  0
  2  1  1  0
  3  4  1  0
  4  5  2  0
  5 15  1  0
  6  5  1  0
  7  3  1  0
  8  7  1  0
  9  8  2  0
 10  9  1  0
 10 12  1  0
 11 10  2  0
 12 13  1  0
 13  7  1  0
 13 14  2  0
 15 20  1  0
 16 17  1  0
 18 17  2  0
 19 24  2  0
 19 18  1  0
 20 19  1  0
 21 22  1  0
 21 20  2  0
 22 23  2  0
 23 24  1  0
 24 16  1  0
  1 25  1  0
  2 26  1  0
  8 27  1  0
  9 28  1  0
 12 29  1  0
 16 30  1  0
 17 31  1  0
 22 32  1  0
M  ISO  8  25  14  26  14  27  14  28  14  29   9  30   9  31  14  32  14
M  END
>  <minimizedAffinity>  (1) 
-5.82454157

>  <minimizedRMSD>  (1) 
1.0848707

$$$$
