
     RDKit          3D

 32 35  0  0  0  0  0  0  0  0999 V2000
   45.1590   35.1860   44.1030 C   0  0  0  0  0  0  0  0  0  0  0  0
   46.2590   34.8270   43.3120 C   0  0  0  0  0  0  0  0  0  0  0  0
   47.1230   33.8260   43.8080 C   0  0  0  0  0  0  0  0  0  0  0  0
   46.8290   33.2780   45.0270 N   0  0  0  0  0  0  0  0  0  0  0  0
   45.7500   33.6700   45.7450 C   0  0  0  0  0  0  0  0  0  0  0  0
   44.9150   34.6160   45.2960 N   0  0  0  0  0  0  0  0  0  0  0  0
   48.2890   33.3510   43.1150 C   0  0  0  0  0  0  0  0  0  0  0  0
   49.3210   34.2400   42.9120 C   0  0  0  0  0  0  0  0  0  0  0  0
   50.4840   33.8470   42.2460 C   0  0  0  0  0  0  0  0  0  0  0  0
   50.6180   32.5370   41.7730 C   0  0  0  0  0  0  0  0  0  0  0  0
   49.5730   31.6600   41.9860 C   0  0  0  0  0  0  0  0  0  0  0  0
   48.4290   32.0640   42.6480 C   0  0  0  0  0  0  0  0  0  0  0  0
   45.4470   32.8980   47.3190 S   0  0  0  0  0  0  0  0  0  0  0  0
   48.6980   29.5980   48.8370 N   0  0  0  0  0  0  0  0  0  0  0  0
   48.8290   30.8250   49.3910 C   0  0  0  0  0  0  0  0  0  0  0  0
   47.8830   31.6280   48.8920 N   0  0  0  0  0  0  0  0  0  0  0  0
   47.1200   30.9430   48.0070 C   0  0  0  0  0  0  0  0  0  0  0  0
   46.0210   31.2030   47.1830 C   0  0  0  0  0  0  0  0  0  0  0  0
   45.5170   30.2360   46.4120 N   0  0  0  0  0  0  0  0  0  0  0  0
   46.1000   29.0050   46.4510 C   0  0  0  0  0  0  0  0  0  0  0  0
   47.1690   28.6890   47.2310 N   0  0  0  0  0  0  0  0  0  0  0  0
   47.6620   29.6650   47.9970 C   0  0  0  0  0  0  0  0  0  0  0  0
   44.4711   35.9614   43.7348 H   0  0  0  0  0  0  0  0  0  0  0  0
   46.4427   35.3077   42.3398 H   0  0  0  0  0  0  0  0  0  0  0  0
   49.2281   35.2728   43.2791 H   0  0  0  0  0  0  0  0  0  0  0  0
   51.2982   34.5705   42.0926 H   0  0  0  0  0  0  0  0  0  0  0  0
   51.5289   32.2153   41.2470 H   0  0  0  0  0  0  0  0  0  0  0  0
   49.6522   30.6245   41.6234 H   0  0  0  0  0  0  0  0  0  0  0  0
   47.6139   31.3422   42.8048 H   0  0  0  0  0  0  0  0  0  0  0  0
   49.2837   28.7722   49.0263 H   0  0  0  0  0  0  0  0  0  0  0  0
   49.5894   31.1150   50.1311 H   0  0  0  0  0  0  0  0  0  0  0  0
   45.6792   28.2159   45.8105 H   0  0  0  0  0  0  0  0  0  0  0  0
  1  6  2  0
  2  3  2  0
  2  1  1  0
  3  4  1  0
  4  5  2  0
  5 13  1  0
  6  5  1  0
  7  3  1  0
  8  7  2  0
  9  8  1  0
 10 11  1  0
 10  9  2  0
 11 12  2  0
 12  7  1  0
 14 15  1  0
 16 15  2  0
 17 16  1  0
 18 13  1  0
 18 17  2  0
 19 20  2  0
 19 18  1  0
 20 21  1  0
 21 22  2  0
 22 17  1  0
 22 14  1  0
  1 23  1  0
  2 24  1  0
  8 25  1  0
  9 26  1  0
 10 27  1  0
 11 28  1  0
 12 29  1  0
 14 30  1  0
 15 31  1  0
 20 32  1  0
M  ISO  8  23  14  24  14  25  14  26  14  27  14  28  14  29  14  30   9
M  ISO  2  31  14  32  14
M  END
>  <minimizedAffinity>  (1) 
-5.74724674

>  <minimizedRMSD>  (1) 
0.545500994

$$$$
