
     RDKit          3D

 35 38  0  0  0  0  0  0  0  0999 V2000
   44.6050   35.7340   44.6270 C   0  0  0  0  0  0  0  0  0  0  0  0
   45.4390   35.4400   43.5630 C   0  0  0  0  0  0  0  0  0  0  0  0
   46.3170   34.3400   43.7100 C   0  0  0  0  0  0  0  0  0  0  0  0
   46.2930   33.6350   44.8860 N   0  0  0  0  0  0  0  0  0  0  0  0
   45.4540   33.9800   45.8810 C   0  0  0  0  0  0  0  0  0  0  0  0
   44.6100   35.0180   45.7700 N   0  0  0  0  0  0  0  0  0  0  0  0
   47.2550   33.8580   42.7550 N   0  0  0  0  0  0  0  0  0  0  0  0
   47.2970   34.2410   41.3570 C   0  0  0  0  0  0  0  0  0  0  0  0
   47.9890   33.1540   40.5640 C   0  0  0  0  0  0  0  0  0  0  0  0
   49.3180   33.1040   40.9100 O   0  0  0  0  0  0  0  0  0  0  0  0
   49.5290   33.2820   42.2560 C   0  0  0  0  0  0  0  0  0  0  0  0
   48.2990   32.9050   43.0800 C   0  0  0  0  0  0  0  0  0  0  0  0
   45.4650   33.0280   47.3930 S   0  0  0  0  0  0  0  0  0  0  0  0
   48.6440   29.5250   48.5790 N   0  0  0  0  0  0  0  0  0  0  0  0
   48.6320   30.6050   49.3930 C   0  0  0  0  0  0  0  0  0  0  0  0
   47.7250   31.4860   48.9620 N   0  0  0  0  0  0  0  0  0  0  0  0
   47.1260   30.9890   47.8530 C   0  0  0  0  0  0  0  0  0  0  0  0
   46.1310   31.4190   46.9710 C   0  0  0  0  0  0  0  0  0  0  0  0
   45.7720   30.6460   45.9430 N   0  0  0  0  0  0  0  0  0  0  0  0
   46.4060   29.4370   45.7900 C   0  0  0  0  0  0  0  0  0  0  0  0
   47.3820   28.9730   46.6220 N   0  0  0  0  0  0  0  0  0  0  0  0
   47.7220   29.7710   47.6460 C   0  0  0  0  0  0  0  0  0  0  0  0
   43.9119   36.5835   44.5374 H   0  0  0  0  0  0  0  0  0  0  0  0
   45.4203   36.0375   42.6396 H   0  0  0  0  0  0  0  0  0  0  0  0
   46.2719   34.3747   40.9812 H   0  0  0  0  0  0  0  0  0  0  0  0
   47.8496   35.1860   41.2491 H   0  0  0  0  0  0  0  0  0  0  0  0
   47.8987   33.3712   39.4895 H   0  0  0  0  0  0  0  0  0  0  0  0
   47.5179   32.1850   40.7854 H   0  0  0  0  0  0  0  0  0  0  0  0
   50.3742   32.6518   42.5699 H   0  0  0  0  0  0  0  0  0  0  0  0
   49.7425   34.3470   42.4298 H   0  0  0  0  0  0  0  0  0  0  0  0
   48.5346   32.9558   44.1533 H   0  0  0  0  0  0  0  0  0  0  0  0
   47.9755   31.8789   42.8507 H   0  0  0  0  0  0  0  0  0  0  0  0
   49.2394   28.6886   48.6617 H   0  0  0  0  0  0  0  0  0  0  0  0
   49.2728   30.7380   50.2771 H   0  0  0  0  0  0  0  0  0  0  0  0
   46.1075   28.8027   44.9424 H   0  0  0  0  0  0  0  0  0  0  0  0
  1  6  2  0
  2  3  2  0
  2  1  1  0
  3  4  1  0
  4  5  2  0
  5 13  1  0
  6  5  1  0
  7 12  1  0
  7  3  1  0
  8  7  1  0
  9 10  1  0
  9  8  1  0
 10 11  1  0
 11 12  1  0
 14 15  1  0
 16 15  2  0
 17 16  1  0
 18 13  1  0
 18 17  2  0
 19 18  1  0
 20 19  2  0
 20 21  1  0
 21 22  2  0
 22 17  1  0
 22 14  1  0
  1 23  1  0
  2 24  1  0
  8 25  1  0
  8 26  1  0
  9 27  1  0
  9 28  1  0
 11 29  1  0
 11 30  1  0
 12 31  1  0
 12 32  1  0
 14 33  1  0
 15 34  1  0
 20 35  1  0
M  ISO  8  23  14  24  14  25  13  26  13  27  13  28  13  29  13  30  13
M  ISO  5  31  13  32  13  33   9  34  14  35  14
M  END
>  <minimizedAffinity>  (1) 
-5.39638948

>  <minimizedRMSD>  (1) 
0.572853982

$$$$
