
     RDKit          3D

 34 36  0  0  0  0  0  0  0  0999 V2000
   45.4630   33.0700   47.3160 S   0  0  0  0  0  0  0  0  0  0  0  0
   48.6010   29.5560   48.5790 N   0  0  0  0  0  0  0  0  0  0  0  0
   48.5770   30.6320   49.3850 C   0  0  0  0  0  0  0  0  0  0  0  0
   47.6820   31.5070   48.9270 N   0  0  0  0  0  0  0  0  0  0  0  0
   47.1010   31.0240   47.8100 C   0  0  0  0  0  0  0  0  0  0  0  0
   46.1320   31.4470   46.9050 C   0  0  0  0  0  0  0  0  0  0  0  0
   45.7910   30.6750   45.8690 N   0  0  0  0  0  0  0  0  0  0  0  0
   46.4210   29.4650   45.7320 C   0  0  0  0  0  0  0  0  0  0  0  0
   47.3760   28.9960   46.5830 N   0  0  0  0  0  0  0  0  0  0  0  0
   47.7000   29.7930   47.6160 C   0  0  0  0  0  0  0  0  0  0  0  0
   44.6380   35.7670   44.5390 C   0  0  0  0  0  0  0  0  0  0  0  0
   45.4630   35.4410   43.4780 C   0  0  0  0  0  0  0  0  0  0  0  0
   46.3410   34.3190   43.6030 C   0  0  0  0  0  0  0  0  0  0  0  0
   46.2950   33.6320   44.8060 N   0  0  0  0  0  0  0  0  0  0  0  0
   45.4660   34.0040   45.7990 C   0  0  0  0  0  0  0  0  0  0  0  0
   44.6400   35.0620   45.6770 N   0  0  0  0  0  0  0  0  0  0  0  0
   47.2680   33.8720   42.5450 C   0  0  0  0  0  0  0  0  0  0  0  0
   48.6410   34.5180   42.7450 C   0  0  0  0  0  0  0  0  0  0  0  0
   46.7540   34.3090   41.2100 C   0  0  0  0  0  0  0  0  0  0  0  0
   47.4670   32.3800   42.6400 C   0  0  0  0  0  0  0  0  0  0  0  0
   49.1924   28.7189   48.6812 H   0  0  0  0  0  0  0  0  0  0  0  0
   49.1988   30.7687   50.2821 H   0  0  0  0  0  0  0  0  0  0  0  0
   46.1367   28.8313   44.8790 H   0  0  0  0  0  0  0  0  0  0  0  0
   43.9615   36.6293   44.4452 H   0  0  0  0  0  0  0  0  0  0  0  0
   45.4442   36.0353   42.5526 H   0  0  0  0  0  0  0  0  0  0  0  0
   48.8473   34.6151   43.8211 H   0  0  0  0  0  0  0  0  0  0  0  0
   49.4136   33.8889   42.2788 H   0  0  0  0  0  0  0  0  0  0  0  0
   48.6489   35.5143   42.2788 H   0  0  0  0  0  0  0  0  0  0  0  0
   45.9228   35.0157   41.3505 H   0  0  0  0  0  0  0  0  0  0  0  0
   47.5624   34.8006   40.6489 H   0  0  0  0  0  0  0  0  0  0  0  0
   46.3988   33.4321   40.6489 H   0  0  0  0  0  0  0  0  0  0  0  0
   47.5067   32.0820   43.6981 H   0  0  0  0  0  0  0  0  0  0  0  0
   46.6294   31.8662   42.1456 H   0  0  0  0  0  0  0  0  0  0  0  0
   48.4100   32.1036   42.1456 H   0  0  0  0  0  0  0  0  0  0  0  0
  2  3  1  0
  4  3  2  0
  5  4  1  0
  6  1  1  0
  6  5  2  0
  7  6  1  0
  8  7  2  0
  8  9  1  0
  9 10  2  0
 10  5  1  0
 10  2  1  0
 11 16  2  0
 12 13  2  0
 12 11  1  0
 13 14  1  0
 14 15  2  0
 15  1  1  0
 16 15  1  0
 17 20  1  0
 17 18  1  0
 17 13  1  0
 19 17  1  0
  2 21  1  0
  3 22  1  0
  8 23  1  0
 11 24  1  0
 12 25  1  0
 18 26  1  0
 18 27  1  0
 18 28  1  0
 19 29  1  0
 19 30  1  0
 19 31  1  0
 20 32  1  0
 20 33  1  0
 20 34  1  0
M  ISO  8  21   9  22  14  23  14  24  14  25  14  26   8  27   8  28   8
M  ISO  6  29   8  30   8  31   8  32   8  33   8  34   8
M  END
>  <minimizedAffinity>  (1) 
-5.31637526

>  <minimizedRMSD>  (1) 
0.519770324

$$$$
