
     RDKit          3D

 29 32  0  0  0  0  0  0  0  0999 V2000
   45.2050   35.0800   43.6870 C   0  0  0  0  0  0  0  0  0  0  0  0
   46.3860   34.8320   42.9760 C   0  0  0  0  0  0  0  0  0  0  0  0
   47.3380   33.9700   43.5710 C   0  0  0  0  0  0  0  0  0  0  0  0
   47.0460   33.4340   44.8020 N   0  0  0  0  0  0  0  0  0  0  0  0
   45.8920   33.7140   45.4320 C   0  0  0  0  0  0  0  0  0  0  0  0
   44.9800   34.5310   44.8780 N   0  0  0  0  0  0  0  0  0  0  0  0
   48.6030   33.6360   42.9270 C   0  0  0  0  0  0  0  0  0  0  0  0
   48.8540   32.3930   42.3890 C   0  0  0  0  0  0  0  0  0  0  0  0
   50.1460   32.4090   41.8570 C   0  0  0  0  0  0  0  0  0  0  0  0
   50.6290   33.6570   42.0910 N   0  0  0  0  0  0  0  0  0  0  0  0
   49.7080   34.3740   42.7240 N   0  0  0  0  0  0  0  0  0  0  0  0
   45.5650   32.9870   47.0330 S   0  0  0  0  0  0  0  0  0  0  0  0
   48.5970   29.5940   48.8030 N   0  0  0  0  0  0  0  0  0  0  0  0
   48.6880   30.8070   49.3940 C   0  0  0  0  0  0  0  0  0  0  0  0
   47.7980   31.6270   48.8030 N   0  0  0  0  0  0  0  0  0  0  0  0
   47.1320   30.9770   47.8420 C   0  0  0  0  0  0  0  0  0  0  0  0
   46.1260   31.2790   46.9200 C   0  0  0  0  0  0  0  0  0  0  0  0
   45.6870   30.3400   46.0800 N   0  0  0  0  0  0  0  0  0  0  0  0
   46.2430   29.0980   46.1510 C   0  0  0  0  0  0  0  0  0  0  0  0
   47.2290   28.7360   47.0290 N   0  0  0  0  0  0  0  0  0  0  0  0
   47.6460   29.6960   47.8540 C   0  0  0  0  0  0  0  0  0  0  0  0
   44.4451   35.7447   43.2502 H   0  0  0  0  0  0  0  0  0  0  0  0
   46.5668   35.2899   41.9923 H   0  0  0  0  0  0  0  0  0  0  0  0
   48.1604   31.5393   42.3798 H   0  0  0  0  0  0  0  0  0  0  0  0
   50.6654   31.5810   41.3523 H   0  0  0  0  0  0  0  0  0  0  0  0
   51.5636   33.9943   41.8198 H   0  0  0  0  0  0  0  0  0  0  0  0
   49.1479   28.7548   49.0336 H   0  0  0  0  0  0  0  0  0  0  0  0
   49.3697   31.0767   50.2140 H   0  0  0  0  0  0  0  0  0  0  0  0
   45.8734   28.3320   45.4534 H   0  0  0  0  0  0  0  0  0  0  0  0
  1  6  2  0
  2  3  2  0
  2  1  1  0
  3  4  1  0
  4  5  2  0
  5 12  1  0
  6  5  1  0
  7  3  1  0
  8  7  1  0
  9 10  1  0
  9  8  2  0
 10 11  1  0
 11  7  2  0
 13 14  1  0
 15 14  2  0
 16 21  2  0
 16 15  1  0
 17 12  1  0
 17 16  1  0
 18 19  1  0
 18 17  2  0
 19 20  2  0
 20 21  1  0
 21 13  1  0
  1 22  1  0
  2 23  1  0
  8 24  1  0
  9 25  1  0
 10 26  1  0
 13 27  1  0
 14 28  1  0
 19 29  1  0
M  ISO  8  22  14  23  14  24  14  25  14  26   9  27   9  28  14  29  14
M  END
>  <minimizedAffinity>  (1) 
-5.36100149

>  <minimizedRMSD>  (1) 
0.79463762

$$$$
