
     RDKit          3D

 28 31  0  0  0  0  0  0  0  0999 V2000
   44.5900   35.7400   44.6400 C   0  0  0  0  0  0  0  0  0  0  0  0
   45.4580   35.4490   43.5710 C   0  0  0  0  0  0  0  0  0  0  0  0
   46.3490   34.3660   43.7110 C   0  0  0  0  0  0  0  0  0  0  0  0
   46.2930   33.6710   44.9070 N   0  0  0  0  0  0  0  0  0  0  0  0
   45.4500   33.9900   45.8860 C   0  0  0  0  0  0  0  0  0  0  0  0
   44.5900   35.0210   45.7770 N   0  0  0  0  0  0  0  0  0  0  0  0
   47.2760   34.0080   42.6450 C   0  0  0  0  0  0  0  0  0  0  0  0
   48.2860   32.9820   42.9330 C   0  0  0  0  0  0  0  0  0  0  0  0
   49.1530   32.8900   41.3810 S   0  0  0  0  0  0  0  0  0  0  0  0
   48.0640   34.2170   40.5610 C   0  0  0  0  0  0  0  0  0  0  0  0
   47.1490   34.6320   41.4730 N   0  0  0  0  0  0  0  0  0  0  0  0
   45.4670   33.0260   47.3780 S   0  0  0  0  0  0  0  0  0  0  0  0
   48.6520   29.5310   48.5680 N   0  0  0  0  0  0  0  0  0  0  0  0
   48.6350   30.5990   49.3950 C   0  0  0  0  0  0  0  0  0  0  0  0
   47.7200   31.4750   48.9520 N   0  0  0  0  0  0  0  0  0  0  0  0
   47.1350   30.9970   47.8450 C   0  0  0  0  0  0  0  0  0  0  0  0
   46.1460   31.4280   46.9570 C   0  0  0  0  0  0  0  0  0  0  0  0
   45.8020   30.6510   45.9120 N   0  0  0  0  0  0  0  0  0  0  0  0
   46.4380   29.4620   45.7600 C   0  0  0  0  0  0  0  0  0  0  0  0
   47.4080   28.9920   46.5940 N   0  0  0  0  0  0  0  0  0  0  0  0
   47.7310   29.7790   47.6200 C   0  0  0  0  0  0  0  0  0  0  0  0
   43.8892   36.5823   44.5427 H   0  0  0  0  0  0  0  0  0  0  0  0
   45.4414   36.0510   42.6505 H   0  0  0  0  0  0  0  0  0  0  0  0
   48.4607   32.4192   43.8618 H   0  0  0  0  0  0  0  0  0  0  0  0
   48.1594   34.5837   39.5283 H   0  0  0  0  0  0  0  0  0  0  0  0
   49.2495   28.6958   48.6474 H   0  0  0  0  0  0  0  0  0  0  0  0
   49.2675   30.7292   50.2855 H   0  0  0  0  0  0  0  0  0  0  0  0
   46.1506   28.8337   44.9040 H   0  0  0  0  0  0  0  0  0  0  0  0
  1  6  2  0
  2  3  2  0
  2  1  1  0
  3  4  1  0
  4  5  2  0
  5 12  1  0
  6  5  1  0
  7  8  2  0
  7  3  1  0
  9  8  1  0
 10  9  1  0
 10 11  2  0
 11  7  1  0
 13 14  1  0
 15 14  2  0
 16 15  1  0
 17 12  1  0
 17 16  2  0
 18 17  1  0
 19 18  2  0
 19 20  1  0
 20 21  2  0
 21 16  1  0
 21 13  1  0
  1 22  1  0
  2 23  1  0
  8 24  1  0
 10 25  1  0
 13 26  1  0
 14 27  1  0
 19 28  1  0
M  ISO  7  22  14  23  14  24  14  25  14  26   9  27  14  28  14
M  END
>  <minimizedAffinity>  (1) 
-5.29963493

>  <minimizedRMSD>  (1) 
0.590425611

$$$$
