
     RDKit          3D

 28 30  0  0  0  0  0  0  0  0999 V2000
   45.4550   33.0090   47.4440 S   0  0  0  0  0  0  0  0  0  0  0  0
   48.6650   29.5120   48.6250 N   0  0  0  0  0  0  0  0  0  0  0  0
   48.6830   30.6180   49.4040 C   0  0  0  0  0  0  0  0  0  0  0  0
   47.7630   31.4860   48.9730 N   0  0  0  0  0  0  0  0  0  0  0  0
   47.1260   30.9740   47.9110 C   0  0  0  0  0  0  0  0  0  0  0  0
   46.1040   31.3730   47.0450 C   0  0  0  0  0  0  0  0  0  0  0  0
   45.7010   30.5670   46.0460 N   0  0  0  0  0  0  0  0  0  0  0  0
   46.3270   29.3600   45.9150 C   0  0  0  0  0  0  0  0  0  0  0  0
   47.3240   28.9110   46.7200 N   0  0  0  0  0  0  0  0  0  0  0  0
   47.7030   29.7420   47.7100 C   0  0  0  0  0  0  0  0  0  0  0  0
   44.6350   35.6590   44.6240 C   0  0  0  0  0  0  0  0  0  0  0  0
   45.5150   35.3610   43.5850 C   0  0  0  0  0  0  0  0  0  0  0  0
   46.4090   34.2790   43.7740 C   0  0  0  0  0  0  0  0  0  0  0  0
   46.3640   33.5870   44.9560 N   0  0  0  0  0  0  0  0  0  0  0  0
   45.4920   33.9290   45.9110 C   0  0  0  0  0  0  0  0  0  0  0  0
   44.6190   34.9580   45.7680 N   0  0  0  0  0  0  0  0  0  0  0  0
   47.3880   33.8360   42.7980 C   0  0  0  0  0  0  0  0  0  0  0  0
   47.8020   34.9290   41.8610 C   0  0  0  0  0  0  0  0  0  0  0  0
   49.2586   28.6748   48.7125 H   0  0  0  0  0  0  0  0  0  0  0  0
   49.3530   30.7783   50.2616 H   0  0  0  0  0  0  0  0  0  0  0  0
   45.9989   28.7027   45.0963 H   0  0  0  0  0  0  0  0  0  0  0  0
   43.9312   36.4955   44.5022 H   0  0  0  0  0  0  0  0  0  0  0  0
   45.5151   35.9447   42.6526 H   0  0  0  0  0  0  0  0  0  0  0  0
   48.2787   33.4734   43.3319 H   0  0  0  0  0  0  0  0  0  0  0  0
   46.9234   33.0402   42.1973 H   0  0  0  0  0  0  0  0  0  0  0  0
   48.1331   35.8032   42.4408 H   0  0  0  0  0  0  0  0  0  0  0  0
   48.6284   34.5751   41.2271 H   0  0  0  0  0  0  0  0  0  0  0  0
   46.9485   35.2114   41.2271 H   0  0  0  0  0  0  0  0  0  0  0  0
  2  3  1  0
  4  3  2  0
  5  4  1  0
  6  1  1  0
  6  5  2  0
  7  6  1  0
  8  7  2  0
  8  9  1  0
  9 10  2  0
 10  5  1  0
 10  2  1  0
 11 16  2  0
 12 13  2  0
 12 11  1  0
 13 14  1  0
 14 15  2  0
 15  1  1  0
 16 15  1  0
 17 13  1  0
 18 17  1  0
  2 19  1  0
  3 20  1  0
  8 21  1  0
 11 22  1  0
 12 23  1  0
 17 24  1  0
 17 25  1  0
 18 26  1  0
 18 27  1  0
 18 28  1  0
M  ISO  8  19   9  20  14  21  14  22  14  23  14  24   8  25   8  26   8
M  ISO  2  27   8  28   8
M  END
>  <minimizedAffinity>  (1) 
-4.85058069

>  <minimizedRMSD>  (1) 
0.384366333

$$$$
