
     RDKit          3D

 24 26  0  0  0  0  0  0  0  0999 V2000
   45.4110   32.9190   47.5250 S   0  0  0  0  0  0  0  0  0  0  0  0
   48.6670   29.5030   48.7510 N   0  0  0  0  0  0  0  0  0  0  0  0
   48.7960   30.6760   49.3950 C   0  0  0  0  0  0  0  0  0  0  0  0
   47.8450   31.5240   48.9680 N   0  0  0  0  0  0  0  0  0  0  0  0
   47.0890   30.9050   48.0420 C   0  0  0  0  0  0  0  0  0  0  0  0
   45.9830   31.2440   47.2520 C   0  0  0  0  0  0  0  0  0  0  0  0
   45.4700   30.3370   46.4010 N   0  0  0  0  0  0  0  0  0  0  0  0
   46.0540   29.1050   46.3400 C   0  0  0  0  0  0  0  0  0  0  0  0
   47.1310   28.7180   47.0830 N   0  0  0  0  0  0  0  0  0  0  0  0
   47.6260   29.6430   47.9270 C   0  0  0  0  0  0  0  0  0  0  0  0
   44.8600   35.4160   44.4950 C   0  0  0  0  0  0  0  0  0  0  0  0
   45.8240   35.0510   43.5590 C   0  0  0  0  0  0  0  0  0  0  0  0
   46.6890   33.9790   43.8820 C   0  0  0  0  0  0  0  0  0  0  0  0
   46.5060   33.3690   45.1160 N   0  0  0  0  0  0  0  0  0  0  0  0
   45.5620   33.7670   45.9690 C   0  0  0  0  0  0  0  0  0  0  0  0
   44.7330   34.7820   45.6790 N   0  0  0  0  0  0  0  0  0  0  0  0
   47.7060   33.5550   42.9570 C   0  0  0  0  0  0  0  0  0  0  0  0
   48.8100   34.1250   42.9520 O   0  0  0  0  0  0  0  0  0  0  0  0
   49.2535   28.6646   48.8695 H   0  0  0  0  0  0  0  0  0  0  0  0
   49.5599   30.9056   50.1524 H   0  0  0  0  0  0  0  0  0  0  0  0
   45.6256   28.3711   45.6415 H   0  0  0  0  0  0  0  0  0  0  0  0
   44.1798   36.2484   44.2615 H   0  0  0  0  0  0  0  0  0  0  0  0
   45.9104   35.5797   42.5982 H   0  0  0  0  0  0  0  0  0  0  0  0
   47.5071   32.7299   42.2573 H   0  0  0  0  0  0  0  0  0  0  0  0
  2  3  1  0
  4  3  2  0
  5  4  1  0
  6  1  1  0
  6  5  2  0
  7  6  1  0
  8  7  2  0
  8  9  1  0
  9 10  2  0
 10  5  1  0
 10  2  1  0
 11 16  2  0
 12 13  2  0
 12 11  1  0
 13 14  1  0
 14 15  2  0
 15  1  1  0
 16 15  1  0
 17 13  1  0
 18 17  2  0
  2 19  1  0
  3 20  1  0
  8 21  1  0
 11 22  1  0
 12 23  1  0
 17 24  1  0
M  ISO  6  19   9  20  14  21  14  22  14  23  14  24   6
M  END
>  <minimizedAffinity>  (1) 
-4.62532902

>  <minimizedRMSD>  (1) 
0.175019667

$$$$
