
     RDKit          3D

 31 33  0  0  0  0  0  0  0  0999 V2000
   45.4340   33.1190   47.3270 S   0  0  0  0  0  0  0  0  0  0  0  0
   48.5690   29.5810   48.5290 N   0  0  0  0  0  0  0  0  0  0  0  0
   48.5410   30.6350   49.3690 C   0  0  0  0  0  0  0  0  0  0  0  0
   47.6380   31.5290   48.9200 N   0  0  0  0  0  0  0  0  0  0  0  0
   47.0760   31.0630   47.7870 C   0  0  0  0  0  0  0  0  0  0  0  0
   46.1070   31.5130   46.8790 C   0  0  0  0  0  0  0  0  0  0  0  0
   45.7890   30.7540   45.8270 N   0  0  0  0  0  0  0  0  0  0  0  0
   46.4140   29.5640   45.6620 C   0  0  0  0  0  0  0  0  0  0  0  0
   47.3670   29.0670   46.5090 N   0  0  0  0  0  0  0  0  0  0  0  0
   47.6750   29.8400   47.5610 C   0  0  0  0  0  0  0  0  0  0  0  0
   44.5490   35.8510   44.6050 C   0  0  0  0  0  0  0  0  0  0  0  0
   45.3460   35.5490   43.5170 C   0  0  0  0  0  0  0  0  0  0  0  0
   46.2120   34.4330   43.6260 C   0  0  0  0  0  0  0  0  0  0  0  0
   46.2150   33.7150   44.7970 N   0  0  0  0  0  0  0  0  0  0  0  0
   45.4050   34.0730   45.8190 C   0  0  0  0  0  0  0  0  0  0  0  0
   44.5760   35.1320   45.7300 N   0  0  0  0  0  0  0  0  0  0  0  0
   47.1530   33.9160   42.6070 C   0  0  0  0  0  0  0  0  0  0  0  0
   48.1940   32.9770   43.2120 C   0  0  0  0  0  0  0  0  0  0  0  0
   47.8250   35.0550   41.8660 C   0  0  0  0  0  0  0  0  0  0  0  0
   49.1601   28.7417   48.6131 H   0  0  0  0  0  0  0  0  0  0  0  0
   49.1557   30.7472   50.2743 H   0  0  0  0  0  0  0  0  0  0  0  0
   46.1369   28.9559   44.7882 H   0  0  0  0  0  0  0  0  0  0  0  0
   43.8690   36.7133   44.5421 H   0  0  0  0  0  0  0  0  0  0  0  0
   45.3093   36.1537   42.5989 H   0  0  0  0  0  0  0  0  0  0  0  0
   46.5623   33.3297   41.8878 H   0  0  0  0  0  0  0  0  0  0  0  0
   48.1388   33.0267   44.3095 H   0  0  0  0  0  0  0  0  0  0  0  0
   47.9950   31.9470   42.8812 H   0  0  0  0  0  0  0  0  0  0  0  0
   49.1981   33.2808   42.8812 H   0  0  0  0  0  0  0  0  0  0  0  0
   48.2451   35.7671   42.5915 H   0  0  0  0  0  0  0  0  0  0  0  0
   48.6323   34.6558   41.2344 H   0  0  0  0  0  0  0  0  0  0  0  0
   47.0852   35.5686   41.2344 H   0  0  0  0  0  0  0  0  0  0  0  0
  2  3  1  0
  4  3  2  0
  5  4  1  0
  6  1  1  0
  6  5  2  0
  7  6  1  0
  8  7  2  0
  8  9  1  0
  9 10  2  0
 10  5  1  0
 10  2  1  0
 11 16  2  0
 12 13  2  0
 12 11  1  0
 13 14  1  0
 14 15  2  0
 15  1  1  0
 16 15  1  0
 17 18  1  0
 17 13  1  0
 19 17  1  0
  2 20  1  0
  3 21  1  0
  8 22  1  0
 11 23  1  0
 12 24  1  0
 17 25  1  0
 18 26  1  0
 18 27  1  0
 18 28  1  0
 19 29  1  0
 19 30  1  0
 19 31  1  0
M  ISO  8  20   9  21  14  22  14  23  14  24  14  25   8  26   8  27   8
M  ISO  4  28   8  29   8  30   8  31   8
M  END
>  <minimizedAffinity>  (1) 
-5.12481737

>  <minimizedRMSD>  (1) 
0.596094131

$$$$
