
     RDKit          3D

 36 40  0  0  1  0  0  0  0  0999 V2000
   44.5260   35.7520   44.9300 C   0  0  0  0  0  0  0  0  0  0  0  0
   45.2430   35.4080   43.7830 C   0  0  0  0  0  0  0  0  0  0  0  0
   46.0480   34.2400   43.8290 C   0  0  0  0  0  0  0  0  0  0  0  0
   46.0760   33.5240   44.9880 N   0  0  0  0  0  0  0  0  0  0  0  0
   45.3530   33.9190   46.0630 C   0  0  0  0  0  0  0  0  0  0  0  0
   44.5800   35.0270   46.0370 N   0  0  0  0  0  0  0  0  0  0  0  0
   46.8590   33.8060   42.6420 C   0  0  2  0  0  0  0  0  0  0  0  0
   48.3430   34.3050   42.6820 C   0  0  0  0  0  0  0  0  0  0  0  0
   47.3460   34.7700   41.6540 C   0  0  1  0  0  0  0  0  0  0  0  0
   47.4330   34.2550   40.2730 C   0  0  0  0  0  0  0  0  0  0  0  0
   48.2970   34.6340   39.3190 C   0  0  0  0  0  0  0  0  0  0  0  0
   48.2840   34.0870   38.0720 C   0  0  0  0  0  0  0  0  0  0  0  0
   47.2550   33.0730   37.8980 C   0  0  0  0  0  0  0  0  0  0  0  0
   46.4130   33.0270   39.5790 S   0  0  0  0  0  0  0  0  0  0  0  0
   45.4300   32.9510   47.5690 S   0  0  0  0  0  0  0  0  0  0  0  0
   48.7130   29.4930   48.5980 N   0  0  0  0  0  0  0  0  0  0  0  0
   48.7330   30.5570   49.4240 C   0  0  0  0  0  0  0  0  0  0  0  0
   47.7960   31.4200   49.0360 N   0  0  0  0  0  0  0  0  0  0  0  0
   47.1480   30.9440   47.9530 C   0  0  0  0  0  0  0  0  0  0  0  0
   46.1120   31.3540   47.1100 C   0  0  0  0  0  0  0  0  0  0  0  0
   45.7070   30.6040   46.0920 N   0  0  0  0  0  0  0  0  0  0  0  0
   46.3580   29.4070   45.9100 C   0  0  0  0  0  0  0  0  0  0  0  0
   47.3750   28.9390   46.6890 N   0  0  0  0  0  0  0  0  0  0  0  0
   47.7500   29.7290   47.7040 C   0  0  0  0  0  0  0  0  0  0  0  0
   43.8962   36.6537   44.9140 H   0  0  0  0  0  0  0  0  0  0  0  0
   45.1860   36.0225   42.8724 H   0  0  0  0  0  0  0  0  0  0  0  0
   46.3064   32.8607   42.5367 H   0  0  0  0  0  0  0  0  0  0  0  0
   48.6825   34.9842   43.4779 H   0  0  0  0  0  0  0  0  0  0  0  0
   49.3396   33.8395   42.6703 H   0  0  0  0  0  0  0  0  0  0  0  0
   47.0485   35.7783   41.3304 H   0  0  0  0  0  0  0  0  0  0  0  0
   49.0396   35.4115   39.5516 H   0  0  0  0  0  0  0  0  0  0  0  0
   48.9823   34.3825   37.2751 H   0  0  0  0  0  0  0  0  0  0  0  0
   47.0255   32.4782   37.0016 H   0  0  0  0  0  0  0  0  0  0  0  0
   49.3201   28.6624   48.6465 H   0  0  0  0  0  0  0  0  0  0  0  0
   49.4121   30.6910   50.2789 H   0  0  0  0  0  0  0  0  0  0  0  0
   46.0329   28.7765   45.0693 H   0  0  0  0  0  0  0  0  0  0  0  0
  1  6  2  0
  2  3  2  0
  2  1  1  0
  3  4  1  0
  4  5  2  0
  5 15  1  0
  6  5  1  0
  7  8  1  0
  7  3  1  0
  9  7  1  0
  9  8  1  0
 10  9  1  0
 11 10  2  0
 12 11  1  0
 13 12  2  0
 13 14  1  0
 14 10  1  0
 16 17  1  0
 18 17  2  0
 19 18  1  0
 20 15  1  0
 20 19  2  0
 21 20  1  0
 22 21  2  0
 22 23  1  0
 23 24  2  0
 24 19  1  0
 24 16  1  0
  1 25  1  0
  2 26  1  0
  7 27  1  6
  8 28  1  0
  8 29  1  0
  9 30  1  6
 11 31  1  0
 12 32  1  0
 13 33  1  0
 16 34  1  0
 17 35  1  0
 22 36  1  0
M  ISO  8  25  14  26  14  27  13  28  13  29  13  30  13  31  14  32  14
M  ISO  4  33  14  34   9  35  14  36  14
M  END
>  <minimizedAffinity>  (1) 
-6.05032301

>  <minimizedRMSD>  (1) 
0.653895855

$$$$
