
     RDKit          3D

 36 40  0  0  1  0  0  0  0  0999 V2000
   44.5520   35.8090   44.7980 C   0  0  0  0  0  0  0  0  0  0  0  0
   45.3030   35.4940   43.6790 C   0  0  0  0  0  0  0  0  0  0  0  0
   46.1400   34.3400   43.7290 C   0  0  0  0  0  0  0  0  0  0  0  0
   46.1510   33.6120   44.8870 N   0  0  0  0  0  0  0  0  0  0  0  0
   45.3890   33.9840   45.9420 C   0  0  0  0  0  0  0  0  0  0  0  0
   44.5890   35.0760   45.9060 N   0  0  0  0  0  0  0  0  0  0  0  0
   46.9930   33.9340   42.5670 C   0  0  2  0  0  0  0  0  0  0  0  0
   48.4800   34.4050   42.6860 C   0  0  0  0  0  0  0  0  0  0  0  0
   47.5440   34.9310   41.6480 C   0  0  1  0  0  0  0  0  0  0  0  0
   47.6380   34.4330   40.2400 C   0  0  0  0  0  0  0  0  0  0  0  0
   46.8980   33.4140   39.6950 C   0  0  0  0  0  0  0  0  0  0  0  0
   47.2880   33.2630   38.3630 C   0  0  0  0  0  0  0  0  0  0  0  0
   48.2530   34.2070   38.1700 C   0  0  0  0  0  0  0  0  0  0  0  0
   48.4350   34.8670   39.2650 O   0  0  0  0  0  0  0  0  0  0  0  0
   45.4410   33.0080   47.4440 S   0  0  0  0  0  0  0  0  0  0  0  0
   48.6860   29.5350   48.5620 N   0  0  0  0  0  0  0  0  0  0  0  0
   48.6640   30.5870   49.3980 C   0  0  0  0  0  0  0  0  0  0  0  0
   47.7440   31.4570   48.9850 N   0  0  0  0  0  0  0  0  0  0  0  0
   47.1390   30.9950   47.8650 C   0  0  0  0  0  0  0  0  0  0  0  0
   46.1440   31.4220   46.9950 C   0  0  0  0  0  0  0  0  0  0  0  0
   45.7840   30.6830   45.9480 N   0  0  0  0  0  0  0  0  0  0  0  0
   46.4420   29.4880   45.7720 C   0  0  0  0  0  0  0  0  0  0  0  0
   47.4240   29.0090   46.5830 N   0  0  0  0  0  0  0  0  0  0  0  0
   47.7660   29.7800   47.6360 C   0  0  0  0  0  0  0  0  0  0  0  0
   43.9024   36.6962   44.7694 H   0  0  0  0  0  0  0  0  0  0  0  0
   45.2557   36.1176   42.7741 H   0  0  0  0  0  0  0  0  0  0  0  0
   46.4306   33.0034   42.4006 H   0  0  0  0  0  0  0  0  0  0  0  0
   48.7979   35.0420   43.5246 H   0  0  0  0  0  0  0  0  0  0  0  0
   49.4681   33.9217   42.6927 H   0  0  0  0  0  0  0  0  0  0  0  0
   47.3069   35.9655   41.3587 H   0  0  0  0  0  0  0  0  0  0  0  0
   46.1322   32.8205   40.2160 H   0  0  0  0  0  0  0  0  0  0  0  0
   46.9013   32.5403   37.6294 H   0  0  0  0  0  0  0  0  0  0  0  0
   48.7929   34.3796   37.2273 H   0  0  0  0  0  0  0  0  0  0  0  0
   49.2938   28.7059   48.6264 H   0  0  0  0  0  0  0  0  0  0  0  0
   49.3047   30.7101   50.2836 H   0  0  0  0  0  0  0  0  0  0  0  0
   46.1518   28.8716   44.9084 H   0  0  0  0  0  0  0  0  0  0  0  0
  1  6  2  0
  2  3  2  0
  2  1  1  0
  3  4  1  0
  4  5  2  0
  5 15  1  0
  6  5  1  0
  7  8  1  0
  7  3  1  0
  9  7  1  0
  9  8  1  0
 10  9  1  0
 11 10  2  0
 12 11  1  0
 13 12  2  0
 13 14  1  0
 14 10  1  0
 16 17  1  0
 18 17  2  0
 19 18  1  0
 20 15  1  0
 20 19  2  0
 21 20  1  0
 22 21  2  0
 22 23  1  0
 23 24  2  0
 24 19  1  0
 24 16  1  0
  1 25  1  0
  2 26  1  0
  7 27  1  6
  8 28  1  0
  8 29  1  0
  9 30  1  6
 11 31  1  0
 12 32  1  0
 13 33  1  0
 16 34  1  0
 17 35  1  0
 22 36  1  0
M  ISO  8  25  14  26  14  27  13  28  13  29  13  30  13  31  14  32  14
M  ISO  4  33  14  34   9  35  14  36  14
M  END
>  <minimizedAffinity>  (1) 
-6.10732746

>  <minimizedRMSD>  (1) 
0.441718906

$$$$
