
     RDKit          3D

 41 45  0  0  1  0  0  0  0  0999 V2000
   44.9410   35.4610   44.2160 C   0  0  0  0  0  0  0  0  0  0  0  0
   45.9160   35.1130   43.2930 C   0  0  0  0  0  0  0  0  0  0  0  0
   46.8090   34.0530   43.6310 C   0  0  0  0  0  0  0  0  0  0  0  0
   46.6530   33.4440   44.8410 N   0  0  0  0  0  0  0  0  0  0  0  0
   45.6810   33.8390   45.6860 C   0  0  0  0  0  0  0  0  0  0  0  0
   44.8210   34.8430   45.3870 N   0  0  0  0  0  0  0  0  0  0  0  0
   47.9010   33.6180   42.6920 C   0  0  2  0  0  0  0  0  0  0  0  0
   49.0970   34.6250   42.6230 C   0  0  0  0  0  0  0  0  0  0  0  0
   48.1770   34.3510   41.4670 C   0  0  1  0  0  0  0  0  0  0  0  0
   48.6270   33.7550   40.2500 N   0  0  0  0  0  0  0  0  0  0  0  0
   48.8730   32.3620   40.3760 C   0  0  0  0  0  0  0  0  0  0  0  0
   47.7610   31.4820   39.8970 C   0  0  0  0  0  0  0  0  0  0  0  0
   46.6940   32.1320   39.2300 N   0  0  0  0  0  0  0  0  0  0  0  0
   46.9970   33.2900   38.4570 C   0  0  0  0  0  0  0  0  0  0  0  0
   48.0580   34.1870   39.0370 C   0  0  0  0  0  0  0  0  0  0  0  0
   45.5120   33.0200   47.2680 S   0  0  0  0  0  0  0  0  0  0  0  0
   48.6530   29.5800   48.7330 N   0  0  0  0  0  0  0  0  0  0  0  0
   48.7420   30.7520   49.3840 C   0  0  0  0  0  0  0  0  0  0  0  0
   47.8420   31.5980   48.8960 N   0  0  0  0  0  0  0  0  0  0  0  0
   47.1410   30.9950   47.9100 C   0  0  0  0  0  0  0  0  0  0  0  0
   46.1000   31.3440   47.0410 C   0  0  0  0  0  0  0  0  0  0  0  0
   45.6290   30.4750   46.1550 N   0  0  0  0  0  0  0  0  0  0  0  0
   46.2100   29.2280   46.1360 C   0  0  0  0  0  0  0  0  0  0  0  0
   47.2240   28.8240   46.9500 N   0  0  0  0  0  0  0  0  0  0  0  0
   47.6760   29.7340   47.8360 C   0  0  0  0  0  0  0  0  0  0  0  0
   44.2436   36.2756   43.9710 H   0  0  0  0  0  0  0  0  0  0  0  0
   45.9982   35.6382   42.3300 H   0  0  0  0  0  0  0  0  0  0  0  0
   47.7312   32.5489   42.8873 H   0  0  0  0  0  0  0  0  0  0  0  0
   49.0517   35.5847   43.1586 H   0  0  0  0  0  0  0  0  0  0  0  0
   50.1812   34.5893   42.8053 H   0  0  0  0  0  0  0  0  0  0  0  0
   47.5486   34.9807   40.8200 H   0  0  0  0  0  0  0  0  0  0  0  0
   49.7752   32.1200   39.7951 H   0  0  0  0  0  0  0  0  0  0  0  0
   48.9832   32.1633   41.4523 H   0  0  0  0  0  0  0  0  0  0  0  0
   48.1912   30.7446   39.2034 H   0  0  0  0  0  0  0  0  0  0  0  0
   47.3190   31.0448   40.8045 H   0  0  0  0  0  0  0  0  0  0  0  0
   45.7291   31.7787   39.3015 H   0  0  0  0  0  0  0  0  0  0  0  0
   46.4922   33.5125   37.5053 H   0  0  0  0  0  0  0  0  0  0  0  0
   48.3687   35.1202   38.5445 H   0  0  0  0  0  0  0  0  0  0  0  0
   49.2216   28.7362   48.8930 H   0  0  0  0  0  0  0  0  0  0  0  0
   49.4503   30.9760   50.1952 H   0  0  0  0  0  0  0  0  0  0  0  0
   45.8253   28.5005   45.4061 H   0  0  0  0  0  0  0  0  0  0  0  0
  1  6  2  0
  2  3  2  0
  2  1  1  0
  3  4  1  0
  4  5  2  0
  5 16  1  0
  6  5  1  0
  7  3  1  0
  8  7  1  0
  9  8  1  0
  9  7  1  0
 10 11  1  0
 10  9  1  0
 12 11  1  0
 13 12  1  0
 14 15  2  0
 14 13  1  0
 15 10  1  0
 17 18  1  0
 19 18  2  0
 20 19  1  0
 21 16  1  0
 21 20  2  0
 22 21  1  0
 23 22  2  0
 23 24  1  0
 24 25  2  0
 25 20  1  0
 25 17  1  0
  1 26  1  0
  2 27  1  0
  7 28  1  6
  8 29  1  0
  8 30  1  0
  9 31  1  6
 11 32  1  0
 11 33  1  0
 12 34  1  0
 12 35  1  0
 13 36  1  0
 14 37  1  0
 15 38  1  0
 17 39  1  0
 18 40  1  0
 23 41  1  0
M  ISO  8  26  14  27  14  28  13  29  13  30  13  31  13  32  13  33  13
M  ISO  7  34  13  35  13  37  13  38  13  39   9  40  14  41  14
M  END
>  <minimizedAffinity>  (1) 
-5.74207401

>  <minimizedRMSD>  (1) 
0.627349198

$$$$
