
     RDKit          3D

 42 46  0  0  1  0  0  0  0  0999 V2000
   44.6700   35.6510   44.6190 C   0  0  0  0  0  0  0  0  0  0  0  0
   45.5190   35.3180   43.5770 C   0  0  0  0  0  0  0  0  0  0  0  0
   46.4010   34.2010   43.7490 C   0  0  0  0  0  0  0  0  0  0  0  0
   46.3440   33.5330   44.9390 N   0  0  0  0  0  0  0  0  0  0  0  0
   45.4890   33.9200   45.9050 C   0  0  0  0  0  0  0  0  0  0  0  0
   44.6470   34.9750   45.7590 N   0  0  0  0  0  0  0  0  0  0  0  0
   47.3560   33.7810   42.6800 C   0  0  2  0  0  0  0  0  0  0  0  0
   48.7270   34.5420   42.7410 C   0  0  0  0  0  0  0  0  0  0  0  0
   47.7500   34.6940   41.6070 C   0  0  1  0  0  0  0  0  0  0  0  0
   48.2130   34.1420   40.3400 N   0  0  0  0  0  0  0  0  0  0  0  0
   49.0200   32.9530   40.5390 C   0  0  0  0  0  0  0  0  0  0  0  0
   48.9120   32.0870   39.3070 C   0  0  0  0  0  0  0  0  0  0  0  0
   48.9830   32.9400   38.2160 O   0  0  0  0  0  0  0  0  0  0  0  0
   47.8240   33.6630   38.0440 C   0  0  0  0  0  0  0  0  0  0  0  0
   47.1650   33.8320   39.4200 C   0  0  0  0  0  0  0  0  0  0  0  0
   45.4530   33.0190   47.4630 S   0  0  0  0  0  0  0  0  0  0  0  0
   48.6450   29.5250   48.6600 N   0  0  0  0  0  0  0  0  0  0  0  0
   48.7120   30.6410   49.4070 C   0  0  0  0  0  0  0  0  0  0  0  0
   47.7970   31.5080   48.9810 N   0  0  0  0  0  0  0  0  0  0  0  0
   47.1060   30.9790   47.9420 C   0  0  0  0  0  0  0  0  0  0  0  0
   46.0620   31.3770   47.0980 C   0  0  0  0  0  0  0  0  0  0  0  0
   45.6200   30.5700   46.1500 N   0  0  0  0  0  0  0  0  0  0  0  0
   46.2210   29.3390   46.0290 C   0  0  0  0  0  0  0  0  0  0  0  0
   47.2410   28.8890   46.8160 N   0  0  0  0  0  0  0  0  0  0  0  0
   47.6710   29.7370   47.7780 C   0  0  0  0  0  0  0  0  0  0  0  0
   43.9903   36.5072   44.4963 H   0  0  0  0  0  0  0  0  0  0  0  0
   45.5167   35.8959   42.6410 H   0  0  0  0  0  0  0  0  0  0  0  0
   46.9814   32.7469   42.6643 H   0  0  0  0  0  0  0  0  0  0  0  0
   48.8802   35.3604   43.4599 H   0  0  0  0  0  0  0  0  0  0  0  0
   49.7866   34.2663   42.8475 H   0  0  0  0  0  0  0  0  0  0  0  0
   47.2188   35.5345   41.1365 H   0  0  0  0  0  0  0  0  0  0  0  0
   50.0697   33.2400   40.6996 H   0  0  0  0  0  0  0  0  0  0  0  0
   48.6636   32.3996   41.4203 H   0  0  0  0  0  0  0  0  0  0  0  0
   49.7401   31.3636   39.2777 H   0  0  0  0  0  0  0  0  0  0  0  0
   47.9715   31.5166   39.3041 H   0  0  0  0  0  0  0  0  0  0  0  0
   48.0587   34.6497   37.6182 H   0  0  0  0  0  0  0  0  0  0  0  0
   47.1445   33.1396   37.3553 H   0  0  0  0  0  0  0  0  0  0  0  0
   46.4310   34.6508   39.3911 H   0  0  0  0  0  0  0  0  0  0  0  0
   46.6324   32.9173   39.7194 H   0  0  0  0  0  0  0  0  0  0  0  0
   49.2273   28.6803   48.7515 H   0  0  0  0  0  0  0  0  0  0  0  0
   49.4121   30.8103   50.2383 H   0  0  0  0  0  0  0  0  0  0  0  0
   45.8523   28.6675   45.2396 H   0  0  0  0  0  0  0  0  0  0  0  0
  1  6  2  0
  2  3  2  0
  2  1  1  0
  3  4  1  0
  4  5  2  0
  5 16  1  0
  6  5  1  0
  7  8  1  0
  7  3  1  0
  9  7  1  0
  9  8  1  0
 10 11  1  0
 10  9  1  0
 12 11  1  0
 13 12  1  0
 14 13  1  0
 14 15  1  0
 15 10  1  0
 17 18  1  0
 19 18  2  0
 20 19  1  0
 21 16  1  0
 21 20  2  0
 22 21  1  0
 23 22  2  0
 23 24  1  0
 24 25  2  0
 25 20  1  0
 25 17  1  0
  1 26  1  0
  2 27  1  0
  7 28  1  6
  8 29  1  0
  8 30  1  0
  9 31  1  6
 11 32  1  0
 11 33  1  0
 12 34  1  0
 12 35  1  0
 14 36  1  0
 14 37  1  0
 15 38  1  0
 15 39  1  0
 17 40  1  0
 18 41  1  0
 23 42  1  0
M  ISO  8  26  14  27  14  28  13  29  13  30  13  31  13  32  13  33  13
M  ISO  8  34  13  35  13  36  13  37  13  38  13  39  13  40   9  41  14
M  ISO  1  42  14
M  END
>  <minimizedAffinity>  (1) 
-5.9285655

>  <minimizedRMSD>  (1) 
0.305692673

$$$$
