
     RDKit          3D

 36 40  0  0  1  0  0  0  0  0999 V2000
   44.6060   35.7670   44.6290 C   0  0  0  0  0  0  0  0  0  0  0  0
   45.4280   35.4710   43.5620 C   0  0  0  0  0  0  0  0  0  0  0  0
   46.3130   34.3490   43.6750 C   0  0  0  0  0  0  0  0  0  0  0  0
   46.2880   33.6420   44.8390 N   0  0  0  0  0  0  0  0  0  0  0  0
   45.4540   33.9940   45.8410 C   0  0  0  0  0  0  0  0  0  0  0  0
   44.6130   35.0490   45.7470 N   0  0  0  0  0  0  0  0  0  0  0  0
   47.2520   33.9700   42.5650 C   0  0  2  0  0  0  0  0  0  0  0  0
   48.7000   34.5350   42.7710 C   0  0  0  0  0  0  0  0  0  0  0  0
   47.7920   34.9770   41.6530 C   0  0  1  0  0  0  0  0  0  0  0  0
   48.1620   34.5370   40.2400 C   0  0  0  0  0  0  0  0  0  0  0  0
   47.2230   33.7270   39.4360 C   0  0  0  0  0  0  0  0  0  0  0  0
   48.5450   33.1590   39.9310 C   0  0  0  0  0  0  0  0  0  0  0  0
   45.4630   33.0360   47.3590 S   0  0  0  0  0  0  0  0  0  0  0  0
   48.6520   29.5310   48.5670 N   0  0  0  0  0  0  0  0  0  0  0  0
   48.6230   30.6060   49.3870 C   0  0  0  0  0  0  0  0  0  0  0  0
   47.7270   31.4740   48.9510 N   0  0  0  0  0  0  0  0  0  0  0  0
   47.1390   30.9950   47.8320 C   0  0  0  0  0  0  0  0  0  0  0  0
   46.1540   31.4340   46.9410 C   0  0  0  0  0  0  0  0  0  0  0  0
   45.8010   30.6880   45.9010 N   0  0  0  0  0  0  0  0  0  0  0  0
   46.4410   29.4810   45.7450 C   0  0  0  0  0  0  0  0  0  0  0  0
   47.4100   28.9960   46.5790 N   0  0  0  0  0  0  0  0  0  0  0  0
   47.7440   29.7780   47.6230 C   0  0  0  0  0  0  0  0  0  0  0  0
   43.9224   36.6253   44.5520 H   0  0  0  0  0  0  0  0  0  0  0  0
   45.4051   36.0808   42.6468 H   0  0  0  0  0  0  0  0  0  0  0  0
   46.7567   33.0050   42.3823 H   0  0  0  0  0  0  0  0  0  0  0  0
   48.9222   35.2102   43.6105 H   0  0  0  0  0  0  0  0  0  0  0  0
   49.7137   34.1164   42.8554 H   0  0  0  0  0  0  0  0  0  0  0  0
   47.4250   35.9570   41.3139 H   0  0  0  0  0  0  0  0  0  0  0  0
   48.6600   35.5080   40.1017 H   0  0  0  0  0  0  0  0  0  0  0  0
   47.0782   33.9440   38.3674 H   0  0  0  0  0  0  0  0  0  0  0  0
   46.1640   33.4400   39.5148 H   0  0  0  0  0  0  0  0  0  0  0  0
   48.5559   32.3979   40.7251 H   0  0  0  0  0  0  0  0  0  0  0  0
   49.4137   32.6759   39.4598 H   0  0  0  0  0  0  0  0  0  0  0  0
   49.2500   28.6968   48.6537 H   0  0  0  0  0  0  0  0  0  0  0  0
   49.2500   30.7379   50.2811 H   0  0  0  0  0  0  0  0  0  0  0  0
   46.1518   28.8591   44.8850 H   0  0  0  0  0  0  0  0  0  0  0  0
  1  6  2  0
  2  3  2  0
  2  1  1  0
  3  4  1  0
  4  5  2  0
  5 13  1  0
  6  5  1  0
  7  8  1  0
  7  3  1  0
  9  7  1  0
  9  8  1  0
 10  9  1  0
 11 12  1  0
 11 10  1  0
 12 10  1  0
 14 15  1  0
 16 15  2  0
 17 16  1  0
 18 13  1  0
 18 17  2  0
 19 18  1  0
 20 19  2  0
 20 21  1  0
 21 22  2  0
 22 17  1  0
 22 14  1  0
  1 23  1  0
  2 24  1  0
  7 25  1  6
  8 26  1  0
  8 27  1  0
  9 28  1  6
 10 29  1  0
 11 30  1  0
 11 31  1  0
 12 32  1  0
 12 33  1  0
 14 34  1  0
 15 35  1  0
 20 36  1  0
M  ISO  8  23  14  24  14  25  13  26  13  27  13  28  13  29  13  30  13
M  ISO  6  31  13  32  13  33  13  34   9  35  14  36  14
M  END
>  <minimizedAffinity>  (1) 
-5.84798384

>  <minimizedRMSD>  (1) 
0.203077838

$$$$
