
     RDKit          3D

 41 45  0  0  1  0  0  0  0  0999 V2000
   44.6080   35.7980   44.5320 C   0  0  0  0  0  0  0  0  0  0  0  0
   45.4050   35.4620   43.4460 C   0  0  0  0  0  0  0  0  0  0  0  0
   46.2690   34.3270   43.5660 C   0  0  0  0  0  0  0  0  0  0  0  0
   46.2540   33.6470   44.7480 N   0  0  0  0  0  0  0  0  0  0  0  0
   45.4530   34.0330   45.7570 C   0  0  0  0  0  0  0  0  0  0  0  0
   44.6290   35.0980   45.6660 N   0  0  0  0  0  0  0  0  0  0  0  0
   47.1700   33.9090   42.4480 C   0  0  2  0  0  0  0  0  0  0  0  0
   47.9650   35.0990   41.8110 C   0  0  0  0  0  0  0  0  0  0  0  0
   46.9150   34.3250   41.0690 C   0  0  1  0  0  0  0  0  0  0  0  0
   47.2240   33.4070   40.0230 N   0  0  0  0  0  0  0  0  0  0  0  0
   48.3640   33.7010   39.2290 C   0  0  0  0  0  0  0  0  0  0  0  0
   47.8400   34.0590   37.8330 C   0  0  0  0  0  0  0  0  0  0  0  0
   46.6640   33.0770   37.7640 C   0  0  0  0  0  0  0  0  0  0  0  0
   46.0830   33.2170   39.1500 C   0  0  0  0  0  0  0  0  0  0  0  0
   45.4750   33.1110   47.3030 S   0  0  0  0  0  0  0  0  0  0  0  0
   48.5900   29.5680   48.5800 N   0  0  0  0  0  0  0  0  0  0  0  0
   48.5780   30.6460   49.3780 C   0  0  0  0  0  0  0  0  0  0  0  0
   47.6980   31.5280   48.9260 N   0  0  0  0  0  0  0  0  0  0  0  0
   47.1050   31.0450   47.8090 C   0  0  0  0  0  0  0  0  0  0  0  0
   46.1320   31.4910   46.9090 C   0  0  0  0  0  0  0  0  0  0  0  0
   45.7730   30.7400   45.8840 N   0  0  0  0  0  0  0  0  0  0  0  0
   46.3870   29.5170   45.7410 C   0  0  0  0  0  0  0  0  0  0  0  0
   47.3420   29.0270   46.5860 N   0  0  0  0  0  0  0  0  0  0  0  0
   47.6870   29.8090   47.6170 C   0  0  0  0  0  0  0  0  0  0  0  0
   43.9392   36.6679   44.4542 H   0  0  0  0  0  0  0  0  0  0  0  0
   45.3734   36.0521   42.5182 H   0  0  0  0  0  0  0  0  0  0  0  0
   47.3703   32.9244   42.8957 H   0  0  0  0  0  0  0  0  0  0  0  0
   47.7736   36.1336   42.1319 H   0  0  0  0  0  0  0  0  0  0  0  0
   49.0232   35.3556   41.6548 H   0  0  0  0  0  0  0  0  0  0  0  0
   46.0340   34.6582   40.5008 H   0  0  0  0  0  0  0  0  0  0  0  0
   48.9167   34.5503   39.6570 H   0  0  0  0  0  0  0  0  0  0  0  0
   49.0528   32.8443   39.1883 H   0  0  0  0  0  0  0  0  0  0  0  0
   47.5081   35.1060   37.7722 H   0  0  0  0  0  0  0  0  0  0  0  0
   48.5727   33.9803   37.0163 H   0  0  0  0  0  0  0  0  0  0  0  0
   45.9384   33.3708   36.9912 H   0  0  0  0  0  0  0  0  0  0  0  0
   46.9495   32.0491   37.4960 H   0  0  0  0  0  0  0  0  0  0  0  0
   45.4100   34.0857   39.2002 H   0  0  0  0  0  0  0  0  0  0  0  0
   45.4878   32.3376   39.4370 H   0  0  0  0  0  0  0  0  0  0  0  0
   49.1739   28.7260   48.6850 H   0  0  0  0  0  0  0  0  0  0  0  0
   49.2041   30.7781   50.2727 H   0  0  0  0  0  0  0  0  0  0  0  0
   46.0883   28.8907   44.8875 H   0  0  0  0  0  0  0  0  0  0  0  0
  1  6  2  0
  2  3  2  0
  2  1  1  0
  3  4  1  0
  4  5  2  0
  5 15  1  0
  6  5  1  0
  7  3  1  0
  8  7  1  0
  9  8  1  0
  9  7  1  0
 10 11  1  0
 10  9  1  0
 12 11  1  0
 13 12  1  0
 13 14  1  0
 14 10  1  0
 16 17  1  0
 18 17  2  0
 19 18  1  0
 20 15  1  0
 20 19  2  0
 21 20  1  0
 22 21  2  0
 22 23  1  0
 23 24  2  0
 24 19  1  0
 24 16  1  0
  1 25  1  0
  2 26  1  0
  7 27  1  6
  8 28  1  0
  8 29  1  0
  9 30  1  1
 11 31  1  0
 11 32  1  0
 12 33  1  0
 12 34  1  0
 13 35  1  0
 13 36  1  0
 14 37  1  0
 14 38  1  0
 16 39  1  0
 17 40  1  0
 22 41  1  0
M  ISO  8  25  14  26  14  27  13  28  13  29  13  30  13  31  13  32  13
M  ISO  8  33  13  34  13  35  13  36  13  37  13  38  13  39   9  40  14
M  ISO  1  41  14
M  END
>  <minimizedAffinity>  (1) 
-5.85144711

>  <minimizedRMSD>  (1) 
0.993400812

$$$$
