
     RDKit          3D

 30 33  0  0  1  0  0  0  0  0999 V2000
   44.6190   35.7150   44.6660 C   0  0  0  0  0  0  0  0  0  0  0  0
   45.4390   35.3950   43.5850 C   0  0  0  0  0  0  0  0  0  0  0  0
   46.3140   34.2720   43.7060 C   0  0  0  0  0  0  0  0  0  0  0  0
   46.2920   33.5750   44.8850 N   0  0  0  0  0  0  0  0  0  0  0  0
   45.4610   33.9520   45.8940 C   0  0  0  0  0  0  0  0  0  0  0  0
   44.6280   35.0140   45.7880 N   0  0  0  0  0  0  0  0  0  0  0  0
   47.2280   33.8730   42.6040 C   0  0  2  0  0  0  0  0  0  0  0  0
   48.6510   34.5250   42.7060 C   0  0  0  0  0  0  0  0  0  0  0  0
   47.6820   34.8360   41.6000 C   0  0  1  0  0  0  0  0  0  0  0  0
   48.0160   34.2080   39.9220 S   0  0  0  0  0  0  0  0  0  0  0  0
   45.4720   33.0220   47.4290 S   0  0  0  0  0  0  0  0  0  0  0  0
   48.6590   29.5200   48.6000 N   0  0  0  0  0  0  0  0  0  0  0  0
   48.6940   30.6110   49.4050 C   0  0  0  0  0  0  0  0  0  0  0  0
   47.7810   31.4810   48.9730 N   0  0  0  0  0  0  0  0  0  0  0  0
   47.1390   30.9870   47.8940 C   0  0  0  0  0  0  0  0  0  0  0  0
   46.1280   31.4000   47.0260 C   0  0  0  0  0  0  0  0  0  0  0  0
   45.7260   30.6320   46.0240 N   0  0  0  0  0  0  0  0  0  0  0  0
   46.3450   29.4160   45.8770 C   0  0  0  0  0  0  0  0  0  0  0  0
   47.3420   28.9430   46.6890 N   0  0  0  0  0  0  0  0  0  0  0  0
   47.7210   29.7520   47.6920 C   0  0  0  0  0  0  0  0  0  0  0  0
   43.9425   36.5784   44.5834 H   0  0  0  0  0  0  0  0  0  0  0  0
   45.4130   35.9923   42.6617 H   0  0  0  0  0  0  0  0  0  0  0  0
   46.7790   32.8728   42.5143 H   0  0  0  0  0  0  0  0  0  0  0  0
   48.8688   35.2715   43.4840 H   0  0  0  0  0  0  0  0  0  0  0  0
   49.6880   34.1651   42.7777 H   0  0  0  0  0  0  0  0  0  0  0  0
   47.2775   35.7810   41.2084 H   0  0  0  0  0  0  0  0  0  0  0  0
   48.6581   33.0007   40.0057 H   0  0  0  0  0  0  0  0  0  0  0  0
   49.2457   28.6771   48.6786 H   0  0  0  0  0  0  0  0  0  0  0  0
   49.3619   30.7536   50.2673 H   0  0  0  0  0  0  0  0  0  0  0  0
   46.0166   28.7740   45.0463 H   0  0  0  0  0  0  0  0  0  0  0  0
  1  6  2  0
  2  3  2  0
  2  1  1  0
  3  4  1  0
  4  5  2  0
  5 11  1  0
  6  5  1  0
  7  8  1  0
  7  3  1  0
  9  7  1  0
  9  8  1  0
 10  9  1  0
 12 13  1  0
 14 13  2  0
 15 14  1  0
 16 11  1  0
 16 15  2  0
 17 16  1  0
 18 17  2  0
 18 19  1  0
 19 20  2  0
 20 15  1  0
 20 12  1  0
  1 21  1  0
  2 22  1  0
  7 23  1  6
  8 24  1  0
  8 25  1  0
  9 26  1  6
 10 27  1  0
 12 28  1  0
 13 29  1  0
 18 30  1  0
M  ISO  8  21  14  22  14  23  13  24  13  25  13  26  13  27  11  28   9
M  ISO  2  29  14  30  14
M  END
>  <minimizedAffinity>  (1) 
-5.41740227

>  <minimizedRMSD>  (1) 
0.221130013

$$$$
