
     RDKit          3D

 35 36  0  0  0  0  0  0  0  0999 V2000
   47.4280   34.1320   41.7740 C   0  0  0  0  0  0  0  0  0  0  0  0
   48.3150   35.2160   41.1840 C   0  0  0  0  0  0  0  0  0  0  0  0
   49.4550   35.6160   42.0560 C   0  0  0  0  0  0  0  0  0  0  0  0
   50.3010   34.4540   42.4990 C   0  0  0  0  0  0  0  0  0  0  0  0
   49.5150   33.1490   42.4880 C   0  0  0  0  0  0  0  0  0  0  0  0
   48.1170   33.5020   42.9490 C   0  0  0  0  0  0  0  0  0  0  0  0
   43.8050   35.1640   41.5760 C   0  0  0  0  0  0  0  0  0  0  0  0
   45.0310   34.6430   41.1530 C   0  0  0  0  0  0  0  0  0  0  0  0
   46.0750   34.6670   42.1000 C   0  0  0  0  0  0  0  0  0  0  0  0
   45.8390   35.1830   43.3420 N   0  0  0  0  0  0  0  0  0  0  0  0
   44.6250   35.6800   43.7110 C   0  0  0  0  0  0  0  0  0  0  0  0
   43.6180   35.6620   42.8110 N   0  0  0  0  0  0  0  0  0  0  0  0
   42.6520   35.1770   40.6390 C   0  0  0  0  0  0  0  0  0  0  0  0
   42.4540   33.8480   39.9620 C   0  0  0  0  0  0  0  0  0  0  0  0
   41.3550   35.4980   41.3940 C   0  0  0  0  0  0  0  0  0  0  0  0
   47.2637   33.3397   41.0289 H   0  0  0  0  0  0  0  0  0  0  0  0
   48.7227   34.8471   40.2312 H   0  0  0  0  0  0  0  0  0  0  0  0
   47.6835   36.1083   41.0613 H   0  0  0  0  0  0  0  0  0  0  0  0
   50.0915   36.3187   41.4983 H   0  0  0  0  0  0  0  0  0  0  0  0
   49.0283   36.0724   42.9613 H   0  0  0  0  0  0  0  0  0  0  0  0
   51.1601   34.3586   41.8187 H   0  0  0  0  0  0  0  0  0  0  0  0
   50.6341   34.6453   43.5297 H   0  0  0  0  0  0  0  0  0  0  0  0
   49.4878   32.7274   41.4724 H   0  0  0  0  0  0  0  0  0  0  0  0
   49.9769   32.3942   43.1414 H   0  0  0  0  0  0  0  0  0  0  0  0
   48.1613   34.2111   43.7887 H   0  0  0  0  0  0  0  0  0  0  0  0
   47.5754   32.6100   43.2968 H   0  0  0  0  0  0  0  0  0  0  0  0
   45.1730   34.2379   40.1402 H   0  0  0  0  0  0  0  0  0  0  0  0
   44.4684   36.0873   44.7207 H   0  0  0  0  0  0  0  0  0  0  0  0
   42.8774   35.9440   39.8835 H   0  0  0  0  0  0  0  0  0  0  0  0
   42.3370   33.0626   40.7232 H   0  0  0  0  0  0  0  0  0  0  0  0
   41.5518   33.8872   39.3339 H   0  0  0  0  0  0  0  0  0  0  0  0
   43.3285   33.6225   39.3339 H   0  0  0  0  0  0  0  0  0  0  0  0
   41.5404   35.4521   42.4773 H   0  0  0  0  0  0  0  0  0  0  0  0
   41.0133   36.5078   41.1229 H   0  0  0  0  0  0  0  0  0  0  0  0
   40.5817   34.7641   41.1229 H   0  0  0  0  0  0  0  0  0  0  0  0
  1  9  1  0
  1  6  1  0
  2  1  1  0
  2  3  1  0
  3  4  1  0
  5  4  1  0
  5  6  1  0
  7 12  2  0
  8  7  1  0
  8  9  2  0
  9 10  1  0
 10 11  2  0
 12 11  1  0
 13 15  1  0
 13  7  1  0
 14 13  1  0
  1 16  1  0
  2 17  1  0
  2 18  1  0
  3 19  1  0
  3 20  1  0
  4 21  1  0
  4 22  1  0
  5 23  1  0
  5 24  1  0
  6 25  1  0
  6 26  1  0
  8 27  1  0
 11 28  1  0
 13 29  1  0
 14 30  1  0
 14 31  1  0
 14 32  1  0
 15 33  1  0
 15 34  1  0
 15 35  1  0
M  ISO  8  16  13  17  13  18  13  19  13  20  13  21  13  22  13  23  13
M  ISO  8  24  13  25  13  26  13  27  14  28  14  29   8  30   8  31   8
M  ISO  4  32   8  33   8  34   8  35   8
M  END
>  <minimizedAffinity>  (1) 
-5.0865736

>  <minimizedRMSD>  (1) 
2.4369626

$$$$
