
     RDKit          3D

 49 52  0  0  0  0  0  0  0  0999 V2000
   47.8260   34.4940   40.3620 C   0  0  0  0  0  0  0  0  0  0  0  0
   47.0720   34.7140   41.5190 C   0  0  0  0  0  0  0  0  0  0  0  0
   47.1260   33.9140   42.6610 C   0  0  0  0  0  0  0  0  0  0  0  0
   47.9990   32.9340   42.4520 N   0  0  0  0  0  0  0  0  0  0  0  0
   48.7350   32.6610   41.4100 C   0  0  0  0  0  0  0  0  0  0  0  0
   48.6500   33.4550   40.3410 N   0  0  0  0  0  0  0  0  0  0  0  0
   46.2420   34.3730   43.7190 C   0  0  0  0  0  0  0  0  0  0  0  0
   45.4520   35.4560   43.6020 N   0  0  0  0  0  0  0  0  0  0  0  0
   44.6390   35.8620   44.5730 C   0  0  0  0  0  0  0  0  0  0  0  0
   44.5510   35.2070   45.7480 N   0  0  0  0  0  0  0  0  0  0  0  0
   45.2960   34.1230   45.9540 C   0  0  0  0  0  0  0  0  0  0  0  0
   45.2050   33.4680   47.1470 C   0  0  0  0  0  0  0  0  0  0  0  0
   45.9810   32.3330   47.3850 C   0  0  0  0  0  0  0  0  0  0  0  0
   46.8380   31.8970   46.3800 C   0  0  0  0  0  0  0  0  0  0  0  0
   46.8730   32.6150   45.2000 C   0  0  0  0  0  0  0  0  0  0  0  0
   46.1380   33.7230   44.9200 C   0  0  0  0  0  0  0  0  0  0  0  0
   49.5980   31.4560   41.5680 C   0  0  0  0  0  0  0  0  0  0  0  0
   48.9380   30.5500   42.6170 C   0  0  0  0  0  0  0  0  0  0  0  0
   49.5100   30.6520   40.2810 C   0  0  0  0  0  0  0  0  0  0  0  0
   51.0040   31.7530   41.9310 C   0  0  0  0  0  0  0  0  0  0  0  0
   52.0270   31.1970   41.1380 N   0  0  0  0  0  0  0  0  0  0  0  0
   52.5430   31.5480   39.9430 C   0  0  0  0  0  0  0  0  0  0  0  0
   53.5420   30.9510   39.2520 C   0  0  0  0  0  0  0  0  0  0  0  0
   53.9720   31.4930   37.9360 C   0  0  0  0  0  0  0  0  0  0  0  0
   54.1190   29.8330   39.8360 C   0  0  0  0  0  0  0  0  0  0  0  0
   55.0490   29.2470   39.2320 O   0  0  0  0  0  0  0  0  0  0  0  0
   53.6510   29.4310   41.0280 N   0  0  0  0  0  0  0  0  0  0  0  0
   52.6600   30.0860   41.6340 C   0  0  0  0  0  0  0  0  0  0  0  0
   52.3510   29.5570   42.7560 O   0  0  0  0  0  0  0  0  0  0  0  0
   47.7382   35.1638   39.4938 H   0  0  0  0  0  0  0  0  0  0  0  0
   46.3897   35.5767   41.5296 H   0  0  0  0  0  0  0  0  0  0  0  0
   44.0208   36.7577   44.4128 H   0  0  0  0  0  0  0  0  0  0  0  0
   44.5180   33.8355   47.9235 H   0  0  0  0  0  0  0  0  0  0  0  0
   45.9166   31.7966   48.3432 H   0  0  0  0  0  0  0  0  0  0  0  0
   47.4691   31.0071   46.5204 H   0  0  0  0  0  0  0  0  0  0  0  0
   47.5575   32.2574   44.4167 H   0  0  0  0  0  0  0  0  0  0  0  0
   49.1976   30.9064   43.6248 H   0  0  0  0  0  0  0  0  0  0  0  0
   47.8458   30.5761   42.4889 H   0  0  0  0  0  0  0  0  0  0  0  0
   49.2977   29.5184   42.4889 H   0  0  0  0  0  0  0  0  0  0  0  0
   49.3932   29.5852   40.5224 H   0  0  0  0  0  0  0  0  0  0  0  0
   48.6437   30.9922   39.6946 H   0  0  0  0  0  0  0  0  0  0  0  0
   50.4294   30.7968   39.6946 H   0  0  0  0  0  0  0  0  0  0  0  0
   51.1250   32.8459   41.9006 H   0  0  0  0  0  0  0  0  0  0  0  0
   51.1366   31.2829   42.9166 H   0  0  0  0  0  0  0  0  0  0  0  0
   52.0945   32.4333   39.4686 H   0  0  0  0  0  0  0  0  0  0  0  0
   54.6486   32.3458   38.0941 H   0  0  0  0  0  0  0  0  0  0  0  0
   54.4964   30.7089   37.3702 H   0  0  0  0  0  0  0  0  0  0  0  0
   53.0892   31.8253   37.3702 H   0  0  0  0  0  0  0  0  0  0  0  0
   54.0638   28.6036   41.4818 H   0  0  0  0  0  0  0  0  0  0  0  0
  1  2  2  0
  2  3  1  0
  3  7  1  0
  4  3  2  0
  5 17  1  0
  5  4  1  0
  6  1  1  0
  6  5  2  0
  7 16  1  0
  8  7  2  0
  8  9  1  0
  9 10  2  0
 10 11  1  0
 11 12  2  0
 12 13  1  0
 14 13  2  0
 15 14  1  0
 16 15  2  0
 16 11  1  0
 17 20  1  0
 17 18  1  0
 19 17  1  0
 21 28  1  0
 21 20  1  0
 22 21  1  0
 23 25  1  0
 23 22  2  0
 24 23  1  0
 25 27  1  0
 26 25  2  0
 27 28  1  0
 28 29  2  0
  1 30  1  0
  2 31  1  0
  9 32  1  0
 12 33  1  0
 13 34  1  0
 14 35  1  0
 15 36  1  0
 18 37  1  0
 18 38  1  0
 18 39  1  0
 19 40  1  0
 19 41  1  0
 19 42  1  0
 20 43  1  0
 20 44  1  0
 22 45  1  0
 24 46  1  0
 24 47  1  0
 24 48  1  0
 27 49  1  0
M  ISO  8  30  14  31  14  32  14  33  14  34  14  35  14  36  14  37   8
M  ISO  8  38   8  39   8  40   8  41   8  42   8  43   8  44   8  45  14
M  ISO  4  46   8  47   8  48   8  49   9
M  END
>  <minimizedAffinity>  (1) 
-6.06309032

>  <minimizedRMSD>  (1) 
3.86118126

$$$$
