
     RDKit          3D

 46 49  0  0  1  0  0  0  0  0999 V2000
   44.3560   34.5770   40.9600 C   0  0  0  0  0  0  0  0  0  0  0  0
   43.0250   34.9550   40.9400 C   0  0  0  0  0  0  0  0  0  0  0  0
   42.2240   34.3810   39.9370 C   0  0  0  0  0  0  0  0  0  0  0  0
   42.7830   33.4940   39.0470 N   0  0  0  0  0  0  0  0  0  0  0  0
   44.1110   33.1530   39.1140 C   0  0  0  0  0  0  0  0  0  0  0  0
   44.8770   33.7060   40.0770 N   0  0  0  0  0  0  0  0  0  0  0  0
   40.7710   34.6880   39.8210 C   0  0  0  0  0  0  0  0  0  0  0  0
   40.4490   35.1530   38.3910 C   0  0  0  0  0  0  0  0  0  0  0  0
   39.5700   34.2080   37.6560 C   0  0  0  0  0  0  0  0  0  0  0  0
   38.2960   33.9010   38.3840 C   0  0  0  0  0  0  0  0  0  0  0  0
   38.4650   33.9920   39.8840 C   0  0  0  0  0  0  0  0  0  0  0  0
   39.8710   33.5750   40.2150 C   0  0  0  0  0  0  0  0  0  0  0  0
   45.2800   35.1460   41.9820 C   0  0  1  0  0  0  0  0  0  0  0  0
   44.5550   35.7190   43.1790 C   0  0  0  0  0  0  0  0  0  0  0  0
   45.1270   35.0040   44.4060 C   0  0  0  0  0  0  0  0  0  0  0  0
   45.5670   33.7060   43.8140 C   0  0  0  0  0  0  0  0  0  0  0  0
   46.1940   34.0540   42.5120 C   0  0  2  0  0  0  0  0  0  0  0  0
   47.6070   34.4370   42.5590 C   0  0  0  0  0  0  0  0  0  0  0  0
   48.0560   35.3820   41.6270 C   0  0  0  0  0  0  0  0  0  0  0  0
   49.3820   35.6480   41.7870 N   0  0  0  0  0  0  0  0  0  0  0  0
   49.7640   34.8580   42.8320 C   0  0  0  0  0  0  0  0  0  0  0  0
   48.6990   34.1500   43.2740 N   0  0  0  0  0  0  0  0  0  0  0  0
   42.6149   35.6675   41.6708 H   0  0  0  0  0  0  0  0  0  0  0  0
   44.5430   32.4413   38.3951 H   0  0  0  0  0  0  0  0  0  0  0  0
   40.5740   35.4933   40.5440 H   0  0  0  0  0  0  0  0  0  0  0  0
   39.9456   36.1295   38.4453 H   0  0  0  0  0  0  0  0  0  0  0  0
   41.4007   35.2106   37.8423 H   0  0  0  0  0  0  0  0  0  0  0  0
   40.1195   33.2678   37.5006 H   0  0  0  0  0  0  0  0  0  0  0  0
   39.2962   34.6877   36.7047 H   0  0  0  0  0  0  0  0  0  0  0  0
   37.5250   34.6196   38.0692 H   0  0  0  0  0  0  0  0  0  0  0  0
   38.0033   32.8699   38.1369 H   0  0  0  0  0  0  0  0  0  0  0  0
   38.2931   35.0260   40.2177 H   0  0  0  0  0  0  0  0  0  0  0  0
   37.7409   33.3382   40.3923 H   0  0  0  0  0  0  0  0  0  0  0  0
   40.1338   32.6641   39.6571 H   0  0  0  0  0  0  0  0  0  0  0  0
   39.9685   33.3597   41.2893 H   0  0  0  0  0  0  0  0  0  0  0  0
   45.8345   35.9497   41.4754 H   0  0  0  0  0  0  0  0  0  0  0  0
   44.7337   36.8020   43.2508 H   0  0  0  0  0  0  0  0  0  0  0  0
   43.4680   35.5706   43.0986 H   0  0  0  0  0  0  0  0  0  0  0  0
   45.9748   35.5580   44.8353 H   0  0  0  0  0  0  0  0  0  0  0  0
   44.4146   34.8997   45.2377 H   0  0  0  0  0  0  0  0  0  0  0  0
   46.2968   33.2115   44.4719 H   0  0  0  0  0  0  0  0  0  0  0  0
   44.7250   33.0095   43.6876 H   0  0  0  0  0  0  0  0  0  0  0  0
   46.2631   33.1756   41.8535 H   0  0  0  0  0  0  0  0  0  0  0  0
   47.4181   35.8499   40.8627 H   0  0  0  0  0  0  0  0  0  0  0  0
   50.7800   34.8050   43.2502 H   0  0  0  0  0  0  0  0  0  0  0  0
   48.7262   33.4802   44.0560 H   0  0  0  0  0  0  0  0  0  0  0  0
  1 13  1  0
  2  1  2  0
  3  2  1  0
  4  5  1  0
  4  3  2  0
  5  6  2  0
  6  1  1  0
  7  3  1  0
  7 12  1  0
  8  7  1  0
  9 10  1  0
  9  8  1  0
 10 11  1  0
 11 12  1  0
 13 17  1  0
 13 14  1  0
 14 15  1  0
 16 15  1  0
 17 18  1  0
 17 16  1  0
 18 22  1  0
 19 20  1  0
 19 18  2  0
 20 21  2  0
 21 22  1  0
  2 23  1  0
  5 24  1  0
  7 25  1  0
  8 26  1  0
  8 27  1  0
  9 28  1  0
  9 29  1  0
 10 30  1  0
 10 31  1  0
 11 32  1  0
 11 33  1  0
 12 34  1  0
 12 35  1  0
 13 36  1  6
 14 37  1  0
 14 38  1  0
 15 39  1  0
 15 40  1  0
 16 41  1  0
 16 42  1  0
 17 43  1  6
 19 44  1  0
 21 45  1  0
 22 46  1  0
M  ISO  8  23  14  24  14  25  13  26  13  27  13  28  13  29  13  30  13
M  ISO  8  31  13  32  13  33  13  34  13  35  13  36  13  37  13  38  13
M  ISO  8  39  13  40  13  41  13  42  13  43  13  44  14  45  14  46   9
M  END
>  <minimizedAffinity>  (1) 
-6.66512394

>  <minimizedRMSD>  (1) 
7.60059071

$$$$
