
     RDKit          3D

 51 53  0  0  1  0  0  0  0  0999 V2000
   43.7920   34.7030   40.6900 C   0  0  0  0  0  0  0  0  0  0  0  0
   45.0990   34.2740   40.5660 C   0  0  0  0  0  0  0  0  0  0  0  0
   45.9530   34.5050   41.6570 C   0  0  0  0  0  0  0  0  0  0  0  0
   45.4570   35.1330   42.7720 N   0  0  0  0  0  0  0  0  0  0  0  0
   44.1490   35.5390   42.8420 C   0  0  0  0  0  0  0  0  0  0  0  0
   43.3360   35.3150   41.7960 N   0  0  0  0  0  0  0  0  0  0  0  0
   47.3710   34.0710   41.6550 C   0  0  0  0  0  0  0  0  0  0  0  0
   48.2260   35.0550   40.8410 C   0  0  0  0  0  0  0  0  0  0  0  0
   49.2070   35.7960   41.6770 C   0  0  0  0  0  0  0  0  0  0  0  0
   50.0960   34.9020   42.4990 C   0  0  0  0  0  0  0  0  0  0  0  0
   49.4250   33.5880   42.8180 C   0  0  0  0  0  0  0  0  0  0  0  0
   47.9610   33.8620   43.0030 C   0  0  0  0  0  0  0  0  0  0  0  0
   42.8210   34.5030   39.5730 C   0  0  1  0  0  0  0  0  0  0  0  0
   43.1330   33.2860   38.7310 C   0  0  0  0  0  0  0  0  0  0  0  0
   41.8630   32.4310   38.7410 C   0  0  0  0  0  0  0  0  0  0  0  0
   41.2860   32.8220   40.0560 C   0  0  0  0  0  0  0  0  0  0  0  0
   41.4230   34.2830   40.1270 C   0  0  2  0  0  0  0  0  0  0  0  0
   40.3820   35.1500   39.5270 C   0  0  0  0  0  0  0  0  0  0  0  0
   40.1310   36.3050   40.5140 C   0  0  0  0  0  0  0  0  0  0  0  0
   39.0650   34.5450   39.2660 C   0  0  0  0  0  0  0  0  0  0  0  0
   40.7960   35.8630   38.2540 C   0  0  0  0  0  0  0  0  0  0  0  0
   45.4553   33.7737   39.6534 H   0  0  0  0  0  0  0  0  0  0  0  0
   43.7699   36.0421   43.7438 H   0  0  0  0  0  0  0  0  0  0  0  0
   47.3746   33.0785   41.1807 H   0  0  0  0  0  0  0  0  0  0  0  0
   48.7748   34.4909   40.0725 H   0  0  0  0  0  0  0  0  0  0  0  0
   47.5448   35.7953   40.3962 H   0  0  0  0  0  0  0  0  0  0  0  0
   49.8414   36.4021   41.0135 H   0  0  0  0  0  0  0  0  0  0  0  0
   48.6294   36.4122   42.3818 H   0  0  0  0  0  0  0  0  0  0  0  0
   51.0199   34.7031   41.9361 H   0  0  0  0  0  0  0  0  0  0  0  0
   50.3148   35.4144   43.4475 H   0  0  0  0  0  0  0  0  0  0  0  0
   49.5727   32.8800   41.9892 H   0  0  0  0  0  0  0  0  0  0  0  0
   49.8543   33.1449   43.7287 H   0  0  0  0  0  0  0  0  0  0  0  0
   47.8225   34.7639   43.6174 H   0  0  0  0  0  0  0  0  0  0  0  0
   47.4711   33.0199   43.5137 H   0  0  0  0  0  0  0  0  0  0  0  0
   42.8916   35.4101   38.9549 H   0  0  0  0  0  0  0  0  0  0  0  0
   43.9745   32.7261   39.1651 H   0  0  0  0  0  0  0  0  0  0  0  0
   43.4224   33.5668   37.7076 H   0  0  0  0  0  0  0  0  0  0  0  0
   41.1917   32.6906   37.9092 H   0  0  0  0  0  0  0  0  0  0  0  0
   42.0350   31.3516   38.6176 H   0  0  0  0  0  0  0  0  0  0  0  0
   40.2263   32.5322   40.1121 H   0  0  0  0  0  0  0  0  0  0  0  0
   41.7997   32.3233   40.8911 H   0  0  0  0  0  0  0  0  0  0  0  0
   41.2659   34.6181   41.1629 H   0  0  0  0  0  0  0  0  0  0  0  0
   40.2124   35.9304   41.5451 H   0  0  0  0  0  0  0  0  0  0  0  0
   40.8783   37.0955   40.3510 H   0  0  0  0  0  0  0  0  0  0  0  0
   39.1230   36.7141   40.3510 H   0  0  0  0  0  0  0  0  0  0  0  0
   38.5701   34.3176   40.2217 H   0  0  0  0  0  0  0  0  0  0  0  0
   38.4457   35.2489   38.6907 H   0  0  0  0  0  0  0  0  0  0  0  0
   39.1955   33.6166   38.6907 H   0  0  0  0  0  0  0  0  0  0  0  0
   41.3332   36.7881   38.5100 H   0  0  0  0  0  0  0  0  0  0  0  0
   41.4542   35.2080   37.6644 H   0  0  0  0  0  0  0  0  0  0  0  0
   39.9008   36.1100   37.6644 H   0  0  0  0  0  0  0  0  0  0  0  0
  1  6  1  0
  2  1  2  0
  2  3  1  0
  3  4  2  0
  4  5  1  0
  6  5  2  0
  7  3  1  0
  7 12  1  0
  8  7  1  0
  8  9  1  0
  9 10  1  0
 10 11  1  0
 11 12  1  0
 13 17  1  0
 13  1  1  0
 14 15  1  0
 14 13  1  0
 15 16  1  0
 16 17  1  0
 18 17  1  0
 18 19  1  0
 20 18  1  0
 21 18  1  0
  2 22  1  0
  5 23  1  0
  7 24  1  0
  8 25  1  0
  8 26  1  0
  9 27  1  0
  9 28  1  0
 10 29  1  0
 10 30  1  0
 11 31  1  0
 11 32  1  0
 12 33  1  0
 12 34  1  0
 13 35  1  6
 14 36  1  0
 14 37  1  0
 15 38  1  0
 15 39  1  0
 16 40  1  0
 16 41  1  0
 17 42  1  1
 19 43  1  0
 19 44  1  0
 19 45  1  0
 20 46  1  0
 20 47  1  0
 20 48  1  0
 21 49  1  0
 21 50  1  0
 21 51  1  0
M  ISO  8  22  14  23  14  24  13  25  13  26  13  27  13  28  13  29  13
M  ISO  8  30  13  31  13  32  13  33  13  34  13  35  13  36  13  37  13
M  ISO  8  38  13  39  13  40  13  41  13  42  13  43   8  44   8  45   8
M  ISO  6  46   8  47   8  48   8  49   8  50   8  51   8
M  END
>  <minimizedAffinity>  (1) 
-6.80903482

>  <minimizedRMSD>  (1) 
1.44846928

$$$$
