
     RDKit          3D

 48 51  0  0  1  0  0  0  0  0999 V2000
   44.1940   34.4670   40.6090 C   0  0  0  0  0  0  0  0  0  0  0  0
   42.8630   34.8420   40.6240 C   0  0  0  0  0  0  0  0  0  0  0  0
   42.0310   34.3050   39.6290 C   0  0  0  0  0  0  0  0  0  0  0  0
   42.5740   33.4450   38.7020 N   0  0  0  0  0  0  0  0  0  0  0  0
   43.9040   33.1040   38.7310 C   0  0  0  0  0  0  0  0  0  0  0  0
   44.6890   33.6310   39.6950 N   0  0  0  0  0  0  0  0  0  0  0  0
   40.5800   34.6020   39.5480 C   0  0  0  0  0  0  0  0  0  0  0  0
   40.1790   34.8690   38.0880 C   0  0  0  0  0  0  0  0  0  0  0  0
   39.2530   33.8410   37.5500 C   0  0  0  0  0  0  0  0  0  0  0  0
   38.0280   33.6160   38.3850 C   0  0  0  0  0  0  0  0  0  0  0  0
   38.2730   33.9630   39.8400 C   0  0  0  0  0  0  0  0  0  0  0  0
   39.6970   33.5700   40.1500 C   0  0  0  0  0  0  0  0  0  0  0  0
   45.1200   35.0140   41.6350 C   0  0  1  0  0  0  0  0  0  0  0  0
   44.4160   35.6050   42.8360 C   0  0  0  0  0  0  0  0  0  0  0  0
   44.9960   34.8850   44.0380 C   0  0  0  0  0  0  0  0  0  0  0  0
   45.3550   33.5550   43.4650 C   0  0  0  0  0  0  0  0  0  0  0  0
   45.9980   33.8950   42.1620 C   0  0  2  0  0  0  0  0  0  0  0  0
   47.4160   34.2600   42.2250 C   0  0  0  0  0  0  0  0  0  0  0  0
   48.2740   33.3240   42.7710 C   0  0  0  0  0  0  0  0  0  0  0  0
   49.6370   33.6250   42.8540 C   0  0  0  0  0  0  0  0  0  0  0  0
   50.0380   34.8580   42.3770 C   0  0  0  0  0  0  0  0  0  0  0  0
   49.1730   35.8080   41.8250 C   0  0  0  0  0  0  0  0  0  0  0  0
   47.8640   35.4460   41.7770 N   0  0  0  0  0  0  0  0  0  0  0  0
   42.4719   35.5333   41.3850 H   0  0  0  0  0  0  0  0  0  0  0  0
   44.3220   32.4144   37.9829 H   0  0  0  0  0  0  0  0  0  0  0  0
   40.4263   35.5030   40.1599 H   0  0  0  0  0  0  0  0  0  0  0  0
   39.6854   35.8505   38.0327 H   0  0  0  0  0  0  0  0  0  0  0  0
   41.0961   34.8395   37.4813 H   0  0  0  0  0  0  0  0  0  0  0  0
   38.9325   34.1575   36.5465 H   0  0  0  0  0  0  0  0  0  0  0  0
   39.8075   32.8910   37.5420 H   0  0  0  0  0  0  0  0  0  0  0  0
   37.2129   34.2464   38.0001 H   0  0  0  0  0  0  0  0  0  0  0  0
   37.7621   32.5503   38.3255 H   0  0  0  0  0  0  0  0  0  0  0  0
   38.1350   35.0425   40.0000 H   0  0  0  0  0  0  0  0  0  0  0  0
   37.5664   33.4332   40.4958 H   0  0  0  0  0  0  0  0  0  0  0  0
   39.9189   32.5843   39.7151 H   0  0  0  0  0  0  0  0  0  0  0  0
   39.8562   33.5064   41.2366 H   0  0  0  0  0  0  0  0  0  0  0  0
   45.6879   35.8107   41.1321 H   0  0  0  0  0  0  0  0  0  0  0  0
   44.6114   36.6854   42.9034 H   0  0  0  0  0  0  0  0  0  0  0  0
   43.3249   35.4809   42.7723 H   0  0  0  0  0  0  0  0  0  0  0  0
   45.8844   35.4058   44.4246 H   0  0  0  0  0  0  0  0  0  0  0  0
   44.3063   34.8261   44.8929 H   0  0  0  0  0  0  0  0  0  0  0  0
   46.0575   33.0212   44.1219 H   0  0  0  0  0  0  0  0  0  0  0  0
   44.4859   32.8903   43.3517 H   0  0  0  0  0  0  0  0  0  0  0  0
   46.0469   33.0156   41.5030 H   0  0  0  0  0  0  0  0  0  0  0  0
   47.8912   32.3588   43.1340 H   0  0  0  0  0  0  0  0  0  0  0  0
   50.3579   32.9118   43.2801 H   0  0  0  0  0  0  0  0  0  0  0  0
   51.1074   35.1088   42.4352 H   0  0  0  0  0  0  0  0  0  0  0  0
   49.5277   36.7813   41.4551 H   0  0  0  0  0  0  0  0  0  0  0  0
  1  2  2  0
  1 13  1  0
  3  2  1  0
  4  5  1  0
  4  3  2  0
  5  6  2  0
  6  1  1  0
  7  3  1  0
  7 12  1  0
  8  7  1  0
  9  8  1  0
  9 10  1  0
 10 11  1  0
 11 12  1  0
 13 17  1  0
 13 14  1  0
 14 15  1  0
 16 15  1  0
 17 18  1  0
 17 16  1  0
 18 19  2  0
 19 20  1  0
 21 20  2  0
 22 21  1  0
 23 22  2  0
 23 18  1  0
  2 24  1  0
  5 25  1  0
  7 26  1  0
  8 27  1  0
  8 28  1  0
  9 29  1  0
  9 30  1  0
 10 31  1  0
 10 32  1  0
 11 33  1  0
 11 34  1  0
 12 35  1  0
 12 36  1  0
 13 37  1  6
 14 38  1  0
 14 39  1  0
 15 40  1  0
 15 41  1  0
 16 42  1  0
 16 43  1  0
 17 44  1  6
 19 45  1  0
 20 46  1  0
 21 47  1  0
 22 48  1  0
M  ISO  8  24  14  25  14  26  13  27  13  28  13  29  13  30  13  31  13
M  ISO  8  32  13  33  13  34  13  35  13  36  13  37  13  38  13  39  13
M  ISO  8  40  13  41  13  42  13  43  13  44  13  45  14  46  14  47  14
M  ISO  1  48  14
M  END
>  <minimizedAffinity>  (1) 
-6.68186092

>  <minimizedRMSD>  (1) 
7.93188143

$$$$
