
     RDKit          3D

 45 48  0  0  1  0  0  0  0  0999 V2000
   43.7930   34.6070   41.1870 C   0  0  0  0  0  0  0  0  0  0  0  0
   45.0670   34.1320   40.9160 C   0  0  0  0  0  0  0  0  0  0  0  0
   46.0880   34.5590   41.7820 C   0  0  0  0  0  0  0  0  0  0  0  0
   45.7950   35.4000   42.8290 N   0  0  0  0  0  0  0  0  0  0  0  0
   44.5130   35.8380   43.0500 C   0  0  0  0  0  0  0  0  0  0  0  0
   43.5250   35.4270   42.2140 N   0  0  0  0  0  0  0  0  0  0  0  0
   47.5070   34.1010   41.6040 C   0  0  0  0  0  0  0  0  0  0  0  0
   48.3540   35.2460   41.0240 C   0  0  0  0  0  0  0  0  0  0  0  0
   49.3930   35.7440   41.9650 C   0  0  0  0  0  0  0  0  0  0  0  0
   50.2830   34.6600   42.5160 C   0  0  0  0  0  0  0  0  0  0  0  0
   49.5900   33.3170   42.5100 C   0  0  0  0  0  0  0  0  0  0  0  0
   48.1310   33.5670   42.8410 C   0  0  0  0  0  0  0  0  0  0  0  0
   42.6490   34.2270   40.3290 C   0  0  1  0  0  0  0  0  0  0  0  0
   43.0010   34.1750   38.8620 C   0  0  0  0  0  0  0  0  0  0  0  0
   42.5700   32.7930   38.3970 C   0  0  0  0  0  0  0  0  0  0  0  0
   42.7460   31.9740   39.6610 C   0  0  0  0  0  0  0  0  0  0  0  0
   42.1180   32.8590   40.7040 C   0  0  2  0  0  0  0  0  0  0  0  0
   40.6120   32.8190   40.6390 C   0  0  0  0  0  0  0  0  0  0  0  0
   40.1400   31.5760   41.0350 C   0  0  0  0  0  0  0  0  0  0  0  0
   38.2700   31.7330   40.8840 S   0  0  0  0  0  0  0  0  0  0  0  0
   38.5170   33.5240   40.2900 C   0  0  0  0  0  0  0  0  0  0  0  0
   39.6330   33.6310   40.3120 N   0  0  0  0  0  0  0  0  0  0  0  0
   45.2675   33.4582   40.0700 H   0  0  0  0  0  0  0  0  0  0  0  0
   44.2896   36.5111   43.8908 H   0  0  0  0  0  0  0  0  0  0  0  0
   47.4750   33.2560   40.9004 H   0  0  0  0  0  0  0  0  0  0  0  0
   48.8527   34.8844   40.1127 H   0  0  0  0  0  0  0  0  0  0  0  0
   47.6719   36.0841   40.8183 H   0  0  0  0  0  0  0  0  0  0  0  0
   50.0223   36.4727   41.4330 H   0  0  0  0  0  0  0  0  0  0  0  0
   48.8640   36.1902   42.8200 H   0  0  0  0  0  0  0  0  0  0  0  0
   51.1917   34.5959   41.8994 H   0  0  0  0  0  0  0  0  0  0  0  0
   50.5326   34.9146   43.5566 H   0  0  0  0  0  0  0  0  0  0  0  0
   49.6774   32.8517   41.5171 H   0  0  0  0  0  0  0  0  0  0  0  0
   50.0472   32.6370   43.2439 H   0  0  0  0  0  0  0  0  0  0  0  0
   48.0460   34.2997   43.6570 H   0  0  0  0  0  0  0  0  0  0  0  0
   47.6331   32.6439   43.1728 H   0  0  0  0  0  0  0  0  0  0  0  0
   41.8947   35.0102   40.4951 H   0  0  0  0  0  0  0  0  0  0  0  0
   42.4588   34.9550   38.3074 H   0  0  0  0  0  0  0  0  0  0  0  0
   44.0732   34.3506   38.6901 H   0  0  0  0  0  0  0  0  0  0  0  0
   41.5226   32.7916   38.0610 H   0  0  0  0  0  0  0  0  0  0  0  0
   43.1404   32.4136   37.5363 H   0  0  0  0  0  0  0  0  0  0  0  0
   42.2214   31.0099   39.5877 H   0  0  0  0  0  0  0  0  0  0  0  0
   43.7928   31.7132   39.8757 H   0  0  0  0  0  0  0  0  0  0  0  0
   42.3597   32.5568   41.7337 H   0  0  0  0  0  0  0  0  0  0  0  0
   40.7228   30.7020   41.3613 H   0  0  0  0  0  0  0  0  0  0  0  0
   37.7583   34.2654   39.9992 H   0  0  0  0  0  0  0  0  0  0  0  0
  1  6  1  0
  2  1  2  0
  2  3  1  0
  3  4  2  0
  4  5  1  0
  6  5  2  0
  7  3  1  0
  7 12  1  0
  8  7  1  0
  8  9  1  0
  9 10  1  0
 11 10  1  0
 11 12  1  0
 13 17  1  0
 13  1  1  0
 14 13  1  0
 15 14  1  0
 15 16  1  0
 16 17  1  0
 18 17  1  0
 18 19  2  0
 20 19  1  0
 21 22  2  0
 21 20  1  0
 22 18  1  0
  2 23  1  0
  5 24  1  0
  7 25  1  0
  8 26  1  0
  8 27  1  0
  9 28  1  0
  9 29  1  0
 10 30  1  0
 10 31  1  0
 11 32  1  0
 11 33  1  0
 12 34  1  0
 12 35  1  0
 13 36  1  6
 14 37  1  0
 14 38  1  0
 15 39  1  0
 15 40  1  0
 16 41  1  0
 16 42  1  0
 17 43  1  1
 19 44  1  0
 21 45  1  0
M  ISO  8  23  14  24  14  25  13  26  13  27  13  28  13  29  13  30  13
M  ISO  8  31  13  32  13  33  13  34  13  35  13  36  13  37  13  38  13
M  ISO  7  39  13  40  13  41  13  42  13  43  13  44  14  45  14
M  END
>  <minimizedAffinity>  (1) 
-6.10256577

>  <minimizedRMSD>  (1) 
2.42448354

$$$$
