
     RDKit          3D

 49 53  0  0  0  0  0  0  0  0999 V2000
   50.1180   32.1180   41.5460 C   0  0  0  0  0  0  0  0  0  0  0  0
   47.4180   34.1620   40.0190 C   0  0  0  0  0  0  0  0  0  0  0  0
   46.7370   34.4540   41.2090 C   0  0  0  0  0  0  0  0  0  0  0  0
   47.1250   34.0160   42.4750 C   0  0  0  0  0  0  0  0  0  0  0  0
   48.2290   33.2880   42.3600 N   0  0  0  0  0  0  0  0  0  0  0  0
   48.9260   32.9660   41.3080 C   0  0  0  0  0  0  0  0  0  0  0  0
   48.5190   33.4070   40.1110 N   0  0  0  0  0  0  0  0  0  0  0  0
   46.2320   34.4720   43.5310 C   0  0  0  0  0  0  0  0  0  0  0  0
   45.4440   35.5560   43.4190 N   0  0  0  0  0  0  0  0  0  0  0  0
   44.6360   35.9800   44.3870 C   0  0  0  0  0  0  0  0  0  0  0  0
   44.5630   35.3210   45.5720 N   0  0  0  0  0  0  0  0  0  0  0  0
   45.3080   34.2360   45.7720 C   0  0  0  0  0  0  0  0  0  0  0  0
   45.2260   33.5800   46.9700 C   0  0  0  0  0  0  0  0  0  0  0  0
   45.9960   32.4420   47.2060 C   0  0  0  0  0  0  0  0  0  0  0  0
   46.8400   32.0020   46.1880 C   0  0  0  0  0  0  0  0  0  0  0  0
   46.8630   32.7160   45.0150 C   0  0  0  0  0  0  0  0  0  0  0  0
   46.1330   33.8330   44.7390 C   0  0  0  0  0  0  0  0  0  0  0  0
   50.7340   31.7280   40.2220 C   0  0  0  0  0  0  0  0  0  0  0  0
   51.1660   33.0030   42.2530 C   0  0  0  0  0  0  0  0  0  0  0  0
   49.8250   30.9140   42.3960 C   0  0  0  0  0  0  0  0  0  0  0  0
   50.8130   29.8710   42.2410 N   0  0  0  0  0  0  0  0  0  0  0  0
   50.8890   28.9140   41.2710 C   0  0  0  0  0  0  0  0  0  0  0  0
   51.9490   28.1090   41.4500 N   0  0  0  0  0  0  0  0  0  0  0  0
   52.6000   28.5160   42.5430 C   0  0  0  0  0  0  0  0  0  0  0  0
   53.7380   28.1180   43.2440 C   0  0  0  0  0  0  0  0  0  0  0  0
   54.1780   28.7350   44.3600 N   0  0  0  0  0  0  0  0  0  0  0  0
   53.4570   29.7960   44.8000 C   0  0  0  0  0  0  0  0  0  0  0  0
   52.3540   30.2020   44.1440 N   0  0  0  0  0  0  0  0  0  0  0  0
   51.8890   29.6030   43.0240 C   0  0  0  0  0  0  0  0  0  0  0  0
   54.4740   27.0160   42.7740 N   0  0  0  0  0  0  0  0  0  0  0  0
   47.0617   34.5383   39.0487 H   0  0  0  0  0  0  0  0  0  0  0  0
   45.8308   35.0736   41.1392 H   0  0  0  0  0  0  0  0  0  0  0  0
   44.0189   36.8762   44.2254 H   0  0  0  0  0  0  0  0  0  0  0  0
   44.5482   33.9529   47.7519 H   0  0  0  0  0  0  0  0  0  0  0  0
   45.9391   31.9079   48.1660 H   0  0  0  0  0  0  0  0  0  0  0  0
   47.4691   31.1093   46.3201 H   0  0  0  0  0  0  0  0  0  0  0  0
   47.5343   32.3517   44.2234 H   0  0  0  0  0  0  0  0  0  0  0  0
   51.6510   31.1474   40.4011 H   0  0  0  0  0  0  0  0  0  0  0  0
   50.0192   31.1175   39.6507 H   0  0  0  0  0  0  0  0  0  0  0  0
   50.9801   32.6352   39.6507 H   0  0  0  0  0  0  0  0  0  0  0  0
   51.0520   32.9067   43.3428 H   0  0  0  0  0  0  0  0  0  0  0  0
   52.1760   32.6804   41.9601 H   0  0  0  0  0  0  0  0  0  0  0  0
   51.0170   34.0528   41.9601 H   0  0  0  0  0  0  0  0  0  0  0  0
   49.8029   31.2245   43.4510 H   0  0  0  0  0  0  0  0  0  0  0  0
   48.8560   30.5058   42.0730 H   0  0  0  0  0  0  0  0  0  0  0  0
   50.1704   28.8142   40.4442 H   0  0  0  0  0  0  0  0  0  0  0  0
   53.7780   30.3321   45.7053 H   0  0  0  0  0  0  0  0  0  0  0  0
   55.3173   26.7071   43.2782 H   0  0  0  0  0  0  0  0  0  0  0  0
   54.1698   26.5176   41.9255 H   0  0  0  0  0  0  0  0  0  0  0  0
  1 19  1  0
  1 20  1  0
  2  7  2  0
  2  3  1  0
  3  4  2  0
  4  8  1  0
  5  4  1  0
  6  1  1  0
  6  5  2  0
  7  6  1  0
  8 17  1  0
  9  8  2  0
  9 10  1  0
 10 11  2  0
 11 12  1  0
 12 13  2  0
 13 14  1  0
 15 14  2  0
 16 15  1  0
 17 16  2  0
 17 12  1  0
 18  1  1  0
 21 20  1  0
 21 29  1  0
 22 23  2  0
 22 21  1  0
 23 24  1  0
 24 29  2  0
 24 25  1  0
 25 26  2  0
 26 27  1  0
 28 27  2  0
 29 28  1  0
 30 25  1  0
  2 31  1  0
  3 32  1  0
 10 33  1  0
 13 34  1  0
 14 35  1  0
 15 36  1  0
 16 37  1  0
 18 38  1  0
 18 39  1  0
 18 40  1  0
 19 41  1  0
 19 42  1  0
 19 43  1  0
 20 44  1  0
 20 45  1  0
 22 46  1  0
 27 47  1  0
 30 48  1  0
 30 49  1  0
M  ISO  8  31  14  32  14  33  14  34  14  35  14  36  14  37  14  38   8
M  ISO  8  39   8  40   8  41   8  42   8  43   8  44   8  45   8  46  14
M  ISO  1  47  14
M  END
>  <minimizedAffinity>  (1) 
-5.73757553

>  <minimizedRMSD>  (1) 
0.850023508

$$$$
