
     RDKit          3D

 48 50  0  0  1  0  0  0  0  0999 V2000
   43.8070   34.0270   40.2600 C   0  0  0  0  0  0  0  0  0  0  0  0
   45.1420   33.6920   40.3090 C   0  0  0  0  0  0  0  0  0  0  0  0
   45.9330   34.3090   41.2910 C   0  0  0  0  0  0  0  0  0  0  0  0
   45.3370   35.2020   42.1360 N   0  0  0  0  0  0  0  0  0  0  0  0
   44.0000   35.5000   42.0430 C   0  0  0  0  0  0  0  0  0  0  0  0
   43.2800   34.8920   41.0950 N   0  0  0  0  0  0  0  0  0  0  0  0
   47.3810   34.0010   41.4430 C   0  0  0  0  0  0  0  0  0  0  0  0
   48.2230   35.0060   40.6400 C   0  0  0  0  0  0  0  0  0  0  0  0
   49.0550   35.8830   41.5050 C   0  0  0  0  0  0  0  0  0  0  0  0
   49.9400   35.1190   42.4530 C   0  0  0  0  0  0  0  0  0  0  0  0
   49.3400   33.7850   42.8280 C   0  0  0  0  0  0  0  0  0  0  0  0
   47.8390   33.9610   42.8550 C   0  0  0  0  0  0  0  0  0  0  0  0
   42.9010   33.4530   39.2730 C   0  0  1  0  0  0  0  0  0  0  0  0
   42.4760   32.0280   39.5870 C   0  0  0  0  0  0  0  0  0  0  0  0
   40.9570   32.0420   39.5710 C   0  0  0  0  0  0  0  0  0  0  0  0
   40.6710   33.4680   39.9450 C   0  0  0  0  0  0  0  0  0  0  0  0
   41.6610   34.1600   39.0210 C   0  0  1  0  0  0  0  0  0  0  0  0
   41.3640   35.5630   38.9370 C   0  0  0  0  0  0  0  0  0  0  0  0
   40.3070   36.0760   39.8950 C   0  0  0  0  0  0  0  0  0  0  0  0
   41.3330   36.2330   37.5840 C   0  0  0  0  0  0  0  0  0  0  0  0
   45.5732   32.9665   39.6035 H   0  0  0  0  0  0  0  0  0  0  0  0
   43.5334   36.2205   42.7309 H   0  0  0  0  0  0  0  0  0  0  0  0
   47.5234   32.9853   41.0453 H   0  0  0  0  0  0  0  0  0  0  0  0
   48.8871   34.4471   39.9643 H   0  0  0  0  0  0  0  0  0  0  0  0
   47.5266   35.6526   40.0859 H   0  0  0  0  0  0  0  0  0  0  0  0
   49.6911   36.5071   40.8601 H   0  0  0  0  0  0  0  0  0  0  0  0
   48.3664   36.4849   42.1162 H   0  0  0  0  0  0  0  0  0  0  0  0
   50.9142   34.9486   41.9716 H   0  0  0  0  0  0  0  0  0  0  0  0
   50.0517   35.7141   43.3714 H   0  0  0  0  0  0  0  0  0  0  0  0
   49.6168   33.0246   42.0829 H   0  0  0  0  0  0  0  0  0  0  0  0
   49.7115   33.4518   43.8083 H   0  0  0  0  0  0  0  0  0  0  0  0
   47.5779   34.9008   43.3636 H   0  0  0  0  0  0  0  0  0  0  0  0
   47.3569   33.1366   43.4008 H   0  0  0  0  0  0  0  0  0  0  0  0
   43.5444   33.5232   38.3836 H   0  0  0  0  0  0  0  0  0  0  0  0
   42.8617   31.3354   38.8244 H   0  0  0  0  0  0  0  0  0  0  0  0
   42.8698   31.6901   40.5569 H   0  0  0  0  0  0  0  0  0  0  0  0
   40.5627   31.8008   38.5728 H   0  0  0  0  0  0  0  0  0  0  0  0
   40.4930   31.3001   40.2375 H   0  0  0  0  0  0  0  0  0  0  0  0
   39.6318   33.7521   39.7230 H   0  0  0  0  0  0  0  0  0  0  0  0
   40.7753   33.7066   41.0137 H   0  0  0  0  0  0  0  0  0  0  0  0
   41.6644   34.1086   37.9222 H   0  0  0  0  0  0  0  0  0  0  0  0
   42.3263   35.9294   39.3240 H   0  0  0  0  0  0  0  0  0  0  0  0
   40.6410   35.9139   40.9305 H   0  0  0  0  0  0  0  0  0  0  0  0
   40.1487   37.1512   39.7248 H   0  0  0  0  0  0  0  0  0  0  0  0
   39.3644   35.5351   39.7248 H   0  0  0  0  0  0  0  0  0  0  0  0
   41.2825   37.3239   37.7161 H   0  0  0  0  0  0  0  0  0  0  0  0
   42.2441   35.9731   37.0252 H   0  0  0  0  0  0  0  0  0  0  0  0
   40.4498   35.8901   37.0252 H   0  0  0  0  0  0  0  0  0  0  0  0
  1  2  2  0
  1  6  1  0
  2  3  1  0
  3  7  1  0
  3  4  2  0
  5  4  1  0
  6  5  2  0
  7 12  1  0
  8  7  1  0
  8  9  1  0
  9 10  1  0
 10 11  1  0
 11 12  1  0
 13 14  1  0
 13  1  1  0
 15 14  1  0
 15 16  1  0
 17 13  1  0
 17 16  1  0
 18 17  1  0
 18 19  1  0
 20 18  1  0
  2 21  1  0
  5 22  1  0
  7 23  1  0
  8 24  1  0
  8 25  1  0
  9 26  1  0
  9 27  1  0
 10 28  1  0
 10 29  1  0
 11 30  1  0
 11 31  1  0
 12 32  1  0
 12 33  1  0
 13 34  1  6
 14 35  1  0
 14 36  1  0
 15 37  1  0
 15 38  1  0
 16 39  1  0
 16 40  1  0
 17 41  1  6
 18 42  1  0
 19 43  1  0
 19 44  1  0
 19 45  1  0
 20 46  1  0
 20 47  1  0
 20 48  1  0
M  ISO  8  21  14  22  14  23  13  24  13  25  13  26  13  27  13  28  13
M  ISO  8  29  13  30  13  31  13  32  13  33  13  34  13  35  13  36  13
M  ISO  8  37  13  38  13  39  13  40  13  41  13  42   8  43   8  44   8
M  ISO  4  45   8  46   8  47   8  48   8
M  END
>  <minimizedAffinity>  (1) 
-6.13232279

>  <minimizedRMSD>  (1) 
2.27490592

$$$$
