
     RDKit          3D

 42 44  0  0  1  0  0  0  0  0999 V2000
   43.7820   35.2420   41.5590 C   0  0  0  0  0  0  0  0  0  0  0  0
   45.0080   34.7230   41.1660 C   0  0  0  0  0  0  0  0  0  0  0  0
   46.0270   34.6830   42.1350 C   0  0  0  0  0  0  0  0  0  0  0  0
   45.7560   35.1530   43.3990 N   0  0  0  0  0  0  0  0  0  0  0  0
   44.5240   35.6550   43.7310 C   0  0  0  0  0  0  0  0  0  0  0  0
   43.5580   35.6860   42.7870 N   0  0  0  0  0  0  0  0  0  0  0  0
   47.3850   34.1290   41.8370 C   0  0  0  0  0  0  0  0  0  0  0  0
   48.2340   35.1950   41.1310 C   0  0  0  0  0  0  0  0  0  0  0  0
   49.3870   35.6690   41.9420 C   0  0  0  0  0  0  0  0  0  0  0  0
   50.2470   34.5670   42.4990 C   0  0  0  0  0  0  0  0  0  0  0  0
   49.4980   33.2580   42.5900 C   0  0  0  0  0  0  0  0  0  0  0  0
   48.0900   33.6010   43.0310 C   0  0  0  0  0  0  0  0  0  0  0  0
   42.6700   35.3050   40.5700 C   0  0  1  0  0  0  0  0  0  0  0  0
   42.6000   34.1520   39.6310 C   0  0  0  0  0  0  0  0  0  0  0  0
   41.1840   33.5780   39.7850 C   0  0  0  0  0  0  0  0  0  0  0  0
   40.8600   33.9230   41.2080 C   0  0  0  0  0  0  0  0  0  0  0  0
   41.3270   35.3250   41.3390 C   0  0  2  0  0  0  0  0  0  0  0  0
   40.3570   36.2770   40.7300 C   0  0  0  0  0  0  0  0  0  0  0  0
   45.1754   34.3589   40.1416 H   0  0  0  0  0  0  0  0  0  0  0  0
   44.3258   36.0258   44.7475 H   0  0  0  0  0  0  0  0  0  0  0  0
   47.2374   33.2642   41.1735 H   0  0  0  0  0  0  0  0  0  0  0  0
   48.6200   34.7679   40.1937 H   0  0  0  0  0  0  0  0  0  0  0  0
   47.5824   36.0639   40.9568 H   0  0  0  0  0  0  0  0  0  0  0  0
   50.0161   36.3086   41.3055 H   0  0  0  0  0  0  0  0  0  0  0  0
   48.9658   36.2063   42.8045 H   0  0  0  0  0  0  0  0  0  0  0  0
   51.1203   34.4320   41.8439 H   0  0  0  0  0  0  0  0  0  0  0  0
   50.5538   34.8551   43.5153 H   0  0  0  0  0  0  0  0  0  0  0  0
   49.4790   32.7615   41.6086 H   0  0  0  0  0  0  0  0  0  0  0  0
   49.9817   32.5701   43.2991 H   0  0  0  0  0  0  0  0  0  0  0  0
   48.1163   34.3634   43.8235 H   0  0  0  0  0  0  0  0  0  0  0  0
   47.5757   32.7164   43.4347 H   0  0  0  0  0  0  0  0  0  0  0  0
   42.8593   36.2096   39.9735 H   0  0  0  0  0  0  0  0  0  0  0  0
   43.3522   33.3945   39.8966 H   0  0  0  0  0  0  0  0  0  0  0  0
   42.8039   34.4588   38.5945 H   0  0  0  0  0  0  0  0  0  0  0  0
   40.4808   34.0568   39.0877 H   0  0  0  0  0  0  0  0  0  0  0  0
   41.1150   32.5029   39.5628 H   0  0  0  0  0  0  0  0  0  0  0  0
   39.7783   33.8498   41.3939 H   0  0  0  0  0  0  0  0  0  0  0  0
   41.3338   33.2440   41.9322 H   0  0  0  0  0  0  0  0  0  0  0  0
   41.4302   35.6594   42.3818 H   0  0  0  0  0  0  0  0  0  0  0  0
   39.8155   36.8084   41.5265 H   0  0  0  0  0  0  0  0  0  0  0  0
   40.8986   37.0039   40.1069 H   0  0  0  0  0  0  0  0  0  0  0  0
   39.6404   35.7219   40.1069 H   0  0  0  0  0  0  0  0  0  0  0  0
  1  6  1  0
  2  1  2  0
  2  3  1  0
  3  4  2  0
  4  5  1  0
  6  5  2  0
  7  3  1  0
  7 12  1  0
  8  7  1  0
  8  9  1  0
  9 10  1  0
 10 11  1  0
 11 12  1  0
 13 17  1  0
 13  1  1  0
 14 15  1  0
 14 13  1  0
 15 16  1  0
 16 17  1  0
 18 17  1  0
  2 19  1  0
  5 20  1  0
  7 21  1  0
  8 22  1  0
  8 23  1  0
  9 24  1  0
  9 25  1  0
 10 26  1  0
 10 27  1  0
 11 28  1  0
 11 29  1  0
 12 30  1  0
 12 31  1  0
 13 32  1  6
 14 33  1  0
 14 34  1  0
 15 35  1  0
 15 36  1  0
 16 37  1  0
 16 38  1  0
 17 39  1  1
 18 40  1  0
 18 41  1  0
 18 42  1  0
M  ISO  8  19  14  20  14  21  13  22  13  23  13  24  13  25  13  26  13
M  ISO  8  27  13  28  13  29  13  30  13  31  13  32  13  33  13  34  13
M  ISO  8  35  13  36  13  37  13  38  13  39  13  40   8  41   8  42   8
M  END
>  <minimizedAffinity>  (1) 
-6.18027639

>  <minimizedRMSD>  (1) 
0.20640862

$$$$
