
     RDKit          3D

 21 22  0  0  0  0  0  0  0  0999 V2000
   45.6290   34.8870   43.9510 C   0  0  0  0  0  0  0  0  0  0  0  0
   46.6930   34.3280   43.2330 C   0  0  0  0  0  0  0  0  0  0  0  0
   47.3690   33.2820   43.8170 C   0  0  0  0  0  0  0  0  0  0  0  0
   46.9760   32.8450   45.0540 N   0  0  0  0  0  0  0  0  0  0  0  0
   45.9510   33.4020   45.7170 C   0  0  0  0  0  0  0  0  0  0  0  0
   45.2670   34.4290   45.1710 N   0  0  0  0  0  0  0  0  0  0  0  0
   47.0740   34.8410   41.8970 C   0  0  0  0  0  0  0  0  0  0  0  0
   48.1730   34.1650   41.1660 C   0  0  0  0  0  0  0  0  0  0  0  0
   48.4350   35.5010   41.7140 C   0  0  0  0  0  0  0  0  0  0  0  0
   45.5260   32.9920   46.9590 O   0  0  0  0  0  0  0  0  0  0  0  0
   46.3190   32.3270   47.8990 C   0  0  0  0  0  0  0  0  0  0  0  0
   47.5930   32.8880   47.9850 F   0  0  0  0  0  0  0  0  0  0  0  0
   46.3730   30.9740   47.6330 F   0  0  0  0  0  0  0  0  0  0  0  0
   45.7600   32.5210   49.1670 F   0  0  0  0  0  0  0  0  0  0  0  0
   45.0699   35.7249   43.5090 H   0  0  0  0  0  0  0  0  0  0  0  0
   48.2128   32.8036   43.2981 H   0  0  0  0  0  0  0  0  0  0  0  0
   46.0327   35.1201   41.6784 H   0  0  0  0  0  0  0  0  0  0  0  0
   48.0988   34.0288   40.0770 H   0  0  0  0  0  0  0  0  0  0  0  0
   48.6686   33.1878   41.2633 H   0  0  0  0  0  0  0  0  0  0  0  0
   49.1097   35.6218   42.5744 H   0  0  0  0  0  0  0  0  0  0  0  0
   48.7905   36.4578   41.3039 H   0  0  0  0  0  0  0  0  0  0  0  0
  1  6  2  0
  2  3  2  0
  2  1  1  0
  3  4  1  0
  4  5  2  0
  5 10  1  0
  6  5  1  0
  7  2  1  0
  8  9  1  0
  8  7  1  0
  9  7  1  0
 10 11  1  0
 11 12  1  0
 11 14  1  0
 13 11  1  0
  1 15  1  0
  3 16  1  0
  7 17  1  0
  8 18  1  0
  8 19  1  0
  9 20  1  0
  9 21  1  0
M  ISO  7  15  14  16  14  17  13  18  13  19  13  20  13  21  13
M  END
>  <minimizedAffinity>  (1) 
-4.55031681

>  <minimizedRMSD>  (1) 
1.51720428

$$$$
