
     RDKit          3D

 40 42  0  0  1  0  0  0  0  0999 V2000
   43.9180   35.1460   41.4760 C   0  0  0  0  0  0  0  0  0  0  0  0
   45.1510   34.6370   41.0620 C   0  0  0  0  0  0  0  0  0  0  0  0
   46.1670   34.6210   42.0330 C   0  0  0  0  0  0  0  0  0  0  0  0
   45.9050   35.0940   43.2980 N   0  0  0  0  0  0  0  0  0  0  0  0
   44.6690   35.5810   43.6340 C   0  0  0  0  0  0  0  0  0  0  0  0
   43.7000   35.5940   42.7060 N   0  0  0  0  0  0  0  0  0  0  0  0
   47.5370   34.0860   41.7270 C   0  0  0  0  0  0  0  0  0  0  0  0
   48.4280   35.2150   41.1930 C   0  0  0  0  0  0  0  0  0  0  0  0
   49.5500   35.5640   42.1020 C   0  0  0  0  0  0  0  0  0  0  0  0
   50.3870   34.3870   42.5200 C   0  0  0  0  0  0  0  0  0  0  0  0
   49.6070   33.0960   42.4470 C   0  0  0  0  0  0  0  0  0  0  0  0
   48.1840   33.4040   42.8750 C   0  0  0  0  0  0  0  0  0  0  0  0
   42.7980   35.1930   40.4930 C   0  0  1  0  0  0  0  0  0  0  0  0
   42.8410   34.1310   39.4490 C   0  0  0  0  0  0  0  0  0  0  0  0
   41.5000   33.3960   39.5420 C   0  0  0  0  0  0  0  0  0  0  0  0
   41.1380   33.5930   40.9910 C   0  0  0  0  0  0  0  0  0  0  0  0
   41.4630   35.0190   41.2460 C   0  0  2  0  0  0  0  0  0  0  0  0
   40.1940   36.0650   40.4920 S   0  0  0  0  0  0  0  0  0  0  0  0
   45.3168   34.2708   40.0381 H   0  0  0  0  0  0  0  0  0  0  0  0
   44.4741   35.9558   44.6496 H   0  0  0  0  0  0  0  0  0  0  0  0
   47.4086   33.3116   40.9564 H   0  0  0  0  0  0  0  0  0  0  0  0
   48.8480   34.8997   40.2265 H   0  0  0  0  0  0  0  0  0  0  0  0
   47.7957   36.1103   41.1006 H   0  0  0  0  0  0  0  0  0  0  0  0
   50.2009   36.2858   41.5868 H   0  0  0  0  0  0  0  0  0  0  0  0
   49.1013   35.9767   43.0176 H   0  0  0  0  0  0  0  0  0  0  0  0
   51.2595   34.3150   41.8540 H   0  0  0  0  0  0  0  0  0  0  0  0
   50.7005   34.5410   43.5631 H   0  0  0  0  0  0  0  0  0  0  0  0
   49.6150   32.7090   41.4174 H   0  0  0  0  0  0  0  0  0  0  0  0
   50.0541   32.3332   43.1014 H   0  0  0  0  0  0  0  0  0  0  0  0
   48.1863   34.0625   43.7561 H   0  0  0  0  0  0  0  0  0  0  0  0
   47.6433   32.4859   43.1484 H   0  0  0  0  0  0  0  0  0  0  0  0
   42.8948   36.1647   39.9866 H   0  0  0  0  0  0  0  0  0  0  0  0
   43.6720   33.4369   39.6433 H   0  0  0  0  0  0  0  0  0  0  0  0
   42.9999   34.5560   38.4469 H   0  0  0  0  0  0  0  0  0  0  0  0
   40.7492   33.8477   38.8770 H   0  0  0  0  0  0  0  0  0  0  0  0
   41.5492   32.3407   39.2355 H   0  0  0  0  0  0  0  0  0  0  0  0
   40.0681   33.3990   41.1576 H   0  0  0  0  0  0  0  0  0  0  0  0
   41.6769   32.9072   41.6613 H   0  0  0  0  0  0  0  0  0  0  0  0
   41.5173   35.2858   42.3118 H   0  0  0  0  0  0  0  0  0  0  0  0
   39.4583   36.6714   41.4758 H   0  0  0  0  0  0  0  0  0  0  0  0
  1  6  1  0
  2  1  2  0
  2  3  1  0
  3  4  2  0
  4  5  1  0
  6  5  2  0
  7  3  1  0
  7 12  1  0
  8  7  1  0
  8  9  1  0
  9 10  1  0
 11 10  1  0
 11 12  1  0
 13 17  1  0
 13  1  1  0
 14 15  1  0
 14 13  1  0
 15 16  1  0
 16 17  1  0
 18 17  1  0
  2 19  1  0
  5 20  1  0
  7 21  1  0
  8 22  1  0
  8 23  1  0
  9 24  1  0
  9 25  1  0
 10 26  1  0
 10 27  1  0
 11 28  1  0
 11 29  1  0
 12 30  1  0
 12 31  1  0
 13 32  1  6
 14 33  1  0
 14 34  1  0
 15 35  1  0
 15 36  1  0
 16 37  1  0
 16 38  1  0
 17 39  1  1
 18 40  1  0
M  ISO  8  19  14  20  14  21  13  22  13  23  13  24  13  25  13  26  13
M  ISO  8  27  13  28  13  29  13  30  13  31  13  32  13  33  13  34  13
M  ISO  6  35  13  36  13  37  13  38  13  39  13  40  11
M  END
>  <minimizedAffinity>  (1) 
-5.85735083

>  <minimizedRMSD>  (1) 
0.320351392

$$$$
