
     RDKit          3D

 47 51  0  0  0  0  0  0  0  0999 V2000
   47.3250   34.1870   40.1460 C   0  0  0  0  0  0  0  0  0  0  0  0
   46.6640   34.4450   41.3490 C   0  0  0  0  0  0  0  0  0  0  0  0
   47.0790   33.9790   42.5970 C   0  0  0  0  0  0  0  0  0  0  0  0
   48.1850   33.2620   42.4490 N   0  0  0  0  0  0  0  0  0  0  0  0
   48.8610   32.9740   41.3740 C   0  0  0  0  0  0  0  0  0  0  0  0
   48.4330   33.4400   40.1990 N   0  0  0  0  0  0  0  0  0  0  0  0
   46.2020   34.4090   43.6750 C   0  0  0  0  0  0  0  0  0  0  0  0
   45.4070   35.4860   43.6020 N   0  0  0  0  0  0  0  0  0  0  0  0
   44.6050   35.8890   44.5960 C   0  0  0  0  0  0  0  0  0  0  0  0
   44.5610   35.1990   45.7600 N   0  0  0  0  0  0  0  0  0  0  0  0
   45.3170   34.1110   45.9300 C   0  0  0  0  0  0  0  0  0  0  0  0
   45.2590   33.4290   47.1110 C   0  0  0  0  0  0  0  0  0  0  0  0
   46.0320   32.2970   47.3070 C   0  0  0  0  0  0  0  0  0  0  0  0
   46.8610   31.8850   46.2710 C   0  0  0  0  0  0  0  0  0  0  0  0
   46.8680   32.6240   45.1060 C   0  0  0  0  0  0  0  0  0  0  0  0
   46.1280   33.7400   44.8690 C   0  0  0  0  0  0  0  0  0  0  0  0
   50.0620   32.1280   41.5770 C   0  0  0  0  0  0  0  0  0  0  0  0
   50.6480   31.7510   40.2360 C   0  0  0  0  0  0  0  0  0  0  0  0
   51.1400   32.9960   42.2560 C   0  0  0  0  0  0  0  0  0  0  0  0
   49.7870   30.9030   42.4070 C   0  0  0  0  0  0  0  0  0  0  0  0
   50.8280   29.8830   42.1990 N   0  0  0  0  0  0  0  0  0  0  0  0
   50.9120   29.0020   41.1820 C   0  0  0  0  0  0  0  0  0  0  0  0
   52.0100   28.2350   41.3470 N   0  0  0  0  0  0  0  0  0  0  0  0
   52.6520   28.6170   42.4820 C   0  0  0  0  0  0  0  0  0  0  0  0
   53.8170   28.1600   43.1030 C   0  0  0  0  0  0  0  0  0  0  0  0
   54.1520   28.7800   44.2230 N   0  0  0  0  0  0  0  0  0  0  0  0
   53.4540   29.7800   44.7620 C   0  0  0  0  0  0  0  0  0  0  0  0
   52.3400   30.1880   44.1290 N   0  0  0  0  0  0  0  0  0  0  0  0
   51.8970   29.6380   42.9870 C   0  0  0  0  0  0  0  0  0  0  0  0
   46.9486   34.5831   39.1913 H   0  0  0  0  0  0  0  0  0  0  0  0
   45.7520   35.0588   41.3098 H   0  0  0  0  0  0  0  0  0  0  0  0
   43.9794   36.7844   44.4661 H   0  0  0  0  0  0  0  0  0  0  0  0
   44.5934   33.7812   47.9128 H   0  0  0  0  0  0  0  0  0  0  0  0
   45.9909   31.7404   48.2549 H   0  0  0  0  0  0  0  0  0  0  0  0
   47.4954   30.9926   46.3769 H   0  0  0  0  0  0  0  0  0  0  0  0
   47.5304   32.2803   44.2978 H   0  0  0  0  0  0  0  0  0  0  0  0
   51.5641   31.1616   40.3888 H   0  0  0  0  0  0  0  0  0  0  0  0
   49.9173   31.1532   39.6715 H   0  0  0  0  0  0  0  0  0  0  0  0
   50.8891   32.6638   39.6715 H   0  0  0  0  0  0  0  0  0  0  0  0
   51.0406   32.9160   43.3486 H   0  0  0  0  0  0  0  0  0  0  0  0
   52.1376   32.6461   41.9520 H   0  0  0  0  0  0  0  0  0  0  0  0
   51.0110   34.0452   41.9520 H   0  0  0  0  0  0  0  0  0  0  0  0
   49.7667   31.1853   43.4700 H   0  0  0  0  0  0  0  0  0  0  0  0
   48.8172   30.4826   42.1025 H   0  0  0  0  0  0  0  0  0  0  0  0
   50.1981   28.9211   40.3490 H   0  0  0  0  0  0  0  0  0  0  0  0
   54.4175   27.3373   42.6875 H   0  0  0  0  0  0  0  0  0  0  0  0
   53.7801   30.2576   45.6977 H   0  0  0  0  0  0  0  0  0  0  0  0
  1  6  2  0
  1  2  1  0
  2  3  2  0
  3  7  1  0
  4  3  1  0
  5 17  1  0
  5  4  2  0
  6  5  1  0
  7 16  1  0
  8  7  2  0
  8  9  1  0
  9 10  2  0
 10 11  1  0
 11 12  2  0
 12 13  1  0
 14 13  2  0
 15 14  1  0
 16 15  2  0
 16 11  1  0
 17 19  1  0
 17 20  1  0
 18 17  1  0
 21 20  1  0
 21 29  1  0
 22 23  2  0
 22 21  1  0
 23 24  1  0
 24 29  2  0
 24 25  1  0
 25 26  2  0
 26 27  1  0
 28 27  2  0
 29 28  1  0
  1 30  1  0
  2 31  1  0
  9 32  1  0
 12 33  1  0
 13 34  1  0
 14 35  1  0
 15 36  1  0
 18 37  1  0
 18 38  1  0
 18 39  1  0
 19 40  1  0
 19 41  1  0
 19 42  1  0
 20 43  1  0
 20 44  1  0
 22 45  1  0
 25 46  1  0
 27 47  1  0
M  ISO  8  30  14  31  14  32  14  33  14  34  14  35  14  36  14  37   8
M  ISO  8  38   8  39   8  40   8  41   8  42   8  43   8  44   8  45  14
M  ISO  2  46  14  47  14
M  END
>  <minimizedAffinity>  (1) 
-5.71187544

>  <minimizedRMSD>  (1) 
0.726200521

$$$$
