
     RDKit          3D

 27 28  0  0  0  0  0  0  0  0999 V2000
   44.7040   35.0240   44.3290 C   0  0  0  0  0  0  0  0  0  0  0  0
   44.9320   34.1110   43.2870 C   0  0  0  0  0  0  0  0  0  0  0  0
   45.5210   32.9170   43.6270 C   0  0  0  0  0  0  0  0  0  0  0  0
   45.8460   32.6880   44.9310 N   0  0  0  0  0  0  0  0  0  0  0  0
   45.6170   33.5790   45.9130 C   0  0  0  0  0  0  0  0  0  0  0  0
   45.0420   34.7510   45.6050 N   0  0  0  0  0  0  0  0  0  0  0  0
   44.5370   34.4810   41.9250 C   0  0  0  0  0  0  0  0  0  0  0  0
   44.1710   33.3050   41.0440 C   0  0  0  0  0  0  0  0  0  0  0  0
   43.6620   34.0510   39.8120 C   0  0  0  0  0  0  0  0  0  0  0  0
   42.9450   35.2700   40.3690 C   0  0  0  0  0  0  0  0  0  0  0  0
   43.2640   35.2890   41.8570 C   0  0  0  0  0  0  0  0  0  0  0  0
   45.9370   33.3670   47.2410 O   0  0  0  0  0  0  0  0  0  0  0  0
   46.0030   32.1090   47.8450 C   0  0  0  0  0  0  0  0  0  0  0  0
   47.1610   31.4260   47.4940 F   0  0  0  0  0  0  0  0  0  0  0  0
   44.8690   31.3710   47.5940 F   0  0  0  0  0  0  0  0  0  0  0  0
   46.0930   32.3050   49.2290 F   0  0  0  0  0  0  0  0  0  0  0  0
   44.2352   35.9917   44.0970 H   0  0  0  0  0  0  0  0  0  0  0  0
   45.7272   32.1574   42.8586 H   0  0  0  0  0  0  0  0  0  0  0  0
   45.4340   35.0240   41.5924 H   0  0  0  0  0  0  0  0  0  0  0  0
   45.0460   32.6803   40.8114 H   0  0  0  0  0  0  0  0  0  0  0  0
   43.4557   32.5966   41.4873 H   0  0  0  0  0  0  0  0  0  0  0  0
   42.9673   33.4214   39.2366 H   0  0  0  0  0  0  0  0  0  0  0  0
   44.4762   34.3245   39.1248 H   0  0  0  0  0  0  0  0  0  0  0  0
   43.3141   36.1866   39.8856 H   0  0  0  0  0  0  0  0  0  0  0  0
   41.8613   35.2234   40.1859 H   0  0  0  0  0  0  0  0  0  0  0  0
   43.4247   36.3161   42.2166 H   0  0  0  0  0  0  0  0  0  0  0  0
   42.4548   34.8887   42.4855 H   0  0  0  0  0  0  0  0  0  0  0  0
  1  6  2  0
  2  3  2  0
  2  1  1  0
  3  4  1  0
  4  5  2  0
  5 12  1  0
  6  5  1  0
  7  2  1  0
  8  7  1  0
  9 10  1  0
  9  8  1  0
 10 11  1  0
 11  7  1  0
 12 13  1  0
 13 16  1  0
 14 13  1  0
 15 13  1  0
  1 17  1  0
  3 18  1  0
  7 19  1  0
  8 20  1  0
  8 21  1  0
  9 22  1  0
  9 23  1  0
 10 24  1  0
 10 25  1  0
 11 26  1  0
 11 27  1  0
M  ISO  8  17  14  18  14  19  13  20  13  21  13  22  13  23  13  24  13
M  ISO  3  25  13  26  13  27  13
M  END
>  <minimizedAffinity>  (1) 
-4.15927267

>  <minimizedRMSD>  (1) 
1.75060594

$$$$
