
     RDKit          3D

 30 31  0  0  0  0  0  0  0  0999 V2000
   44.6990   35.4490   45.0280 C   0  0  0  0  0  0  0  0  0  0  0  0
   45.5380   34.9770   44.0260 C   0  0  0  0  0  0  0  0  0  0  0  0
   46.2360   33.8250   44.2790 C   0  0  0  0  0  0  0  0  0  0  0  0
   46.0780   33.2020   45.4860 N   0  0  0  0  0  0  0  0  0  0  0  0
   45.2580   33.6790   46.4450 C   0  0  0  0  0  0  0  0  0  0  0  0
   44.5660   34.8140   46.2020 N   0  0  0  0  0  0  0  0  0  0  0  0
   47.1190   33.2640   43.3160 N   0  0  0  0  0  0  0  0  0  0  0  0
   48.4320   33.5590   43.2560 C   0  0  0  0  0  0  0  0  0  0  0  0
   49.2390   32.9800   42.2950 C   0  0  0  0  0  0  0  0  0  0  0  0
   50.7010   33.2910   42.2060 C   0  0  0  0  0  0  0  0  0  0  0  0
   48.6610   32.1020   41.4120 C   0  0  0  0  0  0  0  0  0  0  0  0
   49.3770   31.5500   40.5120 O   0  0  0  0  0  0  0  0  0  0  0  0
   47.3300   31.8190   41.4930 N   0  0  0  0  0  0  0  0  0  0  0  0
   46.5610   32.4020   42.4470 C   0  0  0  0  0  0  0  0  0  0  0  0
   45.3670   32.0370   42.3840 O   0  0  0  0  0  0  0  0  0  0  0  0
   45.6590   35.6970   42.7500 C   0  0  0  0  0  0  0  0  0  0  0  0
   45.0290   36.9390   42.8940 F   0  0  0  0  0  0  0  0  0  0  0  0
   44.9730   35.0640   41.7280 F   0  0  0  0  0  0  0  0  0  0  0  0
   46.9590   35.8630   42.3600 F   0  0  0  0  0  0  0  0  0  0  0  0
   45.0630   33.0900   47.6780 O   0  0  0  0  0  0  0  0  0  0  0  0
   45.9980   32.2180   48.2660 C   0  0  0  0  0  0  0  0  0  0  0  0
   47.2840   32.7470   48.2400 F   0  0  0  0  0  0  0  0  0  0  0  0
   45.9140   30.9540   47.7480 F   0  0  0  0  0  0  0  0  0  0  0  0
   45.6720   32.1580   49.6330 F   0  0  0  0  0  0  0  0  0  0  0  0
   44.1263   36.3717   44.8531 H   0  0  0  0  0  0  0  0  0  0  0  0
   48.8655   34.2667   43.9780 H   0  0  0  0  0  0  0  0  0  0  0  0
   51.1193   33.3800   43.2195 H   0  0  0  0  0  0  0  0  0  0  0  0
   51.2157   32.4823   41.6666 H   0  0  0  0  0  0  0  0  0  0  0  0
   50.8420   34.2392   41.6666 H   0  0  0  0  0  0  0  0  0  0  0  0
   46.9055   31.1587   40.8261 H   0  0  0  0  0  0  0  0  0  0  0  0
  1  6  2  0
  2  3  2  0
  2  1  1  0
  3  4  1  0
  4  5  2  0
  5 20  1  0
  6  5  1  0
  7  3  1  0
  8  7  1  0
  9  8  2  0
 10  9  1  0
 11 13  1  0
 11  9  1  0
 12 11  2  0
 13 14  1  0
 14  7  1  0
 15 14  2  0
 16 17  1  0
 16  2  1  0
 18 16  1  0
 19 16  1  0
 20 21  1  0
 21 24  1  0
 22 21  1  0
 23 21  1  0
  1 25  1  0
  8 26  1  0
 10 27  1  0
 10 28  1  0
 10 29  1  0
 13 30  1  0
M  ISO  6  25  14  26  14  27   8  28   8  29   8  30   9
M  END
>  <minimizedAffinity>  (1) 
-6.07151413

>  <minimizedRMSD>  (1) 
0.260647386

$$$$
