
     RDKit          3D

 31 33  0  0  0  0  0  0  0  0999 V2000
   44.7510   35.4080   44.8520 C   0  0  0  0  0  0  0  0  0  0  0  0
   45.4520   34.7650   43.8360 C   0  0  0  0  0  0  0  0  0  0  0  0
   46.0410   33.5640   44.1470 C   0  0  0  0  0  0  0  0  0  0  0  0
   45.9050   33.0790   45.4270 N   0  0  0  0  0  0  0  0  0  0  0  0
   45.2260   33.7220   46.3810 C   0  0  0  0  0  0  0  0  0  0  0  0
   44.6480   34.8890   46.0900 N   0  0  0  0  0  0  0  0  0  0  0  0
   46.8190   32.8290   43.1530 C   0  0  0  0  0  0  0  0  0  0  0  0
   46.2490   31.7380   42.5000 C   0  0  0  0  0  0  0  0  0  0  0  0
   47.1920   31.2130   41.6590 N   0  0  0  0  0  0  0  0  0  0  0  0
   48.3080   31.9800   41.8090 C   0  0  0  0  0  0  0  0  0  0  0  0
   49.5500   31.9100   41.2060 C   0  0  0  0  0  0  0  0  0  0  0  0
   50.5380   32.8380   41.5340 C   0  0  0  0  0  0  0  0  0  0  0  0
   50.3110   33.8300   42.4510 C   0  0  0  0  0  0  0  0  0  0  0  0
   49.0680   33.9420   43.0900 C   0  0  0  0  0  0  0  0  0  0  0  0
   48.1410   33.0000   42.7220 C   0  0  0  0  0  0  0  0  0  0  0  0
   45.5490   35.3840   42.5000 C   0  0  0  0  0  0  0  0  0  0  0  0
   44.6280   36.4220   42.4320 F   0  0  0  0  0  0  0  0  0  0  0  0
   45.2060   34.5160   41.5110 F   0  0  0  0  0  0  0  0  0  0  0  0
   46.8230   35.8570   42.2600 F   0  0  0  0  0  0  0  0  0  0  0  0
   45.0810   33.2440   47.6730 O   0  0  0  0  0  0  0  0  0  0  0  0
   45.9340   32.2870   48.2490 C   0  0  0  0  0  0  0  0  0  0  0  0
   47.2630   32.6490   48.1690 F   0  0  0  0  0  0  0  0  0  0  0  0
   45.6750   31.0240   47.7480 F   0  0  0  0  0  0  0  0  0  0  0  0
   45.6400   32.2610   49.6200 F   0  0  0  0  0  0  0  0  0  0  0  0
   44.2655   36.3713   44.6366 H   0  0  0  0  0  0  0  0  0  0  0  0
   45.2232   31.3651   42.6364 H   0  0  0  0  0  0  0  0  0  0  0  0
   47.0804   30.4000   41.0366 H   0  0  0  0  0  0  0  0  0  0  0  0
   49.7590   31.1222   40.4673 H   0  0  0  0  0  0  0  0  0  0  0  0
   51.5214   32.7719   41.0455 H   0  0  0  0  0  0  0  0  0  0  0  0
   51.1118   34.5458   42.6884 H   0  0  0  0  0  0  0  0  0  0  0  0
   48.8523   34.7262   43.8307 H   0  0  0  0  0  0  0  0  0  0  0  0
  1  6  2  0
  2  3  2  0
  2  1  1  0
  3  4  1  0
  4  5  2  0
  5 20  1  0
  6  5  1  0
  7  3  1  0
  8  7  2  0
  9 10  1  0
  9  8  1  0
 10 15  2  0
 11 12  2  0
 11 10  1  0
 12 13  1  0
 13 14  2  0
 15 14  1  0
 15  7  1  0
 16  2  1  0
 17 16  1  0
 18 16  1  0
 19 16  1  0
 20 21  1  0
 21 24  1  0
 22 21  1  0
 23 21  1  0
  1 25  1  0
  8 26  1  0
  9 27  1  0
 11 28  1  0
 12 29  1  0
 13 30  1  0
 14 31  1  0
M  ISO  7  25  14  26  14  27   9  28  14  29  14  30  14  31  14
M  END
>  <minimizedAffinity>  (1) 
-6.02199221

>  <minimizedRMSD>  (1) 
0.870973229

$$$$
