
     RDKit          3D

 24 25  0  0  0  0  0  0  0  0999 V2000
   44.7090   35.4090   45.0010 C   0  0  0  0  0  0  0  0  0  0  0  0
   45.5640   34.8920   44.0380 C   0  0  0  0  0  0  0  0  0  0  0  0
   46.2570   33.7570   44.3590 C   0  0  0  0  0  0  0  0  0  0  0  0
   46.0920   33.1820   45.5820 N   0  0  0  0  0  0  0  0  0  0  0  0
   45.2540   33.7010   46.5040 C   0  0  0  0  0  0  0  0  0  0  0  0
   44.5750   34.8100   46.1960 N   0  0  0  0  0  0  0  0  0  0  0  0
   47.1530   33.1530   43.4450 N   0  0  0  0  0  0  0  0  0  0  0  0
   46.6400   32.1300   42.7290 C   0  0  0  0  0  0  0  0  0  0  0  0
   47.6170   31.6340   41.8800 C   0  0  0  0  0  0  0  0  0  0  0  0
   48.7250   32.3840   42.1040 N   0  0  0  0  0  0  0  0  0  0  0  0
   48.4340   33.2880   43.0420 C   0  0  0  0  0  0  0  0  0  0  0  0
   45.7080   35.5550   42.7270 C   0  0  0  0  0  0  0  0  0  0  0  0
   44.9390   36.7220   42.7580 F   0  0  0  0  0  0  0  0  0  0  0  0
   45.1940   34.7890   41.7050 F   0  0  0  0  0  0  0  0  0  0  0  0
   47.0100   35.8580   42.4290 F   0  0  0  0  0  0  0  0  0  0  0  0
   45.0490   33.1590   47.7590 O   0  0  0  0  0  0  0  0  0  0  0  0
   45.8760   32.2030   48.3400 C   0  0  0  0  0  0  0  0  0  0  0  0
   47.2080   32.5880   48.3580 F   0  0  0  0  0  0  0  0  0  0  0  0
   45.7000   30.9690   47.7400 F   0  0  0  0  0  0  0  0  0  0  0  0
   45.5150   32.1010   49.6870 F   0  0  0  0  0  0  0  0  0  0  0  0
   44.1337   36.3209   44.7831 H   0  0  0  0  0  0  0  0  0  0  0  0
   45.6105   31.7504   42.8069 H   0  0  0  0  0  0  0  0  0  0  0  0
   47.5146   30.8011   41.1688 H   0  0  0  0  0  0  0  0  0  0  0  0
   49.1388   34.0373   43.4316 H   0  0  0  0  0  0  0  0  0  0  0  0
  1  6  2  0
  2  3  2  0
  2  1  1  0
  3  4  1  0
  4  5  2  0
  5 16  1  0
  6  5  1  0
  7  3  1  0
  8  7  1  0
  9 10  1  0
  9  8  2  0
 10 11  2  0
 11  7  1  0
 12 13  1  0
 12  2  1  0
 14 12  1  0
 15 12  1  0
 16 17  1  0
 17 18  1  0
 17 20  1  0
 19 17  1  0
  1 21  1  0
  8 22  1  0
  9 23  1  0
 11 24  1  0
M  ISO  4  21  14  22  14  23  14  24  14
M  END
>  <minimizedAffinity>  (1) 
-5.26406765

>  <minimizedRMSD>  (1) 
0.549935579

$$$$
