
     RDKit          3D

 22 23  0  0  0  0  0  0  0  0999 V2000
   44.6950   35.4410   45.0460 C   0  0  0  0  0  0  0  0  0  0  0  0
   45.5350   34.9540   44.0550 C   0  0  0  0  0  0  0  0  0  0  0  0
   46.2320   33.8010   44.3300 C   0  0  0  0  0  0  0  0  0  0  0  0
   46.0640   33.2100   45.5400 N   0  0  0  0  0  0  0  0  0  0  0  0
   45.2470   33.6930   46.4900 C   0  0  0  0  0  0  0  0  0  0  0  0
   44.5660   34.8160   46.2270 N   0  0  0  0  0  0  0  0  0  0  0  0
   47.1220   33.2660   43.3050 C   0  0  0  0  0  0  0  0  0  0  0  0
   48.4510   33.4080   43.1360 N   0  0  0  0  0  0  0  0  0  0  0  0
   48.8620   32.7620   42.0850 O   0  0  0  0  0  0  0  0  0  0  0  0
   47.8320   32.1730   41.5240 C   0  0  0  0  0  0  0  0  0  0  0  0
   46.7310   32.4710   42.2650 N   0  0  0  0  0  0  0  0  0  0  0  0
   45.6570   35.6620   42.7640 C   0  0  0  0  0  0  0  0  0  0  0  0
   45.0370   36.9070   42.9060 F   0  0  0  0  0  0  0  0  0  0  0  0
   44.9720   35.0190   41.7640 F   0  0  0  0  0  0  0  0  0  0  0  0
   46.9770   35.8220   42.3910 F   0  0  0  0  0  0  0  0  0  0  0  0
   45.0680   33.1020   47.7220 O   0  0  0  0  0  0  0  0  0  0  0  0
   45.9880   32.2190   48.3100 C   0  0  0  0  0  0  0  0  0  0  0  0
   47.2830   32.7170   48.2850 F   0  0  0  0  0  0  0  0  0  0  0  0
   45.8690   30.9660   47.7720 F   0  0  0  0  0  0  0  0  0  0  0  0
   45.6560   32.1600   49.6730 F   0  0  0  0  0  0  0  0  0  0  0  0
   44.1213   36.3608   44.8596 H   0  0  0  0  0  0  0  0  0  0  0  0
   47.8550   31.5503   40.6175 H   0  0  0  0  0  0  0  0  0  0  0  0
  1  6  2  0
  2  3  2  0
  2  1  1  0
  3  4  1  0
  4  5  2  0
  5 16  1  0
  6  5  1  0
  7  3  1  0
  8  7  2  0
  9  8  1  0
 10  9  1  0
 10 11  2  0
 11  7  1  0
 12 13  1  0
 12  2  1  0
 14 12  1  0
 15 12  1  0
 16 17  1  0
 17 20  1  0
 18 17  1  0
 19 17  1  0
  1 21  1  0
 10 22  1  0
M  ISO  2  21  14  22  14
M  END
>  <minimizedAffinity>  (1) 
-5.32519817

>  <minimizedRMSD>  (1) 
0.30658704

$$$$
