
     RDKit          3D

 26 26  0  0  0  0  0  0  0  0999 V2000
   44.7520   35.3670   44.9490 C   0  0  0  0  0  0  0  0  0  0  0  0
   45.6090   34.8420   43.9900 C   0  0  0  0  0  0  0  0  0  0  0  0
   46.3150   33.7070   44.2950 C   0  0  0  0  0  0  0  0  0  0  0  0
   46.1440   33.1450   45.5280 N   0  0  0  0  0  0  0  0  0  0  0  0
   45.3170   33.6590   46.4450 C   0  0  0  0  0  0  0  0  0  0  0  0
   44.6180   34.7780   46.1470 N   0  0  0  0  0  0  0  0  0  0  0  0
   45.7500   35.4990   42.6690 C   0  0  0  0  0  0  0  0  0  0  0  0
   44.9430   36.6410   42.6830 F   0  0  0  0  0  0  0  0  0  0  0  0
   45.2400   34.7250   41.6530 F   0  0  0  0  0  0  0  0  0  0  0  0
   47.0470   35.8470   42.3960 F   0  0  0  0  0  0  0  0  0  0  0  0
   47.2590   33.0770   43.3170 C   0  0  0  0  0  0  0  0  0  0  0  0
   46.5710   32.6510   42.0510 C   0  0  0  0  0  0  0  0  0  0  0  0
   48.3680   34.0670   42.9490 C   0  0  0  0  0  0  0  0  0  0  0  0
   45.1110   33.1220   47.7120 O   0  0  0  0  0  0  0  0  0  0  0  0
   46.0020   32.2270   48.3160 C   0  0  0  0  0  0  0  0  0  0  0  0
   47.3060   32.6860   48.3110 F   0  0  0  0  0  0  0  0  0  0  0  0
   45.8860   30.9680   47.7740 F   0  0  0  0  0  0  0  0  0  0  0  0
   45.6700   32.1680   49.6750 F   0  0  0  0  0  0  0  0  0  0  0  0
   44.1762   36.2767   44.7234 H   0  0  0  0  0  0  0  0  0  0  0  0
   47.6738   32.1839   43.8073 H   0  0  0  0  0  0  0  0  0  0  0  0
   45.6602   32.0870   42.3006 H   0  0  0  0  0  0  0  0  0  0  0  0
   46.3018   33.5407   41.4628 H   0  0  0  0  0  0  0  0  0  0  0  0
   47.2474   32.0134   41.4628 H   0  0  0  0  0  0  0  0  0  0  0  0
   48.8194   34.4700   43.8676 H   0  0  0  0  0  0  0  0  0  0  0  0
   49.1387   33.5510   42.3575 H   0  0  0  0  0  0  0  0  0  0  0  0
   47.9424   34.8911   42.3575 H   0  0  0  0  0  0  0  0  0  0  0  0
  1  6  2  0
  2  3  2  0
  2  1  1  0
  3  4  1  0
  4  5  2  0
  5 14  1  0
  6  5  1  0
  7  8  1  0
  7  2  1  0
  9  7  1  0
 10  7  1  0
 11  3  1  0
 12 11  1  0
 13 11  1  0
 14 15  1  0
 15 18  1  0
 16 15  1  0
 17 15  1  0
  1 19  1  0
 11 20  1  0
 12 21  1  0
 12 22  1  0
 12 23  1  0
 13 24  1  0
 13 25  1  0
 13 26  1  0
M  ISO  8  19  14  20   8  21   8  22   8  23   8  24   8  25   8  26   8
M  END
>  <minimizedAffinity>  (1) 
-5.15902758

>  <minimizedRMSD>  (1) 
0.262539089

$$$$
