
     RDKit          3D

 24 25  0  0  0  0  0  0  0  0999 V2000
   44.6980   35.4660   45.0440 C   0  0  0  0  0  0  0  0  0  0  0  0
   45.5150   34.9860   44.0270 C   0  0  0  0  0  0  0  0  0  0  0  0
   46.2000   33.8240   44.2610 C   0  0  0  0  0  0  0  0  0  0  0  0
   46.0580   33.1940   45.4650 N   0  0  0  0  0  0  0  0  0  0  0  0
   45.2580   33.6820   46.4360 C   0  0  0  0  0  0  0  0  0  0  0  0
   44.5780   34.8280   46.2110 N   0  0  0  0  0  0  0  0  0  0  0  0
   47.0850   33.2370   43.2570 C   0  0  0  0  0  0  0  0  0  0  0  0
   48.4510   33.3190   43.0590 C   0  0  0  0  0  0  0  0  0  0  0  0
   48.8070   32.5650   41.9480 C   0  0  0  0  0  0  0  0  0  0  0  0
   47.6620   32.0430   41.4940 N   0  0  0  0  0  0  0  0  0  0  0  0
   46.6430   32.4260   42.2490 N   0  0  0  0  0  0  0  0  0  0  0  0
   45.6300   35.7070   42.7500 C   0  0  0  0  0  0  0  0  0  0  0  0
   44.9990   36.9470   42.9030 F   0  0  0  0  0  0  0  0  0  0  0  0
   44.9560   35.0890   41.7360 F   0  0  0  0  0  0  0  0  0  0  0  0
   46.9460   35.9170   42.3880 F   0  0  0  0  0  0  0  0  0  0  0  0
   45.0720   33.0920   47.6740 O   0  0  0  0  0  0  0  0  0  0  0  0
   46.0090   32.2290   48.2650 C   0  0  0  0  0  0  0  0  0  0  0  0
   47.2890   32.7510   48.2190 F   0  0  0  0  0  0  0  0  0  0  0  0
   45.9410   30.9670   47.7400 F   0  0  0  0  0  0  0  0  0  0  0  0
   45.6870   32.1680   49.6300 F   0  0  0  0  0  0  0  0  0  0  0  0
   44.1348   36.3971   44.8831 H   0  0  0  0  0  0  0  0  0  0  0  0
   49.1491   33.8935   43.6855 H   0  0  0  0  0  0  0  0  0  0  0  0
   49.8153   32.4267   41.5306 H   0  0  0  0  0  0  0  0  0  0  0  0
   47.5835   31.4283   40.6712 H   0  0  0  0  0  0  0  0  0  0  0  0
  1  6  2  0
  2  3  2  0
  2  1  1  0
  3  4  1  0
  4  5  2  0
  5 16  1  0
  6  5  1  0
  7  3  1  0
  8  7  1  0
  9  8  2  0
 10  9  1  0
 10 11  1  0
 11  7  2  0
 12 13  1  0
 12  2  1  0
 14 12  1  0
 15 12  1  0
 16 17  1  0
 17 20  1  0
 18 17  1  0
 19 17  1  0
  1 21  1  0
  8 22  1  0
  9 23  1  0
 10 24  1  0
M  ISO  4  21  14  22  14  23  14  24   9
M  END
>  <minimizedAffinity>  (1) 
-5.33274698

>  <minimizedRMSD>  (1) 
0.176929742

$$$$
