
     RDKit          3D

 19 19  0  0  0  0  0  0  0  0999 V2000
   44.7320   35.3890   45.0070 C   0  0  0  0  0  0  0  0  0  0  0  0
   45.5650   34.8470   44.0410 C   0  0  0  0  0  0  0  0  0  0  0  0
   46.2420   33.6990   44.3480 C   0  0  0  0  0  0  0  0  0  0  0  0
   46.0630   33.1470   45.5820 N   0  0  0  0  0  0  0  0  0  0  0  0
   45.2540   33.6810   46.5080 C   0  0  0  0  0  0  0  0  0  0  0  0
   44.5970   34.8050   46.1990 N   0  0  0  0  0  0  0  0  0  0  0  0
   45.7120   35.5020   42.7160 C   0  0  0  0  0  0  0  0  0  0  0  0
   44.9820   36.6940   42.7510 F   0  0  0  0  0  0  0  0  0  0  0  0
   45.1290   34.7570   41.7160 F   0  0  0  0  0  0  0  0  0  0  0  0
   47.0240   35.7400   42.3940 F   0  0  0  0  0  0  0  0  0  0  0  0
   47.1170   33.0720   43.4190 N   0  0  0  0  0  0  0  0  0  0  0  0
   45.0380   33.1630   47.7710 O   0  0  0  0  0  0  0  0  0  0  0  0
   45.8510   32.1550   48.3290 C   0  0  0  0  0  0  0  0  0  0  0  0
   47.1850   32.5410   48.3820 F   0  0  0  0  0  0  0  0  0  0  0  0
   45.6530   30.9470   47.7260 F   0  0  0  0  0  0  0  0  0  0  0  0
   45.4830   32.0570   49.6900 F   0  0  0  0  0  0  0  0  0  0  0  0
   44.1752   36.3121   44.7882 H   0  0  0  0  0  0  0  0  0  0  0  0
   47.6125   32.2078   43.6807 H   0  0  0  0  0  0  0  0  0  0  0  0
   47.2553   33.4820   42.4843 H   0  0  0  0  0  0  0  0  0  0  0  0
  1  6  2  0
  2  3  2  0
  2  1  1  0
  3  4  1  0
  4  5  2  0
  5 12  1  0
  6  5  1  0
  7  8  1  0
  7  2  1  0
  9  7  1  0
 10  7  1  0
 11  3  1  0
 12 13  1  0
 13 14  1  0
 13 16  1  0
 15 13  1  0
  1 17  1  0
 11 18  1  0
 11 19  1  0
M  ISO  1  17  14
M  END
>  <minimizedAffinity>  (1) 
-4.9280014

>  <minimizedRMSD>  (1) 
0.206887797

$$$$
