
     RDKit          3D

 20 20  0  0  0  0  0  0  0  0999 V2000
   44.7410   35.3690   44.9960 C   0  0  0  0  0  0  0  0  0  0  0  0
   45.5800   34.8380   44.0370 C   0  0  0  0  0  0  0  0  0  0  0  0
   46.2670   33.6970   44.3530 C   0  0  0  0  0  0  0  0  0  0  0  0
   46.0820   33.1500   45.5970 N   0  0  0  0  0  0  0  0  0  0  0  0
   45.2660   33.6790   46.5080 C   0  0  0  0  0  0  0  0  0  0  0  0
   44.5930   34.8010   46.1970 N   0  0  0  0  0  0  0  0  0  0  0  0
   45.7240   35.4920   42.7150 C   0  0  0  0  0  0  0  0  0  0  0  0
   45.0140   36.6950   42.7650 F   0  0  0  0  0  0  0  0  0  0  0  0
   45.1390   34.7660   41.7180 F   0  0  0  0  0  0  0  0  0  0  0  0
   47.0410   35.7520   42.4050 F   0  0  0  0  0  0  0  0  0  0  0  0
   47.1890   33.0520   43.3930 C   0  0  0  0  0  0  0  0  0  0  0  0
   45.0590   33.1530   47.7680 O   0  0  0  0  0  0  0  0  0  0  0  0
   45.8780   32.1890   48.3620 C   0  0  0  0  0  0  0  0  0  0  0  0
   47.2050   32.5570   48.3820 F   0  0  0  0  0  0  0  0  0  0  0  0
   45.6900   30.9560   47.7610 F   0  0  0  0  0  0  0  0  0  0  0  0
   45.4970   32.0860   49.7040 F   0  0  0  0  0  0  0  0  0  0  0  0
   44.1782   36.2856   44.7654 H   0  0  0  0  0  0  0  0  0  0  0  0
   47.9691   32.5063   43.9440 H   0  0  0  0  0  0  0  0  0  0  0  0
   46.6269   32.3491   42.7605 H   0  0  0  0  0  0  0  0  0  0  0  0
   47.6566   33.8210   42.7605 H   0  0  0  0  0  0  0  0  0  0  0  0
  1  6  2  0
  2  3  2  0
  2  1  1  0
  3  4  1  0
  4  5  2  0
  5 12  1  0
  6  5  1  0
  7  8  1  0
  7  2  1  0
  9  7  1  0
 10  7  1  0
 11  3  1  0
 12 13  1  0
 13 14  1  0
 13 16  1  0
 15 13  1  0
  1 17  1  0
 11 18  1  0
 11 19  1  0
 11 20  1  0
M  ISO  4  17  14  18   8  19   8  20   8
M  END
>  <minimizedAffinity>  (1) 
-4.98692369

>  <minimizedRMSD>  (1) 
0.204938307

$$$$
