
     RDKit          3D

 18 18  0  0  0  0  0  0  0  0999 V2000
   44.7370   35.3760   44.9980 C   0  0  0  0  0  0  0  0  0  0  0  0
   45.5780   34.8420   44.0350 C   0  0  0  0  0  0  0  0  0  0  0  0
   46.2590   33.7010   44.3600 C   0  0  0  0  0  0  0  0  0  0  0  0
   46.0790   33.1520   45.5940 N   0  0  0  0  0  0  0  0  0  0  0  0
   45.2620   33.6830   46.5090 C   0  0  0  0  0  0  0  0  0  0  0  0
   44.5920   34.8010   46.1980 N   0  0  0  0  0  0  0  0  0  0  0  0
   45.7230   35.4980   42.7080 C   0  0  0  0  0  0  0  0  0  0  0  0
   44.9760   36.6620   42.7300 F   0  0  0  0  0  0  0  0  0  0  0  0
   45.1610   34.7270   41.7050 F   0  0  0  0  0  0  0  0  0  0  0  0
   47.0330   35.7450   42.4040 F   0  0  0  0  0  0  0  0  0  0  0  0
   47.3740   32.9370   43.1740 S   0  0  0  0  0  0  0  0  0  0  0  0
   45.0520   33.1610   47.7690 O   0  0  0  0  0  0  0  0  0  0  0  0
   45.8670   32.1710   48.3490 C   0  0  0  0  0  0  0  0  0  0  0  0
   47.2020   32.5560   48.3800 F   0  0  0  0  0  0  0  0  0  0  0  0
   45.6900   30.9530   47.7540 F   0  0  0  0  0  0  0  0  0  0  0  0
   45.4940   32.0820   49.6950 F   0  0  0  0  0  0  0  0  0  0  0  0
   44.1753   36.2941   44.7710 H   0  0  0  0  0  0  0  0  0  0  0  0
   48.3599   32.2614   43.8437 H   0  0  0  0  0  0  0  0  0  0  0  0
  1  6  2  0
  2  3  2  0
  2  1  1  0
  3  4  1  0
  4  5  2  0
  5 12  1  0
  6  5  1  0
  7  8  1  0
  7  2  1  0
  9  7  1  0
 10  7  1  0
 11  3  1  0
 12 13  1  0
 13 14  1  0
 13 16  1  0
 15 13  1  0
  1 17  1  0
 11 18  1  0
M  ISO  2  17  14  18  11
M  END
>  <minimizedAffinity>  (1) 
-4.92745256

>  <minimizedRMSD>  (1) 
0.216222271

$$$$
