
     RDKit          3D

 24 24  0  0  0  0  0  0  0  0999 V2000
   44.7380   35.5180   45.0210 C   0  0  0  0  0  0  0  0  0  0  0  0
   45.3710   35.0210   43.8930 C   0  0  0  0  0  0  0  0  0  0  0  0
   45.9530   33.7890   44.0180 C   0  0  0  0  0  0  0  0  0  0  0  0
   45.8940   33.1220   45.2030 N   0  0  0  0  0  0  0  0  0  0  0  0
   45.2740   33.6290   46.2790 C   0  0  0  0  0  0  0  0  0  0  0  0
   44.6920   34.8460   46.1710 N   0  0  0  0  0  0  0  0  0  0  0  0
   46.6310   33.1310   42.9590 N   0  0  0  0  0  0  0  0  0  0  0  0
   48.0600   33.1450   42.8460 C   0  0  0  0  0  0  0  0  0  0  0  0
   48.7430   34.0330   43.5300 N   0  0  0  0  0  0  0  0  0  0  0  0
   48.8100   32.2350   42.0220 N   0  0  0  0  0  0  0  0  0  0  0  0
   49.7770   34.0740   43.4740 H   0  0  0  0  0  0  0  0  0  0  0  0
   45.4160   35.7780   42.6350 C   0  0  0  0  0  0  0  0  0  0  0  0
   44.8230   37.0260   42.8820 F   0  0  0  0  0  0  0  0  0  0  0  0
   44.6200   35.2090   41.6710 F   0  0  0  0  0  0  0  0  0  0  0  0
   46.6880   35.9550   42.1690 F   0  0  0  0  0  0  0  0  0  0  0  0
   45.1830   32.9960   47.5000 O   0  0  0  0  0  0  0  0  0  0  0  0
   46.2150   32.2510   48.0680 C   0  0  0  0  0  0  0  0  0  0  0  0
   47.4470   32.8680   47.9460 F   0  0  0  0  0  0  0  0  0  0  0  0
   46.2260   30.9690   47.5760 F   0  0  0  0  0  0  0  0  0  0  0  0
   45.9890   32.2070   49.4490 F   0  0  0  0  0  0  0  0  0  0  0  0
   44.2551   36.5047   44.9652 H   0  0  0  0  0  0  0  0  0  0  0  0
   46.0792   32.6278   42.2496 H   0  0  0  0  0  0  0  0  0  0  0  0
   49.8373   32.2998   41.9864 H   0  0  0  0  0  0  0  0  0  0  0  0
   48.3196   31.5187   41.4676 H   0  0  0  0  0  0  0  0  0  0  0  0
  1  6  2  0
  2  3  2  0
  2  1  1  0
  3  4  1  0
  4  5  2  0
  5 16  1  0
  6  5  1  0
  7  3  1  0
  8  7  1  0
  8  9  2  0
 10  8  1  0
 11  9  1  0
 12 13  1  0
 12  2  1  0
 14 12  1  0
 15 12  1  0
 16 17  1  0
 17 20  1  0
 18 17  1  0
 19 17  1  0
  1 21  1  0
  7 22  1  0
 10 23  1  0
 10 24  1  0
M  ISO  1  21  14
M  END
>  <minimizedAffinity>  (1) 
-5.11554337

>  <minimizedRMSD>  (1) 
0.765047491

$$$$
