
     RDKit          3D

 34 36  0  0  0  0  0  0  0  0999 V2000
   44.7080   35.4060   44.9920 C   0  0  0  0  0  0  0  0  0  0  0  0
   45.5770   34.9090   44.0400 C   0  0  0  0  0  0  0  0  0  0  0  0
   46.3010   33.7850   44.3640 C   0  0  0  0  0  0  0  0  0  0  0  0
   46.1300   33.2160   45.5960 N   0  0  0  0  0  0  0  0  0  0  0  0
   45.2860   33.7120   46.5010 C   0  0  0  0  0  0  0  0  0  0  0  0
   44.5960   34.7920   46.1790 N   0  0  0  0  0  0  0  0  0  0  0  0
   45.7350   35.5420   42.7300 C   0  0  0  0  0  0  0  0  0  0  0  0
   44.8770   36.6430   42.6870 F   0  0  0  0  0  0  0  0  0  0  0  0
   45.2540   34.7270   41.7050 F   0  0  0  0  0  0  0  0  0  0  0  0
   47.0040   35.9180   42.4510 F   0  0  0  0  0  0  0  0  0  0  0  0
   47.2500   33.0950   43.5470 C   0  0  0  0  0  0  0  0  0  0  0  0
   47.1340   31.9300   43.1240 O   0  0  0  0  0  0  0  0  0  0  0  0
   48.4660   33.2910   42.9540 O   0  0  0  0  0  0  0  0  0  0  0  0
   49.0620   32.6030   41.9600 C   0  0  0  0  0  0  0  0  0  0  0  0
   49.8720   31.5980   42.3240 N   0  0  0  0  0  0  0  0  0  0  0  0
   50.5160   30.8480   41.3960 C   0  0  0  0  0  0  0  0  0  0  0  0
   50.3940   31.0510   40.0530 N   0  0  0  0  0  0  0  0  0  0  0  0
   49.5810   32.0620   39.6280 C   0  0  0  0  0  0  0  0  0  0  0  0
   49.4000   32.3360   38.2870 C   0  0  0  0  0  0  0  0  0  0  0  0
   48.5710   33.3660   37.8720 C   0  0  0  0  0  0  0  0  0  0  0  0
   47.9460   34.0900   38.8680 C   0  0  0  0  0  0  0  0  0  0  0  0
   48.0910   33.8580   40.2220 C   0  0  0  0  0  0  0  0  0  0  0  0
   48.9340   32.8140   40.6000 C   0  0  0  0  0  0  0  0  0  0  0  0
   45.0740   33.1800   47.7580 O   0  0  0  0  0  0  0  0  0  0  0  0
   45.8540   32.1430   48.3030 C   0  0  0  0  0  0  0  0  0  0  0  0
   47.1800   32.5190   48.3740 F   0  0  0  0  0  0  0  0  0  0  0  0
   45.6590   30.9500   47.6790 F   0  0  0  0  0  0  0  0  0  0  0  0
   45.4700   32.0400   49.6540 F   0  0  0  0  0  0  0  0  0  0  0  0
   44.1093   36.3034   44.7769 H   0  0  0  0  0  0  0  0  0  0  0  0
   51.1699   30.0348   41.7440 H   0  0  0  0  0  0  0  0  0  0  0  0
   49.9227   31.7264   37.5352 H   0  0  0  0  0  0  0  0  0  0  0  0
   48.4190   33.5945   36.8068 H   0  0  0  0  0  0  0  0  0  0  0  0
   47.2835   34.9125   38.5604 H   0  0  0  0  0  0  0  0  0  0  0  0
   47.5645   34.4701   40.9691 H   0  0  0  0  0  0  0  0  0  0  0  0
  1  6  2  0
  2  3  2  0
  2  1  1  0
  3  4  1  0
  4  5  2  0
  5 24  1  0
  6  5  1  0
  7  2  1  0
  8  7  1  0
  9  7  1  0
 10  7  1  0
 11  3  1  0
 12 11  2  0
 13 11  1  0
 14 15  2  0
 14 13  1  0
 16 15  1  0
 17 16  2  0
 18 17  1  0
 18 23  2  0
 19 18  1  0
 20 19  2  0
 20 21  1  0
 21 22  2  0
 22 23  1  0
 23 14  1  0
 24 25  1  0
 25 26  1  0
 25 28  1  0
 27 25  1  0
  1 29  1  0
 16 30  1  0
 19 31  1  0
 20 32  1  0
 21 33  1  0
 22 34  1  0
M  ISO  6  29  14  30  14  31  14  32  14  33  14  34  14
M  END
>  <minimizedAffinity>  (1) 
-6.16038132

>  <minimizedRMSD>  (1) 
1.17322981

$$$$
