
     RDKit          3D

 30 31  0  0  0  0  0  0  0  0999 V2000
   44.8940   34.8650   45.8330 C   0  0  0  0  0  0  0  0  0  0  0  0
   45.1260   34.7130   44.4820 C   0  0  0  0  0  0  0  0  0  0  0  0
   45.6140   33.5040   44.0620 C   0  0  0  0  0  0  0  0  0  0  0  0
   45.8470   32.5180   44.9820 N   0  0  0  0  0  0  0  0  0  0  0  0
   45.6180   32.6790   46.2810 C   0  0  0  0  0  0  0  0  0  0  0  0
   45.1420   33.8620   46.6730 N   0  0  0  0  0  0  0  0  0  0  0  0
   44.8700   35.7870   43.5060 C   0  0  0  0  0  0  0  0  0  0  0  0
   44.6240   36.9520   44.2490 F   0  0  0  0  0  0  0  0  0  0  0  0
   43.6720   35.5800   42.8280 F   0  0  0  0  0  0  0  0  0  0  0  0
   45.8850   35.9850   42.6260 F   0  0  0  0  0  0  0  0  0  0  0  0
   45.9290   33.1170   42.7230 C   0  0  0  0  0  0  0  0  0  0  0  0
   45.1620   32.5250   41.9210 O   0  0  0  0  0  0  0  0  0  0  0  0
   46.9280   33.1430   41.7880 O   0  0  0  0  0  0  0  0  0  0  0  0
   48.2560   33.2640   41.9930 C   0  0  0  0  0  0  0  0  0  0  0  0
   48.7040   34.5150   42.2850 C   0  0  0  0  0  0  0  0  0  0  0  0
   50.0650   34.7450   42.5160 C   0  0  0  0  0  0  0  0  0  0  0  0
   50.9200   33.6430   42.4300 C   0  0  0  0  0  0  0  0  0  0  0  0
   50.4350   32.3710   42.1290 C   0  0  0  0  0  0  0  0  0  0  0  0
   49.0960   32.1650   41.9060 C   0  0  0  0  0  0  0  0  0  0  0  0
   45.8320   31.7240   47.2520 O   0  0  0  0  0  0  0  0  0  0  0  0
   46.7240   31.8990   48.3190 C   0  0  0  0  0  0  0  0  0  0  0  0
   47.6940   32.8340   48.0290 F   0  0  0  0  0  0  0  0  0  0  0  0
   47.2390   30.7120   48.7520 F   0  0  0  0  0  0  0  0  0  0  0  0
   45.9760   32.4970   49.3530 F   0  0  0  0  0  0  0  0  0  0  0  0
   44.5027   35.8182   46.2180 H   0  0  0  0  0  0  0  0  0  0  0  0
   47.9916   35.3514   42.3399 H   0  0  0  0  0  0  0  0  0  0  0  0
   50.4451   35.7492   42.7548 H   0  0  0  0  0  0  0  0  0  0  0  0
   51.9973   33.7819   42.6033 H   0  0  0  0  0  0  0  0  0  0  0  0
   51.1330   31.5229   42.0695 H   0  0  0  0  0  0  0  0  0  0  0  0
   48.7045   31.1651   41.6672 H   0  0  0  0  0  0  0  0  0  0  0  0
  1  6  2  0
  2  1  1  0
  3  2  2  0
  3  4  1  0
  4  5  2  0
  5  6  1  0
  5 20  1  0
  7  8  1  0
  7  2  1  0
  9  7  1  0
 10  7  1  0
 11  3  1  0
 12 11  2  0
 13 14  1  0
 13 11  1  0
 14 15  2  0
 15 16  1  0
 17 16  2  0
 18 17  1  0
 19 14  1  0
 19 18  2  0
 20 21  1  0
 21 23  1  0
 21 24  1  0
 22 21  1  0
  1 25  1  0
 15 26  1  0
 16 27  1  0
 17 28  1  0
 18 29  1  0
 19 30  1  0
M  ISO  6  25  14  26  14  27  14  28  14  29  14  30  14
M  END
>  <minimizedAffinity>  (1) 
-5.76476288

>  <minimizedRMSD>  (1) 
1.79157722

$$$$
