
     RDKit          3D

 20 20  0  0  0  0  0  0  0  0999 V2000
   44.7060   35.3900   45.0030 C   0  0  0  0  0  0  0  0  0  0  0  0
   45.5640   34.8880   44.0460 C   0  0  0  0  0  0  0  0  0  0  0  0
   46.2680   33.7660   44.3790 C   0  0  0  0  0  0  0  0  0  0  0  0
   46.1080   33.1930   45.6090 N   0  0  0  0  0  0  0  0  0  0  0  0
   45.2750   33.6960   46.5160 C   0  0  0  0  0  0  0  0  0  0  0  0
   44.5880   34.7890   46.1900 N   0  0  0  0  0  0  0  0  0  0  0  0
   45.7200   35.5130   42.7250 C   0  0  0  0  0  0  0  0  0  0  0  0
   44.9760   36.7030   42.7460 F   0  0  0  0  0  0  0  0  0  0  0  0
   45.1160   34.7640   41.7280 F   0  0  0  0  0  0  0  0  0  0  0  0
   47.0160   35.7800   42.3960 F   0  0  0  0  0  0  0  0  0  0  0  0
   47.2070   33.0580   43.5430 C   0  0  0  0  0  0  0  0  0  0  0  0
   46.9470   32.0890   42.7900 O   0  0  0  0  0  0  0  0  0  0  0  0
   48.5290   33.0310   43.1820 O   0  0  0  0  0  0  0  0  0  0  0  0
   45.0650   33.1670   47.7730 O   0  0  0  0  0  0  0  0  0  0  0  0
   45.8600   32.1560   48.3260 C   0  0  0  0  0  0  0  0  0  0  0  0
   47.1870   32.5290   48.3870 F   0  0  0  0  0  0  0  0  0  0  0  0
   45.6740   30.9490   47.7080 F   0  0  0  0  0  0  0  0  0  0  0  0
   45.4780   32.0490   49.6780 F   0  0  0  0  0  0  0  0  0  0  0  0
   44.1147   36.2920   44.7867 H   0  0  0  0  0  0  0  0  0  0  0  0
   48.8511   32.3569   42.5324 H   0  0  0  0  0  0  0  0  0  0  0  0
  1  6  2  0
  2  3  2  0
  2  1  1  0
  3  4  1  0
  4  5  2  0
  5 14  1  0
  6  5  1  0
  7  8  1  0
  7  2  1  0
  9  7  1  0
 10  7  1  0
 11  3  1  0
 12 11  2  0
 13 11  1  0
 14 15  1  0
 15 16  1  0
 15 18  1  0
 17 15  1  0
  1 19  1  0
 13 20  1  0
M  ISO  2  19  14  20   3
M  END
>  <minimizedAffinity>  (1) 
-5.03845787

>  <minimizedRMSD>  (1) 
0.497772306

$$$$
