
     RDKit          3D

 29 29  0  0  0  0  0  0  0  0999 V2000
   44.7040   35.4050   44.9730 C   0  0  0  0  0  0  0  0  0  0  0  0
   45.5620   34.9710   43.9850 C   0  0  0  0  0  0  0  0  0  0  0  0
   46.3260   33.8480   44.2320 C   0  0  0  0  0  0  0  0  0  0  0  0
   46.1840   33.2370   45.4480 N   0  0  0  0  0  0  0  0  0  0  0  0
   45.3550   33.6680   46.3860 C   0  0  0  0  0  0  0  0  0  0  0  0
   44.6320   34.7450   46.1290 N   0  0  0  0  0  0  0  0  0  0  0  0
   45.6700   35.6730   42.6910 C   0  0  0  0  0  0  0  0  0  0  0  0
   44.9630   36.8690   42.8050 F   0  0  0  0  0  0  0  0  0  0  0  0
   44.9870   34.9930   41.6840 F   0  0  0  0  0  0  0  0  0  0  0  0
   46.9440   35.9070   42.2980 F   0  0  0  0  0  0  0  0  0  0  0  0
   47.2720   33.2310   43.3520 C   0  0  0  0  0  0  0  0  0  0  0  0
   46.9410   32.4970   42.3720 O   0  0  0  0  0  0  0  0  0  0  0  0
   48.6110   33.1330   43.1620 O   0  0  0  0  0  0  0  0  0  0  0  0
   49.4680   33.6110   42.2220 C   0  0  0  0  0  0  0  0  0  0  0  0
   49.8490   35.0480   42.5170 C   0  0  0  0  0  0  0  0  0  0  0  0
   50.7200   32.7710   42.0210 C   0  0  0  0  0  0  0  0  0  0  0  0
   45.1880   33.0730   47.6240 O   0  0  0  0  0  0  0  0  0  0  0  0
   46.1290   32.2060   48.2000 C   0  0  0  0  0  0  0  0  0  0  0  0
   47.3840   32.7690   48.2040 F   0  0  0  0  0  0  0  0  0  0  0  0
   46.1070   30.9640   47.6520 F   0  0  0  0  0  0  0  0  0  0  0  0
   45.7930   32.1190   49.5650 F   0  0  0  0  0  0  0  0  0  0  0  0
   44.0793   36.2952   44.8076 H   0  0  0  0  0  0  0  0  0  0  0  0
   48.9108   33.5556   41.2752 H   0  0  0  0  0  0  0  0  0  0  0  0
   49.8894   35.2005   43.6056 H   0  0  0  0  0  0  0  0  0  0  0  0
   50.8352   35.2630   42.0797 H   0  0  0  0  0  0  0  0  0  0  0  0
   49.0989   35.7234   42.0797 H   0  0  0  0  0  0  0  0  0  0  0  0
   51.1356   32.4921   43.0005 H   0  0  0  0  0  0  0  0  0  0  0  0
   50.4645   31.8608   41.4585 H   0  0  0  0  0  0  0  0  0  0  0  0
   51.4653   33.3525   41.4585 H   0  0  0  0  0  0  0  0  0  0  0  0
  1  6  2  0
  2  3  2  0
  2  1  1  0
  3  4  1  0
  4  5  2  0
  5 17  1  0
  6  5  1  0
  7  8  1  0
  7  2  1  0
  9  7  1  0
 10  7  1  0
 11  3  1  0
 12 11  2  0
 13 11  1  0
 14 15  1  0
 14 13  1  0
 16 14  1  0
 17 18  1  0
 18 19  1  0
 18 21  1  0
 20 18  1  0
  1 22  1  0
 14 23  1  0
 15 24  1  0
 15 25  1  0
 15 26  1  0
 16 27  1  0
 16 28  1  0
 16 29  1  0
M  ISO  8  22  14  23   8  24   8  25   8  26   8  27   8  28   8  29   8
M  END
>  <minimizedAffinity>  (1) 
-5.57941055

>  <minimizedRMSD>  (1) 
0.935809493

$$$$
