
     RDKit          3D

 30 31  0  0  0  0  0  0  0  0999 V2000
   44.8110   35.2240   44.8570 C   0  0  0  0  0  0  0  0  0  0  0  0
   45.7660   34.7260   43.9920 C   0  0  0  0  0  0  0  0  0  0  0  0
   46.5310   33.6800   44.4230 C   0  0  0  0  0  0  0  0  0  0  0  0
   46.3220   33.1730   45.6860 N   0  0  0  0  0  0  0  0  0  0  0  0
   45.4010   33.6640   46.5050 C   0  0  0  0  0  0  0  0  0  0  0  0
   44.6670   34.6760   46.0740 N   0  0  0  0  0  0  0  0  0  0  0  0
   45.9680   35.2910   42.6420 C   0  0  0  0  0  0  0  0  0  0  0  0
   45.0650   36.3570   42.5080 F   0  0  0  0  0  0  0  0  0  0  0  0
   45.5640   34.3880   41.6600 F   0  0  0  0  0  0  0  0  0  0  0  0
   47.2320   35.7180   42.4110 F   0  0  0  0  0  0  0  0  0  0  0  0
   47.5670   33.0120   43.7020 C   0  0  0  0  0  0  0  0  0  0  0  0
   47.6400   31.7700   43.5100 O   0  0  0  0  0  0  0  0  0  0  0  0
   48.7260   33.2630   43.0120 O   0  0  0  0  0  0  0  0  0  0  0  0
   49.0670   32.8300   41.7780 C   0  0  0  0  0  0  0  0  0  0  0  0
   48.2800   32.9570   40.6490 C   0  0  0  0  0  0  0  0  0  0  0  0
   48.7890   32.4550   39.4670 C   0  0  0  0  0  0  0  0  0  0  0  0
   50.0260   31.8460   39.3680 C   0  0  0  0  0  0  0  0  0  0  0  0
   50.8130   31.7220   40.5070 C   0  0  0  0  0  0  0  0  0  0  0  0
   50.2990   32.2290   41.7060 C   0  0  0  0  0  0  0  0  0  0  0  0
   45.1510   33.1930   47.7790 O   0  0  0  0  0  0  0  0  0  0  0  0
   45.8650   32.1510   48.3700 C   0  0  0  0  0  0  0  0  0  0  0  0
   47.2110   32.4560   48.4840 F   0  0  0  0  0  0  0  0  0  0  0  0
   45.6430   30.9520   47.7540 F   0  0  0  0  0  0  0  0  0  0  0  0
   45.4310   32.0730   49.7070 F   0  0  0  0  0  0  0  0  0  0  0  0
   44.1719   36.0651   44.5502 H   0  0  0  0  0  0  0  0  0  0  0  0
   47.2911   33.4370   40.6899 H   0  0  0  0  0  0  0  0  0  0  0  0
   48.1779   32.5446   38.5568 H   0  0  0  0  0  0  0  0  0  0  0  0
   50.3830   31.4643   38.4001 H   0  0  0  0  0  0  0  0  0  0  0  0
   51.8026   31.2434   40.4675 H   0  0  0  0  0  0  0  0  0  0  0  0
   50.9027   32.1430   42.6215 H   0  0  0  0  0  0  0  0  0  0  0  0
  1  6  2  0
  2  3  2  0
  2  1  1  0
  3  4  1  0
  4  5  2  0
  5 20  1  0
  6  5  1  0
  7  2  1  0
  8  7  1  0
  9  7  1  0
 10  7  1  0
 11  3  1  0
 12 11  2  0
 13 11  1  0
 14 13  1  0
 15 14  2  0
 16 15  1  0
 17 16  2  0
 17 18  1  0
 18 19  2  0
 19 14  1  0
 20 21  1  0
 21 22  1  0
 21 24  1  0
 23 21  1  0
  1 25  1  0
 15 26  1  0
 16 27  1  0
 17 28  1  0
 18 29  1  0
 19 30  1  0
M  ISO  6  25  14  26  14  27  14  28  14  29  14  30  14
M  END
>  <minimizedAffinity>  (1) 
-5.54370689

>  <minimizedRMSD>  (1) 
0.83604157

$$$$
