
     RDKit          3D

 39 42  0  0  0  0  0  0  0  0999 V2000
   48.4470   33.3330   42.8610 O   0  0  0  0  0  0  0  0  0  0  0  0
   48.6630   32.9130   41.5850 C   0  0  0  0  0  0  0  0  0  0  0  0
   47.6500   32.9090   40.4840 C   0  0  0  0  0  0  0  0  0  0  0  0
   48.6140   32.2340   39.1100 S   0  0  0  0  0  0  0  0  0  0  0  0
   50.1760   32.0630   40.1670 C   0  0  0  0  0  0  0  0  0  0  0  0
   49.8580   32.4630   41.2570 N   0  0  0  0  0  0  0  0  0  0  0  0
   51.4230   31.5420   39.6380 N   0  0  0  0  0  0  0  0  0  0  0  0
   52.5020   31.3930   40.4180 C   0  0  0  0  0  0  0  0  0  0  0  0
   53.5470   30.9000   39.7400 N   0  0  0  0  0  0  0  0  0  0  0  0
   53.1030   30.7300   38.4720 C   0  0  0  0  0  0  0  0  0  0  0  0
   53.6310   30.2740   37.2770 C   0  0  0  0  0  0  0  0  0  0  0  0
   52.9030   30.2310   36.1640 N   0  0  0  0  0  0  0  0  0  0  0  0
   51.6070   30.6370   36.1580 C   0  0  0  0  0  0  0  0  0  0  0  0
   51.0210   31.0990   37.3010 N   0  0  0  0  0  0  0  0  0  0  0  0
   51.7810   31.1310   38.4140 C   0  0  0  0  0  0  0  0  0  0  0  0
   55.0070   29.8480   37.3070 N   0  0  0  0  0  0  0  0  0  0  0  0
   47.3210   33.0730   43.6230 C   0  0  0  0  0  0  0  0  0  0  0  0
   47.3850   31.8420   43.3960 O   0  0  0  0  0  0  0  0  0  0  0  0
   44.7090   35.3510   44.9680 C   0  0  0  0  0  0  0  0  0  0  0  0
   45.6080   34.8470   44.0370 C   0  0  0  0  0  0  0  0  0  0  0  0
   46.3520   33.7470   44.4100 C   0  0  0  0  0  0  0  0  0  0  0  0
   46.1750   33.2120   45.6560 N   0  0  0  0  0  0  0  0  0  0  0  0
   45.3180   33.6990   46.5340 C   0  0  0  0  0  0  0  0  0  0  0  0
   44.6070   34.7520   46.1750 N   0  0  0  0  0  0  0  0  0  0  0  0
   45.7730   35.4460   42.7060 C   0  0  0  0  0  0  0  0  0  0  0  0
   44.9420   36.5740   42.6600 F   0  0  0  0  0  0  0  0  0  0  0  0
   45.2540   34.6240   41.7240 F   0  0  0  0  0  0  0  0  0  0  0  0
   47.0570   35.7950   42.4140 F   0  0  0  0  0  0  0  0  0  0  0  0
   45.0940   33.2100   47.7960 O   0  0  0  0  0  0  0  0  0  0  0  0
   45.8420   32.1460   48.3490 C   0  0  0  0  0  0  0  0  0  0  0  0
   47.1890   32.4970   48.4270 F   0  0  0  0  0  0  0  0  0  0  0  0
   45.6370   30.9580   47.7240 F   0  0  0  0  0  0  0  0  0  0  0  0
   45.4450   32.0450   49.6970 F   0  0  0  0  0  0  0  0  0  0  0  0
   46.5984   33.2310   40.5045 H   0  0  0  0  0  0  0  0  0  0  0  0
   52.5269   31.6455   41.4883 H   0  0  0  0  0  0  0  0  0  0  0  0
   51.0254   30.5932   35.2254 H   0  0  0  0  0  0  0  0  0  0  0  0
   55.4567   29.4983   36.4489 H   0  0  0  0  0  0  0  0  0  0  0  0
   55.5410   29.8931   38.1866 H   0  0  0  0  0  0  0  0  0  0  0  0
   44.0882   36.2262   44.7260 H   0  0  0  0  0  0  0  0  0  0  0  0
  1 17  1  0
  2  1  1  0
  3  2  2  0
  4  5  1  0
  4  3  1  0
  5  6  2  0
  6  2  1  0
  7  5  1  0
  7  8  1  0
  9  8  2  0
 10  9  1  0
 11 16  1  0
 11 10  2  0
 12 11  1  0
 13 12  2  0
 13 14  1  0
 14 15  2  0
 15 10  1  0
 15  7  1  0
 17 21  1  0
 18 17  2  0
 19 24  2  0
 20 21  2  0
 20 19  1  0
 21 22  1  0
 22 23  2  0
 23 29  1  0
 24 23  1  0
 25 20  1  0
 26 25  1  0
 27 25  1  0
 28 25  1  0
 29 30  1  0
 30 31  1  0
 30 33  1  0
 32 30  1  0
  3 34  1  0
  8 35  1  0
 13 36  1  0
 16 37  1  0
 16 38  1  0
 19 39  1  0
M  ISO  4  34  14  35  14  36  14  39  14
M  END
>  <minimizedAffinity>  (1) 
-6.60588932

>  <minimizedRMSD>  (1) 
0.516308129

$$$$
