
     RDKit          3D

 38 40  0  0  0  0  0  0  0  0999 V2000
   44.6980   35.4330   45.0510 C   0  0  0  0  0  0  0  0  0  0  0  0
   45.5280   34.9120   44.0690 C   0  0  0  0  0  0  0  0  0  0  0  0
   46.2100   33.7590   44.3600 C   0  0  0  0  0  0  0  0  0  0  0  0
   46.0350   33.1890   45.5890 N   0  0  0  0  0  0  0  0  0  0  0  0
   45.2380   33.6920   46.5250 C   0  0  0  0  0  0  0  0  0  0  0  0
   44.5900   34.8010   46.2340 N   0  0  0  0  0  0  0  0  0  0  0  0
   45.6840   35.5620   42.7540 C   0  0  0  0  0  0  0  0  0  0  0  0
   44.8940   36.7160   42.7710 F   0  0  0  0  0  0  0  0  0  0  0  0
   45.1010   34.7860   41.7460 F   0  0  0  0  0  0  0  0  0  0  0  0
   46.9660   35.8670   42.4360 F   0  0  0  0  0  0  0  0  0  0  0  0
   47.1060   33.0590   43.5070 C   0  0  0  0  0  0  0  0  0  0  0  0
   46.9570   31.8890   43.0800 O   0  0  0  0  0  0  0  0  0  0  0  0
   48.3070   33.2230   42.8550 O   0  0  0  0  0  0  0  0  0  0  0  0
   48.5340   32.9910   41.5330 C   0  0  0  0  0  0  0  0  0  0  0  0
   47.6420   33.4360   40.4070 C   0  0  0  0  0  0  0  0  0  0  0  0
   48.5520   32.7900   38.9660 S   0  0  0  0  0  0  0  0  0  0  0  0
   49.9260   32.0580   40.0420 C   0  0  0  0  0  0  0  0  0  0  0  0
   49.6140   32.3250   41.1660 N   0  0  0  0  0  0  0  0  0  0  0  0
   51.0130   31.3610   39.4390 N   0  0  0  0  0  0  0  0  0  0  0  0
   52.1670   30.6670   40.0180 C   0  0  0  0  0  0  0  0  0  0  0  0
   53.3620   31.2410   39.2540 C   0  0  0  0  0  0  0  0  0  0  0  0
   52.7900   31.6180   37.8980 C   0  0  0  0  0  0  0  0  0  0  0  0
   51.3670   31.0830   38.0430 C   0  0  0  0  0  0  0  0  0  0  0  0
   45.0310   33.1600   47.7680 O   0  0  0  0  0  0  0  0  0  0  0  0
   45.8440   32.1570   48.3240 C   0  0  0  0  0  0  0  0  0  0  0  0
   47.1780   32.5710   48.3660 F   0  0  0  0  0  0  0  0  0  0  0  0
   45.7000   30.9360   47.7300 F   0  0  0  0  0  0  0  0  0  0  0  0
   45.4740   32.0440   49.6750 F   0  0  0  0  0  0  0  0  0  0  0  0
   44.1316   36.3572   44.8637 H   0  0  0  0  0  0  0  0  0  0  0  0
   46.6973   33.9984   40.4432 H   0  0  0  0  0  0  0  0  0  0  0  0
   52.2519   30.8790   41.0940 H   0  0  0  0  0  0  0  0  0  0  0  0
   52.0926   29.5731   39.9299 H   0  0  0  0  0  0  0  0  0  0  0  0
   53.7647   32.1265   39.7676 H   0  0  0  0  0  0  0  0  0  0  0  0
   54.1953   30.5271   39.1765 H   0  0  0  0  0  0  0  0  0  0  0  0
   53.3292   31.1227   37.0770 H   0  0  0  0  0  0  0  0  0  0  0  0
   52.8565   32.6881   37.6519 H   0  0  0  0  0  0  0  0  0  0  0  0
   50.6834   31.6044   37.3569 H   0  0  0  0  0  0  0  0  0  0  0  0
   51.2942   30.0133   37.7971 H   0  0  0  0  0  0  0  0  0  0  0  0
  1  6  2  0
  2  3  2  0
  2  1  1  0
  3  4  1  0
  4  5  2  0
  5 24  1  0
  6  5  1  0
  7  8  1  0
  7  2  1  0
  9  7  1  0
 10  7  1  0
 11  3  1  0
 12 11  2  0
 13 11  1  0
 14 13  1  0
 15 14  2  0
 16 17  1  0
 16 15  1  0
 17 18  2  0
 18 14  1  0
 19 20  1  0
 19 17  1  0
 21 20  1  0
 22 23  1  0
 22 21  1  0
 23 19  1  0
 24 25  1  0
 25 26  1  0
 25 28  1  0
 27 25  1  0
  1 29  1  0
 15 30  1  0
 20 31  1  0
 20 32  1  0
 21 33  1  0
 21 34  1  0
 22 35  1  0
 22 36  1  0
 23 37  1  0
 23 38  1  0
M  ISO  8  29  14  30  14  31  13  32  13  33  13  34  13  35  13  36  13
M  ISO  2  37  13  38  13
M  END
>  <minimizedAffinity>  (1) 
-6.10077763

>  <minimizedRMSD>  (1) 
0.449694604

$$$$
