
     RDKit          3D

 34 36  0  0  0  0  0  0  0  0999 V2000
   44.7870   35.2590   44.8860 C   0  0  0  0  0  0  0  0  0  0  0  0
   45.7310   34.7680   43.9940 C   0  0  0  0  0  0  0  0  0  0  0  0
   46.4920   33.6970   44.4230 C   0  0  0  0  0  0  0  0  0  0  0  0
   46.2900   33.1820   45.6690 N   0  0  0  0  0  0  0  0  0  0  0  0
   45.3890   33.6580   46.5100 C   0  0  0  0  0  0  0  0  0  0  0  0
   44.6590   34.6820   46.1020 N   0  0  0  0  0  0  0  0  0  0  0  0
   45.9210   35.3450   42.6650 C   0  0  0  0  0  0  0  0  0  0  0  0
   45.0450   36.4330   42.5610 F   0  0  0  0  0  0  0  0  0  0  0  0
   45.4690   34.4860   41.6800 F   0  0  0  0  0  0  0  0  0  0  0  0
   47.1990   35.7380   42.4120 F   0  0  0  0  0  0  0  0  0  0  0  0
   47.5060   33.0410   43.6750 C   0  0  0  0  0  0  0  0  0  0  0  0
   47.5690   31.8040   43.4320 O   0  0  0  0  0  0  0  0  0  0  0  0
   48.6730   33.3130   42.9820 O   0  0  0  0  0  0  0  0  0  0  0  0
   48.9630   32.8940   41.7190 C   0  0  0  0  0  0  0  0  0  0  0  0
   48.0230   32.9270   40.5500 C   0  0  0  0  0  0  0  0  0  0  0  0
   49.0610   32.2250   39.2550 S   0  0  0  0  0  0  0  0  0  0  0  0
   50.5340   32.0030   40.3990 C   0  0  0  0  0  0  0  0  0  0  0  0
   50.1520   32.4090   41.4560 N   0  0  0  0  0  0  0  0  0  0  0  0
   51.8490   31.4180   39.9150 C   0  0  0  0  0  0  0  0  0  0  0  0
   52.6670   30.7150   40.7500 C   0  0  0  0  0  0  0  0  0  0  0  0
   53.8290   30.2340   40.2030 C   0  0  0  0  0  0  0  0  0  0  0  0
   54.1770   30.4220   38.9230 N   0  0  0  0  0  0  0  0  0  0  0  0
   53.3520   31.1190   38.1210 C   0  0  0  0  0  0  0  0  0  0  0  0
   52.1860   31.6150   38.6250 N   0  0  0  0  0  0  0  0  0  0  0  0
   45.1350   33.1900   47.7690 O   0  0  0  0  0  0  0  0  0  0  0  0
   45.8710   32.1430   48.3590 C   0  0  0  0  0  0  0  0  0  0  0  0
   47.2230   32.4780   48.4570 F   0  0  0  0  0  0  0  0  0  0  0  0
   45.6820   30.9350   47.7490 F   0  0  0  0  0  0  0  0  0  0  0  0
   45.4400   32.0540   49.6950 F   0  0  0  0  0  0  0  0  0  0  0  0
   44.1488   36.1100   44.6058 H   0  0  0  0  0  0  0  0  0  0  0  0
   46.9834   33.2828   40.4977 H   0  0  0  0  0  0  0  0  0  0  0  0
   52.4086   30.5431   41.8053 H   0  0  0  0  0  0  0  0  0  0  0  0
   54.5117   29.6634   40.8497 H   0  0  0  0  0  0  0  0  0  0  0  0
   53.6160   31.2876   37.0665 H   0  0  0  0  0  0  0  0  0  0  0  0
  1  6  2  0
  2  3  2  0
  2  1  1  0
  3  4  1  0
  4  5  2  0
  5 25  1  0
  6  5  1  0
  7  2  1  0
  8  7  1  0
  9  7  1  0
 10  7  1  0
 11  3  1  0
 12 11  2  0
 13 11  1  0
 14 13  1  0
 15 14  2  0
 16 17  1  0
 16 15  1  0
 17 18  2  0
 18 14  1  0
 19 17  1  0
 19 20  2  0
 21 20  1  0
 22 21  2  0
 23 24  2  0
 23 22  1  0
 24 19  1  0
 25 26  1  0
 26 27  1  0
 26 29  1  0
 28 26  1  0
  1 30  1  0
 15 31  1  0
 20 32  1  0
 21 33  1  0
 23 34  1  0
M  ISO  5  30  14  31  14  32  14  33  14  34  14
M  END
>  <minimizedAffinity>  (1) 
-5.94893885

>  <minimizedRMSD>  (1) 
0.440126121

$$$$
