
     RDKit          3D

 29 30  0  0  0  0  0  0  0  0999 V2000
   44.7410   35.3320   44.9630 C   0  0  0  0  0  0  0  0  0  0  0  0
   45.6280   34.8260   44.0180 C   0  0  0  0  0  0  0  0  0  0  0  0
   46.3560   33.7140   44.4010 C   0  0  0  0  0  0  0  0  0  0  0  0
   46.1740   33.1870   45.6430 N   0  0  0  0  0  0  0  0  0  0  0  0
   45.3300   33.6790   46.5240 C   0  0  0  0  0  0  0  0  0  0  0  0
   44.6280   34.7470   46.1610 N   0  0  0  0  0  0  0  0  0  0  0  0
   45.7980   35.4160   42.6900 C   0  0  0  0  0  0  0  0  0  0  0  0
   44.9580   36.5360   42.6320 F   0  0  0  0  0  0  0  0  0  0  0  0
   45.2910   34.5840   41.7090 F   0  0  0  0  0  0  0  0  0  0  0  0
   47.0790   35.7700   42.4070 F   0  0  0  0  0  0  0  0  0  0  0  0
   47.3150   33.0270   43.6070 C   0  0  0  0  0  0  0  0  0  0  0  0
   47.2600   31.8230   43.2400 O   0  0  0  0  0  0  0  0  0  0  0  0
   48.5230   33.2350   42.9630 O   0  0  0  0  0  0  0  0  0  0  0  0
   48.8050   32.9110   41.6720 C   0  0  0  0  0  0  0  0  0  0  0  0
   47.8990   33.1260   40.4950 C   0  0  0  0  0  0  0  0  0  0  0  0
   48.9130   32.4650   39.1550 S   0  0  0  0  0  0  0  0  0  0  0  0
   50.3330   32.0210   40.3050 C   0  0  0  0  0  0  0  0  0  0  0  0
   49.9650   32.3560   41.3990 N   0  0  0  0  0  0  0  0  0  0  0  0
   51.6120   31.3770   39.7850 C   0  0  0  0  0  0  0  0  0  0  0  0
   51.4670   30.0090   39.8840 F   0  0  0  0  0  0  0  0  0  0  0  0
   51.9020   31.7870   38.5020 F   0  0  0  0  0  0  0  0  0  0  0  0
   52.5630   31.8920   40.6210 F   0  0  0  0  0  0  0  0  0  0  0  0
   45.0990   33.1980   47.7860 O   0  0  0  0  0  0  0  0  0  0  0  0
   45.8440   32.1410   48.3460 C   0  0  0  0  0  0  0  0  0  0  0  0
   47.1920   32.4990   48.4310 F   0  0  0  0  0  0  0  0  0  0  0  0
   45.6520   30.9450   47.7280 F   0  0  0  0  0  0  0  0  0  0  0  0
   45.4340   32.0360   49.6890 F   0  0  0  0  0  0  0  0  0  0  0  0
   44.1308   36.2156   44.7245 H   0  0  0  0  0  0  0  0  0  0  0  0
   46.8916   33.5663   40.4585 H   0  0  0  0  0  0  0  0  0  0  0  0
  1  6  2  0
  2  3  2  0
  2  1  1  0
  3  4  1  0
  4  5  2  0
  5 23  1  0
  6  5  1  0
  7  2  1  0
  8  7  1  0
  9  7  1  0
 10  7  1  0
 11  3  1  0
 12 11  2  0
 13 11  1  0
 14 13  1  0
 15 14  2  0
 16 17  1  0
 16 15  1  0
 17 18  2  0
 18 14  1  0
 19 20  1  0
 19 17  1  0
 19 22  1  0
 21 19  1  0
 23 24  1  0
 24 25  1  0
 24 27  1  0
 26 24  1  0
  1 28  1  0
 15 29  1  0
M  ISO  2  28  14  29  14
M  END
>  <minimizedAffinity>  (1) 
-5.67850733

>  <minimizedRMSD>  (1) 
0.435639143

$$$$
