
     RDKit          3D

 31 33  0  0  0  0  0  0  0  0999 V2000
   44.7970   35.2440   44.8780 C   0  0  0  0  0  0  0  0  0  0  0  0
   45.7450   34.7500   43.9910 C   0  0  0  0  0  0  0  0  0  0  0  0
   46.5070   33.6850   44.4220 C   0  0  0  0  0  0  0  0  0  0  0  0
   46.3010   33.1760   45.6720 N   0  0  0  0  0  0  0  0  0  0  0  0
   45.3960   33.6550   46.5040 C   0  0  0  0  0  0  0  0  0  0  0  0
   44.6640   34.6760   46.0930 N   0  0  0  0  0  0  0  0  0  0  0  0
   45.9380   35.3240   42.6540 C   0  0  0  0  0  0  0  0  0  0  0  0
   45.0580   36.4080   42.5420 F   0  0  0  0  0  0  0  0  0  0  0  0
   45.4980   34.4540   41.6730 F   0  0  0  0  0  0  0  0  0  0  0  0
   47.2180   35.7250   42.4090 F   0  0  0  0  0  0  0  0  0  0  0  0
   47.5250   33.0260   43.6850 C   0  0  0  0  0  0  0  0  0  0  0  0
   47.5960   31.7950   43.4400 O   0  0  0  0  0  0  0  0  0  0  0  0
   48.6960   33.2870   42.9990 O   0  0  0  0  0  0  0  0  0  0  0  0
   49.0070   32.8630   41.7470 C   0  0  0  0  0  0  0  0  0  0  0  0
   48.0850   32.8830   40.5660 C   0  0  0  0  0  0  0  0  0  0  0  0
   49.1380   32.1880   39.2720 S   0  0  0  0  0  0  0  0  0  0  0  0
   50.6030   31.9820   40.4480 C   0  0  0  0  0  0  0  0  0  0  0  0
   50.2140   32.3880   41.5160 N   0  0  0  0  0  0  0  0  0  0  0  0
   51.9540   31.4170   40.0540 C   0  0  0  0  0  0  0  0  0  0  0  0
   52.8140   30.7410   40.8110 N   0  0  0  0  0  0  0  0  0  0  0  0
   53.8430   30.4490   40.0660 O   0  0  0  0  0  0  0  0  0  0  0  0
   53.6800   30.9160   38.8390 C   0  0  0  0  0  0  0  0  0  0  0  0
   52.4720   31.5370   38.8200 N   0  0  0  0  0  0  0  0  0  0  0  0
   45.1400   33.1900   47.7690 O   0  0  0  0  0  0  0  0  0  0  0  0
   45.8660   32.1310   48.3570 C   0  0  0  0  0  0  0  0  0  0  0  0
   47.2150   32.4770   48.4590 F   0  0  0  0  0  0  0  0  0  0  0  0
   45.6720   30.9320   47.7530 F   0  0  0  0  0  0  0  0  0  0  0  0
   45.4370   32.0520   49.6950 F   0  0  0  0  0  0  0  0  0  0  0  0
   44.1592   36.0929   44.5908 H   0  0  0  0  0  0  0  0  0  0  0  0
   47.0428   33.2292   40.5032 H   0  0  0  0  0  0  0  0  0  0  0  0
   54.3841   30.8203   37.9993 H   0  0  0  0  0  0  0  0  0  0  0  0
  1  6  2  0
  2  3  2  0
  2  1  1  0
  3  4  1  0
  4  5  2  0
  5 24  1  0
  6  5  1  0
  7  2  1  0
  8  7  1  0
  9  7  1  0
 10  7  1  0
 11  3  1  0
 12 11  2  0
 13 11  1  0
 14 13  1  0
 15 14  2  0
 16 17  1  0
 16 15  1  0
 17 18  2  0
 18 14  1  0
 19 17  1  0
 19 20  2  0
 21 20  1  0
 22 21  1  0
 23 22  2  0
 23 19  1  0
 24 25  1  0
 25 26  1  0
 25 28  1  0
 27 25  1  0
  1 29  1  0
 15 30  1  0
 22 31  1  0
M  ISO  3  29  14  30  14  31  14
M  END
>  <minimizedAffinity>  (1) 
-5.84624386

>  <minimizedRMSD>  (1) 
0.476602525

$$$$
