
     RDKit          3D

 32 33  0  0  0  0  0  0  0  0999 V2000
   44.7000   35.4160   45.0170 C   0  0  0  0  0  0  0  0  0  0  0  0
   45.5450   34.8970   44.0450 C   0  0  0  0  0  0  0  0  0  0  0  0
   46.2390   33.7500   44.3740 C   0  0  0  0  0  0  0  0  0  0  0  0
   46.0680   33.1920   45.6040 N   0  0  0  0  0  0  0  0  0  0  0  0
   45.2650   33.6880   46.5210 C   0  0  0  0  0  0  0  0  0  0  0  0
   44.5980   34.7900   46.2080 N   0  0  0  0  0  0  0  0  0  0  0  0
   45.7030   35.5260   42.7300 C   0  0  0  0  0  0  0  0  0  0  0  0
   44.8910   36.6660   42.7210 F   0  0  0  0  0  0  0  0  0  0  0  0
   45.1590   34.7370   41.7340 F   0  0  0  0  0  0  0  0  0  0  0  0
   46.9890   35.8580   42.4340 F   0  0  0  0  0  0  0  0  0  0  0  0
   47.1510   33.0540   43.5340 C   0  0  0  0  0  0  0  0  0  0  0  0
   47.0300   31.8700   43.1160 O   0  0  0  0  0  0  0  0  0  0  0  0
   48.3570   33.2320   42.8780 O   0  0  0  0  0  0  0  0  0  0  0  0
   48.6020   32.9570   41.5700 C   0  0  0  0  0  0  0  0  0  0  0  0
   47.7640   33.4010   40.4100 C   0  0  0  0  0  0  0  0  0  0  0  0
   48.6690   32.6800   39.0240 S   0  0  0  0  0  0  0  0  0  0  0  0
   49.9820   31.9250   40.1420 C   0  0  0  0  0  0  0  0  0  0  0  0
   49.6560   32.2380   41.2510 N   0  0  0  0  0  0  0  0  0  0  0  0
   51.1090   31.1340   39.5420 C   0  0  0  0  0  0  0  0  0  0  0  0
   52.3100   31.4870   40.3530 C   0  0  0  0  0  0  0  0  0  0  0  0
   45.0510   33.1750   47.7740 O   0  0  0  0  0  0  0  0  0  0  0  0
   45.8370   32.1420   48.3220 C   0  0  0  0  0  0  0  0  0  0  0  0
   47.1740   32.5430   48.3800 F   0  0  0  0  0  0  0  0  0  0  0  0
   45.6680   30.9390   47.7110 F   0  0  0  0  0  0  0  0  0  0  0  0
   45.4590   32.0390   49.6740 F   0  0  0  0  0  0  0  0  0  0  0  0
   44.1193   36.3288   44.8180 H   0  0  0  0  0  0  0  0  0  0  0  0
   46.8442   34.0043   40.4043 H   0  0  0  0  0  0  0  0  0  0  0  0
   50.9018   30.0558   39.6088 H   0  0  0  0  0  0  0  0  0  0  0  0
   51.2508   31.3644   38.4758 H   0  0  0  0  0  0  0  0  0  0  0  0
   52.0642   31.4148   41.4228 H   0  0  0  0  0  0  0  0  0  0  0  0
   53.1290   30.7916   40.1172 H   0  0  0  0  0  0  0  0  0  0  0  0
   52.6225   32.5150   40.1172 H   0  0  0  0  0  0  0  0  0  0  0  0
  1  6  2  0
  2  3  2  0
  2  1  1  0
  3  4  1  0
  4  5  2  0
  5 21  1  0
  6  5  1  0
  7  2  1  0
  8  7  1  0
  9  7  1  0
 10  7  1  0
 11  3  1  0
 12 11  2  0
 13 11  1  0
 14 13  1  0
 15 14  2  0
 16 17  1  0
 16 15  1  0
 17 18  2  0
 18 14  1  0
 19 17  1  0
 19 20  1  0
 21 22  1  0
 22 23  1  0
 22 25  1  0
 24 22  1  0
  1 26  1  0
 15 27  1  0
 19 28  1  0
 19 29  1  0
 20 30  1  0
 20 31  1  0
 20 32  1  0
M  ISO  7  26  14  27  14  28   8  29   8  30   8  31   8  32   8
M  END
>  <minimizedAffinity>  (1) 
-5.43092823

>  <minimizedRMSD>  (1) 
0.336781055

$$$$
