
     RDKit          3D

 49 52  0  0  0  0  0  0  0  0999 V2000
   47.3330   34.1970   40.1510 C   0  0  0  0  0  0  0  0  0  0  0  0
   46.6640   34.4550   41.3580 C   0  0  0  0  0  0  0  0  0  0  0  0
   47.0710   33.9870   42.6020 C   0  0  0  0  0  0  0  0  0  0  0  0
   48.1780   33.2710   42.4570 N   0  0  0  0  0  0  0  0  0  0  0  0
   48.8620   32.9790   41.3930 C   0  0  0  0  0  0  0  0  0  0  0  0
   48.4220   33.4600   40.2050 N   0  0  0  0  0  0  0  0  0  0  0  0
   46.2020   34.4050   43.6850 C   0  0  0  0  0  0  0  0  0  0  0  0
   45.4040   35.4860   43.6160 N   0  0  0  0  0  0  0  0  0  0  0  0
   44.6040   35.8850   44.6090 C   0  0  0  0  0  0  0  0  0  0  0  0
   44.5550   35.2030   45.7690 N   0  0  0  0  0  0  0  0  0  0  0  0
   45.3080   34.1170   45.9370 C   0  0  0  0  0  0  0  0  0  0  0  0
   45.2550   33.4250   47.1210 C   0  0  0  0  0  0  0  0  0  0  0  0
   46.0340   32.2900   47.3110 C   0  0  0  0  0  0  0  0  0  0  0  0
   46.8600   31.8810   46.2770 C   0  0  0  0  0  0  0  0  0  0  0  0
   46.8650   32.6260   45.1110 C   0  0  0  0  0  0  0  0  0  0  0  0
   46.1210   33.7430   44.8810 C   0  0  0  0  0  0  0  0  0  0  0  0
   50.0810   32.1170   41.6120 C   0  0  0  0  0  0  0  0  0  0  0  0
   50.6270   31.7500   40.2370 C   0  0  0  0  0  0  0  0  0  0  0  0
   51.1370   33.0310   42.2220 C   0  0  0  0  0  0  0  0  0  0  0  0
   49.7780   30.9140   42.4190 C   0  0  0  0  0  0  0  0  0  0  0  0
   50.6680   29.8250   42.4690 N   0  0  0  0  0  0  0  0  0  0  0  0
   51.2650   29.4620   41.2370 C   0  0  0  0  0  0  0  0  0  0  0  0
   52.4320   28.4750   41.4120 C   0  0  0  0  0  0  0  0  0  0  0  0
   52.7020   28.2300   42.7580 O   0  0  0  0  0  0  0  0  0  0  0  0
   52.9830   29.5090   43.2770 C   0  0  0  0  0  0  0  0  0  0  0  0
   51.6580   30.1600   43.5010 C   0  0  0  0  0  0  0  0  0  0  0  0
   46.9609   34.5960   39.1958 H   0  0  0  0  0  0  0  0  0  0  0  0
   45.7536   35.0709   41.3163 H   0  0  0  0  0  0  0  0  0  0  0  0
   43.9786   36.7803   44.4775 H   0  0  0  0  0  0  0  0  0  0  0  0
   44.5905   33.7716   47.9262 H   0  0  0  0  0  0  0  0  0  0  0  0
   45.9957   31.7311   48.2576 H   0  0  0  0  0  0  0  0  0  0  0  0
   47.4946   30.9884   46.3800 H   0  0  0  0  0  0  0  0  0  0  0  0
   47.5267   32.2868   44.3004 H   0  0  0  0  0  0  0  0  0  0  0  0
   51.5348   31.1398   40.3539 H   0  0  0  0  0  0  0  0  0  0  0  0
   49.8691   31.1773   39.6824 H   0  0  0  0  0  0  0  0  0  0  0  0
   50.8712   32.6681   39.6824 H   0  0  0  0  0  0  0  0  0  0  0  0
   51.0772   32.9792   43.3192 H   0  0  0  0  0  0  0  0  0  0  0  0
   52.1358   32.7076   41.8936 H   0  0  0  0  0  0  0  0  0  0  0  0
   50.9602   34.0658   41.8936 H   0  0  0  0  0  0  0  0  0  0  0  0
   49.6490   31.2587   43.4556 H   0  0  0  0  0  0  0  0  0  0  0  0
   48.9086   30.4884   41.8965 H   0  0  0  0  0  0  0  0  0  0  0  0
   51.6435   30.3715   40.7476 H   0  0  0  0  0  0  0  0  0  0  0  0
   50.4959   28.9634   40.6287 H   0  0  0  0  0  0  0  0  0  0  0  0
   52.1723   27.5252   40.9217 H   0  0  0  0  0  0  0  0  0  0  0  0
   53.3293   28.9204   40.9575 H   0  0  0  0  0  0  0  0  0  0  0  0
   53.5331   29.4245   44.2258 H   0  0  0  0  0  0  0  0  0  0  0  0
   53.6098   30.0952   42.5889 H   0  0  0  0  0  0  0  0  0  0  0  0
   51.8008   31.2507   43.5078 H   0  0  0  0  0  0  0  0  0  0  0  0
   51.2690   29.7888   44.4606 H   0  0  0  0  0  0  0  0  0  0  0  0
  1  6  2  0
  1  2  1  0
  2  3  2  0
  3  7  1  0
  4  3  1  0
  5 17  1  0
  5  4  2  0
  6  5  1  0
  7 16  1  0
  8  7  2  0
  8  9  1  0
  9 10  2  0
 10 11  1  0
 11 12  2  0
 12 13  1  0
 14 13  2  0
 15 14  1  0
 16 15  2  0
 16 11  1  0
 17 19  1  0
 17 20  1  0
 18 17  1  0
 20 21  1  0
 21 26  1  0
 22 23  1  0
 22 21  1  0
 23 24  1  0
 24 25  1  0
 25 26  1  0
  1 27  1  0
  2 28  1  0
  9 29  1  0
 12 30  1  0
 13 31  1  0
 14 32  1  0
 15 33  1  0
 18 34  1  0
 18 35  1  0
 18 36  1  0
 19 37  1  0
 19 38  1  0
 19 39  1  0
 20 40  1  0
 20 41  1  0
 22 42  1  0
 22 43  1  0
 23 44  1  0
 23 45  1  0
 25 46  1  0
 25 47  1  0
 26 48  1  0
 26 49  1  0
M  ISO  8  27  14  28  14  29  14  30  14  31  14  32  14  33  14  34   8
M  ISO  8  35   8  36   8  37   8  38   8  39   8  40   8  41   8  42  13
M  ISO  7  43  13  44  13  45  13  46  13  47  13  48  13  49  13
M  END
>  <minimizedAffinity>  (1) 
-5.50688791

>  <minimizedRMSD>  (1) 
0.314724833

$$$$
