
     RDKit          3D

 33 35  0  0  0  0  0  0  0  0999 V2000
   44.8340   35.1970   44.8450 C   0  0  0  0  0  0  0  0  0  0  0  0
   45.7920   34.7010   43.9720 C   0  0  0  0  0  0  0  0  0  0  0  0
   46.5540   33.6400   44.4220 C   0  0  0  0  0  0  0  0  0  0  0  0
   46.3400   33.1380   45.6730 N   0  0  0  0  0  0  0  0  0  0  0  0
   45.4220   33.6240   46.4940 C   0  0  0  0  0  0  0  0  0  0  0  0
   44.6910   34.6370   46.0690 N   0  0  0  0  0  0  0  0  0  0  0  0
   45.9940   35.2630   42.6370 C   0  0  0  0  0  0  0  0  0  0  0  0
   45.0880   36.3230   42.4970 F   0  0  0  0  0  0  0  0  0  0  0  0
   45.5970   34.3740   41.6550 F   0  0  0  0  0  0  0  0  0  0  0  0
   47.2660   35.6930   42.4110 F   0  0  0  0  0  0  0  0  0  0  0  0
   47.5810   32.9800   43.6960 C   0  0  0  0  0  0  0  0  0  0  0  0
   47.6630   31.7410   43.4780 O   0  0  0  0  0  0  0  0  0  0  0  0
   48.7520   33.2510   43.0080 O   0  0  0  0  0  0  0  0  0  0  0  0
   49.0660   32.8060   41.7620 C   0  0  0  0  0  0  0  0  0  0  0  0
   48.1210   32.7220   40.6020 C   0  0  0  0  0  0  0  0  0  0  0  0
   49.1960   32.0550   39.3150 S   0  0  0  0  0  0  0  0  0  0  0  0
   50.6910   31.9900   40.4610 C   0  0  0  0  0  0  0  0  0  0  0  0
   50.2930   32.4030   41.5130 N   0  0  0  0  0  0  0  0  0  0  0  0
   52.0130   31.4770   39.9220 C   0  0  0  0  0  0  0  0  0  0  0  0
   52.8860   30.6510   40.5430 C   0  0  0  0  0  0  0  0  0  0  0  0
   53.8510   30.5490   39.6010 N   0  0  0  0  0  0  0  0  0  0  0  0
   53.5320   31.2850   38.5070 C   0  0  0  0  0  0  0  0  0  0  0  0
   52.3300   31.8930   38.7140 N   0  0  0  0  0  0  0  0  0  0  0  0
   45.1580   33.1660   47.7590 O   0  0  0  0  0  0  0  0  0  0  0  0
   45.8890   32.1260   48.3650 C   0  0  0  0  0  0  0  0  0  0  0  0
   47.2340   32.4660   48.4790 F   0  0  0  0  0  0  0  0  0  0  0  0
   45.7020   30.9110   47.7620 F   0  0  0  0  0  0  0  0  0  0  0  0
   45.4460   32.0610   49.6990 F   0  0  0  0  0  0  0  0  0  0  0  0
   44.1947   36.0401   44.5441 H   0  0  0  0  0  0  0  0  0  0  0  0
   47.0565   32.9942   40.5491 H   0  0  0  0  0  0  0  0  0  0  0  0
   52.8272   30.1894   41.5397 H   0  0  0  0  0  0  0  0  0  0  0  0
   54.1453   31.3764   37.5984 H   0  0  0  0  0  0  0  0  0  0  0  0
   51.8043   32.5178   38.0862 H   0  0  0  0  0  0  0  0  0  0  0  0
  1  6  2  0
  2  3  2  0
  2  1  1  0
  3  4  1  0
  4  5  2  0
  5 24  1  0
  6  5  1  0
  7  2  1  0
  8  7  1  0
  9  7  1  0
 10  7  1  0
 11  3  1  0
 12 11  2  0
 13 11  1  0
 14 13  1  0
 15 14  2  0
 16 17  1  0
 16 15  1  0
 17 18  2  0
 18 14  1  0
 19 17  1  0
 19 20  2  0
 21 20  1  0
 22 23  1  0
 22 21  2  0
 23 19  1  0
 24 25  1  0
 25 26  1  0
 25 28  1  0
 27 25  1  0
  1 29  1  0
 15 30  1  0
 20 31  1  0
 22 32  1  0
 23 33  1  0
M  ISO  5  29  14  30  14  31  14  32  14  33   9
M  END
>  <minimizedAffinity>  (1) 
-6.11070681

>  <minimizedRMSD>  (1) 
0.501714706

$$$$
