
     RDKit          3D

 45 47  0  0  0  0  0  0  0  0999 V2000
   47.1480   33.3470   43.3230 C   0  0  0  0  0  0  0  0  0  0  0  0
   48.3950   33.3310   43.4080 O   0  0  0  0  0  0  0  0  0  0  0  0
   44.6600   35.4980   45.0340 C   0  0  0  0  0  0  0  0  0  0  0  0
   45.5000   35.0860   44.0090 C   0  0  0  0  0  0  0  0  0  0  0  0
   46.2410   33.9300   44.2360 C   0  0  0  0  0  0  0  0  0  0  0  0
   46.1130   33.2760   45.4170 N   0  0  0  0  0  0  0  0  0  0  0  0
   45.3090   33.6790   46.3840 C   0  0  0  0  0  0  0  0  0  0  0  0
   44.6010   34.7760   46.1800 N   0  0  0  0  0  0  0  0  0  0  0  0
   45.6090   35.8260   42.7440 C   0  0  0  0  0  0  0  0  0  0  0  0
   45.0330   37.0810   42.9590 F   0  0  0  0  0  0  0  0  0  0  0  0
   44.8010   35.2700   41.7840 F   0  0  0  0  0  0  0  0  0  0  0  0
   46.8810   35.9490   42.3050 F   0  0  0  0  0  0  0  0  0  0  0  0
   45.1390   33.0590   47.5950 O   0  0  0  0  0  0  0  0  0  0  0  0
   46.1040   32.1990   48.1570 C   0  0  0  0  0  0  0  0  0  0  0  0
   47.3540   32.7900   48.1440 F   0  0  0  0  0  0  0  0  0  0  0  0
   46.0900   30.9400   47.5940 F   0  0  0  0  0  0  0  0  0  0  0  0
   45.7950   32.1070   49.5270 F   0  0  0  0  0  0  0  0  0  0  0  0
   47.1870   32.6520   42.1430 O   0  0  0  0  0  0  0  0  0  0  0  0
   48.0730   31.7550   41.7090 C   0  0  0  0  0  0  0  0  0  0  0  0
   48.0750   30.3420   42.1260 C   0  0  0  0  0  0  0  0  0  0  0  0
   49.4890   29.6880   41.2070 S   0  0  0  0  0  0  0  0  0  0  0  0
   49.8620   31.3680   40.4160 C   0  0  0  0  0  0  0  0  0  0  0  0
   49.0200   32.0600   40.8740 N   0  0  0  0  0  0  0  0  0  0  0  0
   51.0260   31.4670   39.4690 C   0  0  0  0  0  0  0  0  0  0  0  0
   52.3410   31.4120   39.8190 C   0  0  0  0  0  0  0  0  0  0  0  0
   52.9040   31.4900   38.5970 N   0  0  0  0  0  0  0  0  0  0  0  0
   51.9700   31.5830   37.6330 C   0  0  0  0  0  0  0  0  0  0  0  0
   50.7340   31.5710   38.1920 N   0  0  0  0  0  0  0  0  0  0  0  0
   49.6130   31.6790   37.2950 C   0  0  0  0  0  0  0  0  0  0  0  0
   49.8820   31.3120   35.8680 C   0  0  0  0  0  0  0  0  0  0  0  0
   48.4640   30.7280   37.7010 C   0  0  0  0  0  0  0  0  0  0  0  0
   49.0300   33.0600   37.4690 C   0  0  0  0  0  0  0  0  0  0  0  0
   44.0466   36.4036   44.9175 H   0  0  0  0  0  0  0  0  0  0  0  0
   47.3946   29.8211   42.8157 H   0  0  0  0  0  0  0  0  0  0  0  0
   52.8082   31.3282   40.8113 H   0  0  0  0  0  0  0  0  0  0  0  0
   52.1772   31.6575   36.5553 H   0  0  0  0  0  0  0  0  0  0  0  0
   50.5320   30.4252   35.8337 H   0  0  0  0  0  0  0  0  0  0  0  0
   48.9314   31.0897   35.3611 H   0  0  0  0  0  0  0  0  0  0  0  0
   50.3802   32.1516   35.3611 H   0  0  0  0  0  0  0  0  0  0  0  0
   48.4013   30.6761   38.7980 H   0  0  0  0  0  0  0  0  0  0  0  0
   47.5139   31.1075   37.2970 H   0  0  0  0  0  0  0  0  0  0  0  0
   48.6592   29.7237   37.2970 H   0  0  0  0  0  0  0  0  0  0  0  0
   48.9349   33.2854   38.5415 H   0  0  0  0  0  0  0  0  0  0  0  0
   49.6925   33.7999   36.9962 H   0  0  0  0  0  0  0  0  0  0  0  0
   48.0377   33.1013   36.9962 H   0  0  0  0  0  0  0  0  0  0  0  0
  1  2  2  0
  1  5  1  0
  3  8  2  0
  4  5  2  0
  4  3  1  0
  5  6  1  0
  6  7  2  0
  7 13  1  0
  8  7  1  0
  9 10  1  0
  9  4  1  0
 11  9  1  0
 12  9  1  0
 13 14  1  0
 14 17  1  0
 15 14  1  0
 16 14  1  0
 18  1  1  0
 19 20  2  0
 19 18  1  0
 21 20  1  0
 22 23  2  0
 22 21  1  0
 23 19  1  0
 24 25  2  0
 24 22  1  0
 26 25  1  0
 27 28  1  0
 27 26  2  0
 28 24  1  0
 29 32  1  0
 29 31  1  0
 29 28  1  0
 30 29  1  0
  3 33  1  0
 20 34  1  0
 25 35  1  0
 27 36  1  0
 30 37  1  0
 30 38  1  0
 30 39  1  0
 31 40  1  0
 31 41  1  0
 31 42  1  0
 32 43  1  0
 32 44  1  0
 32 45  1  0
M  ISO  8  33  14  34  14  35  14  36  14  37   8  38   8  39   8  40   8
M  ISO  5  41   8  42   8  43   8  44   8  45   8
M  END
>  <minimizedAffinity>  (1) 
-5.92250299

>  <minimizedRMSD>  (1) 
1.64442956

$$$$
