
     RDKit          3D

 39 41  0  0  0  0  0  0  0  0999 V2000
   47.7140   33.0430   43.6390 C   0  0  0  0  0  0  0  0  0  0  0  0
   47.9610   31.8190   43.5970 O   0  0  0  0  0  0  0  0  0  0  0  0
   44.8650   35.1770   44.6750 C   0  0  0  0  0  0  0  0  0  0  0  0
   45.8540   34.6940   43.8280 C   0  0  0  0  0  0  0  0  0  0  0  0
   46.6530   33.6750   44.3350 C   0  0  0  0  0  0  0  0  0  0  0  0
   46.4420   33.2130   45.5930 N   0  0  0  0  0  0  0  0  0  0  0  0
   45.4920   33.6880   46.3830 C   0  0  0  0  0  0  0  0  0  0  0  0
   44.7240   34.6580   45.9120 N   0  0  0  0  0  0  0  0  0  0  0  0
   46.0530   35.2180   42.4720 C   0  0  0  0  0  0  0  0  0  0  0  0
   45.0380   36.1530   42.2430 F   0  0  0  0  0  0  0  0  0  0  0  0
   45.8030   34.2480   41.5340 F   0  0  0  0  0  0  0  0  0  0  0  0
   47.2710   35.7810   42.2930 F   0  0  0  0  0  0  0  0  0  0  0  0
   45.2300   33.2610   47.6610 O   0  0  0  0  0  0  0  0  0  0  0  0
   45.9360   32.2100   48.2790 C   0  0  0  0  0  0  0  0  0  0  0  0
   47.2800   32.5270   48.3810 F   0  0  0  0  0  0  0  0  0  0  0  0
   45.7200   30.9840   47.6940 F   0  0  0  0  0  0  0  0  0  0  0  0
   45.4920   32.1730   49.6120 F   0  0  0  0  0  0  0  0  0  0  0  0
   48.7860   33.3300   42.8300 O   0  0  0  0  0  0  0  0  0  0  0  0
   49.2070   32.7020   41.7330 C   0  0  0  0  0  0  0  0  0  0  0  0
   48.3670   32.4790   40.5450 C   0  0  0  0  0  0  0  0  0  0  0  0
   49.4900   31.5950   39.4410 S   0  0  0  0  0  0  0  0  0  0  0  0
   50.8990   31.6520   40.7070 C   0  0  0  0  0  0  0  0  0  0  0  0
   50.4020   32.2230   41.6060 N   0  0  0  0  0  0  0  0  0  0  0  0
   52.2280   31.0300   40.3390 C   0  0  0  0  0  0  0  0  0  0  0  0
   53.0310   30.3020   41.1510 C   0  0  0  0  0  0  0  0  0  0  0  0
   54.0440   30.0070   40.3120 N   0  0  0  0  0  0  0  0  0  0  0  0
   53.8110   30.5500   39.0870 C   0  0  0  0  0  0  0  0  0  0  0  0
   52.6150   31.2310   39.0870 N   0  0  0  0  0  0  0  0  0  0  0  0
   52.2750   31.8540   37.8570 C   0  0  0  0  0  0  0  0  0  0  0  0
   52.0630   30.8100   36.7720 C   0  0  0  0  0  0  0  0  0  0  0  0
   44.1967   35.9827   44.3371 H   0  0  0  0  0  0  0  0  0  0  0  0
   47.3216   32.7753   40.3734 H   0  0  0  0  0  0  0  0  0  0  0  0
   52.8940   30.0266   42.2071 H   0  0  0  0  0  0  0  0  0  0  0  0
   54.4823   30.4581   38.2204 H   0  0  0  0  0  0  0  0  0  0  0  0
   51.3489   32.4329   37.9883 H   0  0  0  0  0  0  0  0  0  0  0  0
   53.0980   32.5185   37.5553 H   0  0  0  0  0  0  0  0  0  0  0  0
   51.8646   29.8330   37.2370 H   0  0  0  0  0  0  0  0  0  0  0  0
   51.2053   31.0996   36.1471 H   0  0  0  0  0  0  0  0  0  0  0  0
   52.9657   30.7421   36.1471 H   0  0  0  0  0  0  0  0  0  0  0  0
  1  5  1  0
  2  1  2  0
  3  8  2  0
  4  5  2  0
  4  3  1  0
  5  6  1  0
  6  7  2  0
  7 13  1  0
  8  7  1  0
  9  4  1  0
 10  9  1  0
 11  9  1  0
 12  9  1  0
 13 14  1  0
 14 15  1  0
 14 17  1  0
 16 14  1  0
 18  1  1  0
 19 18  1  0
 20 19  2  0
 21 20  1  0
 21 22  1  0
 22 23  2  0
 23 19  1  0
 24 22  1  0
 24 25  2  0
 26 25  1  0
 27 28  1  0
 27 26  2  0
 28 24  1  0
 29 28  1  0
 30 29  1  0
  3 31  1  0
 20 32  1  0
 25 33  1  0
 27 34  1  0
 29 35  1  0
 29 36  1  0
 30 37  1  0
 30 38  1  0
 30 39  1  0
M  ISO  8  31  14  32  14  33  14  34  14  35   8  36   8  37   8  38   8
M  ISO  1  39   8
M  END
>  <minimizedAffinity>  (1) 
-5.76934814

>  <minimizedRMSD>  (1) 
0.5469715

$$$$
