
     RDKit          3D

 43 46  0  0  0  0  0  0  0  0999 V2000
   47.3000   34.1620   40.1240 C   0  0  0  0  0  0  0  0  0  0  0  0
   46.6330   34.4470   41.3200 C   0  0  0  0  0  0  0  0  0  0  0  0
   47.0500   34.0150   42.5790 C   0  0  0  0  0  0  0  0  0  0  0  0
   48.1620   33.3040   42.4550 N   0  0  0  0  0  0  0  0  0  0  0  0
   48.8440   32.9930   41.3890 C   0  0  0  0  0  0  0  0  0  0  0  0
   48.4150   33.4250   40.1970 N   0  0  0  0  0  0  0  0  0  0  0  0
   46.1740   34.4590   43.6520 C   0  0  0  0  0  0  0  0  0  0  0  0
   45.4000   35.5540   43.5590 N   0  0  0  0  0  0  0  0  0  0  0  0
   44.5960   35.9760   44.5490 C   0  0  0  0  0  0  0  0  0  0  0  0
   44.5280   35.3000   45.7120 N   0  0  0  0  0  0  0  0  0  0  0  0
   45.2610   34.1980   45.8950 C   0  0  0  0  0  0  0  0  0  0  0  0
   45.1810   33.5230   47.0810 C   0  0  0  0  0  0  0  0  0  0  0  0
   45.9400   32.3720   47.2870 C   0  0  0  0  0  0  0  0  0  0  0  0
   46.7680   31.9420   46.2600 C   0  0  0  0  0  0  0  0  0  0  0  0
   46.7920   32.6730   45.1020 C   0  0  0  0  0  0  0  0  0  0  0  0
   46.0740   33.8030   44.8470 C   0  0  0  0  0  0  0  0  0  0  0  0
   50.0560   32.1670   41.6110 C   0  0  0  0  0  0  0  0  0  0  0  0
   50.6430   31.7630   40.2770 C   0  0  0  0  0  0  0  0  0  0  0  0
   51.1270   33.0710   42.2590 C   0  0  0  0  0  0  0  0  0  0  0  0
   49.8090   30.9660   42.4940 C   0  0  0  0  0  0  0  0  0  0  0  0
   51.0450   30.1790   42.6510 N   0  0  0  0  0  0  0  0  0  0  0  0
   51.4720   29.2530   41.7960 N   0  0  0  0  0  0  0  0  0  0  0  0
   52.6260   28.7110   42.2120 C   0  0  0  0  0  0  0  0  0  0  0  0
   52.9650   29.3190   43.4030 C   0  0  0  0  0  0  0  0  0  0  0  0
   51.9570   30.2230   43.6390 C   0  0  0  0  0  0  0  0  0  0  0  0
   46.9221   34.5301   39.1588 H   0  0  0  0  0  0  0  0  0  0  0  0
   45.7169   35.0533   41.2638 H   0  0  0  0  0  0  0  0  0  0  0  0
   43.9878   36.8817   44.4086 H   0  0  0  0  0  0  0  0  0  0  0  0
   44.5150   33.8895   47.8760 H   0  0  0  0  0  0  0  0  0  0  0  0
   45.8841   31.8202   48.2370 H   0  0  0  0  0  0  0  0  0  0  0  0
   47.3874   31.0399   46.3726 H   0  0  0  0  0  0  0  0  0  0  0  0
   47.4544   32.3135   44.3008 H   0  0  0  0  0  0  0  0  0  0  0  0
   51.5388   31.1464   40.4422 H   0  0  0  0  0  0  0  0  0  0  0  0
   49.8993   31.1845   39.7093 H   0  0  0  0  0  0  0  0  0  0  0  0
   50.9177   32.6642   39.7093 H   0  0  0  0  0  0  0  0  0  0  0  0
   51.0487   33.0049   43.3542 H   0  0  0  0  0  0  0  0  0  0  0  0
   52.1269   32.7397   41.9422 H   0  0  0  0  0  0  0  0  0  0  0  0
   50.9683   34.1124   41.9422 H   0  0  0  0  0  0  0  0  0  0  0  0
   49.4689   31.3073   43.4829 H   0  0  0  0  0  0  0  0  0  0  0  0
   49.0404   30.3326   42.0270 H   0  0  0  0  0  0  0  0  0  0  0  0
   53.1980   27.9249   41.6973 H   0  0  0  0  0  0  0  0  0  0  0  0
   53.8491   29.1231   44.0275 H   0  0  0  0  0  0  0  0  0  0  0  0
   51.9035   30.8889   44.5129 H   0  0  0  0  0  0  0  0  0  0  0  0
  1  6  2  0
  1  2  1  0
  2  3  2  0
  3  7  1  0
  4  3  1  0
  5 17  1  0
  5  4  2  0
  6  5  1  0
  7 16  1  0
  8  7  2  0
  8  9  1  0
  9 10  2  0
 10 11  1  0
 11 12  2  0
 12 13  1  0
 14 13  2  0
 15 14  1  0
 16 15  2  0
 16 11  1  0
 17 19  1  0
 17 20  1  0
 18 17  1  0
 20 21  1  0
 21 25  1  0
 22 23  2  0
 22 21  1  0
 23 24  1  0
 24 25  2  0
  1 26  1  0
  2 27  1  0
  9 28  1  0
 12 29  1  0
 13 30  1  0
 14 31  1  0
 15 32  1  0
 18 33  1  0
 18 34  1  0
 18 35  1  0
 19 36  1  0
 19 37  1  0
 19 38  1  0
 20 39  1  0
 20 40  1  0
 23 41  1  0
 24 42  1  0
 25 43  1  0
M  ISO  8  26  14  27  14  28  14  29  14  30  14  31  14  32  14  33   8
M  ISO  8  34   8  35   8  36   8  37   8  38   8  39   8  40   8  41  14
M  ISO  2  42  14  43  14
M  END
>  <minimizedAffinity>  (1) 
-5.48508072

>  <minimizedRMSD>  (1) 
0.486226916

$$$$
