
     RDKit          3D

 26 27  0  0  1  0  0  0  0  0999 V2000
   46.4280   31.5860   46.8390 C   0  0  2  0  0  0  0  0  0  0  0  0
   48.7940   30.6780   49.5310 C   0  0  0  0  0  0  0  0  0  0  0  0
   49.4230   29.5300   48.9630 C   0  0  0  0  0  0  0  0  0  0  0  0
   49.0270   29.1120   47.6870 C   0  0  0  0  0  0  0  0  0  0  0  0
   48.0550   29.8320   47.0600 N   0  0  0  0  0  0  0  0  0  0  0  0
   47.4770   30.9150   47.6260 C   0  0  0  0  0  0  0  0  0  0  0  0
   47.8570   31.3220   48.8550 N   0  0  0  0  0  0  0  0  0  0  0  0
   46.3110   30.9420   45.4620 C   0  0  0  0  0  0  0  0  0  0  0  0
   46.6140   33.0620   46.7250 C   0  0  0  0  0  0  0  0  0  0  0  0
   46.2990   33.6380   45.4510 N   0  0  0  0  0  0  0  0  0  0  0  0
   45.1780   34.4110   45.3850 C   0  0  0  0  0  0  0  0  0  0  0  0
   44.9540   34.9420   44.1410 C   0  0  0  0  0  0  0  0  0  0  0  0
   46.0020   34.4640   43.4070 N   0  0  0  0  0  0  0  0  0  0  0  0
   46.7650   33.7120   44.1970 C   0  0  0  0  0  0  0  0  0  0  0  0
   45.4864   31.4480   47.3907 H   0  0  0  0  0  0  0  0  0  0  0  0
   49.0885   31.0276   50.5315 H   0  0  0  0  0  0  0  0  0  0  0  0
   50.2024   28.9852   49.5159 H   0  0  0  0  0  0  0  0  0  0  0  0
   49.4842   28.2338   47.2078 H   0  0  0  0  0  0  0  0  0  0  0  0
   46.1154   29.8656   45.5761 H   0  0  0  0  0  0  0  0  0  0  0  0
   45.4829   31.4085   44.9082 H   0  0  0  0  0  0  0  0  0  0  0  0
   47.2503   31.0874   44.9082 H   0  0  0  0  0  0  0  0  0  0  0  0
   45.9724   33.5414   47.4791 H   0  0  0  0  0  0  0  0  0  0  0  0
   47.6898   33.2378   46.8723 H   0  0  0  0  0  0  0  0  0  0  0  0
   44.5175   34.5911   46.2460 H   0  0  0  0  0  0  0  0  0  0  0  0
   44.1308   35.5941   43.8138 H   0  0  0  0  0  0  0  0  0  0  0  0
   47.6802   33.2055   43.8567 H   0  0  0  0  0  0  0  0  0  0  0  0
  1  6  1  0
  3  2  2  0
  4  3  1  0
  5  6  1  0
  5  4  2  0
  6  7  2  0
  7  2  1  0
  8  1  1  0
  9  1  1  0
 10  9  1  0
 11 10  1  0
 12 11  2  0
 13 12  1  0
 13 14  2  0
 14 10  1  0
  1 15  1  1
  2 16  1  0
  3 17  1  0
  4 18  1  0
  8 19  1  0
  8 20  1  0
  8 21  1  0
  9 22  1  0
  9 23  1  0
 11 24  1  0
 12 25  1  0
 14 26  1  0
M  ISO  8  15   8  16  14  17  14  18  14  19   8  20   8  21   8  22   8
M  ISO  4  23   8  24  14  25  14  26  14
M  END
>  <minimizedAffinity>  (1) 
-3.42976022

>  <minimizedRMSD>  (1) 
5.40968275

$$$$
