
     RDKit          3D

 21 21  0  0  1  0  0  0  0  0999 V2000
   46.5510   32.8410   46.1650 C   0  0  2  0  0  0  0  0  0  0  0  0
   44.5260   35.6430   44.8170 C   0  0  0  0  0  0  0  0  0  0  0  0
   45.0670   35.7690   43.5020 C   0  0  0  0  0  0  0  0  0  0  0  0
   46.1090   34.8860   43.1220 C   0  0  0  0  0  0  0  0  0  0  0  0
   46.5330   33.9750   44.0220 N   0  0  0  0  0  0  0  0  0  0  0  0
   45.9950   33.8830   45.2620 C   0  0  0  0  0  0  0  0  0  0  0  0
   45.0030   34.7150   45.6390 N   0  0  0  0  0  0  0  0  0  0  0  0
   47.0730   31.6800   45.3430 C   0  0  0  0  0  0  0  0  0  0  0  0
   45.5390   32.3830   47.1690 C   0  0  0  0  0  0  0  0  0  0  0  0
   45.2820   33.3130   48.2140 N   0  0  0  0  0  0  0  0  0  0  0  0
   47.3852   33.2800   46.7319 H   0  0  0  0  0  0  0  0  0  0  0  0
   43.7176   36.3115   45.1481 H   0  0  0  0  0  0  0  0  0  0  0  0
   44.6865   36.5291   42.8038 H   0  0  0  0  0  0  0  0  0  0  0  0
   46.5597   34.9422   42.1201 H   0  0  0  0  0  0  0  0  0  0  0  0
   47.4300   30.8860   46.0153 H   0  0  0  0  0  0  0  0  0  0  0  0
   46.2648   31.2873   44.7085 H   0  0  0  0  0  0  0  0  0  0  0  0
   47.9031   32.0239   44.7085 H   0  0  0  0  0  0  0  0  0  0  0  0
   44.5937   32.1902   46.6406 H   0  0  0  0  0  0  0  0  0  0  0  0
   45.9564   31.4840   47.6460 H   0  0  0  0  0  0  0  0  0  0  0  0
   45.4100   32.8498   49.1250 H   0  0  0  0  0  0  0  0  0  0  0  0
   45.9355   34.1054   48.1369 H   0  0  0  0  0  0  0  0  0  0  0  0
  1  9  1  0
  2  7  2  0
  3  2  1  0
  4  3  2  0
  4  5  1  0
  5  6  2  0
  6  7  1  0
  6  1  1  0
  8  1  1  0
  9 10  1  0
  1 11  1  1
  2 12  1  0
  3 13  1  0
  4 14  1  0
  8 15  1  0
  8 16  1  0
  8 17  1  0
  9 18  1  0
  9 19  1  0
 10 20  1  0
 10 21  1  0
M  ISO  8  11   8  12  14  13  14  14  14  15   8  16   8  17   8  18   8
M  ISO  3  19   8  20   5  21   5
M  END
>  <minimizedAffinity>  (1) 
-3.78005719

>  <minimizedRMSD>  (1) 
0.467464864

$$$$
