
     RDKit          3D

 51 55  0  0  1  0  0  0  0  0999 V2000
   46.1120   32.0480   45.2190 C   0  0  1  0  0  0  0  0  0  0  0  0
   45.8210   32.1460   48.8950 C   0  0  0  0  0  0  0  0  0  0  0  0
   45.4200   30.7830   49.1650 C   0  0  0  0  0  0  0  0  0  0  0  0
   45.2730   29.8790   48.0640 C   0  0  0  0  0  0  0  0  0  0  0  0
   45.5270   30.3840   46.8280 N   0  0  0  0  0  0  0  0  0  0  0  0
   45.8940   31.6400   46.6080 C   0  0  0  0  0  0  0  0  0  0  0  0
   46.0410   32.5200   47.6430 N   0  0  0  0  0  0  0  0  0  0  0  0
   46.6610   33.4290   45.0770 C   0  0  0  0  0  0  0  0  0  0  0  0
   45.6860   34.2580   44.3190 C   0  0  0  0  0  0  0  0  0  0  0  0
   44.9390   35.1780   44.9810 C   0  0  0  0  0  0  0  0  0  0  0  0
   44.1210   35.8040   44.0820 C   0  0  0  0  0  0  0  0  0  0  0  0
   44.4380   35.1990   42.8840 N   0  0  0  0  0  0  0  0  0  0  0  0
   45.3620   34.2860   43.0120 N   0  0  0  0  0  0  0  0  0  0  0  0
   44.3530   34.6930   40.5350 N   0  0  0  0  0  0  0  0  0  0  0  0
   43.2360   34.2040   39.7720 C   0  0  0  0  0  0  0  0  0  0  0  0
   42.1850   33.9990   40.8670 C   0  0  0  0  0  0  0  0  0  0  0  0
   42.3300   35.3040   41.6420 C   0  0  0  0  0  0  0  0  0  0  0  0
   43.8300   35.5170   41.5880 C   0  0  1  0  0  0  0  0  0  0  0  0
   46.9970   31.0390   44.4990 C   0  0  0  0  0  0  0  0  0  0  0  0
   47.0940   31.1500   43.0940 N   0  0  0  0  0  0  0  0  0  0  0  0
   46.2440   30.9170   42.0460 C   0  0  0  0  0  0  0  0  0  0  0  0
   46.8260   31.1370   40.8530 N   0  0  0  0  0  0  0  0  0  0  0  0
   48.0960   31.5270   41.0650 C   0  0  0  0  0  0  0  0  0  0  0  0
   49.0860   31.8640   40.1810 C   0  0  0  0  0  0  0  0  0  0  0  0
   50.2700   32.2180   40.7340 N   0  0  0  0  0  0  0  0  0  0  0  0
   50.4280   32.2240   42.0850 C   0  0  0  0  0  0  0  0  0  0  0  0
   49.4490   31.8910   42.9430 N   0  0  0  0  0  0  0  0  0  0  0  0
   48.2340   31.5270   42.4370 C   0  0  0  0  0  0  0  0  0  0  0  0
   48.8540   31.8350   38.7930 N   0  0  0  0  0  0  0  0  0  0  0  0
   45.1190   32.0680   44.7461 H   0  0  0  0  0  0  0  0  0  0  0  0
   45.9420   32.8640   49.7195 H   0  0  0  0  0  0  0  0  0  0  0  0
   45.2317   30.4473   50.1955 H   0  0  0  0  0  0  0  0  0  0  0  0
   44.9706   28.8316   48.2109 H   0  0  0  0  0  0  0  0  0  0  0  0
   46.8224   33.8667   46.0732 H   0  0  0  0  0  0  0  0  0  0  0  0
   47.6202   33.3959   44.5395 H   0  0  0  0  0  0  0  0  0  0  0  0
   44.9842   35.3852   46.0604 H   0  0  0  0  0  0  0  0  0  0  0  0
   43.3855   36.6002   44.2695 H   0  0  0  0  0  0  0  0  0  0  0  0
   44.9755   35.2481   39.9306 H   0  0  0  0  0  0  0  0  0  0  0  0
   42.9028   34.9430   39.0285 H   0  0  0  0  0  0  0  0  0  0  0  0
   43.4549   33.2996   39.1854 H   0  0  0  0  0  0  0  0  0  0  0  0
   41.1754   33.8879   40.4447 H   0  0  0  0  0  0  0  0  0  0  0  0
   42.3246   33.0902   41.4709 H   0  0  0  0  0  0  0  0  0  0  0  0
   41.7887   36.1261   41.1510 H   0  0  0  0  0  0  0  0  0  0  0  0
   41.9162   35.2711   42.6607 H   0  0  0  0  0  0  0  0  0  0  0  0
   44.0681   36.5701   41.3777 H   0  0  0  0  0  0  0  0  0  0  0  0
   48.0128   31.1380   44.9094 H   0  0  0  0  0  0  0  0  0  0  0  0
   46.5155   30.0654   44.6732 H   0  0  0  0  0  0  0  0  0  0  0  0
   45.2016   30.5868   42.1661 H   0  0  0  0  0  0  0  0  0  0  0  0
   51.4058   32.5160   42.4956 H   0  0  0  0  0  0  0  0  0  0  0  0
   47.9308   31.5568   38.4309 H   0  0  0  0  0  0  0  0  0  0  0  0
   49.6075   32.0920   38.1394 H   0  0  0  0  0  0  0  0  0  0  0  0
  1  6  1  0
  2  3  2  0
  4  3  1  0
  5  4  2  0
  6  5  1  0
  6  7  2  0
  7  2  1  0
  8  1  1  0
  9 10  1  0
  9  8  1  0
 11 10  2  0
 12 13  1  0
 12 11  1  0
 13  9  2  0
 14 18  1  0
 15 14  1  0
 15 16  1  0
 16 17  1  0
 18 17  1  0
 18 12  1  0
 19  1  1  0
 20 19  1  0
 21 20  1  0
 22 23  1  0
 22 21  2  0
 23 28  2  0
 24 25  2  0
 24 23  1  0
 25 26  1  0
 26 27  2  0
 28 27  1  0
 28 20  1  0
 29 24  1  0
  1 30  1  6
  2 31  1  0
  3 32  1  0
  4 33  1  0
  8 34  1  0
  8 35  1  0
 10 36  1  0
 11 37  1  0
 14 38  1  0
 15 39  1  0
 15 40  1  0
 16 41  1  0
 16 42  1  0
 17 43  1  0
 17 44  1  0
 18 45  1  6
 19 46  1  0
 19 47  1  0
 21 48  1  0
 26 49  1  0
 29 50  1  0
 29 51  1  0
M  ISO  8  30   8  31  14  32  14  33  14  34   8  35   8  36  14  37  14
M  ISO  8  38   5  39  13  40  13  41  13  42  13  43  13  44  13  45  13
M  ISO  4  46   8  47   8  48  14  49  14
M  END
>  <minimizedAffinity>  (1) 
-5.64699745

>  <minimizedRMSD>  (1) 
3.49232388

$$$$
