
     RDKit          3D

 48 51  0  0  1  0  0  0  0  0999 V2000
   46.7900   33.3410   45.0840 C   0  0  0  0  0  0  0  0  0  0  0  0
   45.7870   34.1630   44.3560 C   0  0  0  0  0  0  0  0  0  0  0  0
   44.9890   35.0270   45.0630 C   0  0  0  0  0  0  0  0  0  0  0  0
   44.1610   35.6620   44.1790 C   0  0  0  0  0  0  0  0  0  0  0  0
   44.5140   35.1310   42.9620 N   0  0  0  0  0  0  0  0  0  0  0  0
   45.4760   34.2430   43.0530 N   0  0  0  0  0  0  0  0  0  0  0  0
   44.4190   34.6890   40.5990 N   0  0  0  0  0  0  0  0  0  0  0  0
   43.2900   34.2470   39.8260 C   0  0  0  0  0  0  0  0  0  0  0  0
   42.2410   34.0110   40.9180 C   0  0  0  0  0  0  0  0  0  0  0  0
   42.4050   35.2830   41.7280 C   0  0  0  0  0  0  0  0  0  0  0  0
   43.9060   35.4920   41.6750 C   0  0  1  0  0  0  0  0  0  0  0  0
   46.2520   31.9910   45.2660 C   0  0  2  0  0  0  0  0  0  0  0  0
   45.8200   32.2470   48.9320 C   0  0  0  0  0  0  0  0  0  0  0  0
   45.3090   30.9310   49.2440 C   0  0  0  0  0  0  0  0  0  0  0  0
   45.1350   29.9930   48.1730 C   0  0  0  0  0  0  0  0  0  0  0  0
   45.4640   30.3980   46.9130 N   0  0  0  0  0  0  0  0  0  0  0  0
   45.9350   31.6260   46.6710 C   0  0  0  0  0  0  0  0  0  0  0  0
   46.1120   32.5440   47.6700 N   0  0  0  0  0  0  0  0  0  0  0  0
   47.1290   30.8880   44.6740 C   0  0  0  0  0  0  0  0  0  0  0  0
   47.5860   31.1310   43.3130 C   0  0  0  0  0  0  0  0  0  0  0  0
   48.8290   31.5130   42.8630 C   0  0  0  0  0  0  0  0  0  0  0  0
   49.1420   31.7270   41.5490 C   0  0  0  0  0  0  0  0  0  0  0  0
   48.1200   31.5400   40.6180 C   0  0  0  0  0  0  0  0  0  0  0  0
   46.8490   31.1550   41.0030 C   0  0  0  0  0  0  0  0  0  0  0  0
   46.5900   30.9540   42.3530 C   0  0  0  0  0  0  0  0  0  0  0  0
   46.9954   33.7925   46.0658 H   0  0  0  0  0  0  0  0  0  0  0  0
   47.7255   33.2957   44.5071 H   0  0  0  0  0  0  0  0  0  0  0  0
   45.0114   35.1819   46.1518 H   0  0  0  0  0  0  0  0  0  0  0  0
   43.3928   36.4199   44.3922 H   0  0  0  0  0  0  0  0  0  0  0  0
   45.0523   35.2493   40.0109 H   0  0  0  0  0  0  0  0  0  0  0  0
   42.9626   35.0204   39.1156 H   0  0  0  0  0  0  0  0  0  0  0  0
   43.4931   33.3637   39.2027 H   0  0  0  0  0  0  0  0  0  0  0  0
   41.2282   33.9234   40.4978 H   0  0  0  0  0  0  0  0  0  0  0  0
   42.3716   33.0802   41.4895 H   0  0  0  0  0  0  0  0  0  0  0  0
   41.8668   36.1241   41.2665 H   0  0  0  0  0  0  0  0  0  0  0  0
   41.9998   35.2170   42.7485 H   0  0  0  0  0  0  0  0  0  0  0  0
   44.1514   36.5486   41.4925 H   0  0  0  0  0  0  0  0  0  0  0  0
   45.3086   32.0500   44.7034 H   0  0  0  0  0  0  0  0  0  0  0  0
   45.9651   32.9921   49.7281 H   0  0  0  0  0  0  0  0  0  0  0  0
   45.0593   30.6554   50.2792 H   0  0  0  0  0  0  0  0  0  0  0  0
   44.7489   28.9804   48.3617 H   0  0  0  0  0  0  0  0  0  0  0  0
   48.0146   30.7741   45.3164 H   0  0  0  0  0  0  0  0  0  0  0  0
   46.5020   29.9852   44.6319 H   0  0  0  0  0  0  0  0  0  0  0  0
   49.6238   31.6558   43.6099 H   0  0  0  0  0  0  0  0  0  0  0  0
   50.1527   32.0324   41.2405 H   0  0  0  0  0  0  0  0  0  0  0  0
   48.3306   31.7029   39.5507 H   0  0  0  0  0  0  0  0  0  0  0  0
   46.0569   31.0104   40.2536 H   0  0  0  0  0  0  0  0  0  0  0  0
   45.5816   30.6499   42.6703 H   0  0  0  0  0  0  0  0  0  0  0  0
  1 12  1  0
  2  3  1  0
  2  1  1  0
  4  3  2  0
  5  6  1  0
  5  4  1  0
  6  2  2  0
  7 11  1  0
  8  7  1  0
  8  9  1  0
  9 10  1  0
 11 10  1  0
 11  5  1  0
 12 17  1  0
 13 14  2  0
 15 14  1  0
 16 15  2  0
 17 16  1  0
 17 18  2  0
 18 13  1  0
 19 12  1  0
 20 19  1  0
 21 20  2  0
 22 21  1  0
 23 24  1  0
 23 22  2  0
 24 25  2  0
 25 20  1  0
  1 26  1  0
  1 27  1  0
  3 28  1  0
  4 29  1  0
  7 30  1  0
  8 31  1  0
  8 32  1  0
  9 33  1  0
  9 34  1  0
 10 35  1  0
 10 36  1  0
 11 37  1  6
 12 38  1  6
 13 39  1  0
 14 40  1  0
 15 41  1  0
 19 42  1  0
 19 43  1  0
 21 44  1  0
 22 45  1  0
 23 46  1  0
 24 47  1  0
 25 48  1  0
M  ISO  8  26   8  27   8  28  14  29  14  30   5  31  13  32  13  33  13
M  ISO  8  34  13  35  13  36  13  37  13  38   8  39  14  40  14  41  14
M  ISO  7  42   8  43   8  44  14  45  14  46  14  47  14  48  14
M  END
>  <minimizedAffinity>  (1) 
-5.30313349

>  <minimizedRMSD>  (1) 
0.627055049

$$$$
