
     RDKit          3D

 43 46  0  0  1  0  0  0  0  0999 V2000
   46.7270   33.2980   45.1060 C   0  0  0  0  0  0  0  0  0  0  0  0
   45.7420   34.1590   44.3860 C   0  0  0  0  0  0  0  0  0  0  0  0
   44.9790   35.0540   45.0740 C   0  0  0  0  0  0  0  0  0  0  0  0
   44.1680   35.7020   44.1820 C   0  0  0  0  0  0  0  0  0  0  0  0
   44.4960   35.1490   42.9800 N   0  0  0  0  0  0  0  0  0  0  0  0
   45.4230   34.2400   43.0890 N   0  0  0  0  0  0  0  0  0  0  0  0
   44.4270   34.6920   40.6050 N   0  0  0  0  0  0  0  0  0  0  0  0
   43.2940   34.2340   39.8240 C   0  0  0  0  0  0  0  0  0  0  0  0
   42.2410   34.0090   40.9140 C   0  0  0  0  0  0  0  0  0  0  0  0
   42.4010   35.2900   41.7230 C   0  0  0  0  0  0  0  0  0  0  0  0
   43.9030   35.4980   41.6780 C   0  0  1  0  0  0  0  0  0  0  0  0
   46.1410   31.9640   45.2900 C   0  0  2  0  0  0  0  0  0  0  0  0
   45.8160   32.2150   48.9780 C   0  0  0  0  0  0  0  0  0  0  0  0
   45.3520   30.8800   49.3010 C   0  0  0  0  0  0  0  0  0  0  0  0
   45.1750   29.9510   48.2450 C   0  0  0  0  0  0  0  0  0  0  0  0
   45.4560   30.3730   46.9800 N   0  0  0  0  0  0  0  0  0  0  0  0
   45.8820   31.6050   46.7100 C   0  0  0  0  0  0  0  0  0  0  0  0
   46.0600   32.5210   47.7120 N   0  0  0  0  0  0  0  0  0  0  0  0
   46.9730   30.8600   44.6570 C   0  0  0  0  0  0  0  0  0  0  0  0
   47.6720   31.2220   43.4280 C   0  0  0  0  0  0  0  0  0  0  0  0
   48.8450   31.6260   42.9300 N   0  0  0  0  0  0  0  0  0  0  0  0
   48.8130   31.7730   41.6500 O   0  0  0  0  0  0  0  0  0  0  0  0
   47.6090   31.4700   41.2490 C   0  0  0  0  0  0  0  0  0  0  0  0
   46.8800   31.1260   42.3160 N   0  0  0  0  0  0  0  0  0  0  0  0
   46.9571   33.7396   46.0868 H   0  0  0  0  0  0  0  0  0  0  0  0
   47.6556   33.2218   44.5213 H   0  0  0  0  0  0  0  0  0  0  0  0
   45.0096   35.2262   46.1600 H   0  0  0  0  0  0  0  0  0  0  0  0
   43.4246   36.4864   44.3873 H   0  0  0  0  0  0  0  0  0  0  0  0
   45.0579   35.2543   40.0162 H   0  0  0  0  0  0  0  0  0  0  0  0
   42.9684   34.9979   39.1026 H   0  0  0  0  0  0  0  0  0  0  0  0
   43.5022   33.3442   39.2117 H   0  0  0  0  0  0  0  0  0  0  0  0
   41.2300   33.9202   40.4898 H   0  0  0  0  0  0  0  0  0  0  0  0
   42.3706   33.0823   41.4923 H   0  0  0  0  0  0  0  0  0  0  0  0
   41.8660   36.1293   41.2546 H   0  0  0  0  0  0  0  0  0  0  0  0
   41.9895   35.2288   42.7413 H   0  0  0  0  0  0  0  0  0  0  0  0
   44.1555   36.5515   41.4873 H   0  0  0  0  0  0  0  0  0  0  0  0
   45.1733   32.0381   44.7723 H   0  0  0  0  0  0  0  0  0  0  0  0
   45.9632   32.9624   49.7716 H   0  0  0  0  0  0  0  0  0  0  0  0
   45.1420   30.5943   50.3423 H   0  0  0  0  0  0  0  0  0  0  0  0
   44.8237   28.9269   48.4395 H   0  0  0  0  0  0  0  0  0  0  0  0
   47.7257   30.5397   45.3924 H   0  0  0  0  0  0  0  0  0  0  0  0
   46.2607   30.0702   44.3762 H   0  0  0  0  0  0  0  0  0  0  0  0
   47.2534   31.4935   40.2083 H   0  0  0  0  0  0  0  0  0  0  0  0
  1 12  1  0
  2  3  1  0
  2  1  1  0
  4  3  2  0
  5  6  1  0
  5  4  1  0
  6  2  2  0
  7 11  1  0
  8  7  1  0
  8  9  1  0
  9 10  1  0
 11 10  1  0
 11  5  1  0
 12 17  1  0
 13 14  2  0
 15 14  1  0
 16 15  2  0
 17 16  1  0
 17 18  2  0
 18 13  1  0
 19 12  1  0
 20 19  1  0
 21 20  2  0
 22 21  1  0
 23 22  1  0
 23 24  2  0
 24 20  1  0
  1 25  1  0
  1 26  1  0
  3 27  1  0
  4 28  1  0
  7 29  1  0
  8 30  1  0
  8 31  1  0
  9 32  1  0
  9 33  1  0
 10 34  1  0
 10 35  1  0
 11 36  1  6
 12 37  1  6
 13 38  1  0
 14 39  1  0
 15 40  1  0
 19 41  1  0
 19 42  1  0
 23 43  1  0
M  ISO  8  25   8  26   8  27  14  28  14  29   5  30  13  31  13  32  13
M  ISO  8  33  13  34  13  35  13  36  13  37   8  38  14  39  14  40  14
M  ISO  3  41   8  42   8  43  14
M  END
>  <minimizedAffinity>  (1) 
-5.21564531

>  <minimizedRMSD>  (1) 
0.66997987

$$$$
