
     RDKit          3D

 46 49  0  0  1  0  0  0  0  0999 V2000
   46.7580   33.3470   45.0720 C   0  0  0  0  0  0  0  0  0  0  0  0
   45.7590   34.1780   44.3450 C   0  0  0  0  0  0  0  0  0  0  0  0
   44.9860   35.0650   45.0400 C   0  0  0  0  0  0  0  0  0  0  0  0
   44.1580   35.7080   44.1600 C   0  0  0  0  0  0  0  0  0  0  0  0
   44.4930   35.1510   42.9470 N   0  0  0  0  0  0  0  0  0  0  0  0
   45.4390   34.2450   43.0460 N   0  0  0  0  0  0  0  0  0  0  0  0
   44.3970   34.7040   40.5870 N   0  0  0  0  0  0  0  0  0  0  0  0
   43.2630   34.2520   39.8180 C   0  0  0  0  0  0  0  0  0  0  0  0
   42.2180   34.0100   40.9190 C   0  0  0  0  0  0  0  0  0  0  0  0
   42.3800   35.2850   41.7210 C   0  0  0  0  0  0  0  0  0  0  0  0
   43.8800   35.5060   41.6620 C   0  0  1  0  0  0  0  0  0  0  0  0
   46.2070   32.0010   45.2520 C   0  0  2  0  0  0  0  0  0  0  0  0
   45.8210   32.2370   48.9230 C   0  0  0  0  0  0  0  0  0  0  0  0
   45.3340   30.9090   49.2390 C   0  0  0  0  0  0  0  0  0  0  0  0
   45.1580   29.9740   48.1660 C   0  0  0  0  0  0  0  0  0  0  0  0
   45.4670   30.4010   46.9050 N   0  0  0  0  0  0  0  0  0  0  0  0
   45.9120   31.6290   46.6610 C   0  0  0  0  0  0  0  0  0  0  0  0
   46.0900   32.5440   47.6580 N   0  0  0  0  0  0  0  0  0  0  0  0
   47.0540   30.8880   44.6300 C   0  0  0  0  0  0  0  0  0  0  0  0
   47.5390   31.1570   43.2890 C   0  0  0  0  0  0  0  0  0  0  0  0
   48.7970   31.4780   42.8410 C   0  0  0  0  0  0  0  0  0  0  0  0
   49.0690   31.6880   41.5030 C   0  0  0  0  0  0  0  0  0  0  0  0
   48.1010   31.5870   40.5670 N   0  0  0  0  0  0  0  0  0  0  0  0
   46.8590   31.2690   41.0210 C   0  0  0  0  0  0  0  0  0  0  0  0
   46.5770   31.0600   42.3240 N   0  0  0  0  0  0  0  0  0  0  0  0
   46.9681   33.7955   46.0542 H   0  0  0  0  0  0  0  0  0  0  0  0
   47.6934   33.2953   44.4955 H   0  0  0  0  0  0  0  0  0  0  0  0
   45.0230   35.2342   46.1263 H   0  0  0  0  0  0  0  0  0  0  0  0
   43.4063   36.4828   44.3713 H   0  0  0  0  0  0  0  0  0  0  0  0
   45.0245   35.2670   39.9952 H   0  0  0  0  0  0  0  0  0  0  0  0
   42.9269   35.0222   39.1082 H   0  0  0  0  0  0  0  0  0  0  0  0
   43.4687   33.3690   39.1950 H   0  0  0  0  0  0  0  0  0  0  0  0
   41.2034   33.9145   40.5049 H   0  0  0  0  0  0  0  0  0  0  0  0
   42.3560   33.0815   41.4924 H   0  0  0  0  0  0  0  0  0  0  0  0
   41.8344   36.1205   41.2581 H   0  0  0  0  0  0  0  0  0  0  0  0
   41.9812   35.2193   42.7440 H   0  0  0  0  0  0  0  0  0  0  0  0
   44.1162   36.5640   41.4754 H   0  0  0  0  0  0  0  0  0  0  0  0
   45.2547   32.0777   44.7068 H   0  0  0  0  0  0  0  0  0  0  0  0
   45.9661   32.9813   49.7198 H   0  0  0  0  0  0  0  0  0  0  0  0
   45.1049   30.6252   50.2768 H   0  0  0  0  0  0  0  0  0  0  0  0
   44.7892   28.9542   48.3504 H   0  0  0  0  0  0  0  0  0  0  0  0
   47.9255   30.7200   45.2798 H   0  0  0  0  0  0  0  0  0  0  0  0
   46.3935   30.0124   44.5459 H   0  0  0  0  0  0  0  0  0  0  0  0
   49.6144   31.5709   43.5712 H   0  0  0  0  0  0  0  0  0  0  0  0
   50.0937   31.9423   41.1942 H   0  0  0  0  0  0  0  0  0  0  0  0
   46.0430   31.1775   40.2890 H   0  0  0  0  0  0  0  0  0  0  0  0
  1 12  1  0
  2  3  1  0
  2  1  1  0
  4  3  2  0
  5  6  1  0
  5  4  1  0
  6  2  2  0
  7 11  1  0
  8  7  1  0
  8  9  1  0
  9 10  1  0
 11 10  1  0
 11  5  1  0
 12 17  1  0
 13 14  2  0
 15 14  1  0
 16 15  2  0
 17 16  1  0
 17 18  2  0
 18 13  1  0
 19 12  1  0
 20 19  1  0
 21 20  2  0
 22 21  1  0
 23 24  1  0
 23 22  2  0
 24 25  2  0
 25 20  1  0
  1 26  1  0
  1 27  1  0
  3 28  1  0
  4 29  1  0
  7 30  1  0
  8 31  1  0
  8 32  1  0
  9 33  1  0
  9 34  1  0
 10 35  1  0
 10 36  1  0
 11 37  1  6
 12 38  1  6
 13 39  1  0
 14 40  1  0
 15 41  1  0
 19 42  1  0
 19 43  1  0
 21 44  1  0
 22 45  1  0
 24 46  1  0
M  ISO  8  26   8  27   8  28  14  29  14  30   5  31  13  32  13  33  13
M  ISO  8  34  13  35  13  36  13  37  13  38   8  39  14  40  14  41  14
M  ISO  5  42   8  43   8  44  14  45  14  46  14
M  END
>  <minimizedAffinity>  (1) 
-5.25930071

>  <minimizedRMSD>  (1) 
0.702493906

$$$$
