
     RDKit          3D

 45 48  0  0  1  0  0  0  0  0999 V2000
   46.8110   33.3190   45.0550 C   0  0  0  0  0  0  0  0  0  0  0  0
   45.7930   34.1500   44.3510 C   0  0  0  0  0  0  0  0  0  0  0  0
   44.9970   34.9890   45.0740 C   0  0  0  0  0  0  0  0  0  0  0  0
   44.1560   35.6310   44.2030 C   0  0  0  0  0  0  0  0  0  0  0  0
   44.5090   35.1240   42.9710 N   0  0  0  0  0  0  0  0  0  0  0  0
   45.4760   34.2460   43.0480 N   0  0  0  0  0  0  0  0  0  0  0  0
   44.4120   34.7070   40.5990 N   0  0  0  0  0  0  0  0  0  0  0  0
   43.2760   34.2610   39.8200 C   0  0  0  0  0  0  0  0  0  0  0  0
   42.2400   34.0080   40.9180 C   0  0  0  0  0  0  0  0  0  0  0  0
   42.3940   35.2730   41.7440 C   0  0  0  0  0  0  0  0  0  0  0  0
   43.8930   35.4990   41.6920 C   0  0  1  0  0  0  0  0  0  0  0  0
   46.2530   31.9790   45.2620 C   0  0  2  0  0  0  0  0  0  0  0  0
   45.8240   32.2790   48.9090 C   0  0  0  0  0  0  0  0  0  0  0  0
   45.2910   30.9720   49.2360 C   0  0  0  0  0  0  0  0  0  0  0  0
   45.1060   30.0270   48.1740 C   0  0  0  0  0  0  0  0  0  0  0  0
   45.4420   30.4000   46.9000 N   0  0  0  0  0  0  0  0  0  0  0  0
   45.9330   31.6260   46.6550 C   0  0  0  0  0  0  0  0  0  0  0  0
   46.1200   32.5480   47.6490 N   0  0  0  0  0  0  0  0  0  0  0  0
   47.2090   30.8940   44.6980 C   0  0  0  0  0  0  0  0  0  0  0  0
   47.5630   31.2050   43.2930 C   0  0  0  0  0  0  0  0  0  0  0  0
   48.8680   31.4860   42.8860 C   0  0  0  0  0  0  0  0  0  0  0  0
   48.7460   31.7120   41.5300 C   0  0  0  0  0  0  0  0  0  0  0  0
   47.4270   31.5710   41.1520 C   0  0  0  0  0  0  0  0  0  0  0  0
   46.7730   31.2680   42.2480 O   0  0  0  0  0  0  0  0  0  0  0  0
   47.0544   33.7740   46.0264 H   0  0  0  0  0  0  0  0  0  0  0  0
   47.7295   33.2567   44.4529 H   0  0  0  0  0  0  0  0  0  0  0  0
   45.0251   35.1263   46.1650 H   0  0  0  0  0  0  0  0  0  0  0  0
   43.3806   36.3765   44.4333 H   0  0  0  0  0  0  0  0  0  0  0  0
   45.0386   35.2787   40.0147 H   0  0  0  0  0  0  0  0  0  0  0  0
   42.9382   35.0386   39.1191 H   0  0  0  0  0  0  0  0  0  0  0  0
   43.4810   33.3871   39.1842 H   0  0  0  0  0  0  0  0  0  0  0  0
   41.2250   33.9146   40.5044 H   0  0  0  0  0  0  0  0  0  0  0  0
   42.3877   33.0739   41.4799 H   0  0  0  0  0  0  0  0  0  0  0  0
   41.8466   36.1142   41.2937 H   0  0  0  0  0  0  0  0  0  0  0  0
   41.9919   35.1896   42.7645 H   0  0  0  0  0  0  0  0  0  0  0  0
   44.1270   36.5608   41.5252 H   0  0  0  0  0  0  0  0  0  0  0  0
   45.2964   32.0095   44.7198 H   0  0  0  0  0  0  0  0  0  0  0  0
   45.9794   33.0333   49.6944 H   0  0  0  0  0  0  0  0  0  0  0  0
   45.0346   30.7113   50.2735 H   0  0  0  0  0  0  0  0  0  0  0  0
   44.7029   29.0241   48.3781 H   0  0  0  0  0  0  0  0  0  0  0  0
   48.1253   30.8654   45.3059 H   0  0  0  0  0  0  0  0  0  0  0  0
   46.7045   29.9172   44.7335 H   0  0  0  0  0  0  0  0  0  0  0  0
   49.7793   31.5195   43.5012 H   0  0  0  0  0  0  0  0  0  0  0  0
   49.5751   31.9661   40.8532 H   0  0  0  0  0  0  0  0  0  0  0  0
   47.0099   31.6883   40.1409 H   0  0  0  0  0  0  0  0  0  0  0  0
  1 12  1  0
  2  1  1  0
  2  3  1  0
  4  3  2  0
  5  6  1  0
  5  4  1  0
  6  2  2  0
  7 11  1  0
  8  7  1  0
  8  9  1  0
  9 10  1  0
 11 10  1  0
 11  5  1  0
 12 17  1  0
 13 14  2  0
 15 14  1  0
 16 15  2  0
 17 16  1  0
 17 18  2  0
 18 13  1  0
 19 12  1  0
 20 19  1  0
 21 20  2  0
 22 21  1  0
 23 22  2  0
 23 24  1  0
 24 20  1  0
  1 25  1  0
  1 26  1  0
  3 27  1  0
  4 28  1  0
  7 29  1  0
  8 30  1  0
  8 31  1  0
  9 32  1  0
  9 33  1  0
 10 34  1  0
 10 35  1  0
 11 36  1  6
 12 37  1  6
 13 38  1  0
 14 39  1  0
 15 40  1  0
 19 41  1  0
 19 42  1  0
 21 43  1  0
 22 44  1  0
 23 45  1  0
M  ISO  8  25   8  26   8  27  14  28  14  29   5  30  13  31  13  32  13
M  ISO  8  33  13  34  13  35  13  36  13  37   8  38  14  39  14  40  14
M  ISO  5  41   8  42   8  43  14  44  14  45  14
M  END
>  <minimizedAffinity>  (1) 
-5.18962669

>  <minimizedRMSD>  (1) 
0.511005521

$$$$
