
     RDKit          3D

 45 48  0  0  1  0  0  0  0  0999 V2000
   46.7600   33.3650   45.1020 C   0  0  0  0  0  0  0  0  0  0  0  0
   45.7620   34.1870   44.3710 C   0  0  0  0  0  0  0  0  0  0  0  0
   44.9750   35.0630   45.0660 C   0  0  0  0  0  0  0  0  0  0  0  0
   44.1480   35.6960   44.1770 C   0  0  0  0  0  0  0  0  0  0  0  0
   44.4950   35.1500   42.9640 N   0  0  0  0  0  0  0  0  0  0  0  0
   45.4480   34.2580   43.0710 N   0  0  0  0  0  0  0  0  0  0  0  0
   44.4110   34.6990   40.6050 N   0  0  0  0  0  0  0  0  0  0  0  0
   43.2850   34.2430   39.8280 C   0  0  0  0  0  0  0  0  0  0  0  0
   42.2360   34.0060   40.9190 C   0  0  0  0  0  0  0  0  0  0  0  0
   42.3870   35.2850   41.7230 C   0  0  0  0  0  0  0  0  0  0  0  0
   43.8870   35.5020   41.6760 C   0  0  1  0  0  0  0  0  0  0  0  0
   46.2160   32.0170   45.2880 C   0  0  2  0  0  0  0  0  0  0  0  0
   45.8220   32.2290   48.9440 C   0  0  0  0  0  0  0  0  0  0  0  0
   45.3240   30.9090   49.2560 C   0  0  0  0  0  0  0  0  0  0  0  0
   45.1460   29.9840   48.1860 C   0  0  0  0  0  0  0  0  0  0  0  0
   45.4590   30.4010   46.9210 N   0  0  0  0  0  0  0  0  0  0  0  0
   45.9170   31.6300   46.6810 C   0  0  0  0  0  0  0  0  0  0  0  0
   46.0990   32.5390   47.6840 N   0  0  0  0  0  0  0  0  0  0  0  0
   47.1100   30.9210   44.6610 C   0  0  0  0  0  0  0  0  0  0  0  0
   47.4460   31.1850   43.3040 N   0  0  0  0  0  0  0  0  0  0  0  0
   48.6700   31.5810   42.9800 N   0  0  0  0  0  0  0  0  0  0  0  0
   48.8120   31.7900   41.6770 C   0  0  0  0  0  0  0  0  0  0  0  0
   47.6010   31.5160   41.0900 C   0  0  0  0  0  0  0  0  0  0  0  0
   46.7920   31.1480   42.1350 C   0  0  0  0  0  0  0  0  0  0  0  0
   46.9661   33.8191   46.0825 H   0  0  0  0  0  0  0  0  0  0  0  0
   47.6961   33.3142   44.5265 H   0  0  0  0  0  0  0  0  0  0  0  0
   45.0017   35.2305   46.1529 H   0  0  0  0  0  0  0  0  0  0  0  0
   43.3855   36.4612   44.3845 H   0  0  0  0  0  0  0  0  0  0  0  0
   45.0415   35.2623   40.0167 H   0  0  0  0  0  0  0  0  0  0  0  0
   42.9539   35.0098   39.1122 H   0  0  0  0  0  0  0  0  0  0  0  0
   43.4961   33.3582   39.2095 H   0  0  0  0  0  0  0  0  0  0  0  0
   41.2250   33.9076   40.4970 H   0  0  0  0  0  0  0  0  0  0  0  0
   42.3736   33.0801   41.4967 H   0  0  0  0  0  0  0  0  0  0  0  0
   41.8461   36.1199   41.2536 H   0  0  0  0  0  0  0  0  0  0  0  0
   41.9763   35.2234   42.7416 H   0  0  0  0  0  0  0  0  0  0  0  0
   44.1234   36.5604   41.4918 H   0  0  0  0  0  0  0  0  0  0  0  0
   45.2543   32.0823   44.7581 H   0  0  0  0  0  0  0  0  0  0  0  0
   45.9701   32.9699   49.7435 H   0  0  0  0  0  0  0  0  0  0  0  0
   45.0883   30.6252   50.2923 H   0  0  0  0  0  0  0  0  0  0  0  0
   44.7690   28.9674   48.3714 H   0  0  0  0  0  0  0  0  0  0  0  0
   48.0397   30.8509   45.2448 H   0  0  0  0  0  0  0  0  0  0  0  0
   46.5397   29.9806   44.6812 H   0  0  0  0  0  0  0  0  0  0  0  0
   49.7272   32.1204   41.1639 H   0  0  0  0  0  0  0  0  0  0  0  0
   47.3391   31.5777   40.0234 H   0  0  0  0  0  0  0  0  0  0  0  0
   45.7364   30.8582   42.0267 H   0  0  0  0  0  0  0  0  0  0  0  0
  1 12  1  0
  2  3  1  0
  2  1  1  0
  4  3  2  0
  5  6  1  0
  5  4  1  0
  6  2  2  0
  7 11  1  0
  8  7  1  0
  8  9  1  0
  9 10  1  0
 11 10  1  0
 11  5  1  0
 12 17  1  0
 13 14  2  0
 15 14  1  0
 16 15  2  0
 17 16  1  0
 17 18  2  0
 18 13  1  0
 19 12  1  0
 20 19  1  0
 21 20  1  0
 22 21  2  0
 23 22  1  0
 23 24  2  0
 24 20  1  0
  1 25  1  0
  1 26  1  0
  3 27  1  0
  4 28  1  0
  7 29  1  0
  8 30  1  0
  8 31  1  0
  9 32  1  0
  9 33  1  0
 10 34  1  0
 10 35  1  0
 11 36  1  6
 12 37  1  6
 13 38  1  0
 14 39  1  0
 15 40  1  0
 19 41  1  0
 19 42  1  0
 22 43  1  0
 23 44  1  0
 24 45  1  0
M  ISO  8  25   8  26   8  27  14  28  14  29   5  30  13  31  13  32  13
M  ISO  8  33  13  34  13  35  13  36  13  37   8  38  14  39  14  40  14
M  ISO  5  41   8  42   8  43  14  44  14  45  14
M  END
>  <minimizedAffinity>  (1) 
-5.13939619

>  <minimizedRMSD>  (1) 
0.636169553

$$$$
