
     RDKit          3D

 40 42  0  0  1  0  0  0  0  0999 V2000
   46.7050   33.1990   45.0560 C   0  0  0  0  0  0  0  0  0  0  0  0
   45.7390   34.0860   44.3480 C   0  0  0  0  0  0  0  0  0  0  0  0
   45.0220   34.9990   45.0570 C   0  0  0  0  0  0  0  0  0  0  0  0
   44.2170   35.6790   44.1810 C   0  0  0  0  0  0  0  0  0  0  0  0
   44.5060   35.1190   42.9650 N   0  0  0  0  0  0  0  0  0  0  0  0
   45.4120   34.1660   43.0400 N   0  0  0  0  0  0  0  0  0  0  0  0
   44.4080   34.7040   40.5860 N   0  0  0  0  0  0  0  0  0  0  0  0
   43.2790   34.2740   39.8000 C   0  0  0  0  0  0  0  0  0  0  0  0
   42.2340   34.0360   40.8920 C   0  0  0  0  0  0  0  0  0  0  0  0
   42.3980   35.2930   41.7250 C   0  0  0  0  0  0  0  0  0  0  0  0
   43.9010   35.5020   41.6810 C   0  0  1  0  0  0  0  0  0  0  0  0
   46.0530   31.9120   45.3160 C   0  0  2  0  0  0  0  0  0  0  0  0
   45.8510   32.2660   48.9780 C   0  0  0  0  0  0  0  0  0  0  0  0
   45.3970   30.9480   49.3600 C   0  0  0  0  0  0  0  0  0  0  0  0
   45.1840   29.9790   48.3340 C   0  0  0  0  0  0  0  0  0  0  0  0
   45.4190   30.3390   47.0320 N   0  0  0  0  0  0  0  0  0  0  0  0
   45.8400   31.5800   46.7360 C   0  0  0  0  0  0  0  0  0  0  0  0
   46.0540   32.5310   47.6950 N   0  0  0  0  0  0  0  0  0  0  0  0
   46.8450   30.7520   44.6510 C   0  0  0  0  0  0  0  0  0  0  0  0
   45.9130   29.8630   43.9840 N   0  0  0  0  0  0  0  0  0  0  0  0
   47.0044   33.6619   46.0079 H   0  0  0  0  0  0  0  0  0  0  0  0
   47.6012   33.0482   44.4362 H   0  0  0  0  0  0  0  0  0  0  0  0
   45.0785   35.1628   46.1433 H   0  0  0  0  0  0  0  0  0  0  0  0
   43.5043   36.4869   44.4029 H   0  0  0  0  0  0  0  0  0  0  0  0
   45.0452   35.2683   40.0059 H   0  0  0  0  0  0  0  0  0  0  0  0
   42.9564   35.0552   39.0960 H   0  0  0  0  0  0  0  0  0  0  0  0
   43.4771   33.3983   39.1645 H   0  0  0  0  0  0  0  0  0  0  0  0
   41.2204   33.9588   40.4718 H   0  0  0  0  0  0  0  0  0  0  0  0
   42.3677   33.0989   41.4523 H   0  0  0  0  0  0  0  0  0  0  0  0
   41.8623   36.1429   41.2770 H   0  0  0  0  0  0  0  0  0  0  0  0
   41.9900   35.2087   42.7430 H   0  0  0  0  0  0  0  0  0  0  0  0
   44.1550   36.5599   41.5190 H   0  0  0  0  0  0  0  0  0  0  0  0
   45.0526   32.0279   44.8735 H   0  0  0  0  0  0  0  0  0  0  0  0
   46.0257   33.0385   49.7413 H   0  0  0  0  0  0  0  0  0  0  0  0
   45.2199   30.6977   50.4164 H   0  0  0  0  0  0  0  0  0  0  0  0
   44.8386   28.9647   48.5826 H   0  0  0  0  0  0  0  0  0  0  0  0
   47.5526   31.1629   43.9158 H   0  0  0  0  0  0  0  0  0  0  0  0
   47.4030   30.1960   45.4188 H   0  0  0  0  0  0  0  0  0  0  0  0
   45.3693   29.3443   44.6884 H   0  0  0  0  0  0  0  0  0  0  0  0
   45.2735   30.4152   43.3950 H   0  0  0  0  0  0  0  0  0  0  0  0
  1 12  1  0
  2  1  1  0
  2  3  1  0
  4  3  2  0
  5  6  1  0
  5  4  1  0
  6  2  2  0
  7 11  1  0
  8  7  1  0
  8  9  1  0
  9 10  1  0
 11 10  1  0
 11  5  1  0
 12 17  1  0
 13 14  2  0
 15 14  1  0
 16 15  2  0
 17 16  1  0
 17 18  2  0
 18 13  1  0
 19 12  1  0
 20 19  1  0
  1 21  1  0
  1 22  1  0
  3 23  1  0
  4 24  1  0
  7 25  1  0
  8 26  1  0
  8 27  1  0
  9 28  1  0
  9 29  1  0
 10 30  1  0
 10 31  1  0
 11 32  1  6
 12 33  1  6
 13 34  1  0
 14 35  1  0
 15 36  1  0
 19 37  1  0
 19 38  1  0
 20 39  1  0
 20 40  1  0
M  ISO  8  21   8  22   8  23  14  24  14  25   5  26  13  27  13  28  13
M  ISO  8  29  13  30  13  31  13  32  13  33   8  34  14  35  14  36  14
M  ISO  4  37   8  38   8  39   5  40   5
M  END
>  <minimizedAffinity>  (1) 
-4.94968271

>  <minimizedRMSD>  (1) 
0.234608948

$$$$
