
     RDKit          3D

 39 41  0  0  1  0  0  0  0  0999 V2000
   45.7640   34.0990   44.3500 C   0  0  0  0  0  0  0  0  0  0  0  0
   45.0080   34.9760   45.0660 C   0  0  0  0  0  0  0  0  0  0  0  0
   44.1840   35.6460   44.1910 C   0  0  0  0  0  0  0  0  0  0  0  0
   44.5080   35.1140   42.9730 N   0  0  0  0  0  0  0  0  0  0  0  0
   45.4400   34.1980   43.0520 N   0  0  0  0  0  0  0  0  0  0  0  0
   44.4120   34.6990   40.5950 N   0  0  0  0  0  0  0  0  0  0  0  0
   43.2870   34.2500   39.8100 C   0  0  0  0  0  0  0  0  0  0  0  0
   42.2390   34.0180   40.9000 C   0  0  0  0  0  0  0  0  0  0  0  0
   42.4040   35.2790   41.7290 C   0  0  0  0  0  0  0  0  0  0  0  0
   43.9050   35.4910   41.6830 C   0  0  1  0  0  0  0  0  0  0  0  0
   46.7510   33.2370   45.0600 C   0  0  0  0  0  0  0  0  0  0  0  0
   46.1240   31.9350   45.3220 C   0  0  2  0  0  0  0  0  0  0  0  0
   45.9740   32.2860   48.9870 C   0  0  0  0  0  0  0  0  0  0  0  0
   45.3800   31.0240   49.3590 C   0  0  0  0  0  0  0  0  0  0  0  0
   45.0630   30.0990   48.3360 C   0  0  0  0  0  0  0  0  0  0  0  0
   45.3290   30.4340   47.0330 N   0  0  0  0  0  0  0  0  0  0  0  0
   45.8820   31.6180   46.7350 C   0  0  0  0  0  0  0  0  0  0  0  0
   46.1990   32.5300   47.7060 N   0  0  0  0  0  0  0  0  0  0  0  0
   46.9760   30.7920   44.7030 C   0  0  0  0  0  0  0  0  0  0  0  0
   47.8600   30.4060   45.7040 O   0  0  0  0  0  0  0  0  0  0  0  0
   45.0488   35.1235   46.1553 H   0  0  0  0  0  0  0  0  0  0  0  0
   43.4409   36.4248   44.4173 H   0  0  0  0  0  0  0  0  0  0  0  0
   45.0409   35.2686   40.0111 H   0  0  0  0  0  0  0  0  0  0  0  0
   42.9614   35.0198   39.0948 H   0  0  0  0  0  0  0  0  0  0  0  0
   43.4942   33.3673   39.1872 H   0  0  0  0  0  0  0  0  0  0  0  0
   41.2262   33.9412   40.4776 H   0  0  0  0  0  0  0  0  0  0  0  0
   42.3691   33.0827   41.4642 H   0  0  0  0  0  0  0  0  0  0  0  0
   41.8665   36.1266   41.2789 H   0  0  0  0  0  0  0  0  0  0  0  0
   41.9983   35.1966   42.7481 H   0  0  0  0  0  0  0  0  0  0  0  0
   44.1594   36.5481   41.5160 H   0  0  0  0  0  0  0  0  0  0  0  0
   47.6440   33.0999   44.4325 H   0  0  0  0  0  0  0  0  0  0  0  0
   47.0533   33.7087   46.0066 H   0  0  0  0  0  0  0  0  0  0  0  0
   45.1334   32.0142   44.8504 H   0  0  0  0  0  0  0  0  0  0  0  0
   46.2346   33.0305   49.7537 H   0  0  0  0  0  0  0  0  0  0  0  0
   45.1783   30.7867   50.4140 H   0  0  0  0  0  0  0  0  0  0  0  0
   44.6105   29.1270   48.5820 H   0  0  0  0  0  0  0  0  0  0  0  0
   46.3336   29.9483   44.4107 H   0  0  0  0  0  0  0  0  0  0  0  0
   47.5040   31.1210   43.7959 H   0  0  0  0  0  0  0  0  0  0  0  0
   47.4539   30.5833   46.5893 H   0  0  0  0  0  0  0  0  0  0  0  0
  1 11  1  0
  1  2  1  0
  3  2  2  0
  4  5  1  0
  4  3  1  0
  5  1  2  0
  6 10  1  0
  7  6  1  0
  7  8  1  0
  8  9  1  0
 10  9  1  0
 10  4  1  0
 11 12  1  0
 12 17  1  0
 13 14  2  0
 15 14  1  0
 16 15  2  0
 17 16  1  0
 17 18  2  0
 18 13  1  0
 19 12  1  0
 19 20  1  0
  2 21  1  0
  3 22  1  0
  6 23  1  0
  7 24  1  0
  7 25  1  0
  8 26  1  0
  8 27  1  0
  9 28  1  0
  9 29  1  0
 10 30  1  6
 11 31  1  0
 11 32  1  0
 12 33  1  6
 13 34  1  0
 14 35  1  0
 15 36  1  0
 19 37  1  0
 19 38  1  0
 20 39  1  0
M  ISO  8  21  14  22  14  23   5  24  13  25  13  26  13  27  13  28  13
M  ISO  8  29  13  30  13  31   8  32   8  33   8  34  14  35  14  36  14
M  ISO  3  37   8  38   8  39   3
M  END
>  <minimizedAffinity>  (1) 
-5.0120225

>  <minimizedRMSD>  (1) 
0.165130287

$$$$
