
     RDKit          3D

 43 46  0  0  0  0  0  0  0  0999 V2000
   47.3250   34.1580   40.1620 C   0  0  0  0  0  0  0  0  0  0  0  0
   46.6500   34.4380   41.3620 C   0  0  0  0  0  0  0  0  0  0  0  0
   47.0760   34.0200   42.6230 C   0  0  0  0  0  0  0  0  0  0  0  0
   48.2030   33.3320   42.4940 N   0  0  0  0  0  0  0  0  0  0  0  0
   48.8870   33.0330   41.4220 C   0  0  0  0  0  0  0  0  0  0  0  0
   48.4460   33.4500   40.2350 N   0  0  0  0  0  0  0  0  0  0  0  0
   46.1960   34.4470   43.6910 C   0  0  0  0  0  0  0  0  0  0  0  0
   45.4030   35.5310   43.6040 N   0  0  0  0  0  0  0  0  0  0  0  0
   44.5920   35.9360   44.5830 C   0  0  0  0  0  0  0  0  0  0  0  0
   44.5240   35.2530   45.7550 N   0  0  0  0  0  0  0  0  0  0  0  0
   45.2790   34.1560   45.9340 C   0  0  0  0  0  0  0  0  0  0  0  0
   45.1970   33.4830   47.1170 C   0  0  0  0  0  0  0  0  0  0  0  0
   45.9800   32.3380   47.3160 C   0  0  0  0  0  0  0  0  0  0  0  0
   46.8100   31.9300   46.3010 C   0  0  0  0  0  0  0  0  0  0  0  0
   46.8340   32.6690   45.1340 C   0  0  0  0  0  0  0  0  0  0  0  0
   46.0960   33.7870   44.8880 C   0  0  0  0  0  0  0  0  0  0  0  0
   50.1180   32.2330   41.6600 C   0  0  0  0  0  0  0  0  0  0  0  0
   50.6700   31.7800   40.3150 C   0  0  0  0  0  0  0  0  0  0  0  0
   51.1780   33.1420   42.2560 C   0  0  0  0  0  0  0  0  0  0  0  0
   49.8880   31.0450   42.5640 C   0  0  0  0  0  0  0  0  0  0  0  0
   49.3700   29.9080   41.7940 C   0  0  0  0  0  0  0  0  0  0  0  0
   49.9840   28.7590   41.3500 C   0  0  0  0  0  0  0  0  0  0  0  0
   48.9690   28.0860   40.6850 C   0  0  0  0  0  0  0  0  0  0  0  0
   47.8120   28.8350   40.7510 C   0  0  0  0  0  0  0  0  0  0  0  0
   48.0980   29.9060   41.4170 O   0  0  0  0  0  0  0  0  0  0  0  0
   46.9382   34.5130   39.1954 H   0  0  0  0  0  0  0  0  0  0  0  0
   45.7227   35.0268   41.3033 H   0  0  0  0  0  0  0  0  0  0  0  0
   43.9716   36.8329   44.4393 H   0  0  0  0  0  0  0  0  0  0  0  0
   44.5210   33.8364   47.9096 H   0  0  0  0  0  0  0  0  0  0  0  0
   45.9309   31.7795   48.2624 H   0  0  0  0  0  0  0  0  0  0  0  0
   47.4408   31.0360   46.4144 H   0  0  0  0  0  0  0  0  0  0  0  0
   47.5070   32.3249   44.3348 H   0  0  0  0  0  0  0  0  0  0  0  0
   51.5110   31.0898   40.4775 H   0  0  0  0  0  0  0  0  0  0  0  0
   49.8791   31.2672   39.7480 H   0  0  0  0  0  0  0  0  0  0  0  0
   51.0186   32.6558   39.7480 H   0  0  0  0  0  0  0  0  0  0  0  0
   51.1249   33.0965   43.3538 H   0  0  0  0  0  0  0  0  0  0  0  0
   52.1732   32.8123   41.9230 H   0  0  0  0  0  0  0  0  0  0  0  0
   51.0039   34.1758   41.9230 H   0  0  0  0  0  0  0  0  0  0  0  0
   50.8396   30.7594   43.0362 H   0  0  0  0  0  0  0  0  0  0  0  0
   49.1514   31.3198   43.3333 H   0  0  0  0  0  0  0  0  0  0  0  0
   51.0300   28.4483   41.4892 H   0  0  0  0  0  0  0  0  0  0  0  0
   49.0705   27.1114   40.1852 H   0  0  0  0  0  0  0  0  0  0  0  0
   46.8347   28.5718   40.3201 H   0  0  0  0  0  0  0  0  0  0  0  0
  1  6  2  0
  1  2  1  0
  2  3  2  0
  3  7  1  0
  4  3  1  0
  5 17  1  0
  5  4  2  0
  6  5  1  0
  7 16  1  0
  8  7  2  0
  8  9  1  0
  9 10  2  0
 10 11  1  0
 11 12  2  0
 12 13  1  0
 14 13  2  0
 15 14  1  0
 16 15  2  0
 16 11  1  0
 17 19  1  0
 17 20  1  0
 18 17  1  0
 21 20  1  0
 22 21  2  0
 23 24  2  0
 23 22  1  0
 24 25  1  0
 25 21  1  0
  1 26  1  0
  2 27  1  0
  9 28  1  0
 12 29  1  0
 13 30  1  0
 14 31  1  0
 15 32  1  0
 18 33  1  0
 18 34  1  0
 18 35  1  0
 19 36  1  0
 19 37  1  0
 19 38  1  0
 20 39  1  0
 20 40  1  0
 22 41  1  0
 23 42  1  0
 24 43  1  0
M  ISO  8  26  14  27  14  28  14  29  14  30  14  31  14  32  14  33   8
M  ISO  8  34   8  35   8  36   8  37   8  38   8  39   8  40   8  41  14
M  ISO  2  42  14  43  14
M  END
>  <minimizedAffinity>  (1) 
-5.24482965

>  <minimizedRMSD>  (1) 
0.507044792

$$$$
