
     RDKit          3D

 37 40  0  0  1  0  0  0  0  0999 V2000
   44.4500   35.9310   44.7940 C   0  0  0  0  0  0  0  0  0  0  0  0
   45.0710   35.9160   43.5230 C   0  0  0  0  0  0  0  0  0  0  0  0
   45.9960   34.9050   43.2690 C   0  0  0  0  0  0  0  0  0  0  0  0
   46.2410   33.9940   44.2620 N   0  0  0  0  0  0  0  0  0  0  0  0
   45.6350   34.0360   45.4520 C   0  0  0  0  0  0  0  0  0  0  0  0
   44.7500   34.9930   45.7170 N   0  0  0  0  0  0  0  0  0  0  0  0
   45.9540   33.0500   46.4140 N   0  0  0  0  0  0  0  0  0  0  0  0
   45.1450   33.0650   47.6290 C   0  0  0  0  0  0  0  0  0  0  0  0
   45.5410   32.0480   48.6430 C   0  0  0  0  0  0  0  0  0  0  0  0
   46.8080   31.5620   48.4310 O   0  0  0  0  0  0  0  0  0  0  0  0
   46.8390   30.9640   47.1840 C   0  0  0  0  0  0  0  0  0  0  0  0
   47.0140   32.0960   46.1970 C   0  0  1  0  0  0  0  0  0  0  0  0
   47.0930   31.6450   44.8340 N   0  0  0  0  0  0  0  0  0  0  0  0
   47.4900   32.6320   43.8840 C   0  0  1  0  0  0  0  0  0  0  0  0
   47.6320   31.9120   42.5510 C   0  0  0  0  0  0  0  0  0  0  0  0
   46.3210   31.5340   42.0580 N   0  0  0  0  0  0  0  0  0  0  0  0
   45.3770   31.5350   43.1470 C   0  0  0  0  0  0  0  0  0  0  0  0
   45.9170   30.9470   44.4250 C   0  0  0  0  0  0  0  0  0  0  0  0
   43.7157   36.7146   45.0323 H   0  0  0  0  0  0  0  0  0  0  0  0
   44.8325   36.6746   42.7630 H   0  0  0  0  0  0  0  0  0  0  0  0
   45.6367   34.3453   42.3929 H   0  0  0  0  0  0  0  0  0  0  0  0
   46.9520   35.4333   43.1385 H   0  0  0  0  0  0  0  0  0  0  0  0
   45.2317   34.0608   48.0881 H   0  0  0  0  0  0  0  0  0  0  0  0
   44.1162   32.8219   47.3249 H   0  0  0  0  0  0  0  0  0  0  0  0
   45.5024   32.5102   49.6404 H   0  0  0  0  0  0  0  0  0  0  0  0
   44.8404   31.2038   48.5621 H   0  0  0  0  0  0  0  0  0  0  0  0
   47.6821   30.2608   47.1158 H   0  0  0  0  0  0  0  0  0  0  0  0
   45.9236   30.3873   46.9852 H   0  0  0  0  0  0  0  0  0  0  0  0
   47.9836   32.5846   46.3734 H   0  0  0  0  0  0  0  0  0  0  0  0
   48.4647   33.1418   43.8950 H   0  0  0  0  0  0  0  0  0  0  0  0
   48.1174   32.5801   41.8243 H   0  0  0  0  0  0  0  0  0  0  0  0
   48.2443   31.0085   42.6881 H   0  0  0  0  0  0  0  0  0  0  0  0
   46.0173   32.2074   41.3403 H   0  0  0  0  0  0  0  0  0  0  0  0
   45.0769   32.5748   43.3440 H   0  0  0  0  0  0  0  0  0  0  0  0
   44.5320   30.9025   42.8371 H   0  0  0  0  0  0  0  0  0  0  0  0
   46.1625   29.8873   44.2614 H   0  0  0  0  0  0  0  0  0  0  0  0
   45.1540   31.0402   45.2119 H   0  0  0  0  0  0  0  0  0  0  0  0
  1  6  1  0
  2  1  2  0
  3  2  1  0
  3  4  1  0
  4  5  1  0
  5  6  2  0
  5  7  1  0
  7  8  1  0
  8  9  1  0
 10  9  1  0
 11 10  1  0
 12  7  1  0
 12 11  1  0
 13 18  1  0
 13 12  1  0
 14 15  1  0
 14  4  1  0
 14 13  1  0
 16 15  1  0
 16 17  1  0
 17 18  1  0
  1 19  1  0
  2 20  1  0
  3 21  1  0
  3 22  1  0
  8 23  1  0
  8 24  1  0
  9 25  1  0
  9 26  1  0
 11 27  1  0
 11 28  1  0
 12 29  1  1
 14 30  1  1
 15 31  1  0
 15 32  1  0
 16 33  1  0
 17 34  1  0
 17 35  1  0
 18 36  1  0
 18 37  1  0
M  ISO  8  19  13  20  13  21  13  22  13  23  13  24  13  25  13  26  13
M  ISO  8  27  13  28  13  29  13  30  13  31  13  32  13  33   5  34  13
M  ISO  3  35  13  36  13  37  13
M  END
>  <minimizedAffinity>  (1) 
-5.00513315

>  <minimizedRMSD>  (1) 
0.935704231

$$$$
