
     RDKit          3D

 39 42  0  0  1  0  0  0  0  0999 V2000
   44.4910   35.9880   44.5430 C   0  0  0  0  0  0  0  0  0  0  0  0
   44.7020   35.9480   43.1470 C   0  0  0  0  0  0  0  0  0  0  0  0
   45.4070   34.8670   42.6450 C   0  0  0  0  0  0  0  0  0  0  0  0
   45.8490   33.9170   43.5270 N   0  0  0  0  0  0  0  0  0  0  0  0
   45.6290   33.9910   44.8400 C   0  0  0  0  0  0  0  0  0  0  0  0
   44.9550   35.0160   45.3580 N   0  0  0  0  0  0  0  0  0  0  0  0
   46.1330   32.9530   45.6590 N   0  0  0  0  0  0  0  0  0  0  0  0
   45.6410   32.9300   47.0270 C   0  0  0  0  0  0  0  0  0  0  0  0
   46.2630   31.9070   47.9050 C   0  0  0  0  0  0  0  0  0  0  0  0
   47.4960   31.4850   47.4120 O   0  0  0  0  0  0  0  0  0  0  0  0
   47.2760   30.9000   46.1810 C   0  0  0  0  0  0  0  0  0  0  0  0
   47.0730   31.9880   45.1810 C   0  0  1  0  0  0  0  0  0  0  0  0
   46.9780   31.5620   43.7920 C   0  0  0  0  0  0  0  0  0  0  0  0
   45.9340   30.7760   43.2830 C   0  0  0  0  0  0  0  0  0  0  0  0
   45.7930   30.3390   42.0070 C   0  0  0  0  0  0  0  0  0  0  0  0
   46.7440   30.6770   41.0980 C   0  0  0  0  0  0  0  0  0  0  0  0
   47.8160   31.4440   41.4800 C   0  0  0  0  0  0  0  0  0  0  0  0
   48.7670   31.7810   40.5490 C   0  0  0  0  0  0  0  0  0  0  0  0
   49.8460   32.5570   40.9150 C   0  0  0  0  0  0  0  0  0  0  0  0
   49.9920   33.0100   42.2300 C   0  0  0  0  0  0  0  0  0  0  0  0
   48.9930   32.6240   43.0990 C   0  0  0  0  0  0  0  0  0  0  0  0
   47.9000   31.8560   42.7900 C   0  0  0  0  0  0  0  0  0  0  0  0
   43.9349   36.8319   44.9773 H   0  0  0  0  0  0  0  0  0  0  0  0
   44.3225   36.7417   42.4867 H   0  0  0  0  0  0  0  0  0  0  0  0
   45.6066   34.7738   41.5673 H   0  0  0  0  0  0  0  0  0  0  0  0
   45.8264   33.9187   47.4721 H   0  0  0  0  0  0  0  0  0  0  0  0
   44.5741   32.6700   46.9635 H   0  0  0  0  0  0  0  0  0  0  0  0
   46.4082   32.3378   48.9067 H   0  0  0  0  0  0  0  0  0  0  0  0
   45.5929   31.0355   47.9437 H   0  0  0  0  0  0  0  0  0  0  0  0
   48.1463   30.2901   45.8971 H   0  0  0  0  0  0  0  0  0  0  0  0
   46.3903   30.2489   46.2211 H   0  0  0  0  0  0  0  0  0  0  0  0
   48.0173   32.5463   45.0993 H   0  0  0  0  0  0  0  0  0  0  0  0
   45.1468   30.4832   43.9934 H   0  0  0  0  0  0  0  0  0  0  0  0
   44.9284   29.7249   41.7149 H   0  0  0  0  0  0  0  0  0  0  0  0
   46.6549   30.3361   40.0560 H   0  0  0  0  0  0  0  0  0  0  0  0
   48.6680   31.4317   39.5106 H   0  0  0  0  0  0  0  0  0  0  0  0
   50.6026   32.8236   40.1623 H   0  0  0  0  0  0  0  0  0  0  0  0
   50.8430   33.6300   42.5485 H   0  0  0  0  0  0  0  0  0  0  0  0
   49.0817   32.9653   44.1409 H   0  0  0  0  0  0  0  0  0  0  0  0
  1  6  2  0
  2  1  1  0
  3  2  2  0
  3  4  1  0
  4  5  2  0
  5  6  1  0
  5  7  1  0
  7  8  1  0
  8  9  1  0
 10  9  1  0
 11 10  1  0
 12  7  1  0
 12 11  1  0
 13 12  1  0
 14 13  2  0
 15 14  1  0
 16 17  1  0
 16 15  2  0
 17 22  2  0
 18 19  2  0
 18 17  1  0
 19 20  1  0
 20 21  2  0
 22 21  1  0
 22 13  1  0
  1 23  1  0
  2 24  1  0
  3 25  1  0
  8 26  1  0
  8 27  1  0
  9 28  1  0
  9 29  1  0
 11 30  1  0
 11 31  1  0
 12 32  1  6
 14 33  1  0
 15 34  1  0
 16 35  1  0
 18 36  1  0
 19 37  1  0
 20 38  1  0
 21 39  1  0
M  ISO  8  23  14  24  14  25  14  26  13  27  13  28  13  29  13  30  13
M  ISO  8  31  13  32  13  33  14  34  14  35  14  36  14  37  14  38  14
M  ISO  1  39  14
M  END
>  <minimizedAffinity>  (1) 
-5.07331324

>  <minimizedRMSD>  (1) 
2.37590814

$$$$
