
     RDKit          3D

 36 38  0  0  1  0  0  0  0  0999 V2000
   44.4430   36.0750   44.7810 C   0  0  0  0  0  0  0  0  0  0  0  0
   44.9770   36.0580   43.4720 C   0  0  0  0  0  0  0  0  0  0  0  0
   45.8330   35.0240   43.1270 C   0  0  0  0  0  0  0  0  0  0  0  0
   46.1100   34.0870   44.0740 N   0  0  0  0  0  0  0  0  0  0  0  0
   45.6020   34.1130   45.3060 C   0  0  0  0  0  0  0  0  0  0  0  0
   44.7700   35.1020   45.6640 N   0  0  0  0  0  0  0  0  0  0  0  0
   45.9380   33.0930   46.2450 N   0  0  0  0  0  0  0  0  0  0  0  0
   45.1470   33.0370   47.4520 C   0  0  0  0  0  0  0  0  0  0  0  0
   45.6880   32.0940   48.4780 C   0  0  0  0  0  0  0  0  0  0  0  0
   46.9580   31.6240   48.1900 O   0  0  0  0  0  0  0  0  0  0  0  0
   46.9420   31.0440   46.9390 C   0  0  0  0  0  0  0  0  0  0  0  0
   47.0350   32.1830   45.9470 C   0  0  1  0  0  0  0  0  0  0  0  0
   47.0740   30.8460   41.8860 C   0  0  0  0  0  0  0  0  0  0  0  0
   45.9950   30.5150   42.7030 C   0  0  0  0  0  0  0  0  0  0  0  0
   45.9980   30.9590   44.0220 C   0  0  0  0  0  0  0  0  0  0  0  0
   47.0430   31.7200   44.5490 C   0  0  0  0  0  0  0  0  0  0  0  0
   48.0920   32.0210   43.6960 C   0  0  0  0  0  0  0  0  0  0  0  0
   48.1170   31.5960   42.3840 C   0  0  0  0  0  0  0  0  0  0  0  0
   47.1130   30.3060   40.2070 S   0  0  0  0  0  0  0  0  0  0  0  0
   47.6210   31.4100   39.3580 O   0  0  0  0  0  0  0  0  0  0  0  0
   47.9160   29.0590   40.1170 O   0  0  0  0  0  0  0  0  0  0  0  0
   43.7592   36.8819   45.0833 H   0  0  0  0  0  0  0  0  0  0  0  0
   44.7200   36.8443   42.7469 H   0  0  0  0  0  0  0  0  0  0  0  0
   46.2738   34.9629   42.1210 H   0  0  0  0  0  0  0  0  0  0  0  0
   45.1102   34.0450   47.8909 H   0  0  0  0  0  0  0  0  0  0  0  0
   44.1503   32.6681   47.1681 H   0  0  0  0  0  0  0  0  0  0  0  0
   45.7226   32.6165   49.4454 H   0  0  0  0  0  0  0  0  0  0  0  0
   45.0193   31.2208   48.4950 H   0  0  0  0  0  0  0  0  0  0  0  0
   47.7995   30.3650   46.8221 H   0  0  0  0  0  0  0  0  0  0  0  0
   46.0298   30.4492   46.7835 H   0  0  0  0  0  0  0  0  0  0  0  0
   47.9959   32.7079   46.0528 H   0  0  0  0  0  0  0  0  0  0  0  0
   45.1587   29.9156   42.3139 H   0  0  0  0  0  0  0  0  0  0  0  0
   45.1482   30.7016   44.6713 H   0  0  0  0  0  0  0  0  0  0  0  0
   48.9329   32.6187   44.0775 H   0  0  0  0  0  0  0  0  0  0  0  0
   48.9678   31.8553   41.7367 H   0  0  0  0  0  0  0  0  0  0  0  0
   45.8609   29.9983   39.7439 H   0  0  0  0  0  0  0  0  0  0  0  0
  1  6  2  0
  2  1  1  0
  3  2  2  0
  3  4  1  0
  4  5  2  0
  5  6  1  0
  5  7  1  0
  7  8  1  0
  8  9  1  0
 10  9  1  0
 11 10  1  0
 12  7  1  0
 12 11  1  0
 13 18  2  0
 13 14  1  0
 14 15  2  0
 15 16  1  0
 16 12  1  0
 17 16  2  0
 18 17  1  0
 19 13  1  0
 20 19  2  0
 21 19  2  0
  1 22  1  0
  2 23  1  0
  3 24  1  0
  8 25  1  0
  8 26  1  0
  9 27  1  0
  9 28  1  0
 11 29  1  0
 11 30  1  0
 12 31  1  1
 14 32  1  0
 15 33  1  0
 17 34  1  0
 18 35  1  0
 19 36  1  0
M  ISO  8  22  14  23  14  24  14  25  13  26  13  27  13  28  13  29  13
M  ISO  7  30  13  31  13  32  14  33  14  34  14  35  14  36  11
M  END
>  <minimizedAffinity>  (1) 
-4.69687748

>  <minimizedRMSD>  (1) 
1.13965523

$$$$
