
     RDKit          3D

 32 34  0  0  1  0  0  0  0  0999 V2000
   44.4690   35.9500   44.7400 C   0  0  0  0  0  0  0  0  0  0  0  0
   44.8750   35.8050   43.3940 C   0  0  0  0  0  0  0  0  0  0  0  0
   45.6340   34.6930   43.0710 C   0  0  0  0  0  0  0  0  0  0  0  0
   45.9360   33.8150   44.0760 N   0  0  0  0  0  0  0  0  0  0  0  0
   45.5410   33.9760   45.3380 C   0  0  0  0  0  0  0  0  0  0  0  0
   44.8110   35.0340   45.6770 N   0  0  0  0  0  0  0  0  0  0  0  0
   45.9060   33.0080   46.3110 N   0  0  0  0  0  0  0  0  0  0  0  0
   45.1670   33.0640   47.5690 C   0  0  0  0  0  0  0  0  0  0  0  0
   45.6530   32.0870   48.5910 C   0  0  0  0  0  0  0  0  0  0  0  0
   46.8900   31.5620   48.2910 O   0  0  0  0  0  0  0  0  0  0  0  0
   46.8150   30.9400   47.0620 C   0  0  0  0  0  0  0  0  0  0  0  0
   46.9510   32.0480   46.0370 C   0  0  1  0  0  0  0  0  0  0  0  0
   46.9530   31.5270   44.6540 C   0  0  0  0  0  0  0  0  0  0  0  0
   47.9850   31.7600   43.7650 C   0  0  0  0  0  0  0  0  0  0  0  0
   48.0610   31.3060   42.4680 C   0  0  0  0  0  0  0  0  0  0  0  0
   46.9690   30.5510   42.0710 C   0  0  0  0  0  0  0  0  0  0  0  0
   45.9060   30.2940   42.9370 C   0  0  0  0  0  0  0  0  0  0  0  0
   45.9210   30.7880   44.2100 N   0  0  0  0  0  0  0  0  0  0  0  0
   43.8649   36.8218   45.0315 H   0  0  0  0  0  0  0  0  0  0  0  0
   44.5983   36.5479   42.6315 H   0  0  0  0  0  0  0  0  0  0  0  0
   45.9822   34.5213   42.0418 H   0  0  0  0  0  0  0  0  0  0  0  0
   45.2626   34.0782   47.9840 H   0  0  0  0  0  0  0  0  0  0  0  0
   44.1229   32.8022   47.3424 H   0  0  0  0  0  0  0  0  0  0  0  0
   45.7162   32.5990   49.5625 H   0  0  0  0  0  0  0  0  0  0  0  0
   44.9382   31.2512   48.6117 H   0  0  0  0  0  0  0  0  0  0  0  0
   47.6309   30.2108   46.9500 H   0  0  0  0  0  0  0  0  0  0  0  0
   45.8716   30.3872   46.9419 H   0  0  0  0  0  0  0  0  0  0  0  0
   47.9254   32.5516   46.1209 H   0  0  0  0  0  0  0  0  0  0  0  0
   48.8270   32.3669   44.1292 H   0  0  0  0  0  0  0  0  0  0  0  0
   48.9122   31.5230   41.8059 H   0  0  0  0  0  0  0  0  0  0  0  0
   46.9397   30.1448   41.0492 H   0  0  0  0  0  0  0  0  0  0  0  0
   45.0525   29.6912   42.5932 H   0  0  0  0  0  0  0  0  0  0  0  0
  1  6  2  0
  2  1  1  0
  3  2  2  0
  3  4  1  0
  4  5  2  0
  5  6  1  0
  5  7  1  0
  7  8  1  0
  8  9  1  0
 10  9  1  0
 11 10  1  0
 12  7  1  0
 12 11  1  0
 13 12  1  0
 14 13  2  0
 15 14  1  0
 16 15  2  0
 16 17  1  0
 17 18  2  0
 18 13  1  0
  1 19  1  0
  2 20  1  0
  3 21  1  0
  8 22  1  0
  8 23  1  0
  9 24  1  0
  9 25  1  0
 11 26  1  0
 11 27  1  0
 12 28  1  1
 14 29  1  0
 15 30  1  0
 16 31  1  0
 17 32  1  0
M  ISO  8  19  14  20  14  21  14  22  13  23  13  24  13  25  13  26  13
M  ISO  6  27  13  28  13  29  14  30  14  31  14  32  14
M  END
>  <minimizedAffinity>  (1) 
-4.69935417

>  <minimizedRMSD>  (1) 
0.768140614

$$$$
