
     RDKit          3D

 29 31  0  0  1  0  0  0  0  0999 V2000
   44.4630   35.9610   44.7990 C   0  0  0  0  0  0  0  0  0  0  0  0
   44.9670   35.8640   43.4820 C   0  0  0  0  0  0  0  0  0  0  0  0
   45.7950   34.7890   43.1930 C   0  0  0  0  0  0  0  0  0  0  0  0
   46.0750   33.8970   44.1830 N   0  0  0  0  0  0  0  0  0  0  0  0
   45.5850   34.0160   45.4180 C   0  0  0  0  0  0  0  0  0  0  0  0
   44.7810   35.0430   45.7310 N   0  0  0  0  0  0  0  0  0  0  0  0
   45.9110   33.0520   46.4170 N   0  0  0  0  0  0  0  0  0  0  0  0
   45.1120   33.0540   47.6200 C   0  0  0  0  0  0  0  0  0  0  0  0
   45.6620   32.1910   48.7110 C   0  0  0  0  0  0  0  0  0  0  0  0
   46.9270   31.7000   48.4510 O   0  0  0  0  0  0  0  0  0  0  0  0
   46.9000   31.0400   47.2370 C   0  0  0  0  0  0  0  0  0  0  0  0
   47.0170   32.1240   46.1830 C   0  0  1  0  0  0  0  0  0  0  0  0
   46.9590   31.5560   44.8040 C   0  0  0  0  0  0  0  0  0  0  0  0
   45.8270   30.7870   44.4710 C   0  0  0  0  0  0  0  0  0  0  0  0
   46.2000   30.3300   42.7480 S   0  0  0  0  0  0  0  0  0  0  0  0
   47.8330   31.2570   42.7620 C   0  0  0  0  0  0  0  0  0  0  0  0
   47.9690   31.8000   43.9600 N   0  0  0  0  0  0  0  0  0  0  0  0
   43.8016   36.7984   45.0662 H   0  0  0  0  0  0  0  0  0  0  0  0
   44.7127   36.6116   42.7162 H   0  0  0  0  0  0  0  0  0  0  0  0
   46.2165   34.6599   42.1852 H   0  0  0  0  0  0  0  0  0  0  0  0
   45.0493   34.0869   47.9931 H   0  0  0  0  0  0  0  0  0  0  0  0
   44.1276   32.6430   47.3517 H   0  0  0  0  0  0  0  0  0  0  0  0
   45.7043   32.7858   49.6353 H   0  0  0  0  0  0  0  0  0  0  0  0
   44.9935   31.3219   48.7990 H   0  0  0  0  0  0  0  0  0  0  0  0
   47.7439   30.3385   47.1621 H   0  0  0  0  0  0  0  0  0  0  0  0
   45.9801   30.4495   47.1143 H   0  0  0  0  0  0  0  0  0  0  0  0
   47.9872   32.6367   46.2597 H   0  0  0  0  0  0  0  0  0  0  0  0
   44.9521   30.5310   45.0866 H   0  0  0  0  0  0  0  0  0  0  0  0
   48.5453   31.3341   41.9273 H   0  0  0  0  0  0  0  0  0  0  0  0
  1  6  2  0
  2  1  1  0
  3  2  2  0
  3  4  1  0
  4  5  2  0
  5  6  1  0
  5  7  1  0
  7  8  1  0
  8  9  1  0
 10  9  1  0
 11 10  1  0
 12  7  1  0
 12 11  1  0
 13 12  1  0
 14 13  2  0
 15 16  1  0
 15 14  1  0
 16 17  2  0
 17 13  1  0
  1 18  1  0
  2 19  1  0
  3 20  1  0
  8 21  1  0
  8 22  1  0
  9 23  1  0
  9 24  1  0
 11 25  1  0
 11 26  1  0
 12 27  1  1
 14 28  1  0
 16 29  1  0
M  ISO  8  18  14  19  14  20  14  21  13  22  13  23  13  24  13  25  13
M  ISO  4  26  13  27  13  28  14  29  14
M  END
>  <minimizedAffinity>  (1) 
-4.70540428

>  <minimizedRMSD>  (1) 
0.807845712

$$$$
