
     RDKit          3D

 30 32  0  0  1  0  0  0  0  0999 V2000
   44.4450   35.9860   44.7440 C   0  0  0  0  0  0  0  0  0  0  0  0
   45.0290   35.9400   43.4530 C   0  0  0  0  0  0  0  0  0  0  0  0
   45.9400   34.9120   43.1800 C   0  0  0  0  0  0  0  0  0  0  0  0
   46.2060   34.0200   44.1730 N   0  0  0  0  0  0  0  0  0  0  0  0
   45.6440   34.0780   45.3860 C   0  0  0  0  0  0  0  0  0  0  0  0
   44.7780   35.0510   45.6560 N   0  0  0  0  0  0  0  0  0  0  0  0
   45.9840   33.1030   46.3550 N   0  0  0  0  0  0  0  0  0  0  0  0
   45.1320   33.0770   47.5380 C   0  0  0  0  0  0  0  0  0  0  0  0
   45.5330   32.0640   48.5550 C   0  0  0  0  0  0  0  0  0  0  0  0
   46.8640   31.7230   48.4310 O   0  0  0  0  0  0  0  0  0  0  0  0
   47.0210   31.1200   47.2060 C   0  0  0  0  0  0  0  0  0  0  0  0
   47.0990   32.2110   46.1620 C   0  0  1  0  0  0  0  0  0  0  0  0
   47.0760   31.5370   44.8800 N   0  0  0  0  0  0  0  0  0  0  0  0
   47.9190   31.6410   43.8750 N   0  0  0  0  0  0  0  0  0  0  0  0
   47.5010   30.8280   42.8890 C   0  0  0  0  0  0  0  0  0  0  0  0
   46.3470   30.1780   43.2760 C   0  0  0  0  0  0  0  0  0  0  0  0
   46.0980   30.6470   44.5480 C   0  0  0  0  0  0  0  0  0  0  0  0
   43.7259   36.7783   44.9994 H   0  0  0  0  0  0  0  0  0  0  0  0
   44.7743   36.6891   42.6888 H   0  0  0  0  0  0  0  0  0  0  0  0
   46.4244   34.8283   42.1959 H   0  0  0  0  0  0  0  0  0  0  0  0
   45.1644   34.0706   48.0088 H   0  0  0  0  0  0  0  0  0  0  0  0
   44.1234   32.8012   47.1963 H   0  0  0  0  0  0  0  0  0  0  0  0
   45.3623   32.4788   49.5594 H   0  0  0  0  0  0  0  0  0  0  0  0
   44.9285   31.1586   48.3975 H   0  0  0  0  0  0  0  0  0  0  0  0
   47.9469   30.5261   47.1969 H   0  0  0  0  0  0  0  0  0  0  0  0
   46.1762   30.4472   46.9972 H   0  0  0  0  0  0  0  0  0  0  0  0
   48.0092   32.8252   46.2276 H   0  0  0  0  0  0  0  0  0  0  0  0
   48.0038   30.7002   41.9190 H   0  0  0  0  0  0  0  0  0  0  0  0
   45.7583   29.4495   42.6992 H   0  0  0  0  0  0  0  0  0  0  0  0
   45.2527   30.3528   45.1875 H   0  0  0  0  0  0  0  0  0  0  0  0
  1  6  2  0
  2  1  1  0
  3  2  2  0
  3  4  1  0
  4  5  2  0
  5  6  1  0
  5  7  1  0
  7  8  1  0
  8  9  1  0
 10  9  1  0
 11 10  1  0
 12  7  1  0
 12 11  1  0
 13 12  1  0
 14 13  1  0
 15 16  1  0
 15 14  2  0
 16 17  2  0
 17 13  1  0
  1 18  1  0
  2 19  1  0
  3 20  1  0
  8 21  1  0
  8 22  1  0
  9 23  1  0
  9 24  1  0
 11 25  1  0
 11 26  1  0
 12 27  1  1
 15 28  1  0
 16 29  1  0
 17 30  1  0
M  ISO  8  18  14  19  14  20  14  21  13  22  13  23  13  24  13  25  13
M  ISO  5  26  13  27  13  28  14  29  14  30  14
M  END
>  <minimizedAffinity>  (1) 
-4.68251085

>  <minimizedRMSD>  (1) 
0.73965013

$$$$
