
     RDKit          3D

 31 33  0  0  1  0  0  0  0  0999 V2000
   44.4540   35.9000   44.7450 C   0  0  0  0  0  0  0  0  0  0  0  0
   44.8180   35.6550   43.3890 C   0  0  0  0  0  0  0  0  0  0  0  0
   45.5430   34.5120   43.1000 C   0  0  0  0  0  0  0  0  0  0  0  0
   45.8500   33.7090   44.1540 N   0  0  0  0  0  0  0  0  0  0  0  0
   45.5100   33.9390   45.4180 C   0  0  0  0  0  0  0  0  0  0  0  0
   44.8120   35.0310   45.7220 N   0  0  0  0  0  0  0  0  0  0  0  0
   45.9100   33.0040   46.4030 N   0  0  0  0  0  0  0  0  0  0  0  0
   45.1570   33.0980   47.6690 C   0  0  0  0  0  0  0  0  0  0  0  0
   45.6530   32.1930   48.7370 C   0  0  0  0  0  0  0  0  0  0  0  0
   46.9010   31.6900   48.4780 O   0  0  0  0  0  0  0  0  0  0  0  0
   46.8170   30.9700   47.2800 C   0  0  0  0  0  0  0  0  0  0  0  0
   46.9550   32.0480   46.2020 C   0  0  1  0  0  0  0  0  0  0  0  0
   47.1680   31.4850   44.8840 C   0  0  0  0  0  0  0  0  0  0  0  0
   46.3290   30.4060   44.5580 C   0  0  0  0  0  0  0  0  0  0  0  0
   46.3460   29.6710   43.3910 C   0  0  0  0  0  0  0  0  0  0  0  0
   47.2500   30.0000   42.4490 N   0  0  0  0  0  0  0  0  0  0  0  0
   48.0730   31.0300   42.7220 C   0  0  0  0  0  0  0  0  0  0  0  0
   47.9940   31.6830   43.8610 N   0  0  0  0  0  0  0  0  0  0  0  0
   43.8779   36.8015   45.0009 H   0  0  0  0  0  0  0  0  0  0  0  0
   44.5300   36.3566   42.5922 H   0  0  0  0  0  0  0  0  0  0  0  0
   45.8540   34.2664   42.0739 H   0  0  0  0  0  0  0  0  0  0  0  0
   45.2236   34.1333   48.0347 H   0  0  0  0  0  0  0  0  0  0  0  0
   44.1239   32.7918   47.4476 H   0  0  0  0  0  0  0  0  0  0  0  0
   45.6910   32.7545   49.6821 H   0  0  0  0  0  0  0  0  0  0  0  0
   44.9604   31.3402   48.7924 H   0  0  0  0  0  0  0  0  0  0  0  0
   47.6312   30.2341   47.2061 H   0  0  0  0  0  0  0  0  0  0  0  0
   45.8839   30.3942   47.1918 H   0  0  0  0  0  0  0  0  0  0  0  0
   47.8826   32.6325   46.2913 H   0  0  0  0  0  0  0  0  0  0  0  0
   45.5813   30.1177   45.3115 H   0  0  0  0  0  0  0  0  0  0  0  0
   45.6418   28.8406   43.2345 H   0  0  0  0  0  0  0  0  0  0  0  0
   48.8257   31.3311   41.9784 H   0  0  0  0  0  0  0  0  0  0  0  0
  1  6  2  0
  2  1  1  0
  3  2  2  0
  3  4  1  0
  4  5  2  0
  5  6  1  0
  5  7  1  0
  7  8  1  0
  8  9  1  0
 10  9  1  0
 11 10  1  0
 12  7  1  0
 12 11  1  0
 13 12  1  0
 14 13  2  0
 15 14  1  0
 16 17  1  0
 16 15  2  0
 17 18  2  0
 18 13  1  0
  1 19  1  0
  2 20  1  0
  3 21  1  0
  8 22  1  0
  8 23  1  0
  9 24  1  0
  9 25  1  0
 11 26  1  0
 11 27  1  0
 12 28  1  1
 14 29  1  0
 15 30  1  0
 17 31  1  0
M  ISO  8  19  14  20  14  21  14  22  13  23  13  24  13  25  13  26  13
M  ISO  5  27  13  28  13  29  14  30  14  31  14
M  END
>  <minimizedAffinity>  (1) 
-4.65316963

>  <minimizedRMSD>  (1) 
1.02818382

$$$$
