
     RDKit          3D

 26 27  0  0  1  0  0  0  0  0999 V2000
   44.5390   35.7480   44.8980 C   0  0  0  0  0  0  0  0  0  0  0  0
   45.0860   35.6160   43.5950 C   0  0  0  0  0  0  0  0  0  0  0  0
   45.9310   34.5340   43.3530 C   0  0  0  0  0  0  0  0  0  0  0  0
   46.1630   33.6860   44.3930 N   0  0  0  0  0  0  0  0  0  0  0  0
   45.6410   33.8240   45.6110 C   0  0  0  0  0  0  0  0  0  0  0  0
   44.8320   34.8540   45.8590 N   0  0  0  0  0  0  0  0  0  0  0  0
   45.9720   32.8680   46.5970 N   0  0  0  0  0  0  0  0  0  0  0  0
   45.0880   32.8890   47.7810 C   0  0  0  0  0  0  0  0  0  0  0  0
   45.5500   32.0230   48.8970 C   0  0  0  0  0  0  0  0  0  0  0  0
   46.8140   31.5270   48.7180 O   0  0  0  0  0  0  0  0  0  0  0  0
   46.8290   30.8260   47.5050 C   0  0  0  0  0  0  0  0  0  0  0  0
   47.0640   31.9560   46.4780 C   0  0  1  0  0  0  0  0  0  0  0  0
   47.3460   31.3010   45.1890 C   0  0  0  0  0  0  0  0  0  0  0  0
   47.8820   32.1220   44.2300 F   0  0  0  0  0  0  0  0  0  0  0  0
   46.0480   31.0260   44.6310 F   0  0  0  0  0  0  0  0  0  0  0  0
   47.8890   30.0420   45.2580 F   0  0  0  0  0  0  0  0  0  0  0  0
   43.8685   36.5902   45.1241 H   0  0  0  0  0  0  0  0  0  0  0  0
   44.8512   36.3426   42.8032 H   0  0  0  0  0  0  0  0  0  0  0  0
   46.3897   34.3725   42.3664 H   0  0  0  0  0  0  0  0  0  0  0  0
   45.0273   33.9239   48.1488 H   0  0  0  0  0  0  0  0  0  0  0  0
   44.1130   32.4963   47.4567 H   0  0  0  0  0  0  0  0  0  0  0  0
   45.5363   32.6140   49.8246 H   0  0  0  0  0  0  0  0  0  0  0  0
   44.8680   31.1610   48.9406 H   0  0  0  0  0  0  0  0  0  0  0  0
   47.6450   30.0887   47.4805 H   0  0  0  0  0  0  0  0  0  0  0  0
   45.9140   30.2443   47.3198 H   0  0  0  0  0  0  0  0  0  0  0  0
   47.9394   32.6042   46.6311 H   0  0  0  0  0  0  0  0  0  0  0  0
  1  6  2  0
  2  1  1  0
  3  2  2  0
  3  4  1  0
  4  5  2  0
  5  6  1  0
  5  7  1  0
  7  8  1  0
  8  9  1  0
 10  9  1  0
 11 10  1  0
 12  7  1  0
 12 11  1  0
 13 16  1  0
 13 12  1  0
 14 13  1  0
 15 13  1  0
  1 17  1  0
  2 18  1  0
  3 19  1  0
  8 20  1  0
  8 21  1  0
  9 22  1  0
  9 23  1  0
 11 24  1  0
 11 25  1  0
 12 26  1  1
M  ISO  8  17  14  18  14  19  14  20  13  21  13  22  13  23  13  24  13
M  ISO  2  25  13  26  13
M  END
>  <minimizedAffinity>  (1) 
-4.72965527

>  <minimizedRMSD>  (1) 
0.298535377

$$$$
