
     RDKit          3D

 13 13  0  0  0  0  0  0  0  0999 V2000
   48.0190   34.7580   42.2430 C   0  0  0  0  0  0  0  0  0  0  0  0
   47.3380   34.6150   41.0270 C   0  0  0  0  0  0  0  0  0  0  0  0
   46.1270   33.9020   41.0360 C   0  0  0  0  0  0  0  0  0  0  0  0
   45.6790   33.3890   42.2180 N   0  0  0  0  0  0  0  0  0  0  0  0
   46.3740   33.5540   43.3640 C   0  0  0  0  0  0  0  0  0  0  0  0
   47.5260   34.2310   43.3700 N   0  0  0  0  0  0  0  0  0  0  0  0
   49.2770   35.4980   42.2440 C   0  0  0  0  0  0  0  0  0  0  0  0
   49.4300   36.4650   41.4560 O   0  0  0  0  0  0  0  0  0  0  0  0
   50.2850   35.1170   43.1200 O   0  0  0  0  0  0  0  0  0  0  0  0
   47.7375   35.0460   40.0971 H   0  0  0  0  0  0  0  0  0  0  0  0
   45.5521   33.7605   40.1089 H   0  0  0  0  0  0  0  0  0  0  0  0
   45.9881   33.1270   44.3014 H   0  0  0  0  0  0  0  0  0  0  0  0
   51.1434   35.6100   43.1314 H   0  0  0  0  0  0  0  0  0  0  0  0
  1  7  1  0
  1  6  2  0
  2  3  2  0
  2  1  1  0
  3  4  1  0
  4  5  2  0
  5  6  1  0
  7  9  1  0
  8  7  2  0
  2 10  1  0
  3 11  1  0
  5 12  1  0
  9 13  1  0
M  ISO  4  10  14  11  14  12  14  13   3
M  END
>  <minimizedAffinity>  (1) 
-3.48647547

>  <minimizedRMSD>  (1) 
4.81687927

$$$$
