
     RDKit          3D

 48 48  0  0  1  0  0  0  0  0999 V2000
   44.3780   36.1070   44.9020 C   0  0  0  0  0  0  0  0  0  0  0  0
   44.8780   36.5290   43.6460 C   0  0  0  0  0  0  0  0  0  0  0  0
   45.6000   35.5460   42.8950 C   0  0  0  0  0  0  0  0  0  0  0  0
   46.2500   34.6650   43.7050 N   0  0  0  0  0  0  0  0  0  0  0  0
   45.7490   34.2400   44.8520 C   0  0  0  0  0  0  0  0  0  0  0  0
   44.8120   34.9760   45.4500 N   0  0  0  0  0  0  0  0  0  0  0  0
   46.2690   33.0880   45.4390 N   0  0  0  0  0  0  0  0  0  0  0  0
   45.6450   32.6630   46.6740 C   0  0  0  0  0  0  0  0  0  0  0  0
   46.3670   31.5470   47.3680 C   0  0  0  0  0  0  0  0  0  0  0  0
   47.5810   31.2280   46.8170 O   0  0  0  0  0  0  0  0  0  0  0  0
   47.3890   30.9800   45.4620 C   0  0  0  0  0  0  0  0  0  0  0  0
   47.3730   32.3600   44.8400 C   0  0  1  0  0  0  0  0  0  0  0  0
   46.7040   34.8880   42.9520 H   0  0  0  0  0  0  0  0  0  0  0  0
   47.1120   32.4630   43.4620 N   0  0  0  0  0  0  0  0  0  0  0  0
   45.9260   32.0720   42.9600 C   0  0  0  0  0  0  0  0  0  0  0  0
   46.0780   32.2730   41.4570 C   0  0  0  0  0  0  0  0  0  0  0  0
   47.1750   33.2910   41.3470 C   0  0  0  0  0  0  0  0  0  0  0  0
   47.5890   33.5160   42.7820 C   0  0  2  0  0  0  0  0  0  0  0  0
   48.9380   32.8540   42.7370 N   0  0  0  0  0  0  0  0  0  0  0  0
   50.1150   33.6580   42.7180 C   0  0  0  0  0  0  0  0  0  0  0  0
   50.0630   34.9330   43.0410 N   0  0  0  0  0  0  0  0  0  0  0  0
   51.4030   33.1560   42.3580 N   0  0  0  0  0  0  0  0  0  0  0  0
   50.8790   35.5470   43.0420 H   0  0  0  0  0  0  0  0  0  0  0  0
   43.6278   36.7172   45.4262 H   0  0  0  0  0  0  0  0  0  0  0  0
   45.7103   37.2315   43.7999 H   0  0  0  0  0  0  0  0  0  0  0  0
   45.2353   35.6553   43.0812 H   0  0  0  0  0  0  0  0  0  0  0  0
   44.0767   37.0280   43.0812 H   0  0  0  0  0  0  0  0  0  0  0  0
   45.6000   35.5460   43.9950 H   0  0  0  0  0  0  0  0  0  0  0  0
   45.6000   36.5831   42.5283 H   0  0  0  0  0  0  0  0  0  0  0  0
   46.4981   35.0275   42.5283 H   0  0  0  0  0  0  0  0  0  0  0  0
   44.7019   35.0275   42.5283 H   0  0  0  0  0  0  0  0  0  0  0  0
   45.6038   33.5253   47.3557 H   0  0  0  0  0  0  0  0  0  0  0  0
   44.6465   32.2827   46.4124 H   0  0  0  0  0  0  0  0  0  0  0  0
   46.5314   31.8423   48.4148 H   0  0  0  0  0  0  0  0  0  0  0  0
   45.7330   30.6536   47.2685 H   0  0  0  0  0  0  0  0  0  0  0  0
   48.2127   30.3759   45.0538 H   0  0  0  0  0  0  0  0  0  0  0  0
   46.4688   30.4121   45.2601 H   0  0  0  0  0  0  0  0  0  0  0  0
   48.3954   32.7282   45.0109 H   0  0  0  0  0  0  0  0  0  0  0  0
   45.7309   31.0154   43.1955 H   0  0  0  0  0  0  0  0  0  0  0  0
   45.0812   32.6378   43.3797 H   0  0  0  0  0  0  0  0  0  0  0  0
   46.3632   31.3331   40.9618 H   0  0  0  0  0  0  0  0  0  0  0  0
   45.1449   32.5957   40.9721 H   0  0  0  0  0  0  0  0  0  0  0  0
   48.0143   32.9024   40.7515 H   0  0  0  0  0  0  0  0  0  0  0  0
   46.8547   34.2146   40.8426 H   0  0  0  0  0  0  0  0  0  0  0  0
   47.3899   34.5389   43.1340 H   0  0  0  0  0  0  0  0  0  0  0  0
   49.0113   31.8268   42.7200 H   0  0  0  0  0  0  0  0  0  0  0  0
   52.2198   33.7835   42.3619 H   0  0  0  0  0  0  0  0  0  0  0  0
   51.5149   32.1666   42.0945 H   0  0  0  0  0  0  0  0  0  0  0  0
  1  6  2  0
  2  1  1  0
  4  5  2  0
  5  7  1  0
  5  6  1  0
  7  8  1  0
  8  9  1  0
 10  9  1  0
 11 10  1  0
 12  7  1  0
 12 11  1  0
 13  4  1  0
 14 15  1  0
 14 12  1  0
 16 15  1  0
 17 16  1  0
 17 18  1  0
 18 14  1  0
 19 18  1  0
 20 19  1  0
 20 21  2  0
 21 23  1  0
 22 20  1  0
  1 24  1  0
  2 25  1  0
  2 26  1  0
  2 27  1  0
  3 28  1  0
  3 29  1  0
  3 30  1  0
  3 31  1  0
  8 32  1  0
  8 33  1  0
  9 34  1  0
  9 35  1  0
 11 36  1  0
 11 37  1  0
 12 38  1  6
 15 39  1  0
 15 40  1  0
 16 41  1  0
 16 42  1  0
 17 43  1  0
 17 44  1  0
 18 45  1  6
 19 46  1  0
 22 47  1  0
 22 48  1  0
M  ISO  8  25   8  26   8  27   8  28   8  29   8  30   8  31   8  32  13
M  ISO  8  33  13  34  13  35  13  36  13  37  13  38  13  39  13  40  13
M  ISO  5  41  13  42  13  43  13  44  13  45  13
M  END
>  <minimizedAffinity>  (1) 
-6.02529573

>  <minimizedRMSD>  (1) 
2.24540353

$$$$
