
     RDKit          3D

 37 39  0  0  1  0  0  0  0  0999 V2000
   44.4460   35.9590   44.7950 C   0  0  0  0  0  0  0  0  0  0  0  0
   44.9460   35.8460   43.4690 C   0  0  0  0  0  0  0  0  0  0  0  0
   45.7820   34.7720   43.1860 C   0  0  0  0  0  0  0  0  0  0  0  0
   46.0750   33.8900   44.1810 N   0  0  0  0  0  0  0  0  0  0  0  0
   45.5840   34.0260   45.4240 C   0  0  0  0  0  0  0  0  0  0  0  0
   44.7750   35.0530   45.7310 N   0  0  0  0  0  0  0  0  0  0  0  0
   45.9400   33.0620   46.4020 N   0  0  0  0  0  0  0  0  0  0  0  0
   45.1120   33.0370   47.6030 C   0  0  0  0  0  0  0  0  0  0  0  0
   45.6470   32.1670   48.6930 C   0  0  0  0  0  0  0  0  0  0  0  0
   46.9370   31.7160   48.4610 O   0  0  0  0  0  0  0  0  0  0  0  0
   46.9510   31.0680   47.2420 C   0  0  0  0  0  0  0  0  0  0  0  0
   47.0540   32.1680   46.2090 C   0  0  1  0  0  0  0  0  0  0  0  0
   47.0830   31.7180   44.8670 N   0  0  0  0  0  0  0  0  0  0  0  0
   45.7860   31.5790   44.2550 C   0  0  0  0  0  0  0  0  0  0  0  0
   46.2130   31.1420   42.8470 C   0  0  0  0  0  0  0  0  0  0  0  0
   47.5770   31.8220   42.6560 C   0  0  0  0  0  0  0  0  0  0  0  0
   47.7360   32.6080   43.9430 C   0  0  0  0  0  0  0  0  0  0  0  0
   43.7831   36.7967   45.0573 H   0  0  0  0  0  0  0  0  0  0  0  0
   44.6810   36.5815   42.6952 H   0  0  0  0  0  0  0  0  0  0  0  0
   45.3092   34.1991   42.3747 H   0  0  0  0  0  0  0  0  0  0  0  0
   46.7491   35.2414   42.9527 H   0  0  0  0  0  0  0  0  0  0  0  0
   46.6932   33.0926   43.9739 H   0  0  0  0  0  0  0  0  0  0  0  0
   45.0312   34.0640   47.9886 H   0  0  0  0  0  0  0  0  0  0  0  0
   44.1389   32.6164   47.3094 H   0  0  0  0  0  0  0  0  0  0  0  0
   45.6432   32.7424   49.6305 H   0  0  0  0  0  0  0  0  0  0  0  0
   44.9995   31.2793   48.7440 H   0  0  0  0  0  0  0  0  0  0  0  0
   47.8167   30.3928   47.1740 H   0  0  0  0  0  0  0  0  0  0  0  0
   46.0536   30.4490   47.0952 H   0  0  0  0  0  0  0  0  0  0  0  0
   48.0211   32.6688   46.3635 H   0  0  0  0  0  0  0  0  0  0  0  0
   45.1768   30.8118   44.7552 H   0  0  0  0  0  0  0  0  0  0  0  0
   45.1525   32.4774   44.2934 H   0  0  0  0  0  0  0  0  0  0  0  0
   46.3079   30.0477   42.7873 H   0  0  0  0  0  0  0  0  0  0  0  0
   45.4835   31.4222   42.0728 H   0  0  0  0  0  0  0  0  0  0  0  0
   48.3795   31.0782   42.5429 H   0  0  0  0  0  0  0  0  0  0  0  0
   47.6327   32.4460   41.7518 H   0  0  0  0  0  0  0  0  0  0  0  0
   48.7948   32.7578   44.2008 H   0  0  0  0  0  0  0  0  0  0  0  0
   47.3241   33.6276   43.9150 H   0  0  0  0  0  0  0  0  0  0  0  0
  1  6  1  0
  2  1  2  0
  3  2  1  0
  3  4  1  0
  4  5  1  0
  5  6  2  0
  5  7  1  0
  7  8  1  0
  8  9  1  0
 10  9  1  0
 11 10  1  0
 12  7  1  0
 12 11  1  0
 13 12  1  0
 14 13  1  0
 15 14  1  0
 16 15  1  0
 16 17  1  0
 17 13  1  0
  1 18  1  0
  2 19  1  0
  3 20  1  0
  3 21  1  0
  4 22  1  0
  8 23  1  0
  8 24  1  0
  9 25  1  0
  9 26  1  0
 11 27  1  0
 11 28  1  0
 12 29  1  1
 14 30  1  0
 14 31  1  0
 15 32  1  0
 15 33  1  0
 16 34  1  0
 16 35  1  0
 17 36  1  0
 17 37  1  0
M  ISO  8  18  13  19  13  20  13  21  13  23  13  24  13  25  13  26  13
M  ISO  8  27  13  28  13  29  13  30  13  31  13  32  13  33  13  34  13
M  ISO  3  35  13  36  13  37  13
M  END
>  <minimizedAffinity>  (1) 
-4.83136415

>  <minimizedRMSD>  (1) 
0.445895314

$$$$
