
     RDKit          3D

 48 49  0  0  1  0  0  0  0  0999 V2000
   44.4060   35.9070   44.6550 C   0  0  0  0  0  0  0  0  0  0  0  0
   44.3690   35.7250   43.2710 C   0  0  0  0  0  0  0  0  0  0  0  0
   45.2230   34.7160   42.7880 C   0  0  0  0  0  0  0  0  0  0  0  0
   45.3860   33.6770   43.6550 N   0  0  0  0  0  0  0  0  0  0  0  0
   45.4600   33.8930   44.9610 C   0  0  0  0  0  0  0  0  0  0  0  0
   44.9520   35.0280   45.4880 N   0  0  0  0  0  0  0  0  0  0  0  0
   46.0370   32.9450   45.7810 N   0  0  0  0  0  0  0  0  0  0  0  0
   45.5190   32.9090   47.1760 C   0  0  0  0  0  0  0  0  0  0  0  0
   46.3730   32.0710   48.0910 C   0  0  0  0  0  0  0  0  0  0  0  0
   47.5290   31.6010   47.5260 O   0  0  0  0  0  0  0  0  0  0  0  0
   47.2070   30.9420   46.3550 C   0  0  0  0  0  0  0  0  0  0  0  0
   47.0890   32.0910   45.3490 C   0  0  1  0  0  0  0  0  0  0  0  0
   45.3270   33.6070   42.7860 H   0  0  0  0  0  0  0  0  0  0  0  0
   46.7560   31.8160   44.0490 N   0  0  0  0  0  0  0  0  0  0  0  0
   45.4310   31.5910   43.7780 C   0  0  0  0  0  0  0  0  0  0  0  0
   45.3360   31.2640   42.3060 C   0  0  0  0  0  0  0  0  0  0  0  0
   46.7000   31.7440   41.7540 C   0  0  0  0  0  0  0  0  0  0  0  0
   47.3530   32.3180   42.9700 C   0  0  2  0  0  0  0  0  0  0  0  0
   48.6080   32.9770   42.7550 N   0  0  0  0  0  0  0  0  0  0  0  0
   49.8200   32.5190   42.4840 N   0  0  0  0  0  0  0  0  0  0  0  0
   50.6830   33.5130   42.3490 C   0  0  0  0  0  0  0  0  0  0  0  0
   50.0170   34.7050   42.5390 C   0  0  0  0  0  0  0  0  0  0  0  0
   48.7160   34.3100   42.7910 C   0  0  0  0  0  0  0  0  0  0  0  0
   43.9620   36.8215   45.0753 H   0  0  0  0  0  0  0  0  0  0  0  0
   44.1545   34.6699   43.0455 H   0  0  0  0  0  0  0  0  0  0  0  0
   43.5815   36.3598   42.8386 H   0  0  0  0  0  0  0  0  0  0  0  0
   45.3418   36.0019   42.8386 H   0  0  0  0  0  0  0  0  0  0  0  0
   45.2230   34.7160   43.8880 H   0  0  0  0  0  0  0  0  0  0  0  0
   45.2230   35.7531   42.4213 H   0  0  0  0  0  0  0  0  0  0  0  0
   46.1211   34.1975   42.4213 H   0  0  0  0  0  0  0  0  0  0  0  0
   44.3249   34.1975   42.4213 H   0  0  0  0  0  0  0  0  0  0  0  0
   45.4881   33.9368   47.5667 H   0  0  0  0  0  0  0  0  0  0  0  0
   44.5176   32.4548   47.1473 H   0  0  0  0  0  0  0  0  0  0  0  0
   46.6430   32.6837   48.9638 H   0  0  0  0  0  0  0  0  0  0  0  0
   45.7731   31.1864   48.3511 H   0  0  0  0  0  0  0  0  0  0  0  0
   48.0009   30.2386   46.0636 H   0  0  0  0  0  0  0  0  0  0  0  0
   46.2952   30.3316   46.4321 H   0  0  0  0  0  0  0  0  0  0  0  0
   48.1148   32.4879   45.3359 H   0  0  0  0  0  0  0  0  0  0  0  0
   45.0597   30.7472   44.3781 H   0  0  0  0  0  0  0  0  0  0  0  0
   44.8220   32.4727   44.0266 H   0  0  0  0  0  0  0  0  0  0  0  0
   45.2041   30.1833   42.1488 H   0  0  0  0  0  0  0  0  0  0  0  0
   44.4764   31.7394   41.8109 H   0  0  0  0  0  0  0  0  0  0  0  0
   47.2830   30.9042   41.3479 H   0  0  0  0  0  0  0  0  0  0  0  0
   46.6113   32.4594   40.9231 H   0  0  0  0  0  0  0  0  0  0  0  0
   47.3852   33.2984   43.4677 H   0  0  0  0  0  0  0  0  0  0  0  0
   51.7541   33.4059   42.1227 H   0  0  0  0  0  0  0  0  0  0  0  0
   50.4234   35.7264   42.4996 H   0  0  0  0  0  0  0  0  0  0  0  0
   47.8825   34.9987   42.9937 H   0  0  0  0  0  0  0  0  0  0  0  0
  1  6  2  0
  2  1  1  0
  4  5  2  0
  5  6  1  0
  5  7  1  0
  7  8  1  0
  8  9  1  0
 10  9  1  0
 11 10  1  0
 12  7  1  0
 12 11  1  0
 13  4  1  0
 14 15  1  0
 14 12  1  0
 16 15  1  0
 17 16  1  0
 17 18  1  0
 18 14  1  0
 19 23  1  0
 19 18  1  0
 20 19  1  0
 21 20  2  0
 21 22  1  0
 22 23  2  0
  1 24  1  0
  2 25  1  0
  2 26  1  0
  2 27  1  0
  3 28  1  0
  3 29  1  0
  3 30  1  0
  3 31  1  0
  8 32  1  0
  8 33  1  0
  9 34  1  0
  9 35  1  0
 11 36  1  0
 11 37  1  0
 12 38  1  6
 15 39  1  0
 15 40  1  0
 16 41  1  0
 16 42  1  0
 17 43  1  0
 17 44  1  0
 18 45  1  1
 21 46  1  0
 22 47  1  0
 23 48  1  0
M  ISO  8  25   8  26   8  27   8  28   8  29   8  30   8  31   8  32  13
M  ISO  8  33  13  34  13  35  13  36  13  37  13  38  13  39  13  40  13
M  ISO  8  41  13  42  13  43  13  44  13  45  13  46  14  47  14  48  14
M  END
>  <minimizedAffinity>  (1) 
-5.69030905

>  <minimizedRMSD>  (1) 
1.06339562

$$$$
