
     RDKit          3D

 50 51  0  0  1  0  0  0  0  0999 V2000
   44.6210   35.4220   45.4840 C   0  0  0  0  0  0  0  0  0  0  0  0
   44.5710   36.1160   44.2670 C   0  0  0  0  0  0  0  0  0  0  0  0
   45.4860   35.6430   43.3090 C   0  0  0  0  0  0  0  0  0  0  0  0
   45.6950   34.2960   43.3640 N   0  0  0  0  0  0  0  0  0  0  0  0
   45.7770   33.6860   44.5360 C   0  0  0  0  0  0  0  0  0  0  0  0
   45.2220   34.2430   45.6330 N   0  0  0  0  0  0  0  0  0  0  0  0
   46.4100   32.4610   44.6280 N   0  0  0  0  0  0  0  0  0  0  0  0
   45.9280   31.5650   45.7090 C   0  0  0  0  0  0  0  0  0  0  0  0
   46.8460   30.3930   45.9500 C   0  0  0  0  0  0  0  0  0  0  0  0
   48.0310   30.4510   45.2610 O   0  0  0  0  0  0  0  0  0  0  0  0
   47.7760   30.6300   43.9230 C   0  0  0  0  0  0  0  0  0  0  0  0
   47.5040   32.1150   43.7910 C   0  0  1  0  0  0  0  0  0  0  0  0
   45.6310   34.7510   42.6130 H   0  0  0  0  0  0  0  0  0  0  0  0
   47.1620   32.6440   42.5520 N   0  0  0  0  0  0  0  0  0  0  0  0
   45.8980   32.4270   42.1320 C   0  0  0  0  0  0  0  0  0  0  0  0
   45.7840   33.0880   40.7760 C   0  0  0  0  0  0  0  0  0  0  0  0
   47.0250   33.9750   40.7220 C   0  0  0  0  0  0  0  0  0  0  0  0
   47.6340   33.8270   42.1240 C   0  0  2  0  0  0  0  0  0  0  0  0
   48.9730   33.1720   41.7460 C   0  0  0  0  0  0  0  0  0  0  0  0
   50.2020   33.3390   42.3650 C   0  0  0  0  0  0  0  0  0  0  0  0
   51.3780   32.7670   42.0010 C   0  0  0  0  0  0  0  0  0  0  0  0
   51.3010   31.9530   40.9150 C   0  0  0  0  0  0  0  0  0  0  0  0
   50.1320   31.7360   40.2500 C   0  0  0  0  0  0  0  0  0  0  0  0
   49.0130   32.3330   40.6660 N   0  0  0  0  0  0  0  0  0  0  0  0
   44.1383   35.8753   46.3623 H   0  0  0  0  0  0  0  0  0  0  0  0
   44.4932   37.1955   44.4634 H   0  0  0  0  0  0  0  0  0  0  0  0
   45.4861   35.9131   43.6913 H   0  0  0  0  0  0  0  0  0  0  0  0
   43.6944   35.7840   43.6913 H   0  0  0  0  0  0  0  0  0  0  0  0
   45.4860   35.6430   44.4090 H   0  0  0  0  0  0  0  0  0  0  0  0
   45.4860   36.6801   42.9423 H   0  0  0  0  0  0  0  0  0  0  0  0
   46.3841   35.1245   42.9423 H   0  0  0  0  0  0  0  0  0  0  0  0
   44.5879   35.1245   42.9423 H   0  0  0  0  0  0  0  0  0  0  0  0
   45.8497   32.1471   46.6391 H   0  0  0  0  0  0  0  0  0  0  0  0
   44.9532   31.1630   45.3957 H   0  0  0  0  0  0  0  0  0  0  0  0
   47.0747   30.3504   47.0251 H   0  0  0  0  0  0  0  0  0  0  0  0
   46.3160   29.4993   45.5889 H   0  0  0  0  0  0  0  0  0  0  0  0
   48.6466   30.3377   43.3175 H   0  0  0  0  0  0  0  0  0  0  0  0
   46.9357   30.0149   43.5686 H   0  0  0  0  0  0  0  0  0  0  0  0
   48.4892   32.5337   44.0441 H   0  0  0  0  0  0  0  0  0  0  0  0
   45.7044   31.3475   42.0474 H   0  0  0  0  0  0  0  0  0  0  0  0
   45.1641   32.8379   42.8410 H   0  0  0  0  0  0  0  0  0  0  0  0
   45.7968   32.3404   39.9692 H   0  0  0  0  0  0  0  0  0  0  0  0
   44.8456   33.6463   40.6430 H   0  0  0  0  0  0  0  0  0  0  0  0
   47.7257   33.6240   39.9501 H   0  0  0  0  0  0  0  0  0  0  0  0
   46.7940   35.0190   40.4637 H   0  0  0  0  0  0  0  0  0  0  0  0
   47.5426   34.7274   42.7492 H   0  0  0  0  0  0  0  0  0  0  0  0
   50.2269   34.0034   43.2413 H   0  0  0  0  0  0  0  0  0  0  0  0
   52.3186   32.9478   42.5419 H   0  0  0  0  0  0  0  0  0  0  0  0
   52.2142   31.4522   40.5609 H   0  0  0  0  0  0  0  0  0  0  0  0
   50.1103   31.0714   39.3737 H   0  0  0  0  0  0  0  0  0  0  0  0
  1  6  2  0
  2  1  1  0
  4  5  2  0
  5  7  1  0
  5  6  1  0
  7  8  1  0
  8  9  1  0
 10  9  1  0
 11 10  1  0
 12 11  1  0
 12  7  1  0
 13  4  1  0
 14 15  1  0
 14 12  1  0
 16 15  1  0
 17 16  1  0
 17 18  1  0
 18 14  1  0
 19 18  1  0
 19 20  2  0
 21 20  1  0
 22 21  2  0
 23 24  2  0
 23 22  1  0
 24 19  1  0
  1 25  1  0
  2 26  1  0
  2 27  1  0
  2 28  1  0
  3 29  1  0
  3 30  1  0
  3 31  1  0
  3 32  1  0
  8 33  1  0
  8 34  1  0
  9 35  1  0
  9 36  1  0
 11 37  1  0
 11 38  1  0
 12 39  1  1
 15 40  1  0
 15 41  1  0
 16 42  1  0
 16 43  1  0
 17 44  1  0
 17 45  1  0
 18 46  1  1
 20 47  1  0
 21 48  1  0
 22 49  1  0
 23 50  1  0
M  ISO  8  26   8  27   8  28   8  29   8  30   8  31   8  32   8  33  13
M  ISO  8  34  13  35  13  36  13  37  13  38  13  39  13  40  13  41  13
M  ISO  8  42  13  43  13  44  13  45  13  46  13  47  14  48  14  49  14
M  ISO  1  50  14
M  END
>  <minimizedAffinity>  (1) 
-5.35459185

>  <minimizedRMSD>  (1) 
2.76811624

$$$$
