
     RDKit          3D

 44 44  0  0  1  0  0  0  0  0999 V2000
   44.6970   35.3930   45.1250 C   0  0  0  0  0  0  0  0  0  0  0  0
   44.6740   36.1710   43.9610 C   0  0  0  0  0  0  0  0  0  0  0  0
   45.6620   35.8250   43.0280 C   0  0  0  0  0  0  0  0  0  0  0  0
   45.9380   34.4940   42.9750 N   0  0  0  0  0  0  0  0  0  0  0  0
   45.9930   33.7970   44.1020 C   0  0  0  0  0  0  0  0  0  0  0  0
   45.3560   34.2370   45.2090 N   0  0  0  0  0  0  0  0  0  0  0  0
   46.6730   32.5980   44.1350 N   0  0  0  0  0  0  0  0  0  0  0  0
   46.1740   31.5950   45.1170 C   0  0  0  0  0  0  0  0  0  0  0  0
   47.1380   30.4520   45.3170 C   0  0  0  0  0  0  0  0  0  0  0  0
   48.3460   30.6050   44.6830 O   0  0  0  0  0  0  0  0  0  0  0  0
   48.1260   30.8630   43.3530 C   0  0  0  0  0  0  0  0  0  0  0  0
   47.8140   32.3510   43.3240 C   0  0  1  0  0  0  0  0  0  0  0  0
   45.8820   35.0170   42.2800 H   0  0  0  0  0  0  0  0  0  0  0  0
   47.4600   32.9370   42.1300 N   0  0  0  0  0  0  0  0  0  0  0  0
   46.2090   32.8070   41.6760 C   0  0  0  0  0  0  0  0  0  0  0  0
   46.1540   33.5330   40.3460 C   0  0  0  0  0  0  0  0  0  0  0  0
   47.3990   34.4170   40.3620 C   0  0  0  0  0  0  0  0  0  0  0  0
   48.0280   34.1160   41.7090 C   0  0  2  0  0  0  0  0  0  0  0  0
   49.2630   34.8160   42.0470 C   0  0  0  0  0  0  0  0  0  0  0  0
   49.4450   36.0050   41.3730 F   0  0  0  0  0  0  0  0  0  0  0  0
   49.6390   35.1620   43.3240 F   0  0  0  0  0  0  0  0  0  0  0  0
   50.3130   33.9190   41.7500 F   0  0  0  0  0  0  0  0  0  0  0  0
   44.1477   35.7510   46.0082 H   0  0  0  0  0  0  0  0  0  0  0  0
   44.6425   37.2365   44.2327 H   0  0  0  0  0  0  0  0  0  0  0  0
   45.5785   35.9704   43.3680 H   0  0  0  0  0  0  0  0  0  0  0  0
   43.7830   35.9173   43.3680 H   0  0  0  0  0  0  0  0  0  0  0  0
   45.6620   35.8250   44.1280 H   0  0  0  0  0  0  0  0  0  0  0  0
   45.6620   36.8621   42.6613 H   0  0  0  0  0  0  0  0  0  0  0  0
   46.5601   35.3065   42.6613 H   0  0  0  0  0  0  0  0  0  0  0  0
   44.7639   35.3065   42.6613 H   0  0  0  0  0  0  0  0  0  0  0  0
   46.0159   32.0961   46.0834 H   0  0  0  0  0  0  0  0  0  0  0  0
   45.2375   31.1763   44.7200 H   0  0  0  0  0  0  0  0  0  0  0  0
   47.3275   30.3478   46.3955 H   0  0  0  0  0  0  0  0  0  0  0  0
   46.6640   29.5636   44.8741 H   0  0  0  0  0  0  0  0  0  0  0  0
   49.0220   30.6379   42.7559 H   0  0  0  0  0  0  0  0  0  0  0  0
   47.3193   30.2488   42.9263 H   0  0  0  0  0  0  0  0  0  0  0  0
   48.7779   32.7784   43.6374 H   0  0  0  0  0  0  0  0  0  0  0  0
   45.9636   31.7436   41.5385 H   0  0  0  0  0  0  0  0  0  0  0  0
   45.4828   33.2266   42.3877 H   0  0  0  0  0  0  0  0  0  0  0  0
   45.2415   34.1425   40.2697 H   0  0  0  0  0  0  0  0  0  0  0  0
   46.1308   32.8462   39.4870 H   0  0  0  0  0  0  0  0  0  0  0  0
   48.0810   34.1509   39.5410 H   0  0  0  0  0  0  0  0  0  0  0  0
   47.1693   35.4839   40.2246 H   0  0  0  0  0  0  0  0  0  0  0  0
   47.9765   34.6172   42.6868 H   0  0  0  0  0  0  0  0  0  0  0  0
  1  6  2  0
  2  1  1  0
  4  5  2  0
  5  7  1  0
  5  6  1  0
  7  8  1  0
  8  9  1  0
 10  9  1  0
 11 10  1  0
 12 11  1  0
 12  7  1  0
 13  4  1  0
 14 15  1  0
 14 12  1  0
 16 17  1  0
 16 15  1  0
 17 18  1  0
 18 19  1  0
 18 14  1  0
 19 21  1  0
 20 19  1  0
 22 19  1  0
  1 23  1  0
  2 24  1  0
  2 25  1  0
  2 26  1  0
  3 27  1  0
  3 28  1  0
  3 29  1  0
  3 30  1  0
  8 31  1  0
  8 32  1  0
  9 33  1  0
  9 34  1  0
 11 35  1  0
 11 36  1  0
 12 37  1  1
 15 38  1  0
 15 39  1  0
 16 40  1  0
 16 41  1  0
 17 42  1  0
 17 43  1  0
 18 44  1  6
M  ISO  8  24   8  25   8  26   8  27   8  28   8  29   8  30   8  31  13
M  ISO  8  32  13  33  13  34  13  35  13  36  13  37  13  38  13  39  13
M  ISO  5  40  13  41  13  42  13  43  13  44  13
M  END
>  <minimizedAffinity>  (1) 
-5.55540228

>  <minimizedRMSD>  (1) 
2.72833633

$$$$
