
     RDKit          3D

 51 52  0  0  1  0  0  0  0  0999 V2000
   44.5760   35.4000   45.6890 C   0  0  0  0  0  0  0  0  0  0  0  0
   44.4420   35.9720   44.4180 C   0  0  0  0  0  0  0  0  0  0  0  0
   45.2860   35.4060   43.4470 C   0  0  0  0  0  0  0  0  0  0  0  0
   45.5220   34.0690   43.6130 N   0  0  0  0  0  0  0  0  0  0  0  0
   45.6810   33.5790   44.8340 C   0  0  0  0  0  0  0  0  0  0  0  0
   45.1950   34.2420   45.9070 N   0  0  0  0  0  0  0  0  0  0  0  0
   46.3170   32.3660   45.0030 N   0  0  0  0  0  0  0  0  0  0  0  0
   45.8900   31.5740   46.1870 C   0  0  0  0  0  0  0  0  0  0  0  0
   46.8330   30.4410   46.5030 C   0  0  0  0  0  0  0  0  0  0  0  0
   47.9690   30.4170   45.7370 O   0  0  0  0  0  0  0  0  0  0  0  0
   47.6330   30.4640   44.4060 C   0  0  0  0  0  0  0  0  0  0  0  0
   47.3560   31.9300   44.1390 C   0  0  1  0  0  0  0  0  0  0  0  0
   45.4020   34.4740   42.8450 H   0  0  0  0  0  0  0  0  0  0  0  0
   46.9270   32.3050   42.8710 N   0  0  0  0  0  0  0  0  0  0  0  0
   45.6440   32.0550   42.5420 C   0  0  0  0  0  0  0  0  0  0  0  0
   45.4710   32.6000   41.1390 C   0  0  0  0  0  0  0  0  0  0  0  0
   46.6790   33.5430   40.9810 C   0  0  0  0  0  0  0  0  0  0  0  0
   47.3430   33.4900   42.3190 C   0  0  2  0  0  0  0  0  0  0  0  0
   48.7090   32.9580   41.8680 C   0  0  0  0  0  0  0  0  0  0  0  0
   49.0170   31.9770   40.9180 C   0  0  0  0  0  0  0  0  0  0  0  0
   50.2790   31.5930   40.6240 C   0  0  0  0  0  0  0  0  0  0  0  0
   51.2860   32.2000   41.2910 C   0  0  0  0  0  0  0  0  0  0  0  0
   51.1440   33.1590   42.2300 C   0  0  0  0  0  0  0  0  0  0  0  0
   49.8470   33.5090   42.4900 C   0  0  0  0  0  0  0  0  0  0  0  0
   44.1484   35.9343   46.5502 H   0  0  0  0  0  0  0  0  0  0  0  0
   44.1922   37.0384   44.5203 H   0  0  0  0  0  0  0  0  0  0  0  0
   45.3887   35.8684   43.8676 H   0  0  0  0  0  0  0  0  0  0  0  0
   43.6398   35.4586   43.8676 H   0  0  0  0  0  0  0  0  0  0  0  0
   45.2860   35.4060   44.5470 H   0  0  0  0  0  0  0  0  0  0  0  0
   45.2860   36.4431   43.0803 H   0  0  0  0  0  0  0  0  0  0  0  0
   46.1841   34.8875   43.0803 H   0  0  0  0  0  0  0  0  0  0  0  0
   44.3879   34.8875   43.0803 H   0  0  0  0  0  0  0  0  0  0  0  0
   45.8405   32.2435   47.0584 H   0  0  0  0  0  0  0  0  0  0  0  0
   44.9092   31.1335   45.9546 H   0  0  0  0  0  0  0  0  0  0  0  0
   47.1318   30.5268   47.5582 H   0  0  0  0  0  0  0  0  0  0  0  0
   46.2885   29.5105   46.2845 H   0  0  0  0  0  0  0  0  0  0  0  0
   48.4644   30.1049   43.7817 H   0  0  0  0  0  0  0  0  0  0  0  0
   46.7704   29.8241   44.1683 H   0  0  0  0  0  0  0  0  0  0  0  0
   48.3481   32.3817   44.2865 H   0  0  0  0  0  0  0  0  0  0  0  0
   45.4463   30.9731   42.5610 H   0  0  0  0  0  0  0  0  0  0  0  0
   44.9433   32.5218   43.2499 H   0  0  0  0  0  0  0  0  0  0  0  0
   45.5011   31.7910   40.3943 H   0  0  0  0  0  0  0  0  0  0  0  0
   44.5053   33.1040   40.9862 H   0  0  0  0  0  0  0  0  0  0  0  0
   47.3564   33.1848   40.1918 H   0  0  0  0  0  0  0  0  0  0  0  0
   46.3898   34.5628   40.6872 H   0  0  0  0  0  0  0  0  0  0  0  0
   47.2322   34.3994   42.9279 H   0  0  0  0  0  0  0  0  0  0  0  0
   48.1874   31.4927   40.3821 H   0  0  0  0  0  0  0  0  0  0  0  0
   50.4790   30.8165   39.8710 H   0  0  0  0  0  0  0  0  0  0  0  0
   52.3112   31.8846   41.0470 H   0  0  0  0  0  0  0  0  0  0  0  0
   52.0000   33.6210   42.7437 H   0  0  0  0  0  0  0  0  0  0  0  0
   49.6783   34.2868   43.2493 H   0  0  0  0  0  0  0  0  0  0  0  0
  1  6  2  0
  2  1  1  0
  4  5  2  0
  5  7  1  0
  5  6  1  0
  7  8  1  0
  8  9  1  0
 10  9  1  0
 11 10  1  0
 12 11  1  0
 12  7  1  0
 13  4  1  0
 14 15  1  0
 14 12  1  0
 16 15  1  0
 17 16  1  0
 17 18  1  0
 18 14  1  0
 19 18  1  0
 19 24  1  0
 20 19  2  0
 21 20  1  0
 21 22  2  0
 22 23  1  0
 23 24  2  0
  1 25  1  0
  2 26  1  0
  2 27  1  0
  2 28  1  0
  3 29  1  0
  3 30  1  0
  3 31  1  0
  3 32  1  0
  8 33  1  0
  8 34  1  0
  9 35  1  0
  9 36  1  0
 11 37  1  0
 11 38  1  0
 12 39  1  1
 15 40  1  0
 15 41  1  0
 16 42  1  0
 16 43  1  0
 17 44  1  0
 17 45  1  0
 18 46  1  1
 20 47  1  0
 21 48  1  0
 22 49  1  0
 23 50  1  0
 24 51  1  0
M  ISO  8  26   8  27   8  28   8  29   8  30   8  31   8  32   8  33  13
M  ISO  8  34  13  35  13  36  13  37  13  38  13  39  13  40  13  41  13
M  ISO  8  42  13  43  13  44  13  45  13  46  13  47  14  48  14  49  14
M  ISO  2  50  14  51  14
M  END
>  <minimizedAffinity>  (1) 
-5.32630825

>  <minimizedRMSD>  (1) 
2.51034331

$$$$
