
     RDKit          3D

 50 50  0  0  1  0  0  0  0  0999 V2000
   44.6050   35.3480   45.4530 C   0  0  0  0  0  0  0  0  0  0  0  0
   44.5940   36.1280   44.2890 C   0  0  0  0  0  0  0  0  0  0  0  0
   45.5850   35.7660   43.3660 C   0  0  0  0  0  0  0  0  0  0  0  0
   45.8380   34.4310   43.3090 N   0  0  0  0  0  0  0  0  0  0  0  0
   45.8770   33.7330   44.4350 C   0  0  0  0  0  0  0  0  0  0  0  0
   45.2440   34.1850   45.5400 N   0  0  0  0  0  0  0  0  0  0  0  0
   46.5300   32.5120   44.4610 N   0  0  0  0  0  0  0  0  0  0  0  0
   45.9980   31.5240   45.4400 C   0  0  0  0  0  0  0  0  0  0  0  0
   46.9110   30.3380   45.6250 C   0  0  0  0  0  0  0  0  0  0  0  0
   48.1230   30.4520   44.9960 O   0  0  0  0  0  0  0  0  0  0  0  0
   47.9260   30.7430   43.6690 C   0  0  0  0  0  0  0  0  0  0  0  0
   47.6680   32.2410   43.6560 C   0  0  1  0  0  0  0  0  0  0  0  0
   45.7940   34.9570   42.6100 H   0  0  0  0  0  0  0  0  0  0  0  0
   47.3570   32.8750   42.4740 N   0  0  0  0  0  0  0  0  0  0  0  0
   46.1080   32.7060   41.9870 C   0  0  0  0  0  0  0  0  0  0  0  0
   46.0420   33.4350   40.6730 C   0  0  0  0  0  0  0  0  0  0  0  0
   47.2820   34.3210   40.7020 C   0  0  0  0  0  0  0  0  0  0  0  0
   47.8820   34.0550   42.0780 C   0  0  2  0  0  0  0  0  0  0  0  0
   49.0280   34.8860   42.4240 C   0  0  0  0  0  0  0  0  0  0  0  0
   50.4130   34.3500   42.4760 C   0  0  0  0  0  0  0  0  0  0  0  0
   49.1280   36.0520   41.3950 C   0  0  0  0  0  0  0  0  0  0  0  0
   44.0600   35.7145   46.3354 H   0  0  0  0  0  0  0  0  0  0  0  0
   44.5790   37.1935   44.5618 H   0  0  0  0  0  0  0  0  0  0  0  0
   45.4953   35.9141   43.6957 H   0  0  0  0  0  0  0  0  0  0  0  0
   43.6991   35.8887   43.6957 H   0  0  0  0  0  0  0  0  0  0  0  0
   45.5850   35.7660   44.4660 H   0  0  0  0  0  0  0  0  0  0  0  0
   45.5850   36.8031   42.9993 H   0  0  0  0  0  0  0  0  0  0  0  0
   46.4831   35.2475   42.9993 H   0  0  0  0  0  0  0  0  0  0  0  0
   44.6869   35.2475   42.9993 H   0  0  0  0  0  0  0  0  0  0  0  0
   45.8704   32.0247   46.4111 H   0  0  0  0  0  0  0  0  0  0  0  0
   45.0417   31.1488   45.0468 H   0  0  0  0  0  0  0  0  0  0  0  0
   47.0934   30.2092   46.7021 H   0  0  0  0  0  0  0  0  0  0  0  0
   46.4014   29.4760   45.1697 H   0  0  0  0  0  0  0  0  0  0  0  0
   48.8195   30.4949   43.0774 H   0  0  0  0  0  0  0  0  0  0  0  0
   47.0996   30.1670   43.2272 H   0  0  0  0  0  0  0  0  0  0  0  0
   48.6477   32.6227   43.9793 H   0  0  0  0  0  0  0  0  0  0  0  0
   45.9040   31.6358   41.8352 H   0  0  0  0  0  0  0  0  0  0  0  0
   45.3579   33.0979   42.6897 H   0  0  0  0  0  0  0  0  0  0  0  0
   45.1263   34.0406   40.6037 H   0  0  0  0  0  0  0  0  0  0  0  0
   46.0159   32.7586   39.8059 H   0  0  0  0  0  0  0  0  0  0  0  0
   47.9857   34.0376   39.9055 H   0  0  0  0  0  0  0  0  0  0  0  0
   47.0516   35.3835   40.5348 H   0  0  0  0  0  0  0  0  0  0  0  0
   47.8703   34.4148   43.1174 H   0  0  0  0  0  0  0  0  0  0  0  0
   48.7734   35.1077   43.4709 H   0  0  0  0  0  0  0  0  0  0  0  0
   50.7209   34.2308   43.5253 H   0  0  0  0  0  0  0  0  0  0  0  0
   50.4475   33.3736   41.9706 H   0  0  0  0  0  0  0  0  0  0  0  0
   51.0958   35.0488   41.9706 H   0  0  0  0  0  0  0  0  0  0  0  0
   49.2100   37.0087   41.9317 H   0  0  0  0  0  0  0  0  0  0  0  0
   50.0171   35.9085   40.7635 H   0  0  0  0  0  0  0  0  0  0  0  0
   48.2274   36.0619   40.7635 H   0  0  0  0  0  0  0  0  0  0  0  0
  1  6  2  0
  2  1  1  0
  4  5  2  0
  5  7  1  0
  5  6  1  0
  7  8  1  0
  8  9  1  0
 10  9  1  0
 11 10  1  0
 12 11  1  0
 12  7  1  0
 13  4  1  0
 14 15  1  0
 14 12  1  0
 16 17  1  0
 16 15  1  0
 17 18  1  0
 18 19  1  0
 18 14  1  0
 19 20  1  0
 21 19  1  0
  1 22  1  0
  2 23  1  0
  2 24  1  0
  2 25  1  0
  3 26  1  0
  3 27  1  0
  3 28  1  0
  3 29  1  0
  8 30  1  0
  8 31  1  0
  9 32  1  0
  9 33  1  0
 11 34  1  0
 11 35  1  0
 12 36  1  1
 15 37  1  0
 15 38  1  0
 16 39  1  0
 16 40  1  0
 17 41  1  0
 17 42  1  0
 18 43  1  6
 19 44  1  0
 20 45  1  0
 20 46  1  0
 20 47  1  0
 21 48  1  0
 21 49  1  0
 21 50  1  0
M  ISO  8  23   8  24   8  25   8  26   8  27   8  28   8  29   8  30  13
M  ISO  8  31  13  32  13  33  13  34  13  35  13  36  13  37  13  38  13
M  ISO  8  39  13  40  13  41  13  42  13  43  13  44   8  45   8  46   8
M  ISO  4  47   8  48   8  49   8  50   8
M  END
>  <minimizedAffinity>  (1) 
-5.60300636

>  <minimizedRMSD>  (1) 
2.43734694

$$$$
