
     RDKit          3D

 54 55  0  0  1  0  0  0  0  0999 V2000
   44.4290   35.8780   44.6440 C   0  0  0  0  0  0  0  0  0  0  0  0
   44.4510   35.6160   43.2690 C   0  0  0  0  0  0  0  0  0  0  0  0
   45.3190   34.5700   42.9050 C   0  0  0  0  0  0  0  0  0  0  0  0
   45.3770   33.5670   43.8270 N   0  0  0  0  0  0  0  0  0  0  0  0
   45.4000   33.8540   45.1210 C   0  0  0  0  0  0  0  0  0  0  0  0
   44.9060   35.0360   45.5570 N   0  0  0  0  0  0  0  0  0  0  0  0
   45.8980   32.9350   46.0230 N   0  0  0  0  0  0  0  0  0  0  0  0
   45.3140   33.0020   47.3880 C   0  0  0  0  0  0  0  0  0  0  0  0
   46.0820   32.1820   48.3940 C   0  0  0  0  0  0  0  0  0  0  0  0
   47.2470   31.6460   47.9200 O   0  0  0  0  0  0  0  0  0  0  0  0
   46.9860   30.9430   46.7660 C   0  0  0  0  0  0  0  0  0  0  0  0
   46.9380   32.0240   45.6960 C   0  0  1  0  0  0  0  0  0  0  0  0
   45.3580   33.4310   42.9600 H   0  0  0  0  0  0  0  0  0  0  0  0
   46.6610   31.6710   44.3900 N   0  0  0  0  0  0  0  0  0  0  0  0
   45.3550   31.4740   44.0740 C   0  0  0  0  0  0  0  0  0  0  0  0
   45.3190   31.0710   42.6210 C   0  0  0  0  0  0  0  0  0  0  0  0
   46.7210   31.4600   42.1200 C   0  0  0  0  0  0  0  0  0  0  0  0
   47.3460   32.1380   43.3210 C   0  0  2  0  0  0  0  0  0  0  0  0
   48.5700   32.7770   43.0570 N   0  0  0  0  0  0  0  0  0  0  0  0
   49.4810   32.3230   42.1580 C   0  0  0  0  0  0  0  0  0  0  0  0
   50.8110   33.0430   42.4780 C   0  0  0  0  0  0  0  0  0  0  0  0
   50.7820   34.3770   42.1750 O   0  0  0  0  0  0  0  0  0  0  0  0
   49.5060   34.8730   42.2140 C   0  0  0  0  0  0  0  0  0  0  0  0
   48.6480   34.1850   43.2850 C   0  0  0  0  0  0  0  0  0  0  0  0
   43.9951   36.8288   44.9872 H   0  0  0  0  0  0  0  0  0  0  0  0
   44.5420   34.5323   43.1036 H   0  0  0  0  0  0  0  0  0  0  0  0
   43.5191   35.9798   42.8115 H   0  0  0  0  0  0  0  0  0  0  0  0
   45.3091   36.1301   42.8115 H   0  0  0  0  0  0  0  0  0  0  0  0
   45.3190   34.5700   44.0050 H   0  0  0  0  0  0  0  0  0  0  0  0
   45.3190   35.6071   42.5383 H   0  0  0  0  0  0  0  0  0  0  0  0
   46.2171   34.0515   42.5383 H   0  0  0  0  0  0  0  0  0  0  0  0
   44.4209   34.0515   42.5383 H   0  0  0  0  0  0  0  0  0  0  0  0
   45.3121   34.0513   47.7182 H   0  0  0  0  0  0  0  0  0  0  0  0
   44.2959   32.5892   47.3329 H   0  0  0  0  0  0  0  0  0  0  0  0
   46.3250   32.8286   49.2501 H   0  0  0  0  0  0  0  0  0  0  0  0
   45.4355   31.3340   48.6641 H   0  0  0  0  0  0  0  0  0  0  0  0
   47.7867   30.2182   46.5573 H   0  0  0  0  0  0  0  0  0  0  0  0
   46.0585   30.3544   46.8229 H   0  0  0  0  0  0  0  0  0  0  0  0
   47.9728   32.3969   45.7103 H   0  0  0  0  0  0  0  0  0  0  0  0
   44.9293   30.6758   44.6999 H   0  0  0  0  0  0  0  0  0  0  0  0
   44.7632   32.3848   44.2477 H   0  0  0  0  0  0  0  0  0  0  0  0
   45.1469   29.9898   42.5146 H   0  0  0  0  0  0  0  0  0  0  0  0
   44.5073   31.5537   42.0569 H   0  0  0  0  0  0  0  0  0  0  0  0
   47.2959   30.5690   41.8274 H   0  0  0  0  0  0  0  0  0  0  0  0
   46.6956   32.1033   41.2281 H   0  0  0  0  0  0  0  0  0  0  0  0
   47.4821   33.0889   43.8570 H   0  0  0  0  0  0  0  0  0  0  0  0
   49.1564   32.5619   41.1345 H   0  0  0  0  0  0  0  0  0  0  0  0
   49.5944   31.2308   42.2240 H   0  0  0  0  0  0  0  0  0  0  0  0
   51.0204   32.9318   43.5521 H   0  0  0  0  0  0  0  0  0  0  0  0
   51.5933   32.5811   41.8577 H   0  0  0  0  0  0  0  0  0  0  0  0
   49.5512   35.9497   42.4344 H   0  0  0  0  0  0  0  0  0  0  0  0
   49.0403   34.6834   41.2356 H   0  0  0  0  0  0  0  0  0  0  0  0
   47.6335   34.6095   43.2596 H   0  0  0  0  0  0  0  0  0  0  0  0
   49.1141   34.3540   44.2669 H   0  0  0  0  0  0  0  0  0  0  0  0
  1  6  2  0
  2  1  1  0
  4  5  2  0
  5  6  1  0
  5  7  1  0
  7  8  1  0
  8  9  1  0
 10  9  1  0
 11 10  1  0
 12  7  1  0
 12 11  1  0
 13  4  1  0
 14 15  1  0
 14 12  1  0
 16 15  1  0
 17 16  1  0
 17 18  1  0
 18 14  1  0
 19 24  1  0
 19 18  1  0
 20 21  1  0
 20 19  1  0
 22 23  1  0
 22 21  1  0
 23 24  1  0
  1 25  1  0
  2 26  1  0
  2 27  1  0
  2 28  1  0
  3 29  1  0
  3 30  1  0
  3 31  1  0
  3 32  1  0
  8 33  1  0
  8 34  1  0
  9 35  1  0
  9 36  1  0
 11 37  1  0
 11 38  1  0
 12 39  1  6
 15 40  1  0
 15 41  1  0
 16 42  1  0
 16 43  1  0
 17 44  1  0
 17 45  1  0
 18 46  1  1
 20 47  1  0
 20 48  1  0
 21 49  1  0
 21 50  1  0
 23 51  1  0
 23 52  1  0
 24 53  1  0
 24 54  1  0
M  ISO  8  26   8  27   8  28   8  29   8  30   8  31   8  32   8  33  13
M  ISO  8  34  13  35  13  36  13  37  13  38  13  39  13  40  13  41  13
M  ISO  8  42  13  43  13  44  13  45  13  46  13  47  13  48  13  49  13
M  ISO  5  50  13  51  13  52  13  53  13  54  13
M  END
>  <minimizedAffinity>  (1) 
-5.33331919

>  <minimizedRMSD>  (1) 
0.919513762

$$$$
