
     RDKit          3D

 49 50  0  0  1  0  0  0  0  0999 V2000
   44.4050   35.9410   44.7080 C   0  0  0  0  0  0  0  0  0  0  0  0
   44.3220   35.7850   43.3190 C   0  0  0  0  0  0  0  0  0  0  0  0
   45.1690   34.7880   42.8080 C   0  0  0  0  0  0  0  0  0  0  0  0
   45.3410   33.7170   43.6430 N   0  0  0  0  0  0  0  0  0  0  0  0
   45.4550   33.9140   44.9500 C   0  0  0  0  0  0  0  0  0  0  0  0
   44.9720   35.0430   45.5130 N   0  0  0  0  0  0  0  0  0  0  0  0
   46.0340   32.9430   45.7380 N   0  0  0  0  0  0  0  0  0  0  0  0
   45.5350   32.8710   47.1360 C   0  0  0  0  0  0  0  0  0  0  0  0
   46.3800   31.9850   48.0170 C   0  0  0  0  0  0  0  0  0  0  0  0
   47.5640   31.5890   47.4400 O   0  0  0  0  0  0  0  0  0  0  0  0
   47.2810   30.9670   46.2450 C   0  0  0  0  0  0  0  0  0  0  0  0
   47.0810   32.1070   45.2650 C   0  0  1  0  0  0  0  0  0  0  0  0
   45.2560   33.6630   42.7710 H   0  0  0  0  0  0  0  0  0  0  0  0
   46.7100   31.8040   43.9600 N   0  0  0  0  0  0  0  0  0  0  0  0
   45.4760   31.3010   43.7600 C   0  0  0  0  0  0  0  0  0  0  0  0
   45.3540   31.0980   42.2630 C   0  0  0  0  0  0  0  0  0  0  0  0
   46.5030   31.9670   41.7030 C   0  0  0  0  0  0  0  0  0  0  0  0
   47.0710   32.6170   42.9220 C   0  0  2  0  0  0  0  0  0  0  0  0
   48.4980   32.0590   42.8320 C   0  0  0  0  0  0  0  0  0  0  0  0
   49.5090   32.9690   42.4750 C   0  0  0  0  0  0  0  0  0  0  0  0
   50.8360   32.6190   42.3420 C   0  0  0  0  0  0  0  0  0  0  0  0
   51.1670   31.3450   42.5660 N   0  0  0  0  0  0  0  0  0  0  0  0
   50.2320   30.4620   42.9050 C   0  0  0  0  0  0  0  0  0  0  0  0
   48.9640   30.8040   43.0310 N   0  0  0  0  0  0  0  0  0  0  0  0
   43.9807   36.8509   45.1575 H   0  0  0  0  0  0  0  0  0  0  0  0
   43.8170   34.8359   43.0862 H   0  0  0  0  0  0  0  0  0  0  0  0
   43.7490   36.6201   42.8898 H   0  0  0  0  0  0  0  0  0  0  0  0
   45.3348   35.7764   42.8898 H   0  0  0  0  0  0  0  0  0  0  0  0
   45.1690   34.7880   43.9080 H   0  0  0  0  0  0  0  0  0  0  0  0
   45.1690   35.8251   42.4413 H   0  0  0  0  0  0  0  0  0  0  0  0
   46.0671   34.2695   42.4413 H   0  0  0  0  0  0  0  0  0  0  0  0
   44.2709   34.2695   42.4413 H   0  0  0  0  0  0  0  0  0  0  0  0
   45.5312   33.8861   47.5598 H   0  0  0  0  0  0  0  0  0  0  0  0
   44.5249   32.4366   47.1035 H   0  0  0  0  0  0  0  0  0  0  0  0
   46.6123   32.5357   48.9404 H   0  0  0  0  0  0  0  0  0  0  0  0
   45.7959   31.0719   48.2043 H   0  0  0  0  0  0  0  0  0  0  0  0
   48.1186   30.3265   45.9315 H   0  0  0  0  0  0  0  0  0  0  0  0
   46.4001   30.3116   46.3115 H   0  0  0  0  0  0  0  0  0  0  0  0
   48.0879   32.5473   45.2184 H   0  0  0  0  0  0  0  0  0  0  0  0
   45.3623   30.3425   44.2876 H   0  0  0  0  0  0  0  0  0  0  0  0
   44.6957   31.9748   44.1434 H   0  0  0  0  0  0  0  0  0  0  0  0
   45.4907   30.0401   41.9945 H   0  0  0  0  0  0  0  0  0  0  0  0
   44.3662   31.3747   41.8658 H   0  0  0  0  0  0  0  0  0  0  0  0
   47.2582   31.3448   41.2006 H   0  0  0  0  0  0  0  0  0  0  0  0
   46.1646   32.6918   40.9479 H   0  0  0  0  0  0  0  0  0  0  0  0
   46.8510   33.6911   43.0110 H   0  0  0  0  0  0  0  0  0  0  0  0
   49.2260   34.0161   42.2921 H   0  0  0  0  0  0  0  0  0  0  0  0
   51.5956   33.3634   42.0611 H   0  0  0  0  0  0  0  0  0  0  0  0
   50.5241   29.4170   43.0854 H   0  0  0  0  0  0  0  0  0  0  0  0
  1  6  2  0
  2  1  1  0
  4  5  2  0
  5  6  1  0
  5  7  1  0
  7  8  1  0
  8  9  1  0
 10  9  1  0
 11 10  1  0
 12  7  1  0
 12 11  1  0
 13  4  1  0
 14 15  1  0
 14 12  1  0
 16 15  1  0
 17 16  1  0
 17 18  1  0
 18 14  1  0
 19 18  1  0
 19 24  1  0
 20 19  2  0
 21 20  1  0
 21 22  2  0
 22 23  1  0
 23 24  2  0
  1 25  1  0
  2 26  1  0
  2 27  1  0
  2 28  1  0
  3 29  1  0
  3 30  1  0
  3 31  1  0
  3 32  1  0
  8 33  1  0
  8 34  1  0
  9 35  1  0
  9 36  1  0
 11 37  1  0
 11 38  1  0
 12 39  1  6
 15 40  1  0
 15 41  1  0
 16 42  1  0
 16 43  1  0
 17 44  1  0
 17 45  1  0
 18 46  1  1
 20 47  1  0
 21 48  1  0
 23 49  1  0
M  ISO  8  26   8  27   8  28   8  29   8  30   8  31   8  32   8  33  13
M  ISO  8  34  13  35  13  36  13  37  13  38  13  39  13  40  13  41  13
M  ISO  8  42  13  43  13  44  13  45  13  46  13  47  14  48  14  49  14
M  END
>  <minimizedAffinity>  (1) 
-5.10292959

>  <minimizedRMSD>  (1) 
1.28457761

$$$$
