
     RDKit          3D

 43 43  0  0  1  0  0  0  0  0999 V2000
   44.3960   35.9160   44.6150 C   0  0  0  0  0  0  0  0  0  0  0  0
   44.3910   35.7150   43.2300 C   0  0  0  0  0  0  0  0  0  0  0  0
   45.2960   34.7270   42.7970 C   0  0  0  0  0  0  0  0  0  0  0  0
   45.4160   33.6840   43.6670 N   0  0  0  0  0  0  0  0  0  0  0  0
   45.4670   33.9130   44.9740 C   0  0  0  0  0  0  0  0  0  0  0  0
   44.9360   35.0520   45.4780 N   0  0  0  0  0  0  0  0  0  0  0  0
   46.0300   32.9860   45.8150 N   0  0  0  0  0  0  0  0  0  0  0  0
   45.4650   32.9430   47.1910 C   0  0  0  0  0  0  0  0  0  0  0  0
   46.3520   32.1850   48.1490 C   0  0  0  0  0  0  0  0  0  0  0  0
   47.5450   31.7450   47.6130 O   0  0  0  0  0  0  0  0  0  0  0  0
   47.2810   31.0520   46.4540 C   0  0  0  0  0  0  0  0  0  0  0  0
   47.1110   32.1500   45.4170 C   0  0  1  0  0  0  0  0  0  0  0  0
   45.3750   33.5990   42.7950 H   0  0  0  0  0  0  0  0  0  0  0  0
   46.7870   31.7960   44.1250 N   0  0  0  0  0  0  0  0  0  0  0  0
   45.5000   31.5010   43.8280 C   0  0  0  0  0  0  0  0  0  0  0  0
   45.4820   31.1820   42.3450 C   0  0  0  0  0  0  0  0  0  0  0  0
   46.8100   31.7880   41.8270 C   0  0  0  0  0  0  0  0  0  0  0  0
   47.3700   32.3940   43.0470 C   0  0  2  0  0  0  0  0  0  0  0  0
   48.6300   33.1590   42.9640 C   0  0  0  0  0  0  0  0  0  0  0  0
   48.6960   34.3510   43.0620 O   0  0  0  0  0  0  0  0  0  0  0  0
   43.9322   36.8309   45.0122 H   0  0  0  0  0  0  0  0  0  0  0  0
   44.3642   34.6363   43.0161 H   0  0  0  0  0  0  0  0  0  0  0  0
   43.5046   36.1977   42.7926 H   0  0  0  0  0  0  0  0  0  0  0  0
   45.3003   36.1530   42.7926 H   0  0  0  0  0  0  0  0  0  0  0  0
   45.2960   34.7270   43.8970 H   0  0  0  0  0  0  0  0  0  0  0  0
   45.2960   35.7641   42.4303 H   0  0  0  0  0  0  0  0  0  0  0  0
   46.1941   34.2085   42.4303 H   0  0  0  0  0  0  0  0  0  0  0  0
   44.3979   34.2085   42.4303 H   0  0  0  0  0  0  0  0  0  0  0  0
   45.3468   33.9733   47.5576 H   0  0  0  0  0  0  0  0  0  0  0  0
   44.4977   32.4216   47.1424 H   0  0  0  0  0  0  0  0  0  0  0  0
   46.5820   32.8462   48.9974 H   0  0  0  0  0  0  0  0  0  0  0  0
   45.7930   31.2830   48.4385 H   0  0  0  0  0  0  0  0  0  0  0  0
   48.1193   30.3897   46.1920 H   0  0  0  0  0  0  0  0  0  0  0  0
   46.3997   30.3989   46.5358 H   0  0  0  0  0  0  0  0  0  0  0  0
   48.1160   32.5963   45.3891 H   0  0  0  0  0  0  0  0  0  0  0  0
   45.1616   30.6318   44.4111 H   0  0  0  0  0  0  0  0  0  0  0  0
   44.8263   32.3358   44.0713 H   0  0  0  0  0  0  0  0  0  0  0  0
   45.4542   30.0952   42.1772 H   0  0  0  0  0  0  0  0  0  0  0  0
   44.5978   31.5869   41.8310 H   0  0  0  0  0  0  0  0  0  0  0  0
   47.4752   31.0086   41.4269 H   0  0  0  0  0  0  0  0  0  0  0  0
   46.6779   32.5007   40.9996 H   0  0  0  0  0  0  0  0  0  0  0  0
   47.2255   33.4432   43.3443 H   0  0  0  0  0  0  0  0  0  0  0  0
   49.5641   32.6009   42.8025 H   0  0  0  0  0  0  0  0  0  0  0  0
  1  6  2  0
  2  1  1  0
  4  5  2  0
  5  6  1  0
  5  7  1  0
  7  8  1  0
  8  9  1  0
 10  9  1  0
 11 10  1  0
 12  7  1  0
 12 11  1  0
 13  4  1  0
 14 15  1  0
 14 12  1  0
 16 15  1  0
 17 16  1  0
 17 18  1  0
 18 14  1  0
 19 18  1  0
 19 20  2  0
  1 21  1  0
  2 22  1  0
  2 23  1  0
  2 24  1  0
  3 25  1  0
  3 26  1  0
  3 27  1  0
  3 28  1  0
  8 29  1  0
  8 30  1  0
  9 31  1  0
  9 32  1  0
 11 33  1  0
 11 34  1  0
 12 35  1  6
 15 36  1  0
 15 37  1  0
 16 38  1  0
 16 39  1  0
 17 40  1  0
 17 41  1  0
 18 42  1  1
 19 43  1  0
M  ISO  8  22   8  23   8  24   8  25   8  26   8  27   8  28   8  29  13
M  ISO  8  30  13  31  13  32  13  33  13  34  13  35  13  36  13  37  13
M  ISO  6  38  13  39  13  40  13  41  13  42  13  43   6
M  END
>  <minimizedAffinity>  (1) 
-4.59924221

>  <minimizedRMSD>  (1) 
0.823628843

$$$$
