
     RDKit          3D

 42 42  0  0  1  0  0  0  0  0999 V2000
   44.4710   35.9060   44.6920 C   0  0  0  0  0  0  0  0  0  0  0  0
   44.3780   35.7450   43.3040 C   0  0  0  0  0  0  0  0  0  0  0  0
   45.2150   34.7210   42.7920 C   0  0  0  0  0  0  0  0  0  0  0  0
   45.3170   33.6650   43.6430 N   0  0  0  0  0  0  0  0  0  0  0  0
   45.4550   33.8480   44.9460 C   0  0  0  0  0  0  0  0  0  0  0  0
   45.0110   34.9990   45.5040 N   0  0  0  0  0  0  0  0  0  0  0  0
   46.0200   32.8670   45.7370 N   0  0  0  0  0  0  0  0  0  0  0  0
   45.5280   32.8160   47.1360 C   0  0  0  0  0  0  0  0  0  0  0  0
   46.3670   31.9320   48.0240 C   0  0  0  0  0  0  0  0  0  0  0  0
   47.5280   31.4960   47.4370 O   0  0  0  0  0  0  0  0  0  0  0  0
   47.2440   30.8890   46.2500 C   0  0  0  0  0  0  0  0  0  0  0  0
   47.0500   32.0190   45.2570 C   0  0  1  0  0  0  0  0  0  0  0  0
   46.6970   31.7160   43.9520 N   0  0  0  0  0  0  0  0  0  0  0  0
   45.4070   31.3340   43.7500 C   0  0  0  0  0  0  0  0  0  0  0  0
   45.2720   31.0960   42.2650 C   0  0  0  0  0  0  0  0  0  0  0  0
   46.5260   31.7940   41.6910 C   0  0  0  0  0  0  0  0  0  0  0  0
   47.1030   32.4700   42.9060 C   0  0  2  0  0  0  0  0  0  0  0  0
   48.7700   31.5530   43.0160 S   0  0  0  0  0  0  0  0  0  0  0  0
   44.0766   36.8320   45.1357 H   0  0  0  0  0  0  0  0  0  0  0  0
   43.8395   34.8128   43.0783 H   0  0  0  0  0  0  0  0  0  0  0  0
   43.8330   36.5971   42.8717 H   0  0  0  0  0  0  0  0  0  0  0  0
   45.3884   35.6986   42.8717 H   0  0  0  0  0  0  0  0  0  0  0  0
   45.2150   34.7210   43.8920 H   0  0  0  0  0  0  0  0  0  0  0  0
   45.2150   35.7581   42.4253 H   0  0  0  0  0  0  0  0  0  0  0  0
   46.1131   34.2025   42.4253 H   0  0  0  0  0  0  0  0  0  0  0  0
   44.3169   34.2025   42.4253 H   0  0  0  0  0  0  0  0  0  0  0  0
   45.6509   32.7935   43.2071 H   0  0  0  0  0  0  0  0  0  0  0  0
   45.5366   33.8359   47.5480 H   0  0  0  0  0  0  0  0  0  0  0  0
   44.5137   32.3910   47.1127 H   0  0  0  0  0  0  0  0  0  0  0  0
   46.6285   32.4990   48.9296 H   0  0  0  0  0  0  0  0  0  0  0  0
   45.7654   31.0379   48.2446 H   0  0  0  0  0  0  0  0  0  0  0  0
   48.0777   30.2422   45.9392 H   0  0  0  0  0  0  0  0  0  0  0  0
   46.3525   30.2485   46.3207 H   0  0  0  0  0  0  0  0  0  0  0  0
   48.0596   32.4516   45.1963 H   0  0  0  0  0  0  0  0  0  0  0  0
   45.1901   30.4103   44.3066 H   0  0  0  0  0  0  0  0  0  0  0  0
   44.6999   32.0998   44.1016 H   0  0  0  0  0  0  0  0  0  0  0  0
   45.2765   30.0205   42.0341 H   0  0  0  0  0  0  0  0  0  0  0  0
   44.3299   31.4797   41.8463 H   0  0  0  0  0  0  0  0  0  0  0  0
   47.2312   31.0624   41.2699 H   0  0  0  0  0  0  0  0  0  0  0  0
   46.3049   32.4867   40.8656 H   0  0  0  0  0  0  0  0  0  0  0  0
   46.9629   33.5609   42.8881 H   0  0  0  0  0  0  0  0  0  0  0  0
   49.1041   31.3692   44.3319 H   0  0  0  0  0  0  0  0  0  0  0  0
  1  6  2  0
  2  1  1  0
  4  5  2  3
  5  6  1  0
  5  7  1  0
  7  8  1  0
  8  9  1  0
 10  9  1  0
 11 10  1  0
 12  7  1  0
 12 11  1  0
 13 14  1  0
 13 12  1  0
 15 14  1  0
 16 15  1  0
 16 17  1  0
 17 18  1  0
 17 13  1  0
  1 19  1  0
  2 20  1  0
  2 21  1  0
  2 22  1  0
  3 23  1  0
  3 24  1  0
  3 25  1  0
  3 26  1  0
  4 27  1  0
  8 28  1  0
  8 29  1  0
  9 30  1  0
  9 31  1  0
 11 32  1  0
 11 33  1  0
 12 34  1  6
 14 35  1  0
 14 36  1  0
 15 37  1  0
 15 38  1  0
 16 39  1  0
 16 40  1  0
 17 41  1  1
 18 42  1  0
M  ISO  8  20   8  21   8  22   8  23   8  24   8  25   8  26   8  28  13
M  ISO  8  29  13  30  13  31  13  32  13  33  13  34  13  35  13  36  13
M  ISO  6  37  13  38  13  39  13  40  13  41  13  42  11
M  END
>  <minimizedAffinity>  (1) 
-4.38535357

>  <minimizedRMSD>  (1) 
0.946909308

$$$$
