
     RDKit          3D

 16 16  0  0  0  0  0  0  0  0999 V2000
   45.6200   34.3760   41.0430 C   0  0  0  0  0  0  0  0  0  0  0  0
   46.9320   34.7930   41.3510 C   0  0  0  0  0  0  0  0  0  0  0  0
   47.9740   34.2570   40.5740 C   0  0  0  0  0  0  0  0  0  0  0  0
   47.6650   33.3730   39.5750 N   0  0  0  0  0  0  0  0  0  0  0  0
   46.3890   33.0120   39.3260 C   0  0  0  0  0  0  0  0  0  0  0  0
   45.3990   33.5120   40.0550 N   0  0  0  0  0  0  0  0  0  0  0  0
   44.5230   34.9230   41.8410 C   0  0  0  0  0  0  0  0  0  0  0  0
   43.7400   35.7570   41.3040 O   0  0  0  0  0  0  0  0  0  0  0  0
   44.3930   34.4930   43.1650 O   0  0  0  0  0  0  0  0  0  0  0  0
   44.9980   35.2700   44.1770 C   0  0  0  0  0  0  0  0  0  0  0  0
   44.1710   35.4370   45.2810 F   0  0  0  0  0  0  0  0  0  0  0  0
   46.1660   34.6740   44.6010 F   0  0  0  0  0  0  0  0  0  0  0  0
   45.2650   36.5170   43.6320 F   0  0  0  0  0  0  0  0  0  0  0  0
   47.1312   35.5067   42.1640 H   0  0  0  0  0  0  0  0  0  0  0  0
   49.0189   34.5427   40.7652 H   0  0  0  0  0  0  0  0  0  0  0  0
   46.1685   32.3010   38.5162 H   0  0  0  0  0  0  0  0  0  0  0  0
  1  2  2  0
  1  7  1  0
  3  2  1  0
  4  3  2  0
  5  4  1  0
  5  6  2  0
  6  1  1  0
  7  9  1  0
  8  7  2  0
  9 10  1  0
 10 12  1  0
 10 11  1  0
 13 10  1  0
  2 14  1  0
  3 15  1  0
  5 16  1  0
M  ISO  3  14  14  15  14  16  14
M  END
>  <minimizedAffinity>  (1) 
-3.49831772

>  <minimizedRMSD>  (1) 
5.06028891

$$$$
