
     RDKit          3D

 29 30  0  0  0  0  0  0  0  0999 V2000
   46.1930   33.8460   44.8050 C   0  0  0  0  0  0  0  0  0  0  0  0
   45.1620   34.6810   44.5750 C   0  0  0  0  0  0  0  0  0  0  0  0
   45.5440   35.3880   42.9470 S   0  0  0  0  0  0  0  0  0  0  0  0
   47.1410   34.3580   42.8560 C   0  0  0  0  0  0  0  0  0  0  0  0
   47.0870   33.8010   43.8590 N   0  0  0  0  0  0  0  0  0  0  0  0
   45.4350   32.4400   48.2690 C   0  0  0  0  0  0  0  0  0  0  0  0
   45.3550   33.1890   47.1000 C   0  0  0  0  0  0  0  0  0  0  0  0
   46.2600   33.0570   46.0590 C   0  0  0  0  0  0  0  0  0  0  0  0
   47.2230   32.1360   46.2810 N   0  0  0  0  0  0  0  0  0  0  0  0
   47.3350   31.3950   47.3890 C   0  0  0  0  0  0  0  0  0  0  0  0
   46.4450   31.5590   48.3590 N   0  0  0  0  0  0  0  0  0  0  0  0
   48.1040   34.3910   41.6990 C   0  0  0  0  0  0  0  0  0  0  0  0
   47.2960   34.2140   40.4540 C   0  0  0  0  0  0  0  0  0  0  0  0
   49.0590   33.2430   41.9180 C   0  0  0  0  0  0  0  0  0  0  0  0
   48.8500   35.7080   41.6640 C   0  0  0  0  0  0  0  0  0  0  0  0
   49.1380   35.9820   40.3120 O   0  0  0  0  0  0  0  0  0  0  0  0
   44.2948   34.8860   45.2199 H   0  0  0  0  0  0  0  0  0  0  0  0
   44.7049   32.5633   49.0824 H   0  0  0  0  0  0  0  0  0  0  0  0
   44.5377   33.9180   46.9972 H   0  0  0  0  0  0  0  0  0  0  0  0
   48.1497   30.6634   47.4939 H   0  0  0  0  0  0  0  0  0  0  0  0
   46.2540   33.9857   40.7225 H   0  0  0  0  0  0  0  0  0  0  0  0
   47.3275   35.1403   39.8616 H   0  0  0  0  0  0  0  0  0  0  0  0
   47.7119   33.3857   39.8616 H   0  0  0  0  0  0  0  0  0  0  0  0
   49.1948   33.0798   42.9973 H   0  0  0  0  0  0  0  0  0  0  0  0
   48.6487   32.3319   41.4581 H   0  0  0  0  0  0  0  0  0  0  0  0
   50.0296   33.4806   41.4581 H   0  0  0  0  0  0  0  0  0  0  0  0
   48.2244   36.5080   42.0867 H   0  0  0  0  0  0  0  0  0  0  0  0
   49.7736   35.6522   42.2588 H   0  0  0  0  0  0  0  0  0  0  0  0
   49.8542   36.6634   40.2587 H   0  0  0  0  0  0  0  0  0  0  0  0
  1  8  1  0
  2  1  2  0
  3  2  1  0
  4  3  1  0
  4  5  2  0
  5  1  1  0
  6 11  2  0
  7  6  1  0
  8  9  1  0
  8  7  2  0
  9 10  2  0
 10 11  1  0
 12 14  1  0
 12  4  1  0
 13 12  1  0
 15 12  1  0
 16 15  1  0
  2 17  1  0
  6 18  1  0
  7 19  1  0
 10 20  1  0
 13 21  1  0
 13 22  1  0
 13 23  1  0
 14 24  1  0
 14 25  1  0
 14 26  1  0
 15 27  1  0
 15 28  1  0
 16 29  1  0
M  ISO  8  17  14  18  14  19  14  20  14  21   8  22   8  23   8  24   8
M  ISO  5  25   8  26   8  27   8  28   8  29   3
M  END
>  <minimizedAffinity>  (1) 
-4.88562918

>  <minimizedRMSD>  (1) 
0.584578991

$$$$
