
     RDKit          3D

 34 36  0  0  0  0  0  0  0  0999 V2000
   45.6010   33.6930   41.6210 C   0  0  0  0  0  0  0  0  0  0  0  0
   45.5180   33.8340   45.2970 C   0  0  0  0  0  0  0  0  0  0  0  0
   44.9050   35.0230   45.4620 C   0  0  0  0  0  0  0  0  0  0  0  0
   44.6200   35.5860   43.7550 S   0  0  0  0  0  0  0  0  0  0  0  0
   45.4360   34.0040   43.0810 C   0  0  0  0  0  0  0  0  0  0  0  0
   45.7090   33.4710   44.0680 N   0  0  0  0  0  0  0  0  0  0  0  0
   45.6180   32.1870   48.7350 C   0  0  0  0  0  0  0  0  0  0  0  0
   45.1960   32.9530   47.6510 C   0  0  0  0  0  0  0  0  0  0  0  0
   45.9310   33.0280   46.4800 C   0  0  0  0  0  0  0  0  0  0  0  0
   47.0720   32.3000   46.4890 N   0  0  0  0  0  0  0  0  0  0  0  0
   47.4970   31.5590   47.5120 C   0  0  0  0  0  0  0  0  0  0  0  0
   46.7620   31.5120   48.6280 N   0  0  0  0  0  0  0  0  0  0  0  0
   44.2950   33.9990   40.9500 C   0  0  0  0  0  0  0  0  0  0  0  0
   45.9450   32.2270   41.5330 C   0  0  0  0  0  0  0  0  0  0  0  0
   46.6770   34.5320   41.0120 C   0  0  0  0  0  0  0  0  0  0  0  0
   48.0330   34.1800   41.5010 C   0  0  0  0  0  0  0  0  0  0  0  0
   48.7140   32.9800   41.1290 C   0  0  0  0  0  0  0  0  0  0  0  0
   50.3390   33.1630   42.0800 S   0  0  0  0  0  0  0  0  0  0  0  0
   49.7340   34.8170   42.7630 C   0  0  0  0  0  0  0  0  0  0  0  0
   48.7160   34.9470   42.3150 N   0  0  0  0  0  0  0  0  0  0  0  0
   44.6408   35.5305   46.4015 H   0  0  0  0  0  0  0  0  0  0  0  0
   45.0210   32.1403   49.6577 H   0  0  0  0  0  0  0  0  0  0  0  0
   44.2528   33.5138   47.7273 H   0  0  0  0  0  0  0  0  0  0  0  0
   48.4383   30.9945   47.4393 H   0  0  0  0  0  0  0  0  0  0  0  0
   43.5240   34.1797   41.7135 H   0  0  0  0  0  0  0  0  0  0  0  0
   44.4065   34.8953   40.3222 H   0  0  0  0  0  0  0  0  0  0  0  0
   43.9967   33.1464   40.3222 H   0  0  0  0  0  0  0  0  0  0  0  0
   46.0424   31.8117   42.5469 H   0  0  0  0  0  0  0  0  0  0  0  0
   45.1473   31.6949   40.9939 H   0  0  0  0  0  0  0  0  0  0  0  0
   46.8961   32.1053   40.9939 H   0  0  0  0  0  0  0  0  0  0  0  0
   46.4794   35.5864   41.2553 H   0  0  0  0  0  0  0  0  0  0  0  0
   46.6611   34.3511   39.9271 H   0  0  0  0  0  0  0  0  0  0  0  0
   48.3820   32.1670   40.4666 H   0  0  0  0  0  0  0  0  0  0  0  0
   50.2622   35.4983   43.4462 H   0  0  0  0  0  0  0  0  0  0  0  0
  1  5  1  0
  2  3  2  0
  2  9  1  0
  4  3  1  0
  5  4  1  0
  5  6  2  0
  6  2  1  0
  8  7  2  0
  9 10  2  0
  9  8  1  0
 10 11  1  0
 11 12  2  0
 12  7  1  0
 13  1  1  0
 14  1  1  0
 15 16  1  0
 15  1  1  0
 16 20  1  0
 17 16  2  0
 17 18  1  0
 18 19  1  0
 20 19  2  0
  3 21  1  0
  7 22  1  0
  8 23  1  0
 11 24  1  0
 13 25  1  0
 13 26  1  0
 13 27  1  0
 14 28  1  0
 14 29  1  0
 14 30  1  0
 15 31  1  0
 15 32  1  0
 17 33  1  0
 19 34  1  0
M  ISO  8  21  14  22  14  23  14  24  14  25   8  26   8  27   8  28   8
M  ISO  6  29   8  30   8  31   8  32   8  33  14  34  14
M  END
>  <minimizedAffinity>  (1) 
-5.05118942

>  <minimizedRMSD>  (1) 
2.65793276

$$$$
