
     RDKit          3D

 35 37  0  0  0  0  0  0  0  0999 V2000
   45.4390   33.4290   41.6580 C   0  0  0  0  0  0  0  0  0  0  0  0
   45.5010   33.8220   45.3160 C   0  0  0  0  0  0  0  0  0  0  0  0
   44.9380   35.0410   45.4170 C   0  0  0  0  0  0  0  0  0  0  0  0
   44.6130   35.4890   43.6890 S   0  0  0  0  0  0  0  0  0  0  0  0
   45.3470   33.8340   43.1040 C   0  0  0  0  0  0  0  0  0  0  0  0
   45.6300   33.3700   44.1130 N   0  0  0  0  0  0  0  0  0  0  0  0
   45.5520   32.2460   48.7870 C   0  0  0  0  0  0  0  0  0  0  0  0
   45.1370   32.9510   47.6600 C   0  0  0  0  0  0  0  0  0  0  0  0
   45.9400   33.0650   46.5310 C   0  0  0  0  0  0  0  0  0  0  0  0
   47.1240   32.4520   46.6190 N   0  0  0  0  0  0  0  0  0  0  0  0
   47.5600   31.7660   47.6830 C   0  0  0  0  0  0  0  0  0  0  0  0
   46.7610   31.6740   48.7580 N   0  0  0  0  0  0  0  0  0  0  0  0
   44.0610   33.4950   41.0800 C   0  0  0  0  0  0  0  0  0  0  0  0
   45.9730   32.0140   41.6570 C   0  0  0  0  0  0  0  0  0  0  0  0
   46.3580   34.3270   40.8930 C   0  0  0  0  0  0  0  0  0  0  0  0
   47.7030   34.2260   41.4190 C   0  0  0  0  0  0  0  0  0  0  0  0
   48.3590   35.1080   42.2660 C   0  0  0  0  0  0  0  0  0  0  0  0
   49.6410   34.8240   42.6470 C   0  0  0  0  0  0  0  0  0  0  0  0
   50.2440   33.6470   42.1660 C   0  0  0  0  0  0  0  0  0  0  0  0
   48.8870   32.9100   41.1050 S   0  0  0  0  0  0  0  0  0  0  0  0
   44.7266   35.6235   46.3259 H   0  0  0  0  0  0  0  0  0  0  0  0
   44.9059   32.1621   49.6733 H   0  0  0  0  0  0  0  0  0  0  0  0
   44.1471   33.4306   47.6633 H   0  0  0  0  0  0  0  0  0  0  0  0
   48.5509   31.2884   47.6765 H   0  0  0  0  0  0  0  0  0  0  0  0
   43.3229   33.5304   41.8948 H   0  0  0  0  0  0  0  0  0  0  0  0
   43.9663   34.3987   40.4600 H   0  0  0  0  0  0  0  0  0  0  0  0
   43.8804   32.6045   40.4600 H   0  0  0  0  0  0  0  0  0  0  0  0
   46.1027   31.6703   42.6938 H   0  0  0  0  0  0  0  0  0  0  0  0
   45.2620   31.3542   41.1382 H   0  0  0  0  0  0  0  0  0  0  0  0
   46.9426   31.9884   41.1382 H   0  0  0  0  0  0  0  0  0  0  0  0
   46.0092   35.3664   40.9827 H   0  0  0  0  0  0  0  0  0  0  0  0
   46.3608   34.0234   39.8357 H   0  0  0  0  0  0  0  0  0  0  0  0
   47.8569   36.0188   42.6242 H   0  0  0  0  0  0  0  0  0  0  0  0
   50.1903   35.5023   43.3164 H   0  0  0  0  0  0  0  0  0  0  0  0
   51.2542   33.2588   42.3627 H   0  0  0  0  0  0  0  0  0  0  0  0
  1  5  1  0
  2  3  2  0
  2  9  1  0
  4  3  1  0
  5  4  1  0
  5  6  2  0
  6  2  1  0
  8  7  2  0
  9 10  2  0
  9  8  1  0
 10 11  1  0
 11 12  2  0
 12  7  1  0
 13  1  1  0
 14  1  1  0
 15 16  1  0
 15  1  1  0
 16 17  2  0
 17 18  1  0
 19 18  2  0
 20 16  1  0
 20 19  1  0
  3 21  1  0
  7 22  1  0
  8 23  1  0
 11 24  1  0
 13 25  1  0
 13 26  1  0
 13 27  1  0
 14 28  1  0
 14 29  1  0
 14 30  1  0
 15 31  1  0
 15 32  1  0
 17 33  1  0
 18 34  1  0
 19 35  1  0
M  ISO  8  21  14  22  14  23  14  24  14  25   8  26   8  27   8  28   8
M  ISO  7  29   8  30   8  31   8  32   8  33  14  34  14  35  14
M  END
>  <minimizedAffinity>  (1) 
-5.22257137

>  <minimizedRMSD>  (1) 
2.72204566

$$$$
