
     RDKit          3D

 29 30  0  0  0  0  0  0  0  0999 V2000
   45.8950   33.7420   45.5780 C   0  0  0  0  0  0  0  0  0  0  0  0
   44.9470   34.7000   45.6260 C   0  0  0  0  0  0  0  0  0  0  0  0
   45.0030   35.4190   43.9550 S   0  0  0  0  0  0  0  0  0  0  0  0
   46.3820   34.2240   43.4600 C   0  0  0  0  0  0  0  0  0  0  0  0
   46.5060   33.6370   44.4460 N   0  0  0  0  0  0  0  0  0  0  0  0
   45.5460   31.9240   48.9150 C   0  0  0  0  0  0  0  0  0  0  0  0
   45.2650   32.7200   47.8110 C   0  0  0  0  0  0  0  0  0  0  0  0
   46.1800   32.8910   46.7740 C   0  0  0  0  0  0  0  0  0  0  0  0
   47.3340   32.2370   46.9200 N   0  0  0  0  0  0  0  0  0  0  0  0
   47.6270   31.4570   47.9860 C   0  0  0  0  0  0  0  0  0  0  0  0
   46.7300   31.3200   48.9540 N   0  0  0  0  0  0  0  0  0  0  0  0
   47.0500   34.1630   42.1070 C   0  0  0  0  0  0  0  0  0  0  0  0
   45.9560   34.3270   41.0890 C   0  0  0  0  0  0  0  0  0  0  0  0
   47.7290   32.8390   42.0110 C   0  0  0  0  0  0  0  0  0  0  0  0
   48.0370   35.2940   41.9620 C   0  0  0  0  0  0  0  0  0  0  0  0
   49.7000   34.8180   42.4660 S   0  0  0  0  0  0  0  0  0  0  0  0
   44.2982   34.9788   46.4694 H   0  0  0  0  0  0  0  0  0  0  0  0
   44.8152   31.7981   49.7274 H   0  0  0  0  0  0  0  0  0  0  0  0
   44.2920   33.2299   47.7541 H   0  0  0  0  0  0  0  0  0  0  0  0
   48.5972   30.9426   48.0494 H   0  0  0  0  0  0  0  0  0  0  0  0
   44.9947   34.4711   41.6038 H   0  0  0  0  0  0  0  0  0  0  0  0
   46.1696   35.2032   40.4591 H   0  0  0  0  0  0  0  0  0  0  0  0
   45.9033   33.4267   40.4591 H   0  0  0  0  0  0  0  0  0  0  0  0
   47.9264   32.4540   43.0223 H   0  0  0  0  0  0  0  0  0  0  0  0
   47.0816   32.1333   41.4699 H   0  0  0  0  0  0  0  0  0  0  0  0
   48.6799   32.9530   41.4699 H   0  0  0  0  0  0  0  0  0  0  0  0
   48.0629   35.6081   40.9081 H   0  0  0  0  0  0  0  0  0  0  0  0
   47.7082   36.1141   42.6173 H   0  0  0  0  0  0  0  0  0  0  0  0
   49.7741   34.7968   43.8338 H   0  0  0  0  0  0  0  0  0  0  0  0
  1  2  2  0
  1  8  1  0
  3  2  1  0
  4  3  1  0
  4  5  2  0
  5  1  1  0
  6 11  2  0
  7  6  1  0
  8  9  1  0
  8  7  2  0
  9 10  2  0
 10 11  1  0
 12  4  1  0
 13 12  1  0
 14 12  1  0
 15 12  1  0
 15 16  1  0
  2 17  1  0
  6 18  1  0
  7 19  1  0
 10 20  1  0
 13 21  1  0
 13 22  1  0
 13 23  1  0
 14 24  1  0
 14 25  1  0
 14 26  1  0
 15 27  1  0
 15 28  1  0
 16 29  1  0
M  ISO  8  17  14  18  14  19  14  20  14  21   8  22   8  23   8  24   8
M  ISO  5  25   8  26   8  27   8  28   8  29  11
M  END
>  <minimizedAffinity>  (1) 
-4.78534174

>  <minimizedRMSD>  (1) 
1.50290275

$$$$
