
     RDKit          3D

 38 40  0  0  0  0  0  0  0  0999 V2000
   48.3500   34.5920   41.0820 C   0  0  0  0  0  0  0  0  0  0  0  0
   44.7460   34.6990   41.8590 C   0  0  0  0  0  0  0  0  0  0  0  0
   44.8070   34.4150   43.1850 C   0  0  0  0  0  0  0  0  0  0  0  0
   46.5930   34.2190   43.4830 S   0  0  0  0  0  0  0  0  0  0  0  0
   46.9580   34.5760   41.6520 C   0  0  0  0  0  0  0  0  0  0  0  0
   45.8950   34.7390   41.2550 N   0  0  0  0  0  0  0  0  0  0  0  0
   41.0980   35.5880   41.2200 C   0  0  0  0  0  0  0  0  0  0  0  0
   42.3150   35.3680   41.8730 C   0  0  0  0  0  0  0  0  0  0  0  0
   43.4400   34.9400   41.1920 C   0  0  0  0  0  0  0  0  0  0  0  0
   43.2700   34.7540   39.8610 N   0  0  0  0  0  0  0  0  0  0  0  0
   42.1100   34.9610   39.2180 C   0  0  0  0  0  0  0  0  0  0  0  0
   41.0450   35.3720   39.9010 N   0  0  0  0  0  0  0  0  0  0  0  0
   48.9790   35.9030   41.4470 C   0  0  0  0  0  0  0  0  0  0  0  0
   48.1720   34.4990   39.5780 C   0  0  0  0  0  0  0  0  0  0  0  0
   49.1550   33.4310   41.5480 C   0  0  0  0  0  0  0  0  0  0  0  0
   49.1360   32.2490   40.7810 N   0  0  0  0  0  0  0  0  0  0  0  0
   48.3090   31.1800   41.1840 C   0  0  0  0  0  0  0  0  0  0  0  0
   49.1170   29.9040   41.1230 C   0  0  0  0  0  0  0  0  0  0  0  0
   50.5260   30.3280   40.8020 C   0  0  0  0  0  0  0  0  0  0  0  0
   50.4640   31.8050   40.5210 C   0  0  0  0  0  0  0  0  0  0  0  0
   43.9795   34.3252   43.9042 H   0  0  0  0  0  0  0  0  0  0  0  0
   40.2110   35.9284   41.7744 H   0  0  0  0  0  0  0  0  0  0  0  0
   42.3791   35.5400   42.9576 H   0  0  0  0  0  0  0  0  0  0  0  0
   42.0405   34.7919   38.1333 H   0  0  0  0  0  0  0  0  0  0  0  0
   49.0236   35.9960   42.5422 H   0  0  0  0  0  0  0  0  0  0  0  0
   49.9972   35.9489   41.0333 H   0  0  0  0  0  0  0  0  0  0  0  0
   48.3777   36.7260   41.0333 H   0  0  0  0  0  0  0  0  0  0  0  0
   47.2179   34.0005   39.3518 H   0  0  0  0  0  0  0  0  0  0  0  0
   48.1686   35.5106   39.1459 H   0  0  0  0  0  0  0  0  0  0  0  0
   49.0004   33.9185   39.1459 H   0  0  0  0  0  0  0  0  0  0  0  0
   50.2018   33.7639   41.6059 H   0  0  0  0  0  0  0  0  0  0  0  0
   48.6854   33.1422   42.4999 H   0  0  0  0  0  0  0  0  0  0  0  0
   47.2557   31.2610   41.4904 H   0  0  0  0  0  0  0  0  0  0  0  0
   48.7517   28.8785   41.2804 H   0  0  0  0  0  0  0  0  0  0  0  0
   51.1885   30.1297   41.6574 H   0  0  0  0  0  0  0  0  0  0  0  0
   50.9267   29.7719   39.9417 H   0  0  0  0  0  0  0  0  0  0  0  0
   50.7216   31.9956   39.4687 H   0  0  0  0  0  0  0  0  0  0  0  0
   51.1785   32.3450   41.1597 H   0  0  0  0  0  0  0  0  0  0  0  0
  1 13  1  0
  1 15  1  0
  1  5  1  0
  2  3  2  0
  3  4  1  0
  5  4  1  0
  6  5  2  0
  6  2  1  0
  7  8  2  0
  9  2  1  0
  9  8  1  0
 10  9  2  0
 11 10  1  0
 11 12  2  0
 12  7  1  0
 14  1  1  0
 16 17  1  0
 16 15  1  0
 18 17  2  0
 19 18  1  0
 20 16  1  0
 20 19  1  0
  3 21  1  0
  7 22  1  0
  8 23  1  0
 11 24  1  0
 13 25  1  0
 13 26  1  0
 13 27  1  0
 14 28  1  0
 14 29  1  0
 14 30  1  0
 15 31  1  0
 15 32  1  0
 17 33  1  0
 18 34  1  0
 19 35  1  0
 19 36  1  0
 20 37  1  0
 20 38  1  0
M  ISO  8  21  14  22  14  23  14  24  14  25   8  26   8  27   8  28   8
M  ISO  8  29   8  30   8  31   8  32   8  33  13  34  13  35  13  36  13
M  ISO  2  37  13  38  13
M  END
>  <minimizedAffinity>  (1) 
-4.85090208

>  <minimizedRMSD>  (1) 
6.03180552

$$$$
