
     RDKit          3D

 32 33  0  0  0  0  0  0  0  0999 V2000
   46.5220   34.1300   42.2560 C   0  0  0  0  0  0  0  0  0  0  0  0
   45.6630   33.7670   45.8220 C   0  0  0  0  0  0  0  0  0  0  0  0
   44.7770   34.7680   45.9350 C   0  0  0  0  0  0  0  0  0  0  0  0
   44.7160   35.4810   44.2680 S   0  0  0  0  0  0  0  0  0  0  0  0
   45.9930   34.2140   43.6560 C   0  0  0  0  0  0  0  0  0  0  0  0
   46.1580   33.6410   44.6340 N   0  0  0  0  0  0  0  0  0  0  0  0
   45.4680   31.7160   49.0140 C   0  0  0  0  0  0  0  0  0  0  0  0
   45.0750   32.5240   47.9530 C   0  0  0  0  0  0  0  0  0  0  0  0
   46.0170   32.9090   46.9740 C   0  0  0  0  0  0  0  0  0  0  0  0
   47.2350   32.4240   47.1980 N   0  0  0  0  0  0  0  0  0  0  0  0
   47.6320   31.6530   48.2010 C   0  0  0  0  0  0  0  0  0  0  0  0
   46.7200   31.3070   49.1070 N   0  0  0  0  0  0  0  0  0  0  0  0
   45.4250   34.5680   41.3440 C   0  0  0  0  0  0  0  0  0  0  0  0
   46.9350   32.7180   42.0280 C   0  0  0  0  0  0  0  0  0  0  0  0
   47.7190   35.0610   42.0990 C   0  0  0  0  0  0  0  0  0  0  0  0
   48.7770   34.5680   42.9630 N   0  0  0  0  0  0  0  0  0  0  0  0
   50.1610   34.5970   42.5540 C   0  0  0  0  0  0  0  0  0  0  0  0
   50.7710   33.4930   42.4910 O   0  0  0  0  0  0  0  0  0  0  0  0
   44.2185   35.0827   46.8289 H   0  0  0  0  0  0  0  0  0  0  0  0
   44.7346   31.4169   49.7773 H   0  0  0  0  0  0  0  0  0  0  0  0
   44.0314   32.8630   47.8763 H   0  0  0  0  0  0  0  0  0  0  0  0
   48.6748   31.3124   48.2814 H   0  0  0  0  0  0  0  0  0  0  0  0
   44.5668   34.9106   41.9408 H   0  0  0  0  0  0  0  0  0  0  0  0
   45.7828   35.3922   40.7095 H   0  0  0  0  0  0  0  0  0  0  0  0
   45.1167   33.7240   40.7095 H   0  0  0  0  0  0  0  0  0  0  0  0
   47.0813   32.2178   42.9967 H   0  0  0  0  0  0  0  0  0  0  0  0
   46.1524   32.1943   41.4594 H   0  0  0  0  0  0  0  0  0  0  0  0
   47.8765   32.6986   41.4594 H   0  0  0  0  0  0  0  0  0  0  0  0
   48.0590   35.0612   41.0529 H   0  0  0  0  0  0  0  0  0  0  0  0
   47.4454   36.0905   42.3733 H   0  0  0  0  0  0  0  0  0  0  0  0
   48.5341   34.1888   43.8893 H   0  0  0  0  0  0  0  0  0  0  0  0
   50.6645   35.5433   42.3070 H   0  0  0  0  0  0  0  0  0  0  0  0
  1  5  1  0
  2  3  2  0
  2  9  1  0
  4  3  1  0
  5  4  1  0
  5  6  2  0
  6  2  1  0
  7 12  2  0
  8  7  1  0
  9 10  1  0
  9  8  2  0
 10 11  2  0
 11 12  1  0
 13  1  1  0
 14  1  1  0
 15  1  1  0
 15 16  1  0
 17 16  1  0
 18 17  2  0
  3 19  1  0
  7 20  1  0
  8 21  1  0
 11 22  1  0
 13 23  1  0
 13 24  1  0
 13 25  1  0
 14 26  1  0
 14 27  1  0
 14 28  1  0
 15 29  1  0
 15 30  1  0
 16 31  1  0
 17 32  1  0
M  ISO  8  19  14  20  14  21  14  22  14  23   8  24   8  25   8  26   8
M  ISO  5  27   8  28   8  29   8  30   8  32   6
M  END
>  <minimizedAffinity>  (1) 
-5.23889351

>  <minimizedRMSD>  (1) 
1.66363525

$$$$
