
     RDKit          3D

 36 37  0  0  0  0  0  0  0  0999 V2000
   46.5260   34.1370   42.2410 C   0  0  0  0  0  0  0  0  0  0  0  0
   45.6630   33.7680   45.8100 C   0  0  0  0  0  0  0  0  0  0  0  0
   44.7700   34.7770   45.9410 C   0  0  0  0  0  0  0  0  0  0  0  0
   44.7100   35.4930   44.2820 S   0  0  0  0  0  0  0  0  0  0  0  0
   45.9850   34.2250   43.6500 C   0  0  0  0  0  0  0  0  0  0  0  0
   46.1680   33.6290   44.6300 N   0  0  0  0  0  0  0  0  0  0  0  0
   45.4710   31.7220   49.0180 C   0  0  0  0  0  0  0  0  0  0  0  0
   45.0650   32.5300   47.9520 C   0  0  0  0  0  0  0  0  0  0  0  0
   46.0160   32.9050   46.9740 C   0  0  0  0  0  0  0  0  0  0  0  0
   47.2420   32.4230   47.1910 N   0  0  0  0  0  0  0  0  0  0  0  0
   47.6330   31.6520   48.2060 C   0  0  0  0  0  0  0  0  0  0  0  0
   46.7180   31.3190   49.1050 N   0  0  0  0  0  0  0  0  0  0  0  0
   45.3870   34.5620   41.3520 C   0  0  0  0  0  0  0  0  0  0  0  0
   46.8990   32.7150   42.0250 C   0  0  0  0  0  0  0  0  0  0  0  0
   47.6960   35.0700   42.0950 C   0  0  0  0  0  0  0  0  0  0  0  0
   48.7550   34.6360   42.9070 N   0  0  0  0  0  0  0  0  0  0  0  0
   50.0980   34.6920   42.6040 C   0  0  0  0  0  0  0  0  0  0  0  0
   50.7210   33.3180   42.3150 C   0  0  0  0  0  0  0  0  0  0  0  0
   44.2153   35.0863   46.8392 H   0  0  0  0  0  0  0  0  0  0  0  0
   44.7434   31.4226   49.7868 H   0  0  0  0  0  0  0  0  0  0  0  0
   44.0215   32.8692   47.8747 H   0  0  0  0  0  0  0  0  0  0  0  0
   48.6735   31.3061   48.2937 H   0  0  0  0  0  0  0  0  0  0  0  0
   44.5362   34.8795   41.9727 H   0  0  0  0  0  0  0  0  0  0  0  0
   45.7105   35.3999   40.7170 H   0  0  0  0  0  0  0  0  0  0  0  0
   45.0825   33.7170   40.7170 H   0  0  0  0  0  0  0  0  0  0  0  0
   47.0293   32.2183   42.9978 H   0  0  0  0  0  0  0  0  0  0  0  0
   46.1032   32.2091   41.4587 H   0  0  0  0  0  0  0  0  0  0  0  0
   47.8407   32.6649   41.4587 H   0  0  0  0  0  0  0  0  0  0  0  0
   48.0231   35.0838   41.0449 H   0  0  0  0  0  0  0  0  0  0  0  0
   47.3938   36.0819   42.4027 H   0  0  0  0  0  0  0  0  0  0  0  0
   48.6561   35.1689   43.7829 H   0  0  0  0  0  0  0  0  0  0  0  0
   50.2277   35.3266   41.7149 H   0  0  0  0  0  0  0  0  0  0  0  0
   50.6113   35.0995   43.4874 H   0  0  0  0  0  0  0  0  0  0  0  0
   50.9503   32.8123   43.2646 H   0  0  0  0  0  0  0  0  0  0  0  0
   50.0114   32.7080   41.7367 H   0  0  0  0  0  0  0  0  0  0  0  0
   51.6474   33.4498   41.7367 H   0  0  0  0  0  0  0  0  0  0  0  0
  1  5  1  0
  2  3  2  0
  2  9  1  0
  4  3  1  0
  5  4  1  0
  5  6  2  0
  6  2  1  0
  7 12  2  0
  8  7  1  0
  9 10  1  0
  9  8  2  0
 10 11  2  0
 11 12  1  0
 13  1  1  0
 14  1  1  0
 15  1  1  0
 15 16  1  0
 17 16  1  0
 18 17  1  0
  3 19  1  0
  7 20  1  0
  8 21  1  0
 11 22  1  0
 13 23  1  0
 13 24  1  0
 13 25  1  0
 14 26  1  0
 14 27  1  0
 14 28  1  0
 15 29  1  0
 15 30  1  0
 16 31  1  0
 17 32  1  0
 17 33  1  0
 18 34  1  0
 18 35  1  0
 18 36  1  0
M  ISO  8  19  14  20  14  21  14  22  14  23   8  24   8  25   8  26   8
M  ISO  8  27   8  28   8  29   8  30   8  31   5  32   8  33   8  34   8
M  ISO  2  35   8  36   8
M  END
>  <minimizedAffinity>  (1) 
-5.07968569

>  <minimizedRMSD>  (1) 
1.50681198

$$$$
