
     RDKit          3D

 42 43  0  0  0  0  0  0  0  0999 V2000
   45.7110   34.0250   42.0450 C   0  0  0  0  0  0  0  0  0  0  0  0
   45.4720   33.8700   45.7090 C   0  0  0  0  0  0  0  0  0  0  0  0
   44.7340   34.9830   45.9290 C   0  0  0  0  0  0  0  0  0  0  0  0
   44.4580   35.6320   44.2800 S   0  0  0  0  0  0  0  0  0  0  0  0
   45.4440   34.2170   43.5040 C   0  0  0  0  0  0  0  0  0  0  0  0
   45.7250   33.6490   44.4720 N   0  0  0  0  0  0  0  0  0  0  0  0
   45.5320   31.8730   48.9470 C   0  0  0  0  0  0  0  0  0  0  0  0
   45.0800   32.6800   47.9180 C   0  0  0  0  0  0  0  0  0  0  0  0
   45.8950   33.0180   46.8410 C   0  0  0  0  0  0  0  0  0  0  0  0
   47.1380   32.4840   46.9130 N   0  0  0  0  0  0  0  0  0  0  0  0
   47.6010   31.7060   47.8890 C   0  0  0  0  0  0  0  0  0  0  0  0
   46.7940   31.4150   48.8840 N   0  0  0  0  0  0  0  0  0  0  0  0
   44.6410   34.7870   41.3110 C   0  0  0  0  0  0  0  0  0  0  0  0
   45.6330   32.5710   41.7710 C   0  0  0  0  0  0  0  0  0  0  0  0
   47.0650   34.5820   41.6790 C   0  0  0  0  0  0  0  0  0  0  0  0
   47.8710   33.5700   40.9890 N   0  0  0  0  0  0  0  0  0  0  0  0
   48.0770   33.9660   39.5660 C   0  0  0  0  0  0  0  0  0  0  0  0
   46.8570   33.8400   38.9200 F   0  0  0  0  0  0  0  0  0  0  0  0
   49.0050   33.2040   38.9550 F   0  0  0  0  0  0  0  0  0  0  0  0
   48.4940   35.2750   39.4700 F   0  0  0  0  0  0  0  0  0  0  0  0
   49.2400   34.0070   41.4910 C   0  0  0  0  0  0  0  0  0  0  0  0
   49.0680   35.1620   42.3990 C   0  0  0  0  0  0  0  0  0  0  0  0
   50.1260   32.9130   41.9140 C   0  0  0  0  0  0  0  0  0  0  0  0
   44.3866   35.3917   46.8894 H   0  0  0  0  0  0  0  0  0  0  0  0
   44.8774   31.6138   49.7922 H   0  0  0  0  0  0  0  0  0  0  0  0
   44.0500   33.0645   47.9517 H   0  0  0  0  0  0  0  0  0  0  0  0
   48.6299   31.3179   47.8631 H   0  0  0  0  0  0  0  0  0  0  0  0
   43.9682   35.2661   42.0375 H   0  0  0  0  0  0  0  0  0  0  0  0
   45.1073   35.5575   40.6795 H   0  0  0  0  0  0  0  0  0  0  0  0
   44.0653   34.0944   40.6795 H   0  0  0  0  0  0  0  0  0  0  0  0
   45.6034   32.0197   42.7224 H   0  0  0  0  0  0  0  0  0  0  0  0
   44.7220   32.3550   41.1936 H   0  0  0  0  0  0  0  0  0  0  0  0
   46.5157   32.2588   41.1936 H   0  0  0  0  0  0  0  0  0  0  0  0
   46.9316   35.4505   41.0172 H   0  0  0  0  0  0  0  0  0  0  0  0
   47.5857   34.8816   42.6005 H   0  0  0  0  0  0  0  0  0  0  0  0
   49.8468   34.3752   40.6506 H   0  0  0  0  0  0  0  0  0  0  0  0
   49.1191   34.8186   43.4428 H   0  0  0  0  0  0  0  0  0  0  0  0
   49.8668   35.8954   42.2147 H   0  0  0  0  0  0  0  0  0  0  0  0
   48.0901   35.6308   42.2147 H   0  0  0  0  0  0  0  0  0  0  0  0
   50.1592   32.8720   43.0127 H   0  0  0  0  0  0  0  0  0  0  0  0
   49.7430   31.9589   41.5229 H   0  0  0  0  0  0  0  0  0  0  0  0
   51.1389   33.0894   41.5229 H   0  0  0  0  0  0  0  0  0  0  0  0
  1  5  1  0
  2  3  2  0
  2  9  1  0
  4  3  1  0
  5  4  1  0
  5  6  2  0
  6  2  1  0
  8  7  2  0
  9 10  2  0
  9  8  1  0
 10 11  1  0
 11 12  2  0
 12  7  1  0
 13  1  1  0
 14  1  1  0
 15  1  1  0
 16 21  1  0
 16 15  1  0
 17 16  1  0
 18 17  1  0
 19 17  1  0
 20 17  1  0
 21 23  1  0
 21 22  1  0
  3 24  1  0
  7 25  1  0
  8 26  1  0
 11 27  1  0
 13 28  1  0
 13 29  1  0
 13 30  1  0
 14 31  1  0
 14 32  1  0
 14 33  1  0
 15 34  1  0
 15 35  1  0
 21 36  1  0
 22 37  1  0
 22 38  1  0
 22 39  1  0
 23 40  1  0
 23 41  1  0
 23 42  1  0
M  ISO  8  24  14  25  14  26  14  27  14  28   8  29   8  30   8  31   8
M  ISO  8  32   8  33   8  34   8  35   8  36   8  37   8  38   8  39   8
M  ISO  3  40   8  41   8  42   8
M  END
>  <minimizedAffinity>  (1) 
-5.54640675

>  <minimizedRMSD>  (1) 
2.35014844

$$$$
