
     RDKit          3D

 48 50  0  0  0  0  0  0  0  0999 V2000
   48.2140   31.7520   41.8370 C   0  0  0  0  0  0  0  0  0  0  0  0
   47.0380   30.9950   45.2320 C   0  0  0  0  0  0  0  0  0  0  0  0
   45.7240   30.7940   44.9740 C   0  0  0  0  0  0  0  0  0  0  0  0
   45.6100   31.0500   43.2010 S   0  0  0  0  0  0  0  0  0  0  0  0
   47.4580   31.4120   43.0790 C   0  0  0  0  0  0  0  0  0  0  0  0
   47.7490   31.2890   44.2040 N   0  0  0  0  0  0  0  0  0  0  0  0
   47.8410   31.5640   48.9110 C   0  0  0  0  0  0  0  0  0  0  0  0
   47.3270   31.7640   47.6390 C   0  0  0  0  0  0  0  0  0  0  0  0
   47.5590   30.8540   46.6100 C   0  0  0  0  0  0  0  0  0  0  0  0
   48.3150   29.7960   46.9870 N   0  0  0  0  0  0  0  0  0  0  0  0
   48.8190   29.5840   48.2000 C   0  0  0  0  0  0  0  0  0  0  0  0
   48.5760   30.4660   49.1400 N   0  0  0  0  0  0  0  0  0  0  0  0
   47.8800   30.6900   40.8260 C   0  0  0  0  0  0  0  0  0  0  0  0
   49.6530   31.7660   42.1770 C   0  0  0  0  0  0  0  0  0  0  0  0
   47.7830   33.0990   41.3060 C   0  0  0  0  0  0  0  0  0  0  0  0
   47.9990   34.1450   42.2990 N   0  0  0  0  0  0  0  0  0  0  0  0
   43.8190   34.5590   42.4000 N   0  0  0  0  0  0  0  0  0  0  0  0
   44.5540   35.5660   43.1420 C   0  0  0  0  0  0  0  0  0  0  0  0
   45.9460   34.9770   43.5180 C   0  0  0  0  0  0  0  0  0  0  0  0
   46.6440   34.7830   42.2700 C   0  0  0  0  0  0  0  0  0  0  0  0
   45.8990   34.3430   41.0640 C   0  0  0  0  0  0  0  0  0  0  0  0
   44.4300   34.4690   41.1170 C   0  0  0  0  0  0  0  0  0  0  0  0
   48.7330   35.2910   41.6940 C   0  0  0  0  0  0  0  0  0  0  0  0
   48.6380   35.1540   40.3180 F   0  0  0  0  0  0  0  0  0  0  0  0
   50.0210   35.3340   42.0760 F   0  0  0  0  0  0  0  0  0  0  0  0
   48.1700   36.5010   42.0590 F   0  0  0  0  0  0  0  0  0  0  0  0
   44.9208   30.5362   45.6800 H   0  0  0  0  0  0  0  0  0  0  0  0
   47.6501   32.2902   49.7149 H   0  0  0  0  0  0  0  0  0  0  0  0
   46.7227   32.6609   47.4379 H   0  0  0  0  0  0  0  0  0  0  0  0
   49.4251   28.6903   48.4096 H   0  0  0  0  0  0  0  0  0  0  0  0
   47.5894   29.7660   41.3473 H   0  0  0  0  0  0  0  0  0  0  0  0
   47.0464   31.0331   40.1956 H   0  0  0  0  0  0  0  0  0  0  0  0
   48.7599   30.4942   40.1956 H   0  0  0  0  0  0  0  0  0  0  0  0
   49.7714   31.7672   43.2706 H   0  0  0  0  0  0  0  0  0  0  0  0
   50.1378   30.8725   41.7567 H   0  0  0  0  0  0  0  0  0  0  0  0
   50.1203   32.6687   41.7567 H   0  0  0  0  0  0  0  0  0  0  0  0
   48.3666   33.3335   40.4035 H   0  0  0  0  0  0  0  0  0  0  0  0
   46.7095   33.0558   41.0699 H   0  0  0  0  0  0  0  0  0  0  0  0
   43.8737   33.6513   42.8837 H   0  0  0  0  0  0  0  0  0  0  0  0
   44.6856   36.4639   42.5204 H   0  0  0  0  0  0  0  0  0  0  0  0
   44.0020   35.8448   44.0517 H   0  0  0  0  0  0  0  0  0  0  0  0
   46.4979   35.6795   44.1598 H   0  0  0  0  0  0  0  0  0  0  0  0
   45.8480   34.0344   44.0765 H   0  0  0  0  0  0  0  0  0  0  0  0
   46.7932   35.8648   42.1381 H   0  0  0  0  0  0  0  0  0  0  0  0
   46.1378   33.2832   40.8915 H   0  0  0  0  0  0  0  0  0  0  0  0
   46.2210   35.0200   40.2590 H   0  0  0  0  0  0  0  0  0  0  0  0
   44.1579   35.3772   40.5592 H   0  0  0  0  0  0  0  0  0  0  0  0
   44.0547   33.5245   40.6961 H   0  0  0  0  0  0  0  0  0  0  0  0
  1 14  1  0
  1  5  1  0
  2  9  1  0
  3  2  2  0
  4  3  1  0
  5  4  1  0
  5  6  2  0
  6  2  1  0
  7 12  2  0
  8  7  1  0
  9 10  1  0
  9  8  2  0
 10 11  2  0
 11 12  1  0
 13  1  1  0
 15  1  1  0
 15 16  1  0
 17 18  1  0
 18 19  1  0
 20 16  1  0
 20 19  1  0
 21 22  1  0
 21 20  1  0
 22 17  1  0
 23 26  1  0
 23 25  1  0
 23 16  1  0
 24 23  1  0
  3 27  1  0
  7 28  1  0
  8 29  1  0
 11 30  1  0
 13 31  1  0
 13 32  1  0
 13 33  1  0
 14 34  1  0
 14 35  1  0
 14 36  1  0
 15 37  1  0
 15 38  1  0
 17 39  1  0
 18 40  1  0
 18 41  1  0
 19 42  1  0
 19 43  1  0
 20 44  1  0
 21 45  1  0
 21 46  1  0
 22 47  1  0
 22 48  1  0
M  ISO  8  27  14  28  14  29  14  30  14  31   8  32   8  33   8  34   8
M  ISO  8  35   8  36   8  37   8  38   8  39   5  40  13  41  13  42  13
M  ISO  6  43  13  44  13  45  13  46  13  47  13  48  13
M  END
>  <minimizedAffinity>  (1) 
-5.09784794

>  <minimizedRMSD>  (1) 
2.6195178

$$$$
