
     RDKit          3D

 37 38  0  0  0  0  0  0  0  0999 V2000
   45.2730   33.3860   41.9540 C   0  0  0  0  0  0  0  0  0  0  0  0
   45.6710   33.2100   45.6050 C   0  0  0  0  0  0  0  0  0  0  0  0
   45.1710   34.4270   45.9640 C   0  0  0  0  0  0  0  0  0  0  0  0
   44.7160   35.1580   44.3850 S   0  0  0  0  0  0  0  0  0  0  0  0
   45.3100   33.6050   43.4460 C   0  0  0  0  0  0  0  0  0  0  0  0
   45.6620   32.9770   44.3410 N   0  0  0  0  0  0  0  0  0  0  0  0
   47.6270   31.6950   48.4920 C   0  0  0  0  0  0  0  0  0  0  0  0
   47.1880   32.6060   47.5380 C   0  0  0  0  0  0  0  0  0  0  0  0
   46.1670   32.2770   46.6310 C   0  0  0  0  0  0  0  0  0  0  0  0
   45.6950   31.0420   46.7910 N   0  0  0  0  0  0  0  0  0  0  0  0
   46.0830   30.1390   47.6870 C   0  0  0  0  0  0  0  0  0  0  0  0
   47.0490   30.4890   48.5240 N   0  0  0  0  0  0  0  0  0  0  0  0
   43.8140   33.4660   41.5610 C   0  0  0  0  0  0  0  0  0  0  0  0
   45.8820   32.0830   41.6630 C   0  0  0  0  0  0  0  0  0  0  0  0
   46.0240   34.5050   41.2910 C   0  0  0  0  0  0  0  0  0  0  0  0
   47.4300   34.3680   41.4310 N   0  0  0  0  0  0  0  0  0  0  0  0
   48.6820   34.2760   42.0810 C   0  0  0  0  0  0  0  0  0  0  0  0
   49.9270   34.2000   42.1590 O   0  0  0  0  0  0  0  0  0  0  0  0
   48.4910   34.2540   43.5110 N   0  0  0  0  0  0  0  0  0  0  0  0
   48.2020   34.3930   40.1620 C   0  0  0  0  0  0  0  0  0  0  0  0
   47.2120   34.3060   39.1580 F   0  0  0  0  0  0  0  0  0  0  0  0
   49.0490   33.3950   40.0740 F   0  0  0  0  0  0  0  0  0  0  0  0
   48.7760   35.6590   40.0140 F   0  0  0  0  0  0  0  0  0  0  0  0
   45.0706   34.8561   46.9719 H   0  0  0  0  0  0  0  0  0  0  0  0
   48.4266   31.9583   49.2001 H   0  0  0  0  0  0  0  0  0  0  0  0
   47.6490   33.6037   47.4925 H   0  0  0  0  0  0  0  0  0  0  0  0
   45.6207   29.1418   47.7315 H   0  0  0  0  0  0  0  0  0  0  0  0
   43.1915   33.5001   42.4673 H   0  0  0  0  0  0  0  0  0  0  0  0
   43.6441   34.3748   40.9650 H   0  0  0  0  0  0  0  0  0  0  0  0
   43.5458   32.5812   40.9650 H   0  0  0  0  0  0  0  0  0  0  0  0
   46.1212   31.5711   42.6068 H   0  0  0  0  0  0  0  0  0  0  0  0
   45.1770   31.4703   41.0820 H   0  0  0  0  0  0  0  0  0  0  0  0
   46.8043   32.2309   41.0820 H   0  0  0  0  0  0  0  0  0  0  0  0
   45.7144   35.4573   41.7463 H   0  0  0  0  0  0  0  0  0  0  0  0
   45.7887   34.4778   40.2168 H   0  0  0  0  0  0  0  0  0  0  0  0
   49.3053   34.1893   44.1384 H   0  0  0  0  0  0  0  0  0  0  0  0
   47.5404   34.3030   43.9044 H   0  0  0  0  0  0  0  0  0  0  0  0
  1  5  1  0
  2  3  2  0
  2  9  1  0
  4  3  1  0
  5  6  2  0
  5  4  1  0
  6  2  1  0
  7 12  2  0
  8  7  1  0
  9 10  1  0
  9  8  2  0
 10 11  2  0
 11 12  1  0
 13  1  1  0
 14  1  1  0
 15 16  1  0
 15  1  1  0
 16 17  1  0
 17 18  2  0
 17 19  1  0
 20 16  1  0
 21 20  1  0
 22 20  1  0
 23 20  1  0
  3 24  1  0
  7 25  1  0
  8 26  1  0
 11 27  1  0
 13 28  1  0
 13 29  1  0
 13 30  1  0
 14 31  1  0
 14 32  1  0
 14 33  1  0
 15 34  1  0
 15 35  1  0
 19 36  1  0
 19 37  1  0
M  ISO  8  24  14  25  14  26  14  27  14  28   8  29   8  30   8  31   8
M  ISO  4  32   8  33   8  34   8  35   8
M  END
>  <minimizedAffinity>  (1) 
-5.3760767

>  <minimizedRMSD>  (1) 
0.391402632

$$$$
