
     RDKit          3D

 47 49  0  0  1  0  0  0  0  0999 V2000
   46.1140   31.6520   42.1950 C   0  0  0  0  0  0  0  0  0  0  0  0
   46.7380   32.0600   45.7930 C   0  0  0  0  0  0  0  0  0  0  0  0
   45.9960   33.1690   46.0320 C   0  0  0  0  0  0  0  0  0  0  0  0
   45.3080   33.5460   44.4130 S   0  0  0  0  0  0  0  0  0  0  0  0
   46.1960   32.0470   43.6400 C   0  0  0  0  0  0  0  0  0  0  0  0
   46.7120   31.6680   44.5800 N   0  0  0  0  0  0  0  0  0  0  0  0
   48.3960   31.3780   49.1370 C   0  0  0  0  0  0  0  0  0  0  0  0
   47.6840   32.0290   48.1340 C   0  0  0  0  0  0  0  0  0  0  0  0
   47.4840   31.4190   46.8880 C   0  0  0  0  0  0  0  0  0  0  0  0
   48.0320   30.1990   46.7830 N   0  0  0  0  0  0  0  0  0  0  0  0
   48.7170   29.5500   47.7180 C   0  0  0  0  0  0  0  0  0  0  0  0
   48.8880   30.1500   48.8820 N   0  0  0  0  0  0  0  0  0  0  0  0
   44.7700   31.0060   41.9860 C   0  0  0  0  0  0  0  0  0  0  0  0
   47.2160   30.6850   41.9480 C   0  0  0  0  0  0  0  0  0  0  0  0
   46.2670   32.8470   41.3340 C   0  0  1  0  0  0  0  0  0  0  0  0
   45.1250   33.8330   41.3980 C   0  0  0  0  0  0  0  0  0  0  0  0
   45.1710   35.1420   41.8280 C   0  0  0  0  0  0  0  0  0  0  0  0
   44.0640   35.9570   41.8560 C   0  0  0  0  0  0  0  0  0  0  0  0
   42.8380   35.4870   41.4490 C   0  0  0  0  0  0  0  0  0  0  0  0
   42.6940   34.2010   41.0050 C   0  0  0  0  0  0  0  0  0  0  0  0
   43.8370   33.4420   41.0020 C   0  0  0  0  0  0  0  0  0  0  0  0
   47.5270   33.4660   41.4260 N   0  0  0  0  0  0  0  0  0  0  0  0
   48.6120   34.1070   42.0480 C   0  0  0  0  0  0  0  0  0  0  0  0
   49.7140   34.7000   42.1020 O   0  0  0  0  0  0  0  0  0  0  0  0
   48.4420   34.1620   43.4800 N   0  0  0  0  0  0  0  0  0  0  0  0
   48.2840   33.6820   40.1610 C   0  0  0  0  0  0  0  0  0  0  0  0
   47.3850   33.2380   39.1690 F   0  0  0  0  0  0  0  0  0  0  0  0
   49.4030   33.0410   40.0920 F   0  0  0  0  0  0  0  0  0  0  0  0
   48.3590   35.0730   39.9580 F   0  0  0  0  0  0  0  0  0  0  0  0
   45.8505   33.7057   46.9811 H   0  0  0  0  0  0  0  0  0  0  0  0
   48.5535   31.8551   50.1155 H   0  0  0  0  0  0  0  0  0  0  0  0
   47.2740   33.0325   48.3210 H   0  0  0  0  0  0  0  0  0  0  0  0
   49.1277   28.5472   47.5292 H   0  0  0  0  0  0  0  0  0  0  0  0
   44.3130   30.7863   42.9622 H   0  0  0  0  0  0  0  0  0  0  0  0
   44.1185   31.6894   41.4216 H   0  0  0  0  0  0  0  0  0  0  0  0
   44.8967   30.0704   41.4216 H   0  0  0  0  0  0  0  0  0  0  0  0
   47.6173   30.3329   42.9098 H   0  0  0  0  0  0  0  0  0  0  0  0
   46.8306   29.8283   41.3757 H   0  0  0  0  0  0  0  0  0  0  0  0
   48.0154   31.1784   41.3757 H   0  0  0  0  0  0  0  0  0  0  0  0
   46.2139   32.4260   40.3191 H   0  0  0  0  0  0  0  0  0  0  0  0
   46.1350   35.5522   42.1632 H   0  0  0  0  0  0  0  0  0  0  0  0
   44.1603   36.9949   42.2074 H   0  0  0  0  0  0  0  0  0  0  0  0
   41.9627   36.1525   41.4807 H   0  0  0  0  0  0  0  0  0  0  0  0
   41.7247   33.8014   40.6720 H   0  0  0  0  0  0  0  0  0  0  0  0
   43.7312   32.4060   40.6478 H   0  0  0  0  0  0  0  0  0  0  0  0
   49.1625   34.6054   44.0675 H   0  0  0  0  0  0  0  0  0  0  0  0
   47.6001   33.7579   43.9146 H   0  0  0  0  0  0  0  0  0  0  0  0
  1  5  1  0
  2  3  2  0
  2  9  1  0
  4  3  1  0
  5  4  1  0
  5  6  2  0
  6  2  1  0
  8  7  2  0
  9  8  1  0
 10  9  2  0
 10 11  1  0
 11 12  2  0
 12  7  1  0
 13  1  1  0
 14  1  1  0
 15 16  1  0
 15 22  1  0
 15  1  1  0
 16 17  2  0
 17 18  1  0
 19 18  2  0
 20 19  1  0
 21 20  2  0
 21 16  1  0
 22 23  1  0
 23 24  2  0
 23 25  1  0
 26 22  1  0
 27 26  1  0
 28 26  1  0
 29 26  1  0
  3 30  1  0
  7 31  1  0
  8 32  1  0
 11 33  1  0
 13 34  1  0
 13 35  1  0
 13 36  1  0
 14 37  1  0
 14 38  1  0
 14 39  1  0
 15 40  1  6
 17 41  1  0
 18 42  1  0
 19 43  1  0
 20 44  1  0
 21 45  1  0
 25 46  1  0
 25 47  1  0
M  ISO  8  30  14  31  14  32  14  33  14  34   8  35   8  36   8  37   8
M  ISO  8  38   8  39   8  40   8  41  14  42  14  43  14  44  14  45  14
M  END
>  <minimizedAffinity>  (1) 
-5.41859961

>  <minimizedRMSD>  (1) 
1.90277624

$$$$
