
     RDKit          3D

 50 53  0  0  1  0  0  0  0  0999 V2000
   45.6270   34.8140   43.4380 C   0  0  0  0  0  0  0  0  0  0  0  0
   43.1780   33.4900   41.0360 C   0  0  0  0  0  0  0  0  0  0  0  0
   43.1520   32.1840   41.4200 C   0  0  0  0  0  0  0  0  0  0  0  0
   44.3250   32.1430   42.7840 S   0  0  0  0  0  0  0  0  0  0  0  0
   44.6740   34.0130   42.5920 C   0  0  0  0  0  0  0  0  0  0  0  0
   43.9720   34.2140   41.7200 N   0  0  0  0  0  0  0  0  0  0  0  0
   40.5440   33.6540   38.3070 C   0  0  0  0  0  0  0  0  0  0  0  0
   41.3140   33.1740   39.3610 C   0  0  0  0  0  0  0  0  0  0  0  0
   42.3390   33.9550   39.9240 C   0  0  0  0  0  0  0  0  0  0  0  0
   42.4710   35.1490   39.3510 N   0  0  0  0  0  0  0  0  0  0  0  0
   41.7540   35.6380   38.3460 C   0  0  0  0  0  0  0  0  0  0  0  0
   40.8020   34.8830   37.8420 N   0  0  0  0  0  0  0  0  0  0  0  0
   45.1790   34.6610   44.8660 C   0  0  0  0  0  0  0  0  0  0  0  0
   45.5310   36.2210   42.9810 C   0  0  0  0  0  0  0  0  0  0  0  0
   47.0060   34.2820   43.2520 C   0  0  1  0  0  0  0  0  0  0  0  0
   47.1880   32.9210   43.7750 N   0  0  0  0  0  0  0  0  0  0  0  0
   47.0380   32.5490   45.0840 C   0  0  0  0  0  0  0  0  0  0  0  0
   47.2710   31.2620   45.2630 N   0  0  0  0  0  0  0  0  0  0  0  0
   47.5860   30.7340   44.0740 C   0  0  0  0  0  0  0  0  0  0  0  0
   47.9160   29.4500   43.7090 C   0  0  0  0  0  0  0  0  0  0  0  0
   48.1920   29.2080   42.4230 N   0  0  0  0  0  0  0  0  0  0  0  0
   48.1330   30.2430   41.5410 C   0  0  0  0  0  0  0  0  0  0  0  0
   47.8080   31.4890   41.9210 N   0  0  0  0  0  0  0  0  0  0  0  0
   47.5280   31.7780   43.1760 C   0  0  0  0  0  0  0  0  0  0  0  0
   47.9710   28.3820   44.6480 N   0  0  0  0  0  0  0  0  0  0  0  0
   47.5140   34.4850   41.9680 N   0  0  0  0  0  0  0  0  0  0  0  0
   47.5600   34.4360   40.5500 C   0  0  0  0  0  0  0  0  0  0  0  0
   48.0540   34.5760   39.4090 O   0  0  0  0  0  0  0  0  0  0  0  0
   46.3140   33.9270   40.0120 N   0  0  0  0  0  0  0  0  0  0  0  0
   48.8800   35.0870   41.8440 C   0  0  0  0  0  0  0  0  0  0  0  0
   49.2520   35.2940   43.1900 F   0  0  0  0  0  0  0  0  0  0  0  0
   48.9170   36.1840   41.1650 F   0  0  0  0  0  0  0  0  0  0  0  0
   49.7420   34.0700   41.3930 F   0  0  0  0  0  0  0  0  0  0  0  0
   42.5599   31.3576   41.0000 H   0  0  0  0  0  0  0  0  0  0  0  0
   39.7442   33.0403   37.8669 H   0  0  0  0  0  0  0  0  0  0  0  0
   41.1182   32.1679   39.7604 H   0  0  0  0  0  0  0  0  0  0  0  0
   41.9502   36.6441   37.9470 H   0  0  0  0  0  0  0  0  0  0  0  0
   46.0014   34.9419   45.5404 H   0  0  0  0  0  0  0  0  0  0  0  0
   44.3138   35.3146   45.0509 H   0  0  0  0  0  0  0  0  0  0  0  0
   44.8943   33.6147   45.0509 H   0  0  0  0  0  0  0  0  0  0  0  0
   45.4855   36.8880   43.8546 H   0  0  0  0  0  0  0  0  0  0  0  0
   46.4142   36.4707   42.3747 H   0  0  0  0  0  0  0  0  0  0  0  0
   44.6221   36.3484   42.3747 H   0  0  0  0  0  0  0  0  0  0  0  0
   47.6472   34.9025   43.8952 H   0  0  0  0  0  0  0  0  0  0  0  0
   46.7565   33.2410   45.8914 H   0  0  0  0  0  0  0  0  0  0  0  0
   48.3591   30.0522   40.4815 H   0  0  0  0  0  0  0  0  0  0  0  0
   48.2224   27.4335   44.3350 H   0  0  0  0  0  0  0  0  0  0  0  0
   47.7594   28.5576   45.6406 H   0  0  0  0  0  0  0  0  0  0  0  0
   46.1934   33.8322   38.9935 H   0  0  0  0  0  0  0  0  0  0  0  0
   45.5492   33.6601   40.6482 H   0  0  0  0  0  0  0  0  0  0  0  0
  1 13  1  0
  2  3  2  0
  2  6  1  0
  3  4  1  0
  5  4  1  0
  5  1  1  0
  6  5  2  0
  7  8  2  0
  8  9  1  0
  9  2  1  0
 10  9  2  0
 11 10  1  0
 12  7  1  0
 12 11  2  0
 14  1  1  0
 15  1  1  0
 15 16  1  0
 16 17  1  0
 17 18  2  0
 19 18  1  0
 20 19  2  0
 20 25  1  0
 21 20  1  0
 22 23  1  0
 22 21  2  0
 23 24  2  0
 24 16  1  0
 24 19  1  0
 26 15  1  0
 27 26  1  0
 28 27  2  0
 29 27  1  0
 30 26  1  0
 30 31  1  0
 32 30  1  0
 33 30  1  0
  3 34  1  0
  7 35  1  0
  8 36  1  0
 11 37  1  0
 13 38  1  0
 13 39  1  0
 13 40  1  0
 14 41  1  0
 14 42  1  0
 14 43  1  0
 15 44  1  1
 17 45  1  0
 22 46  1  0
 25 47  1  0
 25 48  1  0
 29 49  1  0
 29 50  1  0
M  ISO  8  34  14  35  14  36  14  37  14  38   8  39   8  40   8  41   8
M  ISO  5  42   8  43   8  44   8  45  14  46  14
M  END
>  <minimizedAffinity>  (1) 
-6.39853144

>  <minimizedRMSD>  (1) 
6.92030096

$$$$
