
     RDKit          3D

 53 55  0  0  1  0  0  0  0  0999 V2000
   45.3950   31.7780   42.5780 C   0  0  0  0  0  0  0  0  0  0  0  0
   46.7070   32.1620   45.9880 C   0  0  0  0  0  0  0  0  0  0  0  0
   46.2470   33.4080   46.2760 C   0  0  0  0  0  0  0  0  0  0  0  0
   45.3740   33.8620   44.7950 S   0  0  0  0  0  0  0  0  0  0  0  0
   45.7770   32.2280   43.9620 C   0  0  0  0  0  0  0  0  0  0  0  0
   46.3860   31.7490   44.8250 N   0  0  0  0  0  0  0  0  0  0  0  0
   48.5320   31.1690   49.1700 C   0  0  0  0  0  0  0  0  0  0  0  0
   47.7840   31.9040   48.2630 C   0  0  0  0  0  0  0  0  0  0  0  0
   47.4970   31.4150   46.9800 C   0  0  0  0  0  0  0  0  0  0  0  0
   48.0100   30.2100   46.7550 N   0  0  0  0  0  0  0  0  0  0  0  0
   48.7310   29.4730   47.5920 C   0  0  0  0  0  0  0  0  0  0  0  0
   48.9780   29.9690   48.7890 N   0  0  0  0  0  0  0  0  0  0  0  0
   43.9010   32.0030   42.4790 C   0  0  0  0  0  0  0  0  0  0  0  0
   45.7040   30.3330   42.4620 C   0  0  0  0  0  0  0  0  0  0  0  0
   46.1360   32.5800   41.5770 C   0  0  2  0  0  0  0  0  0  0  0  0
   47.5160   32.6970   41.8860 N   0  0  0  0  0  0  0  0  0  0  0  0
   48.6680   33.2260   42.4830 C   0  0  0  0  0  0  0  0  0  0  0  0
   49.8960   33.3630   42.6840 O   0  0  0  0  0  0  0  0  0  0  0  0
   48.3180   34.2180   43.4760 N   0  0  0  0  0  0  0  0  0  0  0  0
   48.4570   31.8240   41.1200 C   0  0  0  0  0  0  0  0  0  0  0  0
   47.6400   31.2540   40.1170 F   0  0  0  0  0  0  0  0  0  0  0  0
   49.0340   30.9220   41.8350 F   0  0  0  0  0  0  0  0  0  0  0  0
   49.3330   32.6610   40.4140 F   0  0  0  0  0  0  0  0  0  0  0  0
   45.5290   33.8250   40.9820 C   0  0  0  0  0  0  0  0  0  0  0  0
   45.2360   34.9520   41.9230 C   0  0  0  0  0  0  0  0  0  0  0  0
   43.7980   35.3910   42.0120 C   0  0  0  0  0  0  0  0  0  0  0  0
   43.2090   35.5310   40.6440 C   0  0  0  0  0  0  0  0  0  0  0  0
   43.1890   34.1040   40.1130 C   0  0  0  0  0  0  0  0  0  0  0  0
   44.6490   33.7150   39.8090 C   0  0  0  0  0  0  0  0  0  0  0  0
   46.3816   33.9920   47.1984 H   0  0  0  0  0  0  0  0  0  0  0  0
   48.7516   31.5624   50.1735 H   0  0  0  0  0  0  0  0  0  0  0  0
   47.4065   32.8946   48.5567 H   0  0  0  0  0  0  0  0  0  0  0  0
   49.1092   28.4830   47.2972 H   0  0  0  0  0  0  0  0  0  0  0  0
   43.4721   32.0676   43.4899 H   0  0  0  0  0  0  0  0  0  0  0  0
   43.7065   32.9406   41.9376 H   0  0  0  0  0  0  0  0  0  0  0  0
   43.4390   31.1643   41.9376 H   0  0  0  0  0  0  0  0  0  0  0  0
   45.7974   29.8962   43.4672 H   0  0  0  0  0  0  0  0  0  0  0  0
   44.8937   29.8274   41.9163 H   0  0  0  0  0  0  0  0  0  0  0  0
   46.6502   30.2030   41.9163 H   0  0  0  0  0  0  0  0  0  0  0  0
   46.0131   31.9323   40.6965 H   0  0  0  0  0  0  0  0  0  0  0  0
   49.0583   34.7006   44.0050 H   0  0  0  0  0  0  0  0  0  0  0  0
   47.3285   34.4417   43.6540 H   0  0  0  0  0  0  0  0  0  0  0  0
   46.4348   34.1673   40.4601 H   0  0  0  0  0  0  0  0  0  0  0  0
   45.5539   34.6399   42.9288 H   0  0  0  0  0  0  0  0  0  0  0  0
   45.7826   35.8183   41.5220 H   0  0  0  0  0  0  0  0  0  0  0  0
   43.2249   34.6420   42.5783 H   0  0  0  0  0  0  0  0  0  0  0  0
   43.7536   36.3653   42.5206 H   0  0  0  0  0  0  0  0  0  0  0  0
   42.1911   35.9449   40.6955 H   0  0  0  0  0  0  0  0  0  0  0  0
   43.7803   36.2173   40.0017 H   0  0  0  0  0  0  0  0  0  0  0  0
   42.7670   33.4256   40.8691 H   0  0  0  0  0  0  0  0  0  0  0  0
   42.5671   34.0307   39.2086 H   0  0  0  0  0  0  0  0  0  0  0  0
   44.6677   32.6743   39.4531 H   0  0  0  0  0  0  0  0  0  0  0  0
   45.0248   34.4157   39.0488 H   0  0  0  0  0  0  0  0  0  0  0  0
  1  5  1  0
  2  3  2  0
  2  9  1  0
  4  3  1  0
  5  4  1  0
  5  6  2  0
  6  2  1  0
  8  7  2  0
  9  8  1  0
 10  9  2  0
 10 11  1  0
 11 12  2  0
 12  7  1  0
 13  1  1  0
 14  1  1  0
 15 16  1  0
 15  1  1  0
 16 17  1  0
 17 18  2  0
 17 19  1  0
 20 22  1  0
 20 16  1  0
 21 20  1  0
 23 20  1  0
 24 15  1  0
 24 25  1  0
 25 26  1  0
 27 26  1  0
 28 27  1  0
 29 28  1  0
 29 24  1  0
  3 30  1  0
  7 31  1  0
  8 32  1  0
 11 33  1  0
 13 34  1  0
 13 35  1  0
 13 36  1  0
 14 37  1  0
 14 38  1  0
 14 39  1  0
 15 40  1  6
 19 41  1  0
 19 42  1  0
 24 43  1  0
 25 44  1  0
 25 45  1  0
 26 46  1  0
 26 47  1  0
 27 48  1  0
 27 49  1  0
 28 50  1  0
 28 51  1  0
 29 52  1  0
 29 53  1  0
M  ISO  8  30  14  31  14  32  14  33  14  34   8  35   8  36   8  37   8
M  ISO  8  38   8  39   8  40   8  43  13  44  13  45  13  46  13  47  13
M  ISO  6  48  13  49  13  50  13  51  13  52  13  53  13
M  END
>  <minimizedAffinity>  (1) 
-5.1899581

>  <minimizedRMSD>  (1) 
2.24392819

$$$$
