
     RDKit          3D

 43 45  0  0  1  0  0  0  0  0999 V2000
   45.8160   32.1280   42.1960 C   0  0  0  0  0  0  0  0  0  0  0  0
   46.6100   32.3360   45.7820 C   0  0  0  0  0  0  0  0  0  0  0  0
   45.9410   33.4690   46.1090 C   0  0  0  0  0  0  0  0  0  0  0  0
   45.2150   33.9560   44.5430 S   0  0  0  0  0  0  0  0  0  0  0  0
   45.9910   32.4430   43.6520 C   0  0  0  0  0  0  0  0  0  0  0  0
   46.5270   31.9830   44.5440 N   0  0  0  0  0  0  0  0  0  0  0  0
   48.3510   31.3500   49.0190 C   0  0  0  0  0  0  0  0  0  0  0  0
   47.6310   32.0940   48.0820 C   0  0  0  0  0  0  0  0  0  0  0  0
   47.3680   31.5890   46.8080 C   0  0  0  0  0  0  0  0  0  0  0  0
   47.8710   30.3620   46.6100 N   0  0  0  0  0  0  0  0  0  0  0  0
   48.5580   29.6270   47.4740 C   0  0  0  0  0  0  0  0  0  0  0  0
   48.7860   30.1400   48.6680 N   0  0  0  0  0  0  0  0  0  0  0  0
   44.3770   31.7510   41.9890 C   0  0  0  0  0  0  0  0  0  0  0  0
   46.7510   31.0200   41.8820 C   0  0  0  0  0  0  0  0  0  0  0  0
   46.1570   33.3350   41.3880 C   0  0  2  0  0  0  0  0  0  0  0  0
   47.4890   33.7560   41.5020 N   0  0  0  0  0  0  0  0  0  0  0  0
   48.6700   34.1770   42.1350 C   0  0  0  0  0  0  0  0  0  0  0  0
   49.8510   34.5870   42.2050 O   0  0  0  0  0  0  0  0  0  0  0  0
   48.5120   34.1490   43.5730 N   0  0  0  0  0  0  0  0  0  0  0  0
   48.2570   33.9460   40.2310 C   0  0  0  0  0  0  0  0  0  0  0  0
   47.2890   33.7220   39.2280 F   0  0  0  0  0  0  0  0  0  0  0  0
   49.2600   33.1450   40.0930 F   0  0  0  0  0  0  0  0  0  0  0  0
   48.5470   35.3180   40.1320 F   0  0  0  0  0  0  0  0  0  0  0  0
   45.1620   34.4160   41.5970 N   0  0  0  0  0  0  0  0  0  0  0  0
   45.3360   35.5930   42.2230 C   0  0  0  0  0  0  0  0  0  0  0  0
   44.1580   36.2820   42.1780 N   0  0  0  0  0  0  0  0  0  0  0  0
   43.2670   35.5120   41.5200 C   0  0  0  0  0  0  0  0  0  0  0  0
   43.9090   34.3810   41.1790 N   0  0  0  0  0  0  0  0  0  0  0  0
   45.8631   33.9646   47.0879 H   0  0  0  0  0  0  0  0  0  0  0  0
   48.5542   31.7527   50.0223 H   0  0  0  0  0  0  0  0  0  0  0  0
   47.2649   33.0953   48.3528 H   0  0  0  0  0  0  0  0  0  0  0  0
   48.9246   28.6254   47.2048 H   0  0  0  0  0  0  0  0  0  0  0  0
   43.8874   31.6227   42.9657 H   0  0  0  0  0  0  0  0  0  0  0  0
   43.8672   32.5459   41.4249 H   0  0  0  0  0  0  0  0  0  0  0  0
   44.3224   30.8083   41.4249 H   0  0  0  0  0  0  0  0  0  0  0  0
   47.1237   30.5784   42.8180 H   0  0  0  0  0  0  0  0  0  0  0  0
   46.2249   30.2508   41.2976 H   0  0  0  0  0  0  0  0  0  0  0  0
   47.5977   31.4092   41.2976 H   0  0  0  0  0  0  0  0  0  0  0  0
   46.0861   33.0314   40.3331 H   0  0  0  0  0  0  0  0  0  0  0  0
   49.2930   34.4310   44.1825 H   0  0  0  0  0  0  0  0  0  0  0  0
   47.6186   33.8471   43.9872 H   0  0  0  0  0  0  0  0  0  0  0  0
   46.2682   35.9415   42.6915 H   0  0  0  0  0  0  0  0  0  0  0  0
   42.2176   35.7614   41.3041 H   0  0  0  0  0  0  0  0  0  0  0  0
  1  5  1  0
  2  3  2  0
  2  9  1  0
  4  3  1  0
  5  4  1  0
  5  6  2  0
  6  2  1  0
  8  7  2  0
  9  8  1  0
 10  9  2  0
 10 11  1  0
 11 12  2  0
 12  7  1  0
 13  1  1  0
 14  1  1  0
 15 16  1  0
 15 24  1  0
 15  1  1  0
 16 17  1  0
 17 18  2  0
 17 19  1  0
 20 16  1  0
 21 20  1  0
 22 20  1  0
 23 20  1  0
 24 25  1  0
 26 25  2  0
 27 26  1  0
 28 27  2  0
 28 24  1  0
  3 29  1  0
  7 30  1  0
  8 31  1  0
 11 32  1  0
 13 33  1  0
 13 34  1  0
 13 35  1  0
 14 36  1  0
 14 37  1  0
 14 38  1  0
 15 39  1  6
 19 40  1  0
 19 41  1  0
 25 42  1  0
 27 43  1  0
M  ISO  8  29  14  30  14  31  14  32  14  33   8  34   8  35   8  36   8
M  ISO  5  37   8  38   8  39   8  42  14  43  14
M  END
>  <minimizedAffinity>  (1) 
-5.23558855

>  <minimizedRMSD>  (1) 
1.38519633

$$$$
