
     RDKit          3D

 45 47  0  0  1  0  0  0  0  0999 V2000
   46.1350   31.6300   42.2160 C   0  0  0  0  0  0  0  0  0  0  0  0
   46.7520   32.0440   45.8110 C   0  0  0  0  0  0  0  0  0  0  0  0
   46.0000   33.1500   46.0490 C   0  0  0  0  0  0  0  0  0  0  0  0
   45.3110   33.5210   44.4340 S   0  0  0  0  0  0  0  0  0  0  0  0
   46.2100   32.0310   43.6600 C   0  0  0  0  0  0  0  0  0  0  0  0
   46.7290   31.6520   44.5990 N   0  0  0  0  0  0  0  0  0  0  0  0
   48.4320   31.3620   49.1480 C   0  0  0  0  0  0  0  0  0  0  0  0
   47.7160   32.0140   48.1490 C   0  0  0  0  0  0  0  0  0  0  0  0
   47.5010   31.4060   46.9070 C   0  0  0  0  0  0  0  0  0  0  0  0
   48.0420   30.1830   46.8020 N   0  0  0  0  0  0  0  0  0  0  0  0
   48.7310   29.5270   47.7310 C   0  0  0  0  0  0  0  0  0  0  0  0
   48.9110   30.1420   48.8960 N   0  0  0  0  0  0  0  0  0  0  0  0
   44.8000   30.9640   42.0170 C   0  0  0  0  0  0  0  0  0  0  0  0
   47.2490   30.6840   41.9640 C   0  0  0  0  0  0  0  0  0  0  0  0
   46.2580   32.8260   41.3540 C   0  0  1  0  0  0  0  0  0  0  0  0
   45.1010   33.7920   41.4230 C   0  0  0  0  0  0  0  0  0  0  0  0
   45.1800   35.1050   41.7870 C   0  0  0  0  0  0  0  0  0  0  0  0
   44.1120   35.9630   41.8480 C   0  0  0  0  0  0  0  0  0  0  0  0
   42.8880   35.5080   41.5320 N   0  0  0  0  0  0  0  0  0  0  0  0
   42.7700   34.2210   41.1690 C   0  0  0  0  0  0  0  0  0  0  0  0
   43.8250   33.3990   41.1160 N   0  0  0  0  0  0  0  0  0  0  0  0
   47.5140   33.4600   41.4290 N   0  0  0  0  0  0  0  0  0  0  0  0
   48.5950   34.1180   42.0400 C   0  0  0  0  0  0  0  0  0  0  0  0
   49.6910   34.7250   42.0810 O   0  0  0  0  0  0  0  0  0  0  0  0
   48.4430   34.1800   43.4740 N   0  0  0  0  0  0  0  0  0  0  0  0
   48.2570   33.6780   40.1610 C   0  0  0  0  0  0  0  0  0  0  0  0
   47.3500   33.2210   39.1770 F   0  0  0  0  0  0  0  0  0  0  0  0
   49.3810   33.0450   40.0880 F   0  0  0  0  0  0  0  0  0  0  0  0
   48.3210   35.0700   39.9520 F   0  0  0  0  0  0  0  0  0  0  0  0
   45.8503   33.6861   46.9978 H   0  0  0  0  0  0  0  0  0  0  0  0
   48.5996   31.8413   50.1238 H   0  0  0  0  0  0  0  0  0  0  0  0
   47.3138   33.0203   48.3378 H   0  0  0  0  0  0  0  0  0  0  0  0
   49.1340   28.5207   47.5441 H   0  0  0  0  0  0  0  0  0  0  0  0
   44.3521   30.7405   42.9965 H   0  0  0  0  0  0  0  0  0  0  0  0
   44.1352   31.6360   41.4545 H   0  0  0  0  0  0  0  0  0  0  0  0
   44.9371   30.0287   41.4545 H   0  0  0  0  0  0  0  0  0  0  0  0
   47.6587   30.3360   42.9237 H   0  0  0  0  0  0  0  0  0  0  0  0
   46.8759   29.8225   41.3907 H   0  0  0  0  0  0  0  0  0  0  0  0
   48.0386   31.1917   41.3907 H   0  0  0  0  0  0  0  0  0  0  0  0
   46.1962   32.4064   40.3390 H   0  0  0  0  0  0  0  0  0  0  0  0
   46.1710   35.5034   42.0502 H   0  0  0  0  0  0  0  0  0  0  0  0
   44.2556   37.0104   42.1518 H   0  0  0  0  0  0  0  0  0  0  0  0
   41.7758   33.8300   40.9071 H   0  0  0  0  0  0  0  0  0  0  0  0
   49.1652   34.6366   44.0492 H   0  0  0  0  0  0  0  0  0  0  0  0
   47.6123   33.7677   43.9221 H   0  0  0  0  0  0  0  0  0  0  0  0
  1  5  1  0
  2  3  2  0
  2  9  1  0
  4  3  1  0
  5  4  1  0
  5  6  2  0
  6  2  1  0
  8  7  2  0
  9  8  1  0
 10  9  2  0
 10 11  1  0
 11 12  2  0
 12  7  1  0
 13  1  1  0
 14  1  1  0
 15 16  1  0
 15 22  1  0
 15  1  1  0
 16 17  2  0
 17 18  1  0
 19 18  2  0
 20 19  1  0
 21 20  2  0
 21 16  1  0
 22 23  1  0
 23 24  2  0
 23 25  1  0
 26 22  1  0
 27 26  1  0
 28 26  1  0
 29 26  1  0
  3 30  1  0
  7 31  1  0
  8 32  1  0
 11 33  1  0
 13 34  1  0
 13 35  1  0
 13 36  1  0
 14 37  1  0
 14 38  1  0
 14 39  1  0
 15 40  1  6
 17 41  1  0
 18 42  1  0
 20 43  1  0
 25 44  1  0
 25 45  1  0
M  ISO  8  30  14  31  14  32  14  33  14  34   8  35   8  36   8  37   8
M  ISO  6  38   8  39   8  40   8  41  14  42  14  43  14
M  END
>  <minimizedAffinity>  (1) 
-5.22489023

>  <minimizedRMSD>  (1) 
1.94518876

$$$$
