
     RDKit          3D

 44 46  0  0  1  0  0  0  0  0999 V2000
   45.9040   32.0150   42.2320 C   0  0  0  0  0  0  0  0  0  0  0  0
   46.6680   32.2320   45.8180 C   0  0  0  0  0  0  0  0  0  0  0  0
   45.9740   33.3710   46.1280 C   0  0  0  0  0  0  0  0  0  0  0  0
   45.2580   33.8380   44.5530 S   0  0  0  0  0  0  0  0  0  0  0  0
   46.0580   32.3350   43.6850 C   0  0  0  0  0  0  0  0  0  0  0  0
   46.5860   31.8950   44.5900 N   0  0  0  0  0  0  0  0  0  0  0  0
   48.3700   31.3020   49.0790 C   0  0  0  0  0  0  0  0  0  0  0  0
   47.6560   32.0320   48.1390 C   0  0  0  0  0  0  0  0  0  0  0  0
   47.4160   31.5150   46.8600 C   0  0  0  0  0  0  0  0  0  0  0  0
   47.9340   30.2920   46.6660 N   0  0  0  0  0  0  0  0  0  0  0  0
   48.6220   29.5660   47.5420 C   0  0  0  0  0  0  0  0  0  0  0  0
   48.8250   30.1010   48.7430 N   0  0  0  0  0  0  0  0  0  0  0  0
   44.4920   31.5470   42.0190 C   0  0  0  0  0  0  0  0  0  0  0  0
   46.8820   30.9340   41.9230 C   0  0  0  0  0  0  0  0  0  0  0  0
   46.1930   33.2170   41.4140 C   0  0  2  0  0  0  0  0  0  0  0  0
   47.5230   33.6690   41.4950 N   0  0  0  0  0  0  0  0  0  0  0  0
   48.7010   34.1470   42.1040 C   0  0  0  0  0  0  0  0  0  0  0  0
   49.8690   34.5800   42.1470 O   0  0  0  0  0  0  0  0  0  0  0  0
   48.5490   34.1890   43.5410 N   0  0  0  0  0  0  0  0  0  0  0  0
   48.2720   33.8270   40.2170 C   0  0  0  0  0  0  0  0  0  0  0  0
   47.3160   33.4870   39.2360 F   0  0  0  0  0  0  0  0  0  0  0  0
   49.3210   33.0790   40.1210 F   0  0  0  0  0  0  0  0  0  0  0  0
   48.4780   35.2080   40.0300 F   0  0  0  0  0  0  0  0  0  0  0  0
   45.1940   34.3450   41.5730 C   0  0  0  0  0  0  0  0  0  0  0  0
   45.3630   35.5920   42.1920 C   0  0  0  0  0  0  0  0  0  0  0  0
   44.2280   36.2820   42.1510 N   0  0  0  0  0  0  0  0  0  0  0  0
   43.3190   35.5400   41.5280 C   0  0  0  0  0  0  0  0  0  0  0  0
   43.8860   34.3720   41.1760 N   0  0  0  0  0  0  0  0  0  0  0  0
   45.8795   33.8741   47.1016 H   0  0  0  0  0  0  0  0  0  0  0  0
   48.5553   31.7108   50.0833 H   0  0  0  0  0  0  0  0  0  0  0  0
   47.2738   33.0294   48.4021 H   0  0  0  0  0  0  0  0  0  0  0  0
   49.0061   28.5678   47.2852 H   0  0  0  0  0  0  0  0  0  0  0  0
   44.0079   31.3866   42.9936 H   0  0  0  0  0  0  0  0  0  0  0  0
   43.9347   32.3085   41.4537 H   0  0  0  0  0  0  0  0  0  0  0  0
   44.4998   30.6034   41.4537 H   0  0  0  0  0  0  0  0  0  0  0  0
   47.2669   30.5085   42.8615 H   0  0  0  0  0  0  0  0  0  0  0  0
   46.3845   30.1452   41.3397 H   0  0  0  0  0  0  0  0  0  0  0  0
   47.7165   31.3503   41.3397 H   0  0  0  0  0  0  0  0  0  0  0  0
   46.0620   32.8500   40.3853 H   0  0  0  0  0  0  0  0  0  0  0  0
   49.3263   34.5173   44.1317 H   0  0  0  0  0  0  0  0  0  0  0  0
   47.6634   33.8906   43.9741 H   0  0  0  0  0  0  0  0  0  0  0  0
   46.2998   35.9476   42.6459 H   0  0  0  0  0  0  0  0  0  0  0  0
   42.2766   35.8320   41.3326 H   0  0  0  0  0  0  0  0  0  0  0  0
   43.4046   33.6088   40.6794 H   0  0  0  0  0  0  0  0  0  0  0  0
  1  5  1  0
  2  3  2  0
  2  9  1  0
  4  3  1  0
  5  4  1  0
  5  6  2  0
  6  2  1  0
  8  7  2  0
  9  8  1  0
 10  9  2  0
 10 11  1  0
 11 12  2  0
 12  7  1  0
 13  1  1  0
 14  1  1  0
 15 16  1  0
 15 24  1  0
 15  1  1  0
 16 17  1  0
 17 18  2  0
 17 19  1  0
 20 16  1  0
 21 20  1  0
 22 20  1  0
 23 20  1  0
 24 25  2  0
 26 25  1  0
 27 26  2  0
 28 27  1  0
 28 24  1  0
  3 29  1  0
  7 30  1  0
  8 31  1  0
 11 32  1  0
 13 33  1  0
 13 34  1  0
 13 35  1  0
 14 36  1  0
 14 37  1  0
 14 38  1  0
 15 39  1  6
 19 40  1  0
 19 41  1  0
 25 42  1  0
 27 43  1  0
 28 44  1  0
M  ISO  8  29  14  30  14  31  14  32  14  33   8  34   8  35   8  36   8
M  ISO  6  37   8  38   8  39   8  42  14  43  14  44   9
M  END
>  <minimizedAffinity>  (1) 
-5.13894272

>  <minimizedRMSD>  (1) 
1.5000304

$$$$
