
     RDKit          3D

 52 54  0  0  1  0  0  0  0  0999 V2000
   46.1660   31.5630   42.2690 C   0  0  0  0  0  0  0  0  0  0  0  0
   46.8040   31.9740   45.8730 C   0  0  0  0  0  0  0  0  0  0  0  0
   46.0360   33.0700   46.1200 C   0  0  0  0  0  0  0  0  0  0  0  0
   45.3330   33.4370   44.5090 S   0  0  0  0  0  0  0  0  0  0  0  0
   46.2500   31.9580   43.7200 C   0  0  0  0  0  0  0  0  0  0  0  0
   46.7780   31.5870   44.6580 N   0  0  0  0  0  0  0  0  0  0  0  0
   48.4980   31.3000   49.1990 C   0  0  0  0  0  0  0  0  0  0  0  0
   47.7750   31.9290   48.2030 C   0  0  0  0  0  0  0  0  0  0  0  0
   47.5640   31.3420   46.9570 C   0  0  0  0  0  0  0  0  0  0  0  0
   48.1290   30.1370   46.8490 N   0  0  0  0  0  0  0  0  0  0  0  0
   48.8310   29.4930   47.7780 C   0  0  0  0  0  0  0  0  0  0  0  0
   49.0010   30.0960   48.9410 N   0  0  0  0  0  0  0  0  0  0  0  0
   44.8250   30.9240   42.0660 C   0  0  0  0  0  0  0  0  0  0  0  0
   47.2570   30.5830   42.0380 C   0  0  0  0  0  0  0  0  0  0  0  0
   46.3400   32.7860   41.4280 C   0  0  1  0  0  0  0  0  0  0  0  0
   45.2550   33.7450   41.5190 N   0  0  0  0  0  0  0  0  0  0  0  0
   44.3020   33.7570   40.4630 C   0  0  0  0  0  0  0  0  0  0  0  0
   42.9750   34.2200   41.0510 C   0  0  0  0  0  0  0  0  0  0  0  0
   43.1260   35.3260   42.0190 C   0  0  0  0  0  0  0  0  0  0  0  0
   44.4660   35.9270   42.1880 C   0  0  0  0  0  0  0  0  0  0  0  0
   45.6410   35.1070   41.7430 C   0  0  0  0  0  0  0  0  0  0  0  0
   47.6260   33.3620   41.5340 N   0  0  0  0  0  0  0  0  0  0  0  0
   48.7190   33.9900   42.1560 C   0  0  0  0  0  0  0  0  0  0  0  0
   49.8430   34.5440   42.2180 O   0  0  0  0  0  0  0  0  0  0  0  0
   48.4930   34.1140   43.5800 N   0  0  0  0  0  0  0  0  0  0  0  0
   48.4310   33.4780   40.2770 C   0  0  0  0  0  0  0  0  0  0  0  0
   47.5760   32.9390   39.2940 F   0  0  0  0  0  0  0  0  0  0  0  0
   49.5650   32.8620   40.3130 F   0  0  0  0  0  0  0  0  0  0  0  0
   48.5060   34.8450   39.9670 F   0  0  0  0  0  0  0  0  0  0  0  0
   45.8835   33.6002   47.0717 H   0  0  0  0  0  0  0  0  0  0  0  0
   48.6528   31.7809   50.1761 H   0  0  0  0  0  0  0  0  0  0  0  0
   47.3525   32.9253   48.4004 H   0  0  0  0  0  0  0  0  0  0  0  0
   49.2538   28.4961   47.5848 H   0  0  0  0  0  0  0  0  0  0  0  0
   44.3703   30.7073   43.0439 H   0  0  0  0  0  0  0  0  0  0  0  0
   44.1741   31.6087   41.5026 H   0  0  0  0  0  0  0  0  0  0  0  0
   44.9468   29.9871   41.5026 H   0  0  0  0  0  0  0  0  0  0  0  0
   47.6465   30.2331   43.0054 H   0  0  0  0  0  0  0  0  0  0  0  0
   46.8662   29.7267   41.4687 H   0  0  0  0  0  0  0  0  0  0  0  0
   48.0666   31.0630   41.4687 H   0  0  0  0  0  0  0  0  0  0  0  0
   46.2723   32.4167   40.3941 H   0  0  0  0  0  0  0  0  0  0  0  0
   44.1944   32.7463   40.0423 H   0  0  0  0  0  0  0  0  0  0  0  0
   44.6253   34.4312   39.6562 H   0  0  0  0  0  0  0  0  0  0  0  0
   42.3272   34.5595   40.2294 H   0  0  0  0  0  0  0  0  0  0  0  0
   42.5398   33.3669   41.5920 H   0  0  0  0  0  0  0  0  0  0  0  0
   42.4449   36.1304   41.7043 H   0  0  0  0  0  0  0  0  0  0  0  0
   42.9077   34.8668   42.9944 H   0  0  0  0  0  0  0  0  0  0  0  0
   44.4824   36.8673   41.6175 H   0  0  0  0  0  0  0  0  0  0  0  0
   44.5927   36.0418   43.2746 H   0  0  0  0  0  0  0  0  0  0  0  0
   46.4181   35.1384   42.5209 H   0  0  0  0  0  0  0  0  0  0  0  0
   46.0257   35.5242   40.8007 H   0  0  0  0  0  0  0  0  0  0  0  0
   49.2061   34.5552   44.1781 H   0  0  0  0  0  0  0  0  0  0  0  0
   47.6190   33.7611   43.9954 H   0  0  0  0  0  0  0  0  0  0  0  0
  1  5  1  0
  2  3  2  0
  2  9  1  0
  4  3  1  0
  5  4  1  0
  5  6  2  0
  6  2  1  0
  8  7  2  0
  9  8  1  0
 10  9  2  0
 10 11  1  0
 11 12  2  0
 12  7  1  0
 13  1  1  0
 14  1  1  0
 15 16  1  0
 15 22  1  0
 15  1  1  0
 16 21  1  0
 17 18  1  0
 17 16  1  0
 18 19  1  0
 19 20  1  0
 21 20  1  0
 22 23  1  0
 23 24  2  0
 23 25  1  0
 26 28  1  0
 26 22  1  0
 27 26  1  0
 29 26  1  0
  3 30  1  0
  7 31  1  0
  8 32  1  0
 11 33  1  0
 13 34  1  0
 13 35  1  0
 13 36  1  0
 14 37  1  0
 14 38  1  0
 14 39  1  0
 15 40  1  6
 17 41  1  0
 17 42  1  0
 18 43  1  0
 18 44  1  0
 19 45  1  0
 19 46  1  0
 20 47  1  0
 20 48  1  0
 21 49  1  0
 21 50  1  0
 25 51  1  0
 25 52  1  0
M  ISO  8  30  14  31  14  32  14  33  14  34   8  35   8  36   8  37   8
M  ISO  8  38   8  39   8  40   8  41  13  42  13  43  13  44  13  45  13
M  ISO  5  46  13  47  13  48  13  49  13  50  13
M  END
>  <minimizedAffinity>  (1) 
-5.07782316

>  <minimizedRMSD>  (1) 
1.9334476

$$$$
