
     RDKit          3D

 43 45  0  0  1  0  0  0  0  0999 V2000
   46.0500   31.7040   42.3450 C   0  0  0  0  0  0  0  0  0  0  0  0
   46.8190   32.0220   45.9220 C   0  0  0  0  0  0  0  0  0  0  0  0
   46.0750   33.1360   46.2140 C   0  0  0  0  0  0  0  0  0  0  0  0
   45.3350   33.5350   44.6310 S   0  0  0  0  0  0  0  0  0  0  0  0
   46.1980   32.0540   43.7910 C   0  0  0  0  0  0  0  0  0  0  0  0
   46.7520   31.6520   44.6980 N   0  0  0  0  0  0  0  0  0  0  0  0
   48.5620   31.2440   49.1980 C   0  0  0  0  0  0  0  0  0  0  0  0
   47.8140   31.9140   48.2390 C   0  0  0  0  0  0  0  0  0  0  0  0
   47.6020   31.3620   46.9770 C   0  0  0  0  0  0  0  0  0  0  0  0
   48.1780   30.1610   46.8100 N   0  0  0  0  0  0  0  0  0  0  0  0
   48.8980   29.4860   47.6960 C   0  0  0  0  0  0  0  0  0  0  0  0
   49.0790   30.0420   48.8840 N   0  0  0  0  0  0  0  0  0  0  0  0
   44.6590   31.1790   42.1430 C   0  0  0  0  0  0  0  0  0  0  0  0
   47.0780   30.6590   42.0540 C   0  0  0  0  0  0  0  0  0  0  0  0
   46.2900   32.8930   41.4990 C   0  0  2  0  0  0  0  0  0  0  0  0
   47.5980   33.4040   41.5690 N   0  0  0  0  0  0  0  0  0  0  0  0
   48.7290   34.0020   42.1490 C   0  0  0  0  0  0  0  0  0  0  0  0
   49.8850   34.4890   42.1750 O   0  0  0  0  0  0  0  0  0  0  0  0
   48.5140   34.2230   43.5610 N   0  0  0  0  0  0  0  0  0  0  0  0
   48.3860   33.4350   40.2990 C   0  0  0  0  0  0  0  0  0  0  0  0
   47.5170   32.8310   39.3660 F   0  0  0  0  0  0  0  0  0  0  0  0
   49.5110   32.8110   40.3630 F   0  0  0  0  0  0  0  0  0  0  0  0
   48.4480   34.7820   39.8900 F   0  0  0  0  0  0  0  0  0  0  0  0
   45.2580   33.9950   41.6270 C   0  0  0  0  0  0  0  0  0  0  0  0
   43.9350   33.8820   41.0810 C   0  0  0  0  0  0  0  0  0  0  0  0
   43.1670   35.4640   41.4460 S   0  0  0  0  0  0  0  0  0  0  0  0
   44.7480   36.0820   42.3000 C   0  0  0  0  0  0  0  0  0  0  0  0
   45.4530   35.1730   42.1910 N   0  0  0  0  0  0  0  0  0  0  0  0
   45.9609   33.6545   47.1774 H   0  0  0  0  0  0  0  0  0  0  0  0
   48.7281   31.6857   50.1916 H   0  0  0  0  0  0  0  0  0  0  0  0
   47.3817   32.8965   48.4793 H   0  0  0  0  0  0  0  0  0  0  0  0
   49.3279   28.5030   47.4534 H   0  0  0  0  0  0  0  0  0  0  0  0
   44.1885   31.0014   43.1213 H   0  0  0  0  0  0  0  0  0  0  0  0
   44.0672   31.9156   41.5798 H   0  0  0  0  0  0  0  0  0  0  0  0
   44.7015   30.2351   41.5798 H   0  0  0  0  0  0  0  0  0  0  0  0
   47.4718   30.2587   42.9998 H   0  0  0  0  0  0  0  0  0  0  0  0
   46.6191   29.8447   41.4740 H   0  0  0  0  0  0  0  0  0  0  0  0
   47.8997   31.1044   41.4740 H   0  0  0  0  0  0  0  0  0  0  0  0
   46.1654   32.4819   40.4863 H   0  0  0  0  0  0  0  0  0  0  0  0
   49.2531   34.6562   44.1329 H   0  0  0  0  0  0  0  0  0  0  0  0
   47.6217   33.9473   43.9954 H   0  0  0  0  0  0  0  0  0  0  0  0
   43.4922   33.0217   40.5578 H   0  0  0  0  0  0  0  0  0  0  0  0
   44.9421   37.0547   42.7757 H   0  0  0  0  0  0  0  0  0  0  0  0
  1  5  1  0
  2  3  2  0
  2  9  1  0
  4  3  1  0
  5  4  1  0
  5  6  2  0
  6  2  1  0
  8  7  2  0
  9  8  1  0
 10  9  2  0
 10 11  1  0
 11 12  2  0
 12  7  1  0
 13  1  1  0
 14  1  1  0
 15 16  1  0
 15 24  1  0
 15  1  1  0
 16 17  1  0
 17 18  2  0
 17 19  1  0
 20 22  1  0
 20 16  1  0
 21 20  1  0
 23 20  1  0
 24 28  1  0
 25 26  1  0
 25 24  2  0
 26 27  1  0
 28 27  2  0
  3 29  1  0
  7 30  1  0
  8 31  1  0
 11 32  1  0
 13 33  1  0
 13 34  1  0
 13 35  1  0
 14 36  1  0
 14 37  1  0
 14 38  1  0
 15 39  1  6
 19 40  1  0
 19 41  1  0
 25 42  1  0
 27 43  1  0
M  ISO  8  29  14  30  14  31  14  32  14  33   8  34   8  35   8  36   8
M  ISO  5  37   8  38   8  39   8  42  14  43  14
M  END
>  <minimizedAffinity>  (1) 
-4.8847146

>  <minimizedRMSD>  (1) 
1.7936157

$$$$
