
     RDKit          3D

 50 52  0  0  1  0  0  0  0  0999 V2000
   45.4400   31.8930   42.6040 C   0  0  0  0  0  0  0  0  0  0  0  0
   46.7160   32.1610   46.0360 C   0  0  0  0  0  0  0  0  0  0  0  0
   46.2030   33.3840   46.3690 C   0  0  0  0  0  0  0  0  0  0  0  0
   45.3320   33.8610   44.8920 S   0  0  0  0  0  0  0  0  0  0  0  0
   45.8110   32.2660   43.9950 C   0  0  0  0  0  0  0  0  0  0  0  0
   46.4190   31.7940   44.8510 N   0  0  0  0  0  0  0  0  0  0  0  0
   48.5610   31.0860   49.1730 C   0  0  0  0  0  0  0  0  0  0  0  0
   47.7990   31.8540   48.2990 C   0  0  0  0  0  0  0  0  0  0  0  0
   47.5160   31.3990   47.0050 C   0  0  0  0  0  0  0  0  0  0  0  0
   48.0440   30.1950   46.7270 N   0  0  0  0  0  0  0  0  0  0  0  0
   48.7750   29.4380   47.5380 C   0  0  0  0  0  0  0  0  0  0  0  0
   49.0200   29.9020   48.7510 N   0  0  0  0  0  0  0  0  0  0  0  0
   43.9370   31.9940   42.5000 C   0  0  0  0  0  0  0  0  0  0  0  0
   45.8650   30.4700   42.4040 C   0  0  0  0  0  0  0  0  0  0  0  0
   46.1070   32.8030   41.6350 C   0  0  2  0  0  0  0  0  0  0  0  0
   47.5080   32.8770   41.8400 N   0  0  0  0  0  0  0  0  0  0  0  0
   48.7190   33.3000   42.4370 C   0  0  0  0  0  0  0  0  0  0  0  0
   49.9680   33.3930   42.5660 O   0  0  0  0  0  0  0  0  0  0  0  0
   48.4520   34.1140   43.6010 N   0  0  0  0  0  0  0  0  0  0  0  0
   48.3860   32.1550   40.8700 C   0  0  0  0  0  0  0  0  0  0  0  0
   47.4690   31.7010   39.8910 F   0  0  0  0  0  0  0  0  0  0  0  0
   49.0630   31.1840   41.3830 F   0  0  0  0  0  0  0  0  0  0  0  0
   49.1560   33.1090   40.2050 F   0  0  0  0  0  0  0  0  0  0  0  0
   45.4570   34.1510   41.3770 C   0  0  0  0  0  0  0  0  0  0  0  0
   43.9590   34.0770   41.2700 C   0  0  0  0  0  0  0  0  0  0  0  0
   43.5750   35.5440   41.2390 C   0  0  0  0  0  0  0  0  0  0  0  0
   44.5860   36.2030   42.1080 C   0  0  0  0  0  0  0  0  0  0  0  0
   45.5770   35.1190   42.5270 C   0  0  0  0  0  0  0  0  0  0  0  0
   46.3037   33.9361   47.3151 H   0  0  0  0  0  0  0  0  0  0  0  0
   48.7816   31.4442   50.1894 H   0  0  0  0  0  0  0  0  0  0  0  0
   47.4140   32.8305   48.6280 H   0  0  0  0  0  0  0  0  0  0  0  0
   49.1620   28.4613   47.2120 H   0  0  0  0  0  0  0  0  0  0  0  0
   43.5008   32.0233   43.5094 H   0  0  0  0  0  0  0  0  0  0  0  0
   43.6679   32.9123   41.9574 H   0  0  0  0  0  0  0  0  0  0  0  0
   43.5474   31.1200   41.9574 H   0  0  0  0  0  0  0  0  0  0  0  0
   46.0086   29.9892   43.3829 H   0  0  0  0  0  0  0  0  0  0  0  0
   45.0886   29.9311   41.8412 H   0  0  0  0  0  0  0  0  0  0  0  0
   46.8098   30.4451   41.8412 H   0  0  0  0  0  0  0  0  0  0  0  0
   45.9354   32.2989   40.6725 H   0  0  0  0  0  0  0  0  0  0  0  0
   49.2335   34.5010   44.1491 H   0  0  0  0  0  0  0  0  0  0  0  0
   47.4802   34.3071   43.8825 H   0  0  0  0  0  0  0  0  0  0  0  0
   45.9772   34.4650   40.4600 H   0  0  0  0  0  0  0  0  0  0  0  0
   43.6486   33.5626   40.3486 H   0  0  0  0  0  0  0  0  0  0  0  0
   43.4827   33.5099   42.0833 H   0  0  0  0  0  0  0  0  0  0  0  0
   43.6248   35.9389   40.2136 H   0  0  0  0  0  0  0  0  0  0  0  0
   42.5450   35.7178   41.5837 H   0  0  0  0  0  0  0  0  0  0  0  0
   45.1053   36.9967   41.5509 H   0  0  0  0  0  0  0  0  0  0  0  0
   44.1118   36.6666   42.9856 H   0  0  0  0  0  0  0  0  0  0  0  0
   45.2847   34.6520   43.4791 H   0  0  0  0  0  0  0  0  0  0  0  0
   46.5990   35.4857   42.7033 H   0  0  0  0  0  0  0  0  0  0  0  0
  1  5  1  0
  2  3  2  0
  2  9  1  0
  4  3  1  0
  5  6  2  0
  5  4  1  0
  6  2  1  0
  8  7  2  0
  9  8  1  0
 10  9  2  0
 10 11  1  0
 11 12  2  0
 12  7  1  0
 13  1  1  0
 14  1  1  0
 15 16  1  0
 15  1  1  0
 16 17  1  0
 17 18  2  0
 17 19  1  0
 20 22  1  0
 20 16  1  0
 21 20  1  0
 23 20  1  0
 24 15  1  0
 24 28  1  0
 25 24  1  0
 26 25  1  0
 26 27  1  0
 27 28  1  0
  3 29  1  0
  7 30  1  0
  8 31  1  0
 11 32  1  0
 13 33  1  0
 13 34  1  0
 13 35  1  0
 14 36  1  0
 14 37  1  0
 14 38  1  0
 15 39  1  6
 19 40  1  0
 19 41  1  0
 24 42  1  0
 25 43  1  0
 25 44  1  0
 26 45  1  0
 26 46  1  0
 27 47  1  0
 27 48  1  0
 28 49  1  0
 28 50  1  0
M  ISO  8  29  14  30  14  31  14  32  14  33   8  34   8  35   8  36   8
M  ISO  8  37   8  38   8  39   8  42  13  43  13  44  13  45  13  46  13
M  ISO  4  47  13  48  13  49  13  50  13
M  END
>  <minimizedAffinity>  (1) 
-4.9667716

>  <minimizedRMSD>  (1) 
1.86885679

$$$$
