
     RDKit          3D

 38 39  0  0  1  0  0  0  0  0999 V2000
   45.5170   32.6950   42.2470 C   0  0  0  0  0  0  0  0  0  0  0  0
   46.4280   32.5640   45.8080 C   0  0  0  0  0  0  0  0  0  0  0  0
   45.8440   33.7180   46.2320 C   0  0  0  0  0  0  0  0  0  0  0  0
   45.1110   34.3700   44.7290 S   0  0  0  0  0  0  0  0  0  0  0  0
   45.7640   32.8710   43.7110 C   0  0  0  0  0  0  0  0  0  0  0  0
   46.2840   32.3230   44.5580 N   0  0  0  0  0  0  0  0  0  0  0  0
   48.1970   31.2580   48.9050 C   0  0  0  0  0  0  0  0  0  0  0  0
   47.5140   32.1100   48.0400 C   0  0  0  0  0  0  0  0  0  0  0  0
   47.1530   31.6990   46.7570 C   0  0  0  0  0  0  0  0  0  0  0  0
   47.5260   30.4420   46.4730 N   0  0  0  0  0  0  0  0  0  0  0  0
   48.1740   29.6070   47.2650 C   0  0  0  0  0  0  0  0  0  0  0  0
   48.5020   30.0210   48.4690 N   0  0  0  0  0  0  0  0  0  0  0  0
   44.0480   32.5100   42.0440 C   0  0  0  0  0  0  0  0  0  0  0  0
   46.3040   31.4890   41.8400 C   0  0  0  0  0  0  0  0  0  0  0  0
   46.0200   33.8780   41.4930 C   0  0  2  0  0  0  0  0  0  0  0  0
   47.3970   34.0670   41.5320 N   0  0  0  0  0  0  0  0  0  0  0  0
   48.6790   34.2460   42.0800 C   0  0  0  0  0  0  0  0  0  0  0  0
   49.9260   34.4230   42.0740 O   0  0  0  0  0  0  0  0  0  0  0  0
   48.6100   34.2230   43.5250 N   0  0  0  0  0  0  0  0  0  0  0  0
   48.0930   34.1810   40.2120 C   0  0  0  0  0  0  0  0  0  0  0  0
   47.0270   34.1050   39.2750 F   0  0  0  0  0  0  0  0  0  0  0  0
   48.9610   33.2500   39.9910 F   0  0  0  0  0  0  0  0  0  0  0  0
   48.5730   35.4930   40.1040 F   0  0  0  0  0  0  0  0  0  0  0  0
   45.1580   35.3680   42.0440 S   0  0  0  0  0  0  0  0  0  0  0  0
   45.8258   34.1454   47.2454 H   0  0  0  0  0  0  0  0  0  0  0  0
   48.4793   31.5866   49.9161 H   0  0  0  0  0  0  0  0  0  0  0  0
   47.2547   33.1252   48.3749 H   0  0  0  0  0  0  0  0  0  0  0  0
   48.4323   28.5927   46.9265 H   0  0  0  0  0  0  0  0  0  0  0  0
   43.5478   32.4470   43.0217 H   0  0  0  0  0  0  0  0  0  0  0  0
   43.6452   33.3645   41.4805 H   0  0  0  0  0  0  0  0  0  0  0  0
   43.8697   31.5823   41.4805 H   0  0  0  0  0  0  0  0  0  0  0  0
   46.6510   30.9573   42.7383 H   0  0  0  0  0  0  0  0  0  0  0  0
   45.6676   30.8208   41.2413 H   0  0  0  0  0  0  0  0  0  0  0  0
   47.1719   31.8024   41.2413 H   0  0  0  0  0  0  0  0  0  0  0  0
   45.7984   33.6682   40.4362 H   0  0  0  0  0  0  0  0  0  0  0  0
   49.4674   34.3410   44.0835 H   0  0  0  0  0  0  0  0  0  0  0  0
   47.7035   34.0887   43.9952 H   0  0  0  0  0  0  0  0  0  0  0  0
   45.1374   35.4036   43.4134 H   0  0  0  0  0  0  0  0  0  0  0  0
  1  5  1  0
  2  3  2  0
  2  9  1  0
  4  3  1  0
  5  6  2  0
  5  4  1  0
  6  2  1  0
  8  7  2  0
  9  8  1  0
 10  9  2  0
 10 11  1  0
 11 12  2  0
 12  7  1  0
 13  1  1  0
 14  1  1  0
 15 16  1  0
 15 24  1  0
 15  1  1  0
 16 17  1  0
 17 19  1  0
 18 17  2  0
 20 16  1  0
 21 20  1  0
 22 20  1  0
 23 20  1  0
  3 25  1  0
  7 26  1  0
  8 27  1  0
 11 28  1  0
 13 29  1  0
 13 30  1  0
 13 31  1  0
 14 32  1  0
 14 33  1  0
 14 34  1  0
 15 35  1  6
 19 36  1  0
 19 37  1  0
 24 38  1  0
M  ISO  8  25  14  26  14  27  14  28  14  29   8  30   8  31   8  32   8
M  ISO  4  33   8  34   8  35   8  38  11
M  END
>  <minimizedAffinity>  (1) 
-5.0544548

>  <minimizedRMSD>  (1) 
0.959911883

$$$$
