
     RDKit          3D

 50 52  0  0  1  0  0  0  0  0999 V2000
   45.7250   31.3270   43.0450 C   0  0  0  0  0  0  0  0  0  0  0  0
   45.9830   29.8220   46.3840 C   0  0  0  0  0  0  0  0  0  0  0  0
   46.1800   30.9390   47.1220 C   0  0  0  0  0  0  0  0  0  0  0  0
   46.1550   32.2380   45.8910 S   0  0  0  0  0  0  0  0  0  0  0  0
   45.8640   30.9810   44.4920 C   0  0  0  0  0  0  0  0  0  0  0  0
   45.8510   30.0420   45.1350 N   0  0  0  0  0  0  0  0  0  0  0  0
   46.9170   26.3770   47.6880 C   0  0  0  0  0  0  0  0  0  0  0  0
   47.0150   27.6180   47.0650 C   0  0  0  0  0  0  0  0  0  0  0  0
   45.9310   28.4960   47.0310 C   0  0  0  0  0  0  0  0  0  0  0  0
   44.8360   28.0230   47.6440 N   0  0  0  0  0  0  0  0  0  0  0  0
   44.7040   26.8470   48.2500 C   0  0  0  0  0  0  0  0  0  0  0  0
   45.7550   26.0450   48.2580 N   0  0  0  0  0  0  0  0  0  0  0  0
   44.2540   31.5590   42.7780 C   0  0  0  0  0  0  0  0  0  0  0  0
   46.1990   30.1390   42.2710 C   0  0  0  0  0  0  0  0  0  0  0  0
   46.5260   32.5200   42.7020 C   0  0  1  0  0  0  0  0  0  0  0  0
   47.5390   32.3580   41.6510 N   0  0  0  0  0  0  0  0  0  0  0  0
   48.8610   32.2850   41.8800 C   0  0  0  0  0  0  0  0  0  0  0  0
   49.8360   32.1170   40.9260 C   0  0  0  0  0  0  0  0  0  0  0  0
   51.2810   32.0460   41.2460 C   0  0  0  0  0  0  0  0  0  0  0  0
   49.4460   32.0110   39.6010 C   0  0  0  0  0  0  0  0  0  0  0  0
   50.2930   31.8580   38.6920 O   0  0  0  0  0  0  0  0  0  0  0  0
   48.1310   32.0790   39.3470 N   0  0  0  0  0  0  0  0  0  0  0  0
   47.2450   32.2440   40.3400 C   0  0  0  0  0  0  0  0  0  0  0  0
   46.0630   32.2810   39.9160 O   0  0  0  0  0  0  0  0  0  0  0  0
   45.7350   33.6830   42.5020 N   0  0  0  0  0  0  0  0  0  0  0  0
   44.7580   34.5030   41.9240 C   0  0  0  0  0  0  0  0  0  0  0  0
   44.1190   35.5640   41.7210 O   0  0  0  0  0  0  0  0  0  0  0  0
   43.9500   33.7740   40.9740 N   0  0  0  0  0  0  0  0  0  0  0  0
   46.0820   34.8780   43.3180 C   0  0  0  0  0  0  0  0  0  0  0  0
   47.2880   34.5030   43.9510 F   0  0  0  0  0  0  0  0  0  0  0  0
   45.1800   35.2070   44.1840 F   0  0  0  0  0  0  0  0  0  0  0  0
   46.4640   35.8960   42.4190 F   0  0  0  0  0  0  0  0  0  0  0  0
   46.3207   31.0269   48.2094 H   0  0  0  0  0  0  0  0  0  0  0  0
   47.7739   25.6876   47.7105 H   0  0  0  0  0  0  0  0  0  0  0  0
   47.9634   27.9116   46.5913 H   0  0  0  0  0  0  0  0  0  0  0  0
   43.7571   26.5527   48.7262 H   0  0  0  0  0  0  0  0  0  0  0  0
   43.7167   31.6437   43.7341 H   0  0  0  0  0  0  0  0  0  0  0  0
   44.1278   32.4881   42.2029 H   0  0  0  0  0  0  0  0  0  0  0  0
   43.8480   30.7138   42.2029 H   0  0  0  0  0  0  0  0  0  0  0  0
   46.5142   29.3489   42.9685 H   0  0  0  0  0  0  0  0  0  0  0  0
   45.3816   29.7641   41.6375 H   0  0  0  0  0  0  0  0  0  0  0  0
   47.0500   30.4298   41.6375 H   0  0  0  0  0  0  0  0  0  0  0  0
   47.1239   32.6649   43.6139 H   0  0  0  0  0  0  0  0  0  0  0  0
   49.1929   32.3671   42.9255 H   0  0  0  0  0  0  0  0  0  0  0  0
   51.4149   32.0394   42.3378 H   0  0  0  0  0  0  0  0  0  0  0  0
   51.7064   31.1259   40.8189 H   0  0  0  0  0  0  0  0  0  0  0  0
   51.7945   32.9200   40.8189 H   0  0  0  0  0  0  0  0  0  0  0  0
   47.7969   32.0034   38.3756 H   0  0  0  0  0  0  0  0  0  0  0  0
   43.1895   34.2525   40.4705 H   0  0  0  0  0  0  0  0  0  0  0  0
   44.1344   32.7757   40.8001 H   0  0  0  0  0  0  0  0  0  0  0  0
  1  5  1  0
  2  9  1  0
  2  3  2  0
  4  3  1  0
  5  6  2  0
  5  4  1  0
  6  2  1  0
  7 12  2  0
  8  7  1  0
  9  8  2  0
  9 10  1  0
 10 11  2  0
 11 12  1  0
 13  1  1  0
 14  1  1  0
 15  1  1  0
 16 17  1  0
 16 15  1  0
 18 19  1  0
 18 17  2  0
 20 18  1  0
 21 20  2  0
 22 20  1  0
 22 23  1  0
 23 16  1  0
 24 23  2  0
 25 15  1  0
 25 29  1  0
 26 25  1  0
 27 26  2  0
 28 26  1  0
 29 30  1  0
 29 31  1  0
 32 29  1  0
  3 33  1  0
  7 34  1  0
  8 35  1  0
 11 36  1  0
 13 37  1  0
 13 38  1  0
 13 39  1  0
 14 40  1  0
 14 41  1  0
 14 42  1  0
 15 43  1  1
 17 44  1  0
 19 45  1  0
 19 46  1  0
 19 47  1  0
 22 48  1  0
 28 49  1  0
 28 50  1  0
M  ISO  8  33  14  34  14  35  14  36  14  37   8  38   8  39   8  40   8
M  ISO  8  41   8  42   8  43   8  44  14  45   8  46   8  47   8  48   9
M  END
>  <minimizedAffinity>  (1) 
-4.93045998

>  <minimizedRMSD>  (1) 
5.22735786

$$$$
