
     RDKit          3D

 18 19  0  0  0  0  0  0  0  0999 V2000
   45.3970   34.7890   44.5060 C   0  0  0  0  0  0  0  0  0  0  0  0
   46.2070   34.4490   43.4090 C   0  0  0  0  0  0  0  0  0  0  0  0
   47.1180   33.3820   43.5320 C   0  0  0  0  0  0  0  0  0  0  0  0
   47.1660   32.7290   44.7280 N   0  0  0  0  0  0  0  0  0  0  0  0
   46.3830   33.0750   45.7550 C   0  0  0  0  0  0  0  0  0  0  0  0
   45.5040   34.0930   45.6570 N   0  0  0  0  0  0  0  0  0  0  0  0
   46.4270   32.3750   47.0500 C   0  0  0  0  0  0  0  0  0  0  0  0
   47.4530   31.4110   47.2210 C   0  0  0  0  0  0  0  0  0  0  0  0
   47.0830   30.8300   48.9780 S   0  0  0  0  0  0  0  0  0  0  0  0
   45.6160   32.0270   49.0910 C   0  0  0  0  0  0  0  0  0  0  0  0
   45.6220   32.5310   48.0960 N   0  0  0  0  0  0  0  0  0  0  0  0
   44.4620   35.8960   44.3530 C   0  0  0  0  0  0  0  0  0  0  0  0
   44.8520   37.0650   44.2300 O   0  0  0  0  0  0  0  0  0  0  0  0
   46.1304   35.0095   42.4656 H   0  0  0  0  0  0  0  0  0  0  0  0
   47.7667   33.0864   42.6943 H   0  0  0  0  0  0  0  0  0  0  0  0
   48.2427   31.0916   46.5250 H   0  0  0  0  0  0  0  0  0  0  0  0
   44.9266   32.1856   49.9334 H   0  0  0  0  0  0  0  0  0  0  0  0
   43.3819   35.6880   44.3466 H   0  0  0  0  0  0  0  0  0  0  0  0
  1  6  2  0
  2  3  2  0
  2  1  1  0
  3  4  1  0
  4  5  2  0
  5  7  1  0
  6  5  1  0
  7  8  2  0
  7 11  1  0
  8  9  1  0
  9 10  1  0
 11 10  2  0
 12  1  1  0
 13 12  2  0
  2 14  1  0
  3 15  1  0
  8 16  1  0
 10 17  1  0
 12 18  1  0
M  ISO  5  14  14  15  14  16  14  17  14  18   6
M  END
>  <minimizedAffinity>  (1) 
-4.06400967

>  <minimizedRMSD>  (1) 
1.40705168

$$$$
