
     RDKit          3D

 23 25  0  0  0  0  0  0  0  0999 V2000
   45.6050   34.4970   44.2280 C   0  0  0  0  0  0  0  0  0  0  0  0
   46.4670   34.0960   43.1990 C   0  0  0  0  0  0  0  0  0  0  0  0
   47.3720   33.0480   43.4490 C   0  0  0  0  0  0  0  0  0  0  0  0
   47.3660   32.4740   44.6860 N   0  0  0  0  0  0  0  0  0  0  0  0
   46.5260   32.8860   45.6490 C   0  0  0  0  0  0  0  0  0  0  0  0
   45.6510   33.8880   45.4270 N   0  0  0  0  0  0  0  0  0  0  0  0
   46.5280   32.2630   46.9720 C   0  0  0  0  0  0  0  0  0  0  0  0
   47.4960   31.2680   47.2410 C   0  0  0  0  0  0  0  0  0  0  0  0
   47.0560   30.8250   49.0290 S   0  0  0  0  0  0  0  0  0  0  0  0
   45.6340   32.1060   49.0180 C   0  0  0  0  0  0  0  0  0  0  0  0
   45.7100   32.5220   47.9860 N   0  0  0  0  0  0  0  0  0  0  0  0
   44.6480   35.6060   43.9610 C   0  0  0  0  0  0  0  0  0  0  0  0
   44.3470   35.7770   42.4900 C   0  0  0  0  0  0  0  0  0  0  0  0
   45.0620   36.8560   43.3000 C   0  0  0  0  0  0  0  0  0  0  0  0
   46.4370   34.5899   42.2166 H   0  0  0  0  0  0  0  0  0  0  0  0
   48.0651   32.7013   42.6683 H   0  0  0  0  0  0  0  0  0  0  0  0
   48.2861   30.8632   46.5914 H   0  0  0  0  0  0  0  0  0  0  0  0
   44.9267   32.3644   49.8199 H   0  0  0  0  0  0  0  0  0  0  0  0
   44.1001   35.4421   44.9007 H   0  0  0  0  0  0  0  0  0  0  0  0
   43.3127   35.9323   42.1491 H   0  0  0  0  0  0  0  0  0  0  0  0
   44.5571   35.2112   41.5704 H   0  0  0  0  0  0  0  0  0  0  0  0
   46.1293   37.0567   43.1249 H   0  0  0  0  0  0  0  0  0  0  0  0
   44.8897   37.9261   43.4879 H   0  0  0  0  0  0  0  0  0  0  0  0
  1  6  2  0
  2  3  2  0
  2  1  1  0
  3  4  1  0
  4  5  2  0
  5  7  1  0
  6  5  1  0
  7  8  2  0
  7 11  1  0
  8  9  1  0
 10  9  1  0
 11 10  2  0
 12  1  1  0
 13 14  1  0
 13 12  1  0
 14 12  1  0
  2 15  1  0
  3 16  1  0
  8 17  1  0
 10 18  1  0
 12 19  1  0
 13 20  1  0
 13 21  1  0
 14 22  1  0
 14 23  1  0
M  ISO  8  15  14  16  14  17  14  18  14  19  13  20  13  21  13  22  13
M  ISO  1  23  13
M  END
>  <minimizedAffinity>  (1) 
-4.19787121

>  <minimizedRMSD>  (1) 
1.85815954

$$$$
