
     RDKit          3D

 28 29  0  0  0  0  0  0  0  0999 V2000
   45.8380   34.3480   43.8980 C   0  0  0  0  0  0  0  0  0  0  0  0
   46.7270   33.8420   42.9460 C   0  0  0  0  0  0  0  0  0  0  0  0
   47.5890   32.7920   43.2500 C   0  0  0  0  0  0  0  0  0  0  0  0
   47.5190   32.2890   44.5150 N   0  0  0  0  0  0  0  0  0  0  0  0
   46.6500   32.7940   45.4250 C   0  0  0  0  0  0  0  0  0  0  0  0
   45.8100   33.8150   45.1310 N   0  0  0  0  0  0  0  0  0  0  0  0
   46.6000   32.2270   46.7850 C   0  0  0  0  0  0  0  0  0  0  0  0
   47.5050   31.1930   47.1150 C   0  0  0  0  0  0  0  0  0  0  0  0
   46.9900   30.8870   48.9040 S   0  0  0  0  0  0  0  0  0  0  0  0
   45.6600   32.2290   48.8100 C   0  0  0  0  0  0  0  0  0  0  0  0
   45.7800   32.5860   47.7620 N   0  0  0  0  0  0  0  0  0  0  0  0
   44.9170   35.4630   43.5880 C   0  0  0  0  0  0  0  0  0  0  0  0
   45.6590   36.6240   42.9510 C   0  0  0  0  0  0  0  0  0  0  0  0
   44.3400   35.9510   44.8930 C   0  0  0  0  0  0  0  0  0  0  0  0
   43.8620   35.0210   42.6140 C   0  0  0  0  0  0  0  0  0  0  0  0
   46.7460   34.2815   41.9378 H   0  0  0  0  0  0  0  0  0  0  0  0
   48.2918   32.3882   42.5063 H   0  0  0  0  0  0  0  0  0  0  0  0
   48.2826   30.7082   46.5065 H   0  0  0  0  0  0  0  0  0  0  0  0
   44.9556   32.5668   49.5844 H   0  0  0  0  0  0  0  0  0  0  0  0
   46.0726   37.2711   43.7385 H   0  0  0  0  0  0  0  0  0  0  0  0
   46.4778   36.2374   42.3265 H   0  0  0  0  0  0  0  0  0  0  0  0
   44.9643   37.2048   42.3265 H   0  0  0  0  0  0  0  0  0  0  0  0
   44.8850   35.4901   45.7300 H   0  0  0  0  0  0  0  0  0  0  0  0
   44.4371   37.0452   44.9505 H   0  0  0  0  0  0  0  0  0  0  0  0
   43.2771   35.6737   44.9505 H   0  0  0  0  0  0  0  0  0  0  0  0
   42.9844   34.6533   43.1659 H   0  0  0  0  0  0  0  0  0  0  0  0
   43.5675   35.8714   41.9815 H   0  0  0  0  0  0  0  0  0  0  0  0
   44.2616   34.2146   41.9815 H   0  0  0  0  0  0  0  0  0  0  0  0
  1  6  2  0
  2  3  2  0
  2  1  1  0
  3  4  1  0
  4  5  2  0
  5  7  1  0
  6  5  1  0
  7  8  2  0
  7 11  1  0
  8  9  1  0
 10  9  1  0
 11 10  2  0
 12  1  1  0
 12 14  1  0
 13 12  1  0
 15 12  1  0
  2 16  1  0
  3 17  1  0
  8 18  1  0
 10 19  1  0
 13 20  1  0
 13 21  1  0
 13 22  1  0
 14 23  1  0
 14 24  1  0
 14 25  1  0
 15 26  1  0
 15 27  1  0
 15 28  1  0
M  ISO  8  16  14  17  14  18  14  19  14  20   8  21   8  22   8  23   8
M  ISO  5  24   8  25   8  26   8  27   8  28   8
M  END
>  <minimizedAffinity>  (1) 
-3.95061421

>  <minimizedRMSD>  (1) 
1.98968911

$$$$
