
     RDKit          3D

 17 18  0  0  0  0  0  0  0  0999 V2000
   45.6210   34.6060   44.3000 C   0  0  0  0  0  0  0  0  0  0  0  0
   46.4460   34.1930   43.2520 C   0  0  0  0  0  0  0  0  0  0  0  0
   47.3220   33.1080   43.4550 C   0  0  0  0  0  0  0  0  0  0  0  0
   47.3270   32.4990   44.6830 N   0  0  0  0  0  0  0  0  0  0  0  0
   46.5050   32.9400   45.6680 C   0  0  0  0  0  0  0  0  0  0  0  0
   45.6590   33.9800   45.4880 N   0  0  0  0  0  0  0  0  0  0  0  0
   46.5140   32.2840   46.9780 C   0  0  0  0  0  0  0  0  0  0  0  0
   47.4750   31.2810   47.2290 C   0  0  0  0  0  0  0  0  0  0  0  0
   47.0320   30.8110   49.0010 S   0  0  0  0  0  0  0  0  0  0  0  0
   45.6300   32.0860   49.0160 C   0  0  0  0  0  0  0  0  0  0  0  0
   45.7040   32.5220   47.9980 N   0  0  0  0  0  0  0  0  0  0  0  0
   44.5120   35.9610   44.0850 S   0  0  0  0  0  0  0  0  0  0  0  0
   46.4126   34.7079   42.2805 H   0  0  0  0  0  0  0  0  0  0  0  0
   47.9844   32.7589   42.6492 H   0  0  0  0  0  0  0  0  0  0  0  0
   48.2636   30.8837   46.5730 H   0  0  0  0  0  0  0  0  0  0  0  0
   44.9253   32.3306   49.8244 H   0  0  0  0  0  0  0  0  0  0  0  0
   44.1252   36.4336   45.3114 H   0  0  0  0  0  0  0  0  0  0  0  0
  1  6  2  0
  2  3  2  0
  2  1  1  0
  3  4  1  0
  4  5  2  0
  5  7  1  0
  6  5  1  0
  7  8  2  0
  7 11  1  0
  8  9  1  0
  9 10  1  0
 11 10  2  0
 12  1  1  0
  2 13  1  0
  3 14  1  0
  8 15  1  0
 10 16  1  0
 12 17  1  0
M  ISO  5  13  14  14  14  15  14  16  14  17  11
M  END
>  <minimizedAffinity>  (1) 
-3.65155959

>  <minimizedRMSD>  (1) 
1.52039468

$$$$
