
     RDKit          3D

 29 30  0  0  0  0  0  0  0  0999 V2000
   45.9770   34.4570   41.2960 C   0  0  0  0  0  0  0  0  0  0  0  0
   47.1940   35.0110   41.7120 C   0  0  0  0  0  0  0  0  0  0  0  0
   48.3120   34.8560   40.8710 C   0  0  0  0  0  0  0  0  0  0  0  0
   48.1400   34.1700   39.6920 N   0  0  0  0  0  0  0  0  0  0  0  0
   46.9510   33.6620   39.3470 C   0  0  0  0  0  0  0  0  0  0  0  0
   45.9000   33.8110   40.1460 N   0  0  0  0  0  0  0  0  0  0  0  0
   46.3210   31.4920   35.7610 C   0  0  0  0  0  0  0  0  0  0  0  0
   45.5040   31.3000   36.8480 C   0  0  0  0  0  0  0  0  0  0  0  0
   45.7270   32.0200   38.0110 C   0  0  0  0  0  0  0  0  0  0  0  0
   46.7630   32.9290   38.0890 C   0  0  0  0  0  0  0  0  0  0  0  0
   47.5860   33.1260   37.0010 C   0  0  0  0  0  0  0  0  0  0  0  0
   47.3590   32.4000   35.8310 C   0  0  0  0  0  0  0  0  0  0  0  0
   46.0890   30.6060   34.2480 S   0  0  0  0  0  0  0  0  0  0  0  0
   44.7260   30.8430   33.6950 O   0  0  0  0  0  0  0  0  0  0  0  0
   47.0950   31.0810   33.2300 O   0  0  0  0  0  0  0  0  0  0  0  0
   44.8270   34.6170   42.1660 C   0  0  0  0  0  0  0  0  0  0  0  0
   43.8700   35.3670   41.7850 O   0  0  0  0  0  0  0  0  0  0  0  0
   44.8150   33.9390   43.3920 O   0  0  0  0  0  0  0  0  0  0  0  0
   45.3600   34.5730   44.5210 C   0  0  0  0  0  0  0  0  0  0  0  0
   44.6320   34.3190   45.6740 F   0  0  0  0  0  0  0  0  0  0  0  0
   46.6540   34.1580   44.7230 F   0  0  0  0  0  0  0  0  0  0  0  0
   45.3190   35.9440   44.2570 F   0  0  0  0  0  0  0  0  0  0  0  0
   47.2738   35.5509   42.6670 H   0  0  0  0  0  0  0  0  0  0  0  0
   49.2924   35.2706   41.1483 H   0  0  0  0  0  0  0  0  0  0  0  0
   44.6760   30.5777   36.7958 H   0  0  0  0  0  0  0  0  0  0  0  0
   45.0717   31.8656   38.8809 H   0  0  0  0  0  0  0  0  0  0  0  0
   48.4137   33.8485   37.0544 H   0  0  0  0  0  0  0  0  0  0  0  0
   48.0114   32.5521   34.9585 H   0  0  0  0  0  0  0  0  0  0  0  0
   46.2486   29.2707   34.5093 H   0  0  0  0  0  0  0  0  0  0  0  0
  1  2  2  0
  1 16  1  0
  3  2  1  0
  4  3  2  0
  5  4  1  0
  5  6  2  0
  6  1  1  0
  7 12  2  0
  7  8  1  0
  8  9  2  0
  9 10  1  0
 10  5  1  0
 11 10  2  0
 12 11  1  0
 13  7  1  0
 14 13  2  0
 15 13  2  0
 16 18  1  0
 17 16  2  0
 18 19  1  0
 19 21  1  0
 19 20  1  0
 22 19  1  0
  2 23  1  0
  3 24  1  0
  8 25  1  0
  9 26  1  0
 11 27  1  0
 12 28  1  0
 13 29  1  0
M  ISO  7  23  14  24  14  25  14  26  14  27  14  28  14  29  11
M  END
>  <minimizedAffinity>  (1) 
-4.4857583

>  <minimizedRMSD>  (1) 
1.28382778

$$$$
