
     RDKit          3D

 41 44  0  0  1  0  0  0  0  0999 V2000
   44.5280   35.3270   43.1450 C   0  0  1  0  0  0  0  0  0  0  0  0
   45.5920   34.4150   43.6420 C   0  0  0  0  0  0  0  0  0  0  0  0
   46.6990   34.1390   42.8120 C   0  0  0  0  0  0  0  0  0  0  0  0
   47.7130   33.2790   43.2710 C   0  0  0  0  0  0  0  0  0  0  0  0
   47.5550   32.7580   44.5190 N   0  0  0  0  0  0  0  0  0  0  0  0
   46.5050   33.0340   45.2770 C   0  0  0  0  0  0  0  0  0  0  0  0
   45.5360   33.8490   44.8520 N   0  0  0  0  0  0  0  0  0  0  0  0
   46.3450   32.4530   46.6310 C   0  0  0  0  0  0  0  0  0  0  0  0
   47.3280   31.5470   47.0680 C   0  0  0  0  0  0  0  0  0  0  0  0
   46.6960   31.1040   48.7640 S   0  0  0  0  0  0  0  0  0  0  0  0
   45.2140   32.2540   48.5250 C   0  0  0  0  0  0  0  0  0  0  0  0
   45.3750   32.6740   47.5020 N   0  0  0  0  0  0  0  0  0  0  0  0
   44.9490   36.7650   43.3680 C   0  0  0  0  0  0  0  0  0  0  0  0
   44.2420   35.0960   41.6930 C   0  0  0  0  0  0  0  0  0  0  0  0
   43.1540   34.1100   41.5470 C   0  0  0  0  0  0  0  0  0  0  0  0
   43.3800   32.7760   41.8190 C   0  0  0  0  0  0  0  0  0  0  0  0
   42.3890   31.7930   41.7270 C   0  0  0  0  0  0  0  0  0  0  0  0
   41.1340   32.2170   41.3420 C   0  0  0  0  0  0  0  0  0  0  0  0
   40.8660   33.5270   41.0620 C   0  0  0  0  0  0  0  0  0  0  0  0
   39.5900   33.8930   40.6750 C   0  0  0  0  0  0  0  0  0  0  0  0
   39.3060   35.2190   40.3800 C   0  0  0  0  0  0  0  0  0  0  0  0
   40.3020   36.1760   40.4770 C   0  0  0  0  0  0  0  0  0  0  0  0
   41.5590   35.7620   40.8690 C   0  0  0  0  0  0  0  0  0  0  0  0
   41.8760   34.4670   41.1670 C   0  0  0  0  0  0  0  0  0  0  0  0
   43.6052   35.1181   43.7061 H   0  0  0  0  0  0  0  0  0  0  0  0
   46.7686   34.5933   41.8126 H   0  0  0  0  0  0  0  0  0  0  0  0
   48.5903   33.0392   42.6523 H   0  0  0  0  0  0  0  0  0  0  0  0
   48.2301   31.1938   46.5470 H   0  0  0  0  0  0  0  0  0  0  0  0
   44.3909   32.4601   49.2250 H   0  0  0  0  0  0  0  0  0  0  0  0
   45.0080   36.9665   44.4478 H   0  0  0  0  0  0  0  0  0  0  0  0
   45.9343   36.9340   42.9091 H   0  0  0  0  0  0  0  0  0  0  0  0
   44.2104   37.4387   42.9091 H   0  0  0  0  0  0  0  0  0  0  0  0
   43.9400   36.0446   41.2252 H   0  0  0  0  0  0  0  0  0  0  0  0
   45.1480   34.7115   41.2017 H   0  0  0  0  0  0  0  0  0  0  0  0
   44.3916   32.4699   42.1239 H   0  0  0  0  0  0  0  0  0  0  0  0
   42.5995   30.7366   41.9501 H   0  0  0  0  0  0  0  0  0  0  0  0
   40.3241   31.4775   41.2579 H   0  0  0  0  0  0  0  0  0  0  0  0
   38.7990   33.1322   40.6009 H   0  0  0  0  0  0  0  0  0  0  0  0
   38.2914   35.5093   40.0696 H   0  0  0  0  0  0  0  0  0  0  0  0
   40.0980   37.2326   40.2489 H   0  0  0  0  0  0  0  0  0  0  0  0
   42.3526   36.5198   40.9460 H   0  0  0  0  0  0  0  0  0  0  0  0
  1 13  1  0
  1  2  1  0
  2  7  2  0
  3  4  2  0
  3  2  1  0
  4  5  1  0
  5  6  2  0
  6  8  1  0
  7  6  1  0
  8  9  2  0
  8 12  1  0
  9 10  1  0
 11 10  1  0
 12 11  2  0
 14  1  1  0
 15 14  1  0
 15 16  2  0
 17 16  1  0
 18 17  2  0
 19 24  2  0
 19 18  1  0
 20 19  1  0
 21 22  1  0
 21 20  2  0
 22 23  2  0
 23 24  1  0
 24 15  1  0
  1 25  1  1
  3 26  1  0
  4 27  1  0
  9 28  1  0
 11 29  1  0
 13 30  1  0
 13 31  1  0
 13 32  1  0
 14 33  1  0
 14 34  1  0
 16 35  1  0
 17 36  1  0
 18 37  1  0
 20 38  1  0
 21 39  1  0
 22 40  1  0
 23 41  1  0
M  ISO  8  25   8  26  14  27  14  28  14  29  14  30   8  31   8  32   8
M  ISO  8  33   8  34   8  35  14  36  14  37  14  38  14  39  14  40  14
M  ISO  1  41  14
M  END
>  <minimizedAffinity>  (1) 
-6.28769398

>  <minimizedRMSD>  (1) 
1.13862824

$$$$
