
     RDKit          3D

 38 41  0  0  1  0  0  0  0  0999 V2000
   44.5880   34.9960   42.9850 C   0  0  1  0  0  0  0  0  0  0  0  0
   45.5820   34.1060   43.6060 C   0  0  0  0  0  0  0  0  0  0  0  0
   46.8140   33.9090   42.9260 C   0  0  0  0  0  0  0  0  0  0  0  0
   47.7880   33.0580   43.4980 C   0  0  0  0  0  0  0  0  0  0  0  0
   47.4680   32.4770   44.6830 N   0  0  0  0  0  0  0  0  0  0  0  0
   46.2960   32.6890   45.2900 C   0  0  0  0  0  0  0  0  0  0  0  0
   45.3380   33.4950   44.7770 N   0  0  0  0  0  0  0  0  0  0  0  0
   45.9830   32.0320   46.5740 C   0  0  0  0  0  0  0  0  0  0  0  0
   45.7510   30.6470   46.5790 C   0  0  0  0  0  0  0  0  0  0  0  0
   45.4020   30.3460   48.4000 S   0  0  0  0  0  0  0  0  0  0  0  0
   45.6510   32.1840   48.7690 C   0  0  0  0  0  0  0  0  0  0  0  0
   45.8830   32.5890   47.7640 N   0  0  0  0  0  0  0  0  0  0  0  0
   45.0280   36.4280   43.0620 C   0  0  0  0  0  0  0  0  0  0  0  0
   44.2910   34.6280   41.5470 C   0  0  0  0  0  0  0  0  0  0  0  0
   43.0420   33.9140   41.4840 N   0  0  0  0  0  0  0  0  0  0  0  0
   42.7600   32.6150   41.7080 C   0  0  0  0  0  0  0  0  0  0  0  0
   41.4270   32.4000   41.5280 N   0  0  0  0  0  0  0  0  0  0  0  0
   40.8460   33.5580   41.1870 C   0  0  0  0  0  0  0  0  0  0  0  0
   39.5420   33.9050   40.8940 C   0  0  0  0  0  0  0  0  0  0  0  0
   39.3150   35.1870   40.5870 N   0  0  0  0  0  0  0  0  0  0  0  0
   40.2790   36.1270   40.5540 C   0  0  0  0  0  0  0  0  0  0  0  0
   41.5480   35.7750   40.8430 N   0  0  0  0  0  0  0  0  0  0  0  0
   41.8540   34.5000   41.1610 C   0  0  0  0  0  0  0  0  0  0  0  0
   38.4970   32.9640   40.9130 N   0  0  0  0  0  0  0  0  0  0  0  0
   43.6583   34.8675   43.5586 H   0  0  0  0  0  0  0  0  0  0  0  0
   47.0077   34.4119   41.9671 H   0  0  0  0  0  0  0  0  0  0  0  0
   48.7558   32.8759   43.0079 H   0  0  0  0  0  0  0  0  0  0  0  0
   45.7688   29.9322   45.7431 H   0  0  0  0  0  0  0  0  0  0  0  0
   45.5832   32.7133   49.7309 H   0  0  0  0  0  0  0  0  0  0  0  0
   45.1199   36.7271   44.1165 H   0  0  0  0  0  0  0  0  0  0  0  0
   46.0019   36.5397   42.5630 H   0  0  0  0  0  0  0  0  0  0  0  0
   44.2848   37.0673   42.5630 H   0  0  0  0  0  0  0  0  0  0  0  0
   44.2214   35.5433   40.9408 H   0  0  0  0  0  0  0  0  0  0  0  0
   45.0984   33.9910   41.1565 H   0  0  0  0  0  0  0  0  0  0  0  0
   43.4938   31.8465   41.9925 H   0  0  0  0  0  0  0  0  0  0  0  0
   40.0343   37.1677   40.2948 H   0  0  0  0  0  0  0  0  0  0  0  0
   37.5355   33.2576   40.6891 H   0  0  0  0  0  0  0  0  0  0  0  0
   38.6932   31.9812   41.1508 H   0  0  0  0  0  0  0  0  0  0  0  0
  1 13  1  0
  1  2  1  0
  2  7  2  0
  3  4  2  0
  3  2  1  0
  4  5  1  0
  5  6  2  0
  6  8  1  0
  7  6  1  0
  8  9  2  0
  8 12  1  0
  9 10  1  0
 10 11  1  0
 12 11  2  0
 14  1  1  0
 15 14  1  0
 15 16  1  0
 17 16  2  0
 18 17  1  0
 19 24  1  0
 19 18  2  0
 20 19  1  0
 21 20  2  0
 21 22  1  0
 22 23  2  0
 23 18  1  0
 23 15  1  0
  1 25  1  1
  3 26  1  0
  4 27  1  0
  9 28  1  0
 11 29  1  0
 13 30  1  0
 13 31  1  0
 13 32  1  0
 14 33  1  0
 14 34  1  0
 16 35  1  0
 21 36  1  0
 24 37  1  0
 24 38  1  0
M  ISO  8  25   8  26  14  27  14  28  14  29  14  30   8  31   8  32   8
M  ISO  4  33   8  34   8  35  14  36  14
M  END
>  <minimizedAffinity>  (1) 
-6.11064529

>  <minimizedRMSD>  (1) 
1.71261466

$$$$
