
     RDKit          3D

 39 42  0  0  1  0  0  0  0  0999 V2000
   44.6160   35.5360   43.2850 C   0  0  1  0  0  0  0  0  0  0  0  0
   45.6190   34.5880   43.7690 C   0  0  0  0  0  0  0  0  0  0  0  0
   46.7250   34.3060   42.9200 C   0  0  0  0  0  0  0  0  0  0  0  0
   47.7180   33.3980   43.3480 C   0  0  0  0  0  0  0  0  0  0  0  0
   47.5470   32.8380   44.5790 N   0  0  0  0  0  0  0  0  0  0  0  0
   46.5020   33.1230   45.3440 C   0  0  0  0  0  0  0  0  0  0  0  0
   45.5480   33.9840   44.9530 N   0  0  0  0  0  0  0  0  0  0  0  0
   46.3350   32.4940   46.6650 C   0  0  0  0  0  0  0  0  0  0  0  0
   47.3110   31.5940   47.1100 C   0  0  0  0  0  0  0  0  0  0  0  0
   46.6290   31.0840   48.7800 S   0  0  0  0  0  0  0  0  0  0  0  0
   45.1400   32.2170   48.5250 C   0  0  0  0  0  0  0  0  0  0  0  0
   45.3430   32.6580   47.5230 N   0  0  0  0  0  0  0  0  0  0  0  0
   45.0290   36.9560   43.5720 C   0  0  0  0  0  0  0  0  0  0  0  0
   44.2980   35.3670   41.8200 C   0  0  0  0  0  0  0  0  0  0  0  0
   43.2790   34.2990   41.6820 C   0  0  0  0  0  0  0  0  0  0  0  0
   43.2460   32.9360   41.8970 C   0  0  0  0  0  0  0  0  0  0  0  0
   42.0100   32.4610   41.5930 N   0  0  0  0  0  0  0  0  0  0  0  0
   41.2430   33.4790   41.1900 C   0  0  0  0  0  0  0  0  0  0  0  0
   39.9260   33.5050   40.7760 C   0  0  0  0  0  0  0  0  0  0  0  0
   39.3210   34.7020   40.3880 C   0  0  0  0  0  0  0  0  0  0  0  0
   40.0570   35.8790   40.4220 C   0  0  0  0  0  0  0  0  0  0  0  0
   41.3650   35.7900   40.8430 C   0  0  0  0  0  0  0  0  0  0  0  0
   42.0070   34.6370   41.2330 C   0  0  0  0  0  0  0  0  0  0  0  0
   43.6927   35.3112   43.8391 H   0  0  0  0  0  0  0  0  0  0  0  0
   46.8061   34.7921   41.9366 H   0  0  0  0  0  0  0  0  0  0  0  0
   48.5869   33.1545   42.7190 H   0  0  0  0  0  0  0  0  0  0  0  0
   48.2361   31.2707   46.6103 H   0  0  0  0  0  0  0  0  0  0  0  0
   44.2875   32.3961   49.1967 H   0  0  0  0  0  0  0  0  0  0  0  0
   45.0743   37.1119   44.6600 H   0  0  0  0  0  0  0  0  0  0  0  0
   46.0195   37.1457   43.1328 H   0  0  0  0  0  0  0  0  0  0  0  0
   44.2947   37.6473   43.1328 H   0  0  0  0  0  0  0  0  0  0  0  0
   43.9044   36.3106   41.4141 H   0  0  0  0  0  0  0  0  0  0  0  0
   45.2079   35.0950   41.2649 H   0  0  0  0  0  0  0  0  0  0  0  0
   44.0892   32.3289   42.2582 H   0  0  0  0  0  0  0  0  0  0  0  0
   41.7125   31.4773   41.6618 H   0  0  0  0  0  0  0  0  0  0  0  0
   39.3460   32.5706   40.7516 H   0  0  0  0  0  0  0  0  0  0  0  0
   38.2715   34.7126   40.0586 H   0  0  0  0  0  0  0  0  0  0  0  0
   39.6141   36.8412   40.1253 H   0  0  0  0  0  0  0  0  0  0  0  0
   41.9479   36.7225   40.8699 H   0  0  0  0  0  0  0  0  0  0  0  0
  1 13  1  0
  1  2  1  0
  2  7  2  0
  3  4  2  0
  3  2  1  0
  4  5  1  0
  5  6  2  0
  6  8  1  0
  7  6  1  0
  8  9  2  0
  8 12  1  0
  9 10  1  0
 11 10  1  0
 12 11  2  0
 14  1  1  0
 15 14  1  0
 15 16  2  0
 17 16  1  0
 18 23  2  0
 18 17  1  0
 19 18  1  0
 20 21  1  0
 20 19  2  0
 21 22  2  0
 22 23  1  0
 23 15  1  0
  1 24  1  1
  3 25  1  0
  4 26  1  0
  9 27  1  0
 11 28  1  0
 13 29  1  0
 13 30  1  0
 13 31  1  0
 14 32  1  0
 14 33  1  0
 16 34  1  0
 17 35  1  0
 19 36  1  0
 20 37  1  0
 21 38  1  0
 22 39  1  0
M  ISO  8  24   8  25  14  26  14  27  14  28  14  29   8  30   8  31   8
M  ISO  8  32   8  33   8  34  14  35   9  36  14  37  14  38  14  39  14
M  END
>  <minimizedAffinity>  (1) 
-6.19257498

>  <minimizedRMSD>  (1) 
1.03570426

$$$$
