
     RDKit          3D

 29 30  0  0  0  0  0  0  0  0999 V2000
   45.8610   34.6620   41.6010 C   0  0  0  0  0  0  0  0  0  0  0  0
   47.0920   35.1610   42.0450 C   0  0  0  0  0  0  0  0  0  0  0  0
   48.2300   34.9150   41.2540 C   0  0  0  0  0  0  0  0  0  0  0  0
   48.0640   34.2000   40.0910 N   0  0  0  0  0  0  0  0  0  0  0  0
   46.8580   33.7490   39.7200 C   0  0  0  0  0  0  0  0  0  0  0  0
   45.7810   33.9820   40.4710 N   0  0  0  0  0  0  0  0  0  0  0  0
   46.7640   33.0150   38.5020 N   0  0  0  0  0  0  0  0  0  0  0  0
   47.9440   32.4890   37.8610 C   0  0  0  0  0  0  0  0  0  0  0  0
   47.8960   32.7920   36.3750 C   0  0  0  0  0  0  0  0  0  0  0  0
   46.7610   32.1580   35.8550 O   0  0  0  0  0  0  0  0  0  0  0  0
   45.6560   32.8530   36.3190 C   0  0  0  0  0  0  0  0  0  0  0  0
   45.5280   32.7380   37.8220 C   0  0  0  0  0  0  0  0  0  0  0  0
   44.6950   34.9230   42.4270 C   0  0  0  0  0  0  0  0  0  0  0  0
   43.7870   35.6960   41.9800 O   0  0  0  0  0  0  0  0  0  0  0  0
   44.6140   34.3110   43.6890 O   0  0  0  0  0  0  0  0  0  0  0  0
   45.0940   35.0260   44.8060 C   0  0  0  0  0  0  0  0  0  0  0  0
   44.2320   34.9290   45.8900 F   0  0  0  0  0  0  0  0  0  0  0  0
   46.3170   34.5260   45.1860 F   0  0  0  0  0  0  0  0  0  0  0  0
   45.1830   36.3510   44.4270 F   0  0  0  0  0  0  0  0  0  0  0  0
   47.1673   35.7285   42.9843 H   0  0  0  0  0  0  0  0  0  0  0  0
   49.2214   35.2832   41.5567 H   0  0  0  0  0  0  0  0  0  0  0  0
   48.8379   32.9555   38.3007 H   0  0  0  0  0  0  0  0  0  0  0  0
   47.9850   31.3999   38.0099 H   0  0  0  0  0  0  0  0  0  0  0  0
   47.8266   33.8781   36.2148 H   0  0  0  0  0  0  0  0  0  0  0  0
   48.8065   32.4299   35.8751 H   0  0  0  0  0  0  0  0  0  0  0  0
   45.7599   33.9140   36.0480 H   0  0  0  0  0  0  0  0  0  0  0  0
   44.7549   32.4212   35.8589 H   0  0  0  0  0  0  0  0  0  0  0  0
   44.7673   33.4537   38.1672 H   0  0  0  0  0  0  0  0  0  0  0  0
   45.2430   31.7015   38.0551 H   0  0  0  0  0  0  0  0  0  0  0  0
  1  2  2  0
  1 13  1  0
  3  2  1  0
  4  3  2  0
  5  4  1  0
  5  6  2  0
  6  1  1  0
  7  5  1  0
  8  7  1  0
  9  8  1  0
 10 11  1  0
 10  9  1  0
 11 12  1  0
 12  7  1  0
 13 15  1  0
 14 13  2  0
 15 16  1  0
 16 18  1  0
 16 17  1  0
 19 16  1  0
  2 20  1  0
  3 21  1  0
  8 22  1  0
  8 23  1  0
  9 24  1  0
  9 25  1  0
 11 26  1  0
 11 27  1  0
 12 28  1  0
 12 29  1  0
M  ISO  8  20  14  21  14  22  13  23  13  24  13  25  13  26  13  27  13
M  ISO  2  28  13  29  13
M  END
>  <minimizedAffinity>  (1) 
-4.46510267

>  <minimizedRMSD>  (1) 
1.01132298

$$$$
