
     RDKit          3D

 31 32  0  0  0  0  0  0  0  0999 V2000
   45.9720   34.4940   41.2300 C   0  0  0  0  0  0  0  0  0  0  0  0
   47.2140   34.9220   41.7200 C   0  0  0  0  0  0  0  0  0  0  0  0
   48.3690   34.5830   40.9880 C   0  0  0  0  0  0  0  0  0  0  0  0
   48.2170   33.8600   39.8440 N   0  0  0  0  0  0  0  0  0  0  0  0
   46.9930   33.4740   39.4190 C   0  0  0  0  0  0  0  0  0  0  0  0
   45.9030   33.7920   40.1070 N   0  0  0  0  0  0  0  0  0  0  0  0
   46.9030   32.7200   38.2150 N   0  0  0  0  0  0  0  0  0  0  0  0
   47.2750   31.3180   38.1820 C   0  0  0  0  0  0  0  0  0  0  0  0
   47.6670   30.9880   36.7670 C   0  0  0  0  0  0  0  0  0  0  0  0
   46.5870   31.2470   35.7580 C   0  0  0  0  0  0  0  0  0  0  0  0
   45.6810   32.3720   36.1380 C   0  0  0  0  0  0  0  0  0  0  0  0
   46.4290   33.3470   36.9930 C   0  0  0  0  0  0  0  0  0  0  0  0
   44.7910   34.8500   41.9950 C   0  0  0  0  0  0  0  0  0  0  0  0
   43.9320   35.6310   41.4730 O   0  0  0  0  0  0  0  0  0  0  0  0
   44.6390   34.3180   43.2890 O   0  0  0  0  0  0  0  0  0  0  0  0
   45.1140   35.0670   44.3760 C   0  0  0  0  0  0  0  0  0  0  0  0
   44.2010   35.1190   45.4200 F   0  0  0  0  0  0  0  0  0  0  0  0
   46.2870   34.5180   44.8570 F   0  0  0  0  0  0  0  0  0  0  0  0
   45.3360   36.3550   43.9160 F   0  0  0  0  0  0  0  0  0  0  0  0
   47.2846   35.5059   42.6496 H   0  0  0  0  0  0  0  0  0  0  0  0
   49.3667   34.8939   41.3313 H   0  0  0  0  0  0  0  0  0  0  0  0
   48.1236   31.1384   38.8585 H   0  0  0  0  0  0  0  0  0  0  0  0
   46.4360   30.6864   38.5093 H   0  0  0  0  0  0  0  0  0  0  0  0
   48.5431   31.5971   36.4999 H   0  0  0  0  0  0  0  0  0  0  0  0
   47.8767   29.9086   36.7385 H   0  0  0  0  0  0  0  0  0  0  0  0
   45.9834   30.3337   35.6504 H   0  0  0  0  0  0  0  0  0  0  0  0
   47.0813   31.5304   34.8171 H   0  0  0  0  0  0  0  0  0  0  0  0
   45.3247   32.8791   35.2292 H   0  0  0  0  0  0  0  0  0  0  0  0
   44.8207   31.9772   36.6983 H   0  0  0  0  0  0  0  0  0  0  0  0
   47.2918   33.7305   36.4287 H   0  0  0  0  0  0  0  0  0  0  0  0
   45.7471   34.1664   37.2643 H   0  0  0  0  0  0  0  0  0  0  0  0
  1  2  2  0
  1 13  1  0
  3  2  1  0
  4  3  2  0
  5  4  1  0
  5  6  2  0
  6  1  1  0
  7  5  1  0
  8  7  1  0
  9  8  1  0
 10 11  1  0
 10  9  1  0
 11 12  1  0
 12  7  1  0
 13 15  1  0
 14 13  2  0
 15 16  1  0
 16 18  1  0
 16 17  1  0
 19 16  1  0
  2 20  1  0
  3 21  1  0
  8 22  1  0
  8 23  1  0
  9 24  1  0
  9 25  1  0
 10 26  1  0
 10 27  1  0
 11 28  1  0
 11 29  1  0
 12 30  1  0
 12 31  1  0
M  ISO  8  20  14  21  14  22  13  23  13  24  13  25  13  26  13  27  13
M  ISO  4  28  13  29  13  30  13  31  13
M  END
>  <minimizedAffinity>  (1) 
-4.36171722

>  <minimizedRMSD>  (1) 
0.804344893

$$$$
