
     RDKit          3D

 35 37  0  0  1  0  0  0  0  0999 V2000
   44.5280   35.2150   42.8690 C   0  0  1  0  0  0  0  0  0  0  0  0
   45.5670   34.2930   43.3620 C   0  0  0  0  0  0  0  0  0  0  0  0
   46.6410   33.9400   42.5100 C   0  0  0  0  0  0  0  0  0  0  0  0
   47.6400   33.0590   42.9700 C   0  0  0  0  0  0  0  0  0  0  0  0
   47.5000   32.5940   44.2420 N   0  0  0  0  0  0  0  0  0  0  0  0
   46.4840   32.9400   45.0220 C   0  0  0  0  0  0  0  0  0  0  0  0
   45.5300   33.7760   44.5910 N   0  0  0  0  0  0  0  0  0  0  0  0
   46.3610   32.4230   46.3910 C   0  0  0  0  0  0  0  0  0  0  0  0
   47.2620   31.4360   46.8190 C   0  0  0  0  0  0  0  0  0  0  0  0
   46.6850   31.1390   48.5810 S   0  0  0  0  0  0  0  0  0  0  0  0
   45.3210   32.4370   48.3690 C   0  0  0  0  0  0  0  0  0  0  0  0
   45.4900   32.7660   47.3210 N   0  0  0  0  0  0  0  0  0  0  0  0
   44.9140   36.6450   43.1960 C   0  0  0  0  0  0  0  0  0  0  0  0
   44.3390   35.0920   41.3710 C   0  0  0  0  0  0  0  0  0  0  0  0
   42.9700   35.2170   40.9000 C   0  0  0  0  0  0  0  0  0  0  0  0
   41.9280   35.3860   41.8050 C   0  0  0  0  0  0  0  0  0  0  0  0
   40.6570   35.4960   41.2470 C   0  0  0  0  0  0  0  0  0  0  0  0
   40.3550   35.4540   39.9020 C   0  0  0  0  0  0  0  0  0  0  0  0
   41.4410   35.2860   39.0680 C   0  0  0  0  0  0  0  0  0  0  0  0
   42.7330   35.1680   39.5400 C   0  0  0  0  0  0  0  0  0  0  0  0
   43.5835   34.9479   43.3656 H   0  0  0  0  0  0  0  0  0  0  0  0
   46.6956   34.3523   41.4917 H   0  0  0  0  0  0  0  0  0  0  0  0
   48.4880   32.7627   42.3351 H   0  0  0  0  0  0  0  0  0  0  0  0
   48.0877   30.9618   46.2681 H   0  0  0  0  0  0  0  0  0  0  0  0
   44.5633   32.7750   49.0912 H   0  0  0  0  0  0  0  0  0  0  0  0
   44.9490   36.7748   44.2878 H   0  0  0  0  0  0  0  0  0  0  0  0
   45.9036   36.8645   42.7687 H   0  0  0  0  0  0  0  0  0  0  0  0
   44.1693   37.3327   42.7687 H   0  0  0  0  0  0  0  0  0  0  0  0
   44.9365   35.8795   40.8884 H   0  0  0  0  0  0  0  0  0  0  0  0
   44.6558   34.0715   41.1098 H   0  0  0  0  0  0  0  0  0  0  0  0
   42.0967   35.4299   42.8911 H   0  0  0  0  0  0  0  0  0  0  0  0
   39.8160   35.6287   41.9434 H   0  0  0  0  0  0  0  0  0  0  0  0
   39.3265   35.5473   39.5231 H   0  0  0  0  0  0  0  0  0  0  0  0
   41.2705   35.2443   37.9821 H   0  0  0  0  0  0  0  0  0  0  0  0
   43.5688   35.0357   38.8372 H   0  0  0  0  0  0  0  0  0  0  0  0
  1 13  1  0
  1  2  1  0
  2  7  2  0
  3  4  2  0
  3  2  1  0
  4  5  1  0
  5  6  2  0
  6  8  1  0
  7  6  1  0
  8  9  2  0
  8 12  1  0
  9 10  1  0
 11 10  1  0
 12 11  2  0
 14  1  1  0
 15 14  1  0
 15 16  2  0
 17 16  1  0
 18 17  2  0
 19 20  2  0
 19 18  1  0
 20 15  1  0
  1 21  1  1
  3 22  1  0
  4 23  1  0
  9 24  1  0
 11 25  1  0
 13 26  1  0
 13 27  1  0
 13 28  1  0
 14 29  1  0
 14 30  1  0
 16 31  1  0
 17 32  1  0
 18 33  1  0
 19 34  1  0
 20 35  1  0
M  ISO  8  21   8  22  14  23  14  24  14  25  14  26   8  27   8  28   8
M  ISO  7  29   8  30   8  31  14  32  14  33  14  34  14  35  14
M  END
>  <minimizedAffinity>  (1) 
-5.45146561

>  <minimizedRMSD>  (1) 
1.30094695

$$$$
