
     RDKit          3D

 36 38  0  0  1  0  0  0  0  0999 V2000
   45.8780   34.4500   42.3450 C   0  0  0  0  0  0  0  0  0  0  0  0
   46.7330   34.2610   43.4670 C   0  0  0  0  0  0  0  0  0  0  0  0
   48.0770   33.8630   43.2620 C   0  0  0  0  0  0  0  0  0  0  0  0
   48.4660   33.6860   41.9680 N   0  0  0  0  0  0  0  0  0  0  0  0
   47.6340   33.8730   40.9410 C   0  0  0  0  0  0  0  0  0  0  0  0
   46.3410   34.2530   41.1060 N   0  0  0  0  0  0  0  0  0  0  0  0
   48.0870   33.6720   39.5550 C   0  0  0  0  0  0  0  0  0  0  0  0
   48.5630   32.4060   39.1800 C   0  0  0  0  0  0  0  0  0  0  0  0
   48.9900   32.6990   37.3770 S   0  0  0  0  0  0  0  0  0  0  0  0
   48.4290   34.4910   37.5050 C   0  0  0  0  0  0  0  0  0  0  0  0
   48.1070   34.5540   38.5750 N   0  0  0  0  0  0  0  0  0  0  0  0
   44.4930   34.8630   42.6010 C   0  0  1  0  0  0  0  0  0  0  0  0
   44.4250   35.7990   43.7800 C   0  0  0  0  0  0  0  0  0  0  0  0
   43.8530   35.5240   41.4140 C   0  0  0  0  0  0  0  0  0  0  0  0
   42.6740   34.9980   40.9000 N   0  0  0  0  0  0  0  0  0  0  0  0
   42.6360   35.0080   39.4950 C   0  0  0  0  0  0  0  0  0  0  0  0
   41.3800   35.3270   38.7980 C   0  0  0  0  0  0  0  0  0  0  0  0
   40.2880   35.5940   39.5930 O   0  0  0  0  0  0  0  0  0  0  0  0
   40.6090   36.2020   40.7940 C   0  0  0  0  0  0  0  0  0  0  0  0
   41.4530   35.1910   41.5730 C   0  0  0  0  0  0  0  0  0  0  0  0
   46.3528   34.4229   44.4864 H   0  0  0  0  0  0  0  0  0  0  0  0
   48.7694   33.7053   44.1021 H   0  0  0  0  0  0  0  0  0  0  0  0
   48.6596   31.4897   39.7809 H   0  0  0  0  0  0  0  0  0  0  0  0
   48.4200   35.2722   36.7306 H   0  0  0  0  0  0  0  0  0  0  0  0
   43.9342   33.9404   42.8168 H   0  0  0  0  0  0  0  0  0  0  0  0
   44.4672   35.2175   44.7128 H   0  0  0  0  0  0  0  0  0  0  0  0
   45.2748   36.4965   43.7439 H   0  0  0  0  0  0  0  0  0  0  0  0
   43.4833   36.3663   43.7439 H   0  0  0  0  0  0  0  0  0  0  0  0
   43.6427   36.5651   41.7003 H   0  0  0  0  0  0  0  0  0  0  0  0
   44.5824   35.3721   40.6047 H   0  0  0  0  0  0  0  0  0  0  0  0
   43.5435   34.7778   38.9176 H   0  0  0  0  0  0  0  0  0  0  0  0
   41.3168   35.3509   37.7001 H   0  0  0  0  0  0  0  0  0  0  0  0
   41.1855   37.1213   40.6137 H   0  0  0  0  0  0  0  0  0  0  0  0
   39.7054   36.4851   41.3537 H   0  0  0  0  0  0  0  0  0  0  0  0
   40.9138   34.2346   41.6403 H   0  0  0  0  0  0  0  0  0  0  0  0
   41.6440   35.5700   42.5878 H   0  0  0  0  0  0  0  0  0  0  0  0
  1 12  1  0
  1  2  2  0
  3  2  1  0
  4  3  2  0
  5  6  2  0
  5  4  1  0
  6  1  1  0
  7  5  1  0
  8  7  2  0
  9 10  1  0
  9  8  1  0
 10 11  2  0
 11  7  1  0
 12 13  1  0
 14 12  1  0
 15 14  1  0
 15 20  1  0
 16 15  1  0
 17 16  2  0
 17 18  1  0
 18 19  1  0
 19 20  1  0
  2 21  1  0
  3 22  1  0
  8 23  1  0
 10 24  1  0
 12 25  1  1
 13 26  1  0
 13 27  1  0
 13 28  1  0
 14 29  1  0
 14 30  1  0
 16 31  1  0
 17 32  1  0
 19 33  1  0
 19 34  1  0
 20 35  1  0
 20 36  1  0
M  ISO  8  21  14  22  14  23  14  24  14  25   8  26   8  27   8  28   8
M  ISO  8  29   8  30   8  31  13  32  13  33  13  34  13  35  13  36  13
M  END
>  <minimizedAffinity>  (1) 
-5.07801151

>  <minimizedRMSD>  (1) 
5.73137331

$$$$
