
     RDKit          3D

 32 33  0  0  1  0  0  0  0  0999 V2000
   44.4700   35.6370   43.6650 C   0  0  1  0  0  0  0  0  0  0  0  0
   45.4940   34.6190   44.0050 C   0  0  0  0  0  0  0  0  0  0  0  0
   46.4980   34.2970   43.0570 C   0  0  0  0  0  0  0  0  0  0  0  0
   47.4680   33.3300   43.3670 C   0  0  0  0  0  0  0  0  0  0  0  0
   47.3730   32.7460   44.6010 N   0  0  0  0  0  0  0  0  0  0  0  0
   46.4170   33.0650   45.4790 C   0  0  0  0  0  0  0  0  0  0  0  0
   45.4750   34.0020   45.1860 N   0  0  0  0  0  0  0  0  0  0  0  0
   46.3420   32.4280   46.7960 C   0  0  0  0  0  0  0  0  0  0  0  0
   47.3820   31.5350   47.1590 C   0  0  0  0  0  0  0  0  0  0  0  0
   46.8180   31.0360   48.8800 S   0  0  0  0  0  0  0  0  0  0  0  0
   45.3060   32.1350   48.7310 C   0  0  0  0  0  0  0  0  0  0  0  0
   45.4130   32.5820   47.7220 N   0  0  0  0  0  0  0  0  0  0  0  0
   45.1640   36.9510   43.3480 C   0  0  0  0  0  0  0  0  0  0  0  0
   43.6780   35.2250   42.4470 C   0  0  0  0  0  0  0  0  0  0  0  0
   42.3010   35.6800   42.5180 N   0  0  0  0  0  0  0  0  0  0  0  0
   41.3800   35.0700   41.5880 C   0  0  0  0  0  0  0  0  0  0  0  0
   41.5690   33.7670   41.5210 N   0  0  0  0  0  0  0  0  0  0  0  0
   40.3770   35.7720   40.8320 N   0  0  0  0  0  0  0  0  0  0  0  0
   41.0410   33.1250   40.9320 H   0  0  0  0  0  0  0  0  0  0  0  0
   43.7900   35.7400   44.5235 H   0  0  0  0  0  0  0  0  0  0  0  0
   46.5171   34.8036   42.0808 H   0  0  0  0  0  0  0  0  0  0  0  0
   48.2616   33.0566   42.6561 H   0  0  0  0  0  0  0  0  0  0  0  0
   48.2707   31.2219   46.5914 H   0  0  0  0  0  0  0  0  0  0  0  0
   44.5053   32.2972   49.4676 H   0  0  0  0  0  0  0  0  0  0  0  0
   45.4325   37.4594   44.2858 H   0  0  0  0  0  0  0  0  0  0  0  0
   46.0751   36.7530   42.7644 H   0  0  0  0  0  0  0  0  0  0  0  0
   44.4868   37.5919   42.7644 H   0  0  0  0  0  0  0  0  0  0  0  0
   43.6866   34.1276   42.3715 H   0  0  0  0  0  0  0  0  0  0  0  0
   44.1448   35.6865   41.5643 H   0  0  0  0  0  0  0  0  0  0  0  0
   41.9985   36.3968   43.1930 H   0  0  0  0  0  0  0  0  0  0  0  0
   39.7606   35.2546   40.1891 H   0  0  0  0  0  0  0  0  0  0  0  0
   40.2754   36.7919   40.9337 H   0  0  0  0  0  0  0  0  0  0  0  0
  1  2  1  0
  2  7  2  0
  3  4  2  0
  3  2  1  0
  4  5  1  0
  5  6  2  0
  6  8  1  0
  7  6  1  0
  8  9  2  0
  8 12  1  0
  9 10  1  0
 11 10  1  0
 12 11  2  0
 13  1  1  0
 14 15  1  0
 14  1  1  0
 16 15  1  0
 17 16  2  0
 18 16  1  0
 19 17  1  0
  1 20  1  1
  3 21  1  0
  4 22  1  0
  9 23  1  0
 11 24  1  0
 13 25  1  0
 13 26  1  0
 13 27  1  0
 14 28  1  0
 14 29  1  0
 15 30  1  0
 18 31  1  0
 18 32  1  0
M  ISO  8  20   8  21  14  22  14  23  14  24  14  25   8  26   8  27   8
M  ISO  2  28   8  29   8
M  END
>  <minimizedAffinity>  (1) 
-5.25298786

>  <minimizedRMSD>  (1) 
1.89796293

$$$$
