
     RDKit          3D

 33 35  0  0  1  0  0  0  0  0999 V2000
   44.4420   35.5820   43.3830 C   0  0  1  0  0  0  0  0  0  0  0  0
   45.4840   34.5960   43.7610 C   0  0  0  0  0  0  0  0  0  0  0  0
   46.5150   34.2950   42.8510 C   0  0  0  0  0  0  0  0  0  0  0  0
   47.5030   33.3650   43.2170 C   0  0  0  0  0  0  0  0  0  0  0  0
   47.4000   32.8020   44.4540 N   0  0  0  0  0  0  0  0  0  0  0  0
   46.4160   33.1050   45.2930 C   0  0  0  0  0  0  0  0  0  0  0  0
   45.4470   33.9960   44.9700 N   0  0  0  0  0  0  0  0  0  0  0  0
   46.3220   32.4930   46.6230 C   0  0  0  0  0  0  0  0  0  0  0  0
   47.3180   31.5880   47.0110 C   0  0  0  0  0  0  0  0  0  0  0  0
   46.7500   31.1100   48.7350 S   0  0  0  0  0  0  0  0  0  0  0  0
   45.2610   32.2510   48.5730 C   0  0  0  0  0  0  0  0  0  0  0  0
   45.4010   32.6750   47.5470 N   0  0  0  0  0  0  0  0  0  0  0  0
   44.8990   36.9730   43.7860 C   0  0  0  0  0  0  0  0  0  0  0  0
   44.1480   35.5580   41.9140 C   0  0  0  0  0  0  0  0  0  0  0  0
   42.7960   35.0190   41.6560 C   0  0  0  0  0  0  0  0  0  0  0  0
   42.8330   33.6820   41.2540 C   0  0  0  0  0  0  0  0  0  0  0  0
   41.6810   32.9830   40.9610 C   0  0  0  0  0  0  0  0  0  0  0  0
   40.4820   33.5820   41.0580 N   0  0  0  0  0  0  0  0  0  0  0  0
   40.4520   34.8740   41.4470 C   0  0  0  0  0  0  0  0  0  0  0  0
   41.5630   35.5510   41.7300 N   0  0  0  0  0  0  0  0  0  0  0  0
   43.5157   35.3119   43.9112 H   0  0  0  0  0  0  0  0  0  0  0  0
   46.5469   34.7819   41.8652 H   0  0  0  0  0  0  0  0  0  0  0  0
   48.3245   33.1026   42.5342 H   0  0  0  0  0  0  0  0  0  0  0  0
   48.2017   31.2467   46.4519 H   0  0  0  0  0  0  0  0  0  0  0  0
   44.4597   32.4496   49.2999 H   0  0  0  0  0  0  0  0  0  0  0  0
   44.9234   37.0474   44.8832 H   0  0  0  0  0  0  0  0  0  0  0  0
   45.9056   37.1593   43.3834 H   0  0  0  0  0  0  0  0  0  0  0  0
   44.1990   37.7199   43.3834 H   0  0  0  0  0  0  0  0  0  0  0  0
   44.2092   36.5823   41.5176 H   0  0  0  0  0  0  0  0  0  0  0  0
   44.8856   34.9098   41.4182 H   0  0  0  0  0  0  0  0  0  0  0  0
   43.8050   33.1741   41.1690 H   0  0  0  0  0  0  0  0  0  0  0  0
   41.7438   31.9308   40.6466 H   0  0  0  0  0  0  0  0  0  0  0  0
   39.4806   35.3829   41.5328 H   0  0  0  0  0  0  0  0  0  0  0  0
  1  2  1  0
  1 13  1  0
  2  7  2  0
  3  4  2  0
  3  2  1  0
  4  5  1  0
  5  6  2  0
  6  8  1  0
  7  6  1  0
  8  9  2  0
  8 12  1  0
  9 10  1  0
 11 10  1  0
 12 11  2  0
 14  1  1  0
 15 20  1  0
 15 14  1  0
 16 15  2  0
 17 18  2  0
 17 16  1  0
 18 19  1  0
 19 20  2  0
  1 21  1  1
  3 22  1  0
  4 23  1  0
  9 24  1  0
 11 25  1  0
 13 26  1  0
 13 27  1  0
 13 28  1  0
 14 29  1  0
 14 30  1  0
 16 31  1  0
 17 32  1  0
 19 33  1  0
M  ISO  8  21   8  22  14  23  14  24  14  25  14  26   8  27   8  28   8
M  ISO  5  29   8  30   8  31  14  32  14  33  14
M  END
>  <minimizedAffinity>  (1) 
-5.16423368

>  <minimizedRMSD>  (1) 
1.89160335

$$$$
