
     RDKit          3D

 32 34  0  0  1  0  0  0  0  0999 V2000
   45.4830   34.6100   43.7700 C   0  0  0  0  0  0  0  0  0  0  0  0
   46.5050   34.2980   42.8490 C   0  0  0  0  0  0  0  0  0  0  0  0
   47.4920   33.3510   43.2130 C   0  0  0  0  0  0  0  0  0  0  0  0
   47.3870   32.7930   44.4530 N   0  0  0  0  0  0  0  0  0  0  0  0
   46.4080   33.1150   45.2900 C   0  0  0  0  0  0  0  0  0  0  0  0
   45.4580   34.0120   44.9710 N   0  0  0  0  0  0  0  0  0  0  0  0
   46.3060   32.4970   46.6330 C   0  0  0  0  0  0  0  0  0  0  0  0
   47.3170   31.5890   47.0080 C   0  0  0  0  0  0  0  0  0  0  0  0
   46.7330   31.1060   48.7270 S   0  0  0  0  0  0  0  0  0  0  0  0
   45.2420   32.2450   48.5590 C   0  0  0  0  0  0  0  0  0  0  0  0
   45.3730   32.6780   47.5490 N   0  0  0  0  0  0  0  0  0  0  0  0
   44.4540   35.5980   43.3920 C   0  0  1  0  0  0  0  0  0  0  0  0
   44.8980   36.9870   43.7630 C   0  0  0  0  0  0  0  0  0  0  0  0
   44.1450   35.5570   41.9050 C   0  0  0  0  0  0  0  0  0  0  0  0
   42.8510   34.9430   41.6610 N   0  0  0  0  0  0  0  0  0  0  0  0
   42.7250   33.6510   41.3020 C   0  0  0  0  0  0  0  0  0  0  0  0
   41.3920   33.3330   41.1370 C   0  0  0  0  0  0  0  0  0  0  0  0
   40.7080   34.4620   41.4050 N   0  0  0  0  0  0  0  0  0  0  0  0
   41.5970   35.4200   41.7180 C   0  0  0  0  0  0  0  0  0  0  0  0
   46.5344   34.7836   41.8624 H   0  0  0  0  0  0  0  0  0  0  0  0
   48.3070   33.0774   42.5267 H   0  0  0  0  0  0  0  0  0  0  0  0
   48.2033   31.2553   46.4485 H   0  0  0  0  0  0  0  0  0  0  0  0
   44.4385   32.4334   49.2862 H   0  0  0  0  0  0  0  0  0  0  0  0
   43.5394   35.3353   43.9438 H   0  0  0  0  0  0  0  0  0  0  0  0
   44.9283   37.0819   44.8585 H   0  0  0  0  0  0  0  0  0  0  0  0
   45.9006   37.1738   43.3509 H   0  0  0  0  0  0  0  0  0  0  0  0
   44.1896   37.7207   43.3509 H   0  0  0  0  0  0  0  0  0  0  0  0
   44.1365   36.5838   41.5105 H   0  0  0  0  0  0  0  0  0  0  0  0
   44.9185   34.9584   41.4017 H   0  0  0  0  0  0  0  0  0  0  0  0
   43.5621   32.9514   41.1609 H   0  0  0  0  0  0  0  0  0  0  0  0
   40.9741   32.3579   40.8463 H   0  0  0  0  0  0  0  0  0  0  0  0
   41.3333   36.4541   41.9846 H   0  0  0  0  0  0  0  0  0  0  0  0
  1  6  2  0
  2  3  2  0
  2  1  1  0
  3  4  1  0
  4  5  2  0
  5  7  1  0
  6  5  1  0
  7  8  2  0
  7 11  1  0
  8  9  1  0
 10  9  1  0
 11 10  2  0
 12 13  1  0
 12  1  1  0
 14 12  1  0
 15 19  1  0
 15 14  1  0
 16 15  1  0
 17 16  2  0
 17 18  1  0
 18 19  2  0
  2 20  1  0
  3 21  1  0
  8 22  1  0
 10 23  1  0
 12 24  1  1
 13 25  1  0
 13 26  1  0
 13 27  1  0
 14 28  1  0
 14 29  1  0
 16 30  1  0
 17 31  1  0
 19 32  1  0
M  ISO  8  20  14  21  14  22  14  23  14  24   8  25   8  26   8  27   8
M  ISO  5  28   8  29   8  30  14  31  14  32  14
M  END
>  <minimizedAffinity>  (1) 
-4.81191969

>  <minimizedRMSD>  (1) 
1.57277322

$$$$
