
     RDKit          3D

 37 39  0  0  1  0  0  0  0  0999 V2000
   45.5120   34.3980   43.5550 C   0  0  0  0  0  0  0  0  0  0  0  0
   46.5920   34.0990   42.7100 C   0  0  0  0  0  0  0  0  0  0  0  0
   47.6040   33.2430   43.1660 C   0  0  0  0  0  0  0  0  0  0  0  0
   47.4760   32.7430   44.4240 N   0  0  0  0  0  0  0  0  0  0  0  0
   46.4450   33.0390   45.2080 C   0  0  0  0  0  0  0  0  0  0  0  0
   45.4710   33.8560   44.7850 N   0  0  0  0  0  0  0  0  0  0  0  0
   46.3240   32.4820   46.5660 C   0  0  0  0  0  0  0  0  0  0  0  0
   47.2990   31.5550   46.9770 C   0  0  0  0  0  0  0  0  0  0  0  0
   46.7080   31.1570   48.7060 S   0  0  0  0  0  0  0  0  0  0  0  0
   45.2470   32.3520   48.4970 C   0  0  0  0  0  0  0  0  0  0  0  0
   45.3940   32.7410   47.4710 N   0  0  0  0  0  0  0  0  0  0  0  0
   44.4210   35.3010   43.0890 C   0  0  1  0  0  0  0  0  0  0  0  0
   44.8950   36.7470   43.2260 C   0  0  0  0  0  0  0  0  0  0  0  0
   44.0900   35.0400   41.6510 C   0  0  0  0  0  0  0  0  0  0  0  0
   42.8700   35.4600   41.1430 N   0  0  0  0  0  0  0  0  0  0  0  0
   42.6030   35.1830   39.7610 C   0  0  0  0  0  0  0  0  0  0  0  0
   41.1020   35.3570   39.6010 C   0  0  0  0  0  0  0  0  0  0  0  0
   40.6970   36.0610   40.9070 C   0  0  0  0  0  0  0  0  0  0  0  0
   41.6720   35.3460   41.8730 C   0  0  0  0  0  0  0  0  0  0  0  0
   46.6438   34.5320   41.7001 H   0  0  0  0  0  0  0  0  0  0  0  0
   48.4659   32.9864   42.5325 H   0  0  0  0  0  0  0  0  0  0  0  0
   48.1719   31.1691   46.4300 H   0  0  0  0  0  0  0  0  0  0  0  0
   44.4520   32.5969   49.2167 H   0  0  0  0  0  0  0  0  0  0  0  0
   43.5234   35.1189   43.6983 H   0  0  0  0  0  0  0  0  0  0  0  0
   44.9798   37.0057   44.2918 H   0  0  0  0  0  0  0  0  0  0  0  0
   45.8767   36.8584   42.7424 H   0  0  0  0  0  0  0  0  0  0  0  0
   44.1698   37.4180   42.7424 H   0  0  0  0  0  0  0  0  0  0  0  0
   44.8716   35.5272   41.0495 H   0  0  0  0  0  0  0  0  0  0  0  0
   44.0285   33.9431   41.5956 H   0  0  0  0  0  0  0  0  0  0  0  0
   43.1441   35.8898   39.1147 H   0  0  0  0  0  0  0  0  0  0  0  0
   42.9322   34.1735   39.4736 H   0  0  0  0  0  0  0  0  0  0  0  0
   40.8669   35.9806   38.7258 H   0  0  0  0  0  0  0  0  0  0  0  0
   40.5698   34.4087   39.4354 H   0  0  0  0  0  0  0  0  0  0  0  0
   40.8774   37.1453   40.8652 H   0  0  0  0  0  0  0  0  0  0  0  0
   39.6315   35.9945   41.1720 H   0  0  0  0  0  0  0  0  0  0  0  0
   41.3902   34.2948   42.0328 H   0  0  0  0  0  0  0  0  0  0  0  0
   41.7077   35.7662   42.8889 H   0  0  0  0  0  0  0  0  0  0  0  0
  1  6  2  0
  2  3  2  0
  2  1  1  0
  3  4  1  0
  4  5  2  0
  5  7  1  0
  6  5  1  0
  7  8  2  0
  7 11  1  0
  8  9  1  0
 10  9  1  0
 11 10  2  0
 12 13  1  0
 12  1  1  0
 14 12  1  0
 15 14  1  0
 15 19  1  0
 16 15  1  0
 17 16  1  0
 17 18  1  0
 18 19  1  0
  2 20  1  0
  3 21  1  0
  8 22  1  0
 10 23  1  0
 12 24  1  1
 13 25  1  0
 13 26  1  0
 13 27  1  0
 14 28  1  0
 14 29  1  0
 16 30  1  0
 16 31  1  0
 17 32  1  0
 17 33  1  0
 18 34  1  0
 18 35  1  0
 19 36  1  0
 19 37  1  0
M  ISO  8  20  14  21  14  22  14  23  14  24   8  25   8  26   8  27   8
M  ISO  8  28   8  29   8  30  13  31  13  32  13  33  13  34  13  35  13
M  ISO  2  36  13  37  13
M  END
>  <minimizedAffinity>  (1) 
-5.02274561

>  <minimizedRMSD>  (1) 
0.759302139

$$$$
