
     RDKit          3D

 32 34  0  0  1  0  0  0  0  0999 V2000
   44.4660   35.6210   43.3680 C   0  0  1  0  0  0  0  0  0  0  0  0
   45.4850   34.6310   43.7590 C   0  0  0  0  0  0  0  0  0  0  0  0
   46.5120   34.3110   42.8300 C   0  0  0  0  0  0  0  0  0  0  0  0
   47.4960   33.3640   43.1920 C   0  0  0  0  0  0  0  0  0  0  0  0
   47.3920   32.8090   44.4320 N   0  0  0  0  0  0  0  0  0  0  0  0
   46.4190   33.1300   45.2770 C   0  0  0  0  0  0  0  0  0  0  0  0
   45.4580   34.0370   44.9620 N   0  0  0  0  0  0  0  0  0  0  0  0
   46.3190   32.5150   46.6090 C   0  0  0  0  0  0  0  0  0  0  0  0
   47.3080   31.6020   46.9910 C   0  0  0  0  0  0  0  0  0  0  0  0
   46.7300   31.1170   48.7080 S   0  0  0  0  0  0  0  0  0  0  0  0
   45.2490   32.2720   48.5430 C   0  0  0  0  0  0  0  0  0  0  0  0
   45.3960   32.7000   47.5270 N   0  0  0  0  0  0  0  0  0  0  0  0
   44.9240   37.0150   43.7310 C   0  0  0  0  0  0  0  0  0  0  0  0
   44.1450   35.5670   41.8990 C   0  0  0  0  0  0  0  0  0  0  0  0
   42.8330   34.8730   41.7080 C   0  0  0  0  0  0  0  0  0  0  0  0
   41.5760   35.4380   41.5940 C   0  0  0  0  0  0  0  0  0  0  0  0
   40.7000   34.3820   41.4340 C   0  0  0  0  0  0  0  0  0  0  0  0
   41.4060   33.2260   41.4510 N   0  0  0  0  0  0  0  0  0  0  0  0
   42.6920   33.5280   41.6170 N   0  0  0  0  0  0  0  0  0  0  0  0
   43.5489   35.3692   43.9207 H   0  0  0  0  0  0  0  0  0  0  0  0
   46.5403   34.7943   41.8422 H   0  0  0  0  0  0  0  0  0  0  0  0
   48.3088   33.0875   42.5043 H   0  0  0  0  0  0  0  0  0  0  0  0
   48.1912   31.2592   46.4320 H   0  0  0  0  0  0  0  0  0  0  0  0
   44.4450   32.4716   49.2667 H   0  0  0  0  0  0  0  0  0  0  0  0
   44.9574   37.1165   44.8258 H   0  0  0  0  0  0  0  0  0  0  0  0
   45.9272   37.1911   43.3157 H   0  0  0  0  0  0  0  0  0  0  0  0
   44.2207   37.7518   43.3157 H   0  0  0  0  0  0  0  0  0  0  0  0
   44.0823   36.5894   41.4981 H   0  0  0  0  0  0  0  0  0  0  0  0
   44.9354   35.0166   41.3677 H   0  0  0  0  0  0  0  0  0  0  0  0
   41.3252   36.5086   41.6245 H   0  0  0  0  0  0  0  0  0  0  0  0
   39.6099   34.4659   41.3129 H   0  0  0  0  0  0  0  0  0  0  0  0
   41.0156   32.2779   41.3526 H   0  0  0  0  0  0  0  0  0  0  0  0
  1 13  1  0
  1  2  1  0
  2  7  2  0
  3  4  2  0
  3  2  1  0
  4  5  1  0
  5  6  2  0
  6  8  1  0
  7  6  1  0
  8  9  2  0
  8 12  1  0
  9 10  1  0
 11 10  1  0
 12 11  2  0
 14  1  1  0
 15 14  1  0
 16 15  1  0
 17 18  1  0
 17 16  2  0
 18 19  1  0
 19 15  2  0
  1 20  1  1
  3 21  1  0
  4 22  1  0
  9 23  1  0
 11 24  1  0
 13 25  1  0
 13 26  1  0
 13 27  1  0
 14 28  1  0
 14 29  1  0
 16 30  1  0
 17 31  1  0
 18 32  1  0
M  ISO  8  20   8  21  14  22  14  23  14  24  14  25   8  26   8  27   8
M  ISO  5  28   8  29   8  30  14  31  14  32   9
M  END
>  <minimizedAffinity>  (1) 
-4.98437548

>  <minimizedRMSD>  (1) 
1.70170975

$$$$
