
     RDKit          3D

 39 41  0  0  1  0  0  0  0  0999 V2000
   44.4420   35.2700   43.0560 C   0  0  1  0  0  0  0  0  0  0  0  0
   45.5220   34.3780   43.5540 C   0  0  0  0  0  0  0  0  0  0  0  0
   46.6160   34.0890   42.7230 C   0  0  0  0  0  0  0  0  0  0  0  0
   47.6350   33.2400   43.1890 C   0  0  0  0  0  0  0  0  0  0  0  0
   47.4950   32.7390   44.4430 N   0  0  0  0  0  0  0  0  0  0  0  0
   46.4510   33.0270   45.2100 C   0  0  0  0  0  0  0  0  0  0  0  0
   45.4740   33.8340   44.7790 N   0  0  0  0  0  0  0  0  0  0  0  0
   46.3180   32.4730   46.5710 C   0  0  0  0  0  0  0  0  0  0  0  0
   47.2900   31.5640   47.0160 C   0  0  0  0  0  0  0  0  0  0  0  0
   46.6720   31.1810   48.7430 S   0  0  0  0  0  0  0  0  0  0  0  0
   45.2100   32.3440   48.5020 C   0  0  0  0  0  0  0  0  0  0  0  0
   45.3820   32.7170   47.4650 N   0  0  0  0  0  0  0  0  0  0  0  0
   44.9220   36.7040   43.0660 C   0  0  0  0  0  0  0  0  0  0  0  0
   44.0090   34.8850   41.6770 C   0  0  0  0  0  0  0  0  0  0  0  0
   42.8720   35.5680   41.1580 N   0  0  0  0  0  0  0  0  0  0  0  0
   42.6720   35.0080   39.8220 C   0  0  0  0  0  0  0  0  0  0  0  0
   41.4100   35.5150   39.1820 C   0  0  0  0  0  0  0  0  0  0  0  0
   40.3220   35.6330   40.1330 N   0  0  0  0  0  0  0  0  0  0  0  0
   40.5890   34.7040   41.1930 C   0  0  0  0  0  0  0  0  0  0  0  0
   41.7350   35.2800   42.0170 C   0  0  0  0  0  0  0  0  0  0  0  0
   43.5741   35.1655   43.7237 H   0  0  0  0  0  0  0  0  0  0  0  0
   46.6754   34.5238   41.7143 H   0  0  0  0  0  0  0  0  0  0  0  0
   48.5068   32.9927   42.5655 H   0  0  0  0  0  0  0  0  0  0  0  0
   48.1771   31.1793   46.4915 H   0  0  0  0  0  0  0  0  0  0  0  0
   44.3980   32.5910   49.2018 H   0  0  0  0  0  0  0  0  0  0  0  0
   45.0362   37.0452   44.1055 H   0  0  0  0  0  0  0  0  0  0  0  0
   45.8912   36.7699   42.5499 H   0  0  0  0  0  0  0  0  0  0  0  0
   44.1878   37.3400   42.5499 H   0  0  0  0  0  0  0  0  0  0  0  0
   44.8524   35.0732   40.9963 H   0  0  0  0  0  0  0  0  0  0  0  0
   43.7091   33.8291   41.7483 H   0  0  0  0  0  0  0  0  0  0  0  0
   43.5276   35.2856   39.1888 H   0  0  0  0  0  0  0  0  0  0  0  0
   42.5878   33.9157   39.9206 H   0  0  0  0  0  0  0  0  0  0  0  0
   41.6075   36.5051   38.7452 H   0  0  0  0  0  0  0  0  0  0  0  0
   41.1077   34.7903   38.4117 H   0  0  0  0  0  0  0  0  0  0  0  0
   40.2803   36.5924   40.5056 H   0  0  0  0  0  0  0  0  0  0  0  0
   39.6952   34.5832   41.8227 H   0  0  0  0  0  0  0  0  0  0  0  0
   40.8555   33.7160   40.7894 H   0  0  0  0  0  0  0  0  0  0  0  0
   42.0341   34.5506   42.7842 H   0  0  0  0  0  0  0  0  0  0  0  0
   41.4009   36.2118   42.4967 H   0  0  0  0  0  0  0  0  0  0  0  0
  1 13  1  0
  1  2  1  0
  2  7  2  0
  3  4  2  0
  3  2  1  0
  4  5  1  0
  5  6  2  0
  6  8  1  0
  7  6  1  0
  8  9  2  0
  8 12  1  0
  9 10  1  0
 11 10  1  0
 12 11  2  0
 14  1  1  0
 15 14  1  0
 15 20  1  0
 16 15  1  0
 17 16  1  0
 17 18  1  0
 18 19  1  0
 19 20  1  0
  1 21  1  1
  3 22  1  0
  4 23  1  0
  9 24  1  0
 11 25  1  0
 13 26  1  0
 13 27  1  0
 13 28  1  0
 14 29  1  0
 14 30  1  0
 16 31  1  0
 16 32  1  0
 17 33  1  0
 17 34  1  0
 18 35  1  0
 19 36  1  0
 19 37  1  0
 20 38  1  0
 20 39  1  0
M  ISO  8  21   8  22  14  23  14  24  14  25  14  26   8  27   8  28   8
M  ISO  8  29   8  30   8  31  13  32  13  33  13  34  13  35   5  36  13
M  ISO  3  37  13  38  13  39  13
M  END
>  <minimizedAffinity>  (1) 
-4.88923073

>  <minimizedRMSD>  (1) 
0.838992596

$$$$
