
     RDKit          3D

 26 27  0  0  1  0  0  0  0  0999 V2000
   45.5430   34.4880   43.8350 C   0  0  0  0  0  0  0  0  0  0  0  0
   46.5930   34.1530   42.9320 C   0  0  0  0  0  0  0  0  0  0  0  0
   47.5780   33.2270   43.3290 C   0  0  0  0  0  0  0  0  0  0  0  0
   47.4630   32.6990   44.5790 N   0  0  0  0  0  0  0  0  0  0  0  0
   46.4730   33.0280   45.3980 C   0  0  0  0  0  0  0  0  0  0  0  0
   45.5030   33.9150   45.0590 N   0  0  0  0  0  0  0  0  0  0  0  0
   46.3510   32.4200   46.7440 C   0  0  0  0  0  0  0  0  0  0  0  0
   47.3690   31.5450   47.1590 C   0  0  0  0  0  0  0  0  0  0  0  0
   46.7410   31.0540   48.8620 S   0  0  0  0  0  0  0  0  0  0  0  0
   45.2220   32.1550   48.6320 C   0  0  0  0  0  0  0  0  0  0  0  0
   45.3800   32.5840   47.6230 N   0  0  0  0  0  0  0  0  0  0  0  0
   44.5200   35.4500   43.4230 C   0  0  1  0  0  0  0  0  0  0  0  0
   44.8670   36.8280   43.9600 C   0  0  0  0  0  0  0  0  0  0  0  0
   44.3810   35.5150   41.9090 C   0  0  0  0  0  0  0  0  0  0  0  0
   42.6120   35.1540   41.5790 S   0  0  0  0  0  0  0  0  0  0  0  0
   46.6343   34.6132   41.9338 H   0  0  0  0  0  0  0  0  0  0  0  0
   48.4031   32.9432   42.6591 H   0  0  0  0  0  0  0  0  0  0  0  0
   48.2828   31.2328   46.6321 H   0  0  0  0  0  0  0  0  0  0  0  0
   44.3876   32.3271   49.3278 H   0  0  0  0  0  0  0  0  0  0  0  0
   43.5581   35.1135   43.8370 H   0  0  0  0  0  0  0  0  0  0  0  0
   44.8612   36.8051   45.0597 H   0  0  0  0  0  0  0  0  0  0  0  0
   45.8665   37.1190   43.6046 H   0  0  0  0  0  0  0  0  0  0  0  0
   44.1246   37.5577   43.6046 H   0  0  0  0  0  0  0  0  0  0  0  0
   44.6469   36.5161   41.5389 H   0  0  0  0  0  0  0  0  0  0  0  0
   45.0496   34.8040   41.4016 H   0  0  0  0  0  0  0  0  0  0  0  0
   41.9443   35.0177   42.7675 H   0  0  0  0  0  0  0  0  0  0  0  0
  1  6  2  0
  2  3  2  0
  2  1  1  0
  3  4  1  0
  4  5  2  0
  5  7  1  0
  6  5  1  0
  7  8  2  0
  7 11  1  0
  8  9  1  0
 10  9  1  0
 11 10  2  0
 12  1  1  0
 12 13  1  0
 14 12  1  0
 15 14  1  0
  2 16  1  0
  3 17  1  0
  8 18  1  0
 10 19  1  0
 12 20  1  1
 13 21  1  0
 13 22  1  0
 13 23  1  0
 14 24  1  0
 14 25  1  0
 15 26  1  0
M  ISO  8  16  14  17  14  18  14  19  14  20   8  21   8  22   8  23   8
M  ISO  3  24   8  25   8  26  11
M  END
>  <minimizedAffinity>  (1) 
-4.03098345

>  <minimizedRMSD>  (1) 
0.583212614

$$$$
