
     RDKit          3D

 30 31  0  0  0  0  0  0  0  0999 V2000
   45.7880   34.5790   41.4480 C   0  0  0  0  0  0  0  0  0  0  0  0
   47.0460   35.0520   41.8410 C   0  0  0  0  0  0  0  0  0  0  0  0
   48.1570   34.7260   41.0390 C   0  0  0  0  0  0  0  0  0  0  0  0
   47.9350   33.9620   39.9170 N   0  0  0  0  0  0  0  0  0  0  0  0
   46.7060   33.5390   39.5940 C   0  0  0  0  0  0  0  0  0  0  0  0
   45.6640   33.8480   40.3520 N   0  0  0  0  0  0  0  0  0  0  0  0
   46.5470   32.7510   38.4200 N   0  0  0  0  0  0  0  0  0  0  0  0
   46.3210   31.3210   38.4980 C   0  0  0  0  0  0  0  0  0  0  0  0
   46.9100   30.6990   37.2530 C   0  0  0  0  0  0  0  0  0  0  0  0
   46.3020   31.1690   36.0510 N   0  0  0  0  0  0  0  0  0  0  0  0
   45.7990   32.5030   36.1150 C   0  0  0  0  0  0  0  0  0  0  0  0
   46.6030   33.3290   37.0900 C   0  0  0  0  0  0  0  0  0  0  0  0
   44.6540   34.9250   42.2870 C   0  0  0  0  0  0  0  0  0  0  0  0
   43.7810   35.7350   41.8390 O   0  0  0  0  0  0  0  0  0  0  0  0
   44.5650   34.3480   43.5670 O   0  0  0  0  0  0  0  0  0  0  0  0
   45.1050   35.0470   44.6570 C   0  0  0  0  0  0  0  0  0  0  0  0
   44.2740   34.9930   45.7750 F   0  0  0  0  0  0  0  0  0  0  0  0
   46.3320   34.5340   44.9920 F   0  0  0  0  0  0  0  0  0  0  0  0
   45.2180   36.3770   44.2620 F   0  0  0  0  0  0  0  0  0  0  0  0
   47.1632   35.6606   42.7498 H   0  0  0  0  0  0  0  0  0  0  0  0
   49.1681   35.0708   41.3011 H   0  0  0  0  0  0  0  0  0  0  0  0
   46.8141   30.9111   39.3918 H   0  0  0  0  0  0  0  0  0  0  0  0
   45.2453   31.1022   38.5684 H   0  0  0  0  0  0  0  0  0  0  0  0
   47.9837   30.9356   37.2179 H   0  0  0  0  0  0  0  0  0  0  0  0
   46.7285   29.6156   37.3104 H   0  0  0  0  0  0  0  0  0  0  0  0
   45.5176   30.5417   35.8225 H   0  0  0  0  0  0  0  0  0  0  0  0
   45.8609   32.9608   35.1167 H   0  0  0  0  0  0  0  0  0  0  0  0
   44.7535   32.4713   36.4555 H   0  0  0  0  0  0  0  0  0  0  0  0
   47.6503   33.3645   36.7555 H   0  0  0  0  0  0  0  0  0  0  0  0
   46.1797   34.3436   37.1272 H   0  0  0  0  0  0  0  0  0  0  0  0
  1  2  2  0
  1 13  1  0
  3  2  1  0
  4  3  2  0
  5  4  1  0
  5  6  2  0
  6  1  1  0
  7  8  1  0
  7  5  1  0
  9  8  1  0
 10 11  1  0
 10  9  1  0
 11 12  1  0
 12  7  1  0
 13 15  1  0
 14 13  2  0
 15 16  1  0
 16 18  1  0
 16 17  1  0
 19 16  1  0
  2 20  1  0
  3 21  1  0
  8 22  1  0
  8 23  1  0
  9 24  1  0
  9 25  1  0
 10 26  1  0
 11 27  1  0
 11 28  1  0
 12 29  1  0
 12 30  1  0
M  ISO  8  20  14  21  14  22  13  23  13  24  13  25  13  26   5  27  13
M  ISO  3  28  13  29  13  30  13
M  END
>  <minimizedAffinity>  (1) 
-4.34682226

>  <minimizedRMSD>  (1) 
0.726832807

$$$$
