
     RDKit          3D

 27 28  0  0  1  0  0  0  0  0999 V2000
   45.5340   34.6360   43.9340 C   0  0  0  0  0  0  0  0  0  0  0  0
   46.5790   34.3480   43.0220 C   0  0  0  0  0  0  0  0  0  0  0  0
   47.5580   33.3970   43.3640 C   0  0  0  0  0  0  0  0  0  0  0  0
   47.4320   32.8020   44.5780 N   0  0  0  0  0  0  0  0  0  0  0  0
   46.4460   33.0870   45.4160 C   0  0  0  0  0  0  0  0  0  0  0  0
   45.4900   34.0000   45.1100 N   0  0  0  0  0  0  0  0  0  0  0  0
   46.3300   32.4420   46.7310 C   0  0  0  0  0  0  0  0  0  0  0  0
   47.3620   31.5520   47.1160 C   0  0  0  0  0  0  0  0  0  0  0  0
   46.7490   31.0490   48.8160 S   0  0  0  0  0  0  0  0  0  0  0  0
   45.2250   32.1450   48.6490 C   0  0  0  0  0  0  0  0  0  0  0  0
   45.3810   32.5830   47.6380 N   0  0  0  0  0  0  0  0  0  0  0  0
   44.5240   35.6350   43.5500 C   0  0  1  0  0  0  0  0  0  0  0  0
   45.1410   37.0180   43.4890 C   0  0  0  0  0  0  0  0  0  0  0  0
   43.8860   35.3290   42.2270 C   0  0  0  0  0  0  0  0  0  0  0  0
   43.0500   34.1690   42.2520 N   0  0  0  0  0  0  0  0  0  0  0  0
   46.6248   34.8648   42.0521 H   0  0  0  0  0  0  0  0  0  0  0  0
   48.3843   33.1480   42.6819 H   0  0  0  0  0  0  0  0  0  0  0  0
   48.2669   31.2431   46.5722 H   0  0  0  0  0  0  0  0  0  0  0  0
   44.4019   32.3080   49.3603 H   0  0  0  0  0  0  0  0  0  0  0  0
   43.7424   35.6003   44.3233 H   0  0  0  0  0  0  0  0  0  0  0  0
   45.3073   37.3907   44.5105 H   0  0  0  0  0  0  0  0  0  0  0  0
   46.1020   36.9676   42.9561 H   0  0  0  0  0  0  0  0  0  0  0  0
   44.4615   37.6995   42.9561 H   0  0  0  0  0  0  0  0  0  0  0  0
   44.6822   35.1685   41.4852 H   0  0  0  0  0  0  0  0  0  0  0  0
   43.2443   36.1851   41.9713 H   0  0  0  0  0  0  0  0  0  0  0  0
   42.8592   33.9043   43.2289 H   0  0  0  0  0  0  0  0  0  0  0  0
   42.1621   34.3753   41.7725 H   0  0  0  0  0  0  0  0  0  0  0  0
  1  6  2  0
  2  3  2  0
  2  1  1  0
  3  4  1  0
  4  5  2  0
  5  7  1  0
  6  5  1  0
  7  8  2  0
  7 11  1  0
  8  9  1  0
 10  9  1  0
 11 10  2  0
 12  1  1  0
 13 12  1  0
 14 15  1  0
 14 12  1  0
  2 16  1  0
  3 17  1  0
  8 18  1  0
 10 19  1  0
 12 20  1  1
 13 21  1  0
 13 22  1  0
 13 23  1  0
 14 24  1  0
 14 25  1  0
 15 26  1  0
 15 27  1  0
M  ISO  8  16  14  17  14  18  14  19  14  20   8  21   8  22   8  23   8
M  ISO  4  24   8  25   8  26   5  27   5
M  END
>  <minimizedAffinity>  (1) 
-4.29838276

>  <minimizedRMSD>  (1) 
0.0700515062

$$$$
