
     RDKit          3D

 26 27  0  0  1  0  0  0  0  0999 V2000
   45.5220   34.6130   43.9880 C   0  0  0  0  0  0  0  0  0  0  0  0
   46.5400   34.3050   43.0700 C   0  0  0  0  0  0  0  0  0  0  0  0
   47.5190   33.3530   43.3990 C   0  0  0  0  0  0  0  0  0  0  0  0
   47.4190   32.7690   44.6250 N   0  0  0  0  0  0  0  0  0  0  0  0
   46.4480   33.0780   45.4740 C   0  0  0  0  0  0  0  0  0  0  0  0
   45.5040   33.9850   45.1740 N   0  0  0  0  0  0  0  0  0  0  0  0
   46.3470   32.4350   46.8020 C   0  0  0  0  0  0  0  0  0  0  0  0
   47.3760   31.5590   47.1820 C   0  0  0  0  0  0  0  0  0  0  0  0
   46.7930   31.0220   48.8770 S   0  0  0  0  0  0  0  0  0  0  0  0
   45.2650   32.1060   48.7120 C   0  0  0  0  0  0  0  0  0  0  0  0
   45.4000   32.5610   47.7090 N   0  0  0  0  0  0  0  0  0  0  0  0
   44.5140   35.6100   43.6130 C   0  0  1  0  0  0  0  0  0  0  0  0
   45.1680   36.9360   43.2920 C   0  0  0  0  0  0  0  0  0  0  0  0
   43.6420   35.1620   42.4660 C   0  0  0  0  0  0  0  0  0  0  0  0
   43.7980   35.8800   41.3090 O   0  0  0  0  0  0  0  0  0  0  0  0
   46.5704   34.8097   42.0931 H   0  0  0  0  0  0  0  0  0  0  0  0
   48.3273   33.0919   42.7001 H   0  0  0  0  0  0  0  0  0  0  0  0
   48.2821   31.2666   46.6311 H   0  0  0  0  0  0  0  0  0  0  0  0
   44.4440   32.2522   49.4293 H   0  0  0  0  0  0  0  0  0  0  0  0
   43.8548   35.7321   44.4851 H   0  0  0  0  0  0  0  0  0  0  0  0
   45.4238   37.4547   44.2277 H   0  0  0  0  0  0  0  0  0  0  0  0
   46.0833   36.7614   42.7075 H   0  0  0  0  0  0  0  0  0  0  0  0
   44.4723   37.5560   42.7075 H   0  0  0  0  0  0  0  0  0  0  0  0
   43.8763   34.1093   42.2493 H   0  0  0  0  0  0  0  0  0  0  0  0
   42.6022   35.3186   42.7889 H   0  0  0  0  0  0  0  0  0  0  0  0
   44.0029   36.8228   41.5308 H   0  0  0  0  0  0  0  0  0  0  0  0
  1  6  2  0
  2  3  2  0
  2  1  1  0
  3  4  1  0
  4  5  2  0
  5  7  1  0
  6  5  1  0
  7  8  2  0
  7 11  1  0
  8  9  1  0
 10  9  1  0
 11 10  2  0
 12  1  1  0
 13 12  1  0
 14 12  1  0
 15 14  1  0
  2 16  1  0
  3 17  1  0
  8 18  1  0
 10 19  1  0
 12 20  1  1
 13 21  1  0
 13 22  1  0
 13 23  1  0
 14 24  1  0
 14 25  1  0
 15 26  1  0
M  ISO  8  16  14  17  14  18  14  19  14  20   8  21   8  22   8  23   8
M  ISO  3  24   8  25   8  26   3
M  END
>  <minimizedAffinity>  (1) 
-4.14450359

>  <minimizedRMSD>  (1) 
0.285027266

$$$$
