
     RDKit          3D

 37 39  0  0  1  0  0  0  0  0999 V2000
   44.4650   35.6300   43.6270 C   0  0  1  0  0  0  0  0  0  0  0  0
   45.4950   34.6410   43.9830 C   0  0  0  0  0  0  0  0  0  0  0  0
   46.5300   34.3590   43.0640 C   0  0  0  0  0  0  0  0  0  0  0  0
   47.5230   33.4140   43.3950 C   0  0  0  0  0  0  0  0  0  0  0  0
   47.4200   32.8160   44.6100 N   0  0  0  0  0  0  0  0  0  0  0  0
   46.4450   33.0920   45.4560 C   0  0  0  0  0  0  0  0  0  0  0  0
   45.4750   33.9980   45.1620 N   0  0  0  0  0  0  0  0  0  0  0  0
   46.3350   32.4490   46.7670 C   0  0  0  0  0  0  0  0  0  0  0  0
   47.3630   31.5800   47.1690 C   0  0  0  0  0  0  0  0  0  0  0  0
   46.7540   31.0530   48.8500 S   0  0  0  0  0  0  0  0  0  0  0  0
   45.2190   32.1150   48.6870 C   0  0  0  0  0  0  0  0  0  0  0  0
   45.3980   32.5510   47.6710 N   0  0  0  0  0  0  0  0  0  0  0  0
   45.0490   37.0370   43.7210 C   0  0  0  0  0  0  0  0  0  0  0  0
   43.9270   35.4380   42.2540 C   0  0  0  0  0  0  0  0  0  0  0  0
   42.4980   35.4320   42.1950 N   0  0  0  0  0  0  0  0  0  0  0  0
   41.6880   35.2650   41.0500 C   0  0  0  0  0  0  0  0  0  0  0  0
   40.2930   35.1810   41.1140 C   0  0  0  0  0  0  0  0  0  0  0  0
   39.5570   35.0180   39.9630 C   0  0  0  0  0  0  0  0  0  0  0  0
   40.1430   34.9330   38.7320 C   0  0  0  0  0  0  0  0  0  0  0  0
   41.5340   35.0150   38.6560 C   0  0  0  0  0  0  0  0  0  0  0  0
   42.2740   35.1780   39.8010 C   0  0  0  0  0  0  0  0  0  0  0  0
   43.6376   35.4914   44.3385 H   0  0  0  0  0  0  0  0  0  0  0  0
   46.5613   34.8750   42.0930 H   0  0  0  0  0  0  0  0  0  0  0  0
   48.3423   33.1726   42.7018 H   0  0  0  0  0  0  0  0  0  0  0  0
   48.2800   31.2890   46.6356 H   0  0  0  0  0  0  0  0  0  0  0  0
   44.3838   32.2664   49.3866 H   0  0  0  0  0  0  0  0  0  0  0  0
   45.1648   37.3160   44.7787 H   0  0  0  0  0  0  0  0  0  0  0  0
   46.0311   37.0602   43.2260 H   0  0  0  0  0  0  0  0  0  0  0  0
   44.3720   37.7488   43.2260 H   0  0  0  0  0  0  0  0  0  0  0  0
   44.2980   36.2550   41.6177 H   0  0  0  0  0  0  0  0  0  0  0  0
   44.2684   34.4510   41.9087 H   0  0  0  0  0  0  0  0  0  0  0  0
   42.0035   35.5645   43.0888 H   0  0  0  0  0  0  0  0  0  0  0  0
   39.7834   35.2454   42.0867 H   0  0  0  0  0  0  0  0  0  0  0  0
   38.4613   34.9541   40.0364 H   0  0  0  0  0  0  0  0  0  0  0  0
   39.5346   34.8034   37.8248 H   0  0  0  0  0  0  0  0  0  0  0  0
   42.0370   34.9491   37.6800 H   0  0  0  0  0  0  0  0  0  0  0  0
   43.3693   35.2415   39.7218 H   0  0  0  0  0  0  0  0  0  0  0  0
  1 13  1  0
  1  2  1  0
  2  7  2  0
  3  4  2  0
  3  2  1  0
  4  5  1  0
  5  6  2  0
  6  8  1  0
  7  6  1  0
  8  9  2  0
  8 12  1  0
  9 10  1  0
 11 10  1  0
 12 11  2  0
 14  1  1  0
 15 14  1  0
 16 17  2  0
 16 15  1  0
 18 17  1  0
 19 18  2  0
 20 19  1  0
 20 21  2  0
 21 16  1  0
  1 22  1  1
  3 23  1  0
  4 24  1  0
  9 25  1  0
 11 26  1  0
 13 27  1  0
 13 28  1  0
 13 29  1  0
 14 30  1  0
 14 31  1  0
 15 32  1  0
 17 33  1  0
 18 34  1  0
 19 35  1  0
 20 36  1  0
 21 37  1  0
M  ISO  8  22   8  23  14  24  14  25  14  26  14  27   8  28   8  29   8
M  ISO  7  30   8  31   8  33  14  34  14  35  14  36  14  37  14
M  END
>  <minimizedAffinity>  (1) 
-6.01917505

>  <minimizedRMSD>  (1) 
1.30614996

$$$$
