
     RDKit          3D

 43 46  0  0  1  0  0  0  0  0999 V2000
   44.4600   35.4270   43.4130 C   0  0  1  0  0  0  0  0  0  0  0  0
   45.4960   34.4700   43.8290 C   0  0  0  0  0  0  0  0  0  0  0  0
   46.5660   34.1820   42.9350 C   0  0  0  0  0  0  0  0  0  0  0  0
   47.5570   33.2740   43.3270 C   0  0  0  0  0  0  0  0  0  0  0  0
   47.4360   32.7130   44.5540 N   0  0  0  0  0  0  0  0  0  0  0  0
   46.4340   32.9940   45.3670 C   0  0  0  0  0  0  0  0  0  0  0  0
   45.4710   33.8640   45.0110 N   0  0  0  0  0  0  0  0  0  0  0  0
   46.3230   32.3900   46.6990 C   0  0  0  0  0  0  0  0  0  0  0  0
   47.3480   31.5400   47.1410 C   0  0  0  0  0  0  0  0  0  0  0  0
   46.7320   31.0850   48.8390 S   0  0  0  0  0  0  0  0  0  0  0  0
   45.1970   32.1410   48.6190 C   0  0  0  0  0  0  0  0  0  0  0  0
   45.3670   32.5410   47.5920 N   0  0  0  0  0  0  0  0  0  0  0  0
   45.0160   36.8450   43.4640 C   0  0  0  0  0  0  0  0  0  0  0  0
   43.9530   35.1660   42.0340 C   0  0  0  0  0  0  0  0  0  0  0  0
   42.6890   34.5130   41.9890 N   0  0  0  0  0  0  0  0  0  0  0  0
   41.4410   34.5470   41.3600 C   0  0  0  0  0  0  0  0  0  0  0  0
   41.1140   35.7360   40.7540 C   0  0  0  0  0  0  0  0  0  0  0  0
   39.9100   35.8970   40.0860 C   0  0  0  0  0  0  0  0  0  0  0  0
   39.0330   34.8170   40.0430 C   0  0  0  0  0  0  0  0  0  0  0  0
   39.3820   33.6400   40.6560 C   0  0  0  0  0  0  0  0  0  0  0  0
   38.5580   32.5200   40.6560 C   0  0  0  0  0  0  0  0  0  0  0  0
   38.8500   31.3060   41.2520 C   0  0  0  0  0  0  0  0  0  0  0  0
   40.0590   31.2010   41.9020 C   0  0  0  0  0  0  0  0  0  0  0  0
   40.9120   32.2830   41.9330 C   0  0  0  0  0  0  0  0  0  0  0  0
   40.5710   33.4690   41.3210 C   0  0  0  0  0  0  0  0  0  0  0  0
   43.6199   35.3064   44.1128 H   0  0  0  0  0  0  0  0  0  0  0  0
   46.6135   34.6668   41.9487 H   0  0  0  0  0  0  0  0  0  0  0  0
   48.4000   33.0261   42.6652 H   0  0  0  0  0  0  0  0  0  0  0  0
   48.2672   31.2268   46.6243 H   0  0  0  0  0  0  0  0  0  0  0  0
   44.3606   32.3169   49.3115 H   0  0  0  0  0  0  0  0  0  0  0  0
   45.1371   37.1539   44.5128 H   0  0  0  0  0  0  0  0  0  0  0  0
   45.9923   36.8745   42.9580 H   0  0  0  0  0  0  0  0  0  0  0  0
   44.3199   37.5302   42.9580 H   0  0  0  0  0  0  0  0  0  0  0  0
   43.8616   36.1301   41.5122 H   0  0  0  0  0  0  0  0  0  0  0  0
   44.6752   34.4881   41.5556 H   0  0  0  0  0  0  0  0  0  0  0  0
   42.6966   33.7344   42.6632 H   0  0  0  0  0  0  0  0  0  0  0  0
   41.8217   36.5769   40.7998 H   0  0  0  0  0  0  0  0  0  0  0  0
   39.6548   36.8519   39.6033 H   0  0  0  0  0  0  0  0  0  0  0  0
   38.0683   34.9063   39.5220 H   0  0  0  0  0  0  0  0  0  0  0  0
   37.5915   32.6065   40.1379 H   0  0  0  0  0  0  0  0  0  0  0  0
   38.1466   30.4614   41.2084 H   0  0  0  0  0  0  0  0  0  0  0  0
   40.3426   30.2588   42.3938 H   0  0  0  0  0  0  0  0  0  0  0  0
   41.8776   32.1984   42.4531 H   0  0  0  0  0  0  0  0  0  0  0  0
  1 13  1  0
  1  2  1  0
  2  7  2  0
  3  4  2  0
  3  2  1  0
  4  5  1  0
  5  6  2  0
  6  8  1  0
  7  6  1  0
  8  9  2  0
  8 12  1  0
  9 10  1  0
 11 10  1  0
 12 11  2  0
 14  1  1  0
 15 14  1  0
 16 15  1  0
 17 16  2  0
 18 17  1  0
 19 18  2  0
 19 20  1  0
 20 25  2  0
 21 20  1  0
 21 22  2  0
 22 23  1  0
 23 24  2  0
 25 16  1  0
 25 24  1  0
  1 26  1  1
  3 27  1  0
  4 28  1  0
  9 29  1  0
 11 30  1  0
 13 31  1  0
 13 32  1  0
 13 33  1  0
 14 34  1  0
 14 35  1  0
 15 36  1  0
 17 37  1  0
 18 38  1  0
 19 39  1  0
 21 40  1  0
 22 41  1  0
 23 42  1  0
 24 43  1  0
M  ISO  8  26   8  27  14  28  14  29  14  30  14  31   8  32   8  33   8
M  ISO  8  34   8  35   8  37  14  38  14  39  14  40  14  41  14  42  14
M  ISO  1  43  14
M  END
>  <minimizedAffinity>  (1) 
-6.65078306

>  <minimizedRMSD>  (1) 
2.02192187

$$$$
