
     RDKit          3D

 34 36  0  0  1  0  0  0  0  0999 V2000
   44.4530   35.6600   43.7010 C   0  0  1  0  0  0  0  0  0  0  0  0
   45.4330   34.6300   44.0950 C   0  0  0  0  0  0  0  0  0  0  0  0
   46.5750   34.4170   43.2890 C   0  0  0  0  0  0  0  0  0  0  0  0
   47.5160   33.4380   43.6490 C   0  0  0  0  0  0  0  0  0  0  0  0
   47.2640   32.7420   44.7790 N   0  0  0  0  0  0  0  0  0  0  0  0
   46.2000   32.9480   45.5230 C   0  0  0  0  0  0  0  0  0  0  0  0
   45.2910   33.8850   45.1830 N   0  0  0  0  0  0  0  0  0  0  0  0
   45.9240   32.1980   46.7680 C   0  0  0  0  0  0  0  0  0  0  0  0
   45.7210   30.8080   46.6410 C   0  0  0  0  0  0  0  0  0  0  0  0
   45.4530   30.3420   48.4260 S   0  0  0  0  0  0  0  0  0  0  0  0
   45.6690   32.1230   48.9740 C   0  0  0  0  0  0  0  0  0  0  0  0
   45.8550   32.6330   48.0030 N   0  0  0  0  0  0  0  0  0  0  0  0
   45.1570   37.0040   43.5280 C   0  0  0  0  0  0  0  0  0  0  0  0
   43.7600   35.2950   42.4220 C   0  0  0  0  0  0  0  0  0  0  0  0
   42.3650   35.5430   42.4430 N   0  0  0  0  0  0  0  0  0  0  0  0
   41.2710   35.0690   41.6850 C   0  0  0  0  0  0  0  0  0  0  0  0
   40.6490   35.9790   40.8200 C   0  0  0  0  0  0  0  0  0  0  0  0
   39.5940   35.3590   40.1520 C   0  0  0  0  0  0  0  0  0  0  0  0
   39.6510   34.0630   40.6790 C   0  0  0  0  0  0  0  0  0  0  0  0
   40.6190   33.9380   41.5480 O   0  0  0  0  0  0  0  0  0  0  0  0
   43.6974   35.7300   44.4974 H   0  0  0  0  0  0  0  0  0  0  0  0
   46.7266   35.0178   42.3801 H   0  0  0  0  0  0  0  0  0  0  0  0
   48.4129   33.2477   43.0413 H   0  0  0  0  0  0  0  0  0  0  0  0
   45.7209   30.1759   45.7407 H   0  0  0  0  0  0  0  0  0  0  0  0
   45.6237   32.5498   49.9868 H   0  0  0  0  0  0  0  0  0  0  0  0
   45.3806   37.4308   44.5169 H   0  0  0  0  0  0  0  0  0  0  0  0
   46.0944   36.8579   42.9713 H   0  0  0  0  0  0  0  0  0  0  0  0
   44.5032   37.6914   42.9713 H   0  0  0  0  0  0  0  0  0  0  0  0
   43.9201   34.2232   42.2331 H   0  0  0  0  0  0  0  0  0  0  0  0
   44.1886   35.9273   41.6305 H   0  0  0  0  0  0  0  0  0  0  0  0
   42.0876   36.2169   43.1708 H   0  0  0  0  0  0  0  0  0  0  0  0
   40.9492   37.0289   40.6874 H   0  0  0  0  0  0  0  0  0  0  0  0
   38.9003   35.7773   39.4078 H   0  0  0  0  0  0  0  0  0  0  0  0
   38.9656   33.2504   40.3964 H   0  0  0  0  0  0  0  0  0  0  0  0
  1  2  1  0
  2  7  2  0
  3  4  2  0
  3  2  1  0
  4  5  1  0
  5  6  2  0
  6  8  1  0
  7  6  1  0
  8 12  1  0
  9  8  2  0
  9 10  1  0
 10 11  1  0
 12 11  2  0
 13  1  1  0
 14 15  1  0
 14  1  1  0
 16 15  1  0
 17 16  2  0
 18 19  2  0
 18 17  1  0
 19 20  1  0
 20 16  1  0
  1 21  1  1
  3 22  1  0
  4 23  1  0
  9 24  1  0
 11 25  1  0
 13 26  1  0
 13 27  1  0
 13 28  1  0
 14 29  1  0
 14 30  1  0
 15 31  1  0
 17 32  1  0
 18 33  1  0
 19 34  1  0
M  ISO  8  21   8  22  14  23  14  24  14  25  14  26   8  27   8  28   8
M  ISO  5  29   8  30   8  32  14  33  14  34  14
M  END
>  <minimizedAffinity>  (1) 
-5.75644588

>  <minimizedRMSD>  (1) 
2.58507442

$$$$
