
     RDKit          3D

 41 44  0  0  1  0  0  0  0  0999 V2000
   44.6050   35.1780   43.3300 C   0  0  1  0  0  0  0  0  0  0  0  0
   45.8110   34.3350   43.5070 C   0  0  0  0  0  0  0  0  0  0  0  0
   46.9860   34.6620   42.8000 C   0  0  0  0  0  0  0  0  0  0  0  0
   48.1370   33.8670   42.9660 C   0  0  0  0  0  0  0  0  0  0  0  0
   48.0390   32.8140   43.8130 N   0  0  0  0  0  0  0  0  0  0  0  0
   46.9330   32.5250   44.4640 C   0  0  0  0  0  0  0  0  0  0  0  0
   45.8100   33.2750   44.3220 N   0  0  0  0  0  0  0  0  0  0  0  0
   46.8110   31.3880   45.4010 C   0  0  0  0  0  0  0  0  0  0  0  0
   47.7930   30.3630   45.2610 C   0  0  0  0  0  0  0  0  0  0  0  0
   47.2470   29.2130   46.6270 S   0  0  0  0  0  0  0  0  0  0  0  0
   45.8090   30.3580   47.0970 C   0  0  0  0  0  0  0  0  0  0  0  0
   45.9470   31.1730   46.3590 N   0  0  0  0  0  0  0  0  0  0  0  0
   44.5590   36.2540   44.4090 C   0  0  0  0  0  0  0  0  0  0  0  0
   44.5760   35.8260   41.9840 C   0  0  0  0  0  0  0  0  0  0  0  0
   44.4550   34.9100   40.9060 N   0  0  0  0  0  0  0  0  0  0  0  0
   43.3520   34.4290   40.1660 C   0  0  0  0  0  0  0  0  0  0  0  0
   43.5350   33.3930   39.2580 C   0  0  0  0  0  0  0  0  0  0  0  0
   42.3520   33.0700   38.6590 N   0  0  0  0  0  0  0  0  0  0  0  0
   41.4160   33.8880   39.1740 C   0  0  0  0  0  0  0  0  0  0  0  0
   40.0420   34.1020   39.0220 C   0  0  0  0  0  0  0  0  0  0  0  0
   39.3560   35.0640   39.7330 C   0  0  0  0  0  0  0  0  0  0  0  0
   39.9980   35.8760   40.6450 C   0  0  0  0  0  0  0  0  0  0  0  0
   41.3520   35.6930   40.8210 C   0  0  0  0  0  0  0  0  0  0  0  0
   41.9900   34.7330   40.0990 C   0  0  0  0  0  0  0  0  0  0  0  0
   43.7263   34.5218   43.4147 H   0  0  0  0  0  0  0  0  0  0  0  0
   47.0039   35.5302   42.1248 H   0  0  0  0  0  0  0  0  0  0  0  0
   49.0725   34.0908   42.4324 H   0  0  0  0  0  0  0  0  0  0  0  0
   48.6302   30.2753   44.5528 H   0  0  0  0  0  0  0  0  0  0  0  0
   45.0489   30.2443   47.8840 H   0  0  0  0  0  0  0  0  0  0  0  0
   44.5793   35.7794   45.4012 H   0  0  0  0  0  0  0  0  0  0  0  0
   45.4296   36.9178   44.3022 H   0  0  0  0  0  0  0  0  0  0  0  0
   43.6349   36.8411   44.3022 H   0  0  0  0  0  0  0  0  0  0  0  0
   43.7196   36.5155   41.9501 H   0  0  0  0  0  0  0  0  0  0  0  0
   45.5393   36.3417   41.8576 H   0  0  0  0  0  0  0  0  0  0  0  0
   45.3561   34.5153   40.6010 H   0  0  0  0  0  0  0  0  0  0  0  0
   44.4976   32.9025   39.0512 H   0  0  0  0  0  0  0  0  0  0  0  0
   42.2039   32.3394   37.9482 H   0  0  0  0  0  0  0  0  0  0  0  0
   39.4865   33.4778   38.3066 H   0  0  0  0  0  0  0  0  0  0  0  0
   38.2751   35.1864   39.5697 H   0  0  0  0  0  0  0  0  0  0  0  0
   39.4484   36.6422   41.2114 H   0  0  0  0  0  0  0  0  0  0  0  0
   41.9100   36.3152   41.5362 H   0  0  0  0  0  0  0  0  0  0  0  0
  1  2  1  0
  1 13  1  0
  2  7  2  0
  3  4  2  0
  3  2  1  0
  4  5  1  0
  5  6  2  0
  6  8  1  0
  7  6  1  0
  8 12  1  0
  9  8  2  0
  9 10  1  0
 10 11  1  0
 12 11  2  0
 14  1  1  0
 15 14  1  0
 16 15  1  0
 17 16  2  0
 18 19  1  0
 18 17  1  0
 19 24  2  0
 20 19  1  0
 20 21  2  0
 21 22  1  0
 22 23  2  0
 24 16  1  0
 24 23  1  0
  1 25  1  1
  3 26  1  0
  4 27  1  0
  9 28  1  0
 11 29  1  0
 13 30  1  0
 13 31  1  0
 13 32  1  0
 14 33  1  0
 14 34  1  0
 15 35  1  0
 17 36  1  0
 18 37  1  0
 20 38  1  0
 21 39  1  0
 22 40  1  0
 23 41  1  0
M  ISO  8  25   8  26  14  27  14  28  14  29  14  30   8  31   8  32   8
M  ISO  8  33   8  34   8  36  14  37   9  38  14  39  14  40  14  41  14
M  END
>  <minimizedAffinity>  (1) 
-5.56871414

>  <minimizedRMSD>  (1) 
3.14792514

$$$$
