
     RDKit          3D

 43 45  0  0  1  0  0  0  0  0999 V2000
   44.3550   35.4880   43.2890 C   0  0  1  0  0  0  0  0  0  0  0  0
   45.4140   34.5440   43.6880 C   0  0  0  0  0  0  0  0  0  0  0  0
   46.4750   34.2680   42.7820 C   0  0  0  0  0  0  0  0  0  0  0  0
   47.4900   33.3730   43.1520 C   0  0  0  0  0  0  0  0  0  0  0  0
   47.3940   32.8090   44.3870 N   0  0  0  0  0  0  0  0  0  0  0  0
   46.4030   33.0760   45.2180 C   0  0  0  0  0  0  0  0  0  0  0  0
   45.4180   33.9320   44.8830 N   0  0  0  0  0  0  0  0  0  0  0  0
   46.3120   32.4740   46.5540 C   0  0  0  0  0  0  0  0  0  0  0  0
   47.2860   31.5020   46.8960 C   0  0  0  0  0  0  0  0  0  0  0  0
   46.7380   31.0950   48.6470 S   0  0  0  0  0  0  0  0  0  0  0  0
   45.3220   32.3180   48.5410 C   0  0  0  0  0  0  0  0  0  0  0  0
   45.4520   32.7170   47.5100 N   0  0  0  0  0  0  0  0  0  0  0  0
   44.8990   36.9000   43.3110 C   0  0  0  0  0  0  0  0  0  0  0  0
   43.8260   35.1770   41.9090 C   0  0  0  0  0  0  0  0  0  0  0  0
   42.6270   34.4370   41.8880 N   0  0  0  0  0  0  0  0  0  0  0  0
   41.4150   35.1320   41.5440 C   0  0  0  0  0  0  0  0  0  0  0  0
   41.4430   35.7090   40.1620 C   0  0  0  0  0  0  0  0  0  0  0  0
   40.6670   34.9000   39.1520 C   0  0  0  0  0  0  0  0  0  0  0  0
   39.2700   34.7030   39.6980 C   0  0  0  0  0  0  0  0  0  0  0  0
   39.4520   33.6990   40.8310 C   0  0  0  0  0  0  0  0  0  0  0  0
   40.1990   34.3660   41.9250 C   0  0  0  0  0  0  0  0  0  0  0  0
   43.5258   35.3894   44.0050 H   0  0  0  0  0  0  0  0  0  0  0  0
   46.4997   34.7541   41.7956 H   0  0  0  0  0  0  0  0  0  0  0  0
   48.3248   33.1379   42.4753 H   0  0  0  0  0  0  0  0  0  0  0  0
   48.1229   31.1009   46.3054 H   0  0  0  0  0  0  0  0  0  0  0  0
   44.5643   32.5735   49.2964 H   0  0  0  0  0  0  0  0  0  0  0  0
   45.0254   37.2280   44.3533 H   0  0  0  0  0  0  0  0  0  0  0  0
   45.8716   36.9263   42.7978 H   0  0  0  0  0  0  0  0  0  0  0  0
   44.1954   37.5720   42.7978 H   0  0  0  0  0  0  0  0  0  0  0  0
   43.6493   36.1294   41.3877 H   0  0  0  0  0  0  0  0  0  0  0  0
   44.5857   34.5490   41.4207 H   0  0  0  0  0  0  0  0  0  0  0  0
   42.7483   33.6750   41.2057 H   0  0  0  0  0  0  0  0  0  0  0  0
   41.3516   36.0329   42.1720 H   0  0  0  0  0  0  0  0  0  0  0  0
   41.0144   36.7214   40.1994 H   0  0  0  0  0  0  0  0  0  0  0  0
   42.4933   35.7102   39.8349 H   0  0  0  0  0  0  0  0  0  0  0  0
   41.1517   33.9241   39.0013 H   0  0  0  0  0  0  0  0  0  0  0  0
   40.6330   35.4215   38.1841 H   0  0  0  0  0  0  0  0  0  0  0  0
   38.8620   35.6511   40.0782 H   0  0  0  0  0  0  0  0  0  0  0  0
   38.5629   34.3518   38.9321 H   0  0  0  0  0  0  0  0  0  0  0  0
   38.4688   33.3695   41.1982 H   0  0  0  0  0  0  0  0  0  0  0  0
   40.0065   32.8188   40.4736 H   0  0  0  0  0  0  0  0  0  0  0  0
   40.5073   33.5877   42.6386 H   0  0  0  0  0  0  0  0  0  0  0  0
   39.5038   35.1168   42.3286 H   0  0  0  0  0  0  0  0  0  0  0  0
  1 13  1  0
  1  2  1  0
  2  7  2  0
  3  4  2  0
  3  2  1  0
  4  5  1  0
  5  6  2  0
  6  8  1  0
  7  6  1  0
  8  9  2  0
  8 12  1  0
  9 10  1  0
 11 10  1  0
 12 11  2  0
 14  1  1  0
 15 14  1  0
 16 15  1  0
 16 21  1  0
 17 16  1  0
 18 19  1  0
 18 17  1  0
 19 20  1  0
 20 21  1  0
  1 22  1  1
  3 23  1  0
  4 24  1  0
  9 25  1  0
 11 26  1  0
 13 27  1  0
 13 28  1  0
 13 29  1  0
 14 30  1  0
 14 31  1  0
 15 32  1  0
 16 33  1  0
 17 34  1  0
 17 35  1  0
 18 36  1  0
 18 37  1  0
 19 38  1  0
 19 39  1  0
 20 40  1  0
 20 41  1  0
 21 42  1  0
 21 43  1  0
M  ISO  8  22   8  23  14  24  14  25  14  26  14  27   8  28   8  29   8
M  ISO  8  30   8  31   8  32   5  33  13  34  13  35  13  36  13  37  13
M  ISO  6  38  13  39  13  40  13  41  13  42  13  43  13
M  END
>  <minimizedAffinity>  (1) 
-5.61217642

>  <minimizedRMSD>  (1) 
1.32343602

$$$$
