
     RDKit          3D

 36 38  0  0  1  0  0  0  0  0999 V2000
   44.4090   35.6480   43.5810 C   0  0  1  0  0  0  0  0  0  0  0  0
   45.4330   34.6560   43.9420 C   0  0  0  0  0  0  0  0  0  0  0  0
   46.4560   34.3700   43.0130 C   0  0  0  0  0  0  0  0  0  0  0  0
   47.4510   33.4280   43.3270 C   0  0  0  0  0  0  0  0  0  0  0  0
   47.3620   32.8350   44.5460 N   0  0  0  0  0  0  0  0  0  0  0  0
   46.3940   33.1180   45.4020 C   0  0  0  0  0  0  0  0  0  0  0  0
   45.4150   34.0250   45.1270 N   0  0  0  0  0  0  0  0  0  0  0  0
   46.2990   32.4760   46.7260 C   0  0  0  0  0  0  0  0  0  0  0  0
   47.3430   31.6010   47.0970 C   0  0  0  0  0  0  0  0  0  0  0  0
   46.7780   31.0760   48.7930 S   0  0  0  0  0  0  0  0  0  0  0  0
   45.2250   32.1590   48.6570 C   0  0  0  0  0  0  0  0  0  0  0  0
   45.3750   32.5970   47.6400 N   0  0  0  0  0  0  0  0  0  0  0  0
   45.0290   37.0360   43.4930 C   0  0  0  0  0  0  0  0  0  0  0  0
   43.7390   35.3480   42.2850 C   0  0  0  0  0  0  0  0  0  0  0  0
   42.3070   35.3960   42.3580 N   0  0  0  0  0  0  0  0  0  0  0  0
   41.2070   34.9700   41.5820 C   0  0  0  0  0  0  0  0  0  0  0  0
   41.0720   35.7760   40.4450 C   0  0  0  0  0  0  0  0  0  0  0  0
   40.0380   35.5340   39.5290 C   0  0  0  0  0  0  0  0  0  0  0  0
   39.1600   34.4770   39.7850 C   0  0  0  0  0  0  0  0  0  0  0  0
   39.3310   33.6970   40.9330 C   0  0  0  0  0  0  0  0  0  0  0  0
   40.3390   33.9650   41.7880 N   0  0  0  0  0  0  0  0  0  0  0  0
   43.6487   35.6066   44.3749 H   0  0  0  0  0  0  0  0  0  0  0  0
   46.4748   34.8852   42.0413 H   0  0  0  0  0  0  0  0  0  0  0  0
   48.2596   33.1837   42.6224 H   0  0  0  0  0  0  0  0  0  0  0  0
   48.2440   31.3090   46.5375 H   0  0  0  0  0  0  0  0  0  0  0  0
   44.4074   32.3123   49.3768 H   0  0  0  0  0  0  0  0  0  0  0  0
   45.2027   37.4249   44.5072 H   0  0  0  0  0  0  0  0  0  0  0  0
   45.9861   36.9766   42.9541 H   0  0  0  0  0  0  0  0  0  0  0  0
   44.3460   37.7092   42.9541 H   0  0  0  0  0  0  0  0  0  0  0  0
   44.0379   34.3394   41.9635 H   0  0  0  0  0  0  0  0  0  0  0  0
   44.0533   36.1231   41.5705 H   0  0  0  0  0  0  0  0  0  0  0  0
   41.9943   35.8743   43.2149 H   0  0  0  0  0  0  0  0  0  0  0  0
   41.7785   36.6008   40.2699 H   0  0  0  0  0  0  0  0  0  0  0  0
   39.9210   36.1600   38.6321 H   0  0  0  0  0  0  0  0  0  0  0  0
   38.3383   34.2597   39.0867 H   0  0  0  0  0  0  0  0  0  0  0  0
   38.6427   32.8640   41.1389 H   0  0  0  0  0  0  0  0  0  0  0  0
  1  2  1  0
  2  7  2  0
  3  4  2  0
  3  2  1  0
  4  5  1  0
  5  6  2  0
  6  8  1  0
  7  6  1  0
  8  9  2  0
  8 12  1  0
  9 10  1  0
 11 10  1  0
 12 11  2  0
 13  1  1  0
 14 15  1  0
 14  1  1  0
 16 21  1  0
 16 15  1  0
 17 16  2  0
 18 19  2  0
 18 17  1  0
 19 20  1  0
 20 21  2  0
  1 22  1  1
  3 23  1  0
  4 24  1  0
  9 25  1  0
 11 26  1  0
 13 27  1  0
 13 28  1  0
 13 29  1  0
 14 30  1  0
 14 31  1  0
 15 32  1  0
 17 33  1  0
 18 34  1  0
 19 35  1  0
 20 36  1  0
M  ISO  8  22   8  23  14  24  14  25  14  26  14  27   8  28   8  29   8
M  ISO  6  30   8  31   8  33  14  34  14  35  14  36  14
M  END
>  <minimizedAffinity>  (1) 
-5.92450142

>  <minimizedRMSD>  (1) 
2.89627957

$$$$
