
     RDKit          3D

 33 34  0  0  1  0  0  0  0  0999 V2000
   45.4500   34.6980   44.0100 C   0  0  0  0  0  0  0  0  0  0  0  0
   46.4490   34.3900   43.0470 C   0  0  0  0  0  0  0  0  0  0  0  0
   47.4150   33.4140   43.3450 C   0  0  0  0  0  0  0  0  0  0  0  0
   47.3280   32.8180   44.5630 N   0  0  0  0  0  0  0  0  0  0  0  0
   46.3910   33.1230   45.4390 C   0  0  0  0  0  0  0  0  0  0  0  0
   45.4530   34.0560   45.1740 N   0  0  0  0  0  0  0  0  0  0  0  0
   46.3110   32.4620   46.7600 C   0  0  0  0  0  0  0  0  0  0  0  0
   47.3580   31.5820   47.1160 C   0  0  0  0  0  0  0  0  0  0  0  0
   46.7730   31.0450   48.8100 S   0  0  0  0  0  0  0  0  0  0  0  0
   45.2240   32.1320   48.6850 C   0  0  0  0  0  0  0  0  0  0  0  0
   45.3820   32.5750   47.6770 N   0  0  0  0  0  0  0  0  0  0  0  0
   44.4430   35.7280   43.6730 C   0  0  1  0  0  0  0  0  0  0  0  0
   45.1450   37.0530   43.3900 C   0  0  0  0  0  0  0  0  0  0  0  0
   43.5990   35.3530   42.5100 C   0  0  0  0  0  0  0  0  0  0  0  0
   42.2150   35.5920   42.6940 N   0  0  0  0  0  0  0  0  0  0  0  0
   41.2240   35.3310   41.3510 S   0  0  0  0  0  0  0  0  0  0  0  0
   40.1230   33.9450   41.5970 C   0  0  0  0  0  0  0  0  0  0  0  0
   42.1060   34.9510   40.1790 O   0  0  0  0  0  0  0  0  0  0  0  0
   40.4420   36.5250   40.9280 O   0  0  0  0  0  0  0  0  0  0  0  0
   46.4658   34.9105   42.0781 H   0  0  0  0  0  0  0  0  0  0  0  0
   48.2037   33.1454   42.6268 H   0  0  0  0  0  0  0  0  0  0  0  0
   48.2603   31.2945   46.5563 H   0  0  0  0  0  0  0  0  0  0  0  0
   44.4044   32.2815   49.4033 H   0  0  0  0  0  0  0  0  0  0  0  0
   43.7729   35.8222   44.5402 H   0  0  0  0  0  0  0  0  0  0  0  0
   45.4037   37.5413   44.3411 H   0  0  0  0  0  0  0  0  0  0  0  0
   46.0623   36.8659   42.8124 H   0  0  0  0  0  0  0  0  0  0  0  0
   44.4750   37.7069   42.8124 H   0  0  0  0  0  0  0  0  0  0  0  0
   43.7403   34.2800   42.3133 H   0  0  0  0  0  0  0  0  0  0  0  0
   43.9196   35.9870   41.6702 H   0  0  0  0  0  0  0  0  0  0  0  0
   41.8878   34.9738   43.4501 H   0  0  0  0  0  0  0  0  0  0  0  0
   39.9859   33.7724   42.6747 H   0  0  0  0  0  0  0  0  0  0  0  0
   39.1494   34.1634   41.1339 H   0  0  0  0  0  0  0  0  0  0  0  0
   40.5560   33.0461   41.1339 H   0  0  0  0  0  0  0  0  0  0  0  0
  1  6  2  0
  2  3  2  0
  2  1  1  0
  3  4  1  0
  4  5  2  0
  5  7  1  0
  6  5  1  0
  7  8  2  0
  7 11  1  0
  8  9  1  0
 10  9  1  0
 11 10  2  0
 12  1  1  0
 13 12  1  0
 14 15  1  0
 14 12  1  0
 16 17  1  0
 16 15  1  0
 18 16  2  0
 19 16  2  0
  2 20  1  0
  3 21  1  0
  8 22  1  0
 10 23  1  0
 12 24  1  1
 13 25  1  0
 13 26  1  0
 13 27  1  0
 14 28  1  0
 14 29  1  0
 15 30  1  0
 17 31  1  0
 17 32  1  0
 17 33  1  0
M  ISO  8  20  14  21  14  22  14  23  14  24   8  25   8  26   8  27   8
M  ISO  6  28   8  29   8  30   5  31   8  32   8  33   8
M  END
>  <minimizedAffinity>  (1) 
-5.25741148

>  <minimizedRMSD>  (1) 
1.08970475

$$$$
