
     RDKit          3D

 34 36  0  0  1  0  0  0  0  0999 V2000
   44.5070   35.7400   43.5230 C   0  0  1  0  0  0  0  0  0  0  0  0
   45.5250   34.7260   43.8870 C   0  0  0  0  0  0  0  0  0  0  0  0
   46.5610   34.4460   42.9730 C   0  0  0  0  0  0  0  0  0  0  0  0
   47.5400   33.4860   43.3020 C   0  0  0  0  0  0  0  0  0  0  0  0
   47.4160   32.8790   44.5070 N   0  0  0  0  0  0  0  0  0  0  0  0
   46.4410   33.1550   45.3450 C   0  0  0  0  0  0  0  0  0  0  0  0
   45.4980   34.0700   45.0460 N   0  0  0  0  0  0  0  0  0  0  0  0
   46.3130   32.5020   46.6590 C   0  0  0  0  0  0  0  0  0  0  0  0
   47.3260   31.5970   47.0370 C   0  0  0  0  0  0  0  0  0  0  0  0
   46.7250   31.0870   48.7270 S   0  0  0  0  0  0  0  0  0  0  0  0
   45.2120   32.2090   48.5810 C   0  0  0  0  0  0  0  0  0  0  0  0
   45.3820   32.6460   47.5670 N   0  0  0  0  0  0  0  0  0  0  0  0
   45.1220   37.1360   43.5880 C   0  0  0  0  0  0  0  0  0  0  0  0
   43.9490   35.5110   42.1630 C   0  0  0  0  0  0  0  0  0  0  0  0
   42.9350   34.5190   42.1020 N   0  0  0  0  0  0  0  0  0  0  0  0
   41.6530   34.6070   41.5220 C   0  0  0  0  0  0  0  0  0  0  0  0
   41.1310   35.6420   40.7360 C   0  0  0  0  0  0  0  0  0  0  0  0
   39.8700   35.3230   40.3980 N   0  0  0  0  0  0  0  0  0  0  0  0
   39.5620   34.1470   40.9220 C   0  0  0  0  0  0  0  0  0  0  0  0
   40.6500   33.7220   41.6010 N   0  0  0  0  0  0  0  0  0  0  0  0
   43.6823   35.6520   44.2455 H   0  0  0  0  0  0  0  0  0  0  0  0
   46.6055   34.9734   42.0087 H   0  0  0  0  0  0  0  0  0  0  0  0
   48.3634   33.2420   42.6146 H   0  0  0  0  0  0  0  0  0  0  0  0
   48.2238   31.2792   46.4865 H   0  0  0  0  0  0  0  0  0  0  0  0
   44.3931   32.3832   49.2945 H   0  0  0  0  0  0  0  0  0  0  0  0
   45.2519   37.4308   44.6398 H   0  0  0  0  0  0  0  0  0  0  0  0
   46.1005   37.1294   43.0855 H   0  0  0  0  0  0  0  0  0  0  0  0
   44.4567   37.8535   43.0855 H   0  0  0  0  0  0  0  0  0  0  0  0
   43.5242   36.4592   41.8018 H   0  0  0  0  0  0  0  0  0  0  0  0
   44.7802   35.1474   41.5409 H   0  0  0  0  0  0  0  0  0  0  0  0
   43.1666   33.6157   42.5393 H   0  0  0  0  0  0  0  0  0  0  0  0
   41.6627   36.5599   40.4448 H   0  0  0  0  0  0  0  0  0  0  0  0
   38.6032   33.6170   40.8234 H   0  0  0  0  0  0  0  0  0  0  0  0
   40.7019   32.8306   42.1144 H   0  0  0  0  0  0  0  0  0  0  0  0
  1 13  1  0
  1  2  1  0
  2  7  2  0
  3  4  2  0
  3  2  1  0
  4  5  1  0
  5  6  2  0
  6  8  1  0
  7  6  1  0
  8  9  2  0
  8 12  1  0
  9 10  1  0
 11 10  1  0
 12 11  2  0
 14  1  1  0
 15 14  1  0
 16 20  1  0
 16 15  1  0
 17 16  2  0
 18 17  1  0
 18 19  2  0
 19 20  1  0
  1 21  1  1
  3 22  1  0
  4 23  1  0
  9 24  1  0
 11 25  1  0
 13 26  1  0
 13 27  1  0
 13 28  1  0
 14 29  1  0
 14 30  1  0
 15 31  1  0
 17 32  1  0
 19 33  1  0
 20 34  1  0
M  ISO  8  21   8  22  14  23  14  24  14  25  14  26   8  27   8  28   8
M  ISO  5  29   8  30   8  32  14  33  14  34   9
M  END
>  <minimizedAffinity>  (1) 
-5.19330788

>  <minimizedRMSD>  (1) 
1.46864021

$$$$
