
     RDKit          3D

 35 37  0  0  1  0  0  0  0  0999 V2000
   44.5220   35.6530   43.5310 C   0  0  1  0  0  0  0  0  0  0  0  0
   45.5380   34.6400   43.9060 C   0  0  0  0  0  0  0  0  0  0  0  0
   46.5780   34.3380   42.9790 C   0  0  0  0  0  0  0  0  0  0  0  0
   47.5410   33.3840   43.3280 C   0  0  0  0  0  0  0  0  0  0  0  0
   47.4260   32.7970   44.5470 N   0  0  0  0  0  0  0  0  0  0  0  0
   46.4490   33.1010   45.3840 C   0  0  0  0  0  0  0  0  0  0  0  0
   45.5030   34.0160   45.0770 N   0  0  0  0  0  0  0  0  0  0  0  0
   46.3330   32.4640   46.7040 C   0  0  0  0  0  0  0  0  0  0  0  0
   47.3510   31.5900   47.1190 C   0  0  0  0  0  0  0  0  0  0  0  0
   46.7390   31.0810   48.8020 S   0  0  0  0  0  0  0  0  0  0  0  0
   45.2010   32.1650   48.6180 C   0  0  0  0  0  0  0  0  0  0  0  0
   45.3920   32.5860   47.6040 N   0  0  0  0  0  0  0  0  0  0  0  0
   45.1310   37.0430   43.5970 C   0  0  0  0  0  0  0  0  0  0  0  0
   43.9750   35.4150   42.1510 C   0  0  0  0  0  0  0  0  0  0  0  0
   42.8580   34.5440   42.1020 N   0  0  0  0  0  0  0  0  0  0  0  0
   41.6350   34.6620   41.4060 C   0  0  0  0  0  0  0  0  0  0  0  0
   41.0950   35.8560   40.9910 C   0  0  0  0  0  0  0  0  0  0  0  0
   39.8880   35.8480   40.3280 C   0  0  0  0  0  0  0  0  0  0  0  0
   39.2150   34.7190   40.0700 N   0  0  0  0  0  0  0  0  0  0  0  0
   39.7530   33.5410   40.4830 C   0  0  0  0  0  0  0  0  0  0  0  0
   40.9280   33.5480   41.1290 N   0  0  0  0  0  0  0  0  0  0  0  0
   43.6907   35.5682   44.2464 H   0  0  0  0  0  0  0  0  0  0  0  0
   46.6230   34.8467   42.0047 H   0  0  0  0  0  0  0  0  0  0  0  0
   48.3590   33.1201   42.6415 H   0  0  0  0  0  0  0  0  0  0  0  0
   48.2666   31.2868   46.5902 H   0  0  0  0  0  0  0  0  0  0  0  0
   44.3623   32.3316   49.3100 H   0  0  0  0  0  0  0  0  0  0  0  0
   45.2599   37.3373   44.6490 H   0  0  0  0  0  0  0  0  0  0  0  0
   46.1097   37.0387   43.0949 H   0  0  0  0  0  0  0  0  0  0  0  0
   44.4644   37.7596   43.0949 H   0  0  0  0  0  0  0  0  0  0  0  0
   43.6726   36.3850   41.7296 H   0  0  0  0  0  0  0  0  0  0  0  0
   44.7767   34.9270   41.5774 H   0  0  0  0  0  0  0  0  0  0  0  0
   42.9537   33.6867   42.6648 H   0  0  0  0  0  0  0  0  0  0  0  0
   41.6190   36.8034   41.1855 H   0  0  0  0  0  0  0  0  0  0  0  0
   39.4600   36.8059   39.9975 H   0  0  0  0  0  0  0  0  0  0  0  0
   39.2303   32.5926   40.2894 H   0  0  0  0  0  0  0  0  0  0  0  0
  1 13  1  0
  1  2  1  0
  2  7  2  0
  3  4  2  0
  3  2  1  0
  4  5  1  0
  5  6  2  0
  6  8  1  0
  7  6  1  0
  8  9  2  0
  8 12  1  0
  9 10  1  0
 11 10  1  0
 12 11  2  0
 14  1  1  0
 15 14  1  0
 16 15  1  0
 17 16  2  0
 18 17  1  0
 19 18  2  0
 19 20  1  0
 20 21  2  0
 21 16  1  0
  1 22  1  1
  3 23  1  0
  4 24  1  0
  9 25  1  0
 11 26  1  0
 13 27  1  0
 13 28  1  0
 13 29  1  0
 14 30  1  0
 14 31  1  0
 15 32  1  0
 17 33  1  0
 18 34  1  0
 20 35  1  0
M  ISO  8  22   8  23  14  24  14  25  14  26  14  27   8  28   8  29   8
M  ISO  5  30   8  31   8  33  14  34  14  35  14
M  END
>  <minimizedAffinity>  (1) 
-5.47852945

>  <minimizedRMSD>  (1) 
1.71396816

$$$$
