
     RDKit          3D

 30 31  0  0  1  0  0  0  0  0999 V2000
   45.4830   34.6910   43.8260 C   0  0  0  0  0  0  0  0  0  0  0  0
   46.5210   34.3970   42.8940 C   0  0  0  0  0  0  0  0  0  0  0  0
   47.4960   33.4470   43.2300 C   0  0  0  0  0  0  0  0  0  0  0  0
   47.3920   32.8510   44.4460 N   0  0  0  0  0  0  0  0  0  0  0  0
   46.4240   33.1360   45.2930 C   0  0  0  0  0  0  0  0  0  0  0  0
   45.4600   34.0540   45.0020 N   0  0  0  0  0  0  0  0  0  0  0  0
   46.3150   32.5050   46.6120 C   0  0  0  0  0  0  0  0  0  0  0  0
   47.3110   31.5930   46.9910 C   0  0  0  0  0  0  0  0  0  0  0  0
   46.7240   31.1110   48.6950 S   0  0  0  0  0  0  0  0  0  0  0  0
   45.2370   32.2450   48.5590 C   0  0  0  0  0  0  0  0  0  0  0  0
   45.4040   32.6660   47.5370 N   0  0  0  0  0  0  0  0  0  0  0  0
   44.4670   35.6890   43.4570 C   0  0  1  0  0  0  0  0  0  0  0  0
   45.0600   37.0920   43.5460 C   0  0  0  0  0  0  0  0  0  0  0  0
   43.9350   35.4870   42.0820 C   0  0  0  0  0  0  0  0  0  0  0  0
   42.7960   34.6050   42.0270 N   0  0  0  0  0  0  0  0  0  0  0  0
   41.5140   35.0880   41.7250 C   0  0  0  0  0  0  0  0  0  0  0  0
   41.2710   36.0740   40.9980 O   0  0  0  0  0  0  0  0  0  0  0  0
   40.3590   34.5090   42.2140 O   0  0  0  0  0  0  0  0  0  0  0  0
   46.5566   34.9100   41.9216 H   0  0  0  0  0  0  0  0  0  0  0  0
   48.3120   33.1947   42.5369 H   0  0  0  0  0  0  0  0  0  0  0  0
   48.1974   31.2541   46.4347 H   0  0  0  0  0  0  0  0  0  0  0  0
   44.4296   32.4405   49.2801 H   0  0  0  0  0  0  0  0  0  0  0  0
   43.6348   35.5674   44.1660 H   0  0  0  0  0  0  0  0  0  0  0  0
   45.1790   37.3734   44.6027 H   0  0  0  0  0  0  0  0  0  0  0  0
   46.0416   37.1074   43.0497 H   0  0  0  0  0  0  0  0  0  0  0  0
   44.3870   37.8067   43.0497 H   0  0  0  0  0  0  0  0  0  0  0  0
   43.6368   36.4655   41.6774 H   0  0  0  0  0  0  0  0  0  0  0  0
   44.7357   35.0165   41.4925 H   0  0  0  0  0  0  0  0  0  0  0  0
   42.9260   33.6003   42.2131 H   0  0  0  0  0  0  0  0  0  0  0  0
   39.4759   34.8859   41.9728 H   0  0  0  0  0  0  0  0  0  0  0  0
  1  6  2  0
  2  3  2  0
  2  1  1  0
  3  4  1  0
  4  5  2  0
  5  7  1  0
  6  5  1  0
  7  8  2  0
  7 11  1  0
  8  9  1  0
 10  9  1  0
 11 10  2  0
 12 13  1  0
 12  1  1  0
 14 12  1  0
 15 14  1  0
 16 15  1  0
 16 18  1  0
 17 16  2  0
  2 19  1  0
  3 20  1  0
  8 21  1  0
 10 22  1  0
 12 23  1  1
 13 24  1  0
 13 25  1  0
 13 26  1  0
 14 27  1  0
 14 28  1  0
 15 29  1  0
 18 30  1  0
M  ISO  8  19  14  20  14  21  14  22  14  23   8  24   8  25   8  26   8
M  ISO  3  27   8  28   8  30   3
M  END
>  <minimizedAffinity>  (1) 
-5.00981522

>  <minimizedRMSD>  (1) 
0.978560686

$$$$
