
     RDKit          3D

 23 24  0  0  0  0  0  0  0  0999 V2000
   45.8020   34.4720   41.2570 C   0  0  0  0  0  0  0  0  0  0  0  0
   47.0860   34.7880   41.7030 C   0  0  0  0  0  0  0  0  0  0  0  0
   48.1780   34.4790   40.8680 C   0  0  0  0  0  0  0  0  0  0  0  0
   47.9180   33.8870   39.6690 N   0  0  0  0  0  0  0  0  0  0  0  0
   46.6470   33.6000   39.2810 C   0  0  0  0  0  0  0  0  0  0  0  0
   45.6380   33.8980   40.0790 N   0  0  0  0  0  0  0  0  0  0  0  0
   46.3950   32.9600   37.9810 C   0  0  0  0  0  0  0  0  0  0  0  0
   46.6220   31.6210   37.6760 C   0  0  0  0  0  0  0  0  0  0  0  0
   46.2610   31.4570   36.3960 N   0  0  0  0  0  0  0  0  0  0  0  0
   45.8230   32.6230   35.8910 C   0  0  0  0  0  0  0  0  0  0  0  0
   45.9040   33.5540   36.8660 N   0  0  0  0  0  0  0  0  0  0  0  0
   44.6850   34.7970   42.1270 C   0  0  0  0  0  0  0  0  0  0  0  0
   43.7770   35.5810   41.6980 O   0  0  0  0  0  0  0  0  0  0  0  0
   44.6460   34.2320   43.4160 O   0  0  0  0  0  0  0  0  0  0  0  0
   45.1420   34.9830   44.4890 C   0  0  0  0  0  0  0  0  0  0  0  0
   44.2700   35.0390   45.5580 F   0  0  0  0  0  0  0  0  0  0  0  0
   46.3460   34.4620   44.9260 F   0  0  0  0  0  0  0  0  0  0  0  0
   45.3220   36.2810   44.0200 F   0  0  0  0  0  0  0  0  0  0  0  0
   47.2416   35.2661   42.6814 H   0  0  0  0  0  0  0  0  0  0  0  0
   49.2090   34.7088   41.1749 H   0  0  0  0  0  0  0  0  0  0  0  0
   47.0193   30.8497   38.3522 H   0  0  0  0  0  0  0  0  0  0  0  0
   45.4624   32.7895   34.8652 H   0  0  0  0  0  0  0  0  0  0  0  0
   45.6383   34.5452   36.7775 H   0  0  0  0  0  0  0  0  0  0  0  0
  1  2  2  0
  1 12  1  0
  3  2  1  0
  4  3  2  0
  5  4  1  0
  5  6  2  0
  6  1  1  0
  7  5  1  0
  8  7  2  0
  9  8  1  0
 10  9  2  0
 10 11  1  0
 11  7  1  0
 12 14  1  0
 13 12  2  0
 14 15  1  0
 15 17  1  0
 15 16  1  0
 18 15  1  0
  2 19  1  0
  3 20  1  0
  8 21  1  0
 10 22  1  0
 11 23  1  0
M  ISO  5  19  14  20  14  21  14  22  14  23   9
M  END
>  <minimizedAffinity>  (1) 
-4.2220459

>  <minimizedRMSD>  (1) 
0.801218092

$$$$
