
     RDKit          3D

 42 44  0  0  1  0  0  0  0  0999 V2000
   44.5670   35.1140   42.8920 C   0  0  1  0  0  0  0  0  0  0  0  0
   45.5590   34.2200   43.5190 C   0  0  0  0  0  0  0  0  0  0  0  0
   46.8140   34.0550   42.8650 C   0  0  0  0  0  0  0  0  0  0  0  0
   47.8050   33.2100   43.4120 C   0  0  0  0  0  0  0  0  0  0  0  0
   47.4780   32.5870   44.5760 N   0  0  0  0  0  0  0  0  0  0  0  0
   46.3020   32.7560   45.1690 C   0  0  0  0  0  0  0  0  0  0  0  0
   45.3300   33.5690   44.6550 N   0  0  0  0  0  0  0  0  0  0  0  0
   45.9610   32.0720   46.4330 C   0  0  0  0  0  0  0  0  0  0  0  0
   45.8490   30.6670   46.4100 C   0  0  0  0  0  0  0  0  0  0  0  0
   45.4220   30.3390   48.1990 S   0  0  0  0  0  0  0  0  0  0  0  0
   45.4860   32.1880   48.6070 C   0  0  0  0  0  0  0  0  0  0  0  0
   45.7430   32.5930   47.6050 N   0  0  0  0  0  0  0  0  0  0  0  0
   45.0150   36.5450   43.0030 C   0  0  0  0  0  0  0  0  0  0  0  0
   44.2910   34.7420   41.4720 C   0  0  0  0  0  0  0  0  0  0  0  0
   42.9760   34.2890   41.2140 N   0  0  0  0  0  0  0  0  0  0  0  0
   41.2310   32.9080   42.0120 N   0  0  0  0  0  0  0  0  0  0  0  0
   40.8040   31.5790   41.7520 C   0  0  0  0  0  0  0  0  0  0  0  0
   41.5360   31.1250   40.5430 C   0  0  0  0  0  0  0  0  0  0  0  0
   42.7650   32.0050   40.5030 C   0  0  0  0  0  0  0  0  0  0  0  0
   42.6600   32.9610   41.6540 C   0  0  1  0  0  0  0  0  0  0  0  0
   42.4960   34.5540   39.8990 C   0  0  0  0  0  0  0  0  0  0  0  0
   41.1310   34.2810   39.8720 F   0  0  0  0  0  0  0  0  0  0  0  0
   43.0130   33.4940   39.0910 F   0  0  0  0  0  0  0  0  0  0  0  0
   42.7850   35.7510   39.3790 F   0  0  0  0  0  0  0  0  0  0  0  0
   43.6189   34.9973   43.4374 H   0  0  0  0  0  0  0  0  0  0  0  0
   47.0131   34.5907   41.9251 H   0  0  0  0  0  0  0  0  0  0  0  0
   48.7813   33.0647   42.9264 H   0  0  0  0  0  0  0  0  0  0  0  0
   45.9769   29.9627   45.5747 H   0  0  0  0  0  0  0  0  0  0  0  0
   45.3174   32.7098   49.5606 H   0  0  0  0  0  0  0  0  0  0  0  0
   45.1014   36.8209   44.0643 H   0  0  0  0  0  0  0  0  0  0  0  0
   45.9928   36.6622   42.5129 H   0  0  0  0  0  0  0  0  0  0  0  0
   44.2786   37.1988   42.5129 H   0  0  0  0  0  0  0  0  0  0  0  0
   44.4751   35.6276   40.8460 H   0  0  0  0  0  0  0  0  0  0  0  0
   44.9563   33.8966   41.2425 H   0  0  0  0  0  0  0  0  0  0  0  0
   40.6945   33.5738   41.4377 H   0  0  0  0  0  0  0  0  0  0  0  0
   41.0440   30.9296   42.6068 H   0  0  0  0  0  0  0  0  0  0  0  0
   39.7161   31.5363   41.5953 H   0  0  0  0  0  0  0  0  0  0  0  0
   41.8174   30.0653   40.6320 H   0  0  0  0  0  0  0  0  0  0  0  0
   40.9302   31.2045   39.6283 H   0  0  0  0  0  0  0  0  0  0  0  0
   43.6722   31.3911   40.6038 H   0  0  0  0  0  0  0  0  0  0  0  0
   42.8276   32.5472   39.5479 H   0  0  0  0  0  0  0  0  0  0  0  0
   43.3374   32.7090   42.4832 H   0  0  0  0  0  0  0  0  0  0  0  0
  1 13  1  0
  1  2  1  0
  2  7  2  0
  3  4  2  0
  3  2  1  0
  4  5  1  0
  5  6  2  0
  6  8  1  0
  7  6  1  0
  8 12  1  0
  9  8  2  0
  9 10  1  0
 10 11  1  0
 12 11  2  0
 14  1  1  0
 15 14  1  0
 17 16  1  0
 18 17  1  0
 19 18  1  0
 19 20  1  0
 20 15  1  0
 20 16  1  0
 21 15  1  0
 22 21  1  0
 23 21  1  0
 24 21  1  0
  1 25  1  1
  3 26  1  0
  4 27  1  0
  9 28  1  0
 11 29  1  0
 13 30  1  0
 13 31  1  0
 13 32  1  0
 14 33  1  0
 14 34  1  0
 16 35  1  0
 17 36  1  0
 17 37  1  0
 18 38  1  0
 18 39  1  0
 19 40  1  0
 19 41  1  0
 20 42  1  1
M  ISO  8  25   8  26  14  27  14  28  14  29  14  30   8  31   8  32   8
M  ISO  8  33   8  34   8  35   5  36  13  37  13  38  13  39  13  40  13
M  ISO  2  41  13  42  13
M  END
>  <minimizedAffinity>  (1) 
-4.89178133

>  <minimizedRMSD>  (1) 
2.13399768

$$$$
