
     RDKit          3D

 41 44  0  0  1  0  0  0  0  0999 V2000
   43.5060   35.0440   42.0140 C   0  0  1  0  0  0  0  0  0  0  0  0
   44.3120   33.8170   42.2140 C   0  0  0  0  0  0  0  0  0  0  0  0
   44.6040   32.9940   41.0930 C   0  0  0  0  0  0  0  0  0  0  0  0
   45.3700   31.8260   41.2600 C   0  0  0  0  0  0  0  0  0  0  0  0
   45.7920   31.5510   42.5150 N   0  0  0  0  0  0  0  0  0  0  0  0
   45.5120   32.3290   43.5540 C   0  0  0  0  0  0  0  0  0  0  0  0
   44.7740   33.4660   43.4300 N   0  0  0  0  0  0  0  0  0  0  0  0
   45.9820   32.0140   44.9190 C   0  0  0  0  0  0  0  0  0  0  0  0
   45.9710   30.6610   45.3130 C   0  0  0  0  0  0  0  0  0  0  0  0
   46.6420   30.8270   47.0560 S   0  0  0  0  0  0  0  0  0  0  0  0
   46.7960   32.6990   46.8780 C   0  0  0  0  0  0  0  0  0  0  0  0
   46.4210   32.8190   45.8410 N   0  0  0  0  0  0  0  0  0  0  0  0
   44.3420   36.2550   42.3190 C   0  0  0  0  0  0  0  0  0  0  0  0
   42.9470   35.1230   40.6350 C   0  0  0  0  0  0  0  0  0  0  0  0
   41.5850   34.7170   40.5290 N   0  0  0  0  0  0  0  0  0  0  0  0
   40.1670   30.7560   38.4230 N   0  0  0  0  0  0  0  0  0  0  0  0
   40.9820   31.5060   37.6590 C   0  0  0  0  0  0  0  0  0  0  0  0
   41.3730   32.6270   38.2840 N   0  0  0  0  0  0  0  0  0  0  0  0
   40.8170   32.6400   39.4910 C   0  0  0  0  0  0  0  0  0  0  0  0
   40.8450   33.5030   40.5660 C   0  0  0  0  0  0  0  0  0  0  0  0
   40.1240   33.1530   41.6620 N   0  0  0  0  0  0  0  0  0  0  0  0
   39.4140   32.0160   41.7000 C   0  0  0  0  0  0  0  0  0  0  0  0
   39.3670   31.1620   40.6740 N   0  0  0  0  0  0  0  0  0  0  0  0
   40.0730   31.4680   39.5520 C   0  0  0  0  0  0  0  0  0  0  0  0
   40.6360   35.7050   40.2200 C   0  0  0  0  0  0  0  0  0  0  0  0
   39.3860   35.1470   40.0540 F   0  0  0  0  0  0  0  0  0  0  0  0
   41.0010   36.2070   38.9510 F   0  0  0  0  0  0  0  0  0  0  0  0
   40.5670   36.7380   41.1300 F   0  0  0  0  0  0  0  0  0  0  0  0
   42.6518   35.0079   42.7061 H   0  0  0  0  0  0  0  0  0  0  0  0
   44.2314   33.2700   40.0955 H   0  0  0  0  0  0  0  0  0  0  0  0
   45.6136   31.1691   40.4120 H   0  0  0  0  0  0  0  0  0  0  0  0
   45.6584   29.7646   44.7574 H   0  0  0  0  0  0  0  0  0  0  0  0
   47.1539   33.4528   47.5947 H   0  0  0  0  0  0  0  0  0  0  0  0
   44.4264   36.3773   43.4089 H   0  0  0  0  0  0  0  0  0  0  0  0
   45.3449   36.1268   41.8857 H   0  0  0  0  0  0  0  0  0  0  0  0
   43.8666   37.1473   41.8857 H   0  0  0  0  0  0  0  0  0  0  0  0
   43.0233   36.1653   40.2918 H   0  0  0  0  0  0  0  0  0  0  0  0
   43.5321   34.4252   40.0180 H   0  0  0  0  0  0  0  0  0  0  0  0
   39.7240   29.8546   38.1947 H   0  0  0  0  0  0  0  0  0  0  0  0
   41.2919   31.2318   36.6398 H   0  0  0  0  0  0  0  0  0  0  0  0
   38.8478   31.7771   42.6123 H   0  0  0  0  0  0  0  0  0  0  0  0
  1  2  1  0
  1 13  1  0
  2  7  2  0
  3  4  2  0
  3  2  1  0
  4  5  1  0
  5  6  2  0
  6  8  1  0
  7  6  1  0
  8  9  2  0
  8 12  1  0
  9 10  1  0
 11 10  1  0
 12 11  2  0
 14  1  1  0
 15 20  1  0
 15 14  1  0
 16 24  1  0
 17 18  2  0
 17 16  1  0
 18 19  1  0
 19 24  2  0
 19 20  1  0
 20 21  2  0
 21 22  1  0
 23 22  2  0
 24 23  1  0
 25 15  1  0
 25 28  1  0
 26 25  1  0
 27 25  1  0
  1 29  1  1
  3 30  1  0
  4 31  1  0
  9 32  1  0
 11 33  1  0
 13 34  1  0
 13 35  1  0
 13 36  1  0
 14 37  1  0
 14 38  1  0
 16 39  1  0
 17 40  1  0
 22 41  1  0
M  ISO  8  29   8  30  14  31  14  32  14  33  14  34   8  35   8  36   8
M  ISO  5  37   8  38   8  39   9  40  14  41  14
M  END
>  <minimizedAffinity>  (1) 
-5.36758661

>  <minimizedRMSD>  (1) 
3.99872208

$$$$
