
     RDKit          3D

 38 40  0  0  1  0  0  0  0  0999 V2000
   43.4140   33.6300   41.3120 C   0  0  1  0  0  0  0  0  0  0  0  0
   41.9470   33.6520   41.1600 C   0  0  0  0  0  0  0  0  0  0  0  0
   41.3110   34.8730   40.7840 C   0  0  0  0  0  0  0  0  0  0  0  0
   39.9160   34.9310   40.6320 C   0  0  0  0  0  0  0  0  0  0  0  0
   39.2380   33.7850   40.8600 N   0  0  0  0  0  0  0  0  0  0  0  0
   39.8390   32.6520   41.2100 C   0  0  0  0  0  0  0  0  0  0  0  0
   41.1960   32.5570   41.3690 N   0  0  0  0  0  0  0  0  0  0  0  0
   39.0750   31.4160   41.4540 C   0  0  0  0  0  0  0  0  0  0  0  0
   39.7460   30.3280   42.0470 C   0  0  0  0  0  0  0  0  0  0  0  0
   38.3390   29.0830   42.1100 S   0  0  0  0  0  0  0  0  0  0  0  0
   37.1380   30.3070   41.3180 C   0  0  0  0  0  0  0  0  0  0  0  0
   37.8120   31.1760   41.1860 N   0  0  0  0  0  0  0  0  0  0  0  0
   44.0670   33.6760   39.9570 C   0  0  0  0  0  0  0  0  0  0  0  0
   43.9090   34.7500   42.1630 C   0  0  0  0  0  0  0  0  0  0  0  0
   45.0740   34.4440   42.9190 N   0  0  0  0  0  0  0  0  0  0  0  0
   45.3720   33.6660   44.0830 C   0  0  0  0  0  0  0  0  0  0  0  0
   45.7050   32.3410   43.8870 C   0  0  0  0  0  0  0  0  0  0  0  0
   46.0110   31.5000   44.9460 C   0  0  0  0  0  0  0  0  0  0  0  0
   45.9630   32.0520   46.1660 N   0  0  0  0  0  0  0  0  0  0  0  0
   45.6340   33.3580   46.3460 C   0  0  0  0  0  0  0  0  0  0  0  0
   45.3360   34.1810   45.3220 N   0  0  0  0  0  0  0  0  0  0  0  0
   46.2630   35.1010   42.5840 C   0  0  0  0  0  0  0  0  0  0  0  0
   47.2940   34.7230   43.4160 F   0  0  0  0  0  0  0  0  0  0  0  0
   46.0350   36.4710   42.8640 F   0  0  0  0  0  0  0  0  0  0  0  0
   46.6490   34.9560   41.2670 F   0  0  0  0  0  0  0  0  0  0  0  0
   43.6831   32.6928   41.8212 H   0  0  0  0  0  0  0  0  0  0  0  0
   41.9173   35.7746   40.6121 H   0  0  0  0  0  0  0  0  0  0  0  0
   39.4029   35.8600   40.3427 H   0  0  0  0  0  0  0  0  0  0  0  0
   40.7910   30.2343   42.3775 H   0  0  0  0  0  0  0  0  0  0  0  0
   36.0747   30.1903   41.0615 H   0  0  0  0  0  0  0  0  0  0  0  0
   45.1576   33.7528   40.0780 H   0  0  0  0  0  0  0  0  0  0  0  0
   43.8235   32.7585   39.4013 H   0  0  0  0  0  0  0  0  0  0  0  0
   43.6972   34.5503   39.4013 H   0  0  0  0  0  0  0  0  0  0  0  0
   44.1383   35.6038   41.5085 H   0  0  0  0  0  0  0  0  0  0  0  0
   43.1121   34.9677   42.8894 H   0  0  0  0  0  0  0  0  0  0  0  0
   45.7283   31.9412   42.8625 H   0  0  0  0  0  0  0  0  0  0  0  0
   46.2771   30.4436   44.7938 H   0  0  0  0  0  0  0  0  0  0  0  0
   45.6100   33.7597   47.3698 H   0  0  0  0  0  0  0  0  0  0  0  0
  1 14  1  0
  2  1  1  0
  2  7  1  0
  3  2  2  0
  4  3  1  0
  4  5  2  0
  5  6  1  0
  6  7  2  0
  6  8  1  0
  8  9  2  0
  9 10  1  0
 11 10  1  0
 12 11  2  0
 12  8  1  0
 13  1  1  0
 14 15  1  0
 15 16  1  0
 16 21  1  0
 17 16  2  0
 17 18  1  0
 18 19  2  0
 19 20  1  0
 21 20  2  0
 22 24  1  0
 22 15  1  0
 22 23  1  0
 25 22  1  0
  1 26  1  1
  3 27  1  0
  4 28  1  0
  9 29  1  0
 11 30  1  0
 13 31  1  0
 13 32  1  0
 13 33  1  0
 14 34  1  0
 14 35  1  0
 17 36  1  0
 18 37  1  0
 20 38  1  0
M  ISO  8  26   8  27  14  28  14  29  14  30  14  31   8  32   8  33   8
M  ISO  5  34   8  35   8  36  14  37  14  38  14
M  END
>  <minimizedAffinity>  (1) 
-5.57923651

>  <minimizedRMSD>  (1) 
6.92955017

$$$$
