
     RDKit          3D

 26 27  0  0  0  0  0  0  0  0999 V2000
   45.8660   34.4440   41.1570 C   0  0  0  0  0  0  0  0  0  0  0  0
   47.1370   34.8290   41.5950 C   0  0  0  0  0  0  0  0  0  0  0  0
   48.2500   34.4660   40.8150 C   0  0  0  0  0  0  0  0  0  0  0  0
   48.0180   33.7520   39.6620 N   0  0  0  0  0  0  0  0  0  0  0  0
   46.7770   33.4100   39.2920 C   0  0  0  0  0  0  0  0  0  0  0  0
   45.7290   33.7560   40.0330 N   0  0  0  0  0  0  0  0  0  0  0  0
   46.5710   32.6480   38.0560 C   0  0  0  0  0  0  0  0  0  0  0  0
   45.7840   33.1550   37.0470 C   0  0  0  0  0  0  0  0  0  0  0  0
   45.5780   32.4470   35.8720 C   0  0  0  0  0  0  0  0  0  0  0  0
   46.1970   31.2170   35.7620 C   0  0  0  0  0  0  0  0  0  0  0  0
   46.9880   30.6660   36.7300 C   0  0  0  0  0  0  0  0  0  0  0  0
   47.1630   31.4090   37.8820 C   0  0  0  0  0  0  0  0  0  0  0  0
   44.7230   34.8250   41.9690 C   0  0  0  0  0  0  0  0  0  0  0  0
   43.8600   35.6240   41.4820 O   0  0  0  0  0  0  0  0  0  0  0  0
   44.6160   34.2940   43.2610 O   0  0  0  0  0  0  0  0  0  0  0  0
   45.1260   35.0500   44.3340 C   0  0  0  0  0  0  0  0  0  0  0  0
   44.2290   35.1250   45.3970 F   0  0  0  0  0  0  0  0  0  0  0  0
   46.2910   34.4700   44.7920 F   0  0  0  0  0  0  0  0  0  0  0  0
   45.3550   36.3270   43.8590 F   0  0  0  0  0  0  0  0  0  0  0  0
   47.2633   35.4012   42.5259 H   0  0  0  0  0  0  0  0  0  0  0  0
   49.2708   34.7435   41.1166 H   0  0  0  0  0  0  0  0  0  0  0  0
   45.3099   34.1393   37.1747 H   0  0  0  0  0  0  0  0  0  0  0  0
   44.9492   32.8476   35.0632 H   0  0  0  0  0  0  0  0  0  0  0  0
   46.0431   30.6444   34.8355 H   0  0  0  0  0  0  0  0  0  0  0  0
   47.4612   29.6816   36.5992 H   0  0  0  0  0  0  0  0  0  0  0  0
   47.7932   31.0026   38.6868 H   0  0  0  0  0  0  0  0  0  0  0  0
  1  2  2  0
  1 13  1  0
  3  2  1  0
  4  3  2  0
  5  4  1  0
  5  6  2  0
  6  1  1  0
  7  5  1  0
  8  7  2  0
  9  8  1  0
 10  9  2  0
 10 11  1  0
 11 12  2  0
 12  7  1  0
 13 15  1  0
 14 13  2  0
 15 16  1  0
 16 18  1  0
 16 17  1  0
 19 16  1  0
  2 20  1  0
  3 21  1  0
  8 22  1  0
  9 23  1  0
 10 24  1  0
 11 25  1  0
 12 26  1  0
M  ISO  7  20  14  21  14  22  14  23  14  24  14  25  14  26  14
M  END
>  <minimizedAffinity>  (1) 
-4.18366194

>  <minimizedRMSD>  (1) 
0.642985225

$$$$
