
     RDKit          3D

 51 54  0  0  1  0  0  0  0  0999 V2000
   43.4510   33.5440   41.2620 C   0  0  1  0  0  0  0  0  0  0  0  0
   41.9850   33.5960   41.1670 C   0  0  0  0  0  0  0  0  0  0  0  0
   41.3670   34.8540   40.8500 C   0  0  0  0  0  0  0  0  0  0  0  0
   39.9700   34.9390   40.7480 C   0  0  0  0  0  0  0  0  0  0  0  0
   39.2740   33.7980   40.9610 N   0  0  0  0  0  0  0  0  0  0  0  0
   39.8620   32.6530   41.2520 C   0  0  0  0  0  0  0  0  0  0  0  0
   41.2110   32.5280   41.3590 N   0  0  0  0  0  0  0  0  0  0  0  0
   39.0780   31.4120   41.4750 C   0  0  0  0  0  0  0  0  0  0  0  0
   39.7320   30.3150   42.0610 C   0  0  0  0  0  0  0  0  0  0  0  0
   38.3180   29.0810   42.0950 S   0  0  0  0  0  0  0  0  0  0  0  0
   37.1420   30.3180   41.3050 C   0  0  0  0  0  0  0  0  0  0  0  0
   37.8230   31.1820   41.1930 N   0  0  0  0  0  0  0  0  0  0  0  0
   44.0630   33.8940   39.9230 C   0  0  0  0  0  0  0  0  0  0  0  0
   43.9860   34.4370   42.3170 C   0  0  0  0  0  0  0  0  0  0  0  0
   45.2320   34.0740   42.8720 N   0  0  0  0  0  0  0  0  0  0  0  0
   45.7040   32.9930   43.6740 C   0  0  0  0  0  0  0  0  0  0  0  0
   46.0960   31.8250   43.0620 C   0  0  0  0  0  0  0  0  0  0  0  0
   46.5620   30.7370   43.7740 C   0  0  0  0  0  0  0  0  0  0  0  0
   46.6120   30.8830   45.1020 N   0  0  0  0  0  0  0  0  0  0  0  0
   46.2280   32.0350   45.7030 C   0  0  0  0  0  0  0  0  0  0  0  0
   45.7670   33.1100   45.0210 N   0  0  0  0  0  0  0  0  0  0  0  0
   46.3150   32.1140   47.1860 C   0  0  0  0  0  0  0  0  0  0  0  0
   47.3370   31.1790   47.7760 C   0  0  0  0  0  0  0  0  0  0  0  0
   46.9830   31.2720   49.2590 C   0  0  0  0  0  0  0  0  0  0  0  0
   45.4780   31.4920   49.2950 C   0  0  0  0  0  0  0  0  0  0  0  0
   45.0400   31.6610   47.8520 C   0  0  0  0  0  0  0  0  0  0  0  0
   46.3550   34.8950   42.6600 C   0  0  0  0  0  0  0  0  0  0  0  0
   47.3460   34.6330   43.5600 F   0  0  0  0  0  0  0  0  0  0  0  0
   45.8780   36.2050   42.9740 F   0  0  0  0  0  0  0  0  0  0  0  0
   46.8360   34.9020   41.3790 F   0  0  0  0  0  0  0  0  0  0  0  0
   43.7251   32.5164   41.5430 H   0  0  0  0  0  0  0  0  0  0  0  0
   41.9873   35.7478   40.6878 H   0  0  0  0  0  0  0  0  0  0  0  0
   39.4655   35.8863   40.5068 H   0  0  0  0  0  0  0  0  0  0  0  0
   40.7726   30.2097   42.4016 H   0  0  0  0  0  0  0  0  0  0  0  0
   36.0815   30.2124   41.0326 H   0  0  0  0  0  0  0  0  0  0  0  0
   45.0079   34.4344   40.0817 H   0  0  0  0  0  0  0  0  0  0  0  0
   44.2589   32.9714   39.3570 H   0  0  0  0  0  0  0  0  0  0  0  0
   43.3671   34.5307   39.3570 H   0  0  0  0  0  0  0  0  0  0  0  0
   44.0927   35.4420   41.8828 H   0  0  0  0  0  0  0  0  0  0  0  0
   43.2664   34.3742   43.1466 H   0  0  0  0  0  0  0  0  0  0  0  0
   46.0362   31.7550   41.9659 H   0  0  0  0  0  0  0  0  0  0  0  0
   46.8734   29.8059   43.2779 H   0  0  0  0  0  0  0  0  0  0  0  0
   46.5593   33.1718   47.3633 H   0  0  0  0  0  0  0  0  0  0  0  0
   47.2172   30.1544   47.3942 H   0  0  0  0  0  0  0  0  0  0  0  0
   48.3803   31.4344   47.5387 H   0  0  0  0  0  0  0  0  0  0  0  0
   47.2494   30.3398   49.7787 H   0  0  0  0  0  0  0  0  0  0  0  0
   47.5299   32.0826   49.7629 H   0  0  0  0  0  0  0  0  0  0  0  0
   44.9764   30.6234   49.7465 H   0  0  0  0  0  0  0  0  0  0  0  0
   45.2161   32.3732   49.8991 H   0  0  0  0  0  0  0  0  0  0  0  0
   44.2501   32.4211   47.7609 H   0  0  0  0  0  0  0  0  0  0  0  0
   44.6094   30.7501   47.4105 H   0  0  0  0  0  0  0  0  0  0  0  0
  1 14  1  0
  2  1  1  0
  2  7  1  0
  3  2  2  0
  4  3  1  0
  4  5  2  0
  5  6  1  0
  6  7  2  0
  6  8  1  0
  8  9  2  0
  9 10  1  0
 11 10  1  0
 12 11  2  0
 12  8  1  0
 13  1  1  0
 14 15  1  0
 15 16  1  0
 16 21  1  0
 17 16  2  0
 17 18  1  0
 18 19  2  0
 19 20  1  0
 20 22  1  0
 21 20  2  0
 22 23  1  0
 22 26  1  0
 23 24  1  0
 24 25  1  0
 26 25  1  0
 27 15  1  0
 27 29  1  0
 27 28  1  0
 30 27  1  0
  1 31  1  1
  3 32  1  0
  4 33  1  0
  9 34  1  0
 11 35  1  0
 13 36  1  0
 13 37  1  0
 13 38  1  0
 14 39  1  0
 14 40  1  0
 17 41  1  0
 18 42  1  0
 22 43  1  0
 23 44  1  0
 23 45  1  0
 24 46  1  0
 24 47  1  0
 25 48  1  0
 25 49  1  0
 26 50  1  0
 26 51  1  0
M  ISO  8  31   8  32  14  33  14  34  14  35  14  36   8  37   8  38   8
M  ISO  8  39   8  40   8  41  14  42  14  43  13  44  13  45  13  46  13
M  ISO  5  47  13  48  13  49  13  50  13  51  13
M  END
>  <minimizedAffinity>  (1) 
-6.29634857

>  <minimizedRMSD>  (1) 
1.1587323

$$$$
