
     RDKit          3D

 50 53  0  0  1  0  0  0  0  0999 V2000
   44.0710   34.4300   42.2900 C   0  0  0  0  0  0  0  0  0  0  0  0
   43.5170   33.5020   41.2750 C   0  0  1  0  0  0  0  0  0  0  0  0
   42.0470   33.5780   41.1880 C   0  0  0  0  0  0  0  0  0  0  0  0
   41.4410   34.8450   40.9000 C   0  0  0  0  0  0  0  0  0  0  0  0
   40.0440   34.9460   40.8090 C   0  0  0  0  0  0  0  0  0  0  0  0
   39.3350   33.8120   41.0020 N   0  0  0  0  0  0  0  0  0  0  0  0
   39.9230   32.6390   41.2700 C   0  0  0  0  0  0  0  0  0  0  0  0
   41.2710   32.4980   41.3670 N   0  0  0  0  0  0  0  0  0  0  0  0
   39.1110   31.4300   41.4730 C   0  0  0  0  0  0  0  0  0  0  0  0
   39.7460   30.3200   42.0590 C   0  0  0  0  0  0  0  0  0  0  0  0
   38.3200   29.0990   42.0920 S   0  0  0  0  0  0  0  0  0  0  0  0
   37.1640   30.3570   41.3040 C   0  0  0  0  0  0  0  0  0  0  0  0
   37.8540   31.2250   41.1870 N   0  0  0  0  0  0  0  0  0  0  0  0
   44.1190   33.7920   39.9220 C   0  0  0  0  0  0  0  0  0  0  0  0
   45.3340   34.0890   42.8240 N   0  0  0  0  0  0  0  0  0  0  0  0
   45.8380   33.0250   43.6280 C   0  0  0  0  0  0  0  0  0  0  0  0
   46.3470   31.9000   43.0170 C   0  0  0  0  0  0  0  0  0  0  0  0
   46.8460   30.8340   43.7360 C   0  0  0  0  0  0  0  0  0  0  0  0
   46.8090   30.9510   45.0700 N   0  0  0  0  0  0  0  0  0  0  0  0
   46.3070   32.0560   45.6660 C   0  0  0  0  0  0  0  0  0  0  0  0
   45.8170   33.1060   44.9790 N   0  0  0  0  0  0  0  0  0  0  0  0
   46.3050   32.0990   47.1000 N   0  0  0  0  0  0  0  0  0  0  0  0
   45.1200   32.2330   47.9240 C   0  0  0  0  0  0  0  0  0  0  0  0
   45.5190   31.5930   49.2260 C   0  0  0  0  0  0  0  0  0  0  0  0
   46.9850   31.3200   49.1980 C   0  0  0  0  0  0  0  0  0  0  0  0
   47.4650   32.0170   47.9670 C   0  0  0  0  0  0  0  0  0  0  0  0
   46.4370   34.9230   42.5780 C   0  0  0  0  0  0  0  0  0  0  0  0
   47.4530   34.6890   43.4650 F   0  0  0  0  0  0  0  0  0  0  0  0
   45.9490   36.2320   42.8800 F   0  0  0  0  0  0  0  0  0  0  0  0
   46.9020   34.9180   41.2920 F   0  0  0  0  0  0  0  0  0  0  0  0
   43.3562   34.4800   43.1246 H   0  0  0  0  0  0  0  0  0  0  0  0
   44.2216   35.3847   41.7648 H   0  0  0  0  0  0  0  0  0  0  0  0
   43.7801   32.4823   41.5928 H   0  0  0  0  0  0  0  0  0  0  0  0
   42.0692   35.7356   40.7507 H   0  0  0  0  0  0  0  0  0  0  0  0
   39.5493   35.9039   40.5907 H   0  0  0  0  0  0  0  0  0  0  0  0
   40.7846   30.2009   42.4012 H   0  0  0  0  0  0  0  0  0  0  0  0
   36.1019   30.2624   41.0337 H   0  0  0  0  0  0  0  0  0  0  0  0
   45.1030   34.2660   40.0525 H   0  0  0  0  0  0  0  0  0  0  0  0
   44.2362   32.8515   39.3636 H   0  0  0  0  0  0  0  0  0  0  0  0
   43.4566   34.4698   39.3636 H   0  0  0  0  0  0  0  0  0  0  0  0
   46.3557   31.8502   41.9182 H   0  0  0  0  0  0  0  0  0  0  0  0
   47.2513   29.9386   43.2421 H   0  0  0  0  0  0  0  0  0  0  0  0
   44.8612   33.2921   48.0702 H   0  0  0  0  0  0  0  0  0  0  0  0
   44.2316   31.7665   47.4734 H   0  0  0  0  0  0  0  0  0  0  0  0
   45.2853   32.2725   50.0589 H   0  0  0  0  0  0  0  0  0  0  0  0
   44.9662   30.6522   49.3649 H   0  0  0  0  0  0  0  0  0  0  0  0
   47.4750   31.7290   50.0939 H   0  0  0  0  0  0  0  0  0  0  0  0
   47.2127   30.2439   49.1883 H   0  0  0  0  0  0  0  0  0  0  0  0
   48.2672   31.4393   47.4845 H   0  0  0  0  0  0  0  0  0  0  0  0
   47.8810   33.0100   48.1924 H   0  0  0  0  0  0  0  0  0  0  0  0
  1 15  1  0
  2  1  1  0
  3  2  1  0
  3  8  1  0
  4  3  2  0
  5  4  1  0
  5  6  2  0
  6  7  1  0
  7  8  2  0
  7  9  1  0
  9 10  2  0
 10 11  1  0
 12 11  1  0
 13 12  2  0
 13  9  1  0
 14  2  1  0
 15 16  1  0
 16 21  1  0
 17 16  2  0
 17 18  1  0
 18 19  2  0
 19 20  1  0
 20 22  1  0
 21 20  2  0
 22 23  1  0
 22 26  1  0
 23 24  1  0
 25 24  1  0
 26 25  1  0
 27 15  1  0
 27 29  1  0
 27 28  1  0
 30 27  1  0
  1 31  1  0
  1 32  1  0
  2 33  1  1
  4 34  1  0
  5 35  1  0
 10 36  1  0
 12 37  1  0
 14 38  1  0
 14 39  1  0
 14 40  1  0
 17 41  1  0
 18 42  1  0
 23 43  1  0
 23 44  1  0
 24 45  1  0
 24 46  1  0
 25 47  1  0
 25 48  1  0
 26 49  1  0
 26 50  1  0
M  ISO  8  31   8  32   8  33   8  34  14  35  14  36  14  37  14  38   8
M  ISO  8  39   8  40   8  41  14  42  14  43  13  44  13  45  13  46  13
M  ISO  4  47  13  48  13  49  13  50  13
M  END
>  <minimizedAffinity>  (1) 
-6.55525017

>  <minimizedRMSD>  (1) 
1.18039274

$$$$
