
     RDKit          3D

 51 54  0  0  1  0  0  0  0  0999 V2000
   44.3930   34.3880   42.3440 C   0  0  0  0  0  0  0  0  0  0  0  0
   43.7700   33.4480   41.3820 C   0  0  1  0  0  0  0  0  0  0  0  0
   42.3040   33.5770   41.3360 C   0  0  0  0  0  0  0  0  0  0  0  0
   41.7380   34.8770   41.1550 C   0  0  0  0  0  0  0  0  0  0  0  0
   40.3440   35.0340   41.1040 C   0  0  0  0  0  0  0  0  0  0  0  0
   39.6060   33.9120   41.2320 N   0  0  0  0  0  0  0  0  0  0  0  0
   40.1450   32.7200   41.3990 C   0  0  0  0  0  0  0  0  0  0  0  0
   41.4900   32.5280   41.4530 N   0  0  0  0  0  0  0  0  0  0  0  0
   39.3100   31.5020   41.5330 C   0  0  0  0  0  0  0  0  0  0  0  0
   39.8970   30.3550   42.1020 C   0  0  0  0  0  0  0  0  0  0  0  0
   38.4420   29.1760   42.0240 S   0  0  0  0  0  0  0  0  0  0  0  0
   37.3340   30.5000   41.2280 C   0  0  0  0  0  0  0  0  0  0  0  0
   38.0630   31.3310   41.1880 N   0  0  0  0  0  0  0  0  0  0  0  0
   44.3480   33.6650   40.0010 C   0  0  0  0  0  0  0  0  0  0  0  0
   45.7040   34.0770   42.7630 N   0  0  0  0  0  0  0  0  0  0  0  0
   46.3010   33.0170   43.5070 C   0  0  0  0  0  0  0  0  0  0  0  0
   46.9420   32.0020   42.8360 C   0  0  0  0  0  0  0  0  0  0  0  0
   47.5360   30.9440   43.4960 C   0  0  0  0  0  0  0  0  0  0  0  0
   47.4550   30.9630   44.8350 N   0  0  0  0  0  0  0  0  0  0  0  0
   46.8250   31.9610   45.4900 C   0  0  0  0  0  0  0  0  0  0  0  0
   46.2390   33.0030   44.8600 N   0  0  0  0  0  0  0  0  0  0  0  0
   46.7930   31.8890   46.9150 N   0  0  0  0  0  0  0  0  0  0  0  0
   47.8870   31.2340   47.6110 C   0  0  0  0  0  0  0  0  0  0  0  0
   47.5960   31.0580   49.0610 C   0  0  0  0  0  0  0  0  0  0  0  0
   46.2170   30.7810   49.1850 O   0  0  0  0  0  0  0  0  0  0  0  0
   45.5790   31.9870   49.0440 C   0  0  0  0  0  0  0  0  0  0  0  0
   45.6740   32.4680   47.6440 C   0  0  0  0  0  0  0  0  0  0  0  0
   46.7620   34.9460   42.4420 C   0  0  0  0  0  0  0  0  0  0  0  0
   47.8160   34.8010   43.2980 F   0  0  0  0  0  0  0  0  0  0  0  0
   46.2300   36.2440   42.7150 F   0  0  0  0  0  0  0  0  0  0  0  0
   47.1680   34.9080   41.1360 F   0  0  0  0  0  0  0  0  0  0  0  0
   43.7547   34.4232   43.2392 H   0  0  0  0  0  0  0  0  0  0  0  0
   44.4761   35.3445   41.8071 H   0  0  0  0  0  0  0  0  0  0  0  0
   43.9975   32.4294   41.7295 H   0  0  0  0  0  0  0  0  0  0  0  0
   42.3945   35.7540   41.0557 H   0  0  0  0  0  0  0  0  0  0  0  0
   39.8776   36.0207   40.9668 H   0  0  0  0  0  0  0  0  0  0  0  0
   40.9167   30.1966   42.4829 H   0  0  0  0  0  0  0  0  0  0  0  0
   36.2837   30.4536   40.9045 H   0  0  0  0  0  0  0  0  0  0  0  0
   45.3745   34.0504   40.0895 H   0  0  0  0  0  0  0  0  0  0  0  0
   44.3606   32.7104   39.4546 H   0  0  0  0  0  0  0  0  0  0  0  0
   43.7292   34.3921   39.4546 H   0  0  0  0  0  0  0  0  0  0  0  0
   46.9830   32.0338   41.7372 H   0  0  0  0  0  0  0  0  0  0  0  0
   48.0458   30.1330   42.9552 H   0  0  0  0  0  0  0  0  0  0  0  0
   48.0547   30.2452   47.1593 H   0  0  0  0  0  0  0  0  0  0  0  0
   48.7801   31.8693   47.5170 H   0  0  0  0  0  0  0  0  0  0  0  0
   48.1852   30.2209   49.4637 H   0  0  0  0  0  0  0  0  0  0  0  0
   47.8617   31.9655   49.6231 H   0  0  0  0  0  0  0  0  0  0  0  0
   44.5193   31.8691   49.3145 H   0  0  0  0  0  0  0  0  0  0  0  0
   46.0611   32.7224   49.7049 H   0  0  0  0  0  0  0  0  0  0  0  0
   45.7931   33.5615   47.6570 H   0  0  0  0  0  0  0  0  0  0  0  0
   44.7525   32.1597   47.1285 H   0  0  0  0  0  0  0  0  0  0  0  0
  1 15  1  0
  2  1  1  0
  3  2  1  0
  3  8  1  0
  4  3  2  0
  5  4  1  0
  5  6  2  0
  6  7  1  0
  7  8  2  0
  7  9  1  0
  9 10  2  0
 11 10  1  0
 12 11  1  0
 13 12  2  0
 13  9  1  0
 14  2  1  0
 15 16  1  0
 16 21  2  0
 17 18  2  0
 17 16  1  0
 18 19  1  0
 19 20  2  0
 20 22  1  0
 21 20  1  0
 22 23  1  0
 22 27  1  0
 23 24  1  0
 24 25  1  0
 26 25  1  0
 27 26  1  0
 28 30  1  0
 28 15  1  0
 28 29  1  0
 31 28  1  0
  1 32  1  0
  1 33  1  0
  2 34  1  1
  4 35  1  0
  5 36  1  0
 10 37  1  0
 12 38  1  0
 14 39  1  0
 14 40  1  0
 14 41  1  0
 17 42  1  0
 18 43  1  0
 23 44  1  0
 23 45  1  0
 24 46  1  0
 24 47  1  0
 26 48  1  0
 26 49  1  0
 27 50  1  0
 27 51  1  0
M  ISO  8  32   8  33   8  34   8  35  14  36  14  37  14  38  14  39   8
M  ISO  8  40   8  41   8  42  14  43  14  44  13  45  13  46  13  47  13
M  ISO  4  48  13  49  13  50  13  51  13
M  END
>  <minimizedAffinity>  (1) 
-6.51445723

>  <minimizedRMSD>  (1) 
1.59096754

$$$$
