
     RDKit          3D

 41 43  0  0  1  0  0  0  0  0999 V2000
   43.5040   33.5260   41.2590 C   0  0  1  0  0  0  0  0  0  0  0  0
   42.0400   33.5840   41.1690 C   0  0  0  0  0  0  0  0  0  0  0  0
   41.4290   34.8410   40.8680 C   0  0  0  0  0  0  0  0  0  0  0  0
   40.0300   34.9500   40.7700 C   0  0  0  0  0  0  0  0  0  0  0  0
   39.3300   33.8080   40.9770 N   0  0  0  0  0  0  0  0  0  0  0  0
   39.9110   32.6450   41.2570 C   0  0  0  0  0  0  0  0  0  0  0  0
   41.2650   32.5150   41.3570 N   0  0  0  0  0  0  0  0  0  0  0  0
   39.1200   31.4270   41.4740 C   0  0  0  0  0  0  0  0  0  0  0  0
   39.7680   30.3150   42.0640 C   0  0  0  0  0  0  0  0  0  0  0  0
   38.3390   29.1020   42.0970 S   0  0  0  0  0  0  0  0  0  0  0  0
   37.1630   30.3640   41.3020 C   0  0  0  0  0  0  0  0  0  0  0  0
   37.8610   31.2070   41.1940 N   0  0  0  0  0  0  0  0  0  0  0  0
   44.1100   33.6800   39.8810 C   0  0  0  0  0  0  0  0  0  0  0  0
   44.0600   34.5460   42.1790 C   0  0  0  0  0  0  0  0  0  0  0  0
   45.2790   34.2260   42.8130 N   0  0  0  0  0  0  0  0  0  0  0  0
   45.6990   33.2370   43.7500 C   0  0  0  0  0  0  0  0  0  0  0  0
   46.3380   32.1070   43.2950 C   0  0  0  0  0  0  0  0  0  0  0  0
   46.7670   31.1150   44.1610 C   0  0  0  0  0  0  0  0  0  0  0  0
   46.5300   31.3100   45.4540 N   0  0  0  0  0  0  0  0  0  0  0  0
   45.8950   32.4310   45.9060 C   0  0  0  0  0  0  0  0  0  0  0  0
   45.4790   33.3930   45.0740 N   0  0  0  0  0  0  0  0  0  0  0  0
   45.7200   32.4710   47.3910 C   0  0  0  0  0  0  0  0  0  0  0  0
   44.8110   33.4630   47.7030 F   0  0  0  0  0  0  0  0  0  0  0  0
   46.8980   32.6980   48.0460 F   0  0  0  0  0  0  0  0  0  0  0  0
   45.1180   31.2760   47.7270 F   0  0  0  0  0  0  0  0  0  0  0  0
   46.4250   34.9920   42.5420 C   0  0  0  0  0  0  0  0  0  0  0  0
   47.4260   34.7320   43.4340 F   0  0  0  0  0  0  0  0  0  0  0  0
   46.0110   36.3320   42.8120 F   0  0  0  0  0  0  0  0  0  0  0  0
   46.8800   34.9300   41.2540 F   0  0  0  0  0  0  0  0  0  0  0  0
   43.7668   32.5423   41.6753 H   0  0  0  0  0  0  0  0  0  0  0  0
   42.0579   35.7299   40.7118 H   0  0  0  0  0  0  0  0  0  0  0  0
   39.5341   35.9044   40.5393 H   0  0  0  0  0  0  0  0  0  0  0  0
   40.8074   30.1971   42.4041 H   0  0  0  0  0  0  0  0  0  0  0  0
   36.1005   30.2775   41.0305 H   0  0  0  0  0  0  0  0  0  0  0  0
   45.1722   33.9499   39.9756 H   0  0  0  0  0  0  0  0  0  0  0  0
   44.0204   32.7305   39.3328 H   0  0  0  0  0  0  0  0  0  0  0  0
   43.5780   34.4715   39.3328 H   0  0  0  0  0  0  0  0  0  0  0  0
   44.2168   35.4680   41.5999 H   0  0  0  0  0  0  0  0  0  0  0  0
   43.3245   34.6357   42.9920 H   0  0  0  0  0  0  0  0  0  0  0  0
   46.5128   31.9882   42.2155 H   0  0  0  0  0  0  0  0  0  0  0  0
   47.2780   30.2115   43.7970 H   0  0  0  0  0  0  0  0  0  0  0  0
  1 14  1  0
  2  1  1  0
  2  7  1  0
  3  2  2  0
  4  3  1  0
  4  5  2  0
  5  6  1  0
  6  7  2  0
  6  8  1  0
  8  9  2  0
  9 10  1  0
 11 10  1  0
 12 11  2  0
 12  8  1  0
 13  1  1  0
 14 15  1  0
 15 16  1  0
 16 21  1  0
 17 16  2  0
 17 18  1  0
 18 19  2  0
 19 20  1  0
 20 22  1  0
 21 20  2  0
 22 23  1  0
 22 25  1  0
 22 24  1  0
 26 28  1  0
 26 15  1  0
 26 27  1  0
 29 26  1  0
  1 30  1  1
  3 31  1  0
  4 32  1  0
  9 33  1  0
 11 34  1  0
 13 35  1  0
 13 36  1  0
 13 37  1  0
 14 38  1  0
 14 39  1  0
 17 40  1  0
 18 41  1  0
M  ISO  8  30   8  31  14  32  14  33  14  34  14  35   8  36   8  37   8
M  ISO  4  38   8  39   8  40  14  41  14
M  END
>  <minimizedAffinity>  (1) 
-6.0485673

>  <minimizedRMSD>  (1) 
0.799719632

$$$$
