
     RDKit          3D

 34 35  0  0  1  0  0  0  0  0999 V2000
   45.3120   31.0720   46.7350 N   0  0  0  0  0  0  0  0  0  0  0  0
   45.0660   29.6430   46.9120 C   0  0  0  0  0  0  0  0  0  0  0  0
   46.3710   29.0600   46.4040 C   0  0  0  0  0  0  0  0  0  0  0  0
   47.4160   29.9620   46.9560 C   0  0  0  0  0  0  0  0  0  0  0  0
   46.6470   31.3240   47.0030 C   0  0  2  0  0  0  0  0  0  0  0  0
   46.9970   31.8640   48.4080 C   0  0  0  0  0  0  0  0  0  0  0  0
   45.7230   31.9510   49.2480 C   0  0  0  0  0  0  0  0  0  0  0  0
   47.9690   30.9980   49.1500 C   0  0  0  0  0  0  0  0  0  0  0  0
   47.1960   32.2750   46.1660 O   0  0  0  0  0  0  0  0  0  0  0  0
   46.7220   32.5420   44.8390 C   0  0  0  0  0  0  0  0  0  0  0  0
   46.9060   31.6860   43.9610 O   0  0  0  0  0  0  0  0  0  0  0  0
   44.5820   35.4510   45.3340 C   0  0  0  0  0  0  0  0  0  0  0  0
   44.6770   36.1450   44.1390 C   0  0  0  0  0  0  0  0  0  0  0  0
   45.5060   35.6230   43.1460 C   0  0  0  0  0  0  0  0  0  0  0  0
   46.1730   34.4590   43.4170 N   0  0  0  0  0  0  0  0  0  0  0  0
   46.0350   33.8190   44.6220 C   0  0  0  0  0  0  0  0  0  0  0  0
   45.2500   34.3070   45.5700 N   0  0  0  0  0  0  0  0  0  0  0  0
   45.0946   31.3446   45.7658 H   0  0  0  0  0  0  0  0  0  0  0  0
   44.8949   29.3903   47.9688 H   0  0  0  0  0  0  0  0  0  0  0  0
   44.1703   29.2694   46.3943 H   0  0  0  0  0  0  0  0  0  0  0  0
   46.5085   28.0328   46.7727 H   0  0  0  0  0  0  0  0  0  0  0  0
   46.4051   28.9997   45.3062 H   0  0  0  0  0  0  0  0  0  0  0  0
   47.7342   29.6437   47.9597 H   0  0  0  0  0  0  0  0  0  0  0  0
   48.3460   29.9883   46.3691 H   0  0  0  0  0  0  0  0  0  0  0  0
   47.4624   32.8488   48.2546 H   0  0  0  0  0  0  0  0  0  0  0  0
   45.9860   31.9330   50.3159 H   0  0  0  0  0  0  0  0  0  0  0  0
   45.1943   32.8873   49.0163 H   0  0  0  0  0  0  0  0  0  0  0  0
   45.0719   31.0952   49.0163 H   0  0  0  0  0  0  0  0  0  0  0  0
   47.8234   31.1277   50.2326 H   0  0  0  0  0  0  0  0  0  0  0  0
   47.8011   29.9447   48.8811 H   0  0  0  0  0  0  0  0  0  0  0  0
   48.9960   31.2859   48.8811 H   0  0  0  0  0  0  0  0  0  0  0  0
   43.9317   35.8528   46.1250 H   0  0  0  0  0  0  0  0  0  0  0  0
   44.1167   37.0778   43.9782 H   0  0  0  0  0  0  0  0  0  0  0  0
   45.6200   36.1304   42.1767 H   0  0  0  0  0  0  0  0  0  0  0  0
  1  2  1  0
  1  5  1  0
  3  2  1  0
  3  4  1  0
  4  5  1  0
  5  9  1  6
  5  6  1  0
  6  8  1  0
  6  7  1  0
 10  9  1  0
 11 10  2  0
 12 17  2  0
 13 12  1  0
 14 15  1  0
 14 13  2  0
 15 16  2  0
 16 10  1  0
 16 17  1  0
  1 18  1  0
  2 19  1  0
  2 20  1  0
  3 21  1  0
  3 22  1  0
  4 23  1  0
  4 24  1  0
  6 25  1  0
  7 26  1  0
  7 27  1  0
  7 28  1  0
  8 29  1  0
  8 30  1  0
  8 31  1  0
 12 32  1  0
 13 33  1  0
 14 34  1  0
M  ISO  8  18   5  19  13  20  13  21  13  22  13  23  13  24  13  25   8
M  ISO  8  26   8  27   8  28   8  29   8  30   8  31   8  32  14  33  14
M  ISO  1  34  14
M  END
>  <minimizedAffinity>  (1) 
-4.77101135

>  <minimizedRMSD>  (1) 
2.45172548

$$$$
