
     RDKit          3D

 32 34  0  0  1  0  0  0  0  0999 V2000
   45.2990   30.9830   46.8550 N   0  0  0  0  0  0  0  0  0  0  0  0
   44.7780   29.6320   47.0670 C   0  0  0  0  0  0  0  0  0  0  0  0
   45.5550   28.8420   46.0320 C   0  0  0  0  0  0  0  0  0  0  0  0
   46.9400   29.3950   46.1080 C   0  0  0  0  0  0  0  0  0  0  0  0
   46.6490   30.8620   46.5080 C   0  0  2  0  0  0  0  0  0  0  0  0
   47.6700   31.0070   47.6260 C   0  0  0  0  0  0  0  0  0  0  0  0
   48.4100   29.9780   48.1390 C   0  0  0  0  0  0  0  0  0  0  0  0
   49.2180   30.4950   49.1320 C   0  0  0  0  0  0  0  0  0  0  0  0
   48.9230   31.8290   49.1700 C   0  0  0  0  0  0  0  0  0  0  0  0
   48.0090   32.0890   48.2690 O   0  0  0  0  0  0  0  0  0  0  0  0
   47.0370   31.8190   45.5990 O   0  0  0  0  0  0  0  0  0  0  0  0
   46.2510   32.2060   44.4660 C   0  0  0  0  0  0  0  0  0  0  0  0
   46.0360   31.3700   43.5710 O   0  0  0  0  0  0  0  0  0  0  0  0
   44.6770   35.3210   45.5150 C   0  0  0  0  0  0  0  0  0  0  0  0
   44.7110   36.1230   44.3600 C   0  0  0  0  0  0  0  0  0  0  0  0
   45.3000   35.5800   43.2180 C   0  0  0  0  0  0  0  0  0  0  0  0
   45.8100   34.2970   43.2970 N   0  0  0  0  0  0  0  0  0  0  0  0
   45.7390   33.5810   44.4540 C   0  0  0  0  0  0  0  0  0  0  0  0
   45.1830   34.0870   45.5460 N   0  0  0  0  0  0  0  0  0  0  0  0
   44.7802   31.4449   46.0945 H   0  0  0  0  0  0  0  0  0  0  0  0
   44.9888   29.2754   48.0860 H   0  0  0  0  0  0  0  0  0  0  0  0
   43.6857   29.5516   46.9651 H   0  0  0  0  0  0  0  0  0  0  0  0
   45.1304   28.9916   45.0284 H   0  0  0  0  0  0  0  0  0  0  0  0
   45.5244   27.7587   46.2206 H   0  0  0  0  0  0  0  0  0  0  0  0
   47.5399   28.8791   46.8721 H   0  0  0  0  0  0  0  0  0  0  0  0
   47.5246   29.2840   45.1829 H   0  0  0  0  0  0  0  0  0  0  0  0
   48.3689   28.9267   47.8181 H   0  0  0  0  0  0  0  0  0  0  0  0
   49.9419   29.9514   49.7568 H   0  0  0  0  0  0  0  0  0  0  0  0
   49.3796   32.5652   49.8479 H   0  0  0  0  0  0  0  0  0  0  0  0
   44.2156   35.7267   46.4274 H   0  0  0  0  0  0  0  0  0  0  0  0
   44.2895   37.1390   44.3574 H   0  0  0  0  0  0  0  0  0  0  0  0
   45.3571   36.1554   42.2822 H   0  0  0  0  0  0  0  0  0  0  0  0
  1  2  1  0
  3  4  1  0
  3  2  1  0
  4  5  1  0
  5 11  1  6
  5  1  1  0
  5  6  1  0
  6  7  2  0
  6 10  1  0
  7  8  1  0
  8  9  2  0
 10  9  1  0
 12 11  1  0
 13 12  2  0
 14 19  2  0
 15 14  1  0
 16 17  1  0
 16 15  2  0
 17 18  2  0
 18 12  1  0
 18 19  1  0
  1 20  1  0
  2 21  1  0
  2 22  1  0
  3 23  1  0
  3 24  1  0
  4 25  1  0
  4 26  1  0
  7 27  1  0
  8 28  1  0
  9 29  1  0
 14 30  1  0
 15 31  1  0
 16 32  1  0
M  ISO  8  20   5  21  13  22  13  23  13  24  13  25  13  26  13  27  14
M  ISO  5  28  14  29  14  30  14  31  14  32  14
M  END
>  <minimizedAffinity>  (1) 
-4.49748755

>  <minimizedRMSD>  (1) 
3.81942654

$$$$
