
     RDKit          3D

 31 33  0  0  1  0  0  0  0  0999 V2000
   47.0780   31.9030   47.6550 N   0  0  0  0  0  0  0  0  0  0  0  0
   46.8360   31.5470   49.0530 C   0  0  0  0  0  0  0  0  0  0  0  0
   45.3540   31.2260   49.0220 C   0  0  0  0  0  0  0  0  0  0  0  0
   45.1690   30.4600   47.7520 C   0  0  0  0  0  0  0  0  0  0  0  0
   46.2660   31.0940   46.8540 C   0  0  2  0  0  0  0  0  0  0  0  0
   46.9050   29.8200   46.3180 C   0  0  0  0  0  0  0  0  0  0  0  0
   48.0450   29.9550   45.3820 C   0  0  0  0  0  0  0  0  0  0  0  0
   48.4770   28.2570   45.0320 S   0  0  0  0  0  0  0  0  0  0  0  0
   47.1000   27.5910   46.1620 C   0  0  0  0  0  0  0  0  0  0  0  0
   46.4680   28.6130   46.6800 N   0  0  0  0  0  0  0  0  0  0  0  0
   45.8110   31.7650   45.7470 O   0  0  0  0  0  0  0  0  0  0  0  0
   45.7330   33.1890   45.6400 C   0  0  0  0  0  0  0  0  0  0  0  0
   45.2190   33.8300   46.5710 O   0  0  0  0  0  0  0  0  0  0  0  0
   48.0020   34.0270   42.9120 C   0  0  0  0  0  0  0  0  0  0  0  0
   47.3240   35.0180   42.2040 C   0  0  0  0  0  0  0  0  0  0  0  0
   46.0600   35.3930   42.6570 C   0  0  0  0  0  0  0  0  0  0  0  0
   45.5670   34.7590   43.7760 N   0  0  0  0  0  0  0  0  0  0  0  0
   46.2880   33.7940   44.4250 C   0  0  0  0  0  0  0  0  0  0  0  0
   47.4810   33.4370   43.9980 N   0  0  0  0  0  0  0  0  0  0  0  0
   46.8433   32.8941   47.5014 H   0  0  0  0  0  0  0  0  0  0  0  0
   47.4317   30.6731   49.3555 H   0  0  0  0  0  0  0  0  0  0  0  0
   47.1136   32.3306   49.7733 H   0  0  0  0  0  0  0  0  0  0  0  0
   45.0694   30.6145   49.8910 H   0  0  0  0  0  0  0  0  0  0  0  0
   44.7273   32.1290   49.0634 H   0  0  0  0  0  0  0  0  0  0  0  0
   45.3426   29.3841   47.9014 H   0  0  0  0  0  0  0  0  0  0  0  0
   44.1535   30.5189   47.3334 H   0  0  0  0  0  0  0  0  0  0  0  0
   48.5109   30.8742   44.9972 H   0  0  0  0  0  0  0  0  0  0  0  0
   46.8740   26.5306   46.3479 H   0  0  0  0  0  0  0  0  0  0  0  0
   48.9999   33.7178   42.5678 H   0  0  0  0  0  0  0  0  0  0  0  0
   47.7718   35.4889   41.3165 H   0  0  0  0  0  0  0  0  0  0  0  0
   45.4766   36.1683   42.1388 H   0  0  0  0  0  0  0  0  0  0  0  0
  1  2  1  0
  3  2  1  0
  4  3  1  0
  5 11  1  6
  5  1  1  0
  5  4  1  0
  6 10  1  0
  6  5  1  0
  7  6  2  0
  8  7  1  0
  8  9  1  0
  9 10  2  0
 12 11  1  0
 12 13  2  0
 14 19  2  0
 15 16  2  0
 15 14  1  0
 16 17  1  0
 17 18  2  0
 18 12  1  0
 19 18  1  0
  1 20  1  0
  2 21  1  0
  2 22  1  0
  3 23  1  0
  3 24  1  0
  4 25  1  0
  4 26  1  0
  7 27  1  0
  9 28  1  0
 14 29  1  0
 15 30  1  0
 16 31  1  0
M  ISO  8  20   5  21  13  22  13  23  13  24  13  25  13  26  13  27  14
M  ISO  4  28  14  29  14  30  14  31  14
M  END
>  <minimizedAffinity>  (1) 
-4.28740406

>  <minimizedRMSD>  (1) 
4.22469854

$$$$
