
     RDKit          3D

 35 37  0  0  1  0  0  0  0  0999 V2000
   47.0200   30.6890   47.6310 N   0  0  0  0  0  0  0  0  0  0  0  0
   47.0120   31.0620   49.0530 C   0  0  0  0  0  0  0  0  0  0  0  0
   45.8540   32.0240   49.1090 C   0  0  0  0  0  0  0  0  0  0  0  0
   44.8040   31.3700   48.2670 C   0  0  0  0  0  0  0  0  0  0  0  0
   45.6760   30.6210   47.2280 C   0  0  2  0  0  0  0  0  0  0  0  0
   45.1100   29.2260   47.2210 C   0  0  0  0  0  0  0  0  0  0  0  0
   45.1620   28.0670   47.9710 C   0  0  0  0  0  0  0  0  0  0  0  0
   44.3610   27.1390   47.3540 C   0  0  0  0  0  0  0  0  0  0  0  0
   43.8330   27.7190   46.2510 N   0  0  0  0  0  0  0  0  0  0  0  0
   44.2870   28.9750   46.1770 N   0  0  0  0  0  0  0  0  0  0  0  0
   45.5200   31.0470   45.9370 O   0  0  0  0  0  0  0  0  0  0  0  0
   46.3490   32.0290   45.2870 C   0  0  0  0  0  0  0  0  0  0  0  0
   47.5260   31.7600   45.0430 O   0  0  0  0  0  0  0  0  0  0  0  0
   44.6890   35.2650   45.6190 C   0  0  0  0  0  0  0  0  0  0  0  0
   44.3900   35.6290   44.2970 C   0  0  0  0  0  0  0  0  0  0  0  0
   44.7770   34.7380   43.2890 C   0  0  0  0  0  0  0  0  0  0  0  0
   45.4160   33.5800   43.6480 N   0  0  0  0  0  0  0  0  0  0  0  0
   45.6690   33.3030   44.9710 C   0  0  0  0  0  0  0  0  0  0  0  0
   45.3110   34.1340   45.9350 N   0  0  0  0  0  0  0  0  0  0  0  0
   44.5170   35.0090   41.8500 C   0  0  0  0  0  0  0  0  0  0  0  0
   45.6380   34.8430   41.0610 F   0  0  0  0  0  0  0  0  0  0  0  0
   43.5680   34.1220   41.4010 F   0  0  0  0  0  0  0  0  0  0  0  0
   43.9640   36.2810   41.6790 F   0  0  0  0  0  0  0  0  0  0  0  0
   47.5211   31.4001   47.0796 H   0  0  0  0  0  0  0  0  0  0  0  0
   46.8379   30.1868   49.6963 H   0  0  0  0  0  0  0  0  0  0  0  0
   47.9626   31.4857   49.4092 H   0  0  0  0  0  0  0  0  0  0  0  0
   45.5022   32.1536   50.1431 H   0  0  0  0  0  0  0  0  0  0  0  0
   46.1196   33.0299   48.7517 H   0  0  0  0  0  0  0  0  0  0  0  0
   44.1909   30.6725   48.8566 H   0  0  0  0  0  0  0  0  0  0  0  0
   44.0775   32.0691   47.8271 H   0  0  0  0  0  0  0  0  0  0  0  0
   45.7401   27.9155   48.8945 H   0  0  0  0  0  0  0  0  0  0  0  0
   44.1805   26.1088   47.6947 H   0  0  0  0  0  0  0  0  0  0  0  0
   43.1910   27.2698   45.5825 H   0  0  0  0  0  0  0  0  0  0  0  0
   44.3951   35.9469   46.4305 H   0  0  0  0  0  0  0  0  0  0  0  0
   43.8746   36.5723   44.0633 H   0  0  0  0  0  0  0  0  0  0  0  0
  1  2  1  0
  2  3  1  0
  4  3  1  0
  5 11  1  6
  5  1  1  0
  5  4  1  0
  6  5  1  0
  6  7  1  0
  8  7  2  0
  9  8  1  0
 10  9  1  0
 10  6  2  0
 12 11  1  0
 13 12  2  0
 14 19  2  0
 15 14  1  0
 16 17  1  0
 16 15  2  0
 17 18  2  0
 18 12  1  0
 18 19  1  0
 20 16  1  0
 21 20  1  0
 22 20  1  0
 23 20  1  0
  1 24  1  0
  2 25  1  0
  2 26  1  0
  3 27  1  0
  3 28  1  0
  4 29  1  0
  4 30  1  0
  7 31  1  0
  8 32  1  0
  9 33  1  0
 14 34  1  0
 15 35  1  0
M  ISO  8  24   5  25  13  26  13  27  13  28  13  29  13  30  13  31  14
M  ISO  4  32  14  33   9  34  14  35  14
M  END
>  <minimizedAffinity>  (1) 
-5.46292543

>  <minimizedRMSD>  (1) 
0.883881807

$$$$
