
     RDKit          3D

 23 24  0  0  0  0  0  0  0  0999 V2000
   45.8220   34.4540   41.1210 C   0  0  0  0  0  0  0  0  0  0  0  0
   47.0960   34.7920   41.5950 C   0  0  0  0  0  0  0  0  0  0  0  0
   48.2110   34.4000   40.8260 C   0  0  0  0  0  0  0  0  0  0  0  0
   47.9860   33.7140   39.6660 N   0  0  0  0  0  0  0  0  0  0  0  0
   46.7400   33.4180   39.2640 C   0  0  0  0  0  0  0  0  0  0  0  0
   45.6750   33.7840   39.9820 N   0  0  0  0  0  0  0  0  0  0  0  0
   46.4330   32.6880   38.0350 C   0  0  0  0  0  0  0  0  0  0  0  0
   46.6970   31.3910   37.6280 C   0  0  0  0  0  0  0  0  0  0  0  0
   46.1500   31.2810   36.3440 C   0  0  0  0  0  0  0  0  0  0  0  0
   45.5900   32.5190   36.0590 C   0  0  0  0  0  0  0  0  0  0  0  0
   45.7720   33.3250   37.0710 O   0  0  0  0  0  0  0  0  0  0  0  0
   44.6800   34.8620   41.9190 C   0  0  0  0  0  0  0  0  0  0  0  0
   43.8120   35.6420   41.4080 O   0  0  0  0  0  0  0  0  0  0  0  0
   44.5770   34.3750   43.2360 O   0  0  0  0  0  0  0  0  0  0  0  0
   45.0510   35.1800   44.2830 C   0  0  0  0  0  0  0  0  0  0  0  0
   44.1200   35.3150   45.3060 F   0  0  0  0  0  0  0  0  0  0  0  0
   46.1990   34.6200   44.8190 F   0  0  0  0  0  0  0  0  0  0  0  0
   45.3270   36.4250   43.7460 F   0  0  0  0  0  0  0  0  0  0  0  0
   47.2226   35.3456   42.5371 H   0  0  0  0  0  0  0  0  0  0  0  0
   49.2341   34.6399   41.1511 H   0  0  0  0  0  0  0  0  0  0  0  0
   47.2258   30.6106   38.1949 H   0  0  0  0  0  0  0  0  0  0  0  0
   46.1616   30.3941   35.6933 H   0  0  0  0  0  0  0  0  0  0  0  0
   45.0724   32.7811   35.1244 H   0  0  0  0  0  0  0  0  0  0  0  0
  1  2  2  0
  1 12  1  0
  3  2  1  0
  4  3  2  0
  5  4  1  0
  5  6  2  0
  6  1  1  0
  7  5  1  0
  8  7  2  0
  9  8  1  0
 10  9  2  0
 10 11  1  0
 11  7  1  0
 12 14  1  0
 13 12  2  0
 14 15  1  0
 15 17  1  0
 15 16  1  0
 18 15  1  0
  2 19  1  0
  3 20  1  0
  8 21  1  0
  9 22  1  0
 10 23  1  0
M  ISO  5  19  14  20  14  21  14  22  14  23  14
M  END
>  <minimizedAffinity>  (1) 
-4.05777454

>  <minimizedRMSD>  (1) 
0.672656596

$$$$
