
     RDKit          3D

 23 24  0  0  0  0  0  0  0  0999 V2000
   45.8550   34.4260   41.1200 C   0  0  0  0  0  0  0  0  0  0  0  0
   47.1330   34.7950   41.5550 C   0  0  0  0  0  0  0  0  0  0  0  0
   48.2380   34.4590   40.7520 C   0  0  0  0  0  0  0  0  0  0  0  0
   48.0000   33.7900   39.5910 N   0  0  0  0  0  0  0  0  0  0  0  0
   46.7420   33.4550   39.2130 C   0  0  0  0  0  0  0  0  0  0  0  0
   45.7040   33.7760   39.9790 N   0  0  0  0  0  0  0  0  0  0  0  0
   46.5570   32.7360   37.9540 C   0  0  0  0  0  0  0  0  0  0  0  0
   45.6620   33.2140   37.0180 C   0  0  0  0  0  0  0  0  0  0  0  0
   45.7200   32.3200   35.9520 C   0  0  0  0  0  0  0  0  0  0  0  0
   46.6200   31.3500   36.2580 N   0  0  0  0  0  0  0  0  0  0  0  0
   47.1290   31.5960   37.4670 N   0  0  0  0  0  0  0  0  0  0  0  0
   44.7300   34.7830   41.9650 C   0  0  0  0  0  0  0  0  0  0  0  0
   43.8470   35.5790   41.5090 O   0  0  0  0  0  0  0  0  0  0  0  0
   44.6590   34.2330   43.2600 O   0  0  0  0  0  0  0  0  0  0  0  0
   45.1780   34.9970   44.3290 C   0  0  0  0  0  0  0  0  0  0  0  0
   44.2870   35.0570   45.4030 F   0  0  0  0  0  0  0  0  0  0  0  0
   46.3520   34.4380   44.7700 F   0  0  0  0  0  0  0  0  0  0  0  0
   45.3650   36.2770   43.8570 F   0  0  0  0  0  0  0  0  0  0  0  0
   47.2703   35.3354   42.5032 H   0  0  0  0  0  0  0  0  0  0  0  0
   49.2613   34.7283   41.0527 H   0  0  0  0  0  0  0  0  0  0  0  0
   45.0340   34.1136   37.0976 H   0  0  0  0  0  0  0  0  0  0  0  0
   45.1369   32.3878   35.0217 H   0  0  0  0  0  0  0  0  0  0  0  0
   46.8694   30.5534   35.6546 H   0  0  0  0  0  0  0  0  0  0  0  0
  1  2  2  0
  1 12  1  0
  3  2  1  0
  4  3  2  0
  5  4  1  0
  5  6  2  0
  6  1  1  0
  7  5  1  0
  8  7  1  0
  9 10  1  0
  9  8  2  0
 10 11  1  0
 11  7  2  0
 12 14  1  0
 13 12  2  0
 14 15  1  0
 15 17  1  0
 15 16  1  0
 18 15  1  0
  2 19  1  0
  3 20  1  0
  8 21  1  0
  9 22  1  0
 10 23  1  0
M  ISO  5  19  14  20  14  21  14  22  14  23   9
M  END
>  <minimizedAffinity>  (1) 
-4.05707979

>  <minimizedRMSD>  (1) 
0.718994439

$$$$
