
     RDKit          3D

 39 42  0  0  1  0  0  0  0  0999 V2000
   47.2620   31.2020   47.4050 N   0  0  0  0  0  0  0  0  0  0  0  0
   47.2430   31.5790   48.8220 C   0  0  0  0  0  0  0  0  0  0  0  0
   45.9390   32.2960   48.9160 C   0  0  0  0  0  0  0  0  0  0  0  0
   45.0050   31.4210   48.1350 C   0  0  0  0  0  0  0  0  0  0  0  0
   45.9560   30.8460   47.0550 C   0  0  2  0  0  0  0  0  0  0  0  0
   45.6780   29.3870   47.0770 C   0  0  0  0  0  0  0  0  0  0  0  0
   46.3310   28.2050   47.4000 C   0  0  0  0  0  0  0  0  0  0  0  0
   45.4870   27.1710   47.1950 C   0  0  0  0  0  0  0  0  0  0  0  0
   44.3120   27.7020   46.7460 N   0  0  0  0  0  0  0  0  0  0  0  0
   44.4460   29.0290   46.6840 N   0  0  0  0  0  0  0  0  0  0  0  0
   45.6580   31.2210   45.7770 O   0  0  0  0  0  0  0  0  0  0  0  0
   46.3660   32.1930   45.0010 C   0  0  0  0  0  0  0  0  0  0  0  0
   47.4920   31.9150   44.5670 O   0  0  0  0  0  0  0  0  0  0  0  0
   44.6490   35.3680   45.5990 C   0  0  0  0  0  0  0  0  0  0  0  0
   44.3240   35.7860   44.2960 C   0  0  0  0  0  0  0  0  0  0  0  0
   44.6870   34.9930   43.2270 C   0  0  0  0  0  0  0  0  0  0  0  0
   45.3500   33.8290   43.5030 N   0  0  0  0  0  0  0  0  0  0  0  0
   45.6400   33.4740   44.8000 C   0  0  0  0  0  0  0  0  0  0  0  0
   45.2990   34.2220   45.8160 N   0  0  0  0  0  0  0  0  0  0  0  0
   44.4120   35.3240   41.9330 O   0  0  0  0  0  0  0  0  0  0  0  0
   43.1310   35.2740   41.4160 C   0  0  0  0  0  0  0  0  0  0  0  0
   43.3440   34.7740   40.1360 C   0  0  0  0  0  0  0  0  0  0  0  0
   41.6130   34.7150   39.4580 S   0  0  0  0  0  0  0  0  0  0  0  0
   40.9180   35.4050   41.1060 C   0  0  0  0  0  0  0  0  0  0  0  0
   41.8660   35.5170   41.6920 N   0  0  0  0  0  0  0  0  0  0  0  0
   47.5764   31.9981   46.8321 H   0  0  0  0  0  0  0  0  0  0  0  0
   47.2637   30.6937   49.4746 H   0  0  0  0  0  0  0  0  0  0  0  0
   48.1097   32.1766   49.1409 H   0  0  0  0  0  0  0  0  0  0  0  0
   45.6129   32.3844   49.9628 H   0  0  0  0  0  0  0  0  0  0  0  0
   45.9860   33.3255   48.5313 H   0  0  0  0  0  0  0  0  0  0  0  0
   44.5807   30.6238   48.7631 H   0  0  0  0  0  0  0  0  0  0  0  0
   44.1293   31.9481   47.7285 H   0  0  0  0  0  0  0  0  0  0  0  0
   47.3661   28.1241   47.7633 H   0  0  0  0  0  0  0  0  0  0  0  0
   45.7045   26.1052   47.3584 H   0  0  0  0  0  0  0  0  0  0  0  0
   43.4661   27.1695   46.4974 H   0  0  0  0  0  0  0  0  0  0  0  0
   44.3625   35.9967   46.4550 H   0  0  0  0  0  0  0  0  0  0  0  0
   43.7877   36.7322   44.1315 H   0  0  0  0  0  0  0  0  0  0  0  0
   44.2891   34.4881   39.6512 H   0  0  0  0  0  0  0  0  0  0  0  0
   39.8803   35.6281   41.3948 H   0  0  0  0  0  0  0  0  0  0  0  0
  1  2  1  0
  2  3  1  0
  4  3  1  0
  5 11  1  6
  5  6  1  0
  5  1  1  0
  5  4  1  0
  6  7  1  0
  8  7  2  0
  9  8  1  0
 10  9  1  0
 10  6  2  0
 12 11  1  0
 13 12  2  0
 14 19  2  0
 15 14  1  0
 16 17  1  0
 16 15  2  0
 17 18  2  0
 18 12  1  0
 18 19  1  0
 20 16  1  0
 21 25  1  0
 21 20  1  0
 22 21  2  0
 23 22  1  0
 23 24  1  0
 24 25  2  0
  1 26  1  0
  2 27  1  0
  2 28  1  0
  3 29  1  0
  3 30  1  0
  4 31  1  0
  4 32  1  0
  7 33  1  0
  8 34  1  0
  9 35  1  0
 14 36  1  0
 15 37  1  0
 22 38  1  0
 24 39  1  0
M  ISO  8  26   5  27  13  28  13  29  13  30  13  31  13  32  13  33  14
M  ISO  6  34  14  35   9  36  14  37  14  38  14  39  14
M  END
>  <minimizedAffinity>  (1) 
-5.57450342

>  <minimizedRMSD>  (1) 
1.56042337

$$$$
