
     RDKit          3D

 40 43  0  0  1  0  0  0  0  0999 V2000
   47.2020   31.0970   47.3950 N   0  0  0  0  0  0  0  0  0  0  0  0
   47.2110   31.4860   48.8090 C   0  0  0  0  0  0  0  0  0  0  0  0
   45.9460   32.2700   48.9120 C   0  0  0  0  0  0  0  0  0  0  0  0
   44.9580   31.4700   48.1190 C   0  0  0  0  0  0  0  0  0  0  0  0
   45.8690   30.8320   47.0490 C   0  0  2  0  0  0  0  0  0  0  0  0
   45.4950   29.3940   47.0650 C   0  0  0  0  0  0  0  0  0  0  0  0
   46.0140   28.1930   47.5330 C   0  0  0  0  0  0  0  0  0  0  0  0
   45.1320   27.2010   47.2040 C   0  0  0  0  0  0  0  0  0  0  0  0
   44.0930   27.7850   46.5490 N   0  0  0  0  0  0  0  0  0  0  0  0
   44.3220   29.0990   46.4710 N   0  0  0  0  0  0  0  0  0  0  0  0
   45.6110   31.2310   45.7680 O   0  0  0  0  0  0  0  0  0  0  0  0
   46.3520   32.2220   45.0270 C   0  0  0  0  0  0  0  0  0  0  0  0
   47.4990   31.9730   44.6840 O   0  0  0  0  0  0  0  0  0  0  0  0
   44.6430   35.4240   45.4580 C   0  0  0  0  0  0  0  0  0  0  0  0
   44.2200   35.7270   44.1520 C   0  0  0  0  0  0  0  0  0  0  0  0
   44.5150   34.8440   43.1270 C   0  0  0  0  0  0  0  0  0  0  0  0
   45.2120   33.7130   43.4610 N   0  0  0  0  0  0  0  0  0  0  0  0
   45.5990   33.4740   44.7610 C   0  0  0  0  0  0  0  0  0  0  0  0
   45.3190   34.3110   45.7250 N   0  0  0  0  0  0  0  0  0  0  0  0
   44.1500   35.0430   41.8270 O   0  0  0  0  0  0  0  0  0  0  0  0
   42.8120   35.1060   41.4770 C   0  0  0  0  0  0  0  0  0  0  0  0
   42.3560   33.8020   41.2390 C   0  0  0  0  0  0  0  0  0  0  0  0
   41.0020   33.8660   40.8850 C   0  0  0  0  0  0  0  0  0  0  0  0
   40.7110   35.2350   40.9310 C   0  0  0  0  0  0  0  0  0  0  0  0
   41.7950   35.8810   41.2770 O   0  0  0  0  0  0  0  0  0  0  0  0
   47.5718   31.8638   46.8152 H   0  0  0  0  0  0  0  0  0  0  0  0
   47.1923   30.6053   49.4678 H   0  0  0  0  0  0  0  0  0  0  0  0
   48.1090   32.0430   49.1144 H   0  0  0  0  0  0  0  0  0  0  0  0
   45.6254   32.3589   49.9605 H   0  0  0  0  0  0  0  0  0  0  0  0
   46.0542   33.2991   48.5388 H   0  0  0  0  0  0  0  0  0  0  0  0
   44.4699   30.7043   48.7399 H   0  0  0  0  0  0  0  0  0  0  0  0
   44.1281   32.0626   47.7067 H   0  0  0  0  0  0  0  0  0  0  0  0
   46.9643   28.0634   48.0717 H   0  0  0  0  0  0  0  0  0  0  0  0
   45.2424   26.1296   47.4276 H   0  0  0  0  0  0  0  0  0  0  0  0
   43.2672   27.2958   46.1753 H   0  0  0  0  0  0  0  0  0  0  0  0
   44.4099   36.1221   46.2755 H   0  0  0  0  0  0  0  0  0  0  0  0
   43.6624   36.6528   43.9472 H   0  0  0  0  0  0  0  0  0  0  0  0
   42.9585   32.8850   41.3169 H   0  0  0  0  0  0  0  0  0  0  0  0
   40.3264   33.0360   40.6307 H   0  0  0  0  0  0  0  0  0  0  0  0
   39.7341   35.6912   40.7127 H   0  0  0  0  0  0  0  0  0  0  0  0
  1  2  1  0
  2  3  1  0
  4  3  1  0
  5 11  1  6
  5  6  1  0
  5  1  1  0
  5  4  1  0
  6  7  1  0
  8  7  2  0
  9  8  1  0
 10  9  1  0
 10  6  2  0
 12 11  1  0
 13 12  2  0
 14 19  2  0
 15 14  1  0
 16 17  1  0
 16 15  2  0
 17 18  2  0
 18 12  1  0
 18 19  1  0
 20 16  1  0
 21 20  1  0
 22 21  2  0
 23 24  2  0
 23 22  1  0
 24 25  1  0
 25 21  1  0
  1 26  1  0
  2 27  1  0
  2 28  1  0
  3 29  1  0
  3 30  1  0
  4 31  1  0
  4 32  1  0
  7 33  1  0
  8 34  1  0
  9 35  1  0
 14 36  1  0
 15 37  1  0
 22 38  1  0
 23 39  1  0
 24 40  1  0
M  ISO  8  26   5  27  13  28  13  29  13  30  13  31  13  32  13  33  14
M  ISO  7  34  14  35   9  36  14  37  14  38  14  39  14  40  14
M  END
>  <minimizedAffinity>  (1) 
-5.43045521

>  <minimizedRMSD>  (1) 
1.49045241

$$$$
