
     RDKit          3D

 40 43  0  0  1  0  0  0  0  0999 V2000
   47.0370   30.7190   47.6350 N   0  0  0  0  0  0  0  0  0  0  0  0
   47.0360   31.0310   49.0660 C   0  0  0  0  0  0  0  0  0  0  0  0
   45.8760   31.9640   49.1680 C   0  0  0  0  0  0  0  0  0  0  0  0
   44.8310   31.3320   48.2950 C   0  0  0  0  0  0  0  0  0  0  0  0
   45.6980   30.6410   47.2250 C   0  0  2  0  0  0  0  0  0  0  0  0
   45.1590   29.2550   47.1580 C   0  0  0  0  0  0  0  0  0  0  0  0
   45.2940   28.0450   47.8220 C   0  0  0  0  0  0  0  0  0  0  0  0
   44.4680   27.1430   47.2160 C   0  0  0  0  0  0  0  0  0  0  0  0
   43.8370   27.7810   46.2010 N   0  0  0  0  0  0  0  0  0  0  0  0
   44.2560   29.0510   46.1710 N   0  0  0  0  0  0  0  0  0  0  0  0
   45.5420   31.1200   45.9520 O   0  0  0  0  0  0  0  0  0  0  0  0
   46.3820   32.1110   45.3310 C   0  0  0  0  0  0  0  0  0  0  0  0
   47.5450   31.8210   45.0470 O   0  0  0  0  0  0  0  0  0  0  0  0
   44.5850   35.2520   45.8330 C   0  0  0  0  0  0  0  0  0  0  0  0
   44.5460   35.8070   44.5500 C   0  0  0  0  0  0  0  0  0  0  0  0
   45.1340   35.1040   43.5160 C   0  0  0  0  0  0  0  0  0  0  0  0
   45.7270   33.8960   43.8080 N   0  0  0  0  0  0  0  0  0  0  0  0
   45.7230   33.4190   45.0970 C   0  0  0  0  0  0  0  0  0  0  0  0
   45.1650   34.0850   46.0800 N   0  0  0  0  0  0  0  0  0  0  0  0
   45.1580   35.5480   42.2080 O   0  0  0  0  0  0  0  0  0  0  0  0
   42.1310   34.9300   40.4800 N   0  0  0  0  0  0  0  0  0  0  0  0
   42.8610   35.5740   41.3620 N   0  0  0  0  0  0  0  0  0  0  0  0
   44.1350   35.0860   41.3870 C   0  0  0  0  0  0  0  0  0  0  0  0
   44.1620   34.0660   40.4380 C   0  0  0  0  0  0  0  0  0  0  0  0
   42.8840   33.9890   39.8820 C   0  0  0  0  0  0  0  0  0  0  0  0
   47.5231   31.4617   47.1125 H   0  0  0  0  0  0  0  0  0  0  0  0
   46.8794   30.1277   49.6738 H   0  0  0  0  0  0  0  0  0  0  0  0
   47.9834   31.4526   49.4331 H   0  0  0  0  0  0  0  0  0  0  0  0
   45.5245   32.0402   50.2075 H   0  0  0  0  0  0  0  0  0  0  0  0
   46.1260   32.9894   48.8582 H   0  0  0  0  0  0  0  0  0  0  0  0
   44.2275   30.6026   48.8551 H   0  0  0  0  0  0  0  0  0  0  0  0
   44.0988   32.0440   47.8864 H   0  0  0  0  0  0  0  0  0  0  0  0
   45.9495   27.8475   48.6830 H   0  0  0  0  0  0  0  0  0  0  0  0
   44.3381   26.0884   47.5004 H   0  0  0  0  0  0  0  0  0  0  0  0
   43.1500   27.3590   45.5600 H   0  0  0  0  0  0  0  0  0  0  0  0
   44.1194   35.8013   46.6646 H   0  0  0  0  0  0  0  0  0  0  0  0
   44.0603   36.7772   44.3689 H   0  0  0  0  0  0  0  0  0  0  0  0
   41.1383   35.1162   40.2780 H   0  0  0  0  0  0  0  0  0  0  0  0
   45.0275   33.4395   40.1763 H   0  0  0  0  0  0  0  0  0  0  0  0
   42.5539   33.2891   39.1002 H   0  0  0  0  0  0  0  0  0  0  0  0
  1  2  1  0
  2  3  1  0
  4  3  1  0
  5 11  1  6
  5  1  1  0
  5  4  1  0
  6  5  1  0
  6  7  1  0
  8  7  2  0
  9  8  1  0
 10  9  1  0
 10  6  2  0
 12 11  1  0
 13 12  2  0
 14 19  2  0
 15 14  1  0
 16 17  1  0
 16 15  2  0
 17 18  2  0
 18 12  1  0
 18 19  1  0
 20 16  1  0
 21 22  1  0
 22 23  2  0
 23 20  1  0
 24 23  1  0
 25 24  2  0
 25 21  1  0
  1 26  1  0
  2 27  1  0
  2 28  1  0
  3 29  1  0
  3 30  1  0
  4 31  1  0
  4 32  1  0
  7 33  1  0
  8 34  1  0
  9 35  1  0
 14 36  1  0
 15 37  1  0
 21 38  1  0
 24 39  1  0
 25 40  1  0
M  ISO  8  26   5  27  13  28  13  29  13  30  13  31  13  32  13  33  14
M  ISO  7  34  14  35   9  36  14  37  14  38   9  39  14  40  14
M  END
>  <minimizedAffinity>  (1) 
-5.53886414

>  <minimizedRMSD>  (1) 
1.50755751

$$$$
