
     RDKit          3D

 19 19  0  0  0  0  0  0  0  0999 V2000
   45.9310   34.6810   41.5440 C   0  0  0  0  0  0  0  0  0  0  0  0
   47.1550   35.1860   42.0020 C   0  0  0  0  0  0  0  0  0  0  0  0
   48.3000   34.9180   41.2290 C   0  0  0  0  0  0  0  0  0  0  0  0
   48.1540   34.1850   40.0820 N   0  0  0  0  0  0  0  0  0  0  0  0
   46.9570   33.7270   39.6910 C   0  0  0  0  0  0  0  0  0  0  0  0
   45.8730   33.9740   40.4120 N   0  0  0  0  0  0  0  0  0  0  0  0
   46.7910   32.9270   38.4420 C   0  0  0  0  0  0  0  0  0  0  0  0
   45.5590   32.2740   38.4250 F   0  0  0  0  0  0  0  0  0  0  0  0
   47.7550   31.9770   38.2700 F   0  0  0  0  0  0  0  0  0  0  0  0
   46.8100   33.7570   37.3320 F   0  0  0  0  0  0  0  0  0  0  0  0
   44.7460   34.9560   42.3340 C   0  0  0  0  0  0  0  0  0  0  0  0
   43.8600   35.7370   41.8590 O   0  0  0  0  0  0  0  0  0  0  0  0
   44.6210   34.3520   43.5900 O   0  0  0  0  0  0  0  0  0  0  0  0
   45.0930   35.0500   44.7190 C   0  0  0  0  0  0  0  0  0  0  0  0
   44.2140   34.9640   45.7940 F   0  0  0  0  0  0  0  0  0  0  0  0
   46.2990   34.5390   45.1140 F   0  0  0  0  0  0  0  0  0  0  0  0
   45.2030   36.3810   44.3420 F   0  0  0  0  0  0  0  0  0  0  0  0
   47.2186   35.7705   42.9317 H   0  0  0  0  0  0  0  0  0  0  0  0
   49.2883   35.2885   41.5389 H   0  0  0  0  0  0  0  0  0  0  0  0
  1  2  2  0
  1 11  1  0
  3  2  1  0
  4  3  2  0
  5  4  1  0
  5  6  2  0
  6  1  1  0
  7  5  1  0
  8  7  1  0
  9  7  1  0
 10  7  1  0
 11 13  1  0
 12 11  2  0
 13 14  1  0
 14 16  1  0
 14 15  1  0
 17 14  1  0
  2 18  1  0
  3 19  1  0
M  ISO  2  18  14  19  14
M  END
>  <minimizedAffinity>  (1) 
-3.89273548

>  <minimizedRMSD>  (1) 
0.921591878

$$$$
