
     RDKit          3D

 45 47  0  0  1  0  0  0  0  0999 V2000
   47.0420   30.7810   47.5620 N   0  0  0  0  0  0  0  0  0  0  0  0
   47.0400   31.1520   48.9830 C   0  0  0  0  0  0  0  0  0  0  0  0
   45.8880   32.1060   49.0430 C   0  0  0  0  0  0  0  0  0  0  0  0
   44.8410   31.4510   48.2010 C   0  0  0  0  0  0  0  0  0  0  0  0
   45.7010   30.7060   47.1600 C   0  0  2  0  0  0  0  0  0  0  0  0
   45.1300   29.3260   47.1410 C   0  0  0  0  0  0  0  0  0  0  0  0
   45.1880   28.1720   47.9080 C   0  0  0  0  0  0  0  0  0  0  0  0
   44.3980   27.2330   47.3070 C   0  0  0  0  0  0  0  0  0  0  0  0
   43.8660   27.8090   46.1880 N   0  0  0  0  0  0  0  0  0  0  0  0
   44.3090   29.0640   46.0950 N   0  0  0  0  0  0  0  0  0  0  0  0
   45.5540   31.1480   45.8780 O   0  0  0  0  0  0  0  0  0  0  0  0
   46.3730   32.1270   45.2250 C   0  0  0  0  0  0  0  0  0  0  0  0
   47.5610   31.8580   44.9960 O   0  0  0  0  0  0  0  0  0  0  0  0
   44.6470   35.3240   45.4980 C   0  0  0  0  0  0  0  0  0  0  0  0
   44.4150   35.6880   44.1560 C   0  0  0  0  0  0  0  0  0  0  0  0
   44.8630   34.8140   43.1660 C   0  0  0  0  0  0  0  0  0  0  0  0
   45.4940   33.6690   43.5510 N   0  0  0  0  0  0  0  0  0  0  0  0
   45.6800   33.3890   44.8860 C   0  0  0  0  0  0  0  0  0  0  0  0
   45.2650   34.1980   45.8330 N   0  0  0  0  0  0  0  0  0  0  0  0
   44.6800   35.0900   41.8390 O   0  0  0  0  0  0  0  0  0  0  0  0
   43.9190   34.3730   40.9180 C   0  0  0  0  0  0  0  0  0  0  0  0
   43.0530   33.3710   41.6670 C   0  0  0  0  0  0  0  0  0  0  0  0
   44.8100   33.6260   39.9750 C   0  0  0  0  0  0  0  0  0  0  0  0
   42.9700   35.2270   40.1120 C   0  0  0  0  0  0  0  0  0  0  0  0
   47.5381   31.4952   47.0100 H   0  0  0  0  0  0  0  0  0  0  0  0
   46.8698   30.2761   49.6264 H   0  0  0  0  0  0  0  0  0  0  0  0
   47.9914   31.5763   49.3362 H   0  0  0  0  0  0  0  0  0  0  0  0
   45.5368   32.2323   50.0778 H   0  0  0  0  0  0  0  0  0  0  0  0
   46.1505   33.1139   48.6891 H   0  0  0  0  0  0  0  0  0  0  0  0
   44.2305   30.7520   48.7915 H   0  0  0  0  0  0  0  0  0  0  0  0
   44.1160   32.1526   47.7627 H   0  0  0  0  0  0  0  0  0  0  0  0
   45.7662   28.0369   48.8340 H   0  0  0  0  0  0  0  0  0  0  0  0
   44.2230   26.2054   47.6584 H   0  0  0  0  0  0  0  0  0  0  0  0
   43.2268   27.3490   45.5241 H   0  0  0  0  0  0  0  0  0  0  0  0
   44.3033   35.9977   46.2968 H   0  0  0  0  0  0  0  0  0  0  0  0
   43.9002   36.6257   43.8995 H   0  0  0  0  0  0  0  0  0  0  0  0
   43.1781   33.5158   42.7502 H   0  0  0  0  0  0  0  0  0  0  0  0
   41.9979   33.5237   41.3961 H   0  0  0  0  0  0  0  0  0  0  0  0
   43.3569   32.3491   41.3961 H   0  0  0  0  0  0  0  0  0  0  0  0
   45.5288   33.0233   40.5495 H   0  0  0  0  0  0  0  0  0  0  0  0
   44.2009   32.9646   39.3413 H   0  0  0  0  0  0  0  0  0  0  0  0
   45.3550   34.3412   39.3413 H   0  0  0  0  0  0  0  0  0  0  0  0
   42.3280   35.8047   40.7932 H   0  0  0  0  0  0  0  0  0  0  0  0
   43.5461   35.9168   39.4778 H   0  0  0  0  0  0  0  0  0  0  0  0
   42.3445   34.5816   39.4778 H   0  0  0  0  0  0  0  0  0  0  0  0
  1  2  1  0
  2  3  1  0
  4  3  1  0
  5 11  1  6
  5  1  1  0
  5  4  1  0
  6  5  1  0
  6  7  1  0
  8  7  2  0
  9  8  1  0
 10  9  1  0
 10  6  2  0
 12 11  1  0
 13 12  2  0
 14 19  2  0
 15 14  1  0
 16 17  1  0
 16 15  2  0
 17 18  2  0
 18 12  1  0
 18 19  1  0
 20 16  1  0
 21 22  1  0
 21 20  1  0
 23 21  1  0
 24 21  1  0
  1 25  1  0
  2 26  1  0
  2 27  1  0
  3 28  1  0
  3 29  1  0
  4 30  1  0
  4 31  1  0
  7 32  1  0
  8 33  1  0
  9 34  1  0
 14 35  1  0
 15 36  1  0
 22 37  1  0
 22 38  1  0
 22 39  1  0
 23 40  1  0
 23 41  1  0
 23 42  1  0
 24 43  1  0
 24 44  1  0
 24 45  1  0
M  ISO  8  25   5  26  13  27  13  28  13  29  13  30  13  31  13  32  14
M  ISO  8  33  14  34   9  35  14  36  14  37   8  38   8  39   8  40   8
M  ISO  5  41   8  42   8  43   8  44   8  45   8
M  END
>  <minimizedAffinity>  (1) 
-5.21948338

>  <minimizedRMSD>  (1) 
0.600318313

$$$$
