
     RDKit          3D

 42 44  0  0  1  0  0  0  0  0999 V2000
   47.0650   30.8300   47.4740 N   0  0  0  0  0  0  0  0  0  0  0  0
   47.0920   31.1710   48.9010 C   0  0  0  0  0  0  0  0  0  0  0  0
   45.9480   32.1230   49.0070 C   0  0  0  0  0  0  0  0  0  0  0  0
   44.8770   31.4670   48.1850 C   0  0  0  0  0  0  0  0  0  0  0  0
   45.7260   30.7520   47.1050 C   0  0  2  0  0  0  0  0  0  0  0  0
   45.1630   29.3730   47.0720 C   0  0  0  0  0  0  0  0  0  0  0  0
   45.1690   28.2280   47.8570 C   0  0  0  0  0  0  0  0  0  0  0  0
   44.4300   27.2750   47.2400 C   0  0  0  0  0  0  0  0  0  0  0  0
   43.9690   27.8210   46.0820 N   0  0  0  0  0  0  0  0  0  0  0  0
   44.4150   29.0780   45.9920 N   0  0  0  0  0  0  0  0  0  0  0  0
   45.5270   31.2100   45.8280 O   0  0  0  0  0  0  0  0  0  0  0  0
   46.3420   32.1800   45.1530 C   0  0  0  0  0  0  0  0  0  0  0  0
   47.4970   31.8810   44.8320 O   0  0  0  0  0  0  0  0  0  0  0  0
   44.6200   35.3650   45.6440 C   0  0  0  0  0  0  0  0  0  0  0  0
   44.4680   35.8420   44.3330 C   0  0  0  0  0  0  0  0  0  0  0  0
   44.9530   35.0780   43.2900 C   0  0  0  0  0  0  0  0  0  0  0  0
   45.5550   33.8960   43.5920 N   0  0  0  0  0  0  0  0  0  0  0  0
   45.6710   33.4850   44.9080 C   0  0  0  0  0  0  0  0  0  0  0  0
   45.2150   34.2030   45.9010 N   0  0  0  0  0  0  0  0  0  0  0  0
   44.8530   35.4590   41.9820 O   0  0  0  0  0  0  0  0  0  0  0  0
   43.8610   35.1880   41.0610 C   0  0  0  0  0  0  0  0  0  0  0  0
   44.0960   33.8890   40.3200 C   0  0  0  0  0  0  0  0  0  0  0  0
   42.4710   35.1440   41.6590 C   0  0  0  0  0  0  0  0  0  0  0  0
   47.5420   31.5600   46.9258 H   0  0  0  0  0  0  0  0  0  0  0  0
   46.9330   30.2818   49.5287 H   0  0  0  0  0  0  0  0  0  0  0  0
   48.0515   31.5867   49.2424 H   0  0  0  0  0  0  0  0  0  0  0  0
   45.6270   32.2387   50.0527 H   0  0  0  0  0  0  0  0  0  0  0  0
   46.1974   33.1366   48.6600 H   0  0  0  0  0  0  0  0  0  0  0  0
   44.2940   30.7491   48.7806 H   0  0  0  0  0  0  0  0  0  0  0  0
   44.1256   32.1624   47.7827 H   0  0  0  0  0  0  0  0  0  0  0  0
   45.6878   28.1136   48.8202 H   0  0  0  0  0  0  0  0  0  0  0  0
   44.2391   26.2551   47.6052 H   0  0  0  0  0  0  0  0  0  0  0  0
   43.3744   27.3444   45.3890 H   0  0  0  0  0  0  0  0  0  0  0  0
   44.2373   35.9675   46.4810 H   0  0  0  0  0  0  0  0  0  0  0  0
   43.9725   36.8050   44.1401 H   0  0  0  0  0  0  0  0  0  0  0  0
   43.9153   36.0338   40.3598 H   0  0  0  0  0  0  0  0  0  0  0  0
   44.2433   33.0748   41.0449 H   0  0  0  0  0  0  0  0  0  0  0  0
   43.2239   33.6642   39.6883 H   0  0  0  0  0  0  0  0  0  0  0  0
   44.9915   33.9840   39.6883 H   0  0  0  0  0  0  0  0  0  0  0  0
   42.5438   35.1463   42.7566 H   0  0  0  0  0  0  0  0  0  0  0  0
   41.9012   36.0246   41.3275 H   0  0  0  0  0  0  0  0  0  0  0  0
   41.9580   34.2292   41.3275 H   0  0  0  0  0  0  0  0  0  0  0  0
  1  2  1  0
  2  3  1  0
  4  3  1  0
  5 11  1  6
  5  1  1  0
  5  4  1  0
  6  5  1  0
  6  7  1  0
  8  7  2  0
  9  8  1  0
 10  9  1  0
 10  6  2  0
 12 11  1  0
 13 12  2  0
 14 19  2  0
 15 14  1  0
 16 17  1  0
 16 15  2  0
 17 18  2  0
 18 12  1  0
 18 19  1  0
 20 16  1  0
 21 23  1  0
 21 20  1  0
 22 21  1  0
  1 24  1  0
  2 25  1  0
  2 26  1  0
  3 27  1  0
  3 28  1  0
  4 29  1  0
  4 30  1  0
  7 31  1  0
  8 32  1  0
  9 33  1  0
 14 34  1  0
 15 35  1  0
 21 36  1  0
 22 37  1  0
 22 38  1  0
 22 39  1  0
 23 40  1  0
 23 41  1  0
 23 42  1  0
M  ISO  8  24   5  25  13  26  13  27  13  28  13  29  13  30  13  31  14
M  ISO  8  32  14  33   9  34  14  35  14  36   8  37   8  38   8  39   8
M  ISO  3  40   8  41   8  42   8
M  END
>  <minimizedAffinity>  (1) 
-5.18941784

>  <minimizedRMSD>  (1) 
1.17830658

$$$$
