
     RDKit          3D

 29 30  0  0  0  0  0  0  0  0999 V2000
   48.0910   34.2400   43.1720 C   0  0  0  0  0  0  0  0  0  0  0  0
   48.1640   34.3640   41.7090 N   0  0  0  0  0  0  0  0  0  0  0  0
   47.5820   33.4160   40.9520 C   0  0  0  0  0  0  0  0  0  0  0  0
   47.5530   33.3710   39.5910 C   0  0  0  0  0  0  0  0  0  0  0  0
   46.8950   32.3010   38.8120 C   0  0  0  0  0  0  0  0  0  0  0  0
   48.1930   34.4150   38.9460 C   0  0  0  0  0  0  0  0  0  0  0  0
   48.2410   34.4960   37.6860 O   0  0  0  0  0  0  0  0  0  0  0  0
   48.7760   35.3630   39.7010 N   0  0  0  0  0  0  0  0  0  0  0  0
   48.7770   35.3610   41.0440 C   0  0  0  0  0  0  0  0  0  0  0  0
   49.3220   36.2490   41.7510 O   0  0  0  0  0  0  0  0  0  0  0  0
   46.6090   34.2130   43.5770 C   0  0  0  0  0  0  0  0  0  0  0  0
   45.6740   33.7530   45.8280 C   0  0  0  0  0  0  0  0  0  0  0  0
   46.4770   33.3480   44.7280 C   0  0  0  0  0  0  0  0  0  0  0  0
   47.1110   32.0950   44.8290 C   0  0  0  0  0  0  0  0  0  0  0  0
   46.9170   31.3580   45.9640 N   0  0  0  0  0  0  0  0  0  0  0  0
   46.1500   31.7920   46.9690 C   0  0  0  0  0  0  0  0  0  0  0  0
   45.5300   32.9760   46.9120 N   0  0  0  0  0  0  0  0  0  0  0  0
   48.5907   35.0988   43.6441 H   0  0  0  0  0  0  0  0  0  0  0  0
   48.5922   33.3178   43.5011 H   0  0  0  0  0  0  0  0  0  0  0  0
   47.0796   32.5956   41.4854 H   0  0  0  0  0  0  0  0  0  0  0  0
   46.4455   31.5700   39.5001 H   0  0  0  0  0  0  0  0  0  0  0  0
   46.1099   32.7388   38.1781 H   0  0  0  0  0  0  0  0  0  0  0  0
   47.6400   31.7979   38.1781 H   0  0  0  0  0  0  0  0  0  0  0  0
   49.2515   36.1392   39.2191 H   0  0  0  0  0  0  0  0  0  0  0  0
   46.2732   35.2288   43.8327 H   0  0  0  0  0  0  0  0  0  0  0  0
   45.9921   33.8406   42.7459 H   0  0  0  0  0  0  0  0  0  0  0  0
   45.1594   34.7245   45.7899 H   0  0  0  0  0  0  0  0  0  0  0  0
   47.7470   31.7182   44.0145 H   0  0  0  0  0  0  0  0  0  0  0  0
   46.0260   31.1620   47.8622 H   0  0  0  0  0  0  0  0  0  0  0  0
  1 11  1  0
  2  1  1  0
  3  2  1  0
  4  3  2  0
  5  4  1  0
  6  4  1  0
  6  8  1  0
  7  6  2  0
  8  9  1  0
  9  2  1  0
  9 10  2  0
 11 13  1  0
 12 17  2  0
 13 14  2  0
 13 12  1  0
 14 15  1  0
 15 16  2  0
 17 16  1  0
  1 18  1  0
  1 19  1  0
  3 20  1  0
  5 21  1  0
  5 22  1  0
  5 23  1  0
  8 24  1  0
 11 25  1  0
 11 26  1  0
 12 27  1  0
 14 28  1  0
 16 29  1  0
M  ISO  8  18   8  19   8  20  14  21   8  22   8  23   8  24   9  25   8
M  ISO  4  26   8  27  14  28  14  29  14
M  END
>  <minimizedAffinity>  (1) 
-4.65527058

>  <minimizedRMSD>  (1) 
2.06074357

$$$$
