
     RDKit          3D

 23 24  0  0  0  0  0  0  0  0999 V2000
   46.6750   34.7200   41.6960 C   0  0  0  0  0  0  0  0  0  0  0  0
   45.2220   35.9780   43.2070 C   0  0  0  0  0  0  0  0  0  0  0  0
   46.0260   34.8540   42.9780 C   0  0  0  0  0  0  0  0  0  0  0  0
   46.1530   33.9260   44.0060 C   0  0  0  0  0  0  0  0  0  0  0  0
   45.4850   34.1710   45.1710 N   0  0  0  0  0  0  0  0  0  0  0  0
   44.7170   35.2600   45.3660 C   0  0  0  0  0  0  0  0  0  0  0  0
   44.5770   36.1770   44.3840 N   0  0  0  0  0  0  0  0  0  0  0  0
   48.0520   35.3610   41.7750 C   0  0  0  0  0  0  0  0  0  0  0  0
   49.0520   34.3000   41.7710 N   0  0  0  0  0  0  0  0  0  0  0  0
   50.1620   34.3520   42.5260 C   0  0  0  0  0  0  0  0  0  0  0  0
   50.8800   33.1990   42.2820 C   0  0  0  0  0  0  0  0  0  0  0  0
   50.2020   32.4650   41.3890 N   0  0  0  0  0  0  0  0  0  0  0  0
   49.0800   33.1500   41.0810 C   0  0  0  0  0  0  0  0  0  0  0  0
   46.0759   35.2246   40.9237 H   0  0  0  0  0  0  0  0  0  0  0  0
   46.7723   33.6557   41.4355 H   0  0  0  0  0  0  0  0  0  0  0  0
   45.1099   36.7238   42.4063 H   0  0  0  0  0  0  0  0  0  0  0  0
   46.7713   33.0244   43.8844 H   0  0  0  0  0  0  0  0  0  0  0  0
   44.2023   35.4031   46.3276 H   0  0  0  0  0  0  0  0  0  0  0  0
   48.2057   36.0202   40.9079 H   0  0  0  0  0  0  0  0  0  0  0  0
   48.1389   35.9601   42.6934 H   0  0  0  0  0  0  0  0  0  0  0  0
   50.4461   35.1637   43.2119 H   0  0  0  0  0  0  0  0  0  0  0  0
   51.8425   32.9291   42.7411 H   0  0  0  0  0  0  0  0  0  0  0  0
   48.3073   32.8162   40.3728 H   0  0  0  0  0  0  0  0  0  0  0  0
  1  8  1  0
  1  3  1  0
  2  7  2  0
  3  2  1  0
  3  4  2  0
  4  5  1  0
  5  6  2  0
  7  6  1  0
  9  8  1  0
  9 10  1  0
 11 10  2  0
 12 11  1  0
 13 12  2  0
 13  9  1  0
  1 14  1  0
  1 15  1  0
  2 16  1  0
  4 17  1  0
  6 18  1  0
  8 19  1  0
  8 20  1  0
 10 21  1  0
 11 22  1  0
 13 23  1  0
M  ISO  8  14   8  15   8  16  14  17  14  18  14  19   8  20   8  21  14
M  ISO  2  22  14  23  14
M  END
>  <minimizedAffinity>  (1) 
-4.17179632

>  <minimizedRMSD>  (1) 
2.54515767

$$$$
