
     RDKit          3D

 22 23  0  0  0  0  0  0  0  0999 V2000
   46.6870   34.7260   41.6680 C   0  0  0  0  0  0  0  0  0  0  0  0
   45.2190   35.9840   43.2030 C   0  0  0  0  0  0  0  0  0  0  0  0
   46.0280   34.8670   42.9530 C   0  0  0  0  0  0  0  0  0  0  0  0
   46.1470   33.9420   43.9880 C   0  0  0  0  0  0  0  0  0  0  0  0
   45.4860   34.1710   45.1510 N   0  0  0  0  0  0  0  0  0  0  0  0
   44.7160   35.2630   45.3500 C   0  0  0  0  0  0  0  0  0  0  0  0
   44.5820   36.1760   44.3660 N   0  0  0  0  0  0  0  0  0  0  0  0
   48.0720   35.3330   41.7700 C   0  0  0  0  0  0  0  0  0  0  0  0
   49.0810   34.2920   41.7800 N   0  0  0  0  0  0  0  0  0  0  0  0
   50.2060   34.3990   42.5370 C   0  0  0  0  0  0  0  0  0  0  0  0
   50.9480   33.2790   42.3340 N   0  0  0  0  0  0  0  0  0  0  0  0
   50.2730   32.5050   41.4630 C   0  0  0  0  0  0  0  0  0  0  0  0
   49.1430   33.1380   41.1390 N   0  0  0  0  0  0  0  0  0  0  0  0
   46.1077   35.2509   40.8941 H   0  0  0  0  0  0  0  0  0  0  0  0
   46.7601   33.6627   41.3960 H   0  0  0  0  0  0  0  0  0  0  0  0
   45.1019   36.7364   42.4091 H   0  0  0  0  0  0  0  0  0  0  0  0
   46.7662   33.0413   43.8646 H   0  0  0  0  0  0  0  0  0  0  0  0
   44.2002   35.4072   46.3108 H   0  0  0  0  0  0  0  0  0  0  0  0
   48.2422   35.9943   40.9076 H   0  0  0  0  0  0  0  0  0  0  0  0
   48.1420   35.9065   42.7061 H   0  0  0  0  0  0  0  0  0  0  0  0
   50.4679   35.2407   43.1950 H   0  0  0  0  0  0  0  0  0  0  0  0
   50.5958   31.5238   41.0849 H   0  0  0  0  0  0  0  0  0  0  0  0
  1  8  1  0
  1  3  1  0
  2  7  2  0
  3  2  1  0
  3  4  2  0
  4  5  1  0
  5  6  2  0
  7  6  1  0
  8  9  1  0
  9 10  1  0
 11 10  2  0
 12 11  1  0
 13 12  2  0
 13  9  1  0
  1 14  1  0
  1 15  1  0
  2 16  1  0
  4 17  1  0
  6 18  1  0
  8 19  1  0
  8 20  1  0
 10 21  1  0
 12 22  1  0
M  ISO  8  14   8  15   8  16  14  17  14  18  14  19   8  20   8  21  14
M  ISO  1  22  14
M  END
>  <minimizedAffinity>  (1) 
-4.19082546

>  <minimizedRMSD>  (1) 
2.49852872

$$$$
