
     RDKit          3D

 25 25  0  0  0  0  0  0  0  0999 V2000
   45.6880   34.4520   41.1770 C   0  0  0  0  0  0  0  0  0  0  0  0
   46.9810   34.8230   41.5390 C   0  0  0  0  0  0  0  0  0  0  0  0
   48.0450   34.3930   40.7250 C   0  0  0  0  0  0  0  0  0  0  0  0
   47.7550   33.6360   39.6250 N   0  0  0  0  0  0  0  0  0  0  0  0
   46.4770   33.3030   39.3190 C   0  0  0  0  0  0  0  0  0  0  0  0
   45.4810   33.7120   40.0890 N   0  0  0  0  0  0  0  0  0  0  0  0
   46.1850   32.4720   38.1070 C   0  0  0  0  0  0  0  0  0  0  0  0
   44.7060   32.6340   37.8150 C   0  0  0  0  0  0  0  0  0  0  0  0
   46.9520   33.0670   36.9300 C   0  0  0  0  0  0  0  0  0  0  0  0
   44.5910   34.8960   42.0170 C   0  0  0  0  0  0  0  0  0  0  0  0
   43.7570   35.7370   41.5520 O   0  0  0  0  0  0  0  0  0  0  0  0
   44.4920   34.3770   43.3200 O   0  0  0  0  0  0  0  0  0  0  0  0
   45.0710   35.1040   44.3700 C   0  0  0  0  0  0  0  0  0  0  0  0
   44.2230   35.2100   45.4640 F   0  0  0  0  0  0  0  0  0  0  0  0
   46.2400   34.4890   44.7760 F   0  0  0  0  0  0  0  0  0  0  0  0
   45.3280   36.3770   43.8920 F   0  0  0  0  0  0  0  0  0  0  0  0
   47.1648   35.4342   42.4349 H   0  0  0  0  0  0  0  0  0  0  0  0
   49.0842   34.6595   40.9680 H   0  0  0  0  0  0  0  0  0  0  0  0
   46.4632   31.4191   38.2623 H   0  0  0  0  0  0  0  0  0  0  0  0
   44.1498   32.6949   38.7621 H   0  0  0  0  0  0  0  0  0  0  0  0
   44.5454   33.5551   37.2355 H   0  0  0  0  0  0  0  0  0  0  0  0
   44.3498   31.7695   37.2355 H   0  0  0  0  0  0  0  0  0  0  0  0
   47.7685   33.7004   37.3070 H   0  0  0  0  0  0  0  0  0  0  0  0
   47.3708   32.2551   36.3172 H   0  0  0  0  0  0  0  0  0  0  0  0
   46.2697   33.6744   36.3172 H   0  0  0  0  0  0  0  0  0  0  0  0
  1  2  2  0
  1 10  1  0
  3  2  1  0
  4  3  2  0
  5  4  1  0
  5  6  2  0
  6  1  1  0
  7  5  1  0
  8  7  1  0
  9  7  1  0
 10 12  1  0
 11 10  2  0
 12 13  1  0
 13 15  1  0
 13 14  1  0
 16 13  1  0
  2 17  1  0
  3 18  1  0
  7 19  1  0
  8 20  1  0
  8 21  1  0
  8 22  1  0
  9 23  1  0
  9 24  1  0
  9 25  1  0
M  ISO  8  17  14  18  14  19   8  20   8  21   8  22   8  23   8  24   8
M  ISO  1  25   8
M  END
>  <minimizedAffinity>  (1) 
-3.79128647

>  <minimizedRMSD>  (1) 
0.436072946

$$$$
