
     RDKit          3D

 22 22  0  0  0  0  0  0  0  0999 V2000
   45.7890   34.4730   41.1580 C   0  0  0  0  0  0  0  0  0  0  0  0
   47.0560   34.8860   41.5900 C   0  0  0  0  0  0  0  0  0  0  0  0
   48.1790   34.4440   40.8640 C   0  0  0  0  0  0  0  0  0  0  0  0
   47.9620   33.6360   39.7780 N   0  0  0  0  0  0  0  0  0  0  0  0
   46.7250   33.2730   39.4110 C   0  0  0  0  0  0  0  0  0  0  0  0
   45.6760   33.6920   40.0980 N   0  0  0  0  0  0  0  0  0  0  0  0
   44.6390   34.9350   41.9150 C   0  0  0  0  0  0  0  0  0  0  0  0
   43.8120   35.7240   41.3560 O   0  0  0  0  0  0  0  0  0  0  0  0
   44.4810   34.4950   43.2360 O   0  0  0  0  0  0  0  0  0  0  0  0
   45.0130   35.2790   44.2720 C   0  0  0  0  0  0  0  0  0  0  0  0
   44.1210   35.4210   45.3320 F   0  0  0  0  0  0  0  0  0  0  0  0
   46.1720   34.7140   44.7500 F   0  0  0  0  0  0  0  0  0  0  0  0
   45.2650   36.5340   43.7370 F   0  0  0  0  0  0  0  0  0  0  0  0
   46.4340   32.3990   38.2450 C   0  0  0  0  0  0  0  0  0  0  0  0
   46.5850   33.2420   36.9980 C   0  0  0  0  0  0  0  0  0  0  0  0
   47.1704   35.5361   42.4699 H   0  0  0  0  0  0  0  0  0  0  0  0
   49.1973   34.7376   41.1588 H   0  0  0  0  0  0  0  0  0  0  0  0
   47.1434   31.5587   38.2188 H   0  0  0  0  0  0  0  0  0  0  0  0
   45.4167   31.9863   38.3136 H   0  0  0  0  0  0  0  0  0  0  0  0
   46.7723   34.2878   37.2829 H   0  0  0  0  0  0  0  0  0  0  0  0
   47.4303   32.8672   36.4022 H   0  0  0  0  0  0  0  0  0  0  0  0
   45.6622   33.1839   36.4022 H   0  0  0  0  0  0  0  0  0  0  0  0
  1  2  2  0
  1  7  1  0
  3  2  1  0
  4  3  2  0
  5  4  1  0
  5  6  2  0
  6  1  1  0
  7  9  1  0
  8  7  2  0
  9 10  1  0
 10 12  1  0
 10 11  1  0
 13 10  1  0
 14  5  1  0
 15 14  1  0
  2 16  1  0
  3 17  1  0
 14 18  1  0
 14 19  1  0
 15 20  1  0
 15 21  1  0
 15 22  1  0
M  ISO  7  16  14  17  14  18   8  19   8  20   8  21   8  22   8
M  END
>  <minimizedAffinity>  (1) 
-3.69953084

>  <minimizedRMSD>  (1) 
0.322776794

$$$$
