
     RDKit          3D

 18 18  0  0  0  0  0  0  0  0999 V2000
   45.7840   34.4740   41.1480 C   0  0  0  0  0  0  0  0  0  0  0  0
   47.0520   34.8510   41.5760 C   0  0  0  0  0  0  0  0  0  0  0  0
   48.1680   34.4310   40.8360 C   0  0  0  0  0  0  0  0  0  0  0  0
   47.9340   33.6640   39.7160 N   0  0  0  0  0  0  0  0  0  0  0  0
   46.6930   33.3270   39.3430 C   0  0  0  0  0  0  0  0  0  0  0  0
   45.6490   33.7310   40.0540 N   0  0  0  0  0  0  0  0  0  0  0  0
   46.5290   32.5120   38.1460 C   0  0  0  0  0  0  0  0  0  0  0  0
   46.5760   33.0630   37.0180 O   0  0  0  0  0  0  0  0  0  0  0  0
   44.6320   34.9100   41.9180 C   0  0  0  0  0  0  0  0  0  0  0  0
   43.7910   35.6910   41.3650 O   0  0  0  0  0  0  0  0  0  0  0  0
   44.4950   34.4550   43.2380 O   0  0  0  0  0  0  0  0  0  0  0  0
   45.0200   35.2470   44.2730 C   0  0  0  0  0  0  0  0  0  0  0  0
   44.1290   35.4000   45.3270 F   0  0  0  0  0  0  0  0  0  0  0  0
   46.1770   34.6960   44.7580 F   0  0  0  0  0  0  0  0  0  0  0  0
   45.2620   36.5040   43.7260 F   0  0  0  0  0  0  0  0  0  0  0  0
   47.1782   35.4673   42.4783 H   0  0  0  0  0  0  0  0  0  0  0  0
   49.1898   34.7037   41.1386 H   0  0  0  0  0  0  0  0  0  0  0  0
   46.3660   31.4273   38.2292 H   0  0  0  0  0  0  0  0  0  0  0  0
  1  2  2  0
  1  9  1  0
  3  2  1  0
  4  3  2  0
  5  4  1  0
  5  6  2  0
  6  1  1  0
  7  5  1  0
  8  7  2  0
  9 11  1  0
 10  9  2  0
 11 12  1  0
 12 14  1  0
 12 13  1  0
 15 12  1  0
  2 16  1  0
  3 17  1  0
  7 18  1  0
M  ISO  3  16  14  17  14  18   6
M  END
>  <minimizedAffinity>  (1) 
-3.6627357

>  <minimizedRMSD>  (1) 
0.504202127

$$$$
