
     RDKit          3D

 46 49  0  0  1  0  0  0  0  0999 V2000
   47.1210   34.3750   40.3450 C   0  0  1  0  0  0  0  0  0  0  0  0
   48.4180   34.5230   39.5010 C   0  0  0  0  0  0  0  0  0  0  0  0
   48.0210   34.1660   38.0810 C   0  0  0  0  0  0  0  0  0  0  0  0
   47.7650   32.6850   38.0340 C   0  0  0  0  0  0  0  0  0  0  0  0
   47.5610   32.0920   39.3980 C   0  0  0  0  0  0  0  0  0  0  0  0
   46.6960   32.9660   40.3100 C   0  0  2  0  0  0  0  0  0  0  0  0
   45.3190   32.6520   39.9010 C   0  0  0  0  0  0  0  0  0  0  0  0
   44.9490   31.4620   39.3210 C   0  0  0  0  0  0  0  0  0  0  0  0
   43.6370   31.4350   39.0260 N   0  0  0  0  0  0  0  0  0  0  0  0
   43.0630   32.5930   39.3880 C   0  0  0  0  0  0  0  0  0  0  0  0
   41.8080   33.1860   39.3680 C   0  0  0  0  0  0  0  0  0  0  0  0
   41.5990   34.4570   39.8620 C   0  0  0  0  0  0  0  0  0  0  0  0
   42.6320   35.1960   40.3970 C   0  0  0  0  0  0  0  0  0  0  0  0
   43.8720   34.6100   40.4150 C   0  0  0  0  0  0  0  0  0  0  0  0
   44.0880   33.3300   39.9190 C   0  0  0  0  0  0  0  0  0  0  0  0
   47.4600   34.8460   41.7790 C   0  0  0  0  0  0  0  0  0  0  0  0
   46.8920   33.7780   42.6800 C   0  0  0  0  0  0  0  0  0  0  0  0
   45.9840   33.6980   44.9410 C   0  0  0  0  0  0  0  0  0  0  0  0
   46.0760   34.3640   43.7030 C   0  0  0  0  0  0  0  0  0  0  0  0
   45.3750   35.5260   43.5050 C   0  0  0  0  0  0  0  0  0  0  0  0
   44.6100   35.9900   44.5370 N   0  0  0  0  0  0  0  0  0  0  0  0
   44.5180   35.3520   45.7310 C   0  0  0  0  0  0  0  0  0  0  0  0
   45.2100   34.2030   45.9270 N   0  0  0  0  0  0  0  0  0  0  0  0
   46.2902   34.9805   39.9537 H   0  0  0  0  0  0  0  0  0  0  0  0
   48.7909   35.5568   39.5475 H   0  0  0  0  0  0  0  0  0  0  0  0
   49.2240   33.8743   39.8745 H   0  0  0  0  0  0  0  0  0  0  0  0
   47.1091   34.7125   37.7987 H   0  0  0  0  0  0  0  0  0  0  0  0
   48.8212   34.4402   37.3778 H   0  0  0  0  0  0  0  0  0  0  0  0
   46.8630   32.5021   37.4316 H   0  0  0  0  0  0  0  0  0  0  0  0
   48.6514   32.2070   37.5915 H   0  0  0  0  0  0  0  0  0  0  0  0
   47.0720   31.1132   39.2846 H   0  0  0  0  0  0  0  0  0  0  0  0
   48.5511   32.0058   39.8694 H   0  0  0  0  0  0  0  0  0  0  0  0
   46.8005   32.7480   41.3831 H   0  0  0  0  0  0  0  0  0  0  0  0
   45.6425   30.6316   39.1220 H   0  0  0  0  0  0  0  0  0  0  0  0
   43.1457   30.6431   38.5874 H   0  0  0  0  0  0  0  0  0  0  0  0
   40.9584   32.6281   38.9474 H   0  0  0  0  0  0  0  0  0  0  0  0
   40.5880   34.8891   39.8282 H   0  0  0  0  0  0  0  0  0  0  0  0
   42.4694   36.2098   40.7917 H   0  0  0  0  0  0  0  0  0  0  0  0
   44.7208   35.1700   40.8346 H   0  0  0  0  0  0  0  0  0  0  0  0
   48.5488   34.9271   41.9129 H   0  0  0  0  0  0  0  0  0  0  0  0
   47.0428   35.8398   41.9990 H   0  0  0  0  0  0  0  0  0  0  0  0
   46.2806   33.0870   42.0811 H   0  0  0  0  0  0  0  0  0  0  0  0
   47.7226   33.2357   43.1554 H   0  0  0  0  0  0  0  0  0  0  0  0
   46.5432   32.7651   45.1054 H   0  0  0  0  0  0  0  0  0  0  0  0
   45.4271   36.0658   42.5480 H   0  0  0  0  0  0  0  0  0  0  0  0
   43.8874   35.7636   46.5329 H   0  0  0  0  0  0  0  0  0  0  0  0
  1 16  1  0
  2  1  1  0
  3  2  1  0
  4  3  1  0
  4  5  1  0
  5  6  1  0
  6  1  1  0
  7 15  1  0
  7  6  1  0
  8  7  2  0
  9  8  1  0
  9 10  1  0
 10 15  2  0
 11 10  1  0
 11 12  2  0
 12 13  1  0
 13 14  2  0
 15 14  1  0
 16 17  1  0
 17 19  1  0
 18 23  2  0
 19 18  1  0
 20 19  2  0
 20 21  1  0
 21 22  2  0
 22 23  1  0
  1 24  1  6
  2 25  1  0
  2 26  1  0
  3 27  1  0
  3 28  1  0
  4 29  1  0
  4 30  1  0
  5 31  1  0
  5 32  1  0
  6 33  1  1
  8 34  1  0
  9 35  1  0
 11 36  1  0
 12 37  1  0
 13 38  1  0
 14 39  1  0
 16 40  1  0
 16 41  1  0
 17 42  1  0
 17 43  1  0
 18 44  1  0
 20 45  1  0
 22 46  1  0
M  ISO  8  24  13  25  13  26  13  27  13  28  13  29  13  30  13  31  13
M  ISO  8  32  13  33  13  34  14  35   9  36  14  37  14  38  14  39  14
M  ISO  7  40   8  41   8  42   8  43   8  44  14  45  14  46  14
M  END
>  <minimizedAffinity>  (1) 
-5.23611212

>  <minimizedRMSD>  (1) 
2.05067801

$$$$
