
     RDKit          3D

 46 49  0  0  1  0  0  0  0  0999 V2000
   46.1340   34.0840   40.3130 C   0  0  1  0  0  0  0  0  0  0  0  0
   47.0640   33.4540   39.2760 C   0  0  0  0  0  0  0  0  0  0  0  0
   46.1880   33.0500   38.1040 C   0  0  0  0  0  0  0  0  0  0  0  0
   45.2670   31.9220   38.5240 C   0  0  0  0  0  0  0  0  0  0  0  0
   45.3250   31.7180   40.0160 C   0  0  0  0  0  0  0  0  0  0  0  0
   45.1860   33.0300   40.7850 C   0  0  2  0  0  0  0  0  0  0  0  0
   43.7990   33.3380   40.7500 N   0  0  0  0  0  0  0  0  0  0  0  0
   43.3180   34.4070   40.0460 C   0  0  0  0  0  0  0  0  0  0  0  0
   41.9830   34.4220   40.2150 N   0  0  0  0  0  0  0  0  0  0  0  0
   41.6450   33.3980   40.9950 C   0  0  0  0  0  0  0  0  0  0  0  0
   40.3960   33.0070   41.4420 C   0  0  0  0  0  0  0  0  0  0  0  0
   39.3350   33.6350   41.1340 O   0  0  0  0  0  0  0  0  0  0  0  0
   40.3030   31.9250   42.2320 N   0  0  0  0  0  0  0  0  0  0  0  0
   41.4590   31.2740   42.5430 C   0  0  0  0  0  0  0  0  0  0  0  0
   41.3350   30.1280   43.3830 N   0  0  0  0  0  0  0  0  0  0  0  0
   42.6490   31.6630   42.1050 N   0  0  0  0  0  0  0  0  0  0  0  0
   42.7850   32.7210   41.3280 C   0  0  0  0  0  0  0  0  0  0  0  0
   46.9710   34.6180   41.4940 C   0  0  0  0  0  0  0  0  0  0  0  0
   46.7340   33.6790   42.6350 C   0  0  0  0  0  0  0  0  0  0  0  0
   45.8870   33.6720   44.9280 C   0  0  0  0  0  0  0  0  0  0  0  0
   45.9780   34.2980   43.6810 C   0  0  0  0  0  0  0  0  0  0  0  0
   45.3240   35.4920   43.4960 C   0  0  0  0  0  0  0  0  0  0  0  0
   44.6120   36.0210   44.5340 N   0  0  0  0  0  0  0  0  0  0  0  0
   44.5300   35.4060   45.7390 C   0  0  0  0  0  0  0  0  0  0  0  0
   45.1730   34.2280   45.9270 N   0  0  0  0  0  0  0  0  0  0  0  0
   45.5728   34.9225   39.8749 H   0  0  0  0  0  0  0  0  0  0  0  0
   47.8213   34.1829   38.9515 H   0  0  0  0  0  0  0  0  0  0  0  0
   47.5970   32.5868   39.6930 H   0  0  0  0  0  0  0  0  0  0  0  0
   46.8229   32.7136   37.2711 H   0  0  0  0  0  0  0  0  0  0  0  0
   45.5863   33.9130   37.7826 H   0  0  0  0  0  0  0  0  0  0  0  0
   44.2356   32.1699   38.2328 H   0  0  0  0  0  0  0  0  0  0  0  0
   45.5906   30.9959   38.0264 H   0  0  0  0  0  0  0  0  0  0  0  0
   44.5072   31.0451   40.3133 H   0  0  0  0  0  0  0  0  0  0  0  0
   46.3075   31.2872   40.2593 H   0  0  0  0  0  0  0  0  0  0  0  0
   45.4981   32.9515   41.8369 H   0  0  0  0  0  0  0  0  0  0  0  0
   43.9103   35.1199   39.4536 H   0  0  0  0  0  0  0  0  0  0  0  0
   39.3932   31.5998   42.5890 H   0  0  0  0  0  0  0  0  0  0  0  0
   42.1735   29.5941   43.6529 H   0  0  0  0  0  0  0  0  0  0  0  0
   40.4070   29.8343   43.7197 H   0  0  0  0  0  0  0  0  0  0  0  0
   48.0383   34.6330   41.2284 H   0  0  0  0  0  0  0  0  0  0  0  0
   46.6823   35.6466   41.7560 H   0  0  0  0  0  0  0  0  0  0  0  0
   46.1813   32.8023   42.2664 H   0  0  0  0  0  0  0  0  0  0  0  0
   47.7110   33.3846   43.0458 H   0  0  0  0  0  0  0  0  0  0  0  0
   46.4037   32.7155   45.0956 H   0  0  0  0  0  0  0  0  0  0  0  0
   45.3731   36.0128   42.5283 H   0  0  0  0  0  0  0  0  0  0  0  0
   43.9479   35.8581   46.5555 H   0  0  0  0  0  0  0  0  0  0  0  0
  1  6  1  0
  1 18  1  0
  2  1  1  0
  3  4  1  0
  3  2  1  0
  4  5  1  0
  5  6  1  0
  7  6  1  0
  7 17  1  0
  8  9  2  0
  8  7  1  0
  9 10  1  0
 10 17  2  0
 10 11  1  0
 11 13  1  0
 12 11  2  0
 13 14  1  0
 14 15  1  0
 16 14  2  0
 17 16  1  0
 18 19  1  0
 19 21  1  0
 20 25  2  0
 21 20  1  0
 22 21  2  0
 22 23  1  0
 23 24  2  0
 24 25  1  0
  1 26  1  6
  2 27  1  0
  2 28  1  0
  3 29  1  0
  3 30  1  0
  4 31  1  0
  4 32  1  0
  5 33  1  0
  5 34  1  0
  6 35  1  1
  8 36  1  0
 13 37  1  0
 15 38  1  0
 15 39  1  0
 18 40  1  0
 18 41  1  0
 19 42  1  0
 19 43  1  0
 20 44  1  0
 22 45  1  0
 24 46  1  0
M  ISO  8  26  13  27  13  28  13  29  13  30  13  31  13  32  13  33  13
M  ISO  8  34  13  35  13  36  14  37   9  40   8  41   8  42   8  43   8
M  ISO  3  44  14  45  14  46  14
M  END
>  <minimizedAffinity>  (1) 
-5.72080755

>  <minimizedRMSD>  (1) 
3.21491957

$$$$
