
     RDKit          3D

 42 44  0  0  1  0  0  0  0  0999 V2000
   46.9620   34.3600   40.5220 C   0  0  1  0  0  0  0  0  0  0  0  0
   48.1520   34.1240   39.5680 C   0  0  0  0  0  0  0  0  0  0  0  0
   47.5560   33.9020   38.1950 C   0  0  0  0  0  0  0  0  0  0  0  0
   46.7940   32.5970   38.1910 C   0  0  0  0  0  0  0  0  0  0  0  0
   46.6160   32.0640   39.5830 C   0  0  0  0  0  0  0  0  0  0  0  0
   46.1350   33.1420   40.5620 C   0  0  2  0  0  0  0  0  0  0  0  0
   44.7030   33.2510   40.2810 C   0  0  0  0  0  0  0  0  0  0  0  0
   43.8580   32.1900   40.0480 C   0  0  0  0  0  0  0  0  0  0  0  0
   42.5090   32.2550   39.7950 C   0  0  0  0  0  0  0  0  0  0  0  0
   41.9070   33.5120   39.7630 C   0  0  0  0  0  0  0  0  0  0  0  0
   42.6820   34.6300   39.9870 C   0  0  0  0  0  0  0  0  0  0  0  0
   44.0160   34.4730   40.2320 C   0  0  0  0  0  0  0  0  0  0  0  0
   47.5400   34.6980   41.9130 C   0  0  0  0  0  0  0  0  0  0  0  0
   47.0050   33.6480   42.8460 C   0  0  0  0  0  0  0  0  0  0  0  0
   46.0510   33.6110   45.0880 C   0  0  0  0  0  0  0  0  0  0  0  0
   46.1510   34.2390   43.8350 C   0  0  0  0  0  0  0  0  0  0  0  0
   45.4240   35.3800   43.5960 C   0  0  0  0  0  0  0  0  0  0  0  0
   44.6310   35.8550   44.6000 N   0  0  0  0  0  0  0  0  0  0  0  0
   44.5330   35.2480   45.8100 C   0  0  0  0  0  0  0  0  0  0  0  0
   45.2500   34.1200   46.0470 N   0  0  0  0  0  0  0  0  0  0  0  0
   46.3248   35.1904   40.1837 H   0  0  0  0  0  0  0  0  0  0  0  0
   48.8133   35.0030   39.5589 H   0  0  0  0  0  0  0  0  0  0  0  0
   48.7558   33.2615   39.8867 H   0  0  0  0  0  0  0  0  0  0  0  0
   46.8719   34.7286   37.9525 H   0  0  0  0  0  0  0  0  0  0  0  0
   48.3592   33.8641   37.4444 H   0  0  0  0  0  0  0  0  0  0  0  0
   45.8038   32.7618   37.7413 H   0  0  0  0  0  0  0  0  0  0  0  0
   47.3688   31.8616   37.6089 H   0  0  0  0  0  0  0  0  0  0  0  0
   45.8744   31.2520   39.5587 H   0  0  0  0  0  0  0  0  0  0  0  0
   47.5947   31.7040   39.9332 H   0  0  0  0  0  0  0  0  0  0  0  0
   46.2633   32.8955   41.6263 H   0  0  0  0  0  0  0  0  0  0  0  0
   44.3089   31.1868   40.0662 H   0  0  0  0  0  0  0  0  0  0  0  0
   41.9210   31.3415   39.6227 H   0  0  0  0  0  0  0  0  0  0  0  0
   40.8300   33.6103   39.5621 H   0  0  0  0  0  0  0  0  0  0  0  0
   42.2323   35.6337   39.9686 H   0  0  0  0  0  0  0  0  0  0  0  0
   44.6043   35.3859   40.4065 H   0  0  0  0  0  0  0  0  0  0  0  0
   48.6392   34.6649   41.8892 H   0  0  0  0  0  0  0  0  0  0  0  0
   47.2528   35.7097   42.2354 H   0  0  0  0  0  0  0  0  0  0  0  0
   46.4309   32.9092   42.2676 H   0  0  0  0  0  0  0  0  0  0  0  0
   47.8505   33.1605   43.3534 H   0  0  0  0  0  0  0  0  0  0  0  0
   46.6301   32.6975   45.2885 H   0  0  0  0  0  0  0  0  0  0  0  0
   45.4794   35.8947   42.6255 H   0  0  0  0  0  0  0  0  0  0  0  0
   43.8796   35.6656   46.5902 H   0  0  0  0  0  0  0  0  0  0  0  0
  1  6  1  0
  1 13  1  0
  2  1  1  0
  3  2  1  0
  4  3  1  0
  4  5  1  0
  5  6  1  0
  7  6  1  0
  8  7  2  0
  9  8  1  0
 10  9  2  0
 10 11  1  0
 11 12  2  0
 12  7  1  0
 13 14  1  0
 14 16  1  0
 15 20  2  0
 16 15  1  0
 17 16  2  0
 17 18  1  0
 18 19  2  0
 19 20  1  0
  1 21  1  6
  2 22  1  0
  2 23  1  0
  3 24  1  0
  3 25  1  0
  4 26  1  0
  4 27  1  0
  5 28  1  0
  5 29  1  0
  6 30  1  1
  8 31  1  0
  9 32  1  0
 10 33  1  0
 11 34  1  0
 12 35  1  0
 13 36  1  0
 13 37  1  0
 14 38  1  0
 14 39  1  0
 15 40  1  0
 17 41  1  0
 19 42  1  0
M  ISO  8  21  13  22  13  23  13  24  13  25  13  26  13  27  13  28  13
M  ISO  8  29  13  30  13  31  14  32  14  33  14  34  14  35  14  36   8
M  ISO  6  37   8  38   8  39   8  40  14  41  14  42  14
M  END
>  <minimizedAffinity>  (1) 
-4.65701532

>  <minimizedRMSD>  (1) 
2.32922077

$$$$
