
     RDKit          3D

 48 51  0  0  1  0  0  0  0  0999 V2000
   47.4250   34.1860   40.0430 C   0  0  1  0  0  0  0  0  0  0  0  0
   48.5890   34.8900   39.2900 C   0  0  0  0  0  0  0  0  0  0  0  0
   48.4220   34.6030   37.8360 C   0  0  0  0  0  0  0  0  0  0  0  0
   48.7290   33.1460   37.6430 C   0  0  0  0  0  0  0  0  0  0  0  0
   48.6460   32.3290   38.8850 C   0  0  0  0  0  0  0  0  0  0  0  0
   47.6260   32.7730   39.9160 C   0  0  2  0  0  0  0  0  0  0  0  0
   46.6740   31.6890   40.0720 C   0  0  0  0  0  0  0  0  0  0  0  0
   46.8790   30.4800   40.7790 C   0  0  0  0  0  0  0  0  0  0  0  0
   46.0350   29.4360   40.9200 C   0  0  0  0  0  0  0  0  0  0  0  0
   44.8190   29.5320   40.3120 C   0  0  0  0  0  0  0  0  0  0  0  0
   44.4810   30.6420   39.5950 C   0  0  0  0  0  0  0  0  0  0  0  0
   43.2380   30.6830   39.0050 C   0  0  0  0  0  0  0  0  0  0  0  0
   42.8570   31.7860   38.2750 C   0  0  0  0  0  0  0  0  0  0  0  0
   43.7380   32.8640   38.1340 C   0  0  0  0  0  0  0  0  0  0  0  0
   44.9540   32.7320   38.7580 C   0  0  0  0  0  0  0  0  0  0  0  0
   45.4030   31.6620   39.5020 C   0  0  0  0  0  0  0  0  0  0  0  0
   47.6060   34.6800   41.5090 C   0  0  0  0  0  0  0  0  0  0  0  0
   46.6820   33.7370   42.2430 C   0  0  0  0  0  0  0  0  0  0  0  0
   45.8500   33.8040   44.5300 C   0  0  0  0  0  0  0  0  0  0  0  0
   45.9860   34.4420   43.2770 C   0  0  0  0  0  0  0  0  0  0  0  0
   45.4270   35.6630   43.0300 C   0  0  0  0  0  0  0  0  0  0  0  0
   44.7400   36.2100   44.0680 N   0  0  0  0  0  0  0  0  0  0  0  0
   44.5960   35.6130   45.2750 C   0  0  0  0  0  0  0  0  0  0  0  0
   45.1570   34.3990   45.5090 N   0  0  0  0  0  0  0  0  0  0  0  0
   46.4126   34.4038   39.6720 H   0  0  0  0  0  0  0  0  0  0  0  0
   48.5478   35.9751   39.4656 H   0  0  0  0  0  0  0  0  0  0  0  0
   49.5612   34.5206   39.6483 H   0  0  0  0  0  0  0  0  0  0  0  0
   47.3891   34.8168   37.5241 H   0  0  0  0  0  0  0  0  0  0  0  0
   49.0920   35.2310   37.2304 H   0  0  0  0  0  0  0  0  0  0  0  0
   48.0134   32.7375   36.9143 H   0  0  0  0  0  0  0  0  0  0  0  0
   49.7723   33.0884   37.2991 H   0  0  0  0  0  0  0  0  0  0  0  0
   48.3988   31.2980   38.5918 H   0  0  0  0  0  0  0  0  0  0  0  0
   49.6247   32.4404   39.3746 H   0  0  0  0  0  0  0  0  0  0  0  0
   47.8973   32.8905   40.9755 H   0  0  0  0  0  0  0  0  0  0  0  0
   47.8535   30.3778   41.2789 H   0  0  0  0  0  0  0  0  0  0  0  0
   46.3167   28.5455   41.5010 H   0  0  0  0  0  0  0  0  0  0  0  0
   44.1008   28.7035   40.4007 H   0  0  0  0  0  0  0  0  0  0  0  0
   42.5484   29.8333   39.1170 H   0  0  0  0  0  0  0  0  0  0  0  0
   41.8635   31.8199   37.8041 H   0  0  0  0  0  0  0  0  0  0  0  0
   43.4725   33.7628   37.5581 H   0  0  0  0  0  0  0  0  0  0  0  0
   45.6498   33.5773   38.6520 H   0  0  0  0  0  0  0  0  0  0  0  0
   48.6471   34.5711   41.8470 H   0  0  0  0  0  0  0  0  0  0  0  0
   47.3820   35.7462   41.6607 H   0  0  0  0  0  0  0  0  0  0  0  0
   45.9533   33.3157   41.5348 H   0  0  0  0  0  0  0  0  0  0  0  0
   47.2747   32.9270   42.6931 H   0  0  0  0  0  0  0  0  0  0  0  0
   46.3124   32.8206   44.7010 H   0  0  0  0  0  0  0  0  0  0  0  0
   45.5257   36.1692   42.0584 H   0  0  0  0  0  0  0  0  0  0  0  0
   44.0223   36.1136   46.0689 H   0  0  0  0  0  0  0  0  0  0  0  0
  1 17  1  0
  2  1  1  0
  3  2  1  0
  4  3  1  0
  4  5  1  0
  5  6  1  0
  6  1  1  0
  6  7  1  0
  7  8  2  0
  8  9  1  0
 10  9  2  0
 11 10  1  0
 12 11  2  0
 13 12  1  0
 14 13  2  0
 14 15  1  0
 15 16  2  0
 16 11  1  0
 16  7  1  0
 17 18  1  0
 18 20  1  0
 19 24  2  0
 20 19  1  0
 21 20  2  0
 21 22  1  0
 22 23  2  0
 23 24  1  0
  1 25  1  6
  2 26  1  0
  2 27  1  0
  3 28  1  0
  3 29  1  0
  4 30  1  0
  4 31  1  0
  5 32  1  0
  5 33  1  0
  6 34  1  1
  8 35  1  0
  9 36  1  0
 10 37  1  0
 12 38  1  0
 13 39  1  0
 14 40  1  0
 15 41  1  0
 17 42  1  0
 17 43  1  0
 18 44  1  0
 18 45  1  0
 19 46  1  0
 21 47  1  0
 23 48  1  0
M  ISO  8  25  13  26  13  27  13  28  13  29  13  30  13  31  13  32  13
M  ISO  8  33  13  34  13  35  14  36  14  37  14  38  14  39  14  40  14
M  ISO  8  41  14  42   8  43   8  44   8  45   8  46  14  47  14  48  14
M  END
>  <minimizedAffinity>  (1) 
-4.60897636

>  <minimizedRMSD>  (1) 
1.28275526

$$$$
