
     RDKit          3D

 40 42  0  0  1  0  0  0  0  0999 V2000
   46.9990   34.3160   40.4190 C   0  0  1  0  0  0  0  0  0  0  0  0
   48.1910   34.1520   39.4570 C   0  0  0  0  0  0  0  0  0  0  0  0
   47.6110   33.8870   38.0910 C   0  0  0  0  0  0  0  0  0  0  0  0
   46.9260   32.5510   38.0890 C   0  0  0  0  0  0  0  0  0  0  0  0
   46.7640   32.0060   39.4790 C   0  0  0  0  0  0  0  0  0  0  0  0
   46.2320   33.0560   40.4620 C   0  0  2  0  0  0  0  0  0  0  0  0
   44.7940   33.1190   40.1790 C   0  0  0  0  0  0  0  0  0  0  0  0
   43.9900   32.0520   39.9110 C   0  0  0  0  0  0  0  0  0  0  0  0
   42.6350   32.0770   39.6530 C   0  0  0  0  0  0  0  0  0  0  0  0
   42.0320   33.3000   39.6660 N   0  0  0  0  0  0  0  0  0  0  0  0
   42.8020   34.3930   39.9280 C   0  0  0  0  0  0  0  0  0  0  0  0
   44.1200   34.3090   40.1740 N   0  0  0  0  0  0  0  0  0  0  0  0
   47.5610   34.6840   41.8080 C   0  0  0  0  0  0  0  0  0  0  0  0
   46.9990   33.6670   42.7600 C   0  0  0  0  0  0  0  0  0  0  0  0
   46.0170   33.6860   44.9890 C   0  0  0  0  0  0  0  0  0  0  0  0
   46.1450   34.2920   43.7290 C   0  0  0  0  0  0  0  0  0  0  0  0
   45.4490   35.4440   43.4560 C   0  0  0  0  0  0  0  0  0  0  0  0
   44.6520   35.9570   44.4370 N   0  0  0  0  0  0  0  0  0  0  0  0
   44.5270   35.3730   45.6550 C   0  0  0  0  0  0  0  0  0  0  0  0
   45.2110   34.2360   45.9310 N   0  0  0  0  0  0  0  0  0  0  0  0
   46.3176   35.1115   40.0829 H   0  0  0  0  0  0  0  0  0  0  0  0
   48.7946   35.0715   39.4409 H   0  0  0  0  0  0  0  0  0  0  0  0
   48.8465   33.3280   39.7755 H   0  0  0  0  0  0  0  0  0  0  0  0
   46.8825   34.6730   37.8431 H   0  0  0  0  0  0  0  0  0  0  0  0
   48.4181   33.8865   37.3436 H   0  0  0  0  0  0  0  0  0  0  0  0
   45.9317   32.6612   37.6315 H   0  0  0  0  0  0  0  0  0  0  0  0
   47.5487   31.8480   37.5162 H   0  0  0  0  0  0  0  0  0  0  0  0
   46.0585   31.1626   39.4474 H   0  0  0  0  0  0  0  0  0  0  0  0
   47.7565   31.6894   39.8322 H   0  0  0  0  0  0  0  0  0  0  0  0
   46.3715   32.7956   41.5216 H   0  0  0  0  0  0  0  0  0  0  0  0
   44.4736   31.0641   39.8991 H   0  0  0  0  0  0  0  0  0  0  0  0
   42.0693   31.1564   39.4471 H   0  0  0  0  0  0  0  0  0  0  0  0
   42.3252   35.3843   39.9385 H   0  0  0  0  0  0  0  0  0  0  0  0
   48.6599   34.6362   41.8014 H   0  0  0  0  0  0  0  0  0  0  0  0
   47.2828   35.7077   42.0989 H   0  0  0  0  0  0  0  0  0  0  0  0
   46.4180   32.9248   42.1929 H   0  0  0  0  0  0  0  0  0  0  0  0
   47.8325   33.1799   43.2873 H   0  0  0  0  0  0  0  0  0  0  0  0
   46.5718   32.7629   45.2127 H   0  0  0  0  0  0  0  0  0  0  0  0
   45.5317   35.9378   42.4765 H   0  0  0  0  0  0  0  0  0  0  0  0
   43.8721   35.8212   46.4168 H   0  0  0  0  0  0  0  0  0  0  0  0
  1  6  1  0
  1 13  1  0
  2  1  1  0
  3  2  1  0
  4  3  1  0
  4  5  1  0
  5  6  1  0
  7  6  1  0
  8  7  2  0
  9 10  2  0
  9  8  1  0
 10 11  1  0
 11 12  2  0
 12  7  1  0
 13 14  1  0
 14 16  1  0
 15 20  2  0
 16 15  1  0
 17 16  2  0
 17 18  1  0
 18 19  2  0
 19 20  1  0
  1 21  1  6
  2 22  1  0
  2 23  1  0
  3 24  1  0
  3 25  1  0
  4 26  1  0
  4 27  1  0
  5 28  1  0
  5 29  1  0
  6 30  1  1
  8 31  1  0
  9 32  1  0
 11 33  1  0
 13 34  1  0
 13 35  1  0
 14 36  1  0
 14 37  1  0
 15 38  1  0
 17 39  1  0
 19 40  1  0
M  ISO  8  21  13  22  13  23  13  24  13  25  13  26  13  27  13  28  13
M  ISO  8  29  13  30  13  31  14  32  14  33  14  34   8  35   8  36   8
M  ISO  4  37   8  38  14  39  14  40  14
M  END
>  <minimizedAffinity>  (1) 
-4.57689095

>  <minimizedRMSD>  (1) 
2.1404376

$$$$
