
     RDKit          3D

 34 35  0  0  1  0  0  0  0  0999 V2000
   47.6280   34.3130   40.2140 C   0  0  1  0  0  0  0  0  0  0  0  0
   48.5760   34.9300   39.2060 C   0  0  0  0  0  0  0  0  0  0  0  0
   48.2480   34.2850   37.8620 C   0  0  0  0  0  0  0  0  0  0  0  0
   48.6940   32.8350   37.9010 C   0  0  0  0  0  0  0  0  0  0  0  0
   48.9620   32.3630   39.2990 C   0  0  0  0  0  0  0  0  0  0  0  0
   47.9270   32.8380   40.3020 C   0  0  2  0  0  0  0  0  0  0  0  0
   47.8210   34.9370   41.6040 C   0  0  0  0  0  0  0  0  0  0  0  0
   47.3230   33.8930   42.5770 C   0  0  0  0  0  0  0  0  0  0  0  0
   46.1520   33.8350   44.7290 C   0  0  0  0  0  0  0  0  0  0  0  0
   46.3720   34.4450   43.4830 C   0  0  0  0  0  0  0  0  0  0  0  0
   45.6520   35.5700   43.1650 C   0  0  0  0  0  0  0  0  0  0  0  0
   44.7500   36.0560   44.0720 N   0  0  0  0  0  0  0  0  0  0  0  0
   44.5500   35.4560   45.2700 C   0  0  0  0  0  0  0  0  0  0  0  0
   45.2510   34.3440   45.5990 N   0  0  0  0  0  0  0  0  0  0  0  0
   46.7280   32.0530   39.9640 N   0  0  0  0  0  0  0  0  0  0  0  0
   46.5926   34.4927   39.8890 H   0  0  0  0  0  0  0  0  0  0  0  0
   48.4223   36.0180   39.1544 H   0  0  0  0  0  0  0  0  0  0  0  0
   49.6258   34.7594   39.4867 H   0  0  0  0  0  0  0  0  0  0  0  0
   48.7786   34.8147   37.0571 H   0  0  0  0  0  0  0  0  0  0  0  0
   47.1661   34.3411   37.6716 H   0  0  0  0  0  0  0  0  0  0  0  0
   47.9036   32.2091   37.4610 H   0  0  0  0  0  0  0  0  0  0  0  0
   49.6316   32.7543   37.3314 H   0  0  0  0  0  0  0  0  0  0  0  0
   48.9704   31.2630   39.3005 H   0  0  0  0  0  0  0  0  0  0  0  0
   49.9303   32.7855   39.6054 H   0  0  0  0  0  0  0  0  0  0  0  0
   48.2858   32.6945   41.3319 H   0  0  0  0  0  0  0  0  0  0  0  0
   48.8835   35.1572   41.7843 H   0  0  0  0  0  0  0  0  0  0  0  0
   47.2790   35.8886   41.7074 H   0  0  0  0  0  0  0  0  0  0  0  0
   46.8496   33.0749   42.0143 H   0  0  0  0  0  0  0  0  0  0  0  0
   48.1803   33.5199   43.1565 H   0  0  0  0  0  0  0  0  0  0  0  0
   46.7195   32.9325   45.0001 H   0  0  0  0  0  0  0  0  0  0  0  0
   45.7978   36.0722   42.1973 H   0  0  0  0  0  0  0  0  0  0  0  0
   43.8172   35.8722   45.9770 H   0  0  0  0  0  0  0  0  0  0  0  0
   46.2619   31.7479   40.8304 H   0  0  0  0  0  0  0  0  0  0  0  0
   46.0810   32.6346   39.4126 H   0  0  0  0  0  0  0  0  0  0  0  0
  1  6  1  0
  1  7  1  0
  2  1  1  0
  3  4  1  0
  3  2  1  0
  4  5  1  0
  5  6  1  0
  7  8  1  0
  8 10  1  0
  9 14  2  0
 10  9  1  0
 11 10  2  0
 11 12  1  0
 12 13  2  0
 13 14  1  0
 15  6  1  0
  1 16  1  6
  2 17  1  0
  2 18  1  0
  3 19  1  0
  3 20  1  0
  4 21  1  0
  4 22  1  0
  5 23  1  0
  5 24  1  0
  6 25  1  1
  7 26  1  0
  7 27  1  0
  8 28  1  0
  8 29  1  0
  9 30  1  0
 11 31  1  0
 13 32  1  0
 15 33  1  0
 15 34  1  0
M  ISO  8  16  13  17  13  18  13  19  13  20  13  21  13  22  13  23  13
M  ISO  8  24  13  25  13  26   8  27   8  28   8  29   8  30  14  31  14
M  ISO  3  32  14  33   5  34   5
M  END
>  <minimizedAffinity>  (1) 
-4.26792669

>  <minimizedRMSD>  (1) 
0.123514652

$$$$
