
     RDKit          3D

 44 46  0  0  1  0  0  0  0  0999 V2000
   47.2320   34.3060   40.2170 C   0  0  1  0  0  0  0  0  0  0  0  0
   48.3610   34.3690   39.1930 C   0  0  0  0  0  0  0  0  0  0  0  0
   47.7390   33.9620   37.8630 C   0  0  0  0  0  0  0  0  0  0  0  0
   47.3660   32.4930   37.9090 C   0  0  0  0  0  0  0  0  0  0  0  0
   47.4880   31.9560   39.3180 C   0  0  0  0  0  0  0  0  0  0  0  0
   46.8040   32.8680   40.3330 C   0  0  2  0  0  0  0  0  0  0  0  0
   45.4380   32.6870   40.1520 N   0  0  0  0  0  0  0  0  0  0  0  0
   44.5580   33.7650   40.0190 C   0  0  0  0  0  0  0  0  0  0  0  0
   43.3930   33.1250   39.2550 C   0  0  0  0  0  0  0  0  0  0  0  0
   43.3610   31.7540   39.9380 C   0  0  0  0  0  0  0  0  0  0  0  0
   44.7970   31.4640   40.3370 C   0  0  0  0  0  0  0  0  0  0  0  0
   47.7080   34.8250   41.5780 C   0  0  0  0  0  0  0  0  0  0  0  0
   47.2880   33.8340   42.6120 C   0  0  0  0  0  0  0  0  0  0  0  0
   46.1600   33.7870   44.7770 C   0  0  0  0  0  0  0  0  0  0  0  0
   46.3470   34.4120   43.5370 C   0  0  0  0  0  0  0  0  0  0  0  0
   45.6230   35.5400   43.2360 C   0  0  0  0  0  0  0  0  0  0  0  0
   44.7450   36.0020   44.1740 N   0  0  0  0  0  0  0  0  0  0  0  0
   44.5640   35.3970   45.3740 C   0  0  0  0  0  0  0  0  0  0  0  0
   45.2820   34.2830   45.6650 N   0  0  0  0  0  0  0  0  0  0  0  0
   46.3912   34.9376   39.8944 H   0  0  0  0  0  0  0  0  0  0  0  0
   48.7647   35.3903   39.1304 H   0  0  0  0  0  0  0  0  0  0  0  0
   49.1951   33.7071   39.4690 H   0  0  0  0  0  0  0  0  0  0  0  0
   48.4630   34.1314   37.0523 H   0  0  0  0  0  0  0  0  0  0  0  0
   46.8368   34.5642   37.6801 H   0  0  0  0  0  0  0  0  0  0  0  0
   46.3281   32.3727   37.5650 H   0  0  0  0  0  0  0  0  0  0  0  0
   48.0511   31.9328   37.2557 H   0  0  0  0  0  0  0  0  0  0  0  0
   47.0209   30.9611   39.3616 H   0  0  0  0  0  0  0  0  0  0  0  0
   48.5569   31.9022   39.5722 H   0  0  0  0  0  0  0  0  0  0  0  0
   47.0983   32.6001   41.3585 H   0  0  0  0  0  0  0  0  0  0  0  0
   44.2346   34.1417   41.0006 H   0  0  0  0  0  0  0  0  0  0  0  0
   44.9961   34.6385   39.5140 H   0  0  0  0  0  0  0  0  0  0  0  0
   43.6051   33.0419   38.1788 H   0  0  0  0  0  0  0  0  0  0  0  0
   42.4475   33.6861   39.2897 H   0  0  0  0  0  0  0  0  0  0  0  0
   42.7136   31.7827   40.8269 H   0  0  0  0  0  0  0  0  0  0  0  0
   42.9582   30.9765   39.2722 H   0  0  0  0  0  0  0  0  0  0  0  0
   45.2356   30.6884   39.6919 H   0  0  0  0  0  0  0  0  0  0  0  0
   44.8880   31.0832   41.3650 H   0  0  0  0  0  0  0  0  0  0  0  0
   48.8034   34.9260   41.5785 H   0  0  0  0  0  0  0  0  0  0  0  0
   47.2705   35.8119   41.7892 H   0  0  0  0  0  0  0  0  0  0  0  0
   46.8184   32.9730   42.1138 H   0  0  0  0  0  0  0  0  0  0  0  0
   48.1794   33.5187   43.1741 H   0  0  0  0  0  0  0  0  0  0  0  0
   46.7363   32.8835   45.0254 H   0  0  0  0  0  0  0  0  0  0  0  0
   45.7465   36.0539   42.2713 H   0  0  0  0  0  0  0  0  0  0  0  0
   43.8455   35.8034   46.1010 H   0  0  0  0  0  0  0  0  0  0  0  0
  1  6  1  0
  1 12  1  0
  2  1  1  0
  3  4  1  0
  3  2  1  0
  4  5  1  0
  5  6  1  0
  7  8  1  0
  7  6  1  0
  7 11  1  0
  9 10  1  0
  9  8  1  0
 10 11  1  0
 12 13  1  0
 13 15  1  0
 14 19  2  0
 15 14  1  0
 16 15  2  0
 16 17  1  0
 17 18  2  0
 18 19  1  0
  1 20  1  6
  2 21  1  0
  2 22  1  0
  3 23  1  0
  3 24  1  0
  4 25  1  0
  4 26  1  0
  5 27  1  0
  5 28  1  0
  6 29  1  1
  8 30  1  0
  8 31  1  0
  9 32  1  0
  9 33  1  0
 10 34  1  0
 10 35  1  0
 11 36  1  0
 11 37  1  0
 12 38  1  0
 12 39  1  0
 13 40  1  0
 13 41  1  0
 14 42  1  0
 16 43  1  0
 18 44  1  0
M  ISO  8  20  13  21  13  22  13  23  13  24  13  25  13  26  13  27  13
M  ISO  8  28  13  29  13  30  13  31  13  32  13  33  13  34  13  35  13
M  ISO  8  36  13  37  13  38   8  39   8  40   8  41   8  42  14  43  14
M  ISO  1  44  14
M  END
>  <minimizedAffinity>  (1) 
-4.33220625

>  <minimizedRMSD>  (1) 
1.34981263

$$$$
