
     RDKit          3D

 18 18  0  0  0  0  0  0  0  0999 V2000
   45.6190   34.3820   41.0450 C   0  0  0  0  0  0  0  0  0  0  0  0
   46.9180   34.7850   41.3440 C   0  0  0  0  0  0  0  0  0  0  0  0
   47.9660   34.2600   40.5700 C   0  0  0  0  0  0  0  0  0  0  0  0
   47.6540   33.3860   39.5700 N   0  0  0  0  0  0  0  0  0  0  0  0
   46.3850   33.0260   39.3170 C   0  0  0  0  0  0  0  0  0  0  0  0
   45.3830   33.5210   40.0500 N   0  0  0  0  0  0  0  0  0  0  0  0
   46.0080   32.1190   38.2880 N   0  0  0  0  0  0  0  0  0  0  0  0
   44.5270   34.9210   41.8430 C   0  0  0  0  0  0  0  0  0  0  0  0
   43.7380   35.7610   41.3030 O   0  0  0  0  0  0  0  0  0  0  0  0
   44.3890   34.5000   43.1600 O   0  0  0  0  0  0  0  0  0  0  0  0
   45.0020   35.2710   44.1770 C   0  0  0  0  0  0  0  0  0  0  0  0
   44.1740   35.4340   45.2790 F   0  0  0  0  0  0  0  0  0  0  0  0
   46.1730   34.6610   44.5980 F   0  0  0  0  0  0  0  0  0  0  0  0
   45.2610   36.5100   43.6280 F   0  0  0  0  0  0  0  0  0  0  0  0
   47.1174   35.4932   42.1617 H   0  0  0  0  0  0  0  0  0  0  0  0
   49.0102   34.5459   40.7649 H   0  0  0  0  0  0  0  0  0  0  0  0
   45.0151   31.8846   38.1464 H   0  0  0  0  0  0  0  0  0  0  0  0
   46.7280   31.6967   37.6845 H   0  0  0  0  0  0  0  0  0  0  0  0
  1  2  2  0
  1  8  1  0
  3  2  1  0
  4  3  2  0
  5  4  1  0
  5  6  2  0
  6  1  1  0
  7  5  1  0
  8 10  1  0
  9  8  2  0
 10 11  1  0
 11 13  1  0
 11 12  1  0
 14 11  1  0
  2 15  1  0
  3 16  1  0
  7 17  1  0
  7 18  1  0
M  ISO  2  15  14  16  14
M  END
>  <minimizedAffinity>  (1) 
-3.60809278

>  <minimizedRMSD>  (1) 
0.0130657107

$$$$
