
     RDKit          3D

 52 55  0  0  1  0  0  0  0  0999 V2000
   46.8050   34.2820   40.2640 C   0  0  1  0  0  0  0  0  0  0  0  0
   48.0540   33.9910   39.4130 C   0  0  0  0  0  0  0  0  0  0  0  0
   47.5110   33.6240   38.0370 C   0  0  0  0  0  0  0  0  0  0  0  0
   46.8550   32.2800   38.1470 C   0  0  0  0  0  0  0  0  0  0  0  0
   46.6000   31.9110   39.5710 C   0  0  0  0  0  0  0  0  0  0  0  0
   45.9720   33.1090   40.3500 C   0  0  2  0  0  0  0  0  0  0  0  0
   47.2530   34.7280   41.6740 C   0  0  0  0  0  0  0  0  0  0  0  0
   46.7350   33.7440   42.6210 C   0  0  0  0  0  0  0  0  0  0  0  0
   45.9430   33.6840   44.8910 C   0  0  0  0  0  0  0  0  0  0  0  0
   45.9840   34.3770   43.6810 C   0  0  0  0  0  0  0  0  0  0  0  0
   45.3170   35.5350   43.4950 C   0  0  0  0  0  0  0  0  0  0  0  0
   44.5930   36.0110   44.5450 N   0  0  0  0  0  0  0  0  0  0  0  0
   44.5310   35.3660   45.7330 C   0  0  0  0  0  0  0  0  0  0  0  0
   45.2040   34.2030   45.9070 N   0  0  0  0  0  0  0  0  0  0  0  0
   44.6300   33.2880   39.6900 C   0  0  0  0  0  0  0  0  0  0  0  0
   43.8500   34.4020   40.3410 C   0  0  0  0  0  0  0  0  0  0  0  0
   42.5380   34.6470   39.6200 C   0  0  0  0  0  0  0  0  0  0  0  0
   42.3580   35.3440   38.4370 C   0  0  0  0  0  0  0  0  0  0  0  0
   41.0540   35.3310   38.1410 N   0  0  0  0  0  0  0  0  0  0  0  0
   40.3640   34.6590   39.0730 C   0  0  0  0  0  0  0  0  0  0  0  0
   39.0140   34.3890   39.1890 C   0  0  0  0  0  0  0  0  0  0  0  0
   38.6270   33.6470   40.3110 C   0  0  0  0  0  0  0  0  0  0  0  0
   39.5280   33.1880   41.2780 C   0  0  0  0  0  0  0  0  0  0  0  0
   40.8650   33.4950   41.1010 C   0  0  0  0  0  0  0  0  0  0  0  0
   41.2790   34.2260   40.0040 C   0  0  0  0  0  0  0  0  0  0  0  0
   46.2173   35.0839   39.7933 H   0  0  0  0  0  0  0  0  0  0  0  0
   48.6967   34.8816   39.3510 H   0  0  0  0  0  0  0  0  0  0  0  0
   48.6717   33.1888   39.8430 H   0  0  0  0  0  0  0  0  0  0  0  0
   48.3346   33.5800   37.3092 H   0  0  0  0  0  0  0  0  0  0  0  0
   46.7868   34.3784   37.6958 H   0  0  0  0  0  0  0  0  0  0  0  0
   45.8970   32.3045   37.6070 H   0  0  0  0  0  0  0  0  0  0  0  0
   47.5307   31.5292   37.7114 H   0  0  0  0  0  0  0  0  0  0  0  0
   45.9077   31.0568   39.6038 H   0  0  0  0  0  0  0  0  0  0  0  0
   47.5574   31.6462   40.0435 H   0  0  0  0  0  0  0  0  0  0  0  0
   45.8752   32.9299   41.4310 H   0  0  0  0  0  0  0  0  0  0  0  0
   48.3512   34.7617   41.7278 H   0  0  0  0  0  0  0  0  0  0  0  0
   46.8713   35.7332   41.9062 H   0  0  0  0  0  0  0  0  0  0  0  0
   46.0774   33.0435   42.0854 H   0  0  0  0  0  0  0  0  0  0  0  0
   47.5875   33.2133   43.0699 H   0  0  0  0  0  0  0  0  0  0  0  0
   46.4949   32.7412   45.0197 H   0  0  0  0  0  0  0  0  0  0  0  0
   45.3565   36.0717   42.5356 H   0  0  0  0  0  0  0  0  0  0  0  0
   43.9347   35.7855   46.5567 H   0  0  0  0  0  0  0  0  0  0  0  0
   44.0593   32.3516   39.7763 H   0  0  0  0  0  0  0  0  0  0  0  0
   44.7918   33.5458   38.6329 H   0  0  0  0  0  0  0  0  0  0  0  0
   43.6399   34.1299   41.3859 H   0  0  0  0  0  0  0  0  0  0  0  0
   44.4509   35.3221   40.2932 H   0  0  0  0  0  0  0  0  0  0  0  0
   43.1499   35.8247   37.8439 H   0  0  0  0  0  0  0  0  0  0  0  0
   40.6372   35.7762   37.3109 H   0  0  0  0  0  0  0  0  0  0  0  0
   38.2851   34.7372   38.4424 H   0  0  0  0  0  0  0  0  0  0  0  0
   37.5599   33.4128   40.4390 H   0  0  0  0  0  0  0  0  0  0  0  0
   39.1861   32.6052   42.1460 H   0  0  0  0  0  0  0  0  0  0  0  0
   41.6051   33.1542   41.8400 H   0  0  0  0  0  0  0  0  0  0  0  0
  1  6  1  0
  1  7  1  0
  2  1  1  0
  3  4  1  0
  3  2  1  0
  4  5  1  0
  5  6  1  0
  7  8  1  0
  8 10  1  0
  9 14  2  0
 10  9  1  0
 11 10  2  0
 11 12  1  0
 12 13  2  0
 13 14  1  0
 15 16  1  0
 15  6  1  0
 17 25  1  0
 17 16  1  0
 18 17  2  0
 19 18  1  0
 19 20  1  0
 20 21  2  0
 20 25  1  0
 21 22  1  0
 22 23  2  0
 24 23  1  0
 25 24  2  0
  1 26  1  6
  2 27  1  0
  2 28  1  0
  3 29  1  0
  3 30  1  0
  4 31  1  0
  4 32  1  0
  5 33  1  0
  5 34  1  0
  6 35  1  1
  7 36  1  0
  7 37  1  0
  8 38  1  0
  8 39  1  0
  9 40  1  0
 11 41  1  0
 13 42  1  0
 15 43  1  0
 15 44  1  0
 16 45  1  0
 16 46  1  0
 18 47  1  0
 19 48  1  0
 21 49  1  0
 22 50  1  0
 23 51  1  0
 24 52  1  0
M  ISO  8  26  13  27  13  28  13  29  13  30  13  31  13  32  13  33  13
M  ISO  8  34  13  35  13  36   8  37   8  38   8  39   8  40  14  41  14
M  ISO  8  42  14  43   8  44   8  45   8  46   8  47  14  48   9  49  14
M  ISO  3  50  14  51  14  52  14
M  END
>  <minimizedAffinity>  (1) 
-6.18029547

>  <minimizedRMSD>  (1) 
2.6256547

$$$$
