
     RDKit          3D

 48 50  0  0  1  0  0  0  0  0999 V2000
   46.8300   34.3510   40.3090 C   0  0  1  0  0  0  0  0  0  0  0  0
   48.0620   33.9200   39.4930 C   0  0  0  0  0  0  0  0  0  0  0  0
   47.5180   33.6280   38.1010 C   0  0  0  0  0  0  0  0  0  0  0  0
   46.6960   32.3740   38.1710 C   0  0  0  0  0  0  0  0  0  0  0  0
   46.3710   32.0270   39.5850 C   0  0  0  0  0  0  0  0  0  0  0  0
   45.8730   33.2610   40.3780 C   0  0  2  0  0  0  0  0  0  0  0  0
   47.2850   34.7420   41.7310 C   0  0  0  0  0  0  0  0  0  0  0  0
   46.7220   33.7490   42.6500 C   0  0  0  0  0  0  0  0  0  0  0  0
   45.9230   33.6750   44.9180 C   0  0  0  0  0  0  0  0  0  0  0  0
   45.9760   34.3790   43.7140 C   0  0  0  0  0  0  0  0  0  0  0  0
   45.3230   35.5460   43.5360 C   0  0  0  0  0  0  0  0  0  0  0  0
   44.5980   36.0240   44.5820 N   0  0  0  0  0  0  0  0  0  0  0  0
   44.5240   35.3660   45.7670 C   0  0  0  0  0  0  0  0  0  0  0  0
   45.1820   34.1990   45.9330 N   0  0  0  0  0  0  0  0  0  0  0  0
   44.5850   33.5900   39.6980 C   0  0  0  0  0  0  0  0  0  0  0  0
   43.7060   34.4940   40.5510 C   0  0  0  0  0  0  0  0  0  0  0  0
   42.4470   34.5570   39.7590 N   0  0  0  0  0  0  0  0  0  0  0  0
   42.3140   35.2530   38.6330 C   0  0  0  0  0  0  0  0  0  0  0  0
   41.0850   35.2260   37.9940 C   0  0  0  0  0  0  0  0  0  0  0  0
   40.0140   34.5070   38.4910 C   0  0  0  0  0  0  0  0  0  0  0  0
   38.8880   34.4660   37.9280 O   0  0  0  0  0  0  0  0  0  0  0  0
   40.1730   33.8180   39.6200 N   0  0  0  0  0  0  0  0  0  0  0  0
   41.3630   33.8640   40.2080 C   0  0  0  0  0  0  0  0  0  0  0  0
   41.5110   33.2030   41.2900 O   0  0  0  0  0  0  0  0  0  0  0  0
   46.3471   35.2117   39.8232 H   0  0  0  0  0  0  0  0  0  0  0  0
   48.8064   34.7290   39.4571 H   0  0  0  0  0  0  0  0  0  0  0  0
   48.5702   33.0494   39.9333 H   0  0  0  0  0  0  0  0  0  0  0  0
   48.3519   33.4876   37.3974 H   0  0  0  0  0  0  0  0  0  0  0  0
   46.8998   34.4679   37.7513 H   0  0  0  0  0  0  0  0  0  0  0  0
   45.7600   32.5257   37.6134 H   0  0  0  0  0  0  0  0  0  0  0  0
   47.2764   31.5492   37.7319 H   0  0  0  0  0  0  0  0  0  0  0  0
   45.5846   31.2579   39.5916 H   0  0  0  0  0  0  0  0  0  0  0  0
   47.2881   31.6572   40.0667 H   0  0  0  0  0  0  0  0  0  0  0  0
   45.7478   33.0760   41.4551 H   0  0  0  0  0  0  0  0  0  0  0  0
   48.3833   34.7330   41.7919 H   0  0  0  0  0  0  0  0  0  0  0  0
   46.9406   35.7545   41.9885 H   0  0  0  0  0  0  0  0  0  0  0  0
   46.0511   33.0819   42.0889 H   0  0  0  0  0  0  0  0  0  0  0  0
   47.5516   33.1820   43.0975 H   0  0  0  0  0  0  0  0  0  0  0  0
   46.4637   32.7253   45.0431 H   0  0  0  0  0  0  0  0  0  0  0  0
   45.3752   36.0898   42.5813 H   0  0  0  0  0  0  0  0  0  0  0  0
   43.9280   35.7836   46.5918 H   0  0  0  0  0  0  0  0  0  0  0  0
   44.8046   34.1007   38.7488 H   0  0  0  0  0  0  0  0  0  0  0  0
   44.0408   32.6496   39.5264 H   0  0  0  0  0  0  0  0  0  0  0  0
   43.5296   34.0553   41.5442 H   0  0  0  0  0  0  0  0  0  0  0  0
   44.1509   35.4806   40.7477 H   0  0  0  0  0  0  0  0  0  0  0  0
   43.1540   35.8321   38.2220 H   0  0  0  0  0  0  0  0  0  0  0  0
   40.9573   35.7949   37.0613 H   0  0  0  0  0  0  0  0  0  0  0  0
   39.4002   33.2689   40.0228 H   0  0  0  0  0  0  0  0  0  0  0  0
  1  6  1  0
  1  7  1  0
  2  1  1  0
  3  4  1  0
  3  2  1  0
  4  5  1  0
  5  6  1  0
  7  8  1  0
  8 10  1  0
  9 14  2  0
 10  9  1  0
 11 10  2  0
 11 12  1  0
 12 13  2  0
 13 14  1  0
 15  6  1  0
 15 16  1  0
 17 23  1  0
 17 16  1  0
 18 17  1  0
 19 20  1  0
 19 18  2  0
 20 22  1  0
 21 20  2  0
 22 23  1  0
 23 24  2  0
  1 25  1  6
  2 26  1  0
  2 27  1  0
  3 28  1  0
  3 29  1  0
  4 30  1  0
  4 31  1  0
  5 32  1  0
  5 33  1  0
  6 34  1  1
  7 35  1  0
  7 36  1  0
  8 37  1  0
  8 38  1  0
  9 39  1  0
 11 40  1  0
 13 41  1  0
 15 42  1  0
 15 43  1  0
 16 44  1  0
 16 45  1  0
 18 46  1  0
 19 47  1  0
 22 48  1  0
M  ISO  8  25  13  26  13  27  13  28  13  29  13  30  13  31  13  32  13
M  ISO  8  33  13  34  13  35   8  36   8  37   8  38   8  39  14  40  14
M  ISO  8  41  14  42   8  43   8  44   8  45   8  46  14  47  14  48   9
M  END
>  <minimizedAffinity>  (1) 
-5.48986578

>  <minimizedRMSD>  (1) 
2.47974515

$$$$
