
     RDKit          3D

 47 49  0  0  1  0  0  0  0  0999 V2000
   46.7460   34.3850   40.4960 C   0  0  1  0  0  0  0  0  0  0  0  0
   47.9400   33.9170   39.6540 C   0  0  0  0  0  0  0  0  0  0  0  0
   47.3520   33.6130   38.2760 C   0  0  0  0  0  0  0  0  0  0  0  0
   46.4800   32.3990   38.3780 C   0  0  0  0  0  0  0  0  0  0  0  0
   46.1840   32.0790   39.8000 C   0  0  0  0  0  0  0  0  0  0  0  0
   45.7530   33.3320   40.5970 C   0  0  2  0  0  0  0  0  0  0  0  0
   47.2520   34.7790   41.9050 C   0  0  0  0  0  0  0  0  0  0  0  0
   46.7920   33.7330   42.8230 C   0  0  0  0  0  0  0  0  0  0  0  0
   46.0250   33.5520   45.1000 C   0  0  0  0  0  0  0  0  0  0  0  0
   46.0210   34.2830   43.9110 C   0  0  0  0  0  0  0  0  0  0  0  0
   45.2950   35.4130   43.7710 C   0  0  0  0  0  0  0  0  0  0  0  0
   44.5570   35.8230   44.8350 N   0  0  0  0  0  0  0  0  0  0  0  0
   44.5370   35.1390   46.0020 C   0  0  0  0  0  0  0  0  0  0  0  0
   45.2670   34.0090   46.1340 N   0  0  0  0  0  0  0  0  0  0  0  0
   44.4550   33.6990   39.9580 C   0  0  0  0  0  0  0  0  0  0  0  0
   43.7970   34.8940   40.6570 C   0  0  0  0  0  0  0  0  0  0  0  0
   42.3890   34.8580   40.0900 C   0  0  0  0  0  0  0  0  0  0  0  0
   41.3710   35.4830   40.7810 C   0  0  0  0  0  0  0  0  0  0  0  0
   40.0500   35.5360   40.3960 C   0  0  0  0  0  0  0  0  0  0  0  0
   39.7670   34.8850   39.1920 C   0  0  0  0  0  0  0  0  0  0  0  0
   40.7950   34.2730   38.5240 C   0  0  0  0  0  0  0  0  0  0  0  0
   42.0570   34.2600   38.9570 N   0  0  0  0  0  0  0  0  0  0  0  0
   46.2750   35.2541   40.0135 H   0  0  0  0  0  0  0  0  0  0  0  0
   48.6995   34.7097   39.5847 H   0  0  0  0  0  0  0  0  0  0  0  0
   48.4402   33.0416   40.0939 H   0  0  0  0  0  0  0  0  0  0  0  0
   48.1660   33.4240   37.5606 H   0  0  0  0  0  0  0  0  0  0  0  0
   46.7581   34.4704   37.9266 H   0  0  0  0  0  0  0  0  0  0  0  0
   45.5355   32.5878   37.8467 H   0  0  0  0  0  0  0  0  0  0  0  0
   47.0090   31.5462   37.9275 H   0  0  0  0  0  0  0  0  0  0  0  0
   45.3716   31.3383   39.8358 H   0  0  0  0  0  0  0  0  0  0  0  0
   47.1026   31.6837   40.2581 H   0  0  0  0  0  0  0  0  0  0  0  0
   45.6531   33.1598   41.6788 H   0  0  0  0  0  0  0  0  0  0  0  0
   48.3506   34.8339   41.9121 H   0  0  0  0  0  0  0  0  0  0  0  0
   46.8673   35.7655   42.2030 H   0  0  0  0  0  0  0  0  0  0  0  0
   46.1661   33.0198   42.2667 H   0  0  0  0  0  0  0  0  0  0  0  0
   47.6760   33.2332   43.2459 H   0  0  0  0  0  0  0  0  0  0  0  0
   46.6229   32.6340   45.1985 H   0  0  0  0  0  0  0  0  0  0  0  0
   45.3011   35.9811   42.8290 H   0  0  0  0  0  0  0  0  0  0  0  0
   43.9274   35.5020   46.8426 H   0  0  0  0  0  0  0  0  0  0  0  0
   44.6369   33.9581   38.9045 H   0  0  0  0  0  0  0  0  0  0  0  0
   43.7764   32.8372   40.0404 H   0  0  0  0  0  0  0  0  0  0  0  0
   43.7911   34.7640   41.7493 H   0  0  0  0  0  0  0  0  0  0  0  0
   44.3181   35.8478   40.4877 H   0  0  0  0  0  0  0  0  0  0  0  0
   41.6387   35.9834   41.7233 H   0  0  0  0  0  0  0  0  0  0  0  0
   39.2789   36.0498   40.9888 H   0  0  0  0  0  0  0  0  0  0  0  0
   38.7432   34.8644   38.7902 H   0  0  0  0  0  0  0  0  0  0  0  0
   40.5667   33.7632   37.5764 H   0  0  0  0  0  0  0  0  0  0  0  0
  1  6  1  0
  1  7  1  0
  2  1  1  0
  3  4  1  0
  3  2  1  0
  4  5  1  0
  5  6  1  0
  7  8  1  0
  8 10  1  0
  9 14  2  0
 10  9  1  0
 11 10  2  0
 11 12  1  0
 12 13  2  0
 13 14  1  0
 15  6  1  0
 15 16  1  0
 17 16  1  0
 17 18  2  0
 19 18  1  0
 20 19  2  0
 21 22  2  0
 21 20  1  0
 22 17  1  0
  1 23  1  6
  2 24  1  0
  2 25  1  0
  3 26  1  0
  3 27  1  0
  4 28  1  0
  4 29  1  0
  5 30  1  0
  5 31  1  0
  6 32  1  1
  7 33  1  0
  7 34  1  0
  8 35  1  0
  8 36  1  0
  9 37  1  0
 11 38  1  0
 13 39  1  0
 15 40  1  0
 15 41  1  0
 16 42  1  0
 16 43  1  0
 18 44  1  0
 19 45  1  0
 20 46  1  0
 21 47  1  0
M  ISO  8  23  13  24  13  25  13  26  13  27  13  28  13  29  13  30  13
M  ISO  8  31  13  32  13  33   8  34   8  35   8  36   8  37  14  38  14
M  ISO  8  39  14  40   8  41   8  42   8  43   8  44  14  45  14  46  14
M  ISO  1  47  14
M  END
>  <minimizedAffinity>  (1) 
-5.36708212

>  <minimizedRMSD>  (1) 
2.38424039

$$$$
