
     RDKit          3D

 46 48  0  0  1  0  0  0  0  0999 V2000
   46.7630   34.3990   40.5420 C   0  0  1  0  0  0  0  0  0  0  0  0
   47.9410   33.9150   39.6810 C   0  0  0  0  0  0  0  0  0  0  0  0
   47.3290   33.6790   38.3040 C   0  0  0  0  0  0  0  0  0  0  0  0
   46.4610   32.4600   38.3830 C   0  0  0  0  0  0  0  0  0  0  0  0
   46.1840   32.0970   39.8080 C   0  0  0  0  0  0  0  0  0  0  0  0
   45.7730   33.3350   40.6410 C   0  0  2  0  0  0  0  0  0  0  0  0
   47.2810   34.7520   41.9520 C   0  0  0  0  0  0  0  0  0  0  0  0
   46.8500   33.6880   42.8600 C   0  0  0  0  0  0  0  0  0  0  0  0
   46.1070   33.4730   45.1410 C   0  0  0  0  0  0  0  0  0  0  0  0
   46.0760   34.2160   43.9610 C   0  0  0  0  0  0  0  0  0  0  0  0
   45.3200   35.3270   43.8320 C   0  0  0  0  0  0  0  0  0  0  0  0
   44.5770   35.7000   44.9110 N   0  0  0  0  0  0  0  0  0  0  0  0
   44.5800   35.0070   46.0640 C   0  0  0  0  0  0  0  0  0  0  0  0
   45.3430   33.8950   46.1840 N   0  0  0  0  0  0  0  0  0  0  0  0
   44.4640   33.7110   40.0330 C   0  0  0  0  0  0  0  0  0  0  0  0
   43.8490   34.9230   40.7100 C   0  0  0  0  0  0  0  0  0  0  0  0
   42.4240   34.9060   40.1480 C   0  0  0  0  0  0  0  0  0  0  0  0
   42.1990   35.1760   38.8120 C   0  0  0  0  0  0  0  0  0  0  0  0
   40.9470   35.1740   38.2590 C   0  0  0  0  0  0  0  0  0  0  0  0
   39.8870   34.8910   39.0730 N   0  0  0  0  0  0  0  0  0  0  0  0
   40.1340   34.6290   40.3790 C   0  0  0  0  0  0  0  0  0  0  0  0
   41.3790   34.6350   40.9160 N   0  0  0  0  0  0  0  0  0  0  0  0
   46.3036   35.2871   40.0834 H   0  0  0  0  0  0  0  0  0  0  0  0
   48.7283   34.6816   39.6314 H   0  0  0  0  0  0  0  0  0  0  0  0
   48.4172   33.0116   40.0898 H   0  0  0  0  0  0  0  0  0  0  0  0
   48.1269   33.5212   37.5634 H   0  0  0  0  0  0  0  0  0  0  0  0
   46.7336   34.5515   37.9970 H   0  0  0  0  0  0  0  0  0  0  0  0
   45.5088   32.6614   37.8704 H   0  0  0  0  0  0  0  0  0  0  0  0
   46.9853   31.6217   37.9009 H   0  0  0  0  0  0  0  0  0  0  0  0
   45.3677   31.3603   39.8366 H   0  0  0  0  0  0  0  0  0  0  0  0
   47.1045   31.6799   40.2423 H   0  0  0  0  0  0  0  0  0  0  0  0
   45.7011   33.1404   41.7213 H   0  0  0  0  0  0  0  0  0  0  0  0
   48.3791   34.8159   41.9433 H   0  0  0  0  0  0  0  0  0  0  0  0
   46.8824   35.7239   42.2783 H   0  0  0  0  0  0  0  0  0  0  0  0
   46.2332   32.9687   42.3013 H   0  0  0  0  0  0  0  0  0  0  0  0
   47.7457   33.1983   43.2697 H   0  0  0  0  0  0  0  0  0  0  0  0
   46.7315   32.5715   45.2256 H   0  0  0  0  0  0  0  0  0  0  0  0
   45.3047   35.9056   42.8966 H   0  0  0  0  0  0  0  0  0  0  0  0
   43.9624   35.3439   46.9096 H   0  0  0  0  0  0  0  0  0  0  0  0
   44.6197   33.9399   38.9684 H   0  0  0  0  0  0  0  0  0  0  0  0
   43.7742   32.8639   40.1614 H   0  0  0  0  0  0  0  0  0  0  0  0
   43.8493   34.8136   41.8045 H   0  0  0  0  0  0  0  0  0  0  0  0
   44.3911   35.8615   40.5217 H   0  0  0  0  0  0  0  0  0  0  0  0
   43.0607   35.4017   38.1667 H   0  0  0  0  0  0  0  0  0  0  0  0
   40.7988   35.3936   37.1914 H   0  0  0  0  0  0  0  0  0  0  0  0
   39.2823   34.4000   41.0364 H   0  0  0  0  0  0  0  0  0  0  0  0
  1  6  1  0
  1  7  1  0
  2  1  1  0
  3  4  1  0
  3  2  1  0
  4  5  1  0
  5  6  1  0
  7  8  1  0
  8 10  1  0
  9 14  2  0
 10  9  1  0
 11 10  2  0
 11 12  1  0
 12 13  2  0
 13 14  1  0
 15  6  1  0
 15 16  1  0
 17 16  1  0
 17 22  1  0
 18 17  2  0
 19 18  1  0
 19 20  2  0
 20 21  1  0
 21 22  2  0
  1 23  1  6
  2 24  1  0
  2 25  1  0
  3 26  1  0
  3 27  1  0
  4 28  1  0
  4 29  1  0
  5 30  1  0
  5 31  1  0
  6 32  1  1
  7 33  1  0
  7 34  1  0
  8 35  1  0
  8 36  1  0
  9 37  1  0
 11 38  1  0
 13 39  1  0
 15 40  1  0
 15 41  1  0
 16 42  1  0
 16 43  1  0
 18 44  1  0
 19 45  1  0
 21 46  1  0
M  ISO  8  23  13  24  13  25  13  26  13  27  13  28  13  29  13  30  13
M  ISO  8  31  13  32  13  33   8  34   8  35   8  36   8  37  14  38  14
M  ISO  8  39  14  40   8  41   8  42   8  43   8  44  14  45  14  46  14
M  END
>  <minimizedAffinity>  (1) 
-5.09624338

>  <minimizedRMSD>  (1) 
2.33227038

$$$$
