
     RDKit          3D

 52 54  0  0  1  0  0  0  0  0999 V2000
   46.8340   34.3650   40.4800 C   0  0  1  0  0  0  0  0  0  0  0  0
   48.0300   33.9750   39.6020 C   0  0  0  0  0  0  0  0  0  0  0  0
   47.4390   33.6820   38.2300 C   0  0  0  0  0  0  0  0  0  0  0  0
   46.6440   32.4150   38.3170 C   0  0  0  0  0  0  0  0  0  0  0  0
   46.3880   32.0400   39.7430 C   0  0  0  0  0  0  0  0  0  0  0  0
   45.9030   33.2530   40.5730 C   0  0  2  0  0  0  0  0  0  0  0  0
   47.3390   34.7570   41.8830 C   0  0  0  0  0  0  0  0  0  0  0  0
   46.8600   33.7310   42.8080 C   0  0  0  0  0  0  0  0  0  0  0  0
   46.0420   33.5750   45.0660 C   0  0  0  0  0  0  0  0  0  0  0  0
   46.0670   34.2970   43.8720 C   0  0  0  0  0  0  0  0  0  0  0  0
   45.3540   35.4270   43.7040 C   0  0  0  0  0  0  0  0  0  0  0  0
   44.5940   35.8540   44.7480 N   0  0  0  0  0  0  0  0  0  0  0  0
   44.5450   35.1760   45.9250 C   0  0  0  0  0  0  0  0  0  0  0  0
   45.2650   34.0440   46.0810 N   0  0  0  0  0  0  0  0  0  0  0  0
   44.5740   33.5760   39.9440 C   0  0  0  0  0  0  0  0  0  0  0  0
   43.9120   34.7880   40.5910 C   0  0  0  0  0  0  0  0  0  0  0  0
   42.5200   34.6190   40.2440 N   0  0  0  0  0  0  0  0  0  0  0  0
   41.6770   33.9370   41.1090 C   0  0  0  0  0  0  0  0  0  0  0  0
   40.4440   34.8310   41.3160 C   0  0  0  0  0  0  0  0  0  0  0  0
   40.3900   35.8570   40.3090 N   0  0  0  0  0  0  0  0  0  0  0  0
   40.6910   35.3770   38.9680 C   0  0  0  0  0  0  0  0  0  0  0  0
   42.1530   34.9090   38.9350 C   0  0  0  0  0  0  0  0  0  0  0  0
   46.3114   35.2220   40.0301 H   0  0  0  0  0  0  0  0  0  0  0  0
   48.7512   34.8034   39.5424 H   0  0  0  0  0  0  0  0  0  0  0  0
   48.5739   33.1097   40.0088 H   0  0  0  0  0  0  0  0  0  0  0  0
   48.2485   33.5627   37.4948 H   0  0  0  0  0  0  0  0  0  0  0  0
   46.7916   34.5128   37.9126 H   0  0  0  0  0  0  0  0  0  0  0  0
   45.6814   32.5583   37.8042 H   0  0  0  0  0  0  0  0  0  0  0  0
   47.2181   31.6072   37.8396 H   0  0  0  0  0  0  0  0  0  0  0  0
   45.6172   31.2558   39.7730 H   0  0  0  0  0  0  0  0  0  0  0  0
   47.3317   31.6802   40.1788 H   0  0  0  0  0  0  0  0  0  0  0  0
   45.8277   33.0455   41.6506 H   0  0  0  0  0  0  0  0  0  0  0  0
   48.4384   34.7922   41.8933 H   0  0  0  0  0  0  0  0  0  0  0  0
   46.9684   35.7517   42.1715 H   0  0  0  0  0  0  0  0  0  0  0  0
   46.2451   33.0087   42.2512 H   0  0  0  0  0  0  0  0  0  0  0  0
   47.7358   33.2406   43.2580 H   0  0  0  0  0  0  0  0  0  0  0  0
   46.6325   32.6544   45.1836 H   0  0  0  0  0  0  0  0  0  0  0  0
   45.3851   35.9847   42.7564 H   0  0  0  0  0  0  0  0  0  0  0  0
   43.9196   35.5488   46.7496 H   0  0  0  0  0  0  0  0  0  0  0  0
   44.7290   33.7850   38.8752 H   0  0  0  0  0  0  0  0  0  0  0  0
   43.9112   32.7103   40.0896 H   0  0  0  0  0  0  0  0  0  0  0  0
   44.0517   34.7798   41.6821 H   0  0  0  0  0  0  0  0  0  0  0  0
   44.3315   35.7459   40.2498 H   0  0  0  0  0  0  0  0  0  0  0  0
   41.3783   32.9746   40.6678 H   0  0  0  0  0  0  0  0  0  0  0  0
   42.1776   33.7238   42.0650 H   0  0  0  0  0  0  0  0  0  0  0  0
   39.5353   34.2143   41.2534 H   0  0  0  0  0  0  0  0  0  0  0  0
   40.5122   35.3071   42.3053 H   0  0  0  0  0  0  0  0  0  0  0  0
   39.4418   36.2594   40.3052 H   0  0  0  0  0  0  0  0  0  0  0  0
   40.0267   34.5370   38.7167 H   0  0  0  0  0  0  0  0  0  0  0  0
   40.5366   36.1831   38.2356 H   0  0  0  0  0  0  0  0  0  0  0  0
   42.2470   34.0095   38.3089 H   0  0  0  0  0  0  0  0  0  0  0  0
   42.8034   35.6876   38.5099 H   0  0  0  0  0  0  0  0  0  0  0  0
  1  6  1  0
  1  7  1  0
  2  1  1  0
  3  4  1  0
  3  2  1  0
  4  5  1  0
  5  6  1  0
  7  8  1  0
  8 10  1  0
  9 14  2  0
 10  9  1  0
 11 10  2  0
 11 12  1  0
 12 13  2  0
 13 14  1  0
 15  6  1  0
 15 16  1  0
 17 16  1  0
 17 18  1  0
 18 19  1  0
 20 19  1  0
 21 20  1  0
 22 21  1  0
 22 17  1  0
  1 23  1  6
  2 24  1  0
  2 25  1  0
  3 26  1  0
  3 27  1  0
  4 28  1  0
  4 29  1  0
  5 30  1  0
  5 31  1  0
  6 32  1  1
  7 33  1  0
  7 34  1  0
  8 35  1  0
  8 36  1  0
  9 37  1  0
 11 38  1  0
 13 39  1  0
 15 40  1  0
 15 41  1  0
 16 42  1  0
 16 43  1  0
 18 44  1  0
 18 45  1  0
 19 46  1  0
 19 47  1  0
 20 48  1  0
 21 49  1  0
 21 50  1  0
 22 51  1  0
 22 52  1  0
M  ISO  8  23  13  24  13  25  13  26  13  27  13  28  13  29  13  30  13
M  ISO  8  31  13  32  13  33   8  34   8  35   8  36   8  37  14  38  14
M  ISO  8  39  14  40   8  41   8  42   8  43   8  44  13  45  13  46  13
M  ISO  6  47  13  48   5  49  13  50  13  51  13  52  13
M  END
>  <minimizedAffinity>  (1) 
-5.10344172

>  <minimizedRMSD>  (1) 
2.03305888

$$$$
