
     RDKit          3D

 50 52  0  0  1  0  0  0  0  0999 V2000
   46.8750   34.3430   40.3540 C   0  0  1  0  0  0  0  0  0  0  0  0
   48.1070   34.0190   39.4950 C   0  0  0  0  0  0  0  0  0  0  0  0
   47.5470   33.7060   38.1100 C   0  0  0  0  0  0  0  0  0  0  0  0
   46.8190   32.4010   38.1800 C   0  0  0  0  0  0  0  0  0  0  0  0
   46.5700   32.0010   39.6050 C   0  0  0  0  0  0  0  0  0  0  0  0
   45.9990   33.1910   40.4240 C   0  0  2  0  0  0  0  0  0  0  0  0
   47.3450   34.7430   41.7730 C   0  0  0  0  0  0  0  0  0  0  0  0
   46.7980   33.7490   42.6950 C   0  0  0  0  0  0  0  0  0  0  0  0
   45.9580   33.6750   44.9540 C   0  0  0  0  0  0  0  0  0  0  0  0
   46.0190   34.3640   43.7430 C   0  0  0  0  0  0  0  0  0  0  0  0
   45.3460   35.5200   43.5520 C   0  0  0  0  0  0  0  0  0  0  0  0
   44.5970   36.0050   44.5750 N   0  0  0  0  0  0  0  0  0  0  0  0
   44.5220   35.3480   45.7680 C   0  0  0  0  0  0  0  0  0  0  0  0
   45.2020   34.1860   45.9560 N   0  0  0  0  0  0  0  0  0  0  0  0
   44.6640   33.4430   39.7840 C   0  0  0  0  0  0  0  0  0  0  0  0
   43.9230   34.5980   40.4620 C   0  0  0  0  0  0  0  0  0  0  0  0
   42.4740   34.3700   40.3590 N   0  0  0  0  0  0  0  0  0  0  0  0
   41.9450   34.7450   39.0860 C   0  0  0  0  0  0  0  0  0  0  0  0
   40.7470   35.6350   39.3140 C   0  0  0  0  0  0  0  0  0  0  0  0
   40.7890   35.9460   40.8140 C   0  0  0  0  0  0  0  0  0  0  0  0
   41.7160   34.9280   41.4190 C   0  0  0  0  0  0  0  0  0  0  0  0
   46.3168   35.1758   39.9014 H   0  0  0  0  0  0  0  0  0  0  0  0
   48.7869   34.8826   39.4517 H   0  0  0  0  0  0  0  0  0  0  0  0
   48.6901   33.1815   39.9055 H   0  0  0  0  0  0  0  0  0  0  0  0
   48.3701   33.6339   37.3839 H   0  0  0  0  0  0  0  0  0  0  0  0
   46.8619   34.5047   37.7895 H   0  0  0  0  0  0  0  0  0  0  0  0
   45.8547   32.4984   37.6598 H   0  0  0  0  0  0  0  0  0  0  0  0
   47.4380   31.6278   37.7015 H   0  0  0  0  0  0  0  0  0  0  0  0
   45.8484   31.1710   39.6251 H   0  0  0  0  0  0  0  0  0  0  0  0
   47.5249   31.6914   40.0547 H   0  0  0  0  0  0  0  0  0  0  0  0
   45.9096   32.9797   41.4998 H   0  0  0  0  0  0  0  0  0  0  0  0
   48.4439   34.7412   41.8225 H   0  0  0  0  0  0  0  0  0  0  0  0
   46.9995   35.7545   42.0327 H   0  0  0  0  0  0  0  0  0  0  0  0
   46.1546   33.0568   42.1321 H   0  0  0  0  0  0  0  0  0  0  0  0
   47.6389   33.2149   43.1615 H   0  0  0  0  0  0  0  0  0  0  0  0
   46.5126   32.7353   45.0931 H   0  0  0  0  0  0  0  0  0  0  0  0
   45.4036   36.0543   42.5922 H   0  0  0  0  0  0  0  0  0  0  0  0
   43.9081   35.7606   46.5822 H   0  0  0  0  0  0  0  0  0  0  0  0
   44.8177   33.6912   38.7234 H   0  0  0  0  0  0  0  0  0  0  0  0
   44.0544   32.5336   39.8904 H   0  0  0  0  0  0  0  0  0  0  0  0
   44.2129   34.6493   41.5219 H   0  0  0  0  0  0  0  0  0  0  0  0
   44.1840   35.5453   39.9675 H   0  0  0  0  0  0  0  0  0  0  0  0
   41.6401   33.8459   38.5304 H   0  0  0  0  0  0  0  0  0  0  0  0
   42.7081   35.2792   38.5009 H   0  0  0  0  0  0  0  0  0  0  0  0
   40.8288   36.5584   38.7218 H   0  0  0  0  0  0  0  0  0  0  0  0
   39.8039   35.1579   39.0091 H   0  0  0  0  0  0  0  0  0  0  0  0
   41.1736   36.9625   40.9836 H   0  0  0  0  0  0  0  0  0  0  0  0
   39.7868   35.8987   41.2650 H   0  0  0  0  0  0  0  0  0  0  0  0
   41.1350   34.1410   41.9220 H   0  0  0  0  0  0  0  0  0  0  0  0
   42.3742   35.3945   42.1667 H   0  0  0  0  0  0  0  0  0  0  0  0
  1  6  1  0
  1  7  1  0
  2  1  1  0
  3  4  1  0
  3  2  1  0
  4  5  1  0
  5  6  1  0
  7  8  1  0
  8 10  1  0
  9 14  2  0
 10  9  1  0
 11 10  2  0
 11 12  1  0
 12 13  2  0
 13 14  1  0
 15  6  1  0
 15 16  1  0
 17 16  1  0
 17 21  1  0
 18 19  1  0
 18 17  1  0
 19 20  1  0
 20 21  1  0
  1 22  1  6
  2 23  1  0
  2 24  1  0
  3 25  1  0
  3 26  1  0
  4 27  1  0
  4 28  1  0
  5 29  1  0
  5 30  1  0
  6 31  1  1
  7 32  1  0
  7 33  1  0
  8 34  1  0
  8 35  1  0
  9 36  1  0
 11 37  1  0
 13 38  1  0
 15 39  1  0
 15 40  1  0
 16 41  1  0
 16 42  1  0
 18 43  1  0
 18 44  1  0
 19 45  1  0
 19 46  1  0
 20 47  1  0
 20 48  1  0
 21 49  1  0
 21 50  1  0
M  ISO  8  22  13  23  13  24  13  25  13  26  13  27  13  28  13  29  13
M  ISO  8  30  13  31  13  32   8  33   8  34   8  35   8  36  14  37  14
M  ISO  8  38  14  39   8  40   8  41   8  42   8  43  13  44  13  45  13
M  ISO  5  46  13  47  13  48  13  49  13  50  13
M  END
>  <minimizedAffinity>  (1) 
-5.04333115

>  <minimizedRMSD>  (1) 
2.10854626

$$$$
