
     RDKit          3D

 45 46  0  0  1  0  0  0  0  0999 V2000
   47.0040   34.2510   40.2540 C   0  0  1  0  0  0  0  0  0  0  0  0
   48.2160   34.3060   39.3080 C   0  0  0  0  0  0  0  0  0  0  0  0
   47.6780   33.8540   37.9580 C   0  0  0  0  0  0  0  0  0  0  0  0
   47.3740   32.3880   38.0420 C   0  0  0  0  0  0  0  0  0  0  0  0
   47.3410   31.9290   39.4600 C   0  0  0  0  0  0  0  0  0  0  0  0
   46.5070   32.8960   40.3480 C   0  0  2  0  0  0  0  0  0  0  0  0
   47.4320   34.7590   41.6500 C   0  0  0  0  0  0  0  0  0  0  0  0
   46.9600   33.7800   42.6290 C   0  0  0  0  0  0  0  0  0  0  0  0
   46.0520   33.7220   44.8570 C   0  0  0  0  0  0  0  0  0  0  0  0
   46.1320   34.4000   43.6390 C   0  0  0  0  0  0  0  0  0  0  0  0
   45.4360   35.5300   43.4060 C   0  0  0  0  0  0  0  0  0  0  0  0
   44.6430   35.9960   44.4020 N   0  0  0  0  0  0  0  0  0  0  0  0
   44.5380   35.3710   45.5910 C   0  0  0  0  0  0  0  0  0  0  0  0
   45.2420   34.2300   45.8250 N   0  0  0  0  0  0  0  0  0  0  0  0
   45.1180   32.7480   39.8000 C   0  0  0  0  0  0  0  0  0  0  0  0
   44.2560   33.9500   40.1430 C   0  0  0  0  0  0  0  0  0  0  0  0
   42.8670   33.7150   39.6830 N   0  0  0  0  0  0  0  0  0  0  0  0
   42.3390   34.2690   38.4980 C   0  0  0  0  0  0  0  0  0  0  0  0
   43.0090   35.1780   37.9180 N   0  0  0  0  0  0  0  0  0  0  0  0
   41.0860   33.8130   37.9800 N   0  0  0  0  0  0  0  0  0  0  0  0
   42.6300   35.5960   37.0410 H   0  0  0  0  0  0  0  0  0  0  0  0
   46.1997   34.8897   39.8601 H   0  0  0  0  0  0  0  0  0  0  0  0
   48.6112   35.3306   39.2441 H   0  0  0  0  0  0  0  0  0  0  0  0
   49.0441   33.6720   39.6577 H   0  0  0  0  0  0  0  0  0  0  0  0
   48.4320   34.0339   37.1775 H   0  0  0  0  0  0  0  0  0  0  0  0
   46.7678   34.4169   37.7038 H   0  0  0  0  0  0  0  0  0  0  0  0
   46.3946   32.1968   37.5792 H   0  0  0  0  0  0  0  0  0  0  0  0
   48.1648   31.8355   37.5134 H   0  0  0  0  0  0  0  0  0  0  0  0
   46.8908   30.9262   39.5016 H   0  0  0  0  0  0  0  0  0  0  0  0
   48.3722   31.9089   39.8424 H   0  0  0  0  0  0  0  0  0  0  0  0
   46.5562   32.6637   41.4221 H   0  0  0  0  0  0  0  0  0  0  0  0
   48.5275   34.8447   41.7005 H   0  0  0  0  0  0  0  0  0  0  0  0
   47.0042   35.7519   41.8527 H   0  0  0  0  0  0  0  0  0  0  0  0
   46.3729   33.0086   42.1091 H   0  0  0  0  0  0  0  0  0  0  0  0
   47.8361   33.3363   43.1245 H   0  0  0  0  0  0  0  0  0  0  0  0
   46.6287   32.8013   45.0294 H   0  0  0  0  0  0  0  0  0  0  0  0
   45.5086   36.0555   42.4424 H   0  0  0  0  0  0  0  0  0  0  0  0
   43.8831   35.7831   46.3728 H   0  0  0  0  0  0  0  0  0  0  0  0
   44.6589   31.8446   40.2278 H   0  0  0  0  0  0  0  0  0  0  0  0
   45.1844   32.6709   38.7047 H   0  0  0  0  0  0  0  0  0  0  0  0
   44.2596   34.1038   41.2322 H   0  0  0  0  0  0  0  0  0  0  0  0
   44.6596   34.8428   39.6430 H   0  0  0  0  0  0  0  0  0  0  0  0
   42.2562   33.1169   40.2576 H   0  0  0  0  0  0  0  0  0  0  0  0
   40.7070   34.2224   37.1142 H   0  0  0  0  0  0  0  0  0  0  0  0
   40.5628   33.0753   38.4728 H   0  0  0  0  0  0  0  0  0  0  0  0
  1  6  1  0
  1  7  1  0
  2  1  1  0
  3  4  1  0
  3  2  1  0
  4  5  1  0
  5  6  1  0
  7  8  1  0
  8 10  1  0
  9 14  2  0
 10  9  1  0
 11 10  2  0
 11 12  1  0
 12 13  2  0
 13 14  1  0
 15 16  1  0
 15  6  1  0
 17 16  1  0
 18 17  1  0
 19 18  2  0
 20 18  1  0
 21 19  1  0
  1 22  1  6
  2 23  1  0
  2 24  1  0
  3 25  1  0
  3 26  1  0
  4 27  1  0
  4 28  1  0
  5 29  1  0
  5 30  1  0
  6 31  1  1
  7 32  1  0
  7 33  1  0
  8 34  1  0
  8 35  1  0
  9 36  1  0
 11 37  1  0
 13 38  1  0
 15 39  1  0
 15 40  1  0
 16 41  1  0
 16 42  1  0
 17 43  1  0
 20 44  1  0
 20 45  1  0
M  ISO  8  22  13  23  13  24  13  25  13  26  13  27  13  28  13  29  13
M  ISO  8  30  13  31  13  32   8  33   8  34   8  35   8  36  14  37  14
M  ISO  5  38  14  39   8  40   8  41   8  42   8
M  END
>  <minimizedAffinity>  (1) 
-4.91159964

>  <minimizedRMSD>  (1) 
1.63140488

$$$$
