
     RDKit          3D

 45 47  0  0  1  0  0  0  0  0999 V2000
   46.9650   34.3440   40.3710 C   0  0  1  0  0  0  0  0  0  0  0  0
   48.2030   34.2820   39.4580 C   0  0  0  0  0  0  0  0  0  0  0  0
   47.6660   33.8830   38.0850 C   0  0  0  0  0  0  0  0  0  0  0  0
   47.1910   32.4630   38.1460 C   0  0  0  0  0  0  0  0  0  0  0  0
   47.0730   32.0030   39.5660 C   0  0  0  0  0  0  0  0  0  0  0  0
   46.3260   33.0490   40.4350 C   0  0  2  0  0  0  0  0  0  0  0  0
   47.4150   34.7900   41.7820 C   0  0  0  0  0  0  0  0  0  0  0  0
   46.9010   33.7870   42.7170 C   0  0  0  0  0  0  0  0  0  0  0  0
   46.0190   33.6920   44.9570 C   0  0  0  0  0  0  0  0  0  0  0  0
   46.0850   34.3840   43.7470 C   0  0  0  0  0  0  0  0  0  0  0  0
   45.3890   35.5210   43.5340 C   0  0  0  0  0  0  0  0  0  0  0  0
   44.6090   35.9810   44.5460 N   0  0  0  0  0  0  0  0  0  0  0  0
   44.5200   35.3310   45.7390 C   0  0  0  0  0  0  0  0  0  0  0  0
   45.2230   34.1930   45.9390 N   0  0  0  0  0  0  0  0  0  0  0  0
   44.9440   33.0690   39.8430 C   0  0  0  0  0  0  0  0  0  0  0  0
   44.1270   34.2480   40.3540 C   0  0  0  0  0  0  0  0  0  0  0  0
   42.7470   34.1540   39.6760 C   0  0  0  0  0  0  0  0  0  0  0  0
   42.2970   35.2200   38.7700 C   0  0  0  0  0  0  0  0  0  0  0  0
   41.6170   34.9690   40.1150 C   0  0  0  0  0  0  0  0  0  0  0  0
   46.2387   35.0645   39.9667 H   0  0  0  0  0  0  0  0  0  0  0  0
   48.6963   35.2640   39.4092 H   0  0  0  0  0  0  0  0  0  0  0  0
   48.9537   33.5691   39.8298 H   0  0  0  0  0  0  0  0  0  0  0  0
   48.4654   33.9735   37.3348 H   0  0  0  0  0  0  0  0  0  0  0  0
   46.8331   34.5438   37.8031 H   0  0  0  0  0  0  0  0  0  0  0  0
   46.2066   32.3907   37.6604 H   0  0  0  0  0  0  0  0  0  0  0  0
   47.9212   31.8241   37.6277 H   0  0  0  0  0  0  0  0  0  0  0  0
   46.5176   31.0538   39.5906 H   0  0  0  0  0  0  0  0  0  0  0  0
   48.0858   31.8707   39.9743 H   0  0  0  0  0  0  0  0  0  0  0  0
   46.3213   32.7969   41.5057 H   0  0  0  0  0  0  0  0  0  0  0  0
   48.5129   34.8323   41.8354 H   0  0  0  0  0  0  0  0  0  0  0  0
   47.0329   35.7928   42.0237 H   0  0  0  0  0  0  0  0  0  0  0  0
   46.2943   33.0582   42.1596 H   0  0  0  0  0  0  0  0  0  0  0  0
   47.7595   33.2983   43.2008 H   0  0  0  0  0  0  0  0  0  0  0  0
   46.5946   32.7675   45.1120 H   0  0  0  0  0  0  0  0  0  0  0  0
   45.4515   36.0558   42.5748 H   0  0  0  0  0  0  0  0  0  0  0  0
   43.8781   35.7303   46.5380 H   0  0  0  0  0  0  0  0  0  0  0  0
   44.4281   32.1353   40.1114 H   0  0  0  0  0  0  0  0  0  0  0  0
   45.0409   33.1675   38.7517 H   0  0  0  0  0  0  0  0  0  0  0  0
   44.0177   34.1888   41.4470 H   0  0  0  0  0  0  0  0  0  0  0  0
   44.6197   35.2032   40.1199 H   0  0  0  0  0  0  0  0  0  0  0  0
   42.8955   33.0687   39.5758 H   0  0  0  0  0  0  0  0  0  0  0  0
   42.9147   36.1177   38.6197 H   0  0  0  0  0  0  0  0  0  0  0  0
   41.9710   35.2767   37.7209 H   0  0  0  0  0  0  0  0  0  0  0  0
   40.6055   34.5383   40.1516 H   0  0  0  0  0  0  0  0  0  0  0  0
   41.3857   35.5763   41.0025 H   0  0  0  0  0  0  0  0  0  0  0  0
  1  6  1  0
  1  7  1  0
  2  1  1  0
  3  4  1  0
  3  2  1  0
  4  5  1  0
  5  6  1  0
  7  8  1  0
  8 10  1  0
  9 14  2  0
 10  9  1  0
 11 10  2  0
 11 12  1  0
 12 13  2  0
 13 14  1  0
 15 16  1  0
 15  6  1  0
 17 19  1  0
 17 16  1  0
 18 17  1  0
 18 19  1  0
  1 20  1  6
  2 21  1  0
  2 22  1  0
  3 23  1  0
  3 24  1  0
  4 25  1  0
  4 26  1  0
  5 27  1  0
  5 28  1  0
  6 29  1  1
  7 30  1  0
  7 31  1  0
  8 32  1  0
  8 33  1  0
  9 34  1  0
 11 35  1  0
 13 36  1  0
 15 37  1  0
 15 38  1  0
 16 39  1  0
 16 40  1  0
 17 41  1  0
 18 42  1  0
 18 43  1  0
 19 44  1  0
 19 45  1  0
M  ISO  8  20  13  21  13  22  13  23  13  24  13  25  13  26  13  27  13
M  ISO  8  28  13  29  13  30   8  31   8  32   8  33   8  34  14  35  14
M  ISO  8  36  14  37   8  38   8  39   8  40   8  41  13  42  13  43  13
M  ISO  2  44  13  45  13
M  END
>  <minimizedAffinity>  (1) 
-4.49460173

>  <minimizedRMSD>  (1) 
1.20617485

$$$$
