
     RDKit          3D

 40 41  0  0  1  0  0  0  0  0999 V2000
   47.3500   34.3030   40.2250 C   0  0  1  0  0  0  0  0  0  0  0  0
   48.4880   34.6780   39.2620 C   0  0  0  0  0  0  0  0  0  0  0  0
   48.0490   34.1410   37.9060 C   0  0  0  0  0  0  0  0  0  0  0  0
   48.0910   32.6420   37.9430 C   0  0  0  0  0  0  0  0  0  0  0  0
   48.2010   32.1490   39.3500 C   0  0  0  0  0  0  0  0  0  0  0  0
   47.2010   32.8600   40.2880 C   0  0  2  0  0  0  0  0  0  0  0  0
   47.6740   34.8690   41.6240 C   0  0  0  0  0  0  0  0  0  0  0  0
   47.2010   33.8830   42.5960 C   0  0  0  0  0  0  0  0  0  0  0  0
   46.1630   33.7940   44.7660 C   0  0  0  0  0  0  0  0  0  0  0  0
   46.2930   34.4690   43.5520 C   0  0  0  0  0  0  0  0  0  0  0  0
   45.5720   35.5740   43.2640 C   0  0  0  0  0  0  0  0  0  0  0  0
   44.7010   36.0170   44.2090 N   0  0  0  0  0  0  0  0  0  0  0  0
   44.5480   35.3840   45.4000 C   0  0  0  0  0  0  0  0  0  0  0  0
   45.2760   34.2790   45.6770 N   0  0  0  0  0  0  0  0  0  0  0  0
   45.8730   32.4090   39.7600 C   0  0  0  0  0  0  0  0  0  0  0  0
   44.8380   33.5250   39.7760 C   0  0  0  0  0  0  0  0  0  0  0  0
   44.4200   33.5950   38.3500 N   0  0  0  0  0  0  0  0  0  0  0  0
   46.4032   34.7310   39.8639 H   0  0  0  0  0  0  0  0  0  0  0  0
   48.6171   35.7697   39.2223 H   0  0  0  0  0  0  0  0  0  0  0  0
   49.4538   34.2583   39.5799 H   0  0  0  0  0  0  0  0  0  0  0  0
   48.7288   34.5107   37.1242 H   0  0  0  0  0  0  0  0  0  0  0  0
   47.0270   34.4808   37.6825 H   0  0  0  0  0  0  0  0  0  0  0  0
   47.1698   32.2441   37.4924 H   0  0  0  0  0  0  0  0  0  0  0  0
   48.9715   32.2998   37.3794 H   0  0  0  0  0  0  0  0  0  0  0  0
   47.9966   31.0683   39.3654 H   0  0  0  0  0  0  0  0  0  0  0  0
   49.2182   32.3647   39.7088 H   0  0  0  0  0  0  0  0  0  0  0  0
   47.3451   32.6138   41.3504 H   0  0  0  0  0  0  0  0  0  0  0  0
   48.7587   35.0170   41.7312 H   0  0  0  0  0  0  0  0  0  0  0  0
   47.1871   35.8431   41.7794 H   0  0  0  0  0  0  0  0  0  0  0  0
   46.6816   33.0749   42.0601 H   0  0  0  0  0  0  0  0  0  0  0  0
   48.0729   33.4960   43.1438 H   0  0  0  0  0  0  0  0  0  0  0  0
   46.7603   32.8956   44.9807 H   0  0  0  0  0  0  0  0  0  0  0  0
   45.6851   36.0954   42.3020 H   0  0  0  0  0  0  0  0  0  0  0  0
   43.8315   35.7702   46.1399 H   0  0  0  0  0  0  0  0  0  0  0  0
   45.5080   31.5786   40.3823 H   0  0  0  0  0  0  0  0  0  0  0  0
   46.0143   32.0949   38.7153 H   0  0  0  0  0  0  0  0  0  0  0  0
   43.9889   33.2707   40.4274 H   0  0  0  0  0  0  0  0  0  0  0  0
   45.2252   34.4773   40.1673 H   0  0  0  0  0  0  0  0  0  0  0  0
   43.4055   33.7649   38.2976 H   0  0  0  0  0  0  0  0  0  0  0  0
   44.9215   34.3637   37.8826 H   0  0  0  0  0  0  0  0  0  0  0  0
  1  6  1  0
  1  7  1  0
  2  1  1  0
  3  4  1  0
  3  2  1  0
  4  5  1  0
  5  6  1  0
  7  8  1  0
  8 10  1  0
  9 14  2  0
 10  9  1  0
 11 10  2  0
 11 12  1  0
 12 13  2  0
 13 14  1  0
 15 16  1  0
 15  6  1  0
 17 16  1  0
  1 18  1  6
  2 19  1  0
  2 20  1  0
  3 21  1  0
  3 22  1  0
  4 23  1  0
  4 24  1  0
  5 25  1  0
  5 26  1  0
  6 27  1  1
  7 28  1  0
  7 29  1  0
  8 30  1  0
  8 31  1  0
  9 32  1  0
 11 33  1  0
 13 34  1  0
 15 35  1  0
 15 36  1  0
 16 37  1  0
 16 38  1  0
 17 39  1  0
 17 40  1  0
M  ISO  8  18  13  19  13  20  13  21  13  22  13  23  13  24  13  25  13
M  ISO  8  26  13  27  13  28   8  29   8  30   8  31   8  32  14  33  14
M  ISO  7  34  14  35   8  36   8  37   8  38   8  39   5  40   5
M  END
>  <minimizedAffinity>  (1) 
-4.23548937

>  <minimizedRMSD>  (1) 
0.45318231

$$$$
