
     RDKit          3D

 39 40  0  0  1  0  0  0  0  0999 V2000
   47.4300   34.2520   40.1450 C   0  0  1  0  0  0  0  0  0  0  0  0
   48.4700   34.7110   39.1090 C   0  0  0  0  0  0  0  0  0  0  0  0
   48.0120   34.0970   37.7920 C   0  0  0  0  0  0  0  0  0  0  0  0
   48.2030   32.6090   37.8610 C   0  0  0  0  0  0  0  0  0  0  0  0
   48.4500   32.1710   39.2730 C   0  0  0  0  0  0  0  0  0  0  0  0
   47.4370   32.8080   40.2500 C   0  0  2  0  0  0  0  0  0  0  0  0
   47.7670   34.8950   41.5080 C   0  0  0  0  0  0  0  0  0  0  0  0
   47.3610   33.9370   42.5370 C   0  0  0  0  0  0  0  0  0  0  0  0
   46.2270   33.8430   44.6620 C   0  0  0  0  0  0  0  0  0  0  0  0
   46.4020   34.5140   43.4510 C   0  0  0  0  0  0  0  0  0  0  0  0
   45.6760   35.6060   43.1290 C   0  0  0  0  0  0  0  0  0  0  0  0
   44.7560   36.0370   44.0290 N   0  0  0  0  0  0  0  0  0  0  0  0
   44.5590   35.4170   45.2060 C   0  0  0  0  0  0  0  0  0  0  0  0
   45.2930   34.3140   45.5310 N   0  0  0  0  0  0  0  0  0  0  0  0
   46.1310   32.2100   39.8110 C   0  0  0  0  0  0  0  0  0  0  0  0
   45.0010   33.2330   39.7970 C   0  0  0  0  0  0  0  0  0  0  0  0
   44.2750   32.9920   38.1070 S   0  0  0  0  0  0  0  0  0  0  0  0
   46.4245   34.5679   39.8302 H   0  0  0  0  0  0  0  0  0  0  0  0
   48.4872   35.8086   39.0386 H   0  0  0  0  0  0  0  0  0  0  0  0
   49.4890   34.3968   39.3792 H   0  0  0  0  0  0  0  0  0  0  0  0
   48.6087   34.5086   36.9646 H   0  0  0  0  0  0  0  0  0  0  0  0
   46.9511   34.3306   37.6190 H   0  0  0  0  0  0  0  0  0  0  0  0
   47.2986   32.1110   37.4815 H   0  0  0  0  0  0  0  0  0  0  0  0
   49.0749   32.3358   37.2485 H   0  0  0  0  0  0  0  0  0  0  0  0
   48.3597   31.0761   39.3284 H   0  0  0  0  0  0  0  0  0  0  0  0
   49.4599   32.4964   39.5631 H   0  0  0  0  0  0  0  0  0  0  0  0
   47.6687   32.6099   41.3069 H   0  0  0  0  0  0  0  0  0  0  0  0
   48.8471   35.0913   41.5778 H   0  0  0  0  0  0  0  0  0  0  0  0
   47.2442   35.8547   41.6327 H   0  0  0  0  0  0  0  0  0  0  0  0
   46.9080   33.0607   42.0503 H   0  0  0  0  0  0  0  0  0  0  0  0
   48.2540   33.6491   43.1112 H   0  0  0  0  0  0  0  0  0  0  0  0
   46.8292   32.9558   44.9074 H   0  0  0  0  0  0  0  0  0  0  0  0
   45.8248   36.1274   42.1719 H   0  0  0  0  0  0  0  0  0  0  0  0
   43.8042   35.8002   45.9084 H   0  0  0  0  0  0  0  0  0  0  0  0
   46.2519   31.8028   38.7963 H   0  0  0  0  0  0  0  0  0  0  0  0
   45.8629   31.4228   40.5310 H   0  0  0  0  0  0  0  0  0  0  0  0
   44.2611   33.0208   40.5829 H   0  0  0  0  0  0  0  0  0  0  0  0
   45.3353   34.2628   39.9912 H   0  0  0  0  0  0  0  0  0  0  0  0
   42.9795   32.5619   38.2236 H   0  0  0  0  0  0  0  0  0  0  0  0
  1  6  1  0
  1  7  1  0
  2  1  1  0
  3  4  1  0
  3  2  1  0
  4  5  1  0
  5  6  1  0
  7  8  1  0
  8 10  1  0
  9 14  2  0
 10  9  1  0
 11 10  2  0
 11 12  1  0
 12 13  2  0
 13 14  1  0
 15  6  1  0
 16 15  1  0
 17 16  1  0
  1 18  1  6
  2 19  1  0
  2 20  1  0
  3 21  1  0
  3 22  1  0
  4 23  1  0
  4 24  1  0
  5 25  1  0
  5 26  1  0
  6 27  1  1
  7 28  1  0
  7 29  1  0
  8 30  1  0
  8 31  1  0
  9 32  1  0
 11 33  1  0
 13 34  1  0
 15 35  1  0
 15 36  1  0
 16 37  1  0
 16 38  1  0
 17 39  1  0
M  ISO  8  18  13  19  13  20  13  21  13  22  13  23  13  24  13  25  13
M  ISO  8  26  13  27  13  28   8  29   8  30   8  31   8  32  14  33  14
M  ISO  6  34  14  35   8  36   8  37   8  38   8  39  11
M  END
>  <minimizedAffinity>  (1) 
-4.11831951

>  <minimizedRMSD>  (1) 
0.387394398

$$$$
