
     RDKit          3D

 38 41  0  0  0  0  0  0  0  0999 V2000
   46.5940   34.4440   42.0640 N   0  0  0  0  0  0  0  0  0  0  0  0
   47.6690   35.2950   41.9470 C   0  0  0  0  0  0  0  0  0  0  0  0
   48.4080   35.3540   40.7880 C   0  0  0  0  0  0  0  0  0  0  0  0
   48.0360   34.5250   39.7340 C   0  0  0  0  0  0  0  0  0  0  0  0
   48.6900   34.5600   38.6700 O   0  0  0  0  0  0  0  0  0  0  0  0
   46.9760   33.7210   39.9210 N   0  0  0  0  0  0  0  0  0  0  0  0
   46.2670   33.6730   41.0510 C   0  0  0  0  0  0  0  0  0  0  0  0
   45.2950   32.9590   41.2700 O   0  0  0  0  0  0  0  0  0  0  0  0
   46.5510   32.8460   38.8790 C   0  0  0  0  0  0  0  0  0  0  0  0
   45.5440   33.1800   37.9590 C   0  0  0  0  0  0  0  0  0  0  0  0
   45.1670   32.3100   36.9680 C   0  0  0  0  0  0  0  0  0  0  0  0
   45.7890   31.0730   36.8680 C   0  0  0  0  0  0  0  0  0  0  0  0
   46.7700   30.7720   37.7800 C   0  0  0  0  0  0  0  0  0  0  0  0
   47.1880   31.6180   38.8020 C   0  0  0  0  0  0  0  0  0  0  0  0
   48.2320   31.2590   39.7510 C   0  0  0  0  0  0  0  0  0  0  0  0
   49.5730   31.3920   39.4740 C   0  0  0  0  0  0  0  0  0  0  0  0
   50.6030   31.0680   40.3330 C   0  0  0  0  0  0  0  0  0  0  0  0
   50.2610   30.5770   41.5550 N   0  0  0  0  0  0  0  0  0  0  0  0
   48.9520   30.4400   41.8400 C   0  0  0  0  0  0  0  0  0  0  0  0
   47.9810   30.7680   40.9750 N   0  0  0  0  0  0  0  0  0  0  0  0
   44.5310   35.7360   44.8510 C   0  0  0  0  0  0  0  0  0  0  0  0
   45.1220   35.6160   43.5720 C   0  0  0  0  0  0  0  0  0  0  0  0
   45.9950   34.5650   43.3550 C   0  0  0  0  0  0  0  0  0  0  0  0
   46.2590   33.6780   44.3760 N   0  0  0  0  0  0  0  0  0  0  0  0
   45.6680   33.8300   45.5910 C   0  0  0  0  0  0  0  0  0  0  0  0
   44.8180   34.8390   45.8320 N   0  0  0  0  0  0  0  0  0  0  0  0
   47.9424   35.9397   42.7953 H   0  0  0  0  0  0  0  0  0  0  0  0
   49.2666   36.0356   40.6973 H   0  0  0  0  0  0  0  0  0  0  0  0
   45.0477   34.1588   38.0346 H   0  0  0  0  0  0  0  0  0  0  0  0
   44.3764   32.5908   36.2566 H   0  0  0  0  0  0  0  0  0  0  0  0
   45.5049   30.3568   36.0830 H   0  0  0  0  0  0  0  0  0  0  0  0
   47.2609   29.7911   37.6965 H   0  0  0  0  0  0  0  0  0  0  0  0
   49.8468   31.7897   38.4856 H   0  0  0  0  0  0  0  0  0  0  0  0
   51.6555   31.2009   40.0424 H   0  0  0  0  0  0  0  0  0  0  0  0
   48.6668   30.0418   42.8249 H   0  0  0  0  0  0  0  0  0  0  0  0
   43.8333   36.5618   45.0541 H   0  0  0  0  0  0  0  0  0  0  0  0
   44.8943   36.3371   42.7731 H   0  0  0  0  0  0  0  0  0  0  0  0
   45.8916   33.1107   46.3927 H   0  0  0  0  0  0  0  0  0  0  0  0
  1 23  1  0
  2  1  1  0
  3  2  2  0
  4  6  1  0
  4  3  1  0
  5  4  2  0
  6  7  1  0
  7  8  2  0
  7  1  1  0
  9  6  1  0
 10  9  2  0
 11 10  1  0
 12 11  2  0
 12 13  1  0
 13 14  2  0
 14  9  1  0
 14 15  1  0
 15 20  1  0
 16 15  2  0
 16 17  1  0
 17 18  2  0
 18 19  1  0
 20 19  2  0
 21 26  2  0
 22 21  1  0
 23 22  2  0
 23 24  1  0
 24 25  2  0
 25 26  1  0
  2 27  1  0
  3 28  1  0
 10 29  1  0
 11 30  1  0
 12 31  1  0
 13 32  1  0
 16 33  1  0
 17 34  1  0
 19 35  1  0
 21 36  1  0
 22 37  1  0
 25 38  1  0
M  ISO  8  27  14  28  14  29  14  30  14  31  14  32  14  33  14  34  14
M  ISO  4  35  14  36  14  37  14  38  14
M  END
>  <minimizedAffinity>  (1) 
-5.3313899

>  <minimizedRMSD>  (1) 
0.727540076

$$$$
