
     RDKit          3D

 24 25  0  0  0  0  0  0  0  0999 V2000
   43.7260   34.1480   41.4020 C   0  0  0  0  0  0  0  0  0  0  0  0
   44.6050   33.4690   40.6490 C   0  0  0  0  0  0  0  0  0  0  0  0
   45.8020   32.8690   41.8770 S   0  0  0  0  0  0  0  0  0  0  0  0
   44.8390   33.6970   43.2780 C   0  0  0  0  0  0  0  0  0  0  0  0
   43.9530   34.1870   42.6850 N   0  0  0  0  0  0  0  0  0  0  0  0
   45.3650   33.5490   44.6080 N   0  0  0  0  0  0  0  0  0  0  0  0
   46.7360   33.3880   44.8780 C   0  0  0  0  0  0  0  0  0  0  0  0
   47.5640   33.8380   43.9970 N   0  0  0  0  0  0  0  0  0  0  0  0
   47.0230   32.7280   46.1300 N   0  0  0  0  0  0  0  0  0  0  0  0
   48.5790   33.6900   44.2060 H   0  0  0  0  0  0  0  0  0  0  0  0
   40.4540   36.0450   40.8740 C   0  0  0  0  0  0  0  0  0  0  0  0
   41.5350   35.4280   41.5230 C   0  0  0  0  0  0  0  0  0  0  0  0
   42.5550   34.8180   40.7800 C   0  0  0  0  0  0  0  0  0  0  0  0
   42.3850   34.8910   39.4490 N   0  0  0  0  0  0  0  0  0  0  0  0
   41.3650   35.4730   38.8080 C   0  0  0  0  0  0  0  0  0  0  0  0
   40.4030   36.0480   39.5450 N   0  0  0  0  0  0  0  0  0  0  0  0
   41.3940   35.4280   37.4190 O   0  0  0  0  0  0  0  0  0  0  0  0
   44.6016   33.3143   39.5599 H   0  0  0  0  0  0  0  0  0  0  0  0
   44.7069   33.5615   45.4003 H   0  0  0  0  0  0  0  0  0  0  0  0
   47.9995   32.5651   46.4143 H   0  0  0  0  0  0  0  0  0  0  0  0
   46.2512   32.4201   46.7387 H   0  0  0  0  0  0  0  0  0  0  0  0
   39.6550   36.5225   41.4602 H   0  0  0  0  0  0  0  0  0  0  0  0
   41.5819   35.4232   42.6220 H   0  0  0  0  0  0  0  0  0  0  0  0
   40.6639   35.8433   36.8949 H   0  0  0  0  0  0  0  0  0  0  0  0
  1  5  1  0
  2  1  2  0
  2  3  1  0
  3  4  1  0
  4  6  1  0
  5  4  2  0
  6  7  1  0
  7  9  1  0
  8 10  1  0
  8  7  2  0
 11 12  2  0
 13  1  1  0
 13 12  1  0
 14 13  2  0
 15 14  1  0
 15 16  2  0
 16 11  1  0
 17 15  1  0
  2 18  1  0
  6 19  1  0
  9 20  1  0
  9 21  1  0
 11 22  1  0
 12 23  1  0
 17 24  1  0
M  ISO  4  18  14  22  14  23  14  24   3
M  END
>  <minimizedAffinity>  (1) 
-4.95263052

>  <minimizedRMSD>  (1) 
0.0465258434

$$$$
