
     RDKit          3D

 40 43  0  0  0  0  0  0  0  0999 V2000
   46.5400   34.4480   41.9690 N   0  0  0  0  0  0  0  0  0  0  0  0
   47.6730   35.2240   41.8660 C   0  0  0  0  0  0  0  0  0  0  0  0
   48.4230   35.2410   40.7090 C   0  0  0  0  0  0  0  0  0  0  0  0
   47.9910   34.4450   39.6530 C   0  0  0  0  0  0  0  0  0  0  0  0
   48.6520   34.4350   38.5750 O   0  0  0  0  0  0  0  0  0  0  0  0
   46.8840   33.7100   39.8090 N   0  0  0  0  0  0  0  0  0  0  0  0
   46.1770   33.7150   40.9440 C   0  0  0  0  0  0  0  0  0  0  0  0
   45.1430   33.0650   41.1600 O   0  0  0  0  0  0  0  0  0  0  0  0
   46.4080   32.8800   38.7690 C   0  0  0  0  0  0  0  0  0  0  0  0
   45.4450   33.2650   37.8540 C   0  0  0  0  0  0  0  0  0  0  0  0
   45.0040   32.4310   36.8650 C   0  0  0  0  0  0  0  0  0  0  0  0
   45.5280   31.1540   36.7590 C   0  0  0  0  0  0  0  0  0  0  0  0
   46.4830   30.7800   37.6720 C   0  0  0  0  0  0  0  0  0  0  0  0
   46.9610   31.6140   38.7040 C   0  0  0  0  0  0  0  0  0  0  0  0
   47.9680   30.9460   39.5070 C   0  0  0  0  0  0  0  0  0  0  0  0
   47.9170   30.2860   40.7080 C   0  0  0  0  0  0  0  0  0  0  0  0
   49.0010   29.6890   41.3030 C   0  0  0  0  0  0  0  0  0  0  0  0
   50.2310   29.7330   40.6900 C   0  0  0  0  0  0  0  0  0  0  0  0
   50.3820   30.3740   39.4820 C   0  0  0  0  0  0  0  0  0  0  0  0
   49.2540   30.9520   38.9400 C   0  0  0  0  0  0  0  0  0  0  0  0
   44.5240   35.8700   44.7260 C   0  0  0  0  0  0  0  0  0  0  0  0
   45.1190   35.6920   43.4610 C   0  0  0  0  0  0  0  0  0  0  0  0
   45.9460   34.6080   43.2620 C   0  0  0  0  0  0  0  0  0  0  0  0
   46.1680   33.7410   44.2870 N   0  0  0  0  0  0  0  0  0  0  0  0
   45.5780   33.9410   45.4970 C   0  0  0  0  0  0  0  0  0  0  0  0
   44.7730   34.9770   45.7240 N   0  0  0  0  0  0  0  0  0  0  0  0
   47.9851   35.8410   42.7215 H   0  0  0  0  0  0  0  0  0  0  0  0
   49.3282   35.8602   40.6243 H   0  0  0  0  0  0  0  0  0  0  0  0
   45.0195   34.2769   37.9246 H   0  0  0  0  0  0  0  0  0  0  0  0
   44.2357   32.7731   36.1560 H   0  0  0  0  0  0  0  0  0  0  0  0
   45.1914   30.4636   35.9716 H   0  0  0  0  0  0  0  0  0  0  0  0
   46.9017   29.7658   37.5935 H   0  0  0  0  0  0  0  0  0  0  0  0
   46.9484   30.2315   41.2265 H   0  0  0  0  0  0  0  0  0  0  0  0
   48.8855   29.1760   42.2692 H   0  0  0  0  0  0  0  0  0  0  0  0
   51.0982   29.2535   41.1676 H   0  0  0  0  0  0  0  0  0  0  0  0
   51.3560   30.4229   38.9732 H   0  0  0  0  0  0  0  0  0  0  0  0
   49.3712   31.4655   37.9743 H   0  0  0  0  0  0  0  0  0  0  0  0
   43.8600   36.7281   44.9071 H   0  0  0  0  0  0  0  0  0  0  0  0
   44.9266   36.4060   42.6466 H   0  0  0  0  0  0  0  0  0  0  0  0
   45.7717   33.2265   46.3106 H   0  0  0  0  0  0  0  0  0  0  0  0
  1 23  1  0
  2  1  1  0
  3  2  2  0
  4  6  1  0
  4  3  1  0
  5  4  2  0
  6  7  1  0
  7  8  2  0
  7  1  1  0
  9  6  1  0
 10  9  2  0
 11 10  1  0
 12 11  2  0
 12 13  1  0
 13 14  2  0
 14  9  1  0
 14 15  1  0
 15 16  2  0
 16 17  1  0
 18 17  2  0
 19 18  1  0
 20 19  2  0
 20 15  1  0
 21 26  2  0
 22 21  1  0
 23 22  2  0
 23 24  1  0
 24 25  2  0
 25 26  1  0
  2 27  1  0
  3 28  1  0
 10 29  1  0
 11 30  1  0
 12 31  1  0
 13 32  1  0
 16 33  1  0
 17 34  1  0
 18 35  1  0
 19 36  1  0
 20 37  1  0
 21 38  1  0
 22 39  1  0
 25 40  1  0
M  ISO  8  27  14  28  14  29  14  30  14  31  14  32  14  33  14  34  14
M  ISO  6  35  14  36  14  37  14  38  14  39  14  40  14
M  END
>  <minimizedAffinity>  (1) 
-5.25816298

>  <minimizedRMSD>  (1) 
0.534459829

$$$$
