
     RDKit          3D

 37 40  0  0  0  0  0  0  0  0999 V2000
   46.5400   34.4510   41.9550 N   0  0  0  0  0  0  0  0  0  0  0  0
   47.6750   35.2240   41.8480 C   0  0  0  0  0  0  0  0  0  0  0  0
   48.4240   35.2350   40.7020 C   0  0  0  0  0  0  0  0  0  0  0  0
   47.9920   34.4300   39.6380 C   0  0  0  0  0  0  0  0  0  0  0  0
   48.6480   34.4110   38.5700 O   0  0  0  0  0  0  0  0  0  0  0  0
   46.8880   33.7130   39.8140 N   0  0  0  0  0  0  0  0  0  0  0  0
   46.1650   33.7100   40.9400 C   0  0  0  0  0  0  0  0  0  0  0  0
   45.1420   33.0690   41.1570 O   0  0  0  0  0  0  0  0  0  0  0  0
   46.3980   32.8710   38.7650 C   0  0  0  0  0  0  0  0  0  0  0  0
   45.4480   33.2810   37.8250 C   0  0  0  0  0  0  0  0  0  0  0  0
   45.0250   32.4150   36.8450 C   0  0  0  0  0  0  0  0  0  0  0  0
   45.5400   31.1070   36.7750 C   0  0  0  0  0  0  0  0  0  0  0  0
   46.4850   30.7230   37.7250 C   0  0  0  0  0  0  0  0  0  0  0  0
   46.9290   31.5900   38.7300 C   0  0  0  0  0  0  0  0  0  0  0  0
   47.9190   31.1560   39.7080 C   0  0  0  0  0  0  0  0  0  0  0  0
   49.2770   31.1130   39.4780 C   0  0  0  0  0  0  0  0  0  0  0  0
   49.8310   30.6450   40.6690 C   0  0  0  0  0  0  0  0  0  0  0  0
   48.7660   30.4330   41.5500 C   0  0  0  0  0  0  0  0  0  0  0  0
   47.6580   30.7590   40.9090 O   0  0  0  0  0  0  0  0  0  0  0  0
   44.5310   35.8700   44.7230 C   0  0  0  0  0  0  0  0  0  0  0  0
   45.1190   35.7100   43.4360 C   0  0  0  0  0  0  0  0  0  0  0  0
   45.9400   34.6180   43.2560 C   0  0  0  0  0  0  0  0  0  0  0  0
   46.1720   33.7320   44.2820 N   0  0  0  0  0  0  0  0  0  0  0  0
   45.5850   33.9350   45.4880 C   0  0  0  0  0  0  0  0  0  0  0  0
   44.7750   34.9870   45.7120 N   0  0  0  0  0  0  0  0  0  0  0  0
   47.9860   35.8453   42.7008 H   0  0  0  0  0  0  0  0  0  0  0  0
   49.3307   35.8522   40.6189 H   0  0  0  0  0  0  0  0  0  0  0  0
   45.0374   34.3005   37.8698 H   0  0  0  0  0  0  0  0  0  0  0  0
   44.2777   32.7470   36.1092 H   0  0  0  0  0  0  0  0  0  0  0  0
   45.2065   30.4083   35.9936 H   0  0  0  0  0  0  0  0  0  0  0  0
   46.8959   29.7035   37.6834 H   0  0  0  0  0  0  0  0  0  0  0  0
   49.8086   31.3881   38.5551 H   0  0  0  0  0  0  0  0  0  0  0  0
   50.8981   30.4756   40.8753 H   0  0  0  0  0  0  0  0  0  0  0  0
   48.8375   30.0637   42.5837 H   0  0  0  0  0  0  0  0  0  0  0  0
   43.8678   36.7268   44.9130 H   0  0  0  0  0  0  0  0  0  0  0  0
   44.9267   36.4253   42.6228 H   0  0  0  0  0  0  0  0  0  0  0  0
   45.7756   33.2220   46.3037 H   0  0  0  0  0  0  0  0  0  0  0  0
  1 22  1  0
  2  1  1  0
  3  2  2  0
  4  6  1  0
  4  3  1  0
  5  4  2  0
  6  7  1  0
  7  8  2  0
  7  1  1  0
  9  6  1  0
 10  9  2  0
 11 10  1  0
 12 11  2  0
 12 13  1  0
 13 14  2  0
 14  9  1  0
 14 15  1  0
 15 19  1  0
 16 15  2  0
 16 17  1  0
 17 18  2  0
 19 18  1  0
 20 25  2  0
 21 20  1  0
 22 21  2  0
 22 23  1  0
 23 24  2  0
 24 25  1  0
  2 26  1  0
  3 27  1  0
 10 28  1  0
 11 29  1  0
 12 30  1  0
 13 31  1  0
 16 32  1  0
 17 33  1  0
 18 34  1  0
 20 35  1  0
 21 36  1  0
 24 37  1  0
M  ISO  8  26  14  27  14  28  14  29  14  30  14  31  14  32  14  33  14
M  ISO  4  34  14  35  14  36  14  37  14
M  END
>  <minimizedAffinity>  (1) 
-5.26112366

>  <minimizedRMSD>  (1) 
0.452702224

$$$$
