
     RDKit          3D

 36 39  0  0  0  0  0  0  0  0999 V2000
   46.5440   34.4510   42.0210 N   0  0  0  0  0  0  0  0  0  0  0  0
   47.6590   35.2500   41.9100 C   0  0  0  0  0  0  0  0  0  0  0  0
   48.4140   35.2640   40.7620 C   0  0  0  0  0  0  0  0  0  0  0  0
   48.0140   34.4440   39.7120 C   0  0  0  0  0  0  0  0  0  0  0  0
   48.6720   34.4240   38.6480 O   0  0  0  0  0  0  0  0  0  0  0  0
   46.9230   33.6930   39.8840 N   0  0  0  0  0  0  0  0  0  0  0  0
   46.1940   33.6880   41.0110 C   0  0  0  0  0  0  0  0  0  0  0  0
   45.1860   33.0240   41.2290 O   0  0  0  0  0  0  0  0  0  0  0  0
   46.4570   32.8270   38.8480 C   0  0  0  0  0  0  0  0  0  0  0  0
   45.4940   33.1770   37.9140 C   0  0  0  0  0  0  0  0  0  0  0  0
   45.1110   32.2690   36.9500 C   0  0  0  0  0  0  0  0  0  0  0  0
   45.6760   30.9960   36.8940 C   0  0  0  0  0  0  0  0  0  0  0  0
   46.6350   30.6680   37.8350 C   0  0  0  0  0  0  0  0  0  0  0  0
   47.0520   31.5600   38.8280 C   0  0  0  0  0  0  0  0  0  0  0  0
   48.0440   31.1420   39.7580 N   0  0  0  0  0  0  0  0  0  0  0  0
   48.0730   30.7160   41.0270 C   0  0  0  0  0  0  0  0  0  0  0  0
   49.3420   30.4570   41.3890 N   0  0  0  0  0  0  0  0  0  0  0  0
   50.0920   30.7340   40.3060 C   0  0  0  0  0  0  0  0  0  0  0  0
   49.2930   31.1600   39.2900 N   0  0  0  0  0  0  0  0  0  0  0  0
   44.5090   35.8810   44.7600 C   0  0  0  0  0  0  0  0  0  0  0  0
   45.1050   35.7180   43.4760 C   0  0  0  0  0  0  0  0  0  0  0  0
   45.9350   34.6220   43.3160 C   0  0  0  0  0  0  0  0  0  0  0  0
   46.1600   33.7530   44.3390 N   0  0  0  0  0  0  0  0  0  0  0  0
   45.5630   33.9530   45.5510 C   0  0  0  0  0  0  0  0  0  0  0  0
   44.7470   35.0040   45.7600 N   0  0  0  0  0  0  0  0  0  0  0  0
   47.9513   35.8893   42.7561 H   0  0  0  0  0  0  0  0  0  0  0  0
   49.3055   35.9027   40.6761 H   0  0  0  0  0  0  0  0  0  0  0  0
   45.0366   34.1770   37.9421 H   0  0  0  0  0  0  0  0  0  0  0  0
   44.3464   32.5540   36.2123 H   0  0  0  0  0  0  0  0  0  0  0  0
   45.3681   30.2734   36.1239 H   0  0  0  0  0  0  0  0  0  0  0  0
   47.0876   29.6660   37.8010 H   0  0  0  0  0  0  0  0  0  0  0  0
   47.1924   30.5961   41.6752 H   0  0  0  0  0  0  0  0  0  0  0  0
   51.1858   30.6315   40.2506 H   0  0  0  0  0  0  0  0  0  0  0  0
   43.8424   36.7372   44.9406 H   0  0  0  0  0  0  0  0  0  0  0  0
   44.9155   36.4257   42.6555 H   0  0  0  0  0  0  0  0  0  0  0  0
   45.7518   33.2437   46.3703 H   0  0  0  0  0  0  0  0  0  0  0  0
  1 22  1  0
  2  1  1  0
  3  2  2  0
  4  6  1  0
  4  3  1  0
  5  4  2  0
  6  7  1  0
  7  8  2  0
  7  1  1  0
  9  6  1  0
 10  9  2  0
 11 10  1  0
 12 11  2  0
 12 13  1  0
 13 14  2  0
 14  9  1  0
 14 15  1  0
 15 16  1  0
 16 17  2  0
 18 17  1  0
 19 15  1  0
 19 18  2  0
 20 25  2  0
 21 20  1  0
 22 21  2  0
 22 23  1  0
 23 24  2  0
 24 25  1  0
  2 26  1  0
  3 27  1  0
 10 28  1  0
 11 29  1  0
 12 30  1  0
 13 31  1  0
 16 32  1  0
 18 33  1  0
 20 34  1  0
 21 35  1  0
 24 36  1  0
M  ISO  8  26  14  27  14  28  14  29  14  30  14  31  14  32  14  33  14
M  ISO  3  34  14  35  14  36  14
M  END
>  <minimizedAffinity>  (1) 
-5.24518061

>  <minimizedRMSD>  (1) 
0.503447473

$$$$
