
     RDKit          3D

 35 38  0  0  0  0  0  0  0  0999 V2000
   46.5370   34.4550   41.9660 N   0  0  0  0  0  0  0  0  0  0  0  0
   47.6730   35.2210   41.8590 C   0  0  0  0  0  0  0  0  0  0  0  0
   48.4210   35.2260   40.7090 C   0  0  0  0  0  0  0  0  0  0  0  0
   47.9830   34.4220   39.6440 C   0  0  0  0  0  0  0  0  0  0  0  0
   48.6430   34.4040   38.5800 O   0  0  0  0  0  0  0  0  0  0  0  0
   46.8740   33.7100   39.8260 N   0  0  0  0  0  0  0  0  0  0  0  0
   46.1550   33.7130   40.9500 C   0  0  0  0  0  0  0  0  0  0  0  0
   45.1280   33.0790   41.1700 O   0  0  0  0  0  0  0  0  0  0  0  0
   46.3780   32.8710   38.7740 C   0  0  0  0  0  0  0  0  0  0  0  0
   45.4410   33.2770   37.8370 C   0  0  0  0  0  0  0  0  0  0  0  0
   45.0160   32.4070   36.8560 C   0  0  0  0  0  0  0  0  0  0  0  0
   45.5120   31.1140   36.7840 C   0  0  0  0  0  0  0  0  0  0  0  0
   46.4400   30.7390   37.7260 C   0  0  0  0  0  0  0  0  0  0  0  0
   46.9040   31.5860   38.7430 C   0  0  0  0  0  0  0  0  0  0  0  0
   47.8900   31.1480   39.7230 C   0  0  0  0  0  0  0  0  0  0  0  0
   47.6850   30.6700   40.9530 N   0  0  0  0  0  0  0  0  0  0  0  0
   48.8090   30.4030   41.4830 O   0  0  0  0  0  0  0  0  0  0  0  0
   49.7640   30.6880   40.6460 C   0  0  0  0  0  0  0  0  0  0  0  0
   49.2170   31.1720   39.4980 N   0  0  0  0  0  0  0  0  0  0  0  0
   44.5240   35.8800   44.7280 C   0  0  0  0  0  0  0  0  0  0  0  0
   45.1090   35.7230   43.4440 C   0  0  0  0  0  0  0  0  0  0  0  0
   45.9360   34.6240   43.2650 C   0  0  0  0  0  0  0  0  0  0  0  0
   46.1630   33.7450   44.2910 N   0  0  0  0  0  0  0  0  0  0  0  0
   45.5740   33.9470   45.5020 C   0  0  0  0  0  0  0  0  0  0  0  0
   44.7650   35.0000   45.7200 N   0  0  0  0  0  0  0  0  0  0  0  0
   47.9882   35.8414   42.7109 H   0  0  0  0  0  0  0  0  0  0  0  0
   49.3312   35.8378   40.6241 H   0  0  0  0  0  0  0  0  0  0  0  0
   45.0345   34.2984   37.8764 H   0  0  0  0  0  0  0  0  0  0  0  0
   44.2720   32.7435   36.1189 H   0  0  0  0  0  0  0  0  0  0  0  0
   45.1758   30.4157   36.0034 H   0  0  0  0  0  0  0  0  0  0  0  0
   46.8417   29.7160   37.6796 H   0  0  0  0  0  0  0  0  0  0  0  0
   50.8397   30.5585   40.8360 H   0  0  0  0  0  0  0  0  0  0  0  0
   43.8608   36.7370   44.9170 H   0  0  0  0  0  0  0  0  0  0  0  0
   44.9158   36.4381   42.6308 H   0  0  0  0  0  0  0  0  0  0  0  0
   45.7634   33.2349   46.3187 H   0  0  0  0  0  0  0  0  0  0  0  0
  1 22  1  0
  2  1  1  0
  3  2  2  0
  4  6  1  0
  4  3  1  0
  5  4  2  0
  6  7  1  0
  7  8  2  0
  7  1  1  0
  9  6  1  0
 10  9  2  0
 11 10  1  0
 12 11  2  0
 12 13  1  0
 13 14  2  0
 14  9  1  0
 14 15  1  0
 15 16  2  0
 16 17  1  0
 18 17  1  0
 19 15  1  0
 19 18  2  0
 20 25  2  0
 21 20  1  0
 22 21  2  0
 22 23  1  0
 23 24  2  0
 24 25  1  0
  2 26  1  0
  3 27  1  0
 10 28  1  0
 11 29  1  0
 12 30  1  0
 13 31  1  0
 18 32  1  0
 20 33  1  0
 21 34  1  0
 24 35  1  0
M  ISO  8  26  14  27  14  28  14  29  14  30  14  31  14  32  14  33  14
M  ISO  2  34  14  35  14
M  END
>  <minimizedAffinity>  (1) 
-5.26833963

>  <minimizedRMSD>  (1) 
0.489627808

$$$$
