
     RDKit          3D

 33 35  0  0  0  0  0  0  0  0999 V2000
   46.5090   34.4530   41.8870 N   0  0  0  0  0  0  0  0  0  0  0  0
   47.6840   35.1580   41.7770 C   0  0  0  0  0  0  0  0  0  0  0  0
   48.4440   35.1070   40.6400 C   0  0  0  0  0  0  0  0  0  0  0  0
   47.9850   34.3110   39.5880 C   0  0  0  0  0  0  0  0  0  0  0  0
   48.6530   34.2380   38.5290 O   0  0  0  0  0  0  0  0  0  0  0  0
   46.8400   33.6530   39.7570 N   0  0  0  0  0  0  0  0  0  0  0  0
   46.1040   33.7130   40.8810 C   0  0  0  0  0  0  0  0  0  0  0  0
   45.0470   33.1310   41.0900 O   0  0  0  0  0  0  0  0  0  0  0  0
   46.3200   32.8240   38.7210 C   0  0  0  0  0  0  0  0  0  0  0  0
   45.4450   33.2570   37.7410 C   0  0  0  0  0  0  0  0  0  0  0  0
   44.9920   32.3840   36.7750 C   0  0  0  0  0  0  0  0  0  0  0  0
   45.4070   31.0510   36.7680 C   0  0  0  0  0  0  0  0  0  0  0  0
   46.2840   30.6310   37.7570 C   0  0  0  0  0  0  0  0  0  0  0  0
   46.7630   31.4910   38.7500 C   0  0  0  0  0  0  0  0  0  0  0  0
   47.7010   31.0040   39.7920 C   0  0  0  0  0  0  0  0  0  0  0  0
   44.5520   36.0420   44.5960 C   0  0  0  0  0  0  0  0  0  0  0  0
   45.1470   35.8260   43.3240 C   0  0  0  0  0  0  0  0  0  0  0  0
   45.9020   34.6740   43.1760 C   0  0  0  0  0  0  0  0  0  0  0  0
   46.0580   33.7980   44.2060 N   0  0  0  0  0  0  0  0  0  0  0  0
   45.4680   34.0460   45.4090 C   0  0  0  0  0  0  0  0  0  0  0  0
   44.7240   35.1530   45.6030 N   0  0  0  0  0  0  0  0  0  0  0  0
   48.0209   35.7769   42.6217 H   0  0  0  0  0  0  0  0  0  0  0  0
   49.3835   35.6731   40.5575 H   0  0  0  0  0  0  0  0  0  0  0  0
   45.1086   34.3043   37.7324 H   0  0  0  0  0  0  0  0  0  0  0  0
   44.2962   32.7414   36.0016 H   0  0  0  0  0  0  0  0  0  0  0  0
   45.0478   30.3521   35.9982 H   0  0  0  0  0  0  0  0  0  0  0  0
   46.6151   29.5820   37.7603 H   0  0  0  0  0  0  0  0  0  0  0  0
   47.2865   31.2192   40.7879 H   0  0  0  0  0  0  0  0  0  0  0  0
   47.8420   29.9188   39.6802 H   0  0  0  0  0  0  0  0  0  0  0  0
   48.6697   31.5130   39.6802 H   0  0  0  0  0  0  0  0  0  0  0  0
   43.9438   36.9429   44.7650 H   0  0  0  0  0  0  0  0  0  0  0  0
   45.0146   36.5389   42.4968 H   0  0  0  0  0  0  0  0  0  0  0  0
   45.6010   33.3315   46.2347 H   0  0  0  0  0  0  0  0  0  0  0  0
  1 18  1  0
  2  1  1  0
  3  2  2  0
  4  6  1  0
  4  3  1  0
  5  4  2  0
  6  7  1  0
  7  8  2  0
  7  1  1  0
  9 14  1  0
  9  6  1  0
 10  9  2  0
 11 10  1  0
 12 11  2  0
 12 13  1  0
 13 14  2  0
 14 15  1  0
 16 21  2  0
 17 16  1  0
 18 17  2  0
 18 19  1  0
 19 20  2  0
 20 21  1  0
  2 22  1  0
  3 23  1  0
 10 24  1  0
 11 25  1  0
 12 26  1  0
 13 27  1  0
 15 28  1  0
 15 29  1  0
 15 30  1  0
 16 31  1  0
 17 32  1  0
 20 33  1  0
M  ISO  8  22  14  23  14  24  14  25  14  26  14  27  14  28   8  29   8
M  ISO  4  30   8  31  14  32  14  33  14
M  END
>  <minimizedAffinity>  (1) 
-5.18318224

>  <minimizedRMSD>  (1) 
0.00878075976

$$$$
