
     RDKit          3D

 32 34  0  0  0  0  0  0  0  0999 V2000
   46.5010   34.4500   41.8820 N   0  0  0  0  0  0  0  0  0  0  0  0
   47.6780   35.1570   41.7830 C   0  0  0  0  0  0  0  0  0  0  0  0
   48.4390   35.1050   40.6410 C   0  0  0  0  0  0  0  0  0  0  0  0
   47.9820   34.3110   39.5830 C   0  0  0  0  0  0  0  0  0  0  0  0
   48.6520   34.2400   38.5260 O   0  0  0  0  0  0  0  0  0  0  0  0
   46.8320   33.6550   39.7550 N   0  0  0  0  0  0  0  0  0  0  0  0
   46.0980   33.7130   40.8720 C   0  0  0  0  0  0  0  0  0  0  0  0
   45.0380   33.1340   41.0840 O   0  0  0  0  0  0  0  0  0  0  0  0
   46.3120   32.8280   38.7140 C   0  0  0  0  0  0  0  0  0  0  0  0
   45.4430   33.2710   37.7320 C   0  0  0  0  0  0  0  0  0  0  0  0
   44.9900   32.4020   36.7640 C   0  0  0  0  0  0  0  0  0  0  0  0
   45.3970   31.0620   36.7530 C   0  0  0  0  0  0  0  0  0  0  0  0
   46.2610   30.6510   37.7410 C   0  0  0  0  0  0  0  0  0  0  0  0
   46.7520   31.4930   38.7490 C   0  0  0  0  0  0  0  0  0  0  0  0
   47.6390   30.9760   39.7230 N   0  0  0  0  0  0  0  0  0  0  0  0
   44.5520   36.0480   44.5890 C   0  0  0  0  0  0  0  0  0  0  0  0
   45.1450   35.8320   43.3140 C   0  0  0  0  0  0  0  0  0  0  0  0
   45.8980   34.6730   43.1710 C   0  0  0  0  0  0  0  0  0  0  0  0
   46.0450   33.8050   44.2070 N   0  0  0  0  0  0  0  0  0  0  0  0
   45.4580   34.0560   45.4070 C   0  0  0  0  0  0  0  0  0  0  0  0
   44.7260   35.1520   45.6020 N   0  0  0  0  0  0  0  0  0  0  0  0
   48.0138   35.7724   42.6307 H   0  0  0  0  0  0  0  0  0  0  0  0
   49.3792   35.6703   40.5603 H   0  0  0  0  0  0  0  0  0  0  0  0
   45.1131   34.3203   37.7246 H   0  0  0  0  0  0  0  0  0  0  0  0
   44.2991   32.7655   35.9890 H   0  0  0  0  0  0  0  0  0  0  0  0
   45.0387   30.3637   35.9823 H   0  0  0  0  0  0  0  0  0  0  0  0
   46.5859   29.6001   37.7404 H   0  0  0  0  0  0  0  0  0  0  0  0
   47.9207   29.9859   39.6891 H   0  0  0  0  0  0  0  0  0  0  0  0
   48.0029   31.5899   40.4657 H   0  0  0  0  0  0  0  0  0  0  0  0
   43.9453   36.9495   44.7598 H   0  0  0  0  0  0  0  0  0  0  0  0
   45.0144   36.5442   42.4859 H   0  0  0  0  0  0  0  0  0  0  0  0
   45.5898   33.3410   46.2324 H   0  0  0  0  0  0  0  0  0  0  0  0
  1 18  1  0
  2  1  1  0
  3  2  2  0
  4  6  1  0
  4  3  1  0
  5  4  2  0
  6  7  1  0
  7  8  2  0
  7  1  1  0
  9 14  1  0
  9  6  1  0
 10  9  2  0
 11 10  1  0
 12 11  2  0
 12 13  1  0
 13 14  2  0
 14 15  1  0
 16 21  2  0
 17 16  1  0
 18 17  2  0
 18 19  1  0
 19 20  2  0
 20 21  1  0
  2 22  1  0
  3 23  1  0
 10 24  1  0
 11 25  1  0
 12 26  1  0
 13 27  1  0
 15 28  1  0
 15 29  1  0
 16 30  1  0
 17 31  1  0
 20 32  1  0
M  ISO  8  22  14  23  14  24  14  25  14  26  14  27  14  30  14  31  14
M  ISO  1  32  14
M  END
>  <minimizedAffinity>  (1) 
-5.17776346

>  <minimizedRMSD>  (1) 
0.0115792761

$$$$
