
     RDKit          3D

 36 38  0  0  0  0  0  0  0  0999 V2000
   46.5420   34.4470   41.9750 N   0  0  0  0  0  0  0  0  0  0  0  0
   47.6690   35.1990   41.8720 C   0  0  0  0  0  0  0  0  0  0  0  0
   48.4200   35.2070   40.7160 C   0  0  0  0  0  0  0  0  0  0  0  0
   47.9720   34.4090   39.6560 C   0  0  0  0  0  0  0  0  0  0  0  0
   48.6280   34.3890   38.5950 O   0  0  0  0  0  0  0  0  0  0  0  0
   46.8480   33.6950   39.8330 N   0  0  0  0  0  0  0  0  0  0  0  0
   46.1370   33.7000   40.9530 C   0  0  0  0  0  0  0  0  0  0  0  0
   45.1020   33.0690   41.1760 O   0  0  0  0  0  0  0  0  0  0  0  0
   46.3480   32.8670   38.7870 C   0  0  0  0  0  0  0  0  0  0  0  0
   45.4110   33.2810   37.8450 C   0  0  0  0  0  0  0  0  0  0  0  0
   44.9950   32.4200   36.8640 C   0  0  0  0  0  0  0  0  0  0  0  0
   45.4900   31.1250   36.7810 C   0  0  0  0  0  0  0  0  0  0  0  0
   46.4150   30.7440   37.7210 C   0  0  0  0  0  0  0  0  0  0  0  0
   46.8780   31.5720   38.7430 C   0  0  0  0  0  0  0  0  0  0  0  0
   47.8570   31.0010   39.6910 C   0  0  0  0  0  0  0  0  0  0  0  0
   49.2380   30.9030   39.0370 C   0  0  0  0  0  0  0  0  0  0  0  0
   44.5170   35.8850   44.7320 C   0  0  0  0  0  0  0  0  0  0  0  0
   45.1110   35.7050   43.4670 C   0  0  0  0  0  0  0  0  0  0  0  0
   45.9370   34.6190   43.2710 C   0  0  0  0  0  0  0  0  0  0  0  0
   46.1550   33.7480   44.3010 N   0  0  0  0  0  0  0  0  0  0  0  0
   45.5550   33.9670   45.5050 C   0  0  0  0  0  0  0  0  0  0  0  0
   44.7570   35.0040   45.7230 N   0  0  0  0  0  0  0  0  0  0  0  0
   47.9881   35.8130   42.7271 H   0  0  0  0  0  0  0  0  0  0  0  0
   49.3328   35.8147   40.6298 H   0  0  0  0  0  0  0  0  0  0  0  0
   45.0035   34.3018   37.8882 H   0  0  0  0  0  0  0  0  0  0  0  0
   44.2535   32.7614   36.1267 H   0  0  0  0  0  0  0  0  0  0  0  0
   45.1546   30.4331   35.9944 H   0  0  0  0  0  0  0  0  0  0  0  0
   46.8162   29.7213   37.6645 H   0  0  0  0  0  0  0  0  0  0  0  0
   47.9214   31.6472   40.5788 H   0  0  0  0  0  0  0  0  0  0  0  0
   47.5269   29.9925   39.9809 H   0  0  0  0  0  0  0  0  0  0  0  0
   50.0106   30.8482   39.8181 H   0  0  0  0  0  0  0  0  0  0  0  0
   49.2842   29.9993   38.4115 H   0  0  0  0  0  0  0  0  0  0  0  0
   49.4114   31.7911   38.4115 H   0  0  0  0  0  0  0  0  0  0  0  0
   43.8563   36.7461   44.9109 H   0  0  0  0  0  0  0  0  0  0  0  0
   44.9192   36.4176   42.6513 H   0  0  0  0  0  0  0  0  0  0  0  0
   45.7392   33.2581   46.3257 H   0  0  0  0  0  0  0  0  0  0  0  0
  1 19  1  0
  2  1  1  0
  3  2  2  0
  4  6  1  0
  4  3  1  0
  5  4  2  0
  6  7  1  0
  7  8  2  0
  7  1  1  0
  9  6  1  0
 10  9  2  0
 11 10  1  0
 12 11  2  0
 12 13  1  0
 13 14  2  0
 14  9  1  0
 14 15  1  0
 16 15  1  0
 17 22  2  0
 18 17  1  0
 19 18  2  0
 19 20  1  0
 20 21  2  0
 21 22  1  0
  2 23  1  0
  3 24  1  0
 10 25  1  0
 11 26  1  0
 12 27  1  0
 13 28  1  0
 15 29  1  0
 15 30  1  0
 16 31  1  0
 16 32  1  0
 16 33  1  0
 17 34  1  0
 18 35  1  0
 21 36  1  0
M  ISO  8  23  14  24  14  25  14  26  14  27  14  28  14  29   8  30   8
M  ISO  6  31   8  32   8  33   8  34  14  35  14  36  14
M  END
>  <minimizedAffinity>  (1) 
-5.018363

>  <minimizedRMSD>  (1) 
0.325134128

$$$$
