
     RDKit          3D

 41 42  0  0  0  0  0  0  0  0999 V2000
   46.1370   32.2970   38.1640 C   0  0  0  0  0  0  0  0  0  0  0  0
   45.6460   34.4240   41.1060 C   0  0  0  0  0  0  0  0  0  0  0  0
   46.9340   34.7710   41.4810 C   0  0  0  0  0  0  0  0  0  0  0  0
   48.0150   34.2730   40.7230 C   0  0  0  0  0  0  0  0  0  0  0  0
   47.7310   33.4770   39.6590 N   0  0  0  0  0  0  0  0  0  0  0  0
   46.4440   33.1550   39.3150 C   0  0  0  0  0  0  0  0  0  0  0  0
   45.4430   33.6320   40.0400 N   0  0  0  0  0  0  0  0  0  0  0  0
   44.5450   34.9340   41.8820 C   0  0  0  0  0  0  0  0  0  0  0  0
   43.7330   35.7570   41.3520 O   0  0  0  0  0  0  0  0  0  0  0  0
   44.4140   34.4910   43.2170 O   0  0  0  0  0  0  0  0  0  0  0  0
   44.9830   35.2580   44.2350 C   0  0  0  0  0  0  0  0  0  0  0  0
   44.1380   35.4540   45.3140 F   0  0  0  0  0  0  0  0  0  0  0  0
   46.1430   34.6410   44.6900 F   0  0  0  0  0  0  0  0  0  0  0  0
   45.2620   36.5010   43.6900 F   0  0  0  0  0  0  0  0  0  0  0  0
   45.1440   31.2200   38.4860 C   0  0  0  0  0  0  0  0  0  0  0  0
   45.6110   33.1550   37.0540 C   0  0  0  0  0  0  0  0  0  0  0  0
   47.4400   31.6840   37.7030 C   0  0  0  0  0  0  0  0  0  0  0  0
   47.7560   31.9890   36.3220 N   0  0  0  0  0  0  0  0  0  0  0  0
   47.1950   31.1400   35.4120 C   0  0  0  0  0  0  0  0  0  0  0  0
   47.3850   31.2740   34.0530 C   0  0  0  0  0  0  0  0  0  0  0  0
   46.7740   30.3470   33.0650 C   0  0  0  0  0  0  0  0  0  0  0  0
   48.1760   32.3100   33.5940 C   0  0  0  0  0  0  0  0  0  0  0  0
   48.3710   32.4630   32.3490 O   0  0  0  0  0  0  0  0  0  0  0  0
   48.7080   33.1230   34.5180 N   0  0  0  0  0  0  0  0  0  0  0  0
   48.5200   32.9870   35.8410 C   0  0  0  0  0  0  0  0  0  0  0  0
   49.0070   33.7320   36.7020 O   0  0  0  0  0  0  0  0  0  0  0  0
   47.1100   35.4208   42.3510 H   0  0  0  0  0  0  0  0  0  0  0  0
   49.0541   34.5212   40.9850 H   0  0  0  0  0  0  0  0  0  0  0  0
   45.0522   31.1204   39.5776 H   0  0  0  0  0  0  0  0  0  0  0  0
   44.1655   31.4837   38.0583 H   0  0  0  0  0  0  0  0  0  0  0  0
   45.4861   30.2661   38.0583 H   0  0  0  0  0  0  0  0  0  0  0  0
   45.0807   34.0200   37.4790 H   0  0  0  0  0  0  0  0  0  0  0  0
   46.4488   33.5069   36.4341 H   0  0  0  0  0  0  0  0  0  0  0  0
   44.9173   32.5680   36.4341 H   0  0  0  0  0  0  0  0  0  0  0  0
   48.2512   32.0662   38.3401 H   0  0  0  0  0  0  0  0  0  0  0  0
   47.3338   30.5919   37.7811 H   0  0  0  0  0  0  0  0  0  0  0  0
   46.5657   30.3153   35.7779 H   0  0  0  0  0  0  0  0  0  0  0  0
   46.2438   29.5427   33.5960 H   0  0  0  0  0  0  0  0  0  0  0  0
   46.0631   30.9004   32.4339 H   0  0  0  0  0  0  0  0  0  0  0  0
   47.5629   29.9118   32.4339 H   0  0  0  0  0  0  0  0  0  0  0  0
   49.2986   33.9016   34.1925 H   0  0  0  0  0  0  0  0  0  0  0  0
  1 15  1  0
  1  6  1  0
  2  3  2  0
  2  8  1  0
  4  3  1  0
  5  4  2  0
  6  5  1  0
  6  7  2  0
  7  2  1  0
  8 10  1  0
  9  8  2  0
 10 11  1  0
 11 13  1  0
 11 12  1  0
 14 11  1  0
 16  1  1  0
 17  1  1  0
 18 17  1  0
 19 18  1  0
 20 19  2  0
 21 20  1  0
 22 20  1  0
 22 24  1  0
 23 22  2  0
 24 25  1  0
 25 18  1  0
 25 26  2  0
  3 27  1  0
  4 28  1  0
 15 29  1  0
 15 30  1  0
 15 31  1  0
 16 32  1  0
 16 33  1  0
 16 34  1  0
 17 35  1  0
 17 36  1  0
 19 37  1  0
 21 38  1  0
 21 39  1  0
 21 40  1  0
 24 41  1  0
M  ISO  8  27  14  28  14  29   8  30   8  31   8  32   8  33   8  34   8
M  ISO  7  35   8  36   8  37  14  38   8  39   8  40   8  41   9
M  END
>  <minimizedAffinity>  (1) 
-5.40155029

>  <minimizedRMSD>  (1) 
1.56582224

$$$$
