
     RDKit          3D

 46 48  0  0  0  0  0  0  0  0999 V2000
   46.5710   34.4600   41.6080 N   0  0  0  0  0  0  0  0  0  0  0  0
   47.7440   35.1630   41.4770 C   0  0  0  0  0  0  0  0  0  0  0  0
   48.4960   35.0880   40.3380 C   0  0  0  0  0  0  0  0  0  0  0  0
   48.0270   34.2680   39.3080 C   0  0  0  0  0  0  0  0  0  0  0  0
   48.6960   34.1880   38.2610 O   0  0  0  0  0  0  0  0  0  0  0  0
   46.8750   33.6040   39.4960 N   0  0  0  0  0  0  0  0  0  0  0  0
   46.1590   33.7000   40.6260 C   0  0  0  0  0  0  0  0  0  0  0  0
   45.1140   33.1350   40.8540 O   0  0  0  0  0  0  0  0  0  0  0  0
   44.6580   36.1290   44.3070 C   0  0  0  0  0  0  0  0  0  0  0  0
   45.2460   35.8840   43.0410 C   0  0  0  0  0  0  0  0  0  0  0  0
   45.9750   34.7080   42.8940 C   0  0  0  0  0  0  0  0  0  0  0  0
   46.1010   33.8470   43.9410 N   0  0  0  0  0  0  0  0  0  0  0  0
   45.5140   34.1290   45.1390 C   0  0  0  0  0  0  0  0  0  0  0  0
   44.8120   35.2390   45.3160 N   0  0  0  0  0  0  0  0  0  0  0  0
   45.6990   33.1710   46.1760 N   0  0  0  0  0  0  0  0  0  0  0  0
   45.1300   33.3710   47.4560 C   0  0  0  0  0  0  0  0  0  0  0  0
   44.1740   34.2440   47.5420 N   0  0  0  0  0  0  0  0  0  0  0  0
   45.5470   32.6760   48.6470 N   0  0  0  0  0  0  0  0  0  0  0  0
   43.7190   34.4340   48.4480 H   0  0  0  0  0  0  0  0  0  0  0  0
   46.3640   32.7560   38.4930 C   0  0  0  0  0  0  0  0  0  0  0  0
   45.4850   33.1700   37.5090 C   0  0  0  0  0  0  0  0  0  0  0  0
   45.0300   32.2820   36.5610 C   0  0  0  0  0  0  0  0  0  0  0  0
   45.4370   30.9650   36.5720 C   0  0  0  0  0  0  0  0  0  0  0  0
   46.2990   30.5860   37.5490 C   0  0  0  0  0  0  0  0  0  0  0  0
   46.8040   31.4370   38.5470 C   0  0  0  0  0  0  0  0  0  0  0  0
   47.7490   30.9140   39.5700 C   0  0  0  0  0  0  0  0  0  0  0  0
   49.1010   31.5350   39.5640 C   0  0  0  0  0  0  0  0  0  0  0  0
   47.2340   31.0070   40.9720 C   0  0  0  0  0  0  0  0  0  0  0  0
   48.0854   35.7998   42.3064 H   0  0  0  0  0  0  0  0  0  0  0  0
   49.4350   35.6518   40.2359 H   0  0  0  0  0  0  0  0  0  0  0  0
   44.0737   37.0465   44.4708 H   0  0  0  0  0  0  0  0  0  0  0  0
   45.1308   36.5942   42.2089 H   0  0  0  0  0  0  0  0  0  0  0  0
   46.2534   32.3226   45.9923 H   0  0  0  0  0  0  0  0  0  0  0  0
   45.0859   32.8735   49.5466 H   0  0  0  0  0  0  0  0  0  0  0  0
   46.3062   31.9816   48.5989 H   0  0  0  0  0  0  0  0  0  0  0  0
   45.1470   34.2165   37.4838 H   0  0  0  0  0  0  0  0  0  0  0  0
   44.3322   32.6278   35.7841 H   0  0  0  0  0  0  0  0  0  0  0  0
   45.0770   30.2493   35.8182 H   0  0  0  0  0  0  0  0  0  0  0  0
   46.6265   29.5359   37.5608 H   0  0  0  0  0  0  0  0  0  0  0  0
   47.8384   29.8624   39.2598 H   0  0  0  0  0  0  0  0  0  0  0  0
   49.4380   31.6898   40.5996 H   0  0  0  0  0  0  0  0  0  0  0  0
   49.8072   30.8710   39.0440 H   0  0  0  0  0  0  0  0  0  0  0  0
   49.0574   32.5033   39.0440 H   0  0  0  0  0  0  0  0  0  0  0  0
   48.0640   30.8571   41.6782 H   0  0  0  0  0  0  0  0  0  0  0  0
   46.7894   32.0000   41.1342 H   0  0  0  0  0  0  0  0  0  0  0  0
   46.4701   30.2323   41.1342 H   0  0  0  0  0  0  0  0  0  0  0  0
  1 11  1  0
  2  1  1  0
  3  2  2  0
  4  6  1  0
  4  3  1  0
  5  4  2  0
  6  7  1  0
  7  8  2  0
  7  1  1  0
  9 14  2  0
 10  9  1  0
 11 10  2  0
 11 12  1  0
 12 13  2  0
 13 14  1  0
 13 15  1  0
 15 16  1  0
 16 17  2  0
 16 18  1  0
 17 19  1  0
 20 25  1  0
 20  6  1  0
 21 20  2  0
 22 23  2  0
 22 21  1  0
 23 24  1  0
 24 25  2  0
 25 26  1  0
 26 28  1  0
 27 26  1  0
  2 29  1  0
  3 30  1  0
  9 31  1  0
 10 32  1  0
 15 33  1  0
 18 34  1  0
 18 35  1  0
 21 36  1  0
 22 37  1  0
 23 38  1  0
 24 39  1  0
 26 40  1  0
 27 41  1  0
 27 42  1  0
 27 43  1  0
 28 44  1  0
 28 45  1  0
 28 46  1  0
M  ISO  8  29  14  30  14  31  14  32  14  36  14  37  14  38  14  39  14
M  ISO  7  40   8  41   8  42   8  43   8  44   8  45   8  46   8
M  END
>  <minimizedAffinity>  (1) 
-6.96175289

>  <minimizedRMSD>  (1) 
0.372426659

$$$$
