
     RDKit          3D

 49 52  0  0  0  0  0  0  0  0999 V2000
   46.6550   34.4130   41.4000 N   0  0  0  0  0  0  0  0  0  0  0  0
   47.7990   35.1530   41.2960 C   0  0  0  0  0  0  0  0  0  0  0  0
   48.5610   35.1190   40.1460 C   0  0  0  0  0  0  0  0  0  0  0  0
   48.1120   34.3000   39.1050 C   0  0  0  0  0  0  0  0  0  0  0  0
   48.7830   34.2580   38.0510 O   0  0  0  0  0  0  0  0  0  0  0  0
   46.9860   33.6030   39.2740 N   0  0  0  0  0  0  0  0  0  0  0  0
   46.2580   33.6510   40.4010 C   0  0  0  0  0  0  0  0  0  0  0  0
   45.2290   33.0500   40.6140 O   0  0  0  0  0  0  0  0  0  0  0  0
   44.5750   35.9040   44.0740 C   0  0  0  0  0  0  0  0  0  0  0  0
   45.1850   35.6880   42.8180 C   0  0  0  0  0  0  0  0  0  0  0  0
   46.0450   34.6180   42.6930 C   0  0  0  0  0  0  0  0  0  0  0  0
   46.2810   33.8160   43.7550 N   0  0  0  0  0  0  0  0  0  0  0  0
   45.6840   34.0430   44.9520 C   0  0  0  0  0  0  0  0  0  0  0  0
   44.8460   35.0650   45.1190 N   0  0  0  0  0  0  0  0  0  0  0  0
   45.9030   33.2250   46.0880 N   0  0  0  0  0  0  0  0  0  0  0  0
   46.7880   32.2010   46.0980 C   0  0  0  0  0  0  0  0  0  0  0  0
   46.9780   31.4310   47.2210 C   0  0  0  0  0  0  0  0  0  0  0  0
   46.2700   31.6750   48.3770 C   0  0  0  0  0  0  0  0  0  0  0  0
   46.3110   31.0840   49.4860 O   0  0  0  0  0  0  0  0  0  0  0  0
   45.4130   32.7160   48.2590 N   0  0  0  0  0  0  0  0  0  0  0  0
   45.1790   33.5190   47.1790 C   0  0  0  0  0  0  0  0  0  0  0  0
   44.3150   34.4520   47.3070 O   0  0  0  0  0  0  0  0  0  0  0  0
   46.5050   32.7550   38.2550 C   0  0  0  0  0  0  0  0  0  0  0  0
   45.6210   33.1600   37.2710 C   0  0  0  0  0  0  0  0  0  0  0  0
   45.1940   32.2810   36.3060 C   0  0  0  0  0  0  0  0  0  0  0  0
   45.6410   30.9740   36.3000 C   0  0  0  0  0  0  0  0  0  0  0  0
   46.5110   30.5940   37.2780 C   0  0  0  0  0  0  0  0  0  0  0  0
   46.9810   31.4420   38.2870 C   0  0  0  0  0  0  0  0  0  0  0  0
   47.9380   30.9370   39.3100 C   0  0  0  0  0  0  0  0  0  0  0  0
   49.2630   31.6140   39.3390 C   0  0  0  0  0  0  0  0  0  0  0  0
   47.4020   30.9720   40.7060 C   0  0  0  0  0  0  0  0  0  0  0  0
   48.1165   35.7837   42.1395 H   0  0  0  0  0  0  0  0  0  0  0  0
   49.4831   35.7114   40.0520 H   0  0  0  0  0  0  0  0  0  0  0  0
   43.8820   36.7472   44.2111 H   0  0  0  0  0  0  0  0  0  0  0  0
   44.9800   36.3531   41.9662 H   0  0  0  0  0  0  0  0  0  0  0  0
   47.3670   31.9804   45.1891 H   0  0  0  0  0  0  0  0  0  0  0  0
   47.7067   30.6074   47.1959 H   0  0  0  0  0  0  0  0  0  0  0  0
   44.8604   32.9329   49.1007 H   0  0  0  0  0  0  0  0  0  0  0  0
   45.2560   34.1976   37.2614 H   0  0  0  0  0  0  0  0  0  0  0  0
   44.4904   32.6205   35.5316 H   0  0  0  0  0  0  0  0  0  0  0  0
   45.3057   30.2628   35.5307 H   0  0  0  0  0  0  0  0  0  0  0  0
   46.8668   29.5531   37.2738 H   0  0  0  0  0  0  0  0  0  0  0  0
   48.0785   29.8995   38.9727 H   0  0  0  0  0  0  0  0  0  0  0  0
   49.5715   31.7716   40.3830 H   0  0  0  0  0  0  0  0  0  0  0  0
   50.0071   30.9856   38.8277 H   0  0  0  0  0  0  0  0  0  0  0  0
   49.1898   32.5852   38.8277 H   0  0  0  0  0  0  0  0  0  0  0  0
   48.2365   30.9175   41.4206 H   0  0  0  0  0  0  0  0  0  0  0  0
   46.8462   31.9084   40.8620 H   0  0  0  0  0  0  0  0  0  0  0  0
   46.7292   30.1159   40.8620 H   0  0  0  0  0  0  0  0  0  0  0  0
  1 11  1  0
  2  1  1  0
  3  2  2  0
  4  6  1  0
  4  3  1  0
  5  4  2  0
  6  7  1  0
  7  8  2  0
  7  1  1  0
  9 14  2  0
 10  9  1  0
 11 10  2  0
 11 12  1  0
 12 13  2  0
 13 14  1  0
 13 15  1  0
 15 16  1  0
 15 21  1  0
 16 17  2  0
 17 18  1  0
 18 19  2  0
 20 18  1  0
 21 22  2  0
 21 20  1  0
 23 28  1  0
 23  6  1  0
 24 23  2  0
 25 24  1  0
 26 25  2  0
 26 27  1  0
 27 28  2  0
 28 29  1  0
 29 30  1  0
 29 31  1  0
  2 32  1  0
  3 33  1  0
  9 34  1  0
 10 35  1  0
 16 36  1  0
 17 37  1  0
 20 38  1  0
 24 39  1  0
 25 40  1  0
 26 41  1  0
 27 42  1  0
 29 43  1  0
 30 44  1  0
 30 45  1  0
 30 46  1  0
 31 47  1  0
 31 48  1  0
 31 49  1  0
M  ISO  8  32  14  33  14  34  14  35  14  36  14  37  14  38   9  39  14
M  ISO  8  40  14  41  14  42  14  43   8  44   8  45   8  46   8  47   8
M  ISO  2  48   8  49   8
M  END
>  <minimizedAffinity>  (1) 
-6.99175406

>  <minimizedRMSD>  (1) 
0.528728127

$$$$
