
     RDKit          3D

 49 52  0  0  0  0  0  0  0  0999 V2000
   46.5500   34.3840   42.0770 N   0  0  0  0  0  0  0  0  0  0  0  0
   47.6610   35.1950   41.9520 C   0  0  0  0  0  0  0  0  0  0  0  0
   48.3960   35.2330   40.7990 C   0  0  0  0  0  0  0  0  0  0  0  0
   47.9790   34.4150   39.7440 C   0  0  0  0  0  0  0  0  0  0  0  0
   48.6290   34.4360   38.6820 O   0  0  0  0  0  0  0  0  0  0  0  0
   46.8900   33.6440   39.9240 N   0  0  0  0  0  0  0  0  0  0  0  0
   46.1930   33.6330   41.0650 C   0  0  0  0  0  0  0  0  0  0  0  0
   45.2050   32.9690   41.2860 O   0  0  0  0  0  0  0  0  0  0  0  0
   46.4370   32.7960   38.8950 C   0  0  0  0  0  0  0  0  0  0  0  0
   45.4970   33.1680   37.9500 C   0  0  0  0  0  0  0  0  0  0  0  0
   45.1060   32.2830   36.9720 C   0  0  0  0  0  0  0  0  0  0  0  0
   45.6390   31.0130   36.9120 C   0  0  0  0  0  0  0  0  0  0  0  0
   46.5590   30.6760   37.8520 C   0  0  0  0  0  0  0  0  0  0  0  0
   47.0080   31.5200   38.8770 C   0  0  0  0  0  0  0  0  0  0  0  0
   48.0220   31.0530   39.8560 C   0  0  0  0  0  0  0  0  0  0  0  0
   49.3120   31.7940   39.8400 C   0  0  0  0  0  0  0  0  0  0  0  0
   47.5340   31.0450   41.2720 C   0  0  0  0  0  0  0  0  0  0  0  0
   44.5130   35.7390   44.8490 C   0  0  0  0  0  0  0  0  0  0  0  0
   45.0900   35.5980   43.5640 C   0  0  0  0  0  0  0  0  0  0  0  0
   45.9660   34.5300   43.3770 C   0  0  0  0  0  0  0  0  0  0  0  0
   46.2380   33.6760   44.4000 N   0  0  0  0  0  0  0  0  0  0  0  0
   45.6570   33.8570   45.6200 C   0  0  0  0  0  0  0  0  0  0  0  0
   44.8180   34.8580   45.8410 N   0  0  0  0  0  0  0  0  0  0  0  0
   45.9890   32.9060   46.6780 C   0  0  0  0  0  0  0  0  0  0  0  0
   47.1090   32.1040   46.5450 C   0  0  0  0  0  0  0  0  0  0  0  0
   47.3610   31.2310   47.5840 C   0  0  0  0  0  0  0  0  0  0  0  0
   46.6110   31.0760   48.7390 C   0  0  0  0  0  0  0  0  0  0  0  0
   45.4890   31.9080   48.8290 C   0  0  0  0  0  0  0  0  0  0  0  0
   45.2060   32.7940   47.8080 C   0  0  0  0  0  0  0  0  0  0  0  0
   47.9623   35.8262   42.8010 H   0  0  0  0  0  0  0  0  0  0  0  0
   49.2798   35.8811   40.7053 H   0  0  0  0  0  0  0  0  0  0  0  0
   45.0600   34.1770   37.9810 H   0  0  0  0  0  0  0  0  0  0  0  0
   44.3578   32.5930   36.2276 H   0  0  0  0  0  0  0  0  0  0  0  0
   45.3309   30.3003   36.1328 H   0  0  0  0  0  0  0  0  0  0  0  0
   46.9847   29.6628   37.8055 H   0  0  0  0  0  0  0  0  0  0  0  0
   48.2022   30.0260   39.5057 H   0  0  0  0  0  0  0  0  0  0  0  0
   49.6396   31.9822   40.8731 H   0  0  0  0  0  0  0  0  0  0  0  0
   50.0725   31.1950   39.3175 H   0  0  0  0  0  0  0  0  0  0  0  0
   49.1777   32.7526   39.3175 H   0  0  0  0  0  0  0  0  0  0  0  0
   48.3949   31.0591   41.9566 H   0  0  0  0  0  0  0  0  0  0  0  0
   46.9096   31.9330   41.4497 H   0  0  0  0  0  0  0  0  0  0  0  0
   46.9391   30.1370   41.4497 H   0  0  0  0  0  0  0  0  0  0  0  0
   43.8142   36.5651   45.0471 H   0  0  0  0  0  0  0  0  0  0  0  0
   44.8575   36.2998   42.7495 H   0  0  0  0  0  0  0  0  0  0  0  0
   47.7615   32.1592   45.6612 H   0  0  0  0  0  0  0  0  0  0  0  0
   48.2503   30.5913   47.4849 H   0  0  0  0  0  0  0  0  0  0  0  0
   46.8772   30.3541   49.5252 H   0  0  0  0  0  0  0  0  0  0  0  0
   44.8339   31.8563   49.7112 H   0  0  0  0  0  0  0  0  0  0  0  0
   44.3186   33.4375   47.8999 H   0  0  0  0  0  0  0  0  0  0  0  0
  1 20  1  0
  2  1  1  0
  3  2  2  0
  4  6  1  0
  4  3  1  0
  5  4  2  0
  6  7  1  0
  7  8  2  0
  7  1  1  0
  9  6  1  0
 10  9  2  0
 11 10  1  0
 12 11  2  0
 12 13  1  0
 13 14  2  0
 14  9  1  0
 14 15  1  0
 15 17  1  0
 16 15  1  0
 18 23  2  0
 19 18  1  0
 20 19  2  0
 20 21  1  0
 21 22  2  0
 22 23  1  0
 22 24  1  0
 24 29  1  0
 25 24  2  0
 25 26  1  0
 26 27  2  0
 27 28  1  0
 29 28  2  0
  2 30  1  0
  3 31  1  0
 10 32  1  0
 11 33  1  0
 12 34  1  0
 13 35  1  0
 15 36  1  0
 16 37  1  0
 16 38  1  0
 16 39  1  0
 17 40  1  0
 17 41  1  0
 17 42  1  0
 18 43  1  0
 19 44  1  0
 25 45  1  0
 26 46  1  0
 27 47  1  0
 28 48  1  0
 29 49  1  0
M  ISO  8  30  14  31  14  32  14  33  14  34  14  35  14  36   8  37   8
M  ISO  8  38   8  39   8  40   8  41   8  42   8  43  14  44  14  45  14
M  ISO  4  46  14  47  14  48  14  49  14
M  END
>  <minimizedAffinity>  (1) 
-6.74960804

>  <minimizedRMSD>  (1) 
0.208307743

$$$$
