
     RDKit          3D

 46 49  0  0  0  0  0  0  0  0999 V2000
   46.5630   34.3770   42.0240 N   0  0  0  0  0  0  0  0  0  0  0  0
   47.6900   35.1700   41.9000 C   0  0  0  0  0  0  0  0  0  0  0  0
   48.4060   35.2170   40.7320 C   0  0  0  0  0  0  0  0  0  0  0  0
   47.9560   34.4310   39.6660 C   0  0  0  0  0  0  0  0  0  0  0  0
   48.5910   34.4650   38.6000 O   0  0  0  0  0  0  0  0  0  0  0  0
   46.8570   33.6810   39.8500 N   0  0  0  0  0  0  0  0  0  0  0  0
   46.1760   33.6570   41.0030 C   0  0  0  0  0  0  0  0  0  0  0  0
   45.1770   33.0090   41.2280 O   0  0  0  0  0  0  0  0  0  0  0  0
   44.5310   35.6530   44.8400 C   0  0  0  0  0  0  0  0  0  0  0  0
   45.0870   35.5270   43.5380 C   0  0  0  0  0  0  0  0  0  0  0  0
   46.0020   34.5040   43.3370 C   0  0  0  0  0  0  0  0  0  0  0  0
   46.3380   33.6690   44.3660 N   0  0  0  0  0  0  0  0  0  0  0  0
   45.7780   33.8340   45.5900 C   0  0  0  0  0  0  0  0  0  0  0  0
   44.8910   34.8050   45.8310 N   0  0  0  0  0  0  0  0  0  0  0  0
   46.1260   32.9660   46.6610 N   0  0  0  0  0  0  0  0  0  0  0  0
   45.1710   32.9080   47.6270 C   0  0  0  0  0  0  0  0  0  0  0  0
   45.6140   32.0360   48.6190 C   0  0  0  0  0  0  0  0  0  0  0  0
   46.8330   31.5930   48.2150 N   0  0  0  0  0  0  0  0  0  0  0  0
   47.1400   32.1600   47.0250 C   0  0  0  0  0  0  0  0  0  0  0  0
   46.3690   32.8630   38.8080 C   0  0  0  0  0  0  0  0  0  0  0  0
   45.4050   33.2540   37.9080 C   0  0  0  0  0  0  0  0  0  0  0  0
   44.9730   32.4080   36.9180 C   0  0  0  0  0  0  0  0  0  0  0  0
   45.5000   31.1370   36.8040 C   0  0  0  0  0  0  0  0  0  0  0  0
   46.4500   30.7710   37.7030 C   0  0  0  0  0  0  0  0  0  0  0  0
   46.9300   31.5940   38.7360 C   0  0  0  0  0  0  0  0  0  0  0  0
   47.9790   31.0920   39.6670 C   0  0  0  0  0  0  0  0  0  0  0  0
   49.2790   31.8120   39.6080 C   0  0  0  0  0  0  0  0  0  0  0  0
   47.5490   31.0680   41.0990 C   0  0  0  0  0  0  0  0  0  0  0  0
   48.0186   35.7759   42.7573 H   0  0  0  0  0  0  0  0  0  0  0  0
   49.3011   35.8493   40.6366 H   0  0  0  0  0  0  0  0  0  0  0  0
   43.7997   36.4489   45.0443 H   0  0  0  0  0  0  0  0  0  0  0  0
   44.8039   36.2113   42.7247 H   0  0  0  0  0  0  0  0  0  0  0  0
   44.2160   33.4539   47.6255 H   0  0  0  0  0  0  0  0  0  0  0  0
   45.0838   31.7616   49.5429 H   0  0  0  0  0  0  0  0  0  0  0  0
   48.0634   31.9904   46.4517 H   0  0  0  0  0  0  0  0  0  0  0  0
   44.9728   34.2627   37.9833 H   0  0  0  0  0  0  0  0  0  0  0  0
   44.2013   32.7448   36.2101 H   0  0  0  0  0  0  0  0  0  0  0  0
   45.1635   30.4476   36.0157 H   0  0  0  0  0  0  0  0  0  0  0  0
   46.8734   29.7594   37.6164 H   0  0  0  0  0  0  0  0  0  0  0  0
   48.1286   30.0679   39.2943 H   0  0  0  0  0  0  0  0  0  0  0  0
   49.6355   32.0094   40.6297 H   0  0  0  0  0  0  0  0  0  0  0  0
   50.0167   31.1939   39.0753 H   0  0  0  0  0  0  0  0  0  0  0  0
   49.1464   32.7652   39.0753 H   0  0  0  0  0  0  0  0  0  0  0  0
   48.4352   31.1175   41.7488 H   0  0  0  0  0  0  0  0  0  0  0  0
   46.8977   31.9312   41.3008 H   0  0  0  0  0  0  0  0  0  0  0  0
   46.9978   30.1377   41.3008 H   0  0  0  0  0  0  0  0  0  0  0  0
  1 11  1  0
  2  1  1  0
  3  2  2  0
  4  6  1  0
  4  3  1  0
  5  4  2  0
  6  7  1  0
  7  8  2  0
  7  1  1  0
  9 14  2  0
 10  9  1  0
 11 10  2  0
 11 12  1  0
 12 13  2  0
 13 14  1  0
 13 15  1  0
 15 19  1  0
 15 16  1  0
 16 17  2  0
 18 17  1  0
 19 18  2  0
 20  6  1  0
 21 20  2  0
 22 21  1  0
 23 22  2  0
 23 24  1  0
 24 25  2  0
 25 20  1  0
 25 26  1  0
 26 28  1  0
 27 26  1  0
  2 29  1  0
  3 30  1  0
  9 31  1  0
 10 32  1  0
 16 33  1  0
 17 34  1  0
 19 35  1  0
 21 36  1  0
 22 37  1  0
 23 38  1  0
 24 39  1  0
 26 40  1  0
 27 41  1  0
 27 42  1  0
 27 43  1  0
 28 44  1  0
 28 45  1  0
 28 46  1  0
M  ISO  8  29  14  30  14  31  14  32  14  33  14  34  14  35  14  36  14
M  ISO  8  37  14  38  14  39  14  40   8  41   8  42   8  43   8  44   8
M  ISO  2  45   8  46   8
M  END
>  <minimizedAffinity>  (1) 
-6.51424217

>  <minimizedRMSD>  (1) 
0.219904169

$$$$
