
     RDKit          3D

 46 49  0  0  0  0  0  0  0  0999 V2000
   46.5390   34.4270   41.9790 N   0  0  0  0  0  0  0  0  0  0  0  0
   47.6840   35.1930   41.8570 C   0  0  0  0  0  0  0  0  0  0  0  0
   48.4200   35.2000   40.6980 C   0  0  0  0  0  0  0  0  0  0  0  0
   47.9700   34.4000   39.6440 C   0  0  0  0  0  0  0  0  0  0  0  0
   48.6190   34.3950   38.5850 O   0  0  0  0  0  0  0  0  0  0  0  0
   46.8510   33.6760   39.8270 N   0  0  0  0  0  0  0  0  0  0  0  0
   46.1520   33.6930   40.9700 C   0  0  0  0  0  0  0  0  0  0  0  0
   45.1370   33.0700   41.1920 O   0  0  0  0  0  0  0  0  0  0  0  0
   44.4810   35.8050   44.7280 C   0  0  0  0  0  0  0  0  0  0  0  0
   45.0540   35.6410   43.4360 C   0  0  0  0  0  0  0  0  0  0  0  0
   45.9570   34.5960   43.2860 C   0  0  0  0  0  0  0  0  0  0  0  0
   46.2640   33.7850   44.3340 N   0  0  0  0  0  0  0  0  0  0  0  0
   45.6900   33.9850   45.5450 C   0  0  0  0  0  0  0  0  0  0  0  0
   44.8150   34.9730   45.7470 N   0  0  0  0  0  0  0  0  0  0  0  0
   46.0330   33.1190   46.6210 N   0  0  0  0  0  0  0  0  0  0  0  0
   47.1020   32.3860   46.9060 N   0  0  0  0  0  0  0  0  0  0  0  0
   46.9120   31.7340   48.0740 C   0  0  0  0  0  0  0  0  0  0  0  0
   45.6410   32.0960   48.5290 C   0  0  0  0  0  0  0  0  0  0  0  0
   45.1040   32.9770   47.5840 C   0  0  0  0  0  0  0  0  0  0  0  0
   46.3630   32.8460   38.7970 C   0  0  0  0  0  0  0  0  0  0  0  0
   45.4390   33.2420   37.8570 C   0  0  0  0  0  0  0  0  0  0  0  0
   45.0060   32.3830   36.8800 C   0  0  0  0  0  0  0  0  0  0  0  0
   45.4900   31.0930   36.8180 C   0  0  0  0  0  0  0  0  0  0  0  0
   46.4000   30.7210   37.7530 C   0  0  0  0  0  0  0  0  0  0  0  0
   46.8820   31.5530   38.7760 C   0  0  0  0  0  0  0  0  0  0  0  0
   47.8850   31.0450   39.7530 C   0  0  0  0  0  0  0  0  0  0  0  0
   49.2030   31.7330   39.7280 C   0  0  0  0  0  0  0  0  0  0  0  0
   47.4040   31.0570   41.1680 C   0  0  0  0  0  0  0  0  0  0  0  0
   48.0120   35.8098   42.7067 H   0  0  0  0  0  0  0  0  0  0  0  0
   49.3291   35.8119   40.6026 H   0  0  0  0  0  0  0  0  0  0  0  0
   43.7586   36.6159   44.9031 H   0  0  0  0  0  0  0  0  0  0  0  0
   44.7955   36.3069   42.5995 H   0  0  0  0  0  0  0  0  0  0  0  0
   47.6188   31.0522   48.5695 H   0  0  0  0  0  0  0  0  0  0  0  0
   45.1551   31.7533   49.4544 H   0  0  0  0  0  0  0  0  0  0  0  0
   44.1160   33.4591   47.6210 H   0  0  0  0  0  0  0  0  0  0  0  0
   45.0405   34.2667   37.8902 H   0  0  0  0  0  0  0  0  0  0  0  0
   44.2673   32.7252   36.1403 H   0  0  0  0  0  0  0  0  0  0  0  0
   45.1512   30.3927   36.0403 H   0  0  0  0  0  0  0  0  0  0  0  0
   46.7883   29.6929   37.7061 H   0  0  0  0  0  0  0  0  0  0  0  0
   48.0236   30.0111   39.4040 H   0  0  0  0  0  0  0  0  0  0  0  0
   49.5435   31.9107   40.7588 H   0  0  0  0  0  0  0  0  0  0  0  0
   49.9359   31.1024   39.2034 H   0  0  0  0  0  0  0  0  0  0  0  0
   49.1047   32.6948   39.2034 H   0  0  0  0  0  0  0  0  0  0  0  0
   48.2676   31.0355   41.8490 H   0  0  0  0  0  0  0  0  0  0  0  0
   46.8176   31.9701   41.3482 H   0  0  0  0  0  0  0  0  0  0  0  0
   46.7728   30.1743   41.3482 H   0  0  0  0  0  0  0  0  0  0  0  0
  1 11  1  0
  2  1  1  0
  3  2  2  0
  4  6  1  0
  4  3  1  0
  5  4  2  0
  6  7  1  0
  7  8  2  0
  7  1  1  0
  9 14  2  0
 10  9  1  0
 11 10  2  0
 11 12  1  0
 12 13  2  0
 13 14  1  0
 13 15  1  0
 15 16  1  0
 15 19  1  0
 16 17  2  0
 17 18  1  0
 19 18  2  0
 20  6  1  0
 21 20  2  0
 22 21  1  0
 23 22  2  0
 23 24  1  0
 24 25  2  0
 25 20  1  0
 25 26  1  0
 26 28  1  0
 27 26  1  0
  2 29  1  0
  3 30  1  0
  9 31  1  0
 10 32  1  0
 17 33  1  0
 18 34  1  0
 19 35  1  0
 21 36  1  0
 22 37  1  0
 23 38  1  0
 24 39  1  0
 26 40  1  0
 27 41  1  0
 27 42  1  0
 27 43  1  0
 28 44  1  0
 28 45  1  0
 28 46  1  0
M  ISO  8  29  14  30  14  31  14  32  14  33  14  34  14  35  14  36  14
M  ISO  8  37  14  38  14  39  14  40   8  41   8  42   8  43   8  44   8
M  ISO  2  45   8  46   8
M  END
>  <minimizedAffinity>  (1) 
-6.5856967

>  <minimizedRMSD>  (1) 
0.173909992

$$$$
