
     RDKit          3D

 35 35  0  0  0  0  0  0  0  0999 V2000
   45.2820   32.3060   37.8420 C   0  0  0  0  0  0  0  0  0  0  0  0
   45.4150   34.2970   40.9030 C   0  0  0  0  0  0  0  0  0  0  0  0
   46.7670   34.5330   41.0900 C   0  0  0  0  0  0  0  0  0  0  0  0
   47.6680   34.0010   40.1570 C   0  0  0  0  0  0  0  0  0  0  0  0
   47.1710   33.2860   39.1260 N   0  0  0  0  0  0  0  0  0  0  0  0
   45.8500   33.0680   38.9630 C   0  0  0  0  0  0  0  0  0  0  0  0
   44.9950   33.5750   39.8510 N   0  0  0  0  0  0  0  0  0  0  0  0
   44.4750   34.8410   41.8650 C   0  0  0  0  0  0  0  0  0  0  0  0
   43.6630   35.7470   41.4980 O   0  0  0  0  0  0  0  0  0  0  0  0
   44.5140   34.3310   43.1740 O   0  0  0  0  0  0  0  0  0  0  0  0
   45.0720   35.1150   44.1880 C   0  0  0  0  0  0  0  0  0  0  0  0
   44.1660   35.4560   45.1770 F   0  0  0  0  0  0  0  0  0  0  0  0
   46.1210   34.4450   44.7820 F   0  0  0  0  0  0  0  0  0  0  0  0
   45.4940   36.2900   43.5850 F   0  0  0  0  0  0  0  0  0  0  0  0
   45.6720   30.8530   37.8620 C   0  0  0  0  0  0  0  0  0  0  0  0
   43.7940   32.4310   37.8430 C   0  0  0  0  0  0  0  0  0  0  0  0
   45.7950   32.9280   36.5720 C   0  0  0  0  0  0  0  0  0  0  0  0
   46.3090   31.8960   35.7120 N   0  0  0  0  0  0  0  0  0  0  0  0
   46.0410   32.1430   34.3100 C   0  0  0  0  0  0  0  0  0  0  0  0
   44.9890   32.8550   33.9790 N   0  0  0  0  0  0  0  0  0  0  0  0
   46.9110   31.6180   33.2800 N   0  0  0  0  0  0  0  0  0  0  0  0
   44.8380   33.0060   32.9610 H   0  0  0  0  0  0  0  0  0  0  0  0
   47.1241   35.1221   41.9476 H   0  0  0  0  0  0  0  0  0  0  0  0
   48.7510   34.1620   40.2625 H   0  0  0  0  0  0  0  0  0  0  0  0
   45.7635   30.5122   38.9039 H   0  0  0  0  0  0  0  0  0  0  0  0
   44.9014   30.2594   37.3484 H   0  0  0  0  0  0  0  0  0  0  0  0
   46.6363   30.7251   37.3484 H   0  0  0  0  0  0  0  0  0  0  0  0
   43.4293   32.4616   38.8803 H   0  0  0  0  0  0  0  0  0  0  0  0
   43.5035   33.3567   37.3247 H   0  0  0  0  0  0  0  0  0  0  0  0
   43.3531   31.5667   37.3247 H   0  0  0  0  0  0  0  0  0  0  0  0
   44.9745   33.4554   36.0635 H   0  0  0  0  0  0  0  0  0  0  0  0
   46.5962   33.6434   36.8092 H   0  0  0  0  0  0  0  0  0  0  0  0
   46.8149   31.0678   36.0570 H   0  0  0  0  0  0  0  0  0  0  0  0
   46.7050   31.8036   32.2880 H   0  0  0  0  0  0  0  0  0  0  0  0
   47.7363   31.0587   33.5387 H   0  0  0  0  0  0  0  0  0  0  0  0
  1 16  1  0
  1 15  1  0
  1  6  1  0
  2  3  2  0
  2  8  1  0
  4  3  1  0
  5  4  2  0
  6  5  1  0
  6  7  2  0
  7  2  1  0
  8 10  1  0
  9  8  2  0
 10 11  1  0
 11 13  1  0
 11 12  1  0
 14 11  1  0
 17  1  1  0
 18 17  1  0
 19 18  1  0
 20 19  2  0
 21 19  1  0
 22 20  1  0
  3 23  1  0
  4 24  1  0
 15 25  1  0
 15 26  1  0
 15 27  1  0
 16 28  1  0
 16 29  1  0
 16 30  1  0
 17 31  1  0
 17 32  1  0
 18 33  1  0
 21 34  1  0
 21 35  1  0
M  ISO  8  23  14  24  14  25   8  26   8  27   8  28   8  29   8  30   8
M  ISO  2  31   8  32   8
M  END
>  <minimizedAffinity>  (1) 
-5.25777054

>  <minimizedRMSD>  (1) 
2.40693593

$$$$
