
     RDKit          3D

 42 44  0  0  0  0  0  0  0  0999 V2000
   46.6160   34.3530   41.9460 N   0  0  0  0  0  0  0  0  0  0  0  0
   47.7320   35.1600   41.8200 C   0  0  0  0  0  0  0  0  0  0  0  0
   48.4380   35.2210   40.6490 C   0  0  0  0  0  0  0  0  0  0  0  0
   47.9910   34.4350   39.5830 C   0  0  0  0  0  0  0  0  0  0  0  0
   48.6180   34.4800   38.5090 O   0  0  0  0  0  0  0  0  0  0  0  0
   46.9030   33.6690   39.7670 N   0  0  0  0  0  0  0  0  0  0  0  0
   46.2300   33.6330   40.9260 C   0  0  0  0  0  0  0  0  0  0  0  0
   45.2430   32.9710   41.1540 O   0  0  0  0  0  0  0  0  0  0  0  0
   46.4160   32.8520   38.7250 C   0  0  0  0  0  0  0  0  0  0  0  0
   45.4610   33.2460   37.8160 C   0  0  0  0  0  0  0  0  0  0  0  0
   45.0320   32.3960   36.8260 C   0  0  0  0  0  0  0  0  0  0  0  0
   45.5510   31.1250   36.7210 C   0  0  0  0  0  0  0  0  0  0  0  0
   46.4910   30.7570   37.6280 C   0  0  0  0  0  0  0  0  0  0  0  0
   46.9780   31.5740   38.6670 C   0  0  0  0  0  0  0  0  0  0  0  0
   48.0100   31.0750   39.6000 C   0  0  0  0  0  0  0  0  0  0  0  0
   49.3060   31.8100   39.5670 C   0  0  0  0  0  0  0  0  0  0  0  0
   47.5630   31.0270   41.0250 C   0  0  0  0  0  0  0  0  0  0  0  0
   44.5810   35.5790   44.7730 C   0  0  0  0  0  0  0  0  0  0  0  0
   45.1230   35.4680   43.4760 C   0  0  0  0  0  0  0  0  0  0  0  0
   46.0630   34.4680   43.2610 C   0  0  0  0  0  0  0  0  0  0  0  0
   46.4250   33.6450   44.2870 N   0  0  0  0  0  0  0  0  0  0  0  0
   45.8680   33.7960   45.5220 C   0  0  0  0  0  0  0  0  0  0  0  0
   44.9700   34.7390   45.7630 N   0  0  0  0  0  0  0  0  0  0  0  0
   46.2820   32.8950   46.5950 C   0  0  0  0  0  0  0  0  0  0  0  0
   45.7120   31.7850   46.7630 O   0  0  0  0  0  0  0  0  0  0  0  0
   47.2990   33.1830   47.4770 O   0  0  0  0  0  0  0  0  0  0  0  0
   48.0589   35.7652   42.6784 H   0  0  0  0  0  0  0  0  0  0  0  0
   49.3245   35.8648   40.5504 H   0  0  0  0  0  0  0  0  0  0  0  0
   45.0344   34.2577   37.8833 H   0  0  0  0  0  0  0  0  0  0  0  0
   44.2673   32.7336   36.1110 H   0  0  0  0  0  0  0  0  0  0  0  0
   45.2167   30.4347   35.9325 H   0  0  0  0  0  0  0  0  0  0  0  0
   46.9050   29.7412   37.5453 H   0  0  0  0  0  0  0  0  0  0  0  0
   48.1729   30.0567   39.2172 H   0  0  0  0  0  0  0  0  0  0  0  0
   49.6448   32.0022   40.5957 H   0  0  0  0  0  0  0  0  0  0  0  0
   50.0580   31.2039   39.0405 H   0  0  0  0  0  0  0  0  0  0  0  0
   49.1718   32.7664   39.0405 H   0  0  0  0  0  0  0  0  0  0  0  0
   48.4367   31.1208   41.6867 H   0  0  0  0  0  0  0  0  0  0  0  0
   46.8657   31.8554   41.2187 H   0  0  0  0  0  0  0  0  0  0  0  0
   47.0575   30.0694   41.2187 H   0  0  0  0  0  0  0  0  0  0  0  0
   43.8329   36.3573   44.9840 H   0  0  0  0  0  0  0  0  0  0  0  0
   44.8139   36.1461   42.6669 H   0  0  0  0  0  0  0  0  0  0  0  0
   47.5377   32.5346   48.1860 H   0  0  0  0  0  0  0  0  0  0  0  0
  1 20  1  0
  2  1  1  0
  3  2  2  0
  4  6  1  0
  4  3  1  0
  5  4  2  0
  6  7  1  0
  7  8  2  0
  7  1  1  0
  9  6  1  0
 10  9  2  0
 11 10  1  0
 12 11  2  0
 12 13  1  0
 13 14  2  0
 14  9  1  0
 14 15  1  0
 15 17  1  0
 16 15  1  0
 18 23  2  0
 19 18  1  0
 20 19  2  0
 20 21  1  0
 21 22  2  0
 22 23  1  0
 22 24  1  0
 24 25  2  0
 24 26  1  0
  2 27  1  0
  3 28  1  0
 10 29  1  0
 11 30  1  0
 12 31  1  0
 13 32  1  0
 15 33  1  0
 16 34  1  0
 16 35  1  0
 16 36  1  0
 17 37  1  0
 17 38  1  0
 17 39  1  0
 18 40  1  0
 19 41  1  0
 26 42  1  0
M  ISO  8  27  14  28  14  29  14  30  14  31  14  32  14  33   8  34   8
M  ISO  8  35   8  36   8  37   8  38   8  39   8  40  14  41  14  42   3
M  END
>  <minimizedAffinity>  (1) 
-6.03998232

>  <minimizedRMSD>  (1) 
0.243206218

$$$$
