
     RDKit          3D

 46 49  0  0  0  0  0  0  0  0999 V2000
   46.4040   34.4050   42.0520 N   0  0  0  0  0  0  0  0  0  0  0  0
   47.5740   35.1320   41.9170 C   0  0  0  0  0  0  0  0  0  0  0  0
   48.3190   35.0740   40.7740 C   0  0  0  0  0  0  0  0  0  0  0  0
   47.8590   34.2510   39.7410 C   0  0  0  0  0  0  0  0  0  0  0  0
   48.5210   34.1860   38.6880 O   0  0  0  0  0  0  0  0  0  0  0  0
   46.7170   33.5690   39.9330 N   0  0  0  0  0  0  0  0  0  0  0  0
   46.0060   33.6460   41.0640 C   0  0  0  0  0  0  0  0  0  0  0  0
   44.9690   33.0630   41.2950 O   0  0  0  0  0  0  0  0  0  0  0  0
   46.2170   32.7130   38.9280 C   0  0  0  0  0  0  0  0  0  0  0  0
   45.3290   33.1020   37.9520 C   0  0  0  0  0  0  0  0  0  0  0  0
   44.8820   32.2130   37.0060 C   0  0  0  0  0  0  0  0  0  0  0  0
   45.3170   30.9040   37.0130 C   0  0  0  0  0  0  0  0  0  0  0  0
   46.1930   30.5390   37.9820 C   0  0  0  0  0  0  0  0  0  0  0  0
   46.6860   31.3970   38.9760 C   0  0  0  0  0  0  0  0  0  0  0  0
   47.6470   30.8970   39.9970 C   0  0  0  0  0  0  0  0  0  0  0  0
   48.9820   31.5410   39.9880 C   0  0  0  0  0  0  0  0  0  0  0  0
   47.1260   30.9730   41.4000 C   0  0  0  0  0  0  0  0  0  0  0  0
   44.4710   36.0260   44.7560 C   0  0  0  0  0  0  0  0  0  0  0  0
   45.0550   35.7780   43.4980 C   0  0  0  0  0  0  0  0  0  0  0  0
   45.8160   34.6400   43.3440 C   0  0  0  0  0  0  0  0  0  0  0  0
   45.9860   33.8000   44.3850 N   0  0  0  0  0  0  0  0  0  0  0  0
   45.4050   34.0730   45.5900 C   0  0  0  0  0  0  0  0  0  0  0  0
   44.6660   35.1550   45.7780 N   0  0  0  0  0  0  0  0  0  0  0  0
   45.6980   33.0370   46.6270 C   0  0  0  0  0  0  0  0  0  0  0  0
   45.3150   32.6780   47.8540 C   0  0  0  0  0  0  0  0  0  0  0  0
   45.8980   31.6060   48.4220 C   0  0  0  0  0  0  0  0  0  0  0  0
   46.8850   30.9250   47.6780 C   0  0  0  0  0  0  0  0  0  0  0  0
   46.9130   31.9530   46.0810 S   0  0  0  0  0  0  0  0  0  0  0  0
   47.9107   35.7697   42.7476 H   0  0  0  0  0  0  0  0  0  0  0  0
   49.2478   35.6539   40.6695 H   0  0  0  0  0  0  0  0  0  0  0  0
   44.9713   34.1420   37.9291 H   0  0  0  0  0  0  0  0  0  0  0  0
   44.1711   32.5474   36.2361 H   0  0  0  0  0  0  0  0  0  0  0  0
   44.9663   30.1826   36.2603 H   0  0  0  0  0  0  0  0  0  0  0  0
   46.5417   29.4957   37.9888 H   0  0  0  0  0  0  0  0  0  0  0  0
   47.7652   29.8488   39.6851 H   0  0  0  0  0  0  0  0  0  0  0  0
   49.3179   31.7030   41.0228 H   0  0  0  0  0  0  0  0  0  0  0  0
   49.6996   30.8900   39.4672 H   0  0  0  0  0  0  0  0  0  0  0  0
   48.9192   32.5079   39.4672 H   0  0  0  0  0  0  0  0  0  0  0  0
   47.9593   30.8514   42.1077 H   0  0  0  0  0  0  0  0  0  0  0  0
   46.6478   31.9504   41.5611 H   0  0  0  0  0  0  0  0  0  0  0  0
   46.3885   30.1729   41.5611 H   0  0  0  0  0  0  0  0  0  0  0  0
   43.8570   36.9257   44.9096 H   0  0  0  0  0  0  0  0  0  0  0  0
   44.9071   36.4753   42.6602 H   0  0  0  0  0  0  0  0  0  0  0  0
   44.5398   33.2458   48.3894 H   0  0  0  0  0  0  0  0  0  0  0  0
   45.6149   31.2723   49.4312 H   0  0  0  0  0  0  0  0  0  0  0  0
   47.4776   30.0389   47.9494 H   0  0  0  0  0  0  0  0  0  0  0  0
  1 20  1  0
  2  1  1  0
  3  2  2  0
  4  6  1  0
  4  3  1  0
  5  4  2  0
  6  7  1  0
  7  8  2  0
  7  1  1  0
  9 14  1  0
  9  6  1  0
 10  9  2  0
 11 12  2  0
 11 10  1  0
 12 13  1  0
 13 14  2  0
 14 15  1  0
 15 17  1  0
 16 15  1  0
 18 23  2  0
 19 18  1  0
 20 19  2  0
 20 21  1  0
 21 22  2  0
 22 23  1  0
 22 24  1  0
 24 25  2  0
 25 26  1  0
 27 26  2  0
 28 24  1  0
 28 27  1  0
  2 29  1  0
  3 30  1  0
 10 31  1  0
 11 32  1  0
 12 33  1  0
 13 34  1  0
 15 35  1  0
 16 36  1  0
 16 37  1  0
 16 38  1  0
 17 39  1  0
 17 40  1  0
 17 41  1  0
 18 42  1  0
 19 43  1  0
 25 44  1  0
 26 45  1  0
 27 46  1  0
M  ISO  8  29  14  30  14  31  14  32  14  33  14  34  14  35   8  36   8
M  ISO  8  37   8  38   8  39   8  40   8  41   8  42  14  43  14  44  14
M  ISO  2  45  14  46  14
M  END
>  <minimizedAffinity>  (1) 
-6.19430256

>  <minimizedRMSD>  (1) 
0.483326733

$$$$
