
     RDKit          3D

 44 46  0  0  0  0  0  0  0  0999 V2000
   47.1920   32.8600   38.2270 C   0  0  0  0  0  0  0  0  0  0  0  0
   46.0970   34.5460   41.2990 C   0  0  0  0  0  0  0  0  0  0  0  0
   47.2870   34.9310   41.8950 C   0  0  0  0  0  0  0  0  0  0  0  0
   48.4940   34.6160   41.2490 C   0  0  0  0  0  0  0  0  0  0  0  0
   48.4220   33.9450   40.0630 N   0  0  0  0  0  0  0  0  0  0  0  0
   47.2210   33.5870   39.5120 C   0  0  0  0  0  0  0  0  0  0  0  0
   46.1070   33.8940   40.1380 N   0  0  0  0  0  0  0  0  0  0  0  0
   44.8480   34.8670   41.9680 C   0  0  0  0  0  0  0  0  0  0  0  0
   43.9780   35.5590   41.3710 O   0  0  0  0  0  0  0  0  0  0  0  0
   44.6550   34.3900   43.2670 O   0  0  0  0  0  0  0  0  0  0  0  0
   45.0340   35.1900   44.3510 C   0  0  0  0  0  0  0  0  0  0  0  0
   44.0410   35.3410   45.3010 F   0  0  0  0  0  0  0  0  0  0  0  0
   46.1400   34.6540   44.9730 F   0  0  0  0  0  0  0  0  0  0  0  0
   45.3000   36.4510   43.8270 F   0  0  0  0  0  0  0  0  0  0  0  0
   47.3430   31.3940   38.3450 C   0  0  0  0  0  0  0  0  0  0  0  0
   45.8310   33.1480   37.6030 C   0  0  0  0  0  0  0  0  0  0  0  0
   48.2010   33.5010   37.3120 C   0  0  0  0  0  0  0  0  0  0  0  0
   49.0810   32.4940   36.7030 C   0  0  0  0  0  0  0  0  0  0  0  0
   50.1840   32.0490   37.4470 C   0  0  0  0  0  0  0  0  0  0  0  0
   51.1330   31.1630   36.9840 C   0  0  0  0  0  0  0  0  0  0  0  0
   51.0100   30.6680   35.7040 C   0  0  0  0  0  0  0  0  0  0  0  0
   49.9530   31.0580   34.9110 C   0  0  0  0  0  0  0  0  0  0  0  0
   49.7680   30.5730   33.6340 C   0  0  0  0  0  0  0  0  0  0  0  0
   48.6870   30.9350   32.8280 C   0  0  0  0  0  0  0  0  0  0  0  0
   47.7740   31.8350   33.3880 C   0  0  0  0  0  0  0  0  0  0  0  0
   47.9810   32.2980   34.6500 C   0  0  0  0  0  0  0  0  0  0  0  0
   49.0510   31.9400   35.4430 C   0  0  0  0  0  0  0  0  0  0  0  0
   47.2867   35.4715   42.8531 H   0  0  0  0  0  0  0  0  0  0  0  0
   49.4635   34.9004   41.6841 H   0  0  0  0  0  0  0  0  0  0  0  0
   47.3720   31.1128   39.4080 H   0  0  0  0  0  0  0  0  0  0  0  0
   46.4913   30.8972   37.8574 H   0  0  0  0  0  0  0  0  0  0  0  0
   48.2781   31.0813   37.8574 H   0  0  0  0  0  0  0  0  0  0  0  0
   45.0884   33.3051   38.3992 H   0  0  0  0  0  0  0  0  0  0  0  0
   45.8973   34.0520   36.9798 H   0  0  0  0  0  0  0  0  0  0  0  0
   45.5254   32.2946   36.9798 H   0  0  0  0  0  0  0  0  0  0  0  0
   47.6699   34.0424   36.5152 H   0  0  0  0  0  0  0  0  0  0  0  0
   48.8193   34.1915   37.9044 H   0  0  0  0  0  0  0  0  0  0  0  0
   50.2995   32.4339   38.4710 H   0  0  0  0  0  0  0  0  0  0  0  0
   51.9731   30.8567   37.6246 H   0  0  0  0  0  0  0  0  0  0  0  0
   51.7568   29.9604   35.3147 H   0  0  0  0  0  0  0  0  0  0  0  0
   50.5081   29.8664   33.2304 H   0  0  0  0  0  0  0  0  0  0  0  0
   48.5604   30.5355   31.8110 H   0  0  0  0  0  0  0  0  0  0  0  0
   46.8965   32.1653   32.8128 H   0  0  0  0  0  0  0  0  0  0  0  0
   47.2470   33.0042   35.0653 H   0  0  0  0  0  0  0  0  0  0  0  0
  1 15  1  0
  1  6  1  0
  2  3  2  0
  2  8  1  0
  4  3  1  0
  5  4  2  0
  6  5  1  0
  6  7  2  0
  7  2  1  0
  8 10  1  0
  9  8  2  0
 10 11  1  0
 11 13  1  0
 11 12  1  0
 14 11  1  0
 16  1  1  0
 17  1  1  0
 18 17  1  0
 18 19  2  0
 20 19  1  0
 21 20  2  0
 22 27  2  0
 22 21  1  0
 23 22  1  0
 24 25  1  0
 24 23  2  0
 25 26  2  0
 26 27  1  0
 27 18  1  0
  3 28  1  0
  4 29  1  0
 15 30  1  0
 15 31  1  0
 15 32  1  0
 16 33  1  0
 16 34  1  0
 16 35  1  0
 17 36  1  0
 17 37  1  0
 19 38  1  0
 20 39  1  0
 21 40  1  0
 23 41  1  0
 24 42  1  0
 25 43  1  0
 26 44  1  0
M  ISO  8  28  14  29  14  30   8  31   8  32   8  33   8  34   8  35   8
M  ISO  8  36   8  37   8  38  14  39  14  40  14  41  14  42  14  43  14
M  ISO  1  44  14
M  END
>  <minimizedAffinity>  (1) 
-5.11452341

>  <minimizedRMSD>  (1) 
2.59819365

$$$$
