
     RDKit          3D

 40 42  0  0  0  0  0  0  0  0999 V2000
   46.5200   34.4540   41.9750 N   0  0  0  0  0  0  0  0  0  0  0  0
   47.6710   35.2100   41.8660 C   0  0  0  0  0  0  0  0  0  0  0  0
   48.4150   35.2050   40.7180 C   0  0  0  0  0  0  0  0  0  0  0  0
   47.9710   34.4080   39.6610 C   0  0  0  0  0  0  0  0  0  0  0  0
   48.6350   34.3950   38.6080 O   0  0  0  0  0  0  0  0  0  0  0  0
   46.8450   33.6940   39.8310 N   0  0  0  0  0  0  0  0  0  0  0  0
   46.1340   33.7190   40.9650 C   0  0  0  0  0  0  0  0  0  0  0  0
   45.1110   33.1060   41.1760 O   0  0  0  0  0  0  0  0  0  0  0  0
   46.3600   32.8670   38.7950 C   0  0  0  0  0  0  0  0  0  0  0  0
   45.4430   33.2830   37.8490 C   0  0  0  0  0  0  0  0  0  0  0  0
   45.0170   32.4200   36.8640 C   0  0  0  0  0  0  0  0  0  0  0  0
   45.4940   31.1280   36.8040 C   0  0  0  0  0  0  0  0  0  0  0  0
   46.3930   30.7470   37.7480 C   0  0  0  0  0  0  0  0  0  0  0  0
   46.8710   31.5730   38.7770 C   0  0  0  0  0  0  0  0  0  0  0  0
   47.8610   31.0560   39.7580 C   0  0  0  0  0  0  0  0  0  0  0  0
   49.1920   31.7280   39.7330 C   0  0  0  0  0  0  0  0  0  0  0  0
   47.3860   31.0870   41.1740 C   0  0  0  0  0  0  0  0  0  0  0  0
   44.5110   35.9000   44.7200 C   0  0  0  0  0  0  0  0  0  0  0  0
   45.0960   35.7330   43.4440 C   0  0  0  0  0  0  0  0  0  0  0  0
   45.9260   34.6290   43.2690 C   0  0  0  0  0  0  0  0  0  0  0  0
   46.1420   33.7700   44.3040 N   0  0  0  0  0  0  0  0  0  0  0  0
   45.5520   33.9790   45.5140 C   0  0  0  0  0  0  0  0  0  0  0  0
   44.7560   35.0220   45.7160 N   0  0  0  0  0  0  0  0  0  0  0  0
   45.9250   32.9720   46.4000 O   0  0  0  0  0  0  0  0  0  0  0  0
   47.9950   35.8268   42.7172 H   0  0  0  0  0  0  0  0  0  0  0  0
   49.3310   35.8078   40.6307 H   0  0  0  0  0  0  0  0  0  0  0  0
   45.0507   34.3101   37.8828 H   0  0  0  0  0  0  0  0  0  0  0  0
   44.2877   32.7656   36.1165 H   0  0  0  0  0  0  0  0  0  0  0  0
   45.1591   30.4318   36.0210 H   0  0  0  0  0  0  0  0  0  0  0  0
   46.7742   29.7161   37.7028 H   0  0  0  0  0  0  0  0  0  0  0  0
   47.9769   30.0175   39.4142 H   0  0  0  0  0  0  0  0  0  0  0  0
   49.5348   31.9011   40.7638 H   0  0  0  0  0  0  0  0  0  0  0  0
   49.9163   31.0876   39.2084 H   0  0  0  0  0  0  0  0  0  0  0  0
   49.1067   32.6911   39.2084 H   0  0  0  0  0  0  0  0  0  0  0  0
   48.2504   31.0306   41.8520 H   0  0  0  0  0  0  0  0  0  0  0  0
   46.8374   32.0229   41.3563 H   0  0  0  0  0  0  0  0  0  0  0  0
   46.7204   30.2304   41.3563 H   0  0  0  0  0  0  0  0  0  0  0  0
   43.8468   36.7573   44.9040 H   0  0  0  0  0  0  0  0  0  0  0  0
   44.9041   36.4433   42.6263 H   0  0  0  0  0  0  0  0  0  0  0  0
   45.5805   32.9766   47.3281 H   0  0  0  0  0  0  0  0  0  0  0  0
  1 20  1  0
  2  1  1  0
  3  2  2  0
  4  6  1  0
  4  3  1  0
  5  4  2  0
  6  7  1  0
  7  8  2  0
  7  1  1  0
  9  6  1  0
 10  9  2  0
 11 10  1  0
 12 11  2  0
 12 13  1  0
 13 14  2  0
 14  9  1  0
 14 15  1  0
 15 17  1  0
 16 15  1  0
 18 23  2  0
 19 18  1  0
 20 19  2  0
 20 21  1  0
 21 22  2  0
 22 23  1  0
 22 24  1  0
  2 25  1  0
  3 26  1  0
 10 27  1  0
 11 28  1  0
 12 29  1  0
 13 30  1  0
 15 31  1  0
 16 32  1  0
 16 33  1  0
 16 34  1  0
 17 35  1  0
 17 36  1  0
 17 37  1  0
 18 38  1  0
 19 39  1  0
 24 40  1  0
M  ISO  8  25  14  26  14  27  14  28  14  29  14  30  14  31   8  32   8
M  ISO  8  33   8  34   8  35   8  36   8  37   8  38  14  39  14  40   3
M  END
>  <minimizedAffinity>  (1) 
-5.42402172

>  <minimizedRMSD>  (1) 
0.0788099095

$$$$
