
     RDKit          3D

 45 47  0  0  0  0  0  0  0  0999 V2000
   46.6270   34.3440   41.9570 N   0  0  0  0  0  0  0  0  0  0  0  0
   47.7340   35.1500   41.8310 C   0  0  0  0  0  0  0  0  0  0  0  0
   48.4350   35.2200   40.6610 C   0  0  0  0  0  0  0  0  0  0  0  0
   47.9860   34.4390   39.5920 C   0  0  0  0  0  0  0  0  0  0  0  0
   48.6050   34.4890   38.5150 O   0  0  0  0  0  0  0  0  0  0  0  0
   46.8970   33.6700   39.7760 N   0  0  0  0  0  0  0  0  0  0  0  0
   46.2300   33.6250   40.9370 C   0  0  0  0  0  0  0  0  0  0  0  0
   45.2430   32.9600   41.1650 O   0  0  0  0  0  0  0  0  0  0  0  0
   46.4110   32.8540   38.7340 C   0  0  0  0  0  0  0  0  0  0  0  0
   45.4530   33.2510   37.8300 C   0  0  0  0  0  0  0  0  0  0  0  0
   45.0250   32.4010   36.8350 C   0  0  0  0  0  0  0  0  0  0  0  0
   45.5490   31.1300   36.7240 C   0  0  0  0  0  0  0  0  0  0  0  0
   46.4920   30.7630   37.6280 C   0  0  0  0  0  0  0  0  0  0  0  0
   46.9720   31.5790   38.6650 C   0  0  0  0  0  0  0  0  0  0  0  0
   48.0140   31.0780   39.5980 C   0  0  0  0  0  0  0  0  0  0  0  0
   49.3070   31.8140   39.5620 C   0  0  0  0  0  0  0  0  0  0  0  0
   47.5710   31.0280   41.0250 C   0  0  0  0  0  0  0  0  0  0  0  0
   44.6070   35.5800   44.8050 C   0  0  0  0  0  0  0  0  0  0  0  0
   45.1550   35.4770   43.4990 C   0  0  0  0  0  0  0  0  0  0  0  0
   46.0710   34.4490   43.2840 C   0  0  0  0  0  0  0  0  0  0  0  0
   46.4050   33.6020   44.2920 N   0  0  0  0  0  0  0  0  0  0  0  0
   45.8440   33.7530   45.5250 C   0  0  0  0  0  0  0  0  0  0  0  0
   44.9690   34.7150   45.7740 N   0  0  0  0  0  0  0  0  0  0  0  0
   46.2210   32.8170   46.6180 C   0  0  0  0  0  0  0  0  0  0  0  0
   45.1880   32.8080   47.7230 C   0  0  0  0  0  0  0  0  0  0  0  0
   48.0621   35.7516   42.6915 H   0  0  0  0  0  0  0  0  0  0  0  0
   49.3196   35.8665   40.5635 H   0  0  0  0  0  0  0  0  0  0  0  0
   45.0232   34.2609   37.9031 H   0  0  0  0  0  0  0  0  0  0  0  0
   44.2583   32.7386   36.1222 H   0  0  0  0  0  0  0  0  0  0  0  0
   45.2156   30.4411   35.9339 H   0  0  0  0  0  0  0  0  0  0  0  0
   46.9120   29.7500   37.5420 H   0  0  0  0  0  0  0  0  0  0  0  0
   48.1782   30.0608   39.2128 H   0  0  0  0  0  0  0  0  0  0  0  0
   49.6474   32.0077   40.5899 H   0  0  0  0  0  0  0  0  0  0  0  0
   50.0590   31.2086   39.0347 H   0  0  0  0  0  0  0  0  0  0  0  0
   49.1704   32.7697   39.0347 H   0  0  0  0  0  0  0  0  0  0  0  0
   48.4460   31.1268   41.6842 H   0  0  0  0  0  0  0  0  0  0  0  0
   46.8698   31.8527   41.2204 H   0  0  0  0  0  0  0  0  0  0  0  0
   47.0712   30.0677   41.2204 H   0  0  0  0  0  0  0  0  0  0  0  0
   43.8793   36.3740   45.0286 H   0  0  0  0  0  0  0  0  0  0  0  0
   44.8706   36.1740   42.6969 H   0  0  0  0  0  0  0  0  0  0  0  0
   46.3100   31.8018   46.2040 H   0  0  0  0  0  0  0  0  0  0  0  0
   47.1782   33.1523   47.0439 H   0  0  0  0  0  0  0  0  0  0  0  0
   45.6952   32.8124   48.6991 H   0  0  0  0  0  0  0  0  0  0  0  0
   44.5510   33.7006   47.6367 H   0  0  0  0  0  0  0  0  0  0  0  0
   44.5666   31.9044   47.6367 H   0  0  0  0  0  0  0  0  0  0  0  0
  1 20  1  0
  2  1  1  0
  3  2  2  0
  4  6  1  0
  4  3  1  0
  5  4  2  0
  6  7  1  0
  7  8  2  0
  7  1  1  0
  9  6  1  0
 10  9  2  0
 11 10  1  0
 12 11  2  0
 12 13  1  0
 13 14  2  0
 14  9  1  0
 14 15  1  0
 15 17  1  0
 16 15  1  0
 18 23  2  0
 19 18  1  0
 20 19  2  0
 20 21  1  0
 21 22  2  0
 22 23  1  0
 22 24  1  0
 24 25  1  0
  2 26  1  0
  3 27  1  0
 10 28  1  0
 11 29  1  0
 12 30  1  0
 13 31  1  0
 15 32  1  0
 16 33  1  0
 16 34  1  0
 16 35  1  0
 17 36  1  0
 17 37  1  0
 17 38  1  0
 18 39  1  0
 19 40  1  0
 24 41  1  0
 24 42  1  0
 25 43  1  0
 25 44  1  0
 25 45  1  0
M  ISO  8  26  14  27  14  28  14  29  14  30  14  31  14  32   8  33   8
M  ISO  8  34   8  35   8  36   8  37   8  38   8  39  14  40  14  41   8
M  ISO  4  42   8  43   8  44   8  45   8
M  END
>  <minimizedAffinity>  (1) 
-5.52118778

>  <minimizedRMSD>  (1) 
0.266876668

$$$$
