
     RDKit          3D

 42 44  0  0  0  0  0  0  0  0999 V2000
   46.9530   32.8570   38.2630 C   0  0  0  0  0  0  0  0  0  0  0  0
   45.9830   34.5810   41.3570 C   0  0  0  0  0  0  0  0  0  0  0  0
   47.1790   35.0870   41.8380 C   0  0  0  0  0  0  0  0  0  0  0  0
   48.3520   34.8310   41.1000 C   0  0  0  0  0  0  0  0  0  0  0  0
   48.2340   34.1060   39.9670 N   0  0  0  0  0  0  0  0  0  0  0  0
   47.0630   33.6270   39.5210 C   0  0  0  0  0  0  0  0  0  0  0  0
   45.9590   33.8730   40.2260 N   0  0  0  0  0  0  0  0  0  0  0  0
   44.7590   34.8330   42.1070 C   0  0  0  0  0  0  0  0  0  0  0  0
   43.8420   35.5310   41.5990 O   0  0  0  0  0  0  0  0  0  0  0  0
   44.6650   34.2650   43.3980 O   0  0  0  0  0  0  0  0  0  0  0  0
   45.1210   35.0080   44.4960 C   0  0  0  0  0  0  0  0  0  0  0  0
   44.2410   34.9950   45.5630 F   0  0  0  0  0  0  0  0  0  0  0  0
   46.3490   34.5270   44.9240 F   0  0  0  0  0  0  0  0  0  0  0  0
   45.2270   36.3270   44.0610 F   0  0  0  0  0  0  0  0  0  0  0  0
   47.0860   31.3840   38.4850 C   0  0  0  0  0  0  0  0  0  0  0  0
   45.5920   33.1170   37.6620 C   0  0  0  0  0  0  0  0  0  0  0  0
   47.9550   33.4070   37.2960 C   0  0  0  0  0  0  0  0  0  0  0  0
   48.9990   32.5540   36.7740 C   0  0  0  0  0  0  0  0  0  0  0  0
   50.0940   32.1600   37.4480 N   0  0  0  0  0  0  0  0  0  0  0  0
   50.9990   31.3240   36.9290 C   0  0  0  0  0  0  0  0  0  0  0  0
   50.9010   30.7960   35.6800 N   0  0  0  0  0  0  0  0  0  0  0  0
   49.8190   31.1410   34.9140 C   0  0  0  0  0  0  0  0  0  0  0  0
   49.7900   30.6020   33.6490 C   0  0  0  0  0  0  0  0  0  0  0  0
   48.7130   30.9930   32.8790 C   0  0  0  0  0  0  0  0  0  0  0  0
   47.7420   31.8540   33.3370 C   0  0  0  0  0  0  0  0  0  0  0  0
   47.8860   32.3250   34.6270 C   0  0  0  0  0  0  0  0  0  0  0  0
   48.9140   32.0070   35.4940 C   0  0  0  0  0  0  0  0  0  0  0  0
   47.2125   35.6718   42.7691 H   0  0  0  0  0  0  0  0  0  0  0  0
   49.3293   35.2085   41.4352 H   0  0  0  0  0  0  0  0  0  0  0  0
   47.1048   31.1762   39.5650 H   0  0  0  0  0  0  0  0  0  0  0  0
   46.2310   30.8654   38.0266 H   0  0  0  0  0  0  0  0  0  0  0  0
   48.0200   31.0270   38.0266 H   0  0  0  0  0  0  0  0  0  0  0  0
   44.8562   33.2576   38.4675 H   0  0  0  0  0  0  0  0  0  0  0  0
   45.6328   34.0236   37.0404 H   0  0  0  0  0  0  0  0  0  0  0  0
   45.2957   32.2592   37.0404 H   0  0  0  0  0  0  0  0  0  0  0  0
   47.3887   33.7818   36.4306 H   0  0  0  0  0  0  0  0  0  0  0  0
   48.5076   34.1447   37.8964 H   0  0  0  0  0  0  0  0  0  0  0  0
   51.8682   31.0490   37.5446 H   0  0  0  0  0  0  0  0  0  0  0  0
   50.5643   29.9134   33.2798 H   0  0  0  0  0  0  0  0  0  0  0  0
   48.6273   30.5995   31.8554 H   0  0  0  0  0  0  0  0  0  0  0  0
   46.8921   32.1526   32.7058 H   0  0  0  0  0  0  0  0  0  0  0  0
   47.1135   33.0149   34.9976 H   0  0  0  0  0  0  0  0  0  0  0  0
  1 15  1  0
  1  6  1  0
  2  3  2  0
  2  8  1  0
  4  3  1  0
  5  4  2  0
  6  5  1  0
  6  7  2  0
  7  2  1  0
  8 10  1  0
  9  8  2  0
 10 11  1  0
 11 13  1  0
 11 12  1  0
 14 11  1  0
 16  1  1  0
 17  1  1  0
 18 17  1  0
 18 19  2  0
 20 19  1  0
 21 20  2  0
 22 27  2  0
 22 21  1  0
 23 22  1  0
 24 25  1  0
 24 23  2  0
 25 26  2  0
 26 27  1  0
 27 18  1  0
  3 28  1  0
  4 29  1  0
 15 30  1  0
 15 31  1  0
 15 32  1  0
 16 33  1  0
 16 34  1  0
 16 35  1  0
 17 36  1  0
 17 37  1  0
 20 38  1  0
 23 39  1  0
 24 40  1  0
 25 41  1  0
 26 42  1  0
M  ISO  8  28  14  29  14  30   8  31   8  32   8  33   8  34   8  35   8
M  ISO  7  36   8  37   8  38  14  39  14  40  14  41  14  42  14
M  END
>  <minimizedAffinity>  (1) 
-5.09970522

>  <minimizedRMSD>  (1) 
2.04631162

$$$$
