
     RDKit          3D

 39 41  0  0  0  0  0  0  0  0999 V2000
   46.5080   32.3370   37.8520 C   0  0  0  0  0  0  0  0  0  0  0  0
   45.9460   34.2930   40.8990 C   0  0  0  0  0  0  0  0  0  0  0  0
   47.2110   34.6870   41.2770 C   0  0  0  0  0  0  0  0  0  0  0  0
   48.3110   34.2880   40.4850 C   0  0  0  0  0  0  0  0  0  0  0  0
   48.0510   33.5290   39.3850 N   0  0  0  0  0  0  0  0  0  0  0  0
   46.7800   33.1570   39.0420 C   0  0  0  0  0  0  0  0  0  0  0  0
   45.7660   33.5420   39.7980 N   0  0  0  0  0  0  0  0  0  0  0  0
   44.8270   34.7010   41.7080 C   0  0  0  0  0  0  0  0  0  0  0  0
   43.8560   35.3300   41.1790 O   0  0  0  0  0  0  0  0  0  0  0  0
   44.8450   34.3870   43.0750 O   0  0  0  0  0  0  0  0  0  0  0  0
   44.7530   35.4260   44.0100 C   0  0  0  0  0  0  0  0  0  0  0  0
   43.4480   35.8560   44.2060 F   0  0  0  0  0  0  0  0  0  0  0  0
   45.2630   35.0090   45.2240 F   0  0  0  0  0  0  0  0  0  0  0  0
   45.4740   36.4860   43.4920 F   0  0  0  0  0  0  0  0  0  0  0  0
   45.6570   31.1500   38.1110 C   0  0  0  0  0  0  0  0  0  0  0  0
   45.8650   33.2070   36.8130 C   0  0  0  0  0  0  0  0  0  0  0  0
   47.8540   31.9040   37.3010 C   0  0  0  0  0  0  0  0  0  0  0  0
   47.7080   31.2600   36.0100 N   0  0  0  0  0  0  0  0  0  0  0  0
   47.1660   30.0400   35.8420 C   0  0  0  0  0  0  0  0  0  0  0  0
   47.1760   29.7250   34.5150 N   0  0  0  0  0  0  0  0  0  0  0  0
   47.7260   30.7460   33.8230 C   0  0  0  0  0  0  0  0  0  0  0  0
   48.0130   31.0360   32.4990 C   0  0  0  0  0  0  0  0  0  0  0  0
   48.5970   32.2130   32.1430 N   0  0  0  0  0  0  0  0  0  0  0  0
   48.9110   33.1350   33.0960 C   0  0  0  0  0  0  0  0  0  0  0  0
   48.6290   32.8520   34.3930 N   0  0  0  0  0  0  0  0  0  0  0  0
   48.0580   31.7050   34.7680 C   0  0  0  0  0  0  0  0  0  0  0  0
   47.3616   35.3002   42.1777 H   0  0  0  0  0  0  0  0  0  0  0  0
   49.3387   34.5796   40.7473 H   0  0  0  0  0  0  0  0  0  0  0  0
   45.5522   31.0038   39.1962 H   0  0  0  0  0  0  0  0  0  0  0  0
   44.6639   31.3063   37.6644 H   0  0  0  0  0  0  0  0  0  0  0  0
   46.1238   30.2597   37.6644 H   0  0  0  0  0  0  0  0  0  0  0  0
   45.2808   33.9974   37.3070 H   0  0  0  0  0  0  0  0  0  0  0  0
   46.6436   33.6646   36.1850 H   0  0  0  0  0  0  0  0  0  0  0  0
   45.1990   32.5970   36.1850 H   0  0  0  0  0  0  0  0  0  0  0  0
   48.4981   32.7888   37.1901 H   0  0  0  0  0  0  0  0  0  0  0  0
   48.3025   31.1840   38.0014 H   0  0  0  0  0  0  0  0  0  0  0  0
   46.7768   29.3988   36.6467 H   0  0  0  0  0  0  0  0  0  0  0  0
   47.7640   30.3005   31.7199 H   0  0  0  0  0  0  0  0  0  0  0  0
   49.3834   34.0892   32.8197 H   0  0  0  0  0  0  0  0  0  0  0  0
  1 15  1  0
  1  6  1  0
  2  3  2  0
  2  8  1  0
  4  3  1  0
  5  4  2  0
  6  5  1  0
  6  7  2  0
  7  2  1  0
  8 10  1  0
  9  8  2  0
 10 11  1  0
 11 12  1  0
 11 13  1  0
 14 11  1  0
 16  1  1  0
 17  1  1  0
 18 17  1  0
 19 18  1  0
 20 19  2  0
 21 20  1  0
 21 26  2  0
 22 21  1  0
 23 22  2  0
 23 24  1  0
 24 25  2  0
 25 26  1  0
 26 18  1  0
  3 27  1  0
  4 28  1  0
 15 29  1  0
 15 30  1  0
 15 31  1  0
 16 32  1  0
 16 33  1  0
 16 34  1  0
 17 35  1  0
 17 36  1  0
 19 37  1  0
 22 38  1  0
 24 39  1  0
M  ISO  8  27  14  28  14  29   8  30   8  31   8  32   8  33   8  34   8
M  ISO  5  35   8  36   8  37  14  38  14  39  14
M  END
>  <minimizedAffinity>  (1) 
-5.03926277

>  <minimizedRMSD>  (1) 
1.25467575

$$$$
