
     RDKit          3D

 47 50  0  0  1  0  0  0  0  0999 V2000
   46.4410   33.8580   42.2890 N   0  0  0  0  0  0  0  0  0  0  0  0
   47.7560   34.1680   41.7410 C   0  0  0  0  0  0  0  0  0  0  0  0
   47.3850   34.4260   40.2980 C   0  0  0  0  0  0  0  0  0  0  0  0
   46.5470   33.1990   40.0100 C   0  0  0  0  0  0  0  0  0  0  0  0
   45.7600   33.0440   41.2720 C   0  0  2  0  0  0  0  0  0  0  0  0
   44.5930   35.6850   44.9460 C   0  0  0  0  0  0  0  0  0  0  0  0
   45.1190   35.3820   43.6790 C   0  0  0  0  0  0  0  0  0  0  0  0
   45.8870   34.2250   43.5130 C   0  0  0  0  0  0  0  0  0  0  0  0
   46.0710   33.4590   44.6210 N   0  0  0  0  0  0  0  0  0  0  0  0
   45.5670   33.7480   45.8380 C   0  0  0  0  0  0  0  0  0  0  0  0
   44.8300   34.8640   45.9840 N   0  0  0  0  0  0  0  0  0  0  0  0
   45.8240   32.8830   46.9070 N   0  0  0  0  0  0  0  0  0  0  0  0
   44.9450   32.6640   48.0400 C   0  0  0  0  0  0  0  0  0  0  0  0
   45.7030   31.7080   48.9320 C   0  0  0  0  0  0  0  0  0  0  0  0
   47.1460   32.0820   48.5800 C   0  0  0  0  0  0  0  0  0  0  0  0
   47.0290   32.0570   47.0500 C   0  0  0  0  0  0  0  0  0  0  0  0
   44.3630   33.2600   41.1870 N   0  0  0  0  0  0  0  0  0  0  0  0
   43.7360   34.2100   40.4870 C   0  0  0  0  0  0  0  0  0  0  0  0
   42.3550   34.3420   40.4660 C   0  0  0  0  0  0  0  0  0  0  0  0
   41.5740   33.4630   41.1970 C   0  0  0  0  0  0  0  0  0  0  0  0
   40.2970   33.5290   41.2200 O   0  0  0  0  0  0  0  0  0  0  0  0
   42.2120   32.5150   41.8960 N   0  0  0  0  0  0  0  0  0  0  0  0
   43.5420   32.4300   41.8820 C   0  0  0  0  0  0  0  0  0  0  0  0
   44.0490   31.4940   42.5800 O   0  0  0  0  0  0  0  0  0  0  0  0
   41.6760   35.3950   39.6880 C   0  0  0  0  0  0  0  0  0  0  0  0
   48.1962   35.0578   42.2147 H   0  0  0  0  0  0  0  0  0  0  0  0
   48.5163   33.3875   41.8914 H   0  0  0  0  0  0  0  0  0  0  0  0
   46.8019   35.3521   40.1871 H   0  0  0  0  0  0  0  0  0  0  0  0
   48.2405   34.5682   39.6213 H   0  0  0  0  0  0  0  0  0  0  0  0
   45.8858   33.3625   39.1462 H   0  0  0  0  0  0  0  0  0  0  0  0
   47.1424   32.3109   39.7516 H   0  0  0  0  0  0  0  0  0  0  0  0
   45.7559   31.9799   41.5507 H   0  0  0  0  0  0  0  0  0  0  0  0
   43.9881   36.5926   45.0886 H   0  0  0  0  0  0  0  0  0  0  0  0
   44.9285   36.0488   42.8251 H   0  0  0  0  0  0  0  0  0  0  0  0
   44.7456   33.6097   48.5652 H   0  0  0  0  0  0  0  0  0  0  0  0
   43.9660   32.2643   47.7371 H   0  0  0  0  0  0  0  0  0  0  0  0
   45.4853   31.8858   49.9955 H   0  0  0  0  0  0  0  0  0  0  0  0
   45.4550   30.6469   48.7820 H   0  0  0  0  0  0  0  0  0  0  0  0
   47.4183   33.0787   48.9574 H   0  0  0  0  0  0  0  0  0  0  0  0
   47.9230   31.4312   49.0075 H   0  0  0  0  0  0  0  0  0  0  0  0
   46.8807   31.0381   46.6628 H   0  0  0  0  0  0  0  0  0  0  0  0
   47.9144   32.4066   46.4987 H   0  0  0  0  0  0  0  0  0  0  0  0
   44.3411   34.9182   39.9019 H   0  0  0  0  0  0  0  0  0  0  0  0
   41.6665   31.8416   42.4527 H   0  0  0  0  0  0  0  0  0  0  0  0
   41.2107   36.1166   40.3756 H   0  0  0  0  0  0  0  0  0  0  0  0
   42.4103   35.9136   39.0540 H   0  0  0  0  0  0  0  0  0  0  0  0
   40.9006   34.9402   39.0540 H   0  0  0  0  0  0  0  0  0  0  0  0
  1  8  1  0
  2  1  1  0
  3  2  1  0
  4  3  1  0
  4  5  1  0
  5  1  1  0
  6 11  2  0
  7  6  1  0
  8  7  2  0
  8  9  1  0
  9 10  2  0
 10 11  1  0
 10 12  1  0
 12 16  1  0
 12 13  1  0
 13 14  1  0
 15 14  1  0
 16 15  1  0
 17  5  1  0
 17 23  1  0
 18 17  1  0
 19 18  2  0
 19 20  1  0
 20 21  2  0
 20 22  1  0
 23 22  1  0
 23 24  2  0
 25 19  1  0
  2 26  1  0
  2 27  1  0
  3 28  1  0
  3 29  1  0
  4 30  1  0
  4 31  1  0
  5 32  1  1
  6 33  1  0
  7 34  1  0
 13 35  1  0
 13 36  1  0
 14 37  1  0
 14 38  1  0
 15 39  1  0
 15 40  1  0
 16 41  1  0
 16 42  1  0
 18 43  1  0
 22 44  1  0
 25 45  1  0
 25 46  1  0
 25 47  1  0
M  ISO  8  26  13  27  13  28  13  29  13  30  13  31  13  32  13  33  14
M  ISO  8  34  14  35  13  36  13  37  13  38  13  39  13  40  13  41  13
M  ISO  6  42  13  43  14  44   9  45   8  46   8  47   8
M  END
>  <minimizedAffinity>  (1) 
-6.89659071

>  <minimizedRMSD>  (1) 
0.444561839

$$$$
