
     RDKit          3D

 43 46  0  0  1  0  0  0  0  0999 V2000
   46.6950   33.9590   42.5260 N   0  0  0  0  0  0  0  0  0  0  0  0
   48.0150   34.3670   42.0550 C   0  0  0  0  0  0  0  0  0  0  0  0
   47.6920   34.6870   40.6080 C   0  0  0  0  0  0  0  0  0  0  0  0
   46.9420   33.4350   40.2230 C   0  0  0  0  0  0  0  0  0  0  0  0
   46.1130   33.1610   41.4360 C   0  0  2  0  0  0  0  0  0  0  0  0
   44.7160   33.3080   41.2870 N   0  0  0  0  0  0  0  0  0  0  0  0
   44.0580   34.2340   40.5850 C   0  0  0  0  0  0  0  0  0  0  0  0
   42.6780   34.2870   40.5080 C   0  0  0  0  0  0  0  0  0  0  0  0
   41.9150   33.3460   41.1800 C   0  0  0  0  0  0  0  0  0  0  0  0
   40.6420   33.3410   41.1470 O   0  0  0  0  0  0  0  0  0  0  0  0
   42.5840   32.4170   41.8840 N   0  0  0  0  0  0  0  0  0  0  0  0
   43.9070   32.4110   41.9260 C   0  0  0  0  0  0  0  0  0  0  0  0
   44.4350   31.4860   42.6230 O   0  0  0  0  0  0  0  0  0  0  0  0
   41.9720   35.3200   39.7260 C   0  0  0  0  0  0  0  0  0  0  0  0
   44.5790   35.5270   45.1430 C   0  0  0  0  0  0  0  0  0  0  0  0
   45.1780   35.3130   43.8930 C   0  0  0  0  0  0  0  0  0  0  0  0
   46.0650   34.2330   43.7330 C   0  0  0  0  0  0  0  0  0  0  0  0
   46.2810   33.4550   44.8300 N   0  0  0  0  0  0  0  0  0  0  0  0
   45.7000   33.6680   46.0270 C   0  0  0  0  0  0  0  0  0  0  0  0
   44.8580   34.6990   46.1720 N   0  0  0  0  0  0  0  0  0  0  0  0
   45.9810   32.7910   47.1590 C   0  0  0  0  0  0  0  0  0  0  0  0
   45.0020   32.3150   47.9800 C   0  0  0  0  0  0  0  0  0  0  0  0
   45.3460   31.4910   49.0270 C   0  0  0  0  0  0  0  0  0  0  0  0
   46.6350   31.1610   49.2380 N   0  0  0  0  0  0  0  0  0  0  0  0
   47.6190   31.6260   48.4340 C   0  0  0  0  0  0  0  0  0  0  0  0
   47.2460   32.4220   47.4300 N   0  0  0  0  0  0  0  0  0  0  0  0
   48.3860   35.2504   42.5953 H   0  0  0  0  0  0  0  0  0  0  0  0
   48.8090   33.6192   42.1977 H   0  0  0  0  0  0  0  0  0  0  0  0
   47.0615   35.5840   40.5193 H   0  0  0  0  0  0  0  0  0  0  0  0
   48.5645   34.9161   39.9786 H   0  0  0  0  0  0  0  0  0  0  0  0
   46.3084   33.6080   39.3406 H   0  0  0  0  0  0  0  0  0  0  0  0
   47.6016   32.5989   39.9477 H   0  0  0  0  0  0  0  0  0  0  0  0
   46.1630   32.0861   41.6640 H   0  0  0  0  0  0  0  0  0  0  0  0
   44.6419   34.9915   40.0415 H   0  0  0  0  0  0  0  0  0  0  0  0
   42.0581   31.6971   42.3999 H   0  0  0  0  0  0  0  0  0  0  0  0
   41.4864   36.0305   40.4111 H   0  0  0  0  0  0  0  0  0  0  0  0
   42.6931   35.8566   39.0919 H   0  0  0  0  0  0  0  0  0  0  0  0
   41.2101   34.8430   39.0919 H   0  0  0  0  0  0  0  0  0  0  0  0
   43.8836   36.3675   45.2845 H   0  0  0  0  0  0  0  0  0  0  0  0
   44.9569   35.9816   43.0480 H   0  0  0  0  0  0  0  0  0  0  0  0
   43.9500   32.5864   47.8075 H   0  0  0  0  0  0  0  0  0  0  0  0
   44.5646   31.0998   49.6951 H   0  0  0  0  0  0  0  0  0  0  0  0
   48.6737   31.3611   48.5997 H   0  0  0  0  0  0  0  0  0  0  0  0
  1 17  1  0
  2  1  1  0
  3  2  1  0
  4  3  1  0
  4  5  1  0
  5  1  1  0
  6  5  1  0
  6 12  1  0
  7  6  1  0
  8  7  2  0
  8  9  1  0
  9 11  1  0
 10  9  2  0
 11 12  1  0
 12 13  2  0
 14  8  1  0
 15 20  2  0
 16 15  1  0
 17 16  2  0
 17 18  1  0
 18 19  2  0
 19 20  1  0
 19 21  1  0
 21 26  1  0
 21 22  2  0
 22 23  1  0
 23 24  2  0
 25 24  1  0
 26 25  2  0
  2 27  1  0
  2 28  1  0
  3 29  1  0
  3 30  1  0
  4 31  1  0
  4 32  1  0
  5 33  1  1
  7 34  1  0
 11 35  1  0
 14 36  1  0
 14 37  1  0
 14 38  1  0
 15 39  1  0
 16 40  1  0
 22 41  1  0
 23 42  1  0
 25 43  1  0
M  ISO  8  27  13  28  13  29  13  30  13  31  13  32  13  33  13  34  14
M  ISO  8  35   9  36   8  37   8  38   8  39  14  40  14  41  14  42  14
M  ISO  1  43  14
M  END
>  <minimizedAffinity>  (1) 
-6.8714385

>  <minimizedRMSD>  (1) 
0.934442043

$$$$
