
     RDKit          3D

 43 46  0  0  1  0  0  0  0  0999 V2000
   46.7210   34.0530   42.6610 N   0  0  0  0  0  0  0  0  0  0  0  0
   48.0380   34.5090   42.2290 C   0  0  0  0  0  0  0  0  0  0  0  0
   47.7480   34.8340   40.7810 C   0  0  0  0  0  0  0  0  0  0  0  0
   47.0400   33.5730   40.3560 C   0  0  0  0  0  0  0  0  0  0  0  0
   46.1880   33.2600   41.5420 C   0  0  2  0  0  0  0  0  0  0  0  0
   44.7910   33.3700   41.3660 N   0  0  0  0  0  0  0  0  0  0  0  0
   44.1240   34.2870   40.6580 C   0  0  0  0  0  0  0  0  0  0  0  0
   42.7430   34.3030   40.5510 C   0  0  0  0  0  0  0  0  0  0  0  0
   41.9930   33.3350   41.1990 C   0  0  0  0  0  0  0  0  0  0  0  0
   40.7230   33.3000   41.1360 O   0  0  0  0  0  0  0  0  0  0  0  0
   42.6660   32.4220   41.9030 N   0  0  0  0  0  0  0  0  0  0  0  0
   43.9920   32.4460   41.9770 C   0  0  0  0  0  0  0  0  0  0  0  0
   44.5310   31.5300   42.6750 O   0  0  0  0  0  0  0  0  0  0  0  0
   42.0340   35.3290   39.7620 C   0  0  0  0  0  0  0  0  0  0  0  0
   44.5400   35.5290   45.2680 C   0  0  0  0  0  0  0  0  0  0  0  0
   45.1750   35.3550   44.0310 C   0  0  0  0  0  0  0  0  0  0  0  0
   46.0600   34.2830   43.8580 C   0  0  0  0  0  0  0  0  0  0  0  0
   46.2470   33.4630   44.9280 N   0  0  0  0  0  0  0  0  0  0  0  0
   45.6320   33.6350   46.1200 C   0  0  0  0  0  0  0  0  0  0  0  0
   44.7820   34.6690   46.2790 N   0  0  0  0  0  0  0  0  0  0  0  0
   45.8790   32.7140   47.2300 C   0  0  0  0  0  0  0  0  0  0  0  0
   47.1820   32.3900   47.5560 C   0  0  0  0  0  0  0  0  0  0  0  0
   47.3120   31.5120   48.6230 C   0  0  0  0  0  0  0  0  0  0  0  0
   46.2700   30.9910   49.3130 N   0  0  0  0  0  0  0  0  0  0  0  0
   45.0230   31.3430   48.9510 C   0  0  0  0  0  0  0  0  0  0  0  0
   44.8400   32.2010   47.9150 N   0  0  0  0  0  0  0  0  0  0  0  0
   48.3649   35.3980   42.7883 H   0  0  0  0  0  0  0  0  0  0  0  0
   48.8509   33.7845   42.3851 H   0  0  0  0  0  0  0  0  0  0  0  0
   47.0990   35.7169   40.6846 H   0  0  0  0  0  0  0  0  0  0  0  0
   48.6341   35.0881   40.1807 H   0  0  0  0  0  0  0  0  0  0  0  0
   46.4252   33.7458   39.4603 H   0  0  0  0  0  0  0  0  0  0  0  0
   47.7261   32.7575   40.0837 H   0  0  0  0  0  0  0  0  0  0  0  0
   46.2616   32.1821   41.7484 H   0  0  0  0  0  0  0  0  0  0  0  0
   44.6990   35.0658   40.1356 H   0  0  0  0  0  0  0  0  0  0  0  0
   42.1464   31.6838   42.3990 H   0  0  0  0  0  0  0  0  0  0  0  0
   41.5426   36.0401   40.4424 H   0  0  0  0  0  0  0  0  0  0  0  0
   42.7543   35.8664   39.1278 H   0  0  0  0  0  0  0  0  0  0  0  0
   41.2766   34.8452   39.1278 H   0  0  0  0  0  0  0  0  0  0  0  0
   43.8435   36.3676   45.4149 H   0  0  0  0  0  0  0  0  0  0  0  0
   44.9804   36.0535   43.2038 H   0  0  0  0  0  0  0  0  0  0  0  0
   48.0481   32.7959   47.0127 H   0  0  0  0  0  0  0  0  0  0  0  0
   48.3278   31.2204   48.9280 H   0  0  0  0  0  0  0  0  0  0  0  0
   44.1555   30.9373   49.4921 H   0  0  0  0  0  0  0  0  0  0  0  0
  1 17  1  0
  2  1  1  0
  3  2  1  0
  4  3  1  0
  4  5  1  0
  5  1  1  0
  6  5  1  0
  6 12  1  0
  7  6  1  0
  8  7  2  0
  8  9  1  0
  9 11  1  0
 10  9  2  0
 11 12  1  0
 12 13  2  0
 14  8  1  0
 15 20  2  0
 16 15  1  0
 17 16  2  0
 17 18  1  0
 18 19  2  0
 19 20  1  0
 19 21  1  0
 21 22  2  0
 21 26  1  0
 22 23  1  0
 23 24  2  0
 25 24  1  0
 26 25  2  0
  2 27  1  0
  2 28  1  0
  3 29  1  0
  3 30  1  0
  4 31  1  0
  4 32  1  0
  5 33  1  1
  7 34  1  0
 11 35  1  0
 14 36  1  0
 14 37  1  0
 14 38  1  0
 15 39  1  0
 16 40  1  0
 22 41  1  0
 23 42  1  0
 25 43  1  0
M  ISO  8  27  13  28  13  29  13  30  13  31  13  32  13  33  13  34  14
M  ISO  8  35   9  36   8  37   8  38   8  39  14  40  14  41  14  42  14
M  ISO  1  43  14
M  END
>  <minimizedAffinity>  (1) 
-6.8568511

>  <minimizedRMSD>  (1) 
0.977590144

$$$$
