
     RDKit          3D

 40 43  0  0  1  0  0  0  0  0999 V2000
   46.3580   33.8640   42.2240 N   0  0  0  0  0  0  0  0  0  0  0  0
   47.6780   34.1350   41.6690 C   0  0  0  0  0  0  0  0  0  0  0  0
   47.3140   34.3310   40.2060 C   0  0  0  0  0  0  0  0  0  0  0  0
   46.4620   33.1150   39.9730 C   0  0  0  0  0  0  0  0  0  0  0  0
   45.6740   33.0150   41.2380 C   0  0  2  0  0  0  0  0  0  0  0  0
   44.2810   33.2500   41.1350 N   0  0  0  0  0  0  0  0  0  0  0  0
   43.6600   34.1790   40.4080 C   0  0  0  0  0  0  0  0  0  0  0  0
   42.2820   34.3190   40.3850 C   0  0  0  0  0  0  0  0  0  0  0  0
   41.4990   33.4760   41.1320 C   0  0  0  0  0  0  0  0  0  0  0  0
   40.2160   33.5580   41.1500 O   0  0  0  0  0  0  0  0  0  0  0  0
   42.1210   32.5450   41.8610 N   0  0  0  0  0  0  0  0  0  0  0  0
   43.4450   32.4460   41.8560 C   0  0  0  0  0  0  0  0  0  0  0  0
   43.9380   31.5260   42.5840 O   0  0  0  0  0  0  0  0  0  0  0  0
   41.6260   35.3620   39.5660 C   0  0  0  0  0  0  0  0  0  0  0  0
   44.5160   35.8080   44.7870 C   0  0  0  0  0  0  0  0  0  0  0  0
   45.0380   35.4480   43.5400 C   0  0  0  0  0  0  0  0  0  0  0  0
   45.8030   34.2910   43.4310 C   0  0  0  0  0  0  0  0  0  0  0  0
   45.9970   33.5720   44.5710 N   0  0  0  0  0  0  0  0  0  0  0  0
   45.4920   33.9250   45.7720 C   0  0  0  0  0  0  0  0  0  0  0  0
   44.7500   35.0490   45.8680 N   0  0  0  0  0  0  0  0  0  0  0  0
   45.7390   33.1060   46.9550 C   0  0  0  0  0  0  0  0  0  0  0  0
   44.9830   32.6590   47.9800 N   0  0  0  0  0  0  0  0  0  0  0  0
   45.7460   31.9460   48.7780 O   0  0  0  0  0  0  0  0  0  0  0  0
   46.9780   31.9000   48.3280 C   0  0  0  0  0  0  0  0  0  0  0  0
   46.9920   32.6270   47.1780 N   0  0  0  0  0  0  0  0  0  0  0  0
   48.1253   35.0412   42.1034 H   0  0  0  0  0  0  0  0  0  0  0  0
   48.4296   33.3546   41.8589 H   0  0  0  0  0  0  0  0  0  0  0  0
   46.7472   35.2606   40.0491 H   0  0  0  0  0  0  0  0  0  0  0  0
   48.1745   34.4259   39.5273 H   0  0  0  0  0  0  0  0  0  0  0  0
   45.8013   33.2547   39.1047 H   0  0  0  0  0  0  0  0  0  0  0  0
   47.0466   32.2099   39.7516 H   0  0  0  0  0  0  0  0  0  0  0  0
   45.6618   31.9635   41.5609 H   0  0  0  0  0  0  0  0  0  0  0  0
   44.2685   34.8644   39.7997 H   0  0  0  0  0  0  0  0  0  0  0  0
   41.5655   31.8948   42.4351 H   0  0  0  0  0  0  0  0  0  0  0  0
   41.1578   36.1064   40.2267 H   0  0  0  0  0  0  0  0  0  0  0  0
   42.3765   35.8557   38.9312 H   0  0  0  0  0  0  0  0  0  0  0  0
   40.8560   34.8993   38.9312 H   0  0  0  0  0  0  0  0  0  0  0  0
   43.9090   36.7205   44.8818 H   0  0  0  0  0  0  0  0  0  0  0  0
   44.8457   36.0728   42.6553 H   0  0  0  0  0  0  0  0  0  0  0  0
   47.8295   31.3778   48.7887 H   0  0  0  0  0  0  0  0  0  0  0  0
  1 17  1  0
  2  1  1  0
  3  2  1  0
  4  3  1  0
  4  5  1  0
  5  1  1  0
  6  5  1  0
  6 12  1  0
  7  6  1  0
  8  7  2  0
  8  9  1  0
  9 10  2  0
  9 11  1  0
 12 11  1  0
 12 13  2  0
 14  8  1  0
 15 20  2  0
 16 15  1  0
 17 16  2  0
 17 18  1  0
 18 19  2  0
 19 20  1  0
 19 21  1  0
 21 25  1  0
 21 22  2  0
 22 23  1  0
 24 23  1  0
 25 24  2  0
  2 26  1  0
  2 27  1  0
  3 28  1  0
  3 29  1  0
  4 30  1  0
  4 31  1  0
  5 32  1  1
  7 33  1  0
 11 34  1  0
 14 35  1  0
 14 36  1  0
 14 37  1  0
 15 38  1  0
 16 39  1  0
 24 40  1  0
M  ISO  8  26  13  27  13  28  13  29  13  30  13  31  13  32  13  33  14
M  ISO  7  34   9  35   8  36   8  37   8  38  14  39  14  40  14
M  END
>  <minimizedAffinity>  (1) 
-6.53201294

>  <minimizedRMSD>  (1) 
0.547130466

$$$$
