
     RDKit          3D

 36 38  0  0  1  0  0  0  0  0999 V2000
   46.3610   34.0030   42.3060 N   0  0  0  0  0  0  0  0  0  0  0  0
   47.7070   34.2380   41.7890 C   0  0  0  0  0  0  0  0  0  0  0  0
   47.4060   34.3340   40.3150 C   0  0  0  0  0  0  0  0  0  0  0  0
   46.5710   33.0990   40.1210 C   0  0  0  0  0  0  0  0  0  0  0  0
   45.7250   33.0840   41.3550 C   0  0  2  0  0  0  0  0  0  0  0  0
   44.3360   33.3080   41.1670 N   0  0  0  0  0  0  0  0  0  0  0  0
   43.7540   34.2070   40.3750 C   0  0  0  0  0  0  0  0  0  0  0  0
   42.3780   34.3450   40.2640 C   0  0  0  0  0  0  0  0  0  0  0  0
   41.5480   33.5180   41.0040 C   0  0  0  0  0  0  0  0  0  0  0  0
   40.2750   33.5880   40.9530 O   0  0  0  0  0  0  0  0  0  0  0  0
   42.1460   32.6120   41.8030 N   0  0  0  0  0  0  0  0  0  0  0  0
   43.4670   32.5240   41.8690 C   0  0  0  0  0  0  0  0  0  0  0  0
   43.9250   31.6340   42.6550 O   0  0  0  0  0  0  0  0  0  0  0  0
   41.7500   35.3440   39.3840 C   0  0  0  0  0  0  0  0  0  0  0  0
   44.5300   36.1910   44.6740 C   0  0  0  0  0  0  0  0  0  0  0  0
   45.1160   35.7620   43.4810 C   0  0  0  0  0  0  0  0  0  0  0  0
   45.7510   34.5110   43.4550 C   0  0  0  0  0  0  0  0  0  0  0  0
   45.7450   33.7980   44.6150 N   0  0  0  0  0  0  0  0  0  0  0  0
   45.1770   34.2210   45.7620 C   0  0  0  0  0  0  0  0  0  0  0  0
   44.5680   35.4290   45.7760 N   0  0  0  0  0  0  0  0  0  0  0  0
   45.2130   33.4390   46.9000 O   0  0  0  0  0  0  0  0  0  0  0  0
   48.1375   35.1718   42.1797 H   0  0  0  0  0  0  0  0  0  0  0  0
   48.4491   33.4734   42.0623 H   0  0  0  0  0  0  0  0  0  0  0  0
   46.8414   35.2470   40.0751 H   0  0  0  0  0  0  0  0  0  0  0  0
   48.2951   34.3904   39.6698 H   0  0  0  0  0  0  0  0  0  0  0  0
   45.9517   33.1759   39.2152 H   0  0  0  0  0  0  0  0  0  0  0  0
   47.1660   32.1838   39.9857 H   0  0  0  0  0  0  0  0  0  0  0  0
   45.6988   32.0592   41.7539 H   0  0  0  0  0  0  0  0  0  0  0  0
   44.3960   34.8728   39.7796 H   0  0  0  0  0  0  0  0  0  0  0  0
   41.5670   31.9777   42.3716 H   0  0  0  0  0  0  0  0  0  0  0  0
   41.2636   36.1177   39.9962 H   0  0  0  0  0  0  0  0  0  0  0  0
   42.5189   35.8084   38.7491 H   0  0  0  0  0  0  0  0  0  0  0  0
   40.9982   34.8524   38.7491 H   0  0  0  0  0  0  0  0  0  0  0  0
   44.0293   37.1698   44.7098 H   0  0  0  0  0  0  0  0  0  0  0  0
   45.0804   36.3921   42.5800 H   0  0  0  0  0  0  0  0  0  0  0  0
   44.7919   33.7617   47.7359 H   0  0  0  0  0  0  0  0  0  0  0  0
  1 17  1  0
  2  1  1  0
  3  2  1  0
  4  3  1  0
  4  5  1  0
  5  1  1  0
  6  5  1  0
  6 12  1  0
  7  6  1  0
  8  7  2  0
  8  9  1  0
  9 11  1  0
 10  9  2  0
 11 12  1  0
 12 13  2  0
 14  8  1  0
 15 20  2  0
 16 15  1  0
 17 16  2  0
 17 18  1  0
 18 19  2  0
 19 20  1  0
 19 21  1  0
  2 22  1  0
  2 23  1  0
  3 24  1  0
  3 25  1  0
  4 26  1  0
  4 27  1  0
  5 28  1  1
  7 29  1  0
 11 30  1  0
 14 31  1  0
 14 32  1  0
 14 33  1  0
 15 34  1  0
 16 35  1  0
 21 36  1  0
M  ISO  8  22  13  23  13  24  13  25  13  26  13  27  13  28  13  29  14
M  ISO  7  30   9  31   8  32   8  33   8  34  14  35  14  36   3
M  END
>  <minimizedAffinity>  (1) 
-5.98649836

>  <minimizedRMSD>  (1) 
0.0471815914

$$$$
