
     RDKit          3D

 35 36  0  0  0  0  0  0  0  0999 V2000
   49.0920   31.2810   40.3940 C   0  0  0  0  0  0  0  0  0  0  0  0
   47.5060   34.1250   42.0710 C   0  0  0  0  0  0  0  0  0  0  0  0
   48.5770   34.8340   42.5910 C   0  0  0  0  0  0  0  0  0  0  0  0
   49.8840   34.3500   42.3780 C   0  0  0  0  0  0  0  0  0  0  0  0
   50.0170   33.2000   41.6640 N   0  0  0  0  0  0  0  0  0  0  0  0
   48.9340   32.5270   41.1660 C   0  0  0  0  0  0  0  0  0  0  0  0
   47.7080   32.9980   41.3770 N   0  0  0  0  0  0  0  0  0  0  0  0
   46.1780   34.6330   42.3010 C   0  0  0  0  0  0  0  0  0  0  0  0
   45.3720   34.7310   41.3220 O   0  0  0  0  0  0  0  0  0  0  0  0
   45.8300   35.0040   43.6230 O   0  0  0  0  0  0  0  0  0  0  0  0
   44.8770   36.0080   43.8080 C   0  0  0  0  0  0  0  0  0  0  0  0
   43.6360   35.6710   43.3010 F   0  0  0  0  0  0  0  0  0  0  0  0
   44.7340   36.2740   45.1610 F   0  0  0  0  0  0  0  0  0  0  0  0
   45.3310   37.1210   43.1240 F   0  0  0  0  0  0  0  0  0  0  0  0
   49.7610   30.1860   41.1380 C   0  0  0  0  0  0  0  0  0  0  0  0
   47.7290   30.8230   39.9550 C   0  0  0  0  0  0  0  0  0  0  0  0
   49.8720   31.6140   39.1480 C   0  0  0  0  0  0  0  0  0  0  0  0
   49.2590   32.6350   38.2940 C   0  0  0  0  0  0  0  0  0  0  0  0
   49.0450   32.4130   36.9300 C   0  0  0  0  0  0  0  0  0  0  0  0
   48.4690   33.5000   36.3690 N   0  0  0  0  0  0  0  0  0  0  0  0
   48.3110   34.4200   37.3560 C   0  0  0  0  0  0  0  0  0  0  0  0
   48.7890   33.8790   38.4890 N   0  0  0  0  0  0  0  0  0  0  0  0
   48.4101   35.7599   43.1610 H   0  0  0  0  0  0  0  0  0  0  0  0
   50.7619   34.8817   42.7738 H   0  0  0  0  0  0  0  0  0  0  0  0
   49.6552   30.3592   42.2191 H   0  0  0  0  0  0  0  0  0  0  0  0
   49.2956   29.2251   40.8733 H   0  0  0  0  0  0  0  0  0  0  0  0
   50.8284   30.1616   40.8733 H   0  0  0  0  0  0  0  0  0  0  0  0
   47.1095   30.6148   40.8398 H   0  0  0  0  0  0  0  0  0  0  0  0
   47.2540   31.6109   39.3520 H   0  0  0  0  0  0  0  0  0  0  0  0
   47.8262   29.9082   39.3520 H   0  0  0  0  0  0  0  0  0  0  0  0
   50.8658   31.9741   39.4524 H   0  0  0  0  0  0  0  0  0  0  0  0
   49.9091   30.6915   38.5500 H   0  0  0  0  0  0  0  0  0  0  0  0
   49.3068   31.4897   36.3925 H   0  0  0  0  0  0  0  0  0  0  0  0
   47.8725   35.4230   37.2475 H   0  0  0  0  0  0  0  0  0  0  0  0
   48.7946   34.3606   39.3994 H   0  0  0  0  0  0  0  0  0  0  0  0
  1 15  1  0
  1  6  1  0
  2  8  1  0
  2  3  2  0
  4  3  1  0
  5  4  2  0
  6  7  2  0
  6  5  1  0
  7  2  1  0
  8 10  1  0
  9  8  2  0
 10 11  1  0
 11 13  1  0
 12 11  1  0
 14 11  1  0
 16  1  1  0
 17  1  1  0
 18 22  1  0
 18 17  1  0
 19 18  2  0
 20 19  1  0
 20 21  2  0
 21 22  1  0
  3 23  1  0
  4 24  1  0
 15 25  1  0
 15 26  1  0
 15 27  1  0
 16 28  1  0
 16 29  1  0
 16 30  1  0
 17 31  1  0
 17 32  1  0
 19 33  1  0
 21 34  1  0
 22 35  1  0
M  ISO  8  23  14  24  14  25   8  26   8  27   8  28   8  29   8  30   8
M  ISO  5  31   8  32   8  33  14  34  14  35   9
M  END
>  <minimizedAffinity>  (1) 
-4.78085947

>  <minimizedRMSD>  (1) 
2.92904663

$$$$
