
     RDKit          3D

 52 55  0  0  1  0  0  0  0  0999 V2000
   45.8970   33.7000   42.1830 N   0  0  0  0  0  0  0  0  0  0  0  0
   46.9910   34.0700   41.2930 C   0  0  0  0  0  0  0  0  0  0  0  0
   46.3420   33.8240   39.9580 C   0  0  0  0  0  0  0  0  0  0  0  0
   45.7980   32.4290   40.1650 C   0  0  0  0  0  0  0  0  0  0  0  0
   45.2980   32.5110   41.5750 C   0  0  2  0  0  0  0  0  0  0  0  0
   44.4880   36.1070   44.6290 C   0  0  0  0  0  0  0  0  0  0  0  0
   44.9000   35.5730   43.4100 C   0  0  0  0  0  0  0  0  0  0  0  0
   45.4650   34.2930   43.3590 C   0  0  0  0  0  0  0  0  0  0  0  0
   45.5700   33.6500   44.5540 N   0  0  0  0  0  0  0  0  0  0  0  0
   45.1720   34.1660   45.7270 C   0  0  0  0  0  0  0  0  0  0  0  0
   44.6330   35.3930   45.7540 N   0  0  0  0  0  0  0  0  0  0  0  0
   45.3660   33.3400   46.8620 N   0  0  0  0  0  0  0  0  0  0  0  0
   43.8960   32.4050   41.7500 N   0  0  0  0  0  0  0  0  0  0  0  0
   42.9670   33.2560   41.3370 C   0  0  0  0  0  0  0  0  0  0  0  0
   41.6200   33.0720   41.5510 C   0  0  0  0  0  0  0  0  0  0  0  0
   41.1870   31.9360   42.2370 C   0  0  0  0  0  0  0  0  0  0  0  0
   39.9550   31.7220   42.4590 O   0  0  0  0  0  0  0  0  0  0  0  0
   42.1220   31.0850   42.6500 N   0  0  0  0  0  0  0  0  0  0  0  0
   43.4000   31.3160   42.4160 C   0  0  0  0  0  0  0  0  0  0  0  0
   44.2220   30.4460   42.8490 O   0  0  0  0  0  0  0  0  0  0  0  0
   40.6010   34.0310   41.0770 C   0  0  0  0  0  0  0  0  0  0  0  0
   40.0810   33.6980   39.7610 N   0  0  0  0  0  0  0  0  0  0  0  0
   38.6540   33.4090   39.8200 C   0  0  0  0  0  0  0  0  0  0  0  0
   38.3460   32.7040   38.4970 C   0  0  0  0  0  0  0  0  0  0  0  0
   38.3800   33.8070   37.4520 C   0  0  0  0  0  0  0  0  0  0  0  0
   39.6860   34.5320   37.5140 C   0  0  0  0  0  0  0  0  0  0  0  0
   40.1700   34.8770   38.8790 C   0  0  0  0  0  0  0  0  0  0  0  0
   47.2792   35.1242   41.4179 H   0  0  0  0  0  0  0  0  0  0  0  0
   47.9282   33.5186   41.4594 H   0  0  0  0  0  0  0  0  0  0  0  0
   47.0752   33.8559   39.1386 H   0  0  0  0  0  0  0  0  0  0  0  0
   45.5870   34.5712   39.6723 H   0  0  0  0  0  0  0  0  0  0  0  0
   44.9821   32.2071   39.4614 H   0  0  0  0  0  0  0  0  0  0  0  0
   46.5348   31.6300   39.9956 H   0  0  0  0  0  0  0  0  0  0  0  0
   45.6248   31.6060   42.1080 H   0  0  0  0  0  0  0  0  0  0  0  0
   44.0445   37.1129   44.6681 H   0  0  0  0  0  0  0  0  0  0  0  0
   44.7812   36.1580   42.4861 H   0  0  0  0  0  0  0  0  0  0  0  0
   45.0836   33.6723   47.7951 H   0  0  0  0  0  0  0  0  0  0  0  0
   45.7895   32.4073   46.7539 H   0  0  0  0  0  0  0  0  0  0  0  0
   43.2900   34.1568   40.7946 H   0  0  0  0  0  0  0  0  0  0  0  0
   41.8447   30.2339   43.1595 H   0  0  0  0  0  0  0  0  0  0  0  0
   39.7659   34.0386   41.7930 H   0  0  0  0  0  0  0  0  0  0  0  0
   41.0841   35.0164   41.0019 H   0  0  0  0  0  0  0  0  0  0  0  0
   38.4261   32.7518   40.6721 H   0  0  0  0  0  0  0  0  0  0  0  0
   38.0503   34.3182   39.9578 H   0  0  0  0  0  0  0  0  0  0  0  0
   39.1067   31.9400   38.2788 H   0  0  0  0  0  0  0  0  0  0  0  0
   37.3773   32.1834   38.5197 H   0  0  0  0  0  0  0  0  0  0  0  0
   37.5608   34.5156   37.6439 H   0  0  0  0  0  0  0  0  0  0  0  0
   38.2623   33.3611   36.4533 H   0  0  0  0  0  0  0  0  0  0  0  0
   40.4473   33.8980   37.0359 H   0  0  0  0  0  0  0  0  0  0  0  0
   39.5198   35.4922   37.0038 H   0  0  0  0  0  0  0  0  0  0  0  0
   41.2169   35.2096   38.8206 H   0  0  0  0  0  0  0  0  0  0  0  0
   39.5439   35.6826   39.2902 H   0  0  0  0  0  0  0  0  0  0  0  0
  1  8  1  0
  2  1  1  0
  3  4  1  0
  3  2  1  0
  4  5  1  0
  5 13  1  0
  5  1  1  0
  6 11  2  0
  7  6  1  0
  8  7  2  0
  8  9  1  0
  9 10  2  0
 10 11  1  0
 10 12  1  0
 13 19  1  0
 14 15  2  0
 14 13  1  0
 15 16  1  0
 16 17  2  0
 16 18  1  0
 19 18  1  0
 19 20  2  0
 21 15  1  0
 22 23  1  0
 22 21  1  0
 24 23  1  0
 25 26  1  0
 25 24  1  0
 26 27  1  0
 27 22  1  0
  2 28  1  0
  2 29  1  0
  3 30  1  0
  3 31  1  0
  4 32  1  0
  4 33  1  0
  5 34  1  1
  6 35  1  0
  7 36  1  0
 12 37  1  0
 12 38  1  0
 14 39  1  0
 18 40  1  0
 21 41  1  0
 21 42  1  0
 23 43  1  0
 23 44  1  0
 24 45  1  0
 24 46  1  0
 25 47  1  0
 25 48  1  0
 26 49  1  0
 26 50  1  0
 27 51  1  0
 27 52  1  0
M  ISO  8  28  13  29  13  30  13  31  13  32  13  33  13  34  13  35  14
M  ISO  8  36  14  39  14  40   9  41   8  42   8  43  13  44  13  45  13
M  ISO  7  46  13  47  13  48  13  49  13  50  13  51  13  52  13
M  END
>  <minimizedAffinity>  (1) 
-6.70750809

>  <minimizedRMSD>  (1) 
1.46485412

$$$$
