
     RDKit          3D

 42 43  0  0  0  0  0  0  0  0999 V2000
   46.4600   32.8940   38.4110 C   0  0  0  0  0  0  0  0  0  0  0  0
   45.9060   34.4710   41.6750 C   0  0  0  0  0  0  0  0  0  0  0  0
   47.1180   35.0820   41.9440 C   0  0  0  0  0  0  0  0  0  0  0  0
   48.1640   34.9640   40.9960 C   0  0  0  0  0  0  0  0  0  0  0  0
   47.8990   34.2500   39.8740 N   0  0  0  0  0  0  0  0  0  0  0  0
   46.6840   33.6590   39.6440 C   0  0  0  0  0  0  0  0  0  0  0  0
   45.7280   33.7810   40.5370 N   0  0  0  0  0  0  0  0  0  0  0  0
   44.8360   34.5930   42.6520 C   0  0  0  0  0  0  0  0  0  0  0  0
   43.9280   35.4360   42.4830 O   0  0  0  0  0  0  0  0  0  0  0  0
   44.8710   33.7450   43.7640 O   0  0  0  0  0  0  0  0  0  0  0  0
   45.5150   34.1740   44.9400 C   0  0  0  0  0  0  0  0  0  0  0  0
   45.0020   33.6100   46.0870 F   0  0  0  0  0  0  0  0  0  0  0  0
   46.8620   33.8670   44.8820 F   0  0  0  0  0  0  0  0  0  0  0  0
   45.3130   35.5450   45.0070 F   0  0  0  0  0  0  0  0  0  0  0  0
   46.8010   31.4600   38.4960 C   0  0  0  0  0  0  0  0  0  0  0  0
   44.9800   33.0130   38.0800 C   0  0  0  0  0  0  0  0  0  0  0  0
   47.1830   33.6010   37.2930 C   0  0  0  0  0  0  0  0  0  0  0  0
   47.9930   32.7490   36.5460 N   0  0  0  0  0  0  0  0  0  0  0  0
   47.6770   32.3160   35.2580 C   0  0  0  0  0  0  0  0  0  0  0  0
   48.8520   32.3760   34.2840 C   0  0  0  0  0  0  0  0  0  0  0  0
   50.0240   31.7230   34.8070 N   0  0  0  0  0  0  0  0  0  0  0  0
   49.8930   31.3640   36.2000 C   0  0  0  0  0  0  0  0  0  0  0  0
   49.3550   32.5800   36.9220 C   0  0  0  0  0  0  0  0  0  0  0  0
   47.2663   35.6481   42.8754 H   0  0  0  0  0  0  0  0  0  0  0  0
   49.1463   35.4302   41.1624 H   0  0  0  0  0  0  0  0  0  0  0  0
   46.8719   31.1620   39.5525 H   0  0  0  0  0  0  0  0  0  0  0  0
   46.0188   30.8670   37.9994 H   0  0  0  0  0  0  0  0  0  0  0  0
   47.7664   31.2826   37.9994 H   0  0  0  0  0  0  0  0  0  0  0  0
   44.3983   33.0598   39.0125 H   0  0  0  0  0  0  0  0  0  0  0  0
   44.8077   33.9279   37.4941 H   0  0  0  0  0  0  0  0  0  0  0  0
   44.6638   32.1374   37.4941 H   0  0  0  0  0  0  0  0  0  0  0  0
   46.4366   34.0525   36.6228 H   0  0  0  0  0  0  0  0  0  0  0  0
   47.8355   34.3595   37.7501 H   0  0  0  0  0  0  0  0  0  0  0  0
   47.3283   31.2744   35.3176 H   0  0  0  0  0  0  0  0  0  0  0  0
   46.9039   32.9962   34.8711 H   0  0  0  0  0  0  0  0  0  0  0  0
   49.0932   33.4304   34.0839 H   0  0  0  0  0  0  0  0  0  0  0  0
   48.5554   31.8523   33.3633 H   0  0  0  0  0  0  0  0  0  0  0  0
   50.1938   30.8661   34.2613 H   0  0  0  0  0  0  0  0  0  0  0  0
   49.1951   30.5207   36.3087 H   0  0  0  0  0  0  0  0  0  0  0  0
   50.8625   31.0561   36.6187 H   0  0  0  0  0  0  0  0  0  0  0  0
   49.9342   33.4703   36.6360 H   0  0  0  0  0  0  0  0  0  0  0  0
   49.4365   32.4447   38.0106 H   0  0  0  0  0  0  0  0  0  0  0  0
  1 15  1  0
  1  6  1  0
  2  3  2  0
  2  8  1  0
  4  3  1  0
  5  4  2  0
  6  5  1  0
  6  7  2  0
  7  2  1  0
  8 10  1  0
  9  8  2  0
 10 11  1  0
 11 14  1  0
 11 12  1  0
 13 11  1  0
 16  1  1  0
 17  1  1  0
 18 23  1  0
 18 17  1  0
 19 18  1  0
 20 21  1  0
 20 19  1  0
 21 22  1  0
 22 23  1  0
  3 24  1  0
  4 25  1  0
 15 26  1  0
 15 27  1  0
 15 28  1  0
 16 29  1  0
 16 30  1  0
 16 31  1  0
 17 32  1  0
 17 33  1  0
 19 34  1  0
 19 35  1  0
 20 36  1  0
 20 37  1  0
 21 38  1  0
 22 39  1  0
 22 40  1  0
 23 41  1  0
 23 42  1  0
M  ISO  8  24  14  25  14  26   8  27   8  28   8  29   8  30   8  31   8
M  ISO  8  32   8  33   8  34  13  35  13  36  13  37  13  38   5  39  13
M  ISO  3  40  13  41  13  42  13
M  END
>  <minimizedAffinity>  (1) 
-4.70175695

>  <minimizedRMSD>  (1) 
1.5955267

$$$$
