
     RDKit          3D

 51 54  0  0  1  0  0  0  0  0999 V2000
   46.0380   33.7010   42.2250 N   0  0  0  0  0  0  0  0  0  0  0  0
   47.1030   34.1310   41.3390 C   0  0  0  0  0  0  0  0  0  0  0  0
   46.5010   33.8020   39.9980 C   0  0  0  0  0  0  0  0  0  0  0  0
   46.0490   32.3860   40.2420 C   0  0  0  0  0  0  0  0  0  0  0  0
   45.5310   32.4400   41.6430 C   0  0  2  0  0  0  0  0  0  0  0  0
   44.4750   36.0840   44.6090 C   0  0  0  0  0  0  0  0  0  0  0  0
   44.9450   35.5530   43.3990 C   0  0  0  0  0  0  0  0  0  0  0  0
   45.5440   34.2990   43.3930 C   0  0  0  0  0  0  0  0  0  0  0  0
   45.6390   33.6490   44.5920 N   0  0  0  0  0  0  0  0  0  0  0  0
   45.1850   34.1720   45.7370 C   0  0  0  0  0  0  0  0  0  0  0  0
   44.6070   35.3810   45.7480 N   0  0  0  0  0  0  0  0  0  0  0  0
   45.3730   33.3430   46.8900 N   0  0  0  0  0  0  0  0  0  0  0  0
   44.1350   32.2410   41.8130 N   0  0  0  0  0  0  0  0  0  0  0  0
   43.1570   32.9640   41.2860 C   0  0  0  0  0  0  0  0  0  0  0  0
   41.8140   32.6940   41.5080 C   0  0  0  0  0  0  0  0  0  0  0  0
   41.4510   31.6320   42.3090 C   0  0  0  0  0  0  0  0  0  0  0  0
   40.2370   31.3360   42.5500 O   0  0  0  0  0  0  0  0  0  0  0  0
   42.4490   30.9050   42.8390 N   0  0  0  0  0  0  0  0  0  0  0  0
   43.7160   31.2110   42.5910 C   0  0  0  0  0  0  0  0  0  0  0  0
   44.5860   30.4600   43.1400 O   0  0  0  0  0  0  0  0  0  0  0  0
   40.7360   33.5130   40.9130 C   0  0  0  0  0  0  0  0  0  0  0  0
   41.0630   34.0020   39.6120 N   0  0  0  0  0  0  0  0  0  0  0  0
   40.2490   33.5260   38.5430 C   0  0  0  0  0  0  0  0  0  0  0  0
   39.7550   34.5820   37.6110 C   0  0  0  0  0  0  0  0  0  0  0  0
   40.7320   35.5360   37.1930 N   0  0  0  0  0  0  0  0  0  0  0  0
   41.8080   35.7020   38.1380 C   0  0  0  0  0  0  0  0  0  0  0  0
   41.2170   35.4200   39.5240 C   0  0  0  0  0  0  0  0  0  0  0  0
   47.3041   35.2078   41.4398 H   0  0  0  0  0  0  0  0  0  0  0  0
   48.0764   33.6561   41.5313 H   0  0  0  0  0  0  0  0  0  0  0  0
   47.2482   33.8570   39.1926 H   0  0  0  0  0  0  0  0  0  0  0  0
   45.7056   34.4879   39.6711 H   0  0  0  0  0  0  0  0  0  0  0  0
   45.2556   32.0964   39.5372 H   0  0  0  0  0  0  0  0  0  0  0  0
   46.8485   31.6436   40.1018 H   0  0  0  0  0  0  0  0  0  0  0  0
   45.9104   31.5651   42.1912 H   0  0  0  0  0  0  0  0  0  0  0  0
   43.9985   37.0753   44.6265 H   0  0  0  0  0  0  0  0  0  0  0  0
   44.8406   36.1233   42.4642 H   0  0  0  0  0  0  0  0  0  0  0  0
   45.0536   33.6663   47.8143 H   0  0  0  0  0  0  0  0  0  0  0  0
   45.8276   32.4237   46.7947 H   0  0  0  0  0  0  0  0  0  0  0  0
   43.4219   33.8167   40.6436 H   0  0  0  0  0  0  0  0  0  0  0  0
   42.2281   30.1015   43.4443 H   0  0  0  0  0  0  0  0  0  0  0  0
   39.8278   32.8969   40.8383 H   0  0  0  0  0  0  0  0  0  0  0  0
   40.5863   34.3858   41.5655 H   0  0  0  0  0  0  0  0  0  0  0  0
   40.8391   32.8041   37.9594 H   0  0  0  0  0  0  0  0  0  0  0  0
   39.3562   33.0832   39.0086 H   0  0  0  0  0  0  0  0  0  0  0  0
   39.3606   34.0844   36.7128 H   0  0  0  0  0  0  0  0  0  0  0  0
   38.9971   35.1498   38.1707 H   0  0  0  0  0  0  0  0  0  0  0  0
   41.1302   35.2244   36.2957 H   0  0  0  0  0  0  0  0  0  0  0  0
   42.6191   34.9919   37.9190 H   0  0  0  0  0  0  0  0  0  0  0  0
   42.2315   36.7158   38.0848 H   0  0  0  0  0  0  0  0  0  0  0  0
   41.8987   35.7788   40.3092 H   0  0  0  0  0  0  0  0  0  0  0  0
   40.2556   35.9364   39.6619 H   0  0  0  0  0  0  0  0  0  0  0  0
  1  8  1  0
  2  1  1  0
  3  4  1  0
  3  2  1  0
  4  5  1  0
  5 13  1  0
  5  1  1  0
  6 11  2  0
  7  6  1  0
  8  7  2  0
  8  9  1  0
  9 10  2  0
 10 11  1  0
 10 12  1  0
 13 19  1  0
 14 15  2  0
 14 13  1  0
 15 16  1  0
 16 17  2  0
 16 18  1  0
 19 18  1  0
 19 20  2  0
 21 15  1  0
 22 21  1  0
 23 22  1  0
 24 23  1  0
 25 24  1  0
 25 26  1  0
 26 27  1  0
 27 22  1  0
  2 28  1  0
  2 29  1  0
  3 30  1  0
  3 31  1  0
  4 32  1  0
  4 33  1  0
  5 34  1  1
  6 35  1  0
  7 36  1  0
 12 37  1  0
 12 38  1  0
 14 39  1  0
 18 40  1  0
 21 41  1  0
 21 42  1  0
 23 43  1  0
 23 44  1  0
 24 45  1  0
 24 46  1  0
 25 47  1  0
 26 48  1  0
 26 49  1  0
 27 50  1  0
 27 51  1  0
M  ISO  8  28  13  29  13  30  13  31  13  32  13  33  13  34  13  35  14
M  ISO  8  36  14  39  14  40   9  41   8  42   8  43  13  44  13  45  13
M  ISO  6  46  13  47   5  48  13  49  13  50  13  51  13
M  END
>  <minimizedAffinity>  (1) 
-6.51172113

>  <minimizedRMSD>  (1) 
1.50566125

$$$$
