
     RDKit          3D

 44 47  0  0  1  0  0  0  0  0999 V2000
   45.7270   33.6890   42.1430 N   0  0  0  0  0  0  0  0  0  0  0  0
   46.9270   33.8790   41.3390 C   0  0  0  0  0  0  0  0  0  0  0  0
   46.3140   33.8450   39.9490 C   0  0  0  0  0  0  0  0  0  0  0  0
   45.4910   32.5750   40.0530 C   0  0  0  0  0  0  0  0  0  0  0  0
   44.9390   32.6780   41.4370 C   0  0  2  0  0  0  0  0  0  0  0  0
   44.4970   36.1500   44.6450 C   0  0  0  0  0  0  0  0  0  0  0  0
   44.8500   35.5990   43.4160 C   0  0  0  0  0  0  0  0  0  0  0  0
   45.3510   34.3100   43.3410 C   0  0  0  0  0  0  0  0  0  0  0  0
   45.4720   33.6330   44.5260 N   0  0  0  0  0  0  0  0  0  0  0  0
   45.1300   34.1670   45.7170 C   0  0  0  0  0  0  0  0  0  0  0  0
   44.6480   35.4150   45.7640 N   0  0  0  0  0  0  0  0  0  0  0  0
   45.3210   33.3230   46.8390 N   0  0  0  0  0  0  0  0  0  0  0  0
   43.5350   32.8570   41.5400 N   0  0  0  0  0  0  0  0  0  0  0  0
   42.8320   33.9440   41.2330 C   0  0  0  0  0  0  0  0  0  0  0  0
   41.4500   34.0070   41.3720 C   0  0  0  0  0  0  0  0  0  0  0  0
   40.7500   32.9180   41.8460 C   0  0  0  0  0  0  0  0  0  0  0  0
   39.4930   32.9410   41.9850 O   0  0  0  0  0  0  0  0  0  0  0  0
   41.4680   31.8300   42.1510 N   0  0  0  0  0  0  0  0  0  0  0  0
   42.7780   31.8130   42.0040 C   0  0  0  0  0  0  0  0  0  0  0  0
   43.3690   30.7220   42.3250 O   0  0  0  0  0  0  0  0  0  0  0  0
   40.7150   35.2490   41.0040 C   0  0  0  0  0  0  0  0  0  0  0  0
   40.4220   35.1370   39.5500 C   0  0  0  0  0  0  0  0  0  0  0  0
   39.4900   34.4550   38.8020 C   0  0  0  0  0  0  0  0  0  0  0  0
   39.7590   34.7820   37.4900 C   0  0  0  0  0  0  0  0  0  0  0  0
   40.8340   35.6420   37.4750 C   0  0  0  0  0  0  0  0  0  0  0  0
   41.1800   35.8120   38.7270 O   0  0  0  0  0  0  0  0  0  0  0  0
   47.4117   34.8438   41.5490 H   0  0  0  0  0  0  0  0  0  0  0  0
   47.7258   33.1432   41.5137 H   0  0  0  0  0  0  0  0  0  0  0  0
   47.0828   33.7699   39.1659 H   0  0  0  0  0  0  0  0  0  0  0  0
   45.7440   34.7443   39.6727 H   0  0  0  0  0  0  0  0  0  0  0  0
   44.6874   32.5564   39.3021 H   0  0  0  0  0  0  0  0  0  0  0  0
   46.0674   31.6558   39.8717 H   0  0  0  0  0  0  0  0  0  0  0  0
   45.0456   31.6975   41.9241 H   0  0  0  0  0  0  0  0  0  0  0  0
   44.0993   37.1740   44.7017 H   0  0  0  0  0  0  0  0  0  0  0  0
   44.7300   36.1921   42.4974 H   0  0  0  0  0  0  0  0  0  0  0  0
   45.0830   33.6594   47.7830 H   0  0  0  0  0  0  0  0  0  0  0  0
   45.6978   32.3730   46.7106 H   0  0  0  0  0  0  0  0  0  0  0  0
   43.3654   34.8282   40.8541 H   0  0  0  0  0  0  0  0  0  0  0  0
   40.9882   30.9910   42.5070 H   0  0  0  0  0  0  0  0  0  0  0  0
   39.7794   35.3236   41.5777 H   0  0  0  0  0  0  0  0  0  0  0  0
   41.3073   36.1486   41.2273 H   0  0  0  0  0  0  0  0  0  0  0  0
   38.6970   33.7889   39.1729 H   0  0  0  0  0  0  0  0  0  0  0  0
   39.2102   34.4189   36.6085 H   0  0  0  0  0  0  0  0  0  0  0  0
   41.3066   36.0947   36.5908 H   0  0  0  0  0  0  0  0  0  0  0  0
  1  8  1  0
  2  1  1  0
  3  4  1  0
  3  2  1  0
  4  5  1  0
  5 13  1  0
  5  1  1  0
  6 11  2  0
  7  6  1  0
  8  7  2  0
  8  9  1  0
  9 10  2  0
 10 11  1  0
 10 12  1  0
 13 19  1  0
 14 15  2  0
 14 13  1  0
 15 16  1  0
 16 17  2  0
 16 18  1  0
 19 18  1  0
 19 20  2  0
 21 15  1  0
 22 21  1  0
 23 22  2  0
 24 23  1  0
 25 24  2  0
 25 26  1  0
 26 22  1  0
  2 27  1  0
  2 28  1  0
  3 29  1  0
  3 30  1  0
  4 31  1  0
  4 32  1  0
  5 33  1  1
  6 34  1  0
  7 35  1  0
 12 36  1  0
 12 37  1  0
 14 38  1  0
 18 39  1  0
 21 40  1  0
 21 41  1  0
 23 42  1  0
 24 43  1  0
 25 44  1  0
M  ISO  8  27  13  28  13  29  13  30  13  31  13  32  13  33  13  34  14
M  ISO  8  35  14  38  14  39   9  40   8  41   8  42  14  43  14  44  14
M  END
>  <minimizedAffinity>  (1) 
-6.55882597

>  <minimizedRMSD>  (1) 
1.23195744

$$$$
