
     RDKit          3D

 45 48  0  0  1  0  0  0  0  0999 V2000
   46.7820   33.9350   42.4180 N   0  0  0  0  0  0  0  0  0  0  0  0
   47.9130   34.4590   41.6700 C   0  0  0  0  0  0  0  0  0  0  0  0
   47.6000   33.9130   40.2980 C   0  0  0  0  0  0  0  0  0  0  0  0
   47.3420   32.4640   40.6300 C   0  0  0  0  0  0  0  0  0  0  0  0
   46.5870   32.5580   41.9210 C   0  0  2  0  0  0  0  0  0  0  0  0
   44.5540   36.2710   44.2500 C   0  0  0  0  0  0  0  0  0  0  0  0
   45.3120   35.7320   43.2050 C   0  0  0  0  0  0  0  0  0  0  0  0
   46.0000   34.5440   43.4110 C   0  0  0  0  0  0  0  0  0  0  0  0
   45.8900   33.9680   44.6420 N   0  0  0  0  0  0  0  0  0  0  0  0
   45.1530   34.5050   45.6380 C   0  0  0  0  0  0  0  0  0  0  0  0
   44.4910   35.6550   45.4300 N   0  0  0  0  0  0  0  0  0  0  0  0
   45.1620   33.7550   46.8530 N   0  0  0  0  0  0  0  0  0  0  0  0
   45.2320   32.1380   41.8850 N   0  0  0  0  0  0  0  0  0  0  0  0
   44.3130   32.4580   40.9820 C   0  0  0  0  0  0  0  0  0  0  0  0
   43.0050   31.9960   41.0270 C   0  0  0  0  0  0  0  0  0  0  0  0
   42.6160   31.1600   42.0560 C   0  0  0  0  0  0  0  0  0  0  0  0
   41.4290   30.7090   42.1430 O   0  0  0  0  0  0  0  0  0  0  0  0
   43.5450   30.8390   42.9660 N   0  0  0  0  0  0  0  0  0  0  0  0
   44.7810   31.3110   42.8700 C   0  0  0  0  0  0  0  0  0  0  0  0
   45.5950   30.9520   43.7800 O   0  0  0  0  0  0  0  0  0  0  0  0
   42.0110   32.3780   39.9920 C   0  0  0  0  0  0  0  0  0  0  0  0
   41.3820   33.6860   40.2720 C   0  0  0  0  0  0  0  0  0  0  0  0
   40.2580   34.2310   39.6770 C   0  0  0  0  0  0  0  0  0  0  0  0
   39.7640   35.4500   40.0200 C   0  0  0  0  0  0  0  0  0  0  0  0
   40.3860   36.1590   40.9730 N   0  0  0  0  0  0  0  0  0  0  0  0
   41.4970   35.6560   41.5840 C   0  0  0  0  0  0  0  0  0  0  0  0
   41.9700   34.4490   41.2300 N   0  0  0  0  0  0  0  0  0  0  0  0
   47.9317   35.5588   41.6765 H   0  0  0  0  0  0  0  0  0  0  0  0
   48.8996   34.1761   42.0658 H   0  0  0  0  0  0  0  0  0  0  0  0
   48.4521   34.0267   39.6117 H   0  0  0  0  0  0  0  0  0  0  0  0
   46.7710   34.4192   39.7817 H   0  0  0  0  0  0  0  0  0  0  0  0
   46.7371   31.9788   39.8499 H   0  0  0  0  0  0  0  0  0  0  0  0
   48.2585   31.8598   40.7003 H   0  0  0  0  0  0  0  0  0  0  0  0
   46.9966   31.8213   42.6278 H   0  0  0  0  0  0  0  0  0  0  0  0
   44.0051   37.2118   44.0963 H   0  0  0  0  0  0  0  0  0  0  0  0
   45.3622   36.2431   42.2323 H   0  0  0  0  0  0  0  0  0  0  0  0
   44.6275   34.0883   47.6679 H   0  0  0  0  0  0  0  0  0  0  0  0
   45.7030   32.8807   46.9145 H   0  0  0  0  0  0  0  0  0  0  0  0
   44.6031   33.1235   40.1556 H   0  0  0  0  0  0  0  0  0  0  0  0
   43.2967   30.2183   43.7496 H   0  0  0  0  0  0  0  0  0  0  0  0
   41.2256   31.6087   39.9552 H   0  0  0  0  0  0  0  0  0  0  0  0
   42.5406   32.4587   39.0313 H   0  0  0  0  0  0  0  0  0  0  0  0
   39.7432   33.6543   38.8945 H   0  0  0  0  0  0  0  0  0  0  0  0
   38.8673   35.8489   39.5231 H   0  0  0  0  0  0  0  0  0  0  0  0
   42.0057   36.2383   42.3664 H   0  0  0  0  0  0  0  0  0  0  0  0
  1  8  1  0
  2  1  1  0
  3  4  1  0
  3  2  1  0
  4  5  1  0
  5  1  1  0
  6 11  2  0
  7  8  2  0
  7  6  1  0
  8  9  1  0
  9 10  2  0
 10 12  1  0
 11 10  1  0
 13  5  1  0
 13 19  1  0
 14 15  2  0
 14 13  1  0
 15 16  1  0
 16 17  2  0
 16 18  1  0
 19 18  1  0
 19 20  2  0
 21 22  1  0
 21 15  1  0
 22 27  2  0
 23 24  2  0
 23 22  1  0
 24 25  1  0
 25 26  2  0
 27 26  1  0
  2 28  1  0
  2 29  1  0
  3 30  1  0
  3 31  1  0
  4 32  1  0
  4 33  1  0
  5 34  1  1
  6 35  1  0
  7 36  1  0
 12 37  1  0
 12 38  1  0
 14 39  1  0
 18 40  1  0
 21 41  1  0
 21 42  1  0
 23 43  1  0
 24 44  1  0
 26 45  1  0
M  ISO  8  28  13  29  13  30  13  31  13  32  13  33  13  34  13  35  14
M  ISO  8  36  14  39  14  40   9  41   8  42   8  43  14  44  14  45  14
M  END
>  <minimizedAffinity>  (1) 
-6.32576704

>  <minimizedRMSD>  (1) 
1.96309805

$$$$
