
     RDKit          3D

 43 46  0  0  1  0  0  0  0  0999 V2000
   46.6470   34.0640   42.3470 N   0  0  0  0  0  0  0  0  0  0  0  0
   47.7240   34.6620   41.5680 C   0  0  0  0  0  0  0  0  0  0  0  0
   47.3330   34.1930   40.1810 C   0  0  0  0  0  0  0  0  0  0  0  0
   47.1340   32.7230   40.4400 C   0  0  0  0  0  0  0  0  0  0  0  0
   46.4520   32.7210   41.7720 C   0  0  2  0  0  0  0  0  0  0  0  0
   44.4880   36.2120   44.4520 C   0  0  0  0  0  0  0  0  0  0  0  0
   45.1890   35.7610   43.3360 C   0  0  0  0  0  0  0  0  0  0  0  0
   45.9170   34.5860   43.4140 C   0  0  0  0  0  0  0  0  0  0  0  0
   45.8940   33.9350   44.6220 N   0  0  0  0  0  0  0  0  0  0  0  0
   45.2200   34.3710   45.6880 C   0  0  0  0  0  0  0  0  0  0  0  0
   44.5180   35.5120   45.5960 N   0  0  0  0  0  0  0  0  0  0  0  0
   45.3130   33.5610   46.8550 N   0  0  0  0  0  0  0  0  0  0  0  0
   45.1120   32.2560   41.8020 N   0  0  0  0  0  0  0  0  0  0  0  0
   44.1580   32.5430   40.9220 C   0  0  0  0  0  0  0  0  0  0  0  0
   42.8740   32.0550   41.0130 C   0  0  0  0  0  0  0  0  0  0  0  0
   42.5350   31.2160   42.0750 C   0  0  0  0  0  0  0  0  0  0  0  0
   41.3720   30.7310   42.2220 O   0  0  0  0  0  0  0  0  0  0  0  0
   43.5090   30.9360   42.9570 N   0  0  0  0  0  0  0  0  0  0  0  0
   44.7210   31.4380   42.8100 C   0  0  0  0  0  0  0  0  0  0  0  0
   45.5710   31.1120   43.6970 O   0  0  0  0  0  0  0  0  0  0  0  0
   41.8210   32.3700   40.0340 C   0  0  0  0  0  0  0  0  0  0  0  0
   41.3890   33.8140   40.1300 C   0  0  0  0  0  0  0  0  0  0  0  0
   40.9390   34.3920   41.3880 C   0  0  0  0  0  0  0  0  0  0  0  0
   40.5630   36.0790   40.9350 S   0  0  0  0  0  0  0  0  0  0  0  0
   41.0600   35.7800   39.1220 C   0  0  0  0  0  0  0  0  0  0  0  0
   41.4200   34.5650   39.0530 N   0  0  0  0  0  0  0  0  0  0  0  0
   47.7227   35.7594   41.6439 H   0  0  0  0  0  0  0  0  0  0  0  0
   48.7388   34.3795   41.8850 H   0  0  0  0  0  0  0  0  0  0  0  0
   48.1348   34.3725   39.4496 H   0  0  0  0  0  0  0  0  0  0  0  0
   46.4610   34.7067   39.7501 H   0  0  0  0  0  0  0  0  0  0  0  0
   46.4992   32.2651   39.6672 H   0  0  0  0  0  0  0  0  0  0  0  0
   48.0687   32.1433   40.4239 H   0  0  0  0  0  0  0  0  0  0  0  0
   46.9212   31.9512   42.4023 H   0  0  0  0  0  0  0  0  0  0  0  0
   43.9081   37.1450   44.3951 H   0  0  0  0  0  0  0  0  0  0  0  0
   45.1643   36.3352   42.3981 H   0  0  0  0  0  0  0  0  0  0  0  0
   44.8178   33.8377   47.7147 H   0  0  0  0  0  0  0  0  0  0  0  0
   45.8755   32.6983   46.8396 H   0  0  0  0  0  0  0  0  0  0  0  0
   44.4071   33.2037   40.0786 H   0  0  0  0  0  0  0  0  0  0  0  0
   43.3073   30.3214   43.7586 H   0  0  0  0  0  0  0  0  0  0  0  0
   40.9515   31.7235   40.2240 H   0  0  0  0  0  0  0  0  0  0  0  0
   42.2249   32.1973   39.0255 H   0  0  0  0  0  0  0  0  0  0  0  0
   40.8520   33.9099   42.3729 H   0  0  0  0  0  0  0  0  0  0  0  0
   41.0394   36.5117   38.3009 H   0  0  0  0  0  0  0  0  0  0  0  0
  1  8  1  0
  2  1  1  0
  3  4  1  0
  3  2  1  0
  4  5  1  0
  5 13  1  0
  5  1  1  0
  6 11  2  0
  7  8  2  0
  7  6  1  0
  8  9  1  0
  9 10  2  0
 10 12  1  0
 11 10  1  0
 13 19  1  0
 14 15  2  0
 14 13  1  0
 15 16  1  0
 16 17  2  0
 16 18  1  0
 19 18  1  0
 19 20  2  0
 21 22  1  0
 21 15  1  0
 22 23  2  0
 24 23  1  0
 25 24  1  0
 26 25  2  0
 26 22  1  0
  2 27  1  0
  2 28  1  0
  3 29  1  0
  3 30  1  0
  4 31  1  0
  4 32  1  0
  5 33  1  1
  6 34  1  0
  7 35  1  0
 12 36  1  0
 12 37  1  0
 14 38  1  0
 18 39  1  0
 21 40  1  0
 21 41  1  0
 23 42  1  0
 25 43  1  0
M  ISO  8  27  13  28  13  29  13  30  13  31  13  32  13  33  13  34  14
M  ISO  7  35  14  38  14  39   9  40   8  41   8  42  14  43  14
M  END
>  <minimizedAffinity>  (1) 
-6.13132572

>  <minimizedRMSD>  (1) 
1.85469592

$$$$
