
     RDKit          3D

 26 27  0  0  0  0  0  0  0  0999 V2000
   46.4430   34.3720   41.9830 N   0  0  0  0  0  0  0  0  0  0  0  0
   47.7040   34.5320   41.6020 C   0  0  0  0  0  0  0  0  0  0  0  0
   47.8030   34.1210   40.2590 C   0  0  0  0  0  0  0  0  0  0  0  0
   46.5920   33.7270   39.8670 N   0  0  0  0  0  0  0  0  0  0  0  0
   45.7370   33.8740   40.9190 C   0  0  0  0  0  0  0  0  0  0  0  0
   45.1480   35.8620   43.3260 C   0  0  0  0  0  0  0  0  0  0  0  0
   45.8610   34.6210   43.2230 C   0  0  0  0  0  0  0  0  0  0  0  0
   45.9170   33.7760   44.3450 C   0  0  0  0  0  0  0  0  0  0  0  0
   45.2880   34.1740   45.4920 N   0  0  0  0  0  0  0  0  0  0  0  0
   44.6190   35.3620   45.5500 C   0  0  0  0  0  0  0  0  0  0  0  0
   44.5480   36.2010   44.4770 N   0  0  0  0  0  0  0  0  0  0  0  0
   48.9140   35.0530   42.2670 C   0  0  0  0  0  0  0  0  0  0  0  0
   49.3990   36.3460   41.5990 C   0  0  0  0  0  0  0  0  0  0  0  0
   50.0420   34.0460   42.2800 C   0  0  0  0  0  0  0  0  0  0  0  0
   48.7153   34.1245   39.6444 H   0  0  0  0  0  0  0  0  0  0  0  0
   44.6635   33.6338   40.9145 H   0  0  0  0  0  0  0  0  0  0  0  0
   45.0933   36.5370   42.4591 H   0  0  0  0  0  0  0  0  0  0  0  0
   46.4542   32.8171   44.3013 H   0  0  0  0  0  0  0  0  0  0  0  0
   44.1231   35.6510   46.4884 H   0  0  0  0  0  0  0  0  0  0  0  0
   48.6267   35.2619   43.3081 H   0  0  0  0  0  0  0  0  0  0  0  0
   49.6735   37.0779   42.3729 H   0  0  0  0  0  0  0  0  0  0  0  0
   50.2766   36.1282   40.9725 H   0  0  0  0  0  0  0  0  0  0  0  0
   48.5947   36.7591   40.9725 H   0  0  0  0  0  0  0  0  0  0  0  0
   50.3089   33.8078   43.3202 H   0  0  0  0  0  0  0  0  0  0  0  0
   49.7207   33.1289   41.7646 H   0  0  0  0  0  0  0  0  0  0  0  0
   50.9170   34.4689   41.7646 H   0  0  0  0  0  0  0  0  0  0  0  0
  1  7  1  0
  2  1  1  0
  2 12  1  0
  3  2  2  0
  4  3  1  0
  4  5  2  0
  5  1  1  0
  6 11  2  0
  7  6  1  0
  7  8  2  0
  8  9  1  0
  9 10  2  0
 11 10  1  0
 12 14  1  0
 13 12  1  0
  3 15  1  0
  5 16  1  0
  6 17  1  0
  8 18  1  0
 10 19  1  0
 12 20  1  0
 13 21  1  0
 13 22  1  0
 13 23  1  0
 14 24  1  0
 14 25  1  0
 14 26  1  0
M  ISO  8  15  14  16  14  17  14  18  14  19  14  20   8  21   8  22   8
M  ISO  4  23   8  24   8  25   8  26   8
M  END
>  <minimizedAffinity>  (1) 
-4.7834487

>  <minimizedRMSD>  (1) 
3.47568417

$$$$
