
     RDKit          3D

 20 21  0  0  0  0  0  0  0  0999 V2000
   46.3060   34.2120   41.4260 N   0  0  0  0  0  0  0  0  0  0  0  0
   47.4570   34.5360   40.8420 C   0  0  0  0  0  0  0  0  0  0  0  0
   47.4560   33.9830   39.5620 C   0  0  0  0  0  0  0  0  0  0  0  0
   46.3000   33.3330   39.3890 N   0  0  0  0  0  0  0  0  0  0  0  0
   45.5720   33.4640   40.5350 C   0  0  0  0  0  0  0  0  0  0  0  0
   45.0850   35.7310   42.8220 C   0  0  0  0  0  0  0  0  0  0  0  0
   45.8400   34.5130   42.7060 C   0  0  0  0  0  0  0  0  0  0  0  0
   46.0360   33.7440   43.8440 C   0  0  0  0  0  0  0  0  0  0  0  0
   45.4950   34.1950   45.0180 N   0  0  0  0  0  0  0  0  0  0  0  0
   44.7830   35.3580   45.0880 C   0  0  0  0  0  0  0  0  0  0  0  0
   44.5790   36.1290   43.9800 N   0  0  0  0  0  0  0  0  0  0  0  0
   48.6160   35.3370   41.2980 C   0  0  0  0  0  0  0  0  0  0  0  0
   49.6970   34.5880   41.6960 F   0  0  0  0  0  0  0  0  0  0  0  0
   49.1180   36.1170   40.2310 F   0  0  0  0  0  0  0  0  0  0  0  0
   48.2580   36.3050   42.2480 F   0  0  0  0  0  0  0  0  0  0  0  0
   48.2659   34.0668   38.8224 H   0  0  0  0  0  0  0  0  0  0  0  0
   44.5714   33.0442   40.7154 H   0  0  0  0  0  0  0  0  0  0  0  0
   44.9233   36.3485   41.9261 H   0  0  0  0  0  0  0  0  0  0  0  0
   46.6064   32.8043   43.8044 H   0  0  0  0  0  0  0  0  0  0  0  0
   44.3665   35.6793   46.0541 H   0  0  0  0  0  0  0  0  0  0  0  0
  1  7  1  0
  2 12  1  0
  2  1  1  0
  3  2  2  0
  4  3  1  0
  4  5  2  0
  5  1  1  0
  6 11  2  0
  7  6  1  0
  7  8  2  0
  8  9  1  0
  9 10  2  0
 11 10  1  0
 12 13  1  0
 12 15  1  0
 14 12  1  0
  3 16  1  0
  5 17  1  0
  6 18  1  0
  8 19  1  0
 10 20  1  0
M  ISO  5  16  14  17  14  18  14  19  14  20  14
M  END
>  <minimizedAffinity>  (1) 
-4.72955227

>  <minimizedRMSD>  (1) 
3.35924649

$$$$
