
     RDKit          3D

 29 31  0  0  0  0  0  0  0  0999 V2000
   45.5100   33.9250   41.5150 N   0  0  0  0  0  0  0  0  0  0  0  0
   46.6120   33.9430   40.7990 C   0  0  0  0  0  0  0  0  0  0  0  0
   46.3470   33.5410   39.4980 C   0  0  0  0  0  0  0  0  0  0  0  0
   45.0360   33.2770   39.4450 N   0  0  0  0  0  0  0  0  0  0  0  0
   44.5250   33.5110   40.6770 C   0  0  0  0  0  0  0  0  0  0  0  0
   44.6870   35.5060   43.0930 C   0  0  0  0  0  0  0  0  0  0  0  0
   45.3200   34.2580   42.8500 C   0  0  0  0  0  0  0  0  0  0  0  0
   45.6720   33.5340   43.9680 C   0  0  0  0  0  0  0  0  0  0  0  0
   45.4040   34.0310   45.2020 N   0  0  0  0  0  0  0  0  0  0  0  0
   44.8030   35.2170   45.3890 C   0  0  0  0  0  0  0  0  0  0  0  0
   44.4450   35.9540   44.3200 N   0  0  0  0  0  0  0  0  0  0  0  0
   47.9490   34.2770   41.1370 N   0  0  0  0  0  0  0  0  0  0  0  0
   49.0170   33.2890   41.3230 C   0  0  0  0  0  0  0  0  0  0  0  0
   49.5070   33.7260   42.7090 C   0  0  0  0  0  0  0  0  0  0  0  0
   49.6960   35.2010   42.4770 C   0  0  0  0  0  0  0  0  0  0  0  0
   48.6570   35.4930   41.4070 C   0  0  0  0  0  0  0  0  0  0  0  0
   47.0705   33.4561   38.6738 H   0  0  0  0  0  0  0  0  0  0  0  0
   43.4689   33.3845   40.9573 H   0  0  0  0  0  0  0  0  0  0  0  0
   44.3862   36.1240   42.2341 H   0  0  0  0  0  0  0  0  0  0  0  0
   46.1678   32.5579   43.8609 H   0  0  0  0  0  0  0  0  0  0  0  0
   44.6046   35.5837   46.4069 H   0  0  0  0  0  0  0  0  0  0  0  0
   48.6304   32.2592   41.3277 H   0  0  0  0  0  0  0  0  0  0  0  0
   49.7840   33.2664   40.5348 H   0  0  0  0  0  0  0  0  0  0  0  0
   48.7544   33.5299   43.4869 H   0  0  0  0  0  0  0  0  0  0  0  0
   50.4034   33.1985   43.0670 H   0  0  0  0  0  0  0  0  0  0  0  0
   49.4983   35.7774   43.3928 H   0  0  0  0  0  0  0  0  0  0  0  0
   50.7205   35.4744   42.1842 H   0  0  0  0  0  0  0  0  0  0  0  0
   49.1529   35.8479   40.4915 H   0  0  0  0  0  0  0  0  0  0  0  0
   47.9617   36.2729   41.7509 H   0  0  0  0  0  0  0  0  0  0  0  0
  1  7  1  0
  2 12  1  0
  2  1  1  0
  3  2  2  0
  4  3  1  0
  4  5  2  0
  5  1  1  0
  6 11  2  0
  7  6  1  0
  7  8  2  0
  8  9  1  0
  9 10  2  0
 11 10  1  0
 12 13  1  0
 12 16  1  0
 13 14  1  0
 15 14  1  0
 16 15  1  0
  3 17  1  0
  5 18  1  0
  6 19  1  0
  8 20  1  0
 10 21  1  0
 13 22  1  0
 13 23  1  0
 14 24  1  0
 14 25  1  0
 15 26  1  0
 15 27  1  0
 16 28  1  0
 16 29  1  0
M  ISO  8  17  14  18  14  19  14  20  14  21  14  22  13  23  13  24  13
M  ISO  5  25  13  26  13  27  13  28  13  29  13
M  END
>  <minimizedAffinity>  (1) 
-4.62138319

>  <minimizedRMSD>  (1) 
3.34655452

$$$$
