
     RDKit          3D

 23 24  0  0  0  0  0  0  0  0999 V2000
   46.4250   34.3890   41.7560 N   0  0  0  0  0  0  0  0  0  0  0  0
   47.6580   34.5040   41.3280 C   0  0  0  0  0  0  0  0  0  0  0  0
   47.7420   34.1000   40.0080 C   0  0  0  0  0  0  0  0  0  0  0  0
   46.5330   33.7330   39.6380 N   0  0  0  0  0  0  0  0  0  0  0  0
   45.7150   33.9060   40.7050 C   0  0  0  0  0  0  0  0  0  0  0  0
   45.2360   35.9660   43.1230 C   0  0  0  0  0  0  0  0  0  0  0  0
   45.8470   34.6780   42.9890 C   0  0  0  0  0  0  0  0  0  0  0  0
   45.8040   33.8570   44.0890 C   0  0  0  0  0  0  0  0  0  0  0  0
   45.1980   34.3020   45.2190 N   0  0  0  0  0  0  0  0  0  0  0  0
   44.6360   35.5170   45.3070 C   0  0  0  0  0  0  0  0  0  0  0  0
   44.6560   36.3480   44.2580 N   0  0  0  0  0  0  0  0  0  0  0  0
   48.8750   34.9530   42.0450 C   0  0  0  0  0  0  0  0  0  0  0  0
   49.3290   36.3410   41.6120 C   0  0  0  0  0  0  0  0  0  0  0  0
   48.6483   34.0876   39.3847 H   0  0  0  0  0  0  0  0  0  0  0  0
   44.6370   33.6876   40.7172 H   0  0  0  0  0  0  0  0  0  0  0  0
   45.2463   36.6565   42.2668 H   0  0  0  0  0  0  0  0  0  0  0  0
   46.2539   32.8538   44.0548 H   0  0  0  0  0  0  0  0  0  0  0  0
   44.1565   35.8317   46.2457 H   0  0  0  0  0  0  0  0  0  0  0  0
   48.6617   34.9723   43.1239 H   0  0  0  0  0  0  0  0  0  0  0  0
   49.6837   34.2470   41.8049 H   0  0  0  0  0  0  0  0  0  0  0  0
   49.5299   36.9553   42.5021 H   0  0  0  0  0  0  0  0  0  0  0  0
   50.2461   36.2558   41.0106 H   0  0  0  0  0  0  0  0  0  0  0  0
   48.5388   36.8142   41.0106 H   0  0  0  0  0  0  0  0  0  0  0  0
  1  7  1  0
  2  1  1  0
  2 12  1  0
  3  2  2  0
  4  3  1  0
  4  5  2  0
  5  1  1  0
  6 11  2  0
  7  6  1  0
  7  8  2  0
  8  9  1  0
  9 10  2  0
 11 10  1  0
 13 12  1  0
  3 14  1  0
  5 15  1  0
  6 16  1  0
  8 17  1  0
 10 18  1  0
 12 19  1  0
 12 20  1  0
 13 21  1  0
 13 22  1  0
 13 23  1  0
M  ISO  8  14  14  15  14  16  14  17  14  18  14  19   8  20   8  21   8
M  ISO  2  22   8  23   8
M  END
>  <minimizedAffinity>  (1) 
-4.34748554

>  <minimizedRMSD>  (1) 
3.18010235

$$$$
