
     RDKit          3D

 30 32  0  0  0  0  0  0  0  0999 V2000
   44.2880   33.4010   42.1810 C   0  0  0  0  0  0  0  0  0  0  0  0
   45.2190   34.3520   42.0090 C   0  0  0  0  0  0  0  0  0  0  0  0
   46.4000   33.9920   43.3490 S   0  0  0  0  0  0  0  0  0  0  0  0
   45.3550   32.5290   43.9340 C   0  0  0  0  0  0  0  0  0  0  0  0
   44.4740   32.5700   43.1620 N   0  0  0  0  0  0  0  0  0  0  0  0
   45.8500   31.7980   45.0710 N   0  0  0  0  0  0  0  0  0  0  0  0
   46.6120   32.3710   46.0840 C   0  0  0  0  0  0  0  0  0  0  0  0
   46.4970   33.6590   46.2530 N   0  0  0  0  0  0  0  0  0  0  0  0
   47.4390   31.4500   46.8220 N   0  0  0  0  0  0  0  0  0  0  0  0
   47.1070   34.0730   46.9970 H   0  0  0  0  0  0  0  0  0  0  0  0
   41.0100   32.3310   40.5430 C   0  0  0  0  0  0  0  0  0  0  0  0
   42.0960   32.3630   41.4130 C   0  0  0  0  0  0  0  0  0  0  0  0
   43.1100   33.3290   41.2750 C   0  0  0  0  0  0  0  0  0  0  0  0
   42.9330   34.1920   40.2480 N   0  0  0  0  0  0  0  0  0  0  0  0
   41.8870   34.1640   39.4070 C   0  0  0  0  0  0  0  0  0  0  0  0
   40.9430   33.2470   39.5560 N   0  0  0  0  0  0  0  0  0  0  0  0
   41.7960   35.1470   38.3320 C   0  0  0  0  0  0  0  0  0  0  0  0
   40.6390   35.6460   37.7730 C   0  0  0  0  0  0  0  0  0  0  0  0
   40.9750   36.5350   36.8020 N   0  0  0  0  0  0  0  0  0  0  0  0
   42.3370   36.6040   36.7420 C   0  0  0  0  0  0  0  0  0  0  0  0
   42.7970   35.7580   37.6720 N   0  0  0  0  0  0  0  0  0  0  0  0
   45.2591   35.1478   41.2507 H   0  0  0  0  0  0  0  0  0  0  0  0
   45.6275   30.7946   45.1383 H   0  0  0  0  0  0  0  0  0  0  0  0
   48.0344   31.7935   47.5891 H   0  0  0  0  0  0  0  0  0  0  0  0
   47.4347   30.4483   46.5824 H   0  0  0  0  0  0  0  0  0  0  0  0
   40.2214   31.5728   40.6585 H   0  0  0  0  0  0  0  0  0  0  0  0
   42.1628   31.6207   42.2220 H   0  0  0  0  0  0  0  0  0  0  0  0
   39.6147   35.3705   38.0644 H   0  0  0  0  0  0  0  0  0  0  0  0
   42.9368   37.2298   36.0647 H   0  0  0  0  0  0  0  0  0  0  0  0
   43.7965   35.5945   37.8597 H   0  0  0  0  0  0  0  0  0  0  0  0
  1  5  1  0
  2  1  2  0
  2  3  1  0
  3  4  1  0
  4  6  1  0
  5  4  2  0
  6  7  1  0
  7  8  2  0
  7  9  1  0
  8 10  1  0
 11 12  2  0
 13 12  1  0
 13  1  1  0
 14 13  2  0
 15 16  2  0
 15 14  1  0
 16 11  1  0
 17 15  1  0
 18 17  2  0
 19 18  1  0
 20 19  2  0
 20 21  1  0
 21 17  1  0
  2 22  1  0
  6 23  1  0
  9 24  1  0
  9 25  1  0
 11 26  1  0
 12 27  1  0
 18 28  1  0
 20 29  1  0
 21 30  1  0
M  ISO  6  22  14  26  14  27  14  28  14  29  14  30   9
M  END
>  <minimizedAffinity>  (1) 
-4.85653973

>  <minimizedRMSD>  (1) 
1.99877822

$$$$
