
     RDKit          3D

 24 25  0  0  0  0  0  0  0  0999 V2000
   42.9340   34.6250   41.1690 N   0  0  0  0  0  0  0  0  0  0  0  0
   43.1230   34.5260   39.8560 C   0  0  0  0  0  0  0  0  0  0  0  0
   41.9130   34.9360   39.2550 C   0  0  0  0  0  0  0  0  0  0  0  0
   41.0520   35.2640   40.2250 N   0  0  0  0  0  0  0  0  0  0  0  0
   41.6610   35.0800   41.4070 C   0  0  0  0  0  0  0  0  0  0  0  0
   44.3080   35.4800   42.9250 C   0  0  0  0  0  0  0  0  0  0  0  0
   43.8580   34.3220   42.1990 C   0  0  0  0  0  0  0  0  0  0  0  0
   44.3350   33.0510   42.5290 C   0  0  0  0  0  0  0  0  0  0  0  0
   45.2360   32.9780   43.5580 N   0  0  0  0  0  0  0  0  0  0  0  0
   45.6530   34.0860   44.2370 C   0  0  0  0  0  0  0  0  0  0  0  0
   45.1810   35.3240   43.9090 N   0  0  0  0  0  0  0  0  0  0  0  0
   44.2460   34.1610   39.0780 N   0  0  0  0  0  0  0  0  0  0  0  0
   44.1440   33.4600   37.8330 C   0  0  0  0  0  0  0  0  0  0  0  0
   43.1500   32.6090   37.7020 N   0  0  0  0  0  0  0  0  0  0  0  0
   45.0820   33.6580   36.7510 N   0  0  0  0  0  0  0  0  0  0  0  0
   43.0860   32.1060   36.7940 H   0  0  0  0  0  0  0  0  0  0  0  0
   41.7125   34.9785   38.1743 H   0  0  0  0  0  0  0  0  0  0  0  0
   41.2163   35.2625   42.3964 H   0  0  0  0  0  0  0  0  0  0  0  0
   43.9322   36.4810   42.6664 H   0  0  0  0  0  0  0  0  0  0  0  0
   44.0030   32.1523   41.9885 H   0  0  0  0  0  0  0  0  0  0  0  0
   46.3776   33.9801   45.0578 H   0  0  0  0  0  0  0  0  0  0  0  0
   45.1834   34.4115   39.4235 H   0  0  0  0  0  0  0  0  0  0  0  0
   44.9721   33.1331   35.8716 H   0  0  0  0  0  0  0  0  0  0  0  0
   45.8602   34.3240   36.8595 H   0  0  0  0  0  0  0  0  0  0  0  0
  1  5  1  0
  1  7  1  0
  2  1  1  0
  3  2  2  0
  3  4  1  0
  4  5  2  0
  6 11  2  0
  7  8  2  0
  7  6  1  0
  8  9  1  0
  9 10  2  0
 11 10  1  0
 12  2  1  0
 13 12  1  0
 14 13  2  0
 15 13  1  0
 16 14  1  0
  3 17  1  0
  5 18  1  0
  6 19  1  0
  8 20  1  0
 10 21  1  0
 12 22  1  0
 15 23  1  0
 15 24  1  0
M  ISO  5  17  14  18  14  19  14  20  14  21  14
M  END
>  <minimizedAffinity>  (1) 
-4.15047169

>  <minimizedRMSD>  (1) 
1.62016726

$$$$
