
     RDKit          3D

 37 40  0  0  1  0  0  0  0  0999 V2000
   47.9360   35.5240   41.9630 C   0  0  2  0  0  0  0  0  0  0  0  0
   49.1170   35.6730   41.0560 C   0  0  0  0  0  0  0  0  0  0  0  0
   49.3090   34.9470   42.3120 C   0  0  2  0  0  0  0  0  0  0  0  0
   45.8600   34.0790   42.3010 N   0  0  0  0  0  0  0  0  0  0  0  0
   46.8450   34.5850   41.6170 C   0  0  0  0  0  0  0  0  0  0  0  0
   46.8120   34.1250   40.3060 C   0  0  0  0  0  0  0  0  0  0  0  0
   45.7620   33.3140   40.2210 N   0  0  0  0  0  0  0  0  0  0  0  0
   45.1600   33.2690   41.4380 C   0  0  0  0  0  0  0  0  0  0  0  0
   44.7890   35.4900   43.8940 C   0  0  0  0  0  0  0  0  0  0  0  0
   45.5010   34.2630   43.6330 C   0  0  0  0  0  0  0  0  0  0  0  0
   45.7370   33.4420   44.6990 C   0  0  0  0  0  0  0  0  0  0  0  0
   45.2860   33.8380   45.9190 N   0  0  0  0  0  0  0  0  0  0  0  0
   44.6290   34.9770   46.1380 C   0  0  0  0  0  0  0  0  0  0  0  0
   44.3700   35.8250   45.1170 N   0  0  0  0  0  0  0  0  0  0  0  0
   50.2400   30.7680   42.4430 C   0  0  0  0  0  0  0  0  0  0  0  0
   51.0500   31.7140   41.8490 C   0  0  0  0  0  0  0  0  0  0  0  0
   50.6740   33.0640   41.8540 C   0  0  0  0  0  0  0  0  0  0  0  0
   49.4920   33.5020   42.4470 C   0  0  0  0  0  0  0  0  0  0  0  0
   48.7160   32.5310   43.0250 C   0  0  0  0  0  0  0  0  0  0  0  0
   49.0680   31.1990   43.0300 C   0  0  0  0  0  0  0  0  0  0  0  0
   50.7100   29.0840   42.4350 S   0  0  0  0  0  0  0  0  0  0  0  0
   52.1980   28.8960   42.4350 O   0  0  0  0  0  0  0  0  0  0  0  0
   50.0820   28.4340   43.6270 O   0  0  0  0  0  0  0  0  0  0  0  0
   47.2164   36.2149   42.4264 H   0  0  0  0  0  0  0  0  0  0  0  0
   49.1426   35.1256   40.1022 H   0  0  0  0  0  0  0  0  0  0  0  0
   49.6164   36.5331   40.5861 H   0  0  0  0  0  0  0  0  0  0  0  0
   50.0462   35.0404   43.1230 H   0  0  0  0  0  0  0  0  0  0  0  0
   47.5147   34.3810   39.4993 H   0  0  0  0  0  0  0  0  0  0  0  0
   44.2637   32.6834   41.6905 H   0  0  0  0  0  0  0  0  0  0  0  0
   44.5841   36.1734   43.0568 H   0  0  0  0  0  0  0  0  0  0  0  0
   46.2749   32.4906   44.5743 H   0  0  0  0  0  0  0  0  0  0  0  0
   44.2955   35.2287   47.1556 H   0  0  0  0  0  0  0  0  0  0  0  0
   51.9922   31.4081   41.3708 H   0  0  0  0  0  0  0  0  0  0  0  0
   51.3337   33.8018   41.3740 H   0  0  0  0  0  0  0  0  0  0  0  0
   47.7720   32.8280   43.5053 H   0  0  0  0  0  0  0  0  0  0  0  0
   48.4030   30.4662   43.5104 H   0  0  0  0  0  0  0  0  0  0  0  0
   50.2710   28.5006   41.2758 H   0  0  0  0  0  0  0  0  0  0  0  0
  1  3  1  0
  2  1  1  0
  2  3  1  0
  3 18  1  0
  4 10  1  0
  5  1  1  0
  5  4  1  0
  6  5  2  0
  7  6  1  0
  7  8  2  0
  8  4  1  0
  9 14  2  0
 10  9  1  0
 10 11  2  0
 11 12  1  0
 12 13  2  0
 14 13  1  0
 15 20  2  0
 16 17  2  0
 16 15  1  0
 17 18  1  0
 18 19  2  0
 19 20  1  0
 21 15  1  0
 21 23  2  0
 22 21  2  0
  1 24  1  1
  2 25  1  0
  2 26  1  0
  3 27  1  1
  6 28  1  0
  8 29  1  0
  9 30  1  0
 11 31  1  0
 13 32  1  0
 16 33  1  0
 17 34  1  0
 19 35  1  0
 20 36  1  0
 21 37  1  0
M  ISO  8  24  13  25  13  26  13  27  13  28  14  29  14  30  14  31  14
M  ISO  6  32  14  33  14  34  14  35  14  36  14  37  11
M  END
>  <minimizedAffinity>  (1) 
-5.15821648

>  <minimizedRMSD>  (1) 
1.1549108

$$$$
