
     RDKit          3D

 43 44  0  0  0  0  0  0  0  0999 V2000
   45.9450   32.2530   38.0180 C   0  0  0  0  0  0  0  0  0  0  0  0
   45.6050   34.3580   41.0080 C   0  0  0  0  0  0  0  0  0  0  0  0
   46.9110   34.6670   41.3540 C   0  0  0  0  0  0  0  0  0  0  0  0
   47.9510   34.1530   40.5570 C   0  0  0  0  0  0  0  0  0  0  0  0
   47.6090   33.3840   39.4950 N   0  0  0  0  0  0  0  0  0  0  0  0
   46.3000   33.1040   39.1910 C   0  0  0  0  0  0  0  0  0  0  0  0
   45.3490   33.5950   39.9500 N   0  0  0  0  0  0  0  0  0  0  0  0
   44.5380   34.8900   41.8350 C   0  0  0  0  0  0  0  0  0  0  0  0
   43.7370   35.7430   41.3390 O   0  0  0  0  0  0  0  0  0  0  0  0
   44.4440   34.4250   43.1650 O   0  0  0  0  0  0  0  0  0  0  0  0
   45.0250   35.1910   44.1850 C   0  0  0  0  0  0  0  0  0  0  0  0
   44.1730   35.4170   45.2530 F   0  0  0  0  0  0  0  0  0  0  0  0
   46.1490   34.5580   44.6650 F   0  0  0  0  0  0  0  0  0  0  0  0
   45.3230   36.4230   43.6260 F   0  0  0  0  0  0  0  0  0  0  0  0
   45.2140   31.0080   38.4110 C   0  0  0  0  0  0  0  0  0  0  0  0
   45.0820   33.0700   37.1210 C   0  0  0  0  0  0  0  0  0  0  0  0
   47.2340   31.9080   37.3450 C   0  0  0  0  0  0  0  0  0  0  0  0
   47.4080   32.2090   35.9790 N   0  0  0  0  0  0  0  0  0  0  0  0
   47.4040   30.8980   35.2880 C   0  0  0  0  0  0  0  0  0  0  0  0
   47.0640   31.0440   33.8240 C   0  0  0  0  0  0  0  0  0  0  0  0
   47.7820   32.2740   33.3170 C   0  0  0  0  0  0  0  0  0  0  0  0
   49.0340   32.4660   34.1700 C   0  0  0  0  0  0  0  0  0  0  0  0
   48.5540   32.9200   35.5510 C   0  0  0  0  0  0  0  0  0  0  0  0
   47.1290   35.2975   42.2286 H   0  0  0  0  0  0  0  0  0  0  0  0
   49.0047   34.3681   40.7882 H   0  0  0  0  0  0  0  0  0  0  0  0
   45.1728   30.9378   39.5080 H   0  0  0  0  0  0  0  0  0  0  0  0
   44.1914   31.0402   38.0070 H   0  0  0  0  0  0  0  0  0  0  0  0
   45.7404   30.1307   38.0070 H   0  0  0  0  0  0  0  0  0  0  0  0
   44.4158   33.7007   37.7279 H   0  0  0  0  0  0  0  0  0  0  0  0
   45.7138   33.7087   36.4862 H   0  0  0  0  0  0  0  0  0  0  0  0
   44.4789   32.4042   36.4862 H   0  0  0  0  0  0  0  0  0  0  0  0
   48.0307   32.4334   37.8920 H   0  0  0  0  0  0  0  0  0  0  0  0
   47.2516   30.8084   37.3706 H   0  0  0  0  0  0  0  0  0  0  0  0
   48.4012   30.4429   35.3795 H   0  0  0  0  0  0  0  0  0  0  0  0
   46.6386   30.2630   35.7580 H   0  0  0  0  0  0  0  0  0  0  0  0
   47.4005   30.1559   33.2689 H   0  0  0  0  0  0  0  0  0  0  0  0
   45.9773   31.1416   33.6841 H   0  0  0  0  0  0  0  0  0  0  0  0
   48.0645   32.1350   32.2630 H   0  0  0  0  0  0  0  0  0  0  0  0
   47.1295   33.1568   33.3866 H   0  0  0  0  0  0  0  0  0  0  0  0
   49.5866   31.5185   34.2524 H   0  0  0  0  0  0  0  0  0  0  0  0
   49.7114   33.2073   33.7209 H   0  0  0  0  0  0  0  0  0  0  0  0
   49.3633   32.7582   36.2782 H   0  0  0  0  0  0  0  0  0  0  0  0
   48.2848   33.9843   35.4818 H   0  0  0  0  0  0  0  0  0  0  0  0
  1 15  1  0
  1  6  1  0
  2  3  2  0
  2  8  1  0
  4  3  1  0
  5  4  2  0
  6  5  1  0
  6  7  2  0
  7  2  1  0
  8 10  1  0
  9  8  2  0
 10 11  1  0
 11 13  1  0
 11 12  1  0
 14 11  1  0
 16  1  1  0
 17  1  1  0
 18 17  1  0
 19 18  1  0
 20 19  1  0
 21 20  1  0
 21 22  1  0
 22 23  1  0
 23 18  1  0
  3 24  1  0
  4 25  1  0
 15 26  1  0
 15 27  1  0
 15 28  1  0
 16 29  1  0
 16 30  1  0
 16 31  1  0
 17 32  1  0
 17 33  1  0
 19 34  1  0
 19 35  1  0
 20 36  1  0
 20 37  1  0
 21 38  1  0
 21 39  1  0
 22 40  1  0
 22 41  1  0
 23 42  1  0
 23 43  1  0
M  ISO  8  24  14  25  14  26   8  27   8  28   8  29   8  30   8  31   8
M  ISO  8  32   8  33   8  34  13  35  13  36  13  37  13  38  13  39  13
M  ISO  4  40  13  41  13  42  13  43  13
M  END
>  <minimizedAffinity>  (1) 
-4.5539546

>  <minimizedRMSD>  (1) 
0.721885026

$$$$
