
     RDKit          3D

 25 27  0  0  1  0  0  0  0  0999 V2000
   45.8740   34.0890   42.3090 N   0  0  0  0  0  0  0  0  0  0  0  0
   46.8960   34.5580   41.6520 C   0  0  0  0  0  0  0  0  0  0  0  0
   46.8350   34.1240   40.3180 C   0  0  0  0  0  0  0  0  0  0  0  0
   45.7280   33.3750   40.2100 N   0  0  0  0  0  0  0  0  0  0  0  0
   45.1300   33.3450   41.4190 C   0  0  0  0  0  0  0  0  0  0  0  0
   44.8000   35.4250   43.9530 C   0  0  0  0  0  0  0  0  0  0  0  0
   45.5290   34.2480   43.6410 C   0  0  0  0  0  0  0  0  0  0  0  0
   45.8080   33.3910   44.6980 C   0  0  0  0  0  0  0  0  0  0  0  0
   45.3790   33.7230   45.9370 N   0  0  0  0  0  0  0  0  0  0  0  0
   44.6930   34.8420   46.1920 C   0  0  0  0  0  0  0  0  0  0  0  0
   44.4010   35.6950   45.2110 N   0  0  0  0  0  0  0  0  0  0  0  0
   48.0240   35.4270   42.0190 C   0  0  2  0  0  0  0  0  0  0  0  0
   49.1060   35.7000   41.0000 C   0  0  0  0  0  0  0  0  0  0  0  0
   49.4050   34.8020   42.1580 C   0  0  1  0  0  0  0  0  0  0  0  0
   50.2830   35.2570   43.1120 O   0  0  0  0  0  0  0  0  0  0  0  0
   47.5544   34.3535   39.5182 H   0  0  0  0  0  0  0  0  0  0  0  0
   44.1976   32.8119   41.6564 H   0  0  0  0  0  0  0  0  0  0  0  0
   44.5549   36.1338   43.1483 H   0  0  0  0  0  0  0  0  0  0  0  0
   46.3678   32.4590   44.5304 H   0  0  0  0  0  0  0  0  0  0  0  0
   44.3672   35.0601   47.2197 H   0  0  0  0  0  0  0  0  0  0  0  0
   47.3741   36.0501   42.6510 H   0  0  0  0  0  0  0  0  0  0  0  0
   49.0234   35.2787   39.9872 H   0  0  0  0  0  0  0  0  0  0  0  0
   49.5677   36.6093   40.5877 H   0  0  0  0  0  0  0  0  0  0  0  0
   49.7647   33.7708   42.2896 H   0  0  0  0  0  0  0  0  0  0  0  0
   49.9185   35.0681   44.0129 H   0  0  0  0  0  0  0  0  0  0  0  0
  1  7  1  0
  2 12  1  0
  2  1  1  0
  3  2  2  0
  4  3  1  0
  4  5  2  0
  5  1  1  0
  6 11  2  0
  7  6  1  0
  7  8  2  0
  8  9  1  0
  9 10  2  0
 11 10  1  0
 12 14  1  0
 13 12  1  0
 13 14  1  0
 14 15  1  0
  3 16  1  0
  5 17  1  0
  6 18  1  0
  8 19  1  0
 10 20  1  0
 12 21  1  1
 13 22  1  0
 13 23  1  0
 14 24  1  6
 15 25  1  0
M  ISO  8  16  14  17  14  18  14  19  14  20  14  21  13  22  13  23  13
M  ISO  2  24  13  25   3
M  END
>  <minimizedAffinity>  (1) 
-5.13817596

>  <minimizedRMSD>  (1) 
0.279809207

$$$$
