
     RDKit          3D

 34 37  0  0  1  0  0  0  0  0999 V2000
   45.7120   34.0380   42.2670 N   0  0  0  0  0  0  0  0  0  0  0  0
   46.7120   34.5040   41.5600 C   0  0  0  0  0  0  0  0  0  0  0  0
   46.6090   34.0550   40.2500 C   0  0  0  0  0  0  0  0  0  0  0  0
   45.5040   33.2930   40.1870 N   0  0  0  0  0  0  0  0  0  0  0  0
   44.9450   33.2780   41.4270 C   0  0  0  0  0  0  0  0  0  0  0  0
   44.7280   35.4520   43.9160 C   0  0  0  0  0  0  0  0  0  0  0  0
   45.4150   34.2310   43.6180 C   0  0  0  0  0  0  0  0  0  0  0  0
   45.6980   33.4010   44.6800 C   0  0  0  0  0  0  0  0  0  0  0  0
   45.3210   33.7740   45.9230 N   0  0  0  0  0  0  0  0  0  0  0  0
   44.6720   34.9370   46.1640 C   0  0  0  0  0  0  0  0  0  0  0  0
   44.3780   35.7700   45.1660 N   0  0  0  0  0  0  0  0  0  0  0  0
   47.8480   35.3850   41.8670 C   0  0  2  0  0  0  0  0  0  0  0  0
   48.9530   35.5640   40.8600 C   0  0  0  0  0  0  0  0  0  0  0  0
   49.2410   34.7830   42.0570 C   0  0  2  0  0  0  0  0  0  0  0  0
   49.2260   33.3260   42.1770 C   0  0  0  0  0  0  0  0  0  0  0  0
   49.8220   32.6640   41.0930 C   0  0  0  0  0  0  0  0  0  0  0  0
   49.8980   31.2730   41.0080 C   0  0  0  0  0  0  0  0  0  0  0  0
   49.3760   30.4980   42.0090 C   0  0  0  0  0  0  0  0  0  0  0  0
   48.7850   31.1260   43.0850 C   0  0  0  0  0  0  0  0  0  0  0  0
   48.7230   32.5020   43.1440 C   0  0  0  0  0  0  0  0  0  0  0  0
   47.2989   34.2798   39.4233 H   0  0  0  0  0  0  0  0  0  0  0  0
   44.0264   32.7423   41.7083 H   0  0  0  0  0  0  0  0  0  0  0  0
   44.4828   36.1441   43.0969 H   0  0  0  0  0  0  0  0  0  0  0  0
   46.2234   32.4481   44.5188 H   0  0  0  0  0  0  0  0  0  0  0  0
   44.3844   35.1972   47.1934 H   0  0  0  0  0  0  0  0  0  0  0  0
   47.1849   36.0498   42.4400 H   0  0  0  0  0  0  0  0  0  0  0  0
   48.8869   35.0601   39.8844 H   0  0  0  0  0  0  0  0  0  0  0  0
   49.4219   36.4388   40.3859 H   0  0  0  0  0  0  0  0  0  0  0  0
   50.1109   34.8353   42.7282 H   0  0  0  0  0  0  0  0  0  0  0  0
   50.2469   33.2662   40.2764 H   0  0  0  0  0  0  0  0  0  0  0  0
   50.3766   30.7998   40.1380 H   0  0  0  0  0  0  0  0  0  0  0  0
   49.4269   29.4005   41.9560 H   0  0  0  0  0  0  0  0  0  0  0  0
   48.3599   30.5247   43.9022 H   0  0  0  0  0  0  0  0  0  0  0  0
   48.2413   32.9626   44.0191 H   0  0  0  0  0  0  0  0  0  0  0  0
  1  7  1  0
  2 12  1  0
  2  1  1  0
  3  2  2  0
  4  3  1  0
  4  5  2  0
  5  1  1  0
  6 11  2  0
  7  6  1  0
  7  8  2  0
  8  9  1  0
  9 10  2  0
 11 10  1  0
 12 14  1  0
 13 12  1  0
 13 14  1  0
 14 15  1  0
 15 20  1  0
 16 15  2  0
 17 16  1  0
 17 18  2  0
 18 19  1  0
 19 20  2  0
  3 21  1  0
  5 22  1  0
  6 23  1  0
  8 24  1  0
 10 25  1  0
 12 26  1  1
 13 27  1  0
 13 28  1  0
 14 29  1  1
 16 30  1  0
 17 31  1  0
 18 32  1  0
 19 33  1  0
 20 34  1  0
M  ISO  8  21  14  22  14  23  14  24  14  25  14  26  13  27  13  28  13
M  ISO  6  29  13  30  14  31  14  32  14  33  14  34  14
M  END
>  <minimizedAffinity>  (1) 
-4.94457245

>  <minimizedRMSD>  (1) 
0.651781857

$$$$
