
     RDKit          3D

 31 34  0  0  1  0  0  0  0  0999 V2000
   45.9300   34.1350   42.3330 N   0  0  0  0  0  0  0  0  0  0  0  0
   46.9520   34.6230   41.6840 C   0  0  0  0  0  0  0  0  0  0  0  0
   46.9400   34.1820   40.3670 C   0  0  0  0  0  0  0  0  0  0  0  0
   45.8690   33.4040   40.2400 N   0  0  0  0  0  0  0  0  0  0  0  0
   45.2360   33.3630   41.4360 C   0  0  0  0  0  0  0  0  0  0  0  0
   44.8150   35.5320   43.9160 C   0  0  0  0  0  0  0  0  0  0  0  0
   45.5380   34.3100   43.6590 C   0  0  0  0  0  0  0  0  0  0  0  0
   45.7540   33.4750   44.7220 C   0  0  0  0  0  0  0  0  0  0  0  0
   45.2740   33.8560   45.9390 N   0  0  0  0  0  0  0  0  0  0  0  0
   44.6090   34.9930   46.1480 C   0  0  0  0  0  0  0  0  0  0  0  0
   44.3680   35.8530   45.1320 N   0  0  0  0  0  0  0  0  0  0  0  0
   48.0620   35.5240   42.0720 C   0  0  2  0  0  0  0  0  0  0  0  0
   49.1650   35.7860   41.0860 C   0  0  0  0  0  0  0  0  0  0  0  0
   49.4390   34.9850   42.2920 C   0  0  2  0  0  0  0  0  0  0  0  0
   49.6140   33.5800   42.3930 C   0  0  0  0  0  0  0  0  0  0  0  0
   50.7780   33.0530   41.9600 C   0  0  0  0  0  0  0  0  0  0  0  0
   51.1080   31.7430   41.9820 C   0  0  0  0  0  0  0  0  0  0  0  0
   50.0440   30.9160   42.5430 C   0  0  0  0  0  0  0  0  0  0  0  0
   48.6580   32.1190   42.9870 S   0  0  0  0  0  0  0  0  0  0  0  0
   47.6720   34.4278   39.5836 H   0  0  0  0  0  0  0  0  0  0  0  0
   44.3151   32.8020   41.6532 H   0  0  0  0  0  0  0  0  0  0  0  0
   44.6257   36.2227   43.0811 H   0  0  0  0  0  0  0  0  0  0  0  0
   46.2976   32.5268   44.5977 H   0  0  0  0  0  0  0  0  0  0  0  0
   44.2518   35.2347   47.1599 H   0  0  0  0  0  0  0  0  0  0  0  0
   47.3654   36.1349   42.6649 H   0  0  0  0  0  0  0  0  0  0  0  0
   49.1450   35.3022   40.0983 H   0  0  0  0  0  0  0  0  0  0  0  0
   49.6062   36.6879   40.6367 H   0  0  0  0  0  0  0  0  0  0  0  0
   50.2512   35.0557   43.0305 H   0  0  0  0  0  0  0  0  0  0  0  0
   51.5242   33.7514   41.5532 H   0  0  0  0  0  0  0  0  0  0  0  0
   52.0674   31.3457   41.6192 H   0  0  0  0  0  0  0  0  0  0  0  0
   50.0486   29.8244   42.6783 H   0  0  0  0  0  0  0  0  0  0  0  0
  1  7  1  0
  2 12  1  0
  2  1  1  0
  3  2  2  0
  4  3  1  0
  4  5  2  0
  5  1  1  0
  6 11  2  0
  7  6  1  0
  7  8  2  0
  8  9  1  0
  9 10  2  0
 11 10  1  0
 12 14  1  0
 13 12  1  0
 13 14  1  0
 14 15  1  0
 15 19  1  0
 16 17  1  0
 16 15  2  0
 17 18  2  0
 18 19  1  0
  3 20  1  0
  5 21  1  0
  6 22  1  0
  8 23  1  0
 10 24  1  0
 12 25  1  1
 13 26  1  0
 13 27  1  0
 14 28  1  1
 16 29  1  0
 17 30  1  0
 18 31  1  0
M  ISO  8  20  14  21  14  22  14  23  14  24  14  25  13  26  13  27  13
M  ISO  4  28  13  29  14  30  14  31  14
M  END
>  <minimizedAffinity>  (1) 
-5.09916306

>  <minimizedRMSD>  (1) 
0.548611403

$$$$
