
     RDKit          3D

 31 34  0  0  1  0  0  0  0  0999 V2000
   45.6840   34.0340   42.2440 N   0  0  0  0  0  0  0  0  0  0  0  0
   46.6790   34.5030   41.5460 C   0  0  0  0  0  0  0  0  0  0  0  0
   46.5180   34.0810   40.2090 C   0  0  0  0  0  0  0  0  0  0  0  0
   45.4030   33.3570   40.1630 N   0  0  0  0  0  0  0  0  0  0  0  0
   44.8770   33.3190   41.4100 C   0  0  0  0  0  0  0  0  0  0  0  0
   44.7240   35.4010   43.9560 C   0  0  0  0  0  0  0  0  0  0  0  0
   45.4230   34.1920   43.6000 C   0  0  0  0  0  0  0  0  0  0  0  0
   45.7460   33.3430   44.6400 C   0  0  0  0  0  0  0  0  0  0  0  0
   45.4020   33.6740   45.9000 N   0  0  0  0  0  0  0  0  0  0  0  0
   44.7490   34.8100   46.2060 C   0  0  0  0  0  0  0  0  0  0  0  0
   44.4100   35.6740   45.2300 N   0  0  0  0  0  0  0  0  0  0  0  0
   47.8610   35.3460   41.8540 C   0  0  2  0  0  0  0  0  0  0  0  0
   48.9070   35.5400   40.7960 C   0  0  0  0  0  0  0  0  0  0  0  0
   49.2180   34.6650   41.9600 C   0  0  2  0  0  0  0  0  0  0  0  0
   49.2770   33.2430   41.8460 N   0  0  0  0  0  0  0  0  0  0  0  0
   49.5380   32.3130   40.9120 C   0  0  0  0  0  0  0  0  0  0  0  0
   49.4310   31.0360   41.4280 C   0  0  0  0  0  0  0  0  0  0  0  0
   49.0950   31.2250   42.7180 N   0  0  0  0  0  0  0  0  0  0  0  0
   48.9980   32.5460   42.9850 C   0  0  0  0  0  0  0  0  0  0  0  0
   47.1870   34.3076   39.3657 H   0  0  0  0  0  0  0  0  0  0  0  0
   43.9529   32.7982   41.7014 H   0  0  0  0  0  0  0  0  0  0  0  0
   44.4427   36.1136   43.1667 H   0  0  0  0  0  0  0  0  0  0  0  0
   46.2807   32.4025   44.4411 H   0  0  0  0  0  0  0  0  0  0  0  0
   44.4923   35.0328   47.2522 H   0  0  0  0  0  0  0  0  0  0  0  0
   47.2629   36.0149   42.4903 H   0  0  0  0  0  0  0  0  0  0  0  0
   48.7661   35.0951   39.7999 H   0  0  0  0  0  0  0  0  0  0  0  0
   49.3894   36.4177   40.3410 H   0  0  0  0  0  0  0  0  0  0  0  0
   50.0438   34.6345   42.6860 H   0  0  0  0  0  0  0  0  0  0  0  0
   49.8032   32.5397   39.8688 H   0  0  0  0  0  0  0  0  0  0  0  0
   49.5853   30.0813   40.9038 H   0  0  0  0  0  0  0  0  0  0  0  0
   48.7374   32.9862   43.9588 H   0  0  0  0  0  0  0  0  0  0  0  0
  1  7  1  0
  2 12  1  0
  2  1  1  0
  3  2  2  0
  4  3  1  0
  4  5  2  0
  5  1  1  0
  6 11  2  0
  7  6  1  0
  7  8  2  0
  8  9  1  0
  9 10  2  0
 11 10  1  0
 12 14  1  0
 13 12  1  0
 13 14  1  0
 15 14  1  0
 15 19  1  0
 16 17  2  0
 16 15  1  0
 17 18  1  0
 18 19  2  0
  3 20  1  0
  5 21  1  0
  6 22  1  0
  8 23  1  0
 10 24  1  0
 12 25  1  1
 13 26  1  0
 13 27  1  0
 14 28  1  1
 16 29  1  0
 17 30  1  0
 19 31  1  0
M  ISO  8  20  14  21  14  22  14  23  14  24  14  25  13  26  13  27  13
M  ISO  4  28  13  29  14  30  14  31  14
M  END
>  <minimizedAffinity>  (1) 
-4.52489471

>  <minimizedRMSD>  (1) 
0.710889995

$$$$
