
     RDKit          3D

 31 33  0  0  1  0  0  0  0  0999 V2000
   45.7490   34.4960   41.9410 N   0  0  0  0  0  0  0  0  0  0  0  0
   44.5210   34.9470   41.9230 C   0  0  0  0  0  0  0  0  0  0  0  0
   44.2830   35.6520   43.1150 C   0  0  0  0  0  0  0  0  0  0  0  0
   45.4020   35.6010   43.8300 N   0  0  0  0  0  0  0  0  0  0  0  0
   46.3170   34.8940   43.1230 C   0  0  0  0  0  0  0  0  0  0  0  0
   47.5000   34.4080   40.3310 C   0  0  0  0  0  0  0  0  0  0  0  0
   46.4230   33.7470   40.9840 C   0  0  0  0  0  0  0  0  0  0  0  0
   46.1680   32.4390   40.5950 C   0  0  0  0  0  0  0  0  0  0  0  0
   46.9390   31.8740   39.6380 N   0  0  0  0  0  0  0  0  0  0  0  0
   47.9490   32.5240   39.0410 C   0  0  0  0  0  0  0  0  0  0  0  0
   48.2250   33.7850   39.3890 N   0  0  0  0  0  0  0  0  0  0  0  0
   43.4130   34.8720   40.9420 C   0  0  2  0  0  0  0  0  0  0  0  0
   42.0560   35.3630   41.3420 C   0  0  0  0  0  0  0  0  0  0  0  0
   42.2810   33.8890   41.2210 C   0  0  1  0  0  0  0  0  0  0  0  0
   41.8850   33.1530   40.0430 N   0  0  0  0  0  0  0  0  0  0  0  0
   42.5620   33.4360   38.8240 C   0  0  0  0  0  0  0  0  0  0  0  0
   43.6440   34.1170   38.7250 N   0  0  0  0  0  0  0  0  0  0  0  0
   42.0010   32.9310   37.6170 N   0  0  0  0  0  0  0  0  0  0  0  0
   44.1730   34.5500   39.5090 H   0  0  0  0  0  0  0  0  0  0  0  0
   43.3464   36.1522   43.4023 H   0  0  0  0  0  0  0  0  0  0  0  0
   47.3459   34.6756   43.4449 H   0  0  0  0  0  0  0  0  0  0  0  0
   47.7424   35.4461   40.6024 H   0  0  0  0  0  0  0  0  0  0  0  0
   45.3494   31.8694   41.0591 H   0  0  0  0  0  0  0  0  0  0  0  0
   48.5482   32.0212   38.2676 H   0  0  0  0  0  0  0  0  0  0  0  0
   44.0937   35.0731   40.1016 H   0  0  0  0  0  0  0  0  0  0  0  0
   41.9085   35.8137   42.3346 H   0  0  0  0  0  0  0  0  0  0  0  0
   41.3338   36.0703   40.9081 H   0  0  0  0  0  0  0  0  0  0  0  0
   42.0453   33.0578   41.9018 H   0  0  0  0  0  0  0  0  0  0  0  0
   41.1368   32.4463   40.0841 H   0  0  0  0  0  0  0  0  0  0  0  0
   42.4648   33.1168   36.7163 H   0  0  0  0  0  0  0  0  0  0  0  0
   41.1313   32.3798   37.6444 H   0  0  0  0  0  0  0  0  0  0  0  0
  1  5  1  0
  2  1  1  0
  2  3  2  0
  3  4  1  0
  5  4  2  0
  6  7  2  0
  7  1  1  0
  8  7  1  0
  9  8  2  0
 10 11  2  0
 10  9  1  0
 11  6  1  0
 12 14  1  0
 12 13  1  0
 12  2  1  0
 14 13  1  0
 15 14  1  0
 16 15  1  0
 17 16  2  0
 17 19  1  0
 18 16  1  0
  3 20  1  0
  5 21  1  0
  6 22  1  0
  8 23  1  0
 10 24  1  0
 12 25  1  6
 13 26  1  0
 13 27  1  0
 14 28  1  1
 15 29  1  0
 18 30  1  0
 18 31  1  0
M  ISO  8  20  14  21  14  22  14  23  14  24  14  25  13  26  13  27  13
M  ISO  1  28  13
M  END
>  <minimizedAffinity>  (1) 
-4.23346376

>  <minimizedRMSD>  (1) 
6.59113407

$$$$
