
     RDKit          3D

 30 32  0  0  0  0  0  0  0  0999 V2000
   48.0990   34.8130   42.0240 C   0  0  0  0  0  0  0  0  0  0  0  0
   47.6120   34.6100   40.7390 C   0  0  0  0  0  0  0  0  0  0  0  0
   46.4310   33.8810   40.5970 C   0  0  0  0  0  0  0  0  0  0  0  0
   45.8240   33.4070   41.7370 N   0  0  0  0  0  0  0  0  0  0  0  0
   46.3430   33.6340   42.9590 C   0  0  0  0  0  0  0  0  0  0  0  0
   47.4750   34.3340   43.1130 N   0  0  0  0  0  0  0  0  0  0  0  0
   49.3490   35.5860   42.1770 C   0  0  0  0  0  0  0  0  0  0  0  0
   49.5170   36.6060   41.4630 O   0  0  0  0  0  0  0  0  0  0  0  0
   50.2920   35.1660   43.0980 O   0  0  0  0  0  0  0  0  0  0  0  0
   45.5870   33.0410   44.4510 S   0  0  0  0  0  0  0  0  0  0  0  0
   46.5780   31.7880   45.2460 C   0  0  0  0  0  0  0  0  0  0  0  0
   47.4430   30.9550   44.5670 C   0  0  0  0  0  0  0  0  0  0  0  0
   48.2000   29.9950   45.1920 C   0  0  0  0  0  0  0  0  0  0  0  0
   48.0540   29.8950   46.5600 C   0  0  0  0  0  0  0  0  0  0  0  0
   47.2010   30.7030   47.2960 C   0  0  0  0  0  0  0  0  0  0  0  0
   47.1330   30.5150   48.6650 C   0  0  0  0  0  0  0  0  0  0  0  0
   46.2500   31.3700   49.3310 C   0  0  0  0  0  0  0  0  0  0  0  0
   45.4900   32.3350   48.7000 C   0  0  0  0  0  0  0  0  0  0  0  0
   45.6080   32.4680   47.3250 C   0  0  0  0  0  0  0  0  0  0  0  0
   46.4650   31.6510   46.6160 C   0  0  0  0  0  0  0  0  0  0  0  0
   48.1405   35.0111   39.8616 H   0  0  0  0  0  0  0  0  0  0  0  0
   45.9983   33.6910   39.6037 H   0  0  0  0  0  0  0  0  0  0  0  0
   51.1340   35.6742   43.2111 H   0  0  0  0  0  0  0  0  0  0  0  0
   47.5302   31.0648   43.4760 H   0  0  0  0  0  0  0  0  0  0  0  0
   48.8854   29.3414   44.6324 H   0  0  0  0  0  0  0  0  0  0  0  0
   48.6442   29.1357   47.0940 H   0  0  0  0  0  0  0  0  0  0  0  0
   47.7276   29.7520   49.1887 H   0  0  0  0  0  0  0  0  0  0  0  0
   46.1550   31.2681   50.4221 H   0  0  0  0  0  0  0  0  0  0  0  0
   44.8089   32.9812   49.2732 H   0  0  0  0  0  0  0  0  0  0  0  0
   45.0152   33.2290   46.7962 H   0  0  0  0  0  0  0  0  0  0  0  0
  1  7  1  0
  1  6  2  0
  2  1  1  0
  3  2  2  0
  3  4  1  0
  4  5  2  0
  5  6  1  0
  5 10  1  0
  7  9  1  0
  8  7  2  0
 10 11  1  0
 11 20  2  0
 12 13  2  0
 12 11  1  0
 13 14  1  0
 14 15  2  0
 15 16  1  0
 16 17  2  0
 18 17  1  0
 19 18  2  0
 20 15  1  0
 20 19  1  0
  2 21  1  0
  3 22  1  0
  9 23  1  0
 12 24  1  0
 13 25  1  0
 14 26  1  0
 16 27  1  0
 17 28  1  0
 18 29  1  0
 19 30  1  0
M  ISO  8  21  14  22  14  23   3  24  14  25  14  26  14  27  14  28  14
M  ISO  2  29  14  30  14
M  END
>  <minimizedAffinity>  (1) 
-5.69626951

>  <minimizedRMSD>  (1) 
0.96833539

$$$$
