
     RDKit          3D

 21 22  0  0  0  0  0  0  0  0999 V2000
   48.1190   34.5270   42.3650 C   0  0  0  0  0  0  0  0  0  0  0  0
   47.1020   34.6630   41.4250 C   0  0  0  0  0  0  0  0  0  0  0  0
   45.9880   33.8160   41.5610 C   0  0  0  0  0  0  0  0  0  0  0  0
   45.9850   32.9240   42.6040 N   0  0  0  0  0  0  0  0  0  0  0  0
   47.0050   32.8470   43.4780 C   0  0  0  0  0  0  0  0  0  0  0  0
   48.0590   33.6390   43.3570 N   0  0  0  0  0  0  0  0  0  0  0  0
   49.2870   35.4160   42.2190 C   0  0  0  0  0  0  0  0  0  0  0  0
   49.2880   36.3020   41.3190 O   0  0  0  0  0  0  0  0  0  0  0  0
   50.3590   35.2540   43.0810 O   0  0  0  0  0  0  0  0  0  0  0  0
   47.0040   31.6950   44.8260 S   0  0  0  0  0  0  0  0  0  0  0  0
   44.8810   33.4460   47.6700 N   0  0  0  0  0  0  0  0  0  0  0  0
   45.3970   33.5530   46.4610 N   0  0  0  0  0  0  0  0  0  0  0  0
   46.0590   32.3970   46.1700 C   0  0  0  0  0  0  0  0  0  0  0  0
   45.9220   31.5600   47.2790 C   0  0  0  0  0  0  0  0  0  0  0  0
   45.1650   32.2400   48.2400 C   0  0  0  0  0  0  0  0  0  0  0  0
   47.1667   35.4006   40.6115 H   0  0  0  0  0  0  0  0  0  0  0  0
   45.1464   33.8666   40.8545 H   0  0  0  0  0  0  0  0  0  0  0  0
   51.1525   35.8404   42.9997 H   0  0  0  0  0  0  0  0  0  0  0  0
   44.3294   34.1850   48.1289 H   0  0  0  0  0  0  0  0  0  0  0  0
   46.3357   30.5458   47.3797 H   0  0  0  0  0  0  0  0  0  0  0  0
   44.8652   31.8809   49.2356 H   0  0  0  0  0  0  0  0  0  0  0  0
  1  6  2  0
  2  3  2  0
  2  1  1  0
  3  4  1  0
  4  5  2  0
  5 10  1  0
  6  5  1  0
  7  1  1  0
  7  9  1  0
  8  7  2  0
 10 13  1  0
 11 15  1  0
 12 11  1  0
 13 12  2  0
 13 14  1  0
 14 15  2  0
  2 16  1  0
  3 17  1  0
  9 18  1  0
 11 19  1  0
 14 20  1  0
 15 21  1  0
M  ISO  6  16  14  17  14  18   3  19   9  20  14  21  14
M  END
>  <minimizedAffinity>  (1) 
-5.127491

>  <minimizedRMSD>  (1) 
1.71634126

$$$$
