
     RDKit          3D

 23 24  0  0  0  0  0  0  0  0999 V2000
   47.7450   34.4000   42.9920 C   0  0  0  0  0  0  0  0  0  0  0  0
   46.4960   35.0170   42.8230 C   0  0  0  0  0  0  0  0  0  0  0  0
   45.3930   34.3970   43.4070 C   0  0  0  0  0  0  0  0  0  0  0  0
   45.5860   33.2300   44.1070 N   0  0  0  0  0  0  0  0  0  0  0  0
   46.8120   32.6860   44.2340 C   0  0  0  0  0  0  0  0  0  0  0  0
   47.8780   33.2620   43.6830 N   0  0  0  0  0  0  0  0  0  0  0  0
   48.9190   35.0330   42.3850 C   0  0  0  0  0  0  0  0  0  0  0  0
   48.8230   35.4960   41.2190 O   0  0  0  0  0  0  0  0  0  0  0  0
   50.0920   35.1130   43.0860 O   0  0  0  0  0  0  0  0  0  0  0  0
   47.0850   31.1810   45.1300 S   0  0  0  0  0  0  0  0  0  0  0  0
   46.3830   31.3330   46.7870 C   0  0  0  0  0  0  0  0  0  0  0  0
   46.5520   32.3940   47.6520 C   0  0  0  0  0  0  0  0  0  0  0  0
   45.9360   32.3390   48.8850 C   0  0  0  0  0  0  0  0  0  0  0  0
   45.1710   31.2340   49.2190 C   0  0  0  0  0  0  0  0  0  0  0  0
   45.0310   30.1950   48.3170 C   0  0  0  0  0  0  0  0  0  0  0  0
   45.6410   30.2630   47.1110 N   0  0  0  0  0  0  0  0  0  0  0  0
   46.3918   35.9519   42.2528 H   0  0  0  0  0  0  0  0  0  0  0  0
   44.3878   34.8330   43.3097 H   0  0  0  0  0  0  0  0  0  0  0  0
   50.8853   35.5406   42.6763 H   0  0  0  0  0  0  0  0  0  0  0  0
   47.1630   33.2627   47.3656 H   0  0  0  0  0  0  0  0  0  0  0  0
   46.0517   33.1680   49.5987 H   0  0  0  0  0  0  0  0  0  0  0  0
   44.6757   31.1828   50.1998 H   0  0  0  0  0  0  0  0  0  0  0  0
   44.4251   29.3152   48.5794 H   0  0  0  0  0  0  0  0  0  0  0  0
  1  6  2  0
  2  1  1  0
  2  3  2  0
  3  4  1  0
  4  5  2  0
  5 10  1  0
  6  5  1  0
  7  1  1  0
  7  9  1  0
  8  7  2  0
 10 11  1  0
 11 16  1  0
 11 12  2  0
 12 13  1  0
 13 14  2  0
 15 14  1  0
 16 15  2  0
  2 17  1  0
  3 18  1  0
  9 19  1  0
 12 20  1  0
 13 21  1  0
 14 22  1  0
 15 23  1  0
M  ISO  7  17  14  18  14  19   3  20  14  21  14  22  14  23  14
M  END
>  <minimizedAffinity>  (1) 
-5.22828054

>  <minimizedRMSD>  (1) 
2.88955426

$$$$
