
     RDKit          3D

 28 30  0  0  0  0  0  0  0  0999 V2000
   45.6420   33.5120   44.8940 S   0  0  0  0  0  0  0  0  0  0  0  0
   45.8030   31.8040   45.3500 C   0  0  0  0  0  0  0  0  0  0  0  0
   45.9930   30.8100   44.4350 N   0  0  0  0  0  0  0  0  0  0  0  0
   46.1070   29.5270   44.8640 C   0  0  0  0  0  0  0  0  0  0  0  0
   46.0360   29.2370   46.1730 N   0  0  0  0  0  0  0  0  0  0  0  0
   45.8550   30.1340   47.1370 C   0  0  0  0  0  0  0  0  0  0  0  0
   45.7830   29.8340   48.4730 C   0  0  0  0  0  0  0  0  0  0  0  0
   45.5940   30.7940   49.4290 C   0  0  0  0  0  0  0  0  0  0  0  0
   45.4750   32.1130   49.0020 C   0  0  0  0  0  0  0  0  0  0  0  0
   45.5460   32.4330   47.6570 C   0  0  0  0  0  0  0  0  0  0  0  0
   45.7380   31.4520   46.6840 C   0  0  0  0  0  0  0  0  0  0  0  0
   48.0790   34.8580   42.1410 C   0  0  0  0  0  0  0  0  0  0  0  0
   47.4990   34.5520   40.9110 C   0  0  0  0  0  0  0  0  0  0  0  0
   46.2640   33.8790   40.9360 C   0  0  0  0  0  0  0  0  0  0  0  0
   45.7180   33.5710   42.1380 N   0  0  0  0  0  0  0  0  0  0  0  0
   46.3320   33.8970   43.3060 C   0  0  0  0  0  0  0  0  0  0  0  0
   47.4990   34.5340   43.2850 N   0  0  0  0  0  0  0  0  0  0  0  0
   49.3730   35.5660   42.1280 C   0  0  0  0  0  0  0  0  0  0  0  0
   49.5210   36.5390   41.3190 O   0  0  0  0  0  0  0  0  0  0  0  0
   50.3710   35.1460   42.9930 O   0  0  0  0  0  0  0  0  0  0  0  0
   46.2587   28.7188   44.1334 H   0  0  0  0  0  0  0  0  0  0  0  0
   45.8807   28.7843   48.7871 H   0  0  0  0  0  0  0  0  0  0  0  0
   45.5381   30.5329   50.4961 H   0  0  0  0  0  0  0  0  0  0  0  0
   45.3225   32.9118   49.7428 H   0  0  0  0  0  0  0  0  0  0  0  0
   45.4488   33.4844   47.3486 H   0  0  0  0  0  0  0  0  0  0  0  0
   47.9855   34.8247   39.9628 H   0  0  0  0  0  0  0  0  0  0  0  0
   45.7524   33.6085   40.0005 H   0  0  0  0  0  0  0  0  0  0  0  0
   51.2467   35.6078   42.9999 H   0  0  0  0  0  0  0  0  0  0  0  0
  1  2  1  0
  2 11  2  0
  3  4  2  0
  3  2  1  0
  4  5  1  0
  5  6  2  0
  6  7  1  0
  7  8  2  0
  9  8  1  0
 10  9  2  0
 11  6  1  0
 11 10  1  0
 12 17  2  0
 13 14  2  0
 13 12  1  0
 14 15  1  0
 15 16  2  0
 16  1  1  0
 17 16  1  0
 18 12  1  0
 18 20  1  0
 19 18  2  0
  4 21  1  0
  7 22  1  0
  8 23  1  0
  9 24  1  0
 10 25  1  0
 13 26  1  0
 14 27  1  0
 20 28  1  0
M  ISO  8  21  14  22  14  23  14  24  14  25  14  26  14  27  14  28   3
M  END
>  <minimizedAffinity>  (1) 
-5.46136904

>  <minimizedRMSD>  (1) 
0.896107912

$$$$
