
     RDKit          3D

 22 23  0  0  0  0  0  0  0  0999 V2000
   47.9530   34.5670   42.7190 C   0  0  0  0  0  0  0  0  0  0  0  0
   46.7300   35.0850   42.3290 C   0  0  0  0  0  0  0  0  0  0  0  0
   45.5810   34.3870   42.7010 C   0  0  0  0  0  0  0  0  0  0  0  0
   45.7240   33.2450   43.4220 N   0  0  0  0  0  0  0  0  0  0  0  0
   46.9340   32.7760   43.7800 C   0  0  0  0  0  0  0  0  0  0  0  0
   48.0390   33.4370   43.4280 N   0  0  0  0  0  0  0  0  0  0  0  0
   49.1740   35.2960   42.3300 C   0  0  0  0  0  0  0  0  0  0  0  0
   49.1530   36.0240   41.3050 O   0  0  0  0  0  0  0  0  0  0  0  0
   50.3140   35.1610   43.1020 O   0  0  0  0  0  0  0  0  0  0  0  0
   47.1880   31.2760   44.7290 S   0  0  0  0  0  0  0  0  0  0  0  0
   46.7920   31.6170   46.4520 C   0  0  0  0  0  0  0  0  0  0  0  0
   47.5190   31.1500   47.5270 C   0  0  0  0  0  0  0  0  0  0  0  0
   47.0950   31.4950   48.8090 C   0  0  0  0  0  0  0  0  0  0  0  0
   46.0180   32.2510   48.9850 N   0  0  0  0  0  0  0  0  0  0  0  0
   45.3390   32.6850   47.9060 C   0  0  0  0  0  0  0  0  0  0  0  0
   45.6910   32.3920   46.6440 N   0  0  0  0  0  0  0  0  0  0  0  0
   46.6664   36.0154   41.7456 H   0  0  0  0  0  0  0  0  0  0  0  0
   44.5831   34.7527   42.4172 H   0  0  0  0  0  0  0  0  0  0  0  0
   51.1410   35.6447   42.8525 H   0  0  0  0  0  0  0  0  0  0  0  0
   48.4096   30.5221   47.3766 H   0  0  0  0  0  0  0  0  0  0  0  0
   47.6582   31.1374   49.6836 H   0  0  0  0  0  0  0  0  0  0  0  0
   44.4498   33.3122   48.0671 H   0  0  0  0  0  0  0  0  0  0  0  0
  1  6  2  0
  2  3  2  0
  2  1  1  0
  3  4  1  0
  4  5  2  0
  5 10  1  0
  6  5  1  0
  7  1  1  0
  7  9  1  0
  8  7  2  0
 10 11  1  0
 11 16  1  0
 11 12  2  0
 12 13  1  0
 13 14  2  0
 15 14  1  0
 16 15  2  0
  2 17  1  0
  3 18  1  0
  9 19  1  0
 12 20  1  0
 13 21  1  0
 15 22  1  0
M  ISO  6  17  14  18  14  19   3  20  14  21  14  22  14
M  END
>  <minimizedAffinity>  (1) 
-4.97373867

>  <minimizedRMSD>  (1) 
2.72037005

$$$$
