
     RDKit          3D

 20 20  0  0  0  0  0  0  0  0999 V2000
   48.0490   34.8180   42.1680 C   0  0  0  0  0  0  0  0  0  0  0  0
   47.4860   34.5350   40.9240 C   0  0  0  0  0  0  0  0  0  0  0  0
   46.2700   33.8440   40.9000 C   0  0  0  0  0  0  0  0  0  0  0  0
   45.7040   33.4860   42.0970 N   0  0  0  0  0  0  0  0  0  0  0  0
   46.3000   33.7880   43.2640 C   0  0  0  0  0  0  0  0  0  0  0  0
   47.4520   34.4420   43.3060 N   0  0  0  0  0  0  0  0  0  0  0  0
   49.3290   35.5450   42.1940 C   0  0  0  0  0  0  0  0  0  0  0  0
   49.4970   36.5240   41.4150 O   0  0  0  0  0  0  0  0  0  0  0  0
   50.3090   35.1430   43.0620 O   0  0  0  0  0  0  0  0  0  0  0  0
   45.6050   33.3430   44.8570 S   0  0  0  0  0  0  0  0  0  0  0  0
   44.9010   34.8740   45.5570 C   0  0  0  0  0  0  0  0  0  0  0  0
   44.4870   35.8220   44.4750 C   0  0  0  0  0  0  0  0  0  0  0  0
   47.9818   34.8449   39.9923 H   0  0  0  0  0  0  0  0  0  0  0  0
   45.7809   33.5944   39.9469 H   0  0  0  0  0  0  0  0  0  0  0  0
   51.1740   35.6237   43.0890 H   0  0  0  0  0  0  0  0  0  0  0  0
   44.0217   34.6188   46.1666 H   0  0  0  0  0  0  0  0  0  0  0  0
   45.6707   35.3622   46.1729 H   0  0  0  0  0  0  0  0  0  0  0  0
   44.0856   36.7412   44.9267 H   0  0  0  0  0  0  0  0  0  0  0  0
   45.3587   36.0702   43.8516 H   0  0  0  0  0  0  0  0  0  0  0  0
   43.7125   35.3513   43.8516 H   0  0  0  0  0  0  0  0  0  0  0  0
  1  7  1  0
  1  6  2  0
  2  1  1  0
  3  2  2  0
  3  4  1  0
  4  5  2  0
  5  6  1  0
  5 10  1  0
  7  9  1  0
  8  7  2  0
 10 11  1  0
 12 11  1  0
  2 13  1  0
  3 14  1  0
  9 15  1  0
 11 16  1  0
 11 17  1  0
 12 18  1  0
 12 19  1  0
 12 20  1  0
M  ISO  8  13  14  14  14  15   3  16   8  17   8  18   8  19   8  20   8
M  END
>  <minimizedAffinity>  (1) 
-4.19854021

>  <minimizedRMSD>  (1) 
0.387137443

$$$$
