
     RDKit          3D

 17 17  0  0  0  0  0  0  0  0999 V2000
   47.8820   34.8440   42.1820 C   0  0  0  0  0  0  0  0  0  0  0  0
   47.2610   34.4780   41.0000 C   0  0  0  0  0  0  0  0  0  0  0  0
   46.0200   33.8520   41.1000 C   0  0  0  0  0  0  0  0  0  0  0  0
   45.5000   33.6430   42.3580 N   0  0  0  0  0  0  0  0  0  0  0  0
   46.1580   34.0250   43.4680 C   0  0  0  0  0  0  0  0  0  0  0  0
   47.3380   34.6190   43.3640 N   0  0  0  0  0  0  0  0  0  0  0  0
   49.1990   35.5120   42.0780 C   0  0  0  0  0  0  0  0  0  0  0  0
   49.3930   36.3680   41.1780 O   0  0  0  0  0  0  0  0  0  0  0  0
   50.2020   35.1800   42.9780 O   0  0  0  0  0  0  0  0  0  0  0  0
   45.5090   33.7740   45.0980 S   0  0  0  0  0  0  0  0  0  0  0  0
   46.5070   32.5100   45.9310 C   0  0  0  0  0  0  0  0  0  0  0  0
   47.1670   33.0350   47.0520 F   0  0  0  0  0  0  0  0  0  0  0  0
   45.7140   31.4740   46.4410 F   0  0  0  0  0  0  0  0  0  0  0  0
   47.4530   31.9380   45.1240 F   0  0  0  0  0  0  0  0  0  0  0  0
   47.7275   34.6731   40.0231 H   0  0  0  0  0  0  0  0  0  0  0  0
   45.4720   33.5342   40.2007 H   0  0  0  0  0  0  0  0  0  0  0  0
   51.0866   35.6203   42.9179 H   0  0  0  0  0  0  0  0  0  0  0  0
  1  6  2  0
  2  3  2  0
  2  1  1  0
  3  4  1  0
  4  5  2  0
  5 10  1  0
  6  5  1  0
  7  1  1  0
  7  9  1  0
  8  7  2  0
 10 11  1  0
 11 13  1  0
 11 12  1  0
 14 11  1  0
  2 15  1  0
  3 16  1  0
  9 17  1  0
M  ISO  3  15  14  16  14  17   3
M  END
>  <minimizedAffinity>  (1) 
-4.28509808

>  <minimizedRMSD>  (1) 
1.81409454

$$$$
