
     RDKit          3D

 33 34  0  0  0  0  0  0  0  0999 V2000
   46.1610   32.3300   38.0490 C   0  0  0  0  0  0  0  0  0  0  0  0
   45.6690   34.4060   41.0210 C   0  0  0  0  0  0  0  0  0  0  0  0
   46.9530   34.7650   41.3940 C   0  0  0  0  0  0  0  0  0  0  0  0
   48.0430   34.3000   40.6270 C   0  0  0  0  0  0  0  0  0  0  0  0
   47.7620   33.5150   39.5520 N   0  0  0  0  0  0  0  0  0  0  0  0
   46.4850   33.1850   39.2180 C   0  0  0  0  0  0  0  0  0  0  0  0
   45.4640   33.6290   39.9480 N   0  0  0  0  0  0  0  0  0  0  0  0
   44.5700   34.8910   41.8150 C   0  0  0  0  0  0  0  0  0  0  0  0
   43.7270   35.6970   41.3070 O   0  0  0  0  0  0  0  0  0  0  0  0
   44.4580   34.4560   43.1410 O   0  0  0  0  0  0  0  0  0  0  0  0
   45.0050   35.2230   44.1710 C   0  0  0  0  0  0  0  0  0  0  0  0
   44.1550   35.4220   45.2400 F   0  0  0  0  0  0  0  0  0  0  0  0
   46.1620   34.6430   44.6390 F   0  0  0  0  0  0  0  0  0  0  0  0
   45.2670   36.4810   43.6120 F   0  0  0  0  0  0  0  0  0  0  0  0
   45.1510   31.2820   38.3380 C   0  0  0  0  0  0  0  0  0  0  0  0
   45.7050   33.2000   36.9200 C   0  0  0  0  0  0  0  0  0  0  0  0
   47.4670   31.6720   37.6350 C   0  0  0  0  0  0  0  0  0  0  0  0
   47.8690   32.0320   36.2650 C   0  0  0  0  0  0  0  0  0  0  0  0
   48.6110   33.0550   35.7990 N   0  0  0  0  0  0  0  0  0  0  0  0
   48.7030   32.9660   34.5000 O   0  0  0  0  0  0  0  0  0  0  0  0
   48.0250   31.8890   34.1220 C   0  0  0  0  0  0  0  0  0  0  0  0
   47.4920   31.2810   35.1910 N   0  0  0  0  0  0  0  0  0  0  0  0
   47.1212   35.4027   42.2744 H   0  0  0  0  0  0  0  0  0  0  0  0
   49.0789   34.5621   40.8882 H   0  0  0  0  0  0  0  0  0  0  0  0
   45.0416   31.1685   39.4266 H   0  0  0  0  0  0  0  0  0  0  0  0
   44.1846   31.5736   37.9008 H   0  0  0  0  0  0  0  0  0  0  0  0
   45.4780   30.3271   37.9008 H   0  0  0  0  0  0  0  0  0  0  0  0
   45.2300   34.1062   37.3241 H   0  0  0  0  0  0  0  0  0  0  0  0
   46.5704   33.4836   36.3030 H   0  0  0  0  0  0  0  0  0  0  0  0
   44.9794   32.6497   36.3030 H   0  0  0  0  0  0  0  0  0  0  0  0
   48.2582   31.9897   38.3300 H   0  0  0  0  0  0  0  0  0  0  0  0
   47.3171   30.5827   37.6645 H   0  0  0  0  0  0  0  0  0  0  0  0
   47.9164   31.5456   33.0826 H   0  0  0  0  0  0  0  0  0  0  0  0
  1 15  1  0
  1  6  1  0
  2  3  2  0
  2  8  1  0
  4  3  1  0
  5  4  2  0
  6  5  1  0
  6  7  2  0
  7  2  1  0
  8 10  1  0
  9  8  2  0
 10 11  1  0
 11 13  1  0
 11 12  1  0
 14 11  1  0
 16  1  1  0
 17  1  1  0
 18 17  1  0
 19 18  2  0
 20 19  1  0
 21 20  1  0
 21 22  2  0
 22 18  1  0
  3 23  1  0
  4 24  1  0
 15 25  1  0
 15 26  1  0
 15 27  1  0
 16 28  1  0
 16 29  1  0
 16 30  1  0
 17 31  1  0
 17 32  1  0
 21 33  1  0
M  ISO  8  23  14  24  14  25   8  26   8  27   8  28   8  29   8  30   8
M  ISO  3  31   8  32   8  33  14
M  END
>  <minimizedAffinity>  (1) 
-4.43919134

>  <minimizedRMSD>  (1) 
2.16348314

$$$$
