
     RDKit          3D

 38 41  0  0  0  0  0  0  0  0999 V2000
   46.1790   30.3840   49.1360 N   0  0  0  0  0  0  0  0  0  0  0  0
   45.3160   31.4000   49.4410 C   0  0  0  0  0  0  0  0  0  0  0  0
   45.2510   32.2240   48.3710 N   0  0  0  0  0  0  0  0  0  0  0  0
   46.0660   31.7010   47.4390 C   0  0  0  0  0  0  0  0  0  0  0  0
   46.3120   32.2050   46.1880 C   0  0  0  0  0  0  0  0  0  0  0  0
   47.1800   31.5150   45.3920 N   0  0  0  0  0  0  0  0  0  0  0  0
   47.7760   30.3830   45.8120 C   0  0  0  0  0  0  0  0  0  0  0  0
   47.5050   29.9290   47.0430 N   0  0  0  0  0  0  0  0  0  0  0  0
   46.6720   30.5410   47.8800 C   0  0  0  0  0  0  0  0  0  0  0  0
   48.6710   29.6750   44.9850 N   0  0  0  0  0  0  0  0  0  0  0  0
   48.9890   30.1330   43.6530 C   0  0  0  0  0  0  0  0  0  0  0  0
   50.4380   29.9340   43.3510 C   0  0  0  0  0  0  0  0  0  0  0  0
   50.9530   28.7120   43.6980 O   0  0  0  0  0  0  0  0  0  0  0  0
   50.0110   27.8500   44.2460 C   0  0  0  0  0  0  0  0  0  0  0  0
   49.3050   28.4570   45.4530 C   0  0  0  0  0  0  0  0  0  0  0  0
   45.6390   33.6620   45.4520 S   0  0  0  0  0  0  0  0  0  0  0  0
   47.7970   34.7220   42.3530 C   0  0  0  0  0  0  0  0  0  0  0  0
   47.0740   34.3420   41.2270 C   0  0  0  0  0  0  0  0  0  0  0  0
   45.8540   33.7250   41.4330 C   0  0  0  0  0  0  0  0  0  0  0  0
   45.4250   33.5230   42.7080 N   0  0  0  0  0  0  0  0  0  0  0  0
   46.1690   33.9130   43.7720 C   0  0  0  0  0  0  0  0  0  0  0  0
   47.3320   34.5000   43.5750 N   0  0  0  0  0  0  0  0  0  0  0  0
   49.1010   35.3800   42.1460 C   0  0  0  0  0  0  0  0  0  0  0  0
   49.2500   36.1490   41.1710 O   0  0  0  0  0  0  0  0  0  0  0  0
   50.1190   35.1400   43.0210 O   0  0  0  0  0  0  0  0  0  0  0  0
   46.4211   29.6088   49.7695 H   0  0  0  0  0  0  0  0  0  0  0  0
   44.7714   31.5247   50.3886 H   0  0  0  0  0  0  0  0  0  0  0  0
   48.3887   29.5674   42.9251 H   0  0  0  0  0  0  0  0  0  0  0  0
   48.7615   31.2072   43.5878 H   0  0  0  0  0  0  0  0  0  0  0  0
   50.5792   30.0656   42.2681 H   0  0  0  0  0  0  0  0  0  0  0  0
   50.9770   30.6724   43.9628 H   0  0  0  0  0  0  0  0  0  0  0  0
   49.2593   27.6132   43.4786 H   0  0  0  0  0  0  0  0  0  0  0  0
   50.5384   26.9458   44.5840 H   0  0  0  0  0  0  0  0  0  0  0  0
   50.0336   28.6869   46.2444 H   0  0  0  0  0  0  0  0  0  0  0  0
   48.5670   27.7598   45.8764 H   0  0  0  0  0  0  0  0  0  0  0  0
   47.4578   34.5252   40.2126 H   0  0  0  0  0  0  0  0  0  0  0  0
   45.2399   33.4025   40.5793 H   0  0  0  0  0  0  0  0  0  0  0  0
   50.9976   35.5771   42.8901 H   0  0  0  0  0  0  0  0  0  0  0  0
  1  2  1  0
  3  2  2  0
  4  9  2  0
  4  3  1  0
  5  4  1  0
  6  7  1  0
  6  5  2  0
  7  8  2  0
  8  9  1  0
  9  1  1  0
 10 15  1  0
 10  7  1  0
 11 10  1  0
 12 11  1  0
 12 13  1  0
 13 14  1  0
 14 15  1  0
 16  5  1  0
 17 22  2  0
 18 19  2  0
 18 17  1  0
 19 20  1  0
 20 21  2  0
 21 16  1  0
 22 21  1  0
 23 17  1  0
 23 25  1  0
 24 23  2  0
  1 26  1  0
  2 27  1  0
 11 28  1  0
 11 29  1  0
 12 30  1  0
 12 31  1  0
 14 32  1  0
 14 33  1  0
 15 34  1  0
 15 35  1  0
 18 36  1  0
 19 37  1  0
 25 38  1  0
M  ISO  8  26   9  27  14  28  13  29  13  30  13  31  13  32  13  33  13
M  ISO  5  34  13  35  13  36  14  37  14  38   3
M  END
>  <minimizedAffinity>  (1) 
-6.08897829

>  <minimizedRMSD>  (1) 
0.131426156

$$$$
