
     RDKit          3D

 41 44  0  0  0  0  0  0  0  0999 V2000
   46.1680   30.3670   49.1290 N   0  0  0  0  0  0  0  0  0  0  0  0
   45.3590   31.4290   49.4520 C   0  0  0  0  0  0  0  0  0  0  0  0
   45.2930   32.2530   48.3870 N   0  0  0  0  0  0  0  0  0  0  0  0
   46.0590   31.6850   47.4330 C   0  0  0  0  0  0  0  0  0  0  0  0
   46.2810   32.1870   46.1710 C   0  0  0  0  0  0  0  0  0  0  0  0
   47.0930   31.4560   45.3470 N   0  0  0  0  0  0  0  0  0  0  0  0
   47.6460   30.3000   45.7630 C   0  0  0  0  0  0  0  0  0  0  0  0
   47.4070   29.8460   46.9930 N   0  0  0  0  0  0  0  0  0  0  0  0
   46.6280   30.4980   47.8540 C   0  0  0  0  0  0  0  0  0  0  0  0
   48.5330   29.5330   44.8180 C   0  0  0  0  0  0  0  0  0  0  0  0
   48.8830   30.3740   43.6130 C   0  0  0  0  0  0  0  0  0  0  0  0
   49.8060   29.5700   42.7430 C   0  0  0  0  0  0  0  0  0  0  0  0
   49.9690   28.1440   43.2440 C   0  0  0  0  0  0  0  0  0  0  0  0
   50.4810   28.0660   44.6460 C   0  0  0  0  0  0  0  0  0  0  0  0
   49.8180   29.1170   45.5020 C   0  0  0  0  0  0  0  0  0  0  0  0
   45.6490   33.6700   45.4540 S   0  0  0  0  0  0  0  0  0  0  0  0
   47.8010   34.7200   42.3500 C   0  0  0  0  0  0  0  0  0  0  0  0
   47.0820   34.3360   41.2170 C   0  0  0  0  0  0  0  0  0  0  0  0
   45.8520   33.7110   41.4260 C   0  0  0  0  0  0  0  0  0  0  0  0
   45.4290   33.5150   42.7090 N   0  0  0  0  0  0  0  0  0  0  0  0
   46.1720   33.9110   43.7690 C   0  0  0  0  0  0  0  0  0  0  0  0
   47.3370   34.5020   43.5780 N   0  0  0  0  0  0  0  0  0  0  0  0
   49.0970   35.3780   42.1430 C   0  0  0  0  0  0  0  0  0  0  0  0
   49.2540   36.1490   41.1690 O   0  0  0  0  0  0  0  0  0  0  0  0
   50.1190   35.1360   43.0230 O   0  0  0  0  0  0  0  0  0  0  0  0
   46.3940   29.5848   49.7598 H   0  0  0  0  0  0  0  0  0  0  0  0
   44.8513   31.5813   50.4158 H   0  0  0  0  0  0  0  0  0  0  0  0
   47.9774   28.6386   44.4997 H   0  0  0  0  0  0  0  0  0  0  0  0
   47.9692   30.6270   43.0553 H   0  0  0  0  0  0  0  0  0  0  0  0
   49.3690   31.3098   43.9262 H   0  0  0  0  0  0  0  0  0  0  0  0
   50.7928   30.0558   42.7292 H   0  0  0  0  0  0  0  0  0  0  0  0
   49.3678   29.5262   41.7350 H   0  0  0  0  0  0  0  0  0  0  0  0
   48.9898   27.6447   43.2014 H   0  0  0  0  0  0  0  0  0  0  0  0
   50.7120   27.6540   42.5976 H   0  0  0  0  0  0  0  0  0  0  0  0
   50.2614   27.0701   45.0582 H   0  0  0  0  0  0  0  0  0  0  0  0
   51.5672   28.2394   44.6416 H   0  0  0  0  0  0  0  0  0  0  0  0
   50.4832   29.9866   45.6080 H   0  0  0  0  0  0  0  0  0  0  0  0
   49.6058   28.7164   46.5042 H   0  0  0  0  0  0  0  0  0  0  0  0
   47.4682   34.5182   40.2033 H   0  0  0  0  0  0  0  0  0  0  0  0
   45.2365   33.3833   40.5752 H   0  0  0  0  0  0  0  0  0  0  0  0
   50.9975   35.5738   42.8939 H   0  0  0  0  0  0  0  0  0  0  0  0
  1  2  1  0
  3  2  2  0
  4  9  2  0
  4  3  1  0
  5  4  1  0
  6  7  1  0
  6  5  2  0
  7  8  2  0
  8  9  1  0
  9  1  1  0
 10 15  1  0
 10  7  1  0
 11 10  1  0
 12 13  1  0
 12 11  1  0
 13 14  1  0
 14 15  1  0
 16  5  1  0
 17 22  2  0
 18 19  2  0
 18 17  1  0
 19 20  1  0
 20 21  2  0
 21 16  1  0
 22 21  1  0
 23 17  1  0
 23 25  1  0
 24 23  2  0
  1 26  1  0
  2 27  1  0
 10 28  1  0
 11 29  1  0
 11 30  1  0
 12 31  1  0
 12 32  1  0
 13 33  1  0
 13 34  1  0
 14 35  1  0
 14 36  1  0
 15 37  1  0
 15 38  1  0
 18 39  1  0
 19 40  1  0
 25 41  1  0
M  ISO  8  26   9  27  14  28  13  29  13  30  13  31  13  32  13  33  13
M  ISO  8  34  13  35  13  36  13  37  13  38  13  39  14  40  14  41   3
M  END
>  <minimizedAffinity>  (1) 
-5.88951397

>  <minimizedRMSD>  (1) 
0.267953247

$$$$
