
     RDKit          3D

 34 35  0  0  0  0  0  0  0  0999 V2000
   45.9970   32.3170   37.9400 C   0  0  0  0  0  0  0  0  0  0  0  0
   45.6170   34.3520   40.9530 C   0  0  0  0  0  0  0  0  0  0  0  0
   46.9180   34.6500   41.3230 C   0  0  0  0  0  0  0  0  0  0  0  0
   47.9830   34.1560   40.5370 C   0  0  0  0  0  0  0  0  0  0  0  0
   47.6600   33.4050   39.4510 N   0  0  0  0  0  0  0  0  0  0  0  0
   46.3720   33.1340   39.1220 C   0  0  0  0  0  0  0  0  0  0  0  0
   45.3790   33.6050   39.8700 N   0  0  0  0  0  0  0  0  0  0  0  0
   44.5480   34.8660   41.7690 C   0  0  0  0  0  0  0  0  0  0  0  0
   43.7150   35.6910   41.2740 O   0  0  0  0  0  0  0  0  0  0  0  0
   44.4510   34.4390   43.0980 O   0  0  0  0  0  0  0  0  0  0  0  0
   45.0250   35.2150   44.1170 C   0  0  0  0  0  0  0  0  0  0  0  0
   44.1760   35.4270   45.1830 F   0  0  0  0  0  0  0  0  0  0  0  0
   46.1680   34.6130   44.5790 F   0  0  0  0  0  0  0  0  0  0  0  0
   45.2950   36.4560   43.5430 F   0  0  0  0  0  0  0  0  0  0  0  0
   44.8950   31.3460   38.2220 C   0  0  0  0  0  0  0  0  0  0  0  0
   45.6240   33.2140   36.8120 C   0  0  0  0  0  0  0  0  0  0  0  0
   47.2470   31.5520   37.5520 C   0  0  0  0  0  0  0  0  0  0  0  0
   47.7550   31.9650   36.2630 N   0  0  0  0  0  0  0  0  0  0  0  0
   48.5460   32.9440   35.8200 C   0  0  0  0  0  0  0  0  0  0  0  0
   48.6520   32.8020   34.4850 N   0  0  0  0  0  0  0  0  0  0  0  0
   47.9240   31.7320   34.1090 C   0  0  0  0  0  0  0  0  0  0  0  0
   47.3880   31.2440   35.2210 N   0  0  0  0  0  0  0  0  0  0  0  0
   47.1189   35.2617   42.2149 H   0  0  0  0  0  0  0  0  0  0  0  0
   49.0310   34.3704   40.7934 H   0  0  0  0  0  0  0  0  0  0  0  0
   44.7715   31.2372   39.3096 H   0  0  0  0  0  0  0  0  0  0  0  0
   43.9577   31.7172   37.7819 H   0  0  0  0  0  0  0  0  0  0  0  0
   45.1452   30.3694   37.7819 H   0  0  0  0  0  0  0  0  0  0  0  0
   45.2304   34.1605   37.2109 H   0  0  0  0  0  0  0  0  0  0  0  0
   46.5123   33.4170   36.1958 H   0  0  0  0  0  0  0  0  0  0  0  0
   44.8537   32.7273   36.1958 H   0  0  0  0  0  0  0  0  0  0  0  0
   48.0220   31.7283   38.3125 H   0  0  0  0  0  0  0  0  0  0  0  0
   46.9873   30.4849   37.4895 H   0  0  0  0  0  0  0  0  0  0  0  0
   49.0234   33.7233   36.4322 H   0  0  0  0  0  0  0  0  0  0  0  0
   47.7993   31.3422   33.0880 H   0  0  0  0  0  0  0  0  0  0  0  0
  1 15  1  0
  1  6  1  0
  2  3  2  0
  2  8  1  0
  4  3  1  0
  5  4  2  0
  6  5  1  0
  6  7  2  0
  7  2  1  0
  8 10  1  0
  9  8  2  0
 10 11  1  0
 11 13  1  0
 11 12  1  0
 14 11  1  0
 16  1  1  0
 17  1  1  0
 18 17  1  0
 19 18  1  0
 20 19  2  0
 21 20  1  0
 21 22  2  0
 22 18  1  0
  3 23  1  0
  4 24  1  0
 15 25  1  0
 15 26  1  0
 15 27  1  0
 16 28  1  0
 16 29  1  0
 16 30  1  0
 17 31  1  0
 17 32  1  0
 19 33  1  0
 21 34  1  0
M  ISO  8  23  14  24  14  25   8  26   8  27   8  28   8  29   8  30   8
M  ISO  4  31   8  32   8  33  14  34  14
M  END
>  <minimizedAffinity>  (1) 
-4.41613483

>  <minimizedRMSD>  (1) 
2.21413469

$$$$
