
     RDKit          3D

 33 36  0  0  0  0  0  0  0  0999 V2000
   46.1860   30.4050   49.1610 N   0  0  0  0  0  0  0  0  0  0  0  0
   45.3370   31.4200   49.4540 C   0  0  0  0  0  0  0  0  0  0  0  0
   45.2620   32.2400   48.3840 N   0  0  0  0  0  0  0  0  0  0  0  0
   46.0760   31.7020   47.4500 C   0  0  0  0  0  0  0  0  0  0  0  0
   46.3150   32.2070   46.1830 C   0  0  0  0  0  0  0  0  0  0  0  0
   47.1760   31.5040   45.3950 N   0  0  0  0  0  0  0  0  0  0  0  0
   47.7650   30.3750   45.8270 C   0  0  0  0  0  0  0  0  0  0  0  0
   47.4990   29.9300   47.0640 N   0  0  0  0  0  0  0  0  0  0  0  0
   46.6700   30.5530   47.9030 C   0  0  0  0  0  0  0  0  0  0  0  0
   48.6950   29.6240   44.9640 C   0  0  0  0  0  0  0  0  0  0  0  0
   48.9740   30.1290   43.7060 C   0  0  0  0  0  0  0  0  0  0  0  0
   49.8450   29.3650   42.9770 C   0  0  0  0  0  0  0  0  0  0  0  0
   50.4080   28.2140   43.4090 N   0  0  0  0  0  0  0  0  0  0  0  0
   50.0930   27.7680   44.6570 C   0  0  0  0  0  0  0  0  0  0  0  0
   49.2400   28.4940   45.4010 N   0  0  0  0  0  0  0  0  0  0  0  0
   45.6400   33.6580   45.4470 S   0  0  0  0  0  0  0  0  0  0  0  0
   47.7930   34.7090   42.3490 C   0  0  0  0  0  0  0  0  0  0  0  0
   47.0690   34.3170   41.2190 C   0  0  0  0  0  0  0  0  0  0  0  0
   45.8540   33.6960   41.4330 C   0  0  0  0  0  0  0  0  0  0  0  0
   45.4200   33.4970   42.7130 N   0  0  0  0  0  0  0  0  0  0  0  0
   46.1710   33.9010   43.7700 C   0  0  0  0  0  0  0  0  0  0  0  0
   47.3380   34.4970   43.5810 N   0  0  0  0  0  0  0  0  0  0  0  0
   49.0870   35.3700   42.1410 C   0  0  0  0  0  0  0  0  0  0  0  0
   49.2370   36.1380   41.1580 O   0  0  0  0  0  0  0  0  0  0  0  0
   50.1100   35.1360   43.0240 O   0  0  0  0  0  0  0  0  0  0  0  0
   46.4280   29.6343   49.8001 H   0  0  0  0  0  0  0  0  0  0  0  0
   44.7992   31.5534   50.4043 H   0  0  0  0  0  0  0  0  0  0  0  0
   48.5343   31.0626   43.3253 H   0  0  0  0  0  0  0  0  0  0  0  0
   50.1058   29.7126   41.9665 H   0  0  0  0  0  0  0  0  0  0  0  0
   50.5265   26.8353   45.0472 H   0  0  0  0  0  0  0  0  0  0  0  0
   47.4507   34.4955   40.2029 H   0  0  0  0  0  0  0  0  0  0  0  0
   45.2418   33.3649   40.5812 H   0  0  0  0  0  0  0  0  0  0  0  0
   50.9870   35.5764   42.8935 H   0  0  0  0  0  0  0  0  0  0  0  0
  1  2  1  0
  3  2  2  0
  4  9  2  0
  4  3  1  0
  5  4  1  0
  6  7  1  0
  6  5  2  0
  7  8  2  0
  8  9  1  0
  9  1  1  0
 10 15  1  0
 10  7  1  0
 11 10  2  0
 12 13  2  0
 12 11  1  0
 13 14  1  0
 14 15  2  0
 16  5  1  0
 17 22  2  0
 18 19  2  0
 18 17  1  0
 19 20  1  0
 20 21  2  0
 21 16  1  0
 22 21  1  0
 23 17  1  0
 23 25  1  0
 24 23  2  0
  1 26  1  0
  2 27  1  0
 11 28  1  0
 12 29  1  0
 14 30  1  0
 18 31  1  0
 19 32  1  0
 25 33  1  0
M  ISO  8  26   9  27  14  28  14  29  14  30  14  31  14  32  14  33   3
M  END
>  <minimizedAffinity>  (1) 
-5.76184177

>  <minimizedRMSD>  (1) 
0.372859716

$$$$
