
     RDKit          3D

 27 29  0  0  0  0  0  0  0  0999 V2000
   46.1890   30.3700   49.1150 N   0  0  0  0  0  0  0  0  0  0  0  0
   45.3400   31.3970   49.4370 C   0  0  0  0  0  0  0  0  0  0  0  0
   45.2730   32.2240   48.3650 N   0  0  0  0  0  0  0  0  0  0  0  0
   46.0710   31.6900   47.4250 C   0  0  0  0  0  0  0  0  0  0  0  0
   46.3080   32.1960   46.1630 C   0  0  0  0  0  0  0  0  0  0  0  0
   47.1610   31.4880   45.3620 N   0  0  0  0  0  0  0  0  0  0  0  0
   47.7400   30.3510   45.7840 C   0  0  0  0  0  0  0  0  0  0  0  0
   47.4780   29.9000   47.0160 N   0  0  0  0  0  0  0  0  0  0  0  0
   46.6690   30.5220   47.8510 C   0  0  0  0  0  0  0  0  0  0  0  0
   48.6220   29.6620   44.8900 N   0  0  0  0  0  0  0  0  0  0  0  0
   45.6360   33.6730   45.4420 S   0  0  0  0  0  0  0  0  0  0  0  0
   47.7860   34.7150   42.3370 C   0  0  0  0  0  0  0  0  0  0  0  0
   47.0830   34.3380   41.2070 C   0  0  0  0  0  0  0  0  0  0  0  0
   45.8500   33.7150   41.4190 C   0  0  0  0  0  0  0  0  0  0  0  0
   45.4290   33.5230   42.7060 N   0  0  0  0  0  0  0  0  0  0  0  0
   46.1630   33.9140   43.7650 C   0  0  0  0  0  0  0  0  0  0  0  0
   47.3360   34.5070   43.5810 N   0  0  0  0  0  0  0  0  0  0  0  0
   49.0970   35.3790   42.1360 C   0  0  0  0  0  0  0  0  0  0  0  0
   49.2520   36.1540   41.1560 O   0  0  0  0  0  0  0  0  0  0  0  0
   50.1240   35.1410   43.0170 O   0  0  0  0  0  0  0  0  0  0  0  0
   46.4303   29.5905   49.7435 H   0  0  0  0  0  0  0  0  0  0  0  0
   44.8095   31.5265   50.3919 H   0  0  0  0  0  0  0  0  0  0  0  0
   49.0787   28.7884   45.1886 H   0  0  0  0  0  0  0  0  0  0  0  0
   48.7995   30.0402   43.9485 H   0  0  0  0  0  0  0  0  0  0  0  0
   47.4738   34.5190   40.1948 H   0  0  0  0  0  0  0  0  0  0  0  0
   45.2323   33.3866   40.5701 H   0  0  0  0  0  0  0  0  0  0  0  0
   51.0005   35.5822   42.8863 H   0  0  0  0  0  0  0  0  0  0  0  0
  1  2  1  0
  3  2  2  0
  4  9  2  0
  4  3  1  0
  5  4  1  0
  6  7  1  0
  6  5  2  0
  7  8  2  0
  8  9  1  0
  9  1  1  0
 10  7  1  0
 11  5  1  0
 12 17  2  0
 13 14  2  0
 13 12  1  0
 14 15  1  0
 15 16  2  0
 16 11  1  0
 17 16  1  0
 18 12  1  0
 18 20  1  0
 19 18  2  0
  1 21  1  0
  2 22  1  0
 10 23  1  0
 10 24  1  0
 13 25  1  0
 14 26  1  0
 20 27  1  0
M  ISO  5  21   9  22  14  25  14  26  14  27   3
M  END
>  <minimizedAffinity>  (1) 
-5.70979261

>  <minimizedRMSD>  (1) 
0.030610716

$$$$
