
     RDKit          3D

 32 35  0  0  0  0  0  0  0  0999 V2000
   46.1770   30.3750   49.1300 N   0  0  0  0  0  0  0  0  0  0  0  0
   45.3000   31.3880   49.4420 C   0  0  0  0  0  0  0  0  0  0  0  0
   45.2380   32.2160   48.3610 N   0  0  0  0  0  0  0  0  0  0  0  0
   46.0670   31.6910   47.4430 C   0  0  0  0  0  0  0  0  0  0  0  0
   46.3180   32.2020   46.1880 C   0  0  0  0  0  0  0  0  0  0  0  0
   47.1980   31.5140   45.3990 N   0  0  0  0  0  0  0  0  0  0  0  0
   47.7910   30.3920   45.8280 C   0  0  0  0  0  0  0  0  0  0  0  0
   47.5150   29.9310   47.0580 N   0  0  0  0  0  0  0  0  0  0  0  0
   46.6770   30.5340   47.8850 C   0  0  0  0  0  0  0  0  0  0  0  0
   48.7380   29.6120   45.0390 C   0  0  0  0  0  0  0  0  0  0  0  0
   49.4230   28.4410   45.1380 C   0  0  0  0  0  0  0  0  0  0  0  0
   50.1620   28.3250   43.9800 C   0  0  0  0  0  0  0  0  0  0  0  0
   49.8970   29.4340   43.2200 C   0  0  0  0  0  0  0  0  0  0  0  0
   49.0430   30.1810   43.8820 O   0  0  0  0  0  0  0  0  0  0  0  0
   45.6380   33.6590   45.4470 S   0  0  0  0  0  0  0  0  0  0  0  0
   47.7730   34.7110   42.3480 C   0  0  0  0  0  0  0  0  0  0  0  0
   47.0690   34.3330   41.2200 C   0  0  0  0  0  0  0  0  0  0  0  0
   45.8460   33.7070   41.4320 C   0  0  0  0  0  0  0  0  0  0  0  0
   45.4170   33.5060   42.7120 N   0  0  0  0  0  0  0  0  0  0  0  0
   46.1600   33.9020   43.7710 C   0  0  0  0  0  0  0  0  0  0  0  0
   47.3200   34.4960   43.5730 N   0  0  0  0  0  0  0  0  0  0  0  0
   49.0800   35.3790   42.1410 C   0  0  0  0  0  0  0  0  0  0  0  0
   49.2510   36.1520   41.1780 O   0  0  0  0  0  0  0  0  0  0  0  0
   50.1100   35.1380   43.0280 O   0  0  0  0  0  0  0  0  0  0  0  0
   46.4201   29.5986   49.7616 H   0  0  0  0  0  0  0  0  0  0  0  0
   44.7510   31.5075   50.3877 H   0  0  0  0  0  0  0  0  0  0  0  0
   49.3932   27.7284   45.9754 H   0  0  0  0  0  0  0  0  0  0  0  0
   50.8373   27.4979   43.7158 H   0  0  0  0  0  0  0  0  0  0  0  0
   50.3236   29.6588   42.2313 H   0  0  0  0  0  0  0  0  0  0  0  0
   47.4564   34.5179   40.2072 H   0  0  0  0  0  0  0  0  0  0  0  0
   45.2326   33.3783   40.5801 H   0  0  0  0  0  0  0  0  0  0  0  0
   50.9872   35.5787   42.8995 H   0  0  0  0  0  0  0  0  0  0  0  0
  1  2  1  0
  3  2  2  0
  4  9  2  0
  4  3  1  0
  5  4  1  0
  6  7  1  0
  6  5  2  0
  7  8  2  0
  8  9  1  0
  9  1  1  0
 10 11  2  0
 10  7  1  0
 12 11  1  0
 13 14  1  0
 13 12  2  0
 14 10  1  0
 15  5  1  0
 16 21  2  0
 17 18  2  0
 17 16  1  0
 18 19  1  0
 19 20  2  0
 20 15  1  0
 21 20  1  0
 22 16  1  0
 22 24  1  0
 23 22  2  0
  1 25  1  0
  2 26  1  0
 11 27  1  0
 12 28  1  0
 13 29  1  0
 17 30  1  0
 18 31  1  0
 24 32  1  0
M  ISO  8  25   9  26  14  27  14  28  14  29  14  30  14  31  14  32   3
M  END
>  <minimizedAffinity>  (1) 
-5.74169064

>  <minimizedRMSD>  (1) 
0.616977394

$$$$
