
     RDKit          3D

 34 35  0  0  0  0  0  0  0  0999 V2000
   46.7620   32.4270   37.9880 C   0  0  0  0  0  0  0  0  0  0  0  0
   45.9840   34.3380   41.0160 C   0  0  0  0  0  0  0  0  0  0  0  0
   47.2210   34.8050   41.4250 C   0  0  0  0  0  0  0  0  0  0  0  0
   48.3590   34.4690   40.6630 C   0  0  0  0  0  0  0  0  0  0  0  0
   48.1610   33.6990   39.5630 N   0  0  0  0  0  0  0  0  0  0  0  0
   46.9270   33.2560   39.1880 C   0  0  0  0  0  0  0  0  0  0  0  0
   45.8800   33.5790   39.9110 N   0  0  0  0  0  0  0  0  0  0  0  0
   44.8070   34.6740   41.7960 C   0  0  0  0  0  0  0  0  0  0  0  0
   43.7970   35.1600   41.2380 O   0  0  0  0  0  0  0  0  0  0  0  0
   44.8640   34.4300   43.1840 O   0  0  0  0  0  0  0  0  0  0  0  0
   44.6790   35.4950   44.0750 C   0  0  0  0  0  0  0  0  0  0  0  0
   43.3560   35.8870   44.1880 F   0  0  0  0  0  0  0  0  0  0  0  0
   45.1260   35.1320   45.3340 F   0  0  0  0  0  0  0  0  0  0  0  0
   45.4040   36.5590   43.5690 F   0  0  0  0  0  0  0  0  0  0  0  0
   45.9850   31.1730   38.2170 C   0  0  0  0  0  0  0  0  0  0  0  0
   46.0420   33.2570   36.9510 C   0  0  0  0  0  0  0  0  0  0  0  0
   48.1120   32.1030   37.4330 C   0  0  0  0  0  0  0  0  0  0  0  0
   48.1740   31.8880   35.9790 C   0  0  0  0  0  0  0  0  0  0  0  0
   47.7710   30.7130   35.3540 C   0  0  0  0  0  0  0  0  0  0  0  0
   48.0280   30.9580   33.6160 S   0  0  0  0  0  0  0  0  0  0  0  0
   48.6920   32.7290   33.9710 C   0  0  0  0  0  0  0  0  0  0  0  0
   48.6050   32.7840   35.1300 N   0  0  0  0  0  0  0  0  0  0  0  0
   47.3147   35.4267   42.3276 H   0  0  0  0  0  0  0  0  0  0  0  0
   49.3633   34.8158   40.9477 H   0  0  0  0  0  0  0  0  0  0  0  0
   45.8780   31.0002   39.2981 H   0  0  0  0  0  0  0  0  0  0  0  0
   44.9888   31.2704   37.7608 H   0  0  0  0  0  0  0  0  0  0  0  0
   46.5157   30.3243   37.7608 H   0  0  0  0  0  0  0  0  0  0  0  0
   45.4008   33.9961   37.4536 H   0  0  0  0  0  0  0  0  0  0  0  0
   46.7789   33.7781   36.3222 H   0  0  0  0  0  0  0  0  0  0  0  0
   45.4220   32.6010   36.3222 H   0  0  0  0  0  0  0  0  0  0  0  0
   48.7866   32.9361   37.6796 H   0  0  0  0  0  0  0  0  0  0  0  0
   48.3988   31.1436   37.8884 H   0  0  0  0  0  0  0  0  0  0  0  0
   47.3721   29.8108   35.8407 H   0  0  0  0  0  0  0  0  0  0  0  0
   49.0574   33.4889   33.2646 H   0  0  0  0  0  0  0  0  0  0  0  0
  1 15  1  0
  1  6  1  0
  2  3  2  0
  2  8  1  0
  4  3  1  0
  5  4  2  0
  6  5  1  0
  6  7  2  0
  7  2  1  0
  8 10  1  0
  9  8  2  0
 10 11  1  0
 11 12  1  0
 11 13  1  0
 14 11  1  0
 16  1  1  0
 17  1  1  0
 18 17  1  0
 19 18  2  0
 20 21  1  0
 20 19  1  0
 21 22  2  0
 22 18  1  0
  3 23  1  0
  4 24  1  0
 15 25  1  0
 15 26  1  0
 15 27  1  0
 16 28  1  0
 16 29  1  0
 16 30  1  0
 17 31  1  0
 17 32  1  0
 19 33  1  0
 21 34  1  0
M  ISO  8  23  14  24  14  25   8  26   8  27   8  28   8  29   8  30   8
M  ISO  4  31   8  32   8  33  14  34  14
M  END
>  <minimizedAffinity>  (1) 
-4.37579393

>  <minimizedRMSD>  (1) 
2.43368602

$$$$
