
     RDKit          3D

 32 35  0  0  0  0  0  0  0  0999 V2000
   46.2380   30.4470   49.1620 N   0  0  0  0  0  0  0  0  0  0  0  0
   45.3950   31.4660   49.4580 C   0  0  0  0  0  0  0  0  0  0  0  0
   45.3070   32.2760   48.3790 N   0  0  0  0  0  0  0  0  0  0  0  0
   46.1000   31.7330   47.4470 C   0  0  0  0  0  0  0  0  0  0  0  0
   46.3220   32.2220   46.1770 C   0  0  0  0  0  0  0  0  0  0  0  0
   47.1730   31.5080   45.3790 N   0  0  0  0  0  0  0  0  0  0  0  0
   47.7710   30.3850   45.8020 C   0  0  0  0  0  0  0  0  0  0  0  0
   47.5300   29.9430   47.0410 N   0  0  0  0  0  0  0  0  0  0  0  0
   46.7140   30.5760   47.8840 C   0  0  0  0  0  0  0  0  0  0  0  0
   48.6750   29.6480   44.9270 C   0  0  0  0  0  0  0  0  0  0  0  0
   49.1770   28.3780   45.1230 C   0  0  0  0  0  0  0  0  0  0  0  0
   49.9880   28.0430   44.0780 N   0  0  0  0  0  0  0  0  0  0  0  0
   49.9690   29.1120   43.2600 C   0  0  0  0  0  0  0  0  0  0  0  0
   49.1820   30.0830   43.7610 N   0  0  0  0  0  0  0  0  0  0  0  0
   45.6410   33.6670   45.4350 S   0  0  0  0  0  0  0  0  0  0  0  0
   47.8020   34.7250   42.3450 C   0  0  0  0  0  0  0  0  0  0  0  0
   47.0880   34.3390   41.2080 C   0  0  0  0  0  0  0  0  0  0  0  0
   45.8580   33.7110   41.4090 C   0  0  0  0  0  0  0  0  0  0  0  0
   45.4280   33.5120   42.6890 N   0  0  0  0  0  0  0  0  0  0  0  0
   46.1680   33.9100   43.7480 C   0  0  0  0  0  0  0  0  0  0  0  0
   47.3340   34.5050   43.5650 N   0  0  0  0  0  0  0  0  0  0  0  0
   49.0960   35.3860   42.1400 C   0  0  0  0  0  0  0  0  0  0  0  0
   49.2540   36.1610   41.1690 O   0  0  0  0  0  0  0  0  0  0  0  0
   50.1190   35.1370   43.0260 O   0  0  0  0  0  0  0  0  0  0  0  0
   46.4859   29.6832   49.8070 H   0  0  0  0  0  0  0  0  0  0  0  0
   44.8710   31.6098   50.4144 H   0  0  0  0  0  0  0  0  0  0  0  0
   48.9574   27.7349   45.9880 H   0  0  0  0  0  0  0  0  0  0  0  0
   50.5213   29.1827   42.3113 H   0  0  0  0  0  0  0  0  0  0  0  0
   49.0004   30.9990   43.3265 H   0  0  0  0  0  0  0  0  0  0  0  0
   47.4790   34.5224   40.1963 H   0  0  0  0  0  0  0  0  0  0  0  0
   45.2481   33.3834   40.5542 H   0  0  0  0  0  0  0  0  0  0  0  0
   50.9984   35.5746   42.9024 H   0  0  0  0  0  0  0  0  0  0  0  0
  1  2  1  0
  3  2  2  0
  4  9  2  0
  4  3  1  0
  5  4  1  0
  6  7  1  0
  6  5  2  0
  7  8  2  0
  8  9  1  0
  9  1  1  0
 10 11  2  0
 10  7  1  0
 12 11  1  0
 13 14  1  0
 13 12  2  0
 14 10  1  0
 15  5  1  0
 16 21  2  0
 17 18  2  0
 17 16  1  0
 18 19  1  0
 19 20  2  0
 20 15  1  0
 21 20  1  0
 22 16  1  0
 22 24  1  0
 23 22  2  0
  1 25  1  0
  2 26  1  0
 11 27  1  0
 13 28  1  0
 14 29  1  0
 17 30  1  0
 18 31  1  0
 24 32  1  0
M  ISO  8  25   9  26  14  27  14  28  14  29   9  30  14  31  14  32   3
M  END
>  <minimizedAffinity>  (1) 
-5.70191097

>  <minimizedRMSD>  (1) 
0.240708783

$$$$
