
     RDKit          3D

 25 27  0  0  0  0  0  0  0  0999 V2000
   45.8990   33.1020   46.2290 C   0  0  0  0  0  0  0  0  0  0  0  0
   45.4790   32.9170   47.5310 C   0  0  0  0  0  0  0  0  0  0  0  0
   46.1770   32.0760   48.3420 C   0  0  0  0  0  0  0  0  0  0  0  0
   47.2930   31.4520   47.7730 C   0  0  0  0  0  0  0  0  0  0  0  0
   47.3240   32.0760   46.0960 S   0  0  0  0  0  0  0  0  0  0  0  0
   44.3300   35.9100   44.4680 C   0  0  0  0  0  0  0  0  0  0  0  0
   44.2850   35.4100   43.1410 C   0  0  0  0  0  0  0  0  0  0  0  0
   44.7980   34.1170   42.8840 C   0  0  0  0  0  0  0  0  0  0  0  0
   45.3110   33.4170   43.9410 N   0  0  0  0  0  0  0  0  0  0  0  0
   45.3330   33.9330   45.1860 C   0  0  0  0  0  0  0  0  0  0  0  0
   44.8500   35.1630   45.4580 N   0  0  0  0  0  0  0  0  0  0  0  0
   48.2100   30.5150   48.4040 C   0  0  0  0  0  0  0  0  0  0  0  0
   48.5130   29.2930   47.8510 C   0  0  0  0  0  0  0  0  0  0  0  0
   49.4000   28.4930   48.5500 C   0  0  0  0  0  0  0  0  0  0  0  0
   49.9230   28.9270   49.7200 N   0  0  0  0  0  0  0  0  0  0  0  0
   49.6220   30.1240   50.2540 C   0  0  0  0  0  0  0  0  0  0  0  0
   48.7520   30.9260   49.5830 N   0  0  0  0  0  0  0  0  0  0  0  0
   44.5901   33.4435   47.9087 H   0  0  0  0  0  0  0  0  0  0  0  0
   45.8806   31.8968   49.3861 H   0  0  0  0  0  0  0  0  0  0  0  0
   43.9376   36.9138   44.6882 H   0  0  0  0  0  0  0  0  0  0  0  0
   43.8594   36.0161   42.3277 H   0  0  0  0  0  0  0  0  0  0  0  0
   44.7848   33.6899   41.8704 H   0  0  0  0  0  0  0  0  0  0  0  0
   48.0712   28.9667   46.8979 H   0  0  0  0  0  0  0  0  0  0  0  0
   49.6796   27.5053   48.1548 H   0  0  0  0  0  0  0  0  0  0  0  0
   50.0671   30.4457   51.2071 H   0  0  0  0  0  0  0  0  0  0  0  0
  1  2  2  0
  2  3  1  0
  4  3  2  0
  4 12  1  0
  5  1  1  0
  5  4  1  0
  6 11  2  0
  7  6  1  0
  8  7  2  0
  8  9  1  0
  9 10  2  0
 10 11  1  0
 10  1  1  0
 12 17  1  0
 13 12  2  0
 13 14  1  0
 14 15  2  0
 15 16  1  0
 17 16  2  0
  2 18  1  0
  3 19  1  0
  6 20  1  0
  7 21  1  0
  8 22  1  0
 13 23  1  0
 14 24  1  0
 16 25  1  0
M  ISO  8  18  14  19  14  20  14  21  14  22  14  23  14  24  14  25  14
M  END
>  <minimizedAffinity>  (1) 
-4.62154722

>  <minimizedRMSD>  (1) 
1.19810307

$$$$
