
     RDKit          3D

 25 27  0  0  0  0  0  0  0  0999 V2000
   45.9140   33.1060   46.1990 C   0  0  0  0  0  0  0  0  0  0  0  0
   45.4970   32.9310   47.5040 C   0  0  0  0  0  0  0  0  0  0  0  0
   46.2070   32.0910   48.3090 C   0  0  0  0  0  0  0  0  0  0  0  0
   47.3210   31.4650   47.7370 C   0  0  0  0  0  0  0  0  0  0  0  0
   47.3440   32.0770   46.0630 S   0  0  0  0  0  0  0  0  0  0  0  0
   44.3360   35.9110   44.4530 C   0  0  0  0  0  0  0  0  0  0  0  0
   44.2770   35.4010   43.1240 C   0  0  0  0  0  0  0  0  0  0  0  0
   44.7830   34.1020   42.8570 C   0  0  0  0  0  0  0  0  0  0  0  0
   45.3070   33.4040   43.9150 N   0  0  0  0  0  0  0  0  0  0  0  0
   45.3400   33.9300   45.1570 C   0  0  0  0  0  0  0  0  0  0  0  0
   44.8630   35.1640   45.4250 N   0  0  0  0  0  0  0  0  0  0  0  0
   48.2290   30.5360   48.3860 C   0  0  0  0  0  0  0  0  0  0  0  0
   48.5450   29.3110   47.8340 C   0  0  0  0  0  0  0  0  0  0  0  0
   49.4230   28.5350   48.5690 C   0  0  0  0  0  0  0  0  0  0  0  0
   49.9530   28.9120   49.7420 N   0  0  0  0  0  0  0  0  0  0  0  0
   49.6100   30.1160   50.2330 C   0  0  0  0  0  0  0  0  0  0  0  0
   48.7490   30.9410   49.5690 N   0  0  0  0  0  0  0  0  0  0  0  0
   44.6104   33.4585   47.8857 H   0  0  0  0  0  0  0  0  0  0  0  0
   45.9191   31.9138   49.3558 H   0  0  0  0  0  0  0  0  0  0  0  0
   43.9489   36.9160   44.6768 H   0  0  0  0  0  0  0  0  0  0  0  0
   43.8443   36.0069   42.3142 H   0  0  0  0  0  0  0  0  0  0  0  0
   44.7560   33.6732   41.8444 H   0  0  0  0  0  0  0  0  0  0  0  0
   48.1267   28.9744   46.8739 H   0  0  0  0  0  0  0  0  0  0  0  0
   49.7033   27.5500   48.1676 H   0  0  0  0  0  0  0  0  0  0  0  0
   50.0338   30.4441   51.1936 H   0  0  0  0  0  0  0  0  0  0  0  0
  1  2  2  0
  2  3  1  0
  4  3  2  0
  4 12  1  0
  5  1  1  0
  5  4  1  0
  6 11  2  0
  7  6  1  0
  8  7  2  0
  8  9  1  0
  9 10  2  0
 10 11  1  0
 10  1  1  0
 12 17  1  0
 13 12  2  0
 13 14  1  0
 14 15  2  0
 15 16  1  0
 17 16  2  0
  2 18  1  0
  3 19  1  0
  6 20  1  0
  7 21  1  0
  8 22  1  0
 13 23  1  0
 14 24  1  0
 16 25  1  0
M  ISO  8  18  14  19  14  20  14  21  14  22  14  23  14  24  14  25  14
M  END
>  <minimizedAffinity>  (1) 
-4.58579779

>  <minimizedRMSD>  (1) 
1.25498867

$$$$
