
     RDKit          3D

 29 29  0  0  0  0  0  0  0  0999 V2000
   46.0200   34.6230   41.4000 C   0  0  0  0  0  0  0  0  0  0  0  0
   47.1930   35.2220   41.8230 C   0  0  0  0  0  0  0  0  0  0  0  0
   48.3920   34.9300   41.1300 C   0  0  0  0  0  0  0  0  0  0  0  0
   48.3140   34.0660   40.0790 N   0  0  0  0  0  0  0  0  0  0  0  0
   47.1330   33.4970   39.6960 C   0  0  0  0  0  0  0  0  0  0  0  0
   46.0300   33.7910   40.3630 N   0  0  0  0  0  0  0  0  0  0  0  0
   44.8070   34.9320   42.1160 C   0  0  0  0  0  0  0  0  0  0  0  0
   43.9340   35.6900   41.5860 O   0  0  0  0  0  0  0  0  0  0  0  0
   44.6210   34.3810   43.3880 O   0  0  0  0  0  0  0  0  0  0  0  0
   45.1040   35.0650   44.5110 C   0  0  0  0  0  0  0  0  0  0  0  0
   44.2410   35.0210   45.5930 F   0  0  0  0  0  0  0  0  0  0  0  0
   46.3140   34.5510   44.8990 F   0  0  0  0  0  0  0  0  0  0  0  0
   45.2130   36.4010   44.1290 F   0  0  0  0  0  0  0  0  0  0  0  0
   47.0350   32.5600   38.5580 C   0  0  0  0  0  0  0  0  0  0  0  0
   46.5280   31.2180   38.9330 C   0  0  0  0  0  0  0  0  0  0  0  0
   46.1960   33.1790   37.4880 C   0  0  0  0  0  0  0  0  0  0  0  0
   48.4520   32.4260   38.0060 C   0  0  0  0  0  0  0  0  0  0  0  0
   48.5370   33.0540   36.2980 S   0  0  0  0  0  0  0  0  0  0  0  0
   47.1938   35.9111   42.6804 H   0  0  0  0  0  0  0  0  0  0  0  0
   49.3492   35.3827   41.4280 H   0  0  0  0  0  0  0  0  0  0  0  0
   46.4953   31.1315   40.0291 H   0  0  0  0  0  0  0  0  0  0  0  0
   45.5161   31.0809   38.5240 H   0  0  0  0  0  0  0  0  0  0  0  0
   47.1965   30.4460   38.5240 H   0  0  0  0  0  0  0  0  0  0  0  0
   45.3924   33.7719   37.9492 H   0  0  0  0  0  0  0  0  0  0  0  0
   46.8222   33.8332   36.8635 H   0  0  0  0  0  0  0  0  0  0  0  0
   45.7557   32.3877   36.8635 H   0  0  0  0  0  0  0  0  0  0  0  0
   49.1424   33.0036   38.6383 H   0  0  0  0  0  0  0  0  0  0  0  0
   48.7340   31.3627   38.0073 H   0  0  0  0  0  0  0  0  0  0  0  0
   48.7207   34.4115   36.3192 H   0  0  0  0  0  0  0  0  0  0  0  0
  1  2  2  0
  1  7  1  0
  3  2  1  0
  4  3  2  0
  5  4  1  0
  5  6  2  0
  6  1  1  0
  7  9  1  0
  8  7  2  0
  9 10  1  0
 10 12  1  0
 10 11  1  0
 13 10  1  0
 14 15  1  0
 14  5  1  0
 16 14  1  0
 17 14  1  0
 18 17  1  0
  2 19  1  0
  3 20  1  0
 15 21  1  0
 15 22  1  0
 15 23  1  0
 16 24  1  0
 16 25  1  0
 16 26  1  0
 17 27  1  0
 17 28  1  0
 18 29  1  0
M  ISO  8  19  14  20  14  21   8  22   8  23   8  24   8  25   8  26   8
M  ISO  3  27   8  28   8  29  11
M  END
>  <minimizedAffinity>  (1) 
-3.88007188

>  <minimizedRMSD>  (1) 
0.923309267

$$$$
