
     RDKit          3D

 29 31  0  0  0  0  0  0  0  0999 V2000
   46.0080   32.9420   46.0060 C   0  0  0  0  0  0  0  0  0  0  0  0
   45.6320   32.7160   47.3160 C   0  0  0  0  0  0  0  0  0  0  0  0
   46.0870   31.5880   47.9250 C   0  0  0  0  0  0  0  0  0  0  0  0
   46.9040   30.7340   47.1730 C   0  0  0  0  0  0  0  0  0  0  0  0
   47.0250   31.5480   45.5930 S   0  0  0  0  0  0  0  0  0  0  0  0
   44.4750   36.0230   44.7300 C   0  0  0  0  0  0  0  0  0  0  0  0
   45.0550   36.0890   43.4530 C   0  0  0  0  0  0  0  0  0  0  0  0
   45.9640   35.0790   43.0470 C   0  0  0  0  0  0  0  0  0  0  0  0
   46.2320   34.0820   43.9320 N   0  0  0  0  0  0  0  0  0  0  0  0
   45.6450   34.0580   45.1620 C   0  0  0  0  0  0  0  0  0  0  0  0
   44.7960   35.0070   45.5340 N   0  0  0  0  0  0  0  0  0  0  0  0
   47.4920   29.5180   47.5390 N   0  0  0  0  0  0  0  0  0  0  0  0
   48.8180   29.3570   48.1120 C   0  0  0  0  0  0  0  0  0  0  0  0
   48.9980   27.8750   48.0910 C   0  0  0  0  0  0  0  0  0  0  0  0
   47.9280   27.2720   47.2400 C   0  0  0  0  0  0  0  0  0  0  0  0
   46.7860   28.2610   47.3550 C   0  0  0  0  0  0  0  0  0  0  0  0
   44.9843   33.4266   47.8504 H   0  0  0  0  0  0  0  0  0  0  0  0
   45.8237   31.3555   48.9674 H   0  0  0  0  0  0  0  0  0  0  0  0
   43.7671   36.7965   45.0627 H   0  0  0  0  0  0  0  0  0  0  0  0
   44.8064   36.9172   42.7731 H   0  0  0  0  0  0  0  0  0  0  0  0
   46.4348   35.1013   42.0531 H   0  0  0  0  0  0  0  0  0  0  0  0
   49.5804   29.8593   47.4985 H   0  0  0  0  0  0  0  0  0  0  0  0
   48.9204   29.7982   49.1144 H   0  0  0  0  0  0  0  0  0  0  0  0
   49.9853   27.6284   47.6735 H   0  0  0  0  0  0  0  0  0  0  0  0
   48.9313   27.4759   49.1139 H   0  0  0  0  0  0  0  0  0  0  0  0
   47.6322   26.2836   47.6217 H   0  0  0  0  0  0  0  0  0  0  0  0
   48.2489   27.1068   46.2009 H   0  0  0  0  0  0  0  0  0  0  0  0
   46.1761   28.2754   46.4397 H   0  0  0  0  0  0  0  0  0  0  0  0
   46.0773   28.0280   48.1634 H   0  0  0  0  0  0  0  0  0  0  0  0
  1  2  2  0
  2  3  1  0
  4 12  1  0
  4  3  2  0
  5  1  1  0
  5  4  1  0
  6 11  2  0
  7  6  1  0
  8  7  2  0
  8  9  1  0
  9 10  2  0
 10 11  1  0
 10  1  1  0
 12 13  1  0
 14 13  1  0
 15 16  1  0
 15 14  1  0
 16 12  1  0
  2 17  1  0
  3 18  1  0
  6 19  1  0
  7 20  1  0
  8 21  1  0
 13 22  1  0
 13 23  1  0
 14 24  1  0
 14 25  1  0
 15 26  1  0
 15 27  1  0
 16 28  1  0
 16 29  1  0
M  ISO  8  17  14  18  14  19  14  20  14  21  14  22  13  23  13  24  13
M  ISO  5  25  13  26  13  27  13  28  13  29  13
M  END
>  <minimizedAffinity>  (1) 
-4.40163803

>  <minimizedRMSD>  (1) 
1.31835079

$$$$
