
     RDKit          3D

 24 26  0  0  0  0  0  0  0  0999 V2000
   46.0590   32.9290   45.9700 C   0  0  0  0  0  0  0  0  0  0  0  0
   45.7220   32.6540   47.2810 C   0  0  0  0  0  0  0  0  0  0  0  0
   46.2100   31.5280   47.8700 C   0  0  0  0  0  0  0  0  0  0  0  0
   47.0350   30.7190   47.0790 C   0  0  0  0  0  0  0  0  0  0  0  0
   47.1030   31.5710   45.5160 S   0  0  0  0  0  0  0  0  0  0  0  0
   44.4660   36.0000   44.7640 C   0  0  0  0  0  0  0  0  0  0  0  0
   45.0150   36.1060   43.4730 C   0  0  0  0  0  0  0  0  0  0  0  0
   45.9290   35.1170   43.0330 C   0  0  0  0  0  0  0  0  0  0  0  0
   46.2340   34.0930   43.9030 N   0  0  0  0  0  0  0  0  0  0  0  0
   45.6780   34.0410   45.1290 C   0  0  0  0  0  0  0  0  0  0  0  0
   44.8060   34.9730   45.5670 N   0  0  0  0  0  0  0  0  0  0  0  0
   47.6690   29.5110   47.4240 N   0  0  0  0  0  0  0  0  0  0  0  0
   48.8090   29.4980   48.0940 N   0  0  0  0  0  0  0  0  0  0  0  0
   49.1960   28.2120   48.2910 C   0  0  0  0  0  0  0  0  0  0  0  0
   48.2090   27.4450   47.6930 C   0  0  0  0  0  0  0  0  0  0  0  0
   47.2380   28.2590   47.1390 C   0  0  0  0  0  0  0  0  0  0  0  0
   45.0671   33.3367   47.8423 H   0  0  0  0  0  0  0  0  0  0  0  0
   45.9692   31.2676   48.9113 H   0  0  0  0  0  0  0  0  0  0  0  0
   43.7550   36.7601   45.1199 H   0  0  0  0  0  0  0  0  0  0  0  0
   44.7389   36.9436   42.8156 H   0  0  0  0  0  0  0  0  0  0  0  0
   46.3799   35.1650   42.0308 H   0  0  0  0  0  0  0  0  0  0  0  0
   50.0971   27.8561   48.8120 H   0  0  0  0  0  0  0  0  0  0  0  0
   48.1992   26.3454   47.6632 H   0  0  0  0  0  0  0  0  0  0  0  0
   46.3298   27.9602   46.5951 H   0  0  0  0  0  0  0  0  0  0  0  0
  1  2  2  0
  2  3  1  0
  4 12  1  0
  4  3  2  0
  5  1  1  0
  5  4  1  0
  6 11  2  0
  7  6  1  0
  8  7  2  0
  8  9  1  0
  9 10  2  0
 10 11  1  0
 10  1  1  0
 12 13  1  0
 13 14  2  0
 15 14  1  0
 16 12  1  0
 16 15  2  0
  2 17  1  0
  3 18  1  0
  6 19  1  0
  7 20  1  0
  8 21  1  0
 14 22  1  0
 15 23  1  0
 16 24  1  0
M  ISO  8  17  14  18  14  19  14  20  14  21  14  22  14  23  14  24  14
M  END
>  <minimizedAffinity>  (1) 
-4.36049461

>  <minimizedRMSD>  (1) 
1.46794605

$$$$
