
     RDKit          3D

 31 33  0  0  0  0  0  0  0  0999 V2000
   45.8380   33.1090   46.2200 C   0  0  0  0  0  0  0  0  0  0  0  0
   45.4200   32.9520   47.5260 C   0  0  0  0  0  0  0  0  0  0  0  0
   46.0840   32.0750   48.3280 C   0  0  0  0  0  0  0  0  0  0  0  0
   47.1560   31.3950   47.7460 C   0  0  0  0  0  0  0  0  0  0  0  0
   47.2140   32.0040   46.0680 S   0  0  0  0  0  0  0  0  0  0  0  0
   44.3640   35.9850   44.4870 C   0  0  0  0  0  0  0  0  0  0  0  0
   44.3260   35.4990   43.1510 C   0  0  0  0  0  0  0  0  0  0  0  0
   44.8020   34.2080   42.8780 C   0  0  0  0  0  0  0  0  0  0  0  0
   45.2850   33.4780   43.9240 N   0  0  0  0  0  0  0  0  0  0  0  0
   45.3070   33.9650   45.1820 C   0  0  0  0  0  0  0  0  0  0  0  0
   44.8530   35.2040   45.4660 N   0  0  0  0  0  0  0  0  0  0  0  0
   47.9960   30.4350   48.3820 N   0  0  0  0  0  0  0  0  0  0  0  0
   48.7620   30.6310   49.6120 C   0  0  0  0  0  0  0  0  0  0  0  0
   50.2230   30.4940   49.2170 C   0  0  0  0  0  0  0  0  0  0  0  0
   50.4370   29.1370   48.7630 N   0  0  0  0  0  0  0  0  0  0  0  0
   49.6630   28.9530   47.5440 C   0  0  0  0  0  0  0  0  0  0  0  0
   48.1980   29.0930   47.8610 C   0  0  0  0  0  0  0  0  0  0  0  0
   44.5647   33.5259   47.9123 H   0  0  0  0  0  0  0  0  0  0  0  0
   45.7924   31.9111   49.3759 H   0  0  0  0  0  0  0  0  0  0  0  0
   43.9950   36.9951   44.7183 H   0  0  0  0  0  0  0  0  0  0  0  0
   43.9280   36.1281   42.3412 H   0  0  0  0  0  0  0  0  0  0  0  0
   44.7863   33.7991   41.8570 H   0  0  0  0  0  0  0  0  0  0  0  0
   48.5698   31.6312   50.0275 H   0  0  0  0  0  0  0  0  0  0  0  0
   48.4814   29.8996   50.3842 H   0  0  0  0  0  0  0  0  0  0  0  0
   50.4588   31.2003   48.4073 H   0  0  0  0  0  0  0  0  0  0  0  0
   50.8739   30.7174   50.0751 H   0  0  0  0  0  0  0  0  0  0  0  0
   51.4373   28.9849   48.5701 H   0  0  0  0  0  0  0  0  0  0  0  0
   49.8563   27.9510   47.1334 H   0  0  0  0  0  0  0  0  0  0  0  0
   49.9547   29.7121   46.8033 H   0  0  0  0  0  0  0  0  0  0  0  0
   47.5999   28.9490   46.9491 H   0  0  0  0  0  0  0  0  0  0  0  0
   47.8843   28.3378   48.5967 H   0  0  0  0  0  0  0  0  0  0  0  0
  1  2  2  0
  2  3  1  0
  4  3  2  0
  4 12  1  0
  5  1  1  0
  5  4  1  0
  6 11  2  0
  7  6  1  0
  8  7  2  0
  8  9  1  0
  9 10  2  0
 10 11  1  0
 10  1  1  0
 12 13  1  0
 14 13  1  0
 15 14  1  0
 16 17  1  0
 16 15  1  0
 17 12  1  0
  2 18  1  0
  3 19  1  0
  6 20  1  0
  7 21  1  0
  8 22  1  0
 13 23  1  0
 13 24  1  0
 14 25  1  0
 14 26  1  0
 15 27  1  0
 16 28  1  0
 16 29  1  0
 17 30  1  0
 17 31  1  0
M  ISO  8  18  14  19  14  20  14  21  14  22  14  23  13  24  13  25  13
M  ISO  6  26  13  27   5  28  13  29  13  30  13  31  13
M  END
>  <minimizedAffinity>  (1) 
-4.44471407

>  <minimizedRMSD>  (1) 
1.10206032

$$$$
