
     RDKit          3D

 32 34  0  0  0  0  0  0  0  0999 V2000
   45.8060   33.1990   45.9880 C   0  0  0  0  0  0  0  0  0  0  0  0
   45.4040   33.1000   47.3030 C   0  0  0  0  0  0  0  0  0  0  0  0
   46.0530   32.2560   48.1420 C   0  0  0  0  0  0  0  0  0  0  0  0
   47.1080   31.5350   47.5830 C   0  0  0  0  0  0  0  0  0  0  0  0
   47.1610   32.0650   45.8790 S   0  0  0  0  0  0  0  0  0  0  0  0
   44.4210   36.0380   44.1270 C   0  0  0  0  0  0  0  0  0  0  0  0
   44.2990   35.4840   42.8270 C   0  0  0  0  0  0  0  0  0  0  0  0
   44.6970   34.1450   42.6280 C   0  0  0  0  0  0  0  0  0  0  0  0
   45.1860   33.4430   43.7020 N   0  0  0  0  0  0  0  0  0  0  0  0
   45.2840   34.0120   44.9210 C   0  0  0  0  0  0  0  0  0  0  0  0
   44.9070   35.2910   45.1330 N   0  0  0  0  0  0  0  0  0  0  0  0
   47.9640   30.5810   48.2190 N   0  0  0  0  0  0  0  0  0  0  0  0
   48.2050   29.2060   47.8580 C   0  0  0  0  0  0  0  0  0  0  0  0
   49.6870   28.8880   47.7860 C   0  0  0  0  0  0  0  0  0  0  0  0
   50.4690   29.6160   48.8540 C   0  0  0  0  0  0  0  0  0  0  0  0
   49.5480   30.1010   49.9710 C   0  0  0  0  0  0  0  0  0  0  0  0
   48.6480   31.1370   49.3690 C   0  0  0  0  0  0  0  0  0  0  0  0
   44.5604   33.7032   47.6697 H   0  0  0  0  0  0  0  0  0  0  0  0
   45.7655   32.1465   49.1981 H   0  0  0  0  0  0  0  0  0  0  0  0
   44.1178   37.0791   44.3118 H   0  0  0  0  0  0  0  0  0  0  0  0
   43.9036   36.0838   41.9940 H   0  0  0  0  0  0  0  0  0  0  0  0
   44.6175   33.6750   41.6367 H   0  0  0  0  0  0  0  0  0  0  0  0
   47.7382   28.5541   48.6111 H   0  0  0  0  0  0  0  0  0  0  0  0
   47.7724   29.0359   46.8610 H   0  0  0  0  0  0  0  0  0  0  0  0
   49.8257   27.8049   47.9189 H   0  0  0  0  0  0  0  0  0  0  0  0
   50.0602   29.2166   46.8048 H   0  0  0  0  0  0  0  0  0  0  0  0
   51.2203   28.9336   49.2780 H   0  0  0  0  0  0  0  0  0  0  0  0
   50.9566   30.4899   48.3973 H   0  0  0  0  0  0  0  0  0  0  0  0
   48.9526   29.2628   50.3620 H   0  0  0  0  0  0  0  0  0  0  0  0
   50.1273   30.5187   50.8076 H   0  0  0  0  0  0  0  0  0  0  0  0
   49.2476   32.0038   49.0540 H   0  0  0  0  0  0  0  0  0  0  0  0
   47.9056   31.4534   50.1165 H   0  0  0  0  0  0  0  0  0  0  0  0
  1  2  2  0
  2  3  1  0
  4  3  2  0
  4 12  1  0
  5  1  1  0
  5  4  1  0
  6 11  2  0
  7  6  1  0
  8  7  2  0
  8  9  1  0
  9 10  2  0
 10 11  1  0
 10  1  1  0
 12 17  1  0
 13 12  1  0
 14 13  1  0
 14 15  1  0
 15 16  1  0
 17 16  1  0
  2 18  1  0
  3 19  1  0
  6 20  1  0
  7 21  1  0
  8 22  1  0
 13 23  1  0
 13 24  1  0
 14 25  1  0
 14 26  1  0
 15 27  1  0
 15 28  1  0
 16 29  1  0
 16 30  1  0
 17 31  1  0
 17 32  1  0
M  ISO  8  18  14  19  14  20  14  21  14  22  14  23  13  24  13  25  13
M  ISO  7  26  13  27  13  28  13  29  13  30  13  31  13  32  13
M  END
>  <minimizedAffinity>  (1) 
-4.57045221

>  <minimizedRMSD>  (1) 
1.2388016

$$$$
