
     RDKit          3D

 18 19  0  0  0  0  0  0  0  0999 V2000
   44.4980   36.0280   44.5910 C   0  0  0  0  0  0  0  0  0  0  0  0
   45.1030   36.1250   43.3090 C   0  0  0  0  0  0  0  0  0  0  0  0
   46.0260   35.1290   42.9220 C   0  0  0  0  0  0  0  0  0  0  0  0
   46.2860   34.1220   43.8100 N   0  0  0  0  0  0  0  0  0  0  0  0
   45.6860   34.0730   45.0180 C   0  0  0  0  0  0  0  0  0  0  0  0
   44.8010   35.0130   45.4100 N   0  0  0  0  0  0  0  0  0  0  0  0
   46.0340   32.9600   45.8820 C   0  0  0  0  0  0  0  0  0  0  0  0
   45.6930   32.7320   47.1970 C   0  0  0  0  0  0  0  0  0  0  0  0
   46.1420   31.6030   47.8090 C   0  0  0  0  0  0  0  0  0  0  0  0
   46.9290   30.7470   47.0340 C   0  0  0  0  0  0  0  0  0  0  0  0
   47.0220   31.5610   45.4410 S   0  0  0  0  0  0  0  0  0  0  0  0
   47.6700   29.2010   47.5210 S   0  0  0  0  0  0  0  0  0  0  0  0
   43.7754   36.7923   44.9130 H   0  0  0  0  0  0  0  0  0  0  0  0
   44.8578   36.9575   42.6331 H   0  0  0  0  0  0  0  0  0  0  0  0
   46.5193   35.1620   41.9394 H   0  0  0  0  0  0  0  0  0  0  0  0
   45.0669   33.4522   47.7442 H   0  0  0  0  0  0  0  0  0  0  0  0
   45.8986   31.3762   48.8575 H   0  0  0  0  0  0  0  0  0  0  0  0
   47.7073   29.1231   48.8883 H   0  0  0  0  0  0  0  0  0  0  0  0
  1  6  2  0
  2  1  1  0
  3  2  2  0
  3  4  1  0
  4  5  2  0
  5  6  1  0
  5  7  1  0
  7  8  2  0
  8  9  1  0
 10 12  1  0
 10  9  2  0
 11  7  1  0
 11 10  1  0
  1 13  1  0
  2 14  1  0
  3 15  1  0
  8 16  1  0
  9 17  1  0
 12 18  1  0
M  ISO  6  13  14  14  14  15  14  16  14  17  14  18  11
M  END
>  <minimizedAffinity>  (1) 
-4.00715685

>  <minimizedRMSD>  (1) 
1.04807544

$$$$
