
     RDKit          3D

 45 48  0  0  1  0  0  0  0  0999 V2000
   48.8900   28.8410   48.4060 N   0  0  0  0  0  0  0  0  0  0  0  0
   48.6990   27.5160   47.8910 C   0  0  0  0  0  0  0  0  0  0  0  0
   50.0020   26.8070   47.6120 C   0  0  0  0  0  0  0  0  0  0  0  0
   51.0330   27.1330   48.6620 C   0  0  0  0  0  0  0  0  0  0  0  0
   50.3710   27.7130   49.9170 C   0  0  0  0  0  0  0  0  0  0  0  0
   49.8000   29.0330   49.4970 C   0  0  1  0  0  0  0  0  0  0  0  0
   50.9410   29.8810   49.1720 N   0  0  0  0  0  0  0  0  0  0  0  0
   51.7160   29.8380   48.0960 C   0  0  0  0  0  0  0  0  0  0  0  0
   52.7650   30.7210   47.9390 C   0  0  0  0  0  0  0  0  0  0  0  0
   53.6100   30.6370   46.7170 C   0  0  0  0  0  0  0  0  0  0  0  0
   53.0570   31.6880   48.8940 C   0  0  0  0  0  0  0  0  0  0  0  0
   54.0200   32.5010   48.7520 O   0  0  0  0  0  0  0  0  0  0  0  0
   52.2540   31.7050   49.9700 N   0  0  0  0  0  0  0  0  0  0  0  0
   51.2380   30.8350   50.1000 C   0  0  0  0  0  0  0  0  0  0  0  0
   50.5460   30.9510   51.1650 O   0  0  0  0  0  0  0  0  0  0  0  0
   47.1650   32.0940   46.7160 C   0  0  0  0  0  0  0  0  0  0  0  0
   47.3700   32.2040   48.0660 C   0  0  0  0  0  0  0  0  0  0  0  0
   47.9430   31.1730   48.7370 C   0  0  0  0  0  0  0  0  0  0  0  0
   48.2780   30.0690   47.9710 C   0  0  0  0  0  0  0  0  0  0  0  0
   47.7850   30.4830   46.2990 S   0  0  0  0  0  0  0  0  0  0  0  0
   44.9890   34.6610   45.2590 C   0  0  0  0  0  0  0  0  0  0  0  0
   45.5550   34.7970   43.9550 C   0  0  0  0  0  0  0  0  0  0  0  0
   46.6780   33.9930   43.6140 C   0  0  0  0  0  0  0  0  0  0  0  0
   47.1400   33.1380   44.5710 N   0  0  0  0  0  0  0  0  0  0  0  0
   46.5860   33.0360   45.7830 C   0  0  0  0  0  0  0  0  0  0  0  0
   45.5280   33.7860   46.1180 N   0  0  0  0  0  0  0  0  0  0  0  0
   48.1303   26.9303   48.6282 H   0  0  0  0  0  0  0  0  0  0  0  0
   48.1577   27.6045   46.9375 H   0  0  0  0  0  0  0  0  0  0  0  0
   49.8261   25.7212   47.6062 H   0  0  0  0  0  0  0  0  0  0  0  0
   50.3801   27.1427   46.6351 H   0  0  0  0  0  0  0  0  0  0  0  0
   51.5747   26.2146   48.9323 H   0  0  0  0  0  0  0  0  0  0  0  0
   51.7269   27.8819   48.2526 H   0  0  0  0  0  0  0  0  0  0  0  0
   49.5729   27.0453   50.2737 H   0  0  0  0  0  0  0  0  0  0  0  0
   51.0897   27.8242   50.7423 H   0  0  0  0  0  0  0  0  0  0  0  0
   49.2071   29.5190   50.2859 H   0  0  0  0  0  0  0  0  0  0  0  0
   51.5194   29.0868   47.3168 H   0  0  0  0  0  0  0  0  0  0  0  0
   54.6657   30.5321   47.0077 H   0  0  0  0  0  0  0  0  0  0  0  0
   53.3056   29.7647   46.1200 H   0  0  0  0  0  0  0  0  0  0  0  0
   53.4833   31.5522   46.1200 H   0  0  0  0  0  0  0  0  0  0  0  0
   52.4203   32.3999   50.7119 H   0  0  0  0  0  0  0  0  0  0  0  0
   47.0733   33.1185   48.6005 H   0  0  0  0  0  0  0  0  0  0  0  0
   48.1295   31.2117   49.8204 H   0  0  0  0  0  0  0  0  0  0  0  0
   44.1204   35.2678   45.5546 H   0  0  0  0  0  0  0  0  0  0  0  0
   45.1319   35.5079   43.2300 H   0  0  0  0  0  0  0  0  0  0  0  0
   47.1522   34.0579   42.6236 H   0  0  0  0  0  0  0  0  0  0  0  0
  1  6  1  0
  2  1  1  0
  3  2  1  0
  3  4  1  0
  4  5  1  0
  6  5  1  0
  7  6  1  0
  7 14  1  0
  8  7  1  0
  9  8  2  0
  9 11  1  0
 10  9  1  0
 11 13  1  0
 12 11  2  0
 13 14  1  0
 14 15  2  0
 16 17  2  0
 17 18  1  0
 19  1  1  0
 19 18  2  0
 20 16  1  0
 20 19  1  0
 21 26  2  0
 22 21  1  0
 23 22  2  0
 23 24  1  0
 24 25  2  0
 25 26  1  0
 25 16  1  0
  2 27  1  0
  2 28  1  0
  3 29  1  0
  3 30  1  0
  4 31  1  0
  4 32  1  0
  5 33  1  0
  5 34  1  0
  6 35  1  1
  8 36  1  0
 10 37  1  0
 10 38  1  0
 10 39  1  0
 13 40  1  0
 17 41  1  0
 18 42  1  0
 21 43  1  0
 22 44  1  0
 23 45  1  0
M  ISO  8  27  13  28  13  29  13  30  13  31  13  32  13  33  13  34  13
M  ISO  8  35  13  36  14  37   8  38   8  39   8  40   9  41  14  42  14
M  ISO  3  43  14  44  14  45  14
M  END
>  <minimizedAffinity>  (1) 
-5.09765577

>  <minimizedRMSD>  (1) 
2.67442179

$$$$
