
     RDKit          3D

 38 41  0  0  1  0  0  0  0  0999 V2000
   48.9830   29.1170   48.6580 N   0  0  0  0  0  0  0  0  0  0  0  0
   49.0370   27.7940   48.0900 C   0  0  0  0  0  0  0  0  0  0  0  0
   50.4480   27.2940   47.9360 C   0  0  0  0  0  0  0  0  0  0  0  0
   51.3430   27.7670   49.0450 C   0  0  0  0  0  0  0  0  0  0  0  0
   50.5430   28.2020   50.2480 C   0  0  0  0  0  0  0  0  0  0  0  0
   49.7440   29.4100   49.8590 C   0  0  1  0  0  0  0  0  0  0  0  0
   47.0160   32.1870   46.8840 C   0  0  0  0  0  0  0  0  0  0  0  0
   46.8970   32.1440   48.2490 C   0  0  0  0  0  0  0  0  0  0  0  0
   47.5170   31.1590   48.9350 C   0  0  0  0  0  0  0  0  0  0  0  0
   48.2410   30.2470   48.1820 C   0  0  0  0  0  0  0  0  0  0  0  0
   48.0370   30.7950   46.5120 S   0  0  0  0  0  0  0  0  0  0  0  0
   44.9010   34.7730   45.3630 C   0  0  0  0  0  0  0  0  0  0  0  0
   45.4540   34.8470   44.0630 C   0  0  0  0  0  0  0  0  0  0  0  0
   46.5330   34.0120   43.7460 C   0  0  0  0  0  0  0  0  0  0  0  0
   47.0190   33.1500   44.7070 N   0  0  0  0  0  0  0  0  0  0  0  0
   46.4620   33.1150   45.9250 C   0  0  0  0  0  0  0  0  0  0  0  0
   45.4150   33.9150   46.2560 N   0  0  0  0  0  0  0  0  0  0  0  0
   50.4920   30.6240   49.8130 N   0  0  0  0  0  0  0  0  0  0  0  0
   51.5160   30.8680   48.9750 C   0  0  0  0  0  0  0  0  0  0  0  0
   52.0020   32.0920   49.1840 N   0  0  0  0  0  0  0  0  0  0  0  0
   51.2780   32.6350   50.1690 C   0  0  0  0  0  0  0  0  0  0  0  0
   50.3520   31.7290   50.5520 N   0  0  0  0  0  0  0  0  0  0  0  0
   48.4874   27.1044   48.7476 H   0  0  0  0  0  0  0  0  0  0  0  0
   48.5858   27.8401   47.0878 H   0  0  0  0  0  0  0  0  0  0  0  0
   50.4357   26.1941   47.9357 H   0  0  0  0  0  0  0  0  0  0  0  0
   50.8449   27.6909   46.9900 H   0  0  0  0  0  0  0  0  0  0  0  0
   52.0139   26.9462   49.3387 H   0  0  0  0  0  0  0  0  0  0  0  0
   51.9197   28.6302   48.6812 H   0  0  0  0  0  0  0  0  0  0  0  0
   49.8675   27.3920   50.5602 H   0  0  0  0  0  0  0  0  0  0  0  0
   51.2128   28.4401   51.0875 H   0  0  0  0  0  0  0  0  0  0  0  0
   49.0272   29.6204   50.6664 H   0  0  0  0  0  0  0  0  0  0  0  0
   46.3034   32.9029   48.7798 H   0  0  0  0  0  0  0  0  0  0  0  0
   47.4511   31.0846   50.0305 H   0  0  0  0  0  0  0  0  0  0  0  0
   44.0530   35.4166   45.6400 H   0  0  0  0  0  0  0  0  0  0  0  0
   45.0456   35.5450   43.3174 H   0  0  0  0  0  0  0  0  0  0  0  0
   46.9866   34.0432   42.7444 H   0  0  0  0  0  0  0  0  0  0  0  0
   51.8975   30.1594   48.2251 H   0  0  0  0  0  0  0  0  0  0  0  0
   51.4128   33.6413   50.5923 H   0  0  0  0  0  0  0  0  0  0  0  0
  1  6  1  0
  2  1  1  0
  3  2  1  0
  3  4  1  0
  4  5  1  0
  6  5  1  0
  7  8  2  0
  8  9  1  0
 10  1  1  0
 10  9  2  0
 11  7  1  0
 11 10  1  0
 12 17  2  0
 13 12  1  0
 14 13  2  0
 14 15  1  0
 15 16  2  0
 16 17  1  0
 16  7  1  0
 18  6  1  0
 18 22  1  0
 19 20  2  0
 19 18  1  0
 20 21  1  0
 21 22  2  0
  2 23  1  0
  2 24  1  0
  3 25  1  0
  3 26  1  0
  4 27  1  0
  4 28  1  0
  5 29  1  0
  5 30  1  0
  6 31  1  1
  8 32  1  0
  9 33  1  0
 12 34  1  0
 13 35  1  0
 14 36  1  0
 19 37  1  0
 21 38  1  0
M  ISO  8  23  13  24  13  25  13  26  13  27  13  28  13  29  13  30  13
M  ISO  8  31  13  32  14  33  14  34  14  35  14  36  14  37  14  38  14
M  END
>  <minimizedAffinity>  (1) 
-4.69625425

>  <minimizedRMSD>  (1) 
2.13973475

$$$$
