
     RDKit          3D

 40 43  0  0  1  0  0  0  0  0999 V2000
   49.1760   28.8060   48.7570 N   0  0  0  0  0  0  0  0  0  0  0  0
   49.2450   27.4970   48.1790 C   0  0  0  0  0  0  0  0  0  0  0  0
   50.6660   27.0180   48.0210 C   0  0  0  0  0  0  0  0  0  0  0  0
   51.5330   27.4460   49.1730 C   0  0  0  0  0  0  0  0  0  0  0  0
   50.7120   27.8820   50.3780 C   0  0  0  0  0  0  0  0  0  0  0  0
   49.9320   29.0830   49.9690 C   0  0  1  0  0  0  0  0  0  0  0  0
   47.2060   31.9030   47.0300 C   0  0  0  0  0  0  0  0  0  0  0  0
   47.1510   31.9030   48.3990 C   0  0  0  0  0  0  0  0  0  0  0  0
   47.7780   30.9110   49.0690 C   0  0  0  0  0  0  0  0  0  0  0  0
   48.4350   29.9580   48.3090 C   0  0  0  0  0  0  0  0  0  0  0  0
   48.1660   30.4660   46.6330 S   0  0  0  0  0  0  0  0  0  0  0  0
   45.0690   34.4760   45.5090 C   0  0  0  0  0  0  0  0  0  0  0  0
   45.5880   34.5380   44.2020 C   0  0  0  0  0  0  0  0  0  0  0  0
   46.6740   33.6880   43.8640 C   0  0  0  0  0  0  0  0  0  0  0  0
   47.1690   32.8400   44.8280 N   0  0  0  0  0  0  0  0  0  0  0  0
   46.6400   32.8170   46.0580 C   0  0  0  0  0  0  0  0  0  0  0  0
   45.6010   33.6220   46.4030 N   0  0  0  0  0  0  0  0  0  0  0  0
   50.6750   30.3440   49.9360 C   0  0  0  0  0  0  0  0  0  0  0  0
   51.6490   30.6550   49.0090 C   0  0  0  0  0  0  0  0  0  0  0  0
   52.3600   31.8420   48.9650 C   0  0  0  0  0  0  0  0  0  0  0  0
   52.0900   32.7740   49.8930 N   0  0  0  0  0  0  0  0  0  0  0  0
   51.1340   32.5030   50.8260 C   0  0  0  0  0  0  0  0  0  0  0  0
   50.4580   31.3410   50.8440 N   0  0  0  0  0  0  0  0  0  0  0  0
   48.7044   26.7937   48.8294 H   0  0  0  0  0  0  0  0  0  0  0  0
   48.7919   27.5458   47.1778 H   0  0  0  0  0  0  0  0  0  0  0  0
   50.6668   25.9195   47.9641 H   0  0  0  0  0  0  0  0  0  0  0  0
   51.0757   27.4627   47.1021 H   0  0  0  0  0  0  0  0  0  0  0  0
   52.1736   26.6016   49.4673 H   0  0  0  0  0  0  0  0  0  0  0  0
   52.1329   28.3070   48.8431 H   0  0  0  0  0  0  0  0  0  0  0  0
   50.0292   27.0745   50.6808 H   0  0  0  0  0  0  0  0  0  0  0  0
   51.3653   28.1133   51.2322 H   0  0  0  0  0  0  0  0  0  0  0  0
   49.2158   29.2726   50.7821 H   0  0  0  0  0  0  0  0  0  0  0  0
   46.6089   32.6924   48.9403 H   0  0  0  0  0  0  0  0  0  0  0  0
   47.7670   30.8628   50.1679 H   0  0  0  0  0  0  0  0  0  0  0  0
   44.2295   35.1248   45.7994 H   0  0  0  0  0  0  0  0  0  0  0  0
   45.1621   35.2290   43.4596 H   0  0  0  0  0  0  0  0  0  0  0  0
   47.1098   33.7070   42.8542 H   0  0  0  0  0  0  0  0  0  0  0  0
   51.8788   29.8990   48.2437 H   0  0  0  0  0  0  0  0  0  0  0  0
   53.1235   32.0165   48.1926 H   0  0  0  0  0  0  0  0  0  0  0  0
   50.9078   33.2610   51.5904 H   0  0  0  0  0  0  0  0  0  0  0  0
  1  6  1  0
  2  1  1  0
  3  2  1  0
  3  4  1  0
  4  5  1  0
  6  5  1  0
  7  8  2  0
  8  9  1  0
 10  1  1  0
 10  9  2  0
 11  7  1  0
 11 10  1  0
 12 17  2  0
 13 12  1  0
 14 13  2  0
 14 15  1  0
 15 16  2  0
 16 17  1  0
 16  7  1  0
 18  6  1  0
 18 23  1  0
 19 18  2  0
 20 19  1  0
 20 21  2  0
 21 22  1  0
 22 23  2  0
  2 24  1  0
  2 25  1  0
  3 26  1  0
  3 27  1  0
  4 28  1  0
  4 29  1  0
  5 30  1  0
  5 31  1  0
  6 32  1  1
  8 33  1  0
  9 34  1  0
 12 35  1  0
 13 36  1  0
 14 37  1  0
 19 38  1  0
 20 39  1  0
 22 40  1  0
M  ISO  8  24  13  25  13  26  13  27  13  28  13  29  13  30  13  31  13
M  ISO  8  32  13  33  14  34  14  35  14  36  14  37  14  38  14  39  14
M  ISO  1  40  14
M  END
>  <minimizedAffinity>  (1) 
-4.78581047

>  <minimizedRMSD>  (1) 
2.60440898

$$$$
