
     RDKit          3D

 35 37  0  0  1  0  0  0  0  0999 V2000
   48.1030   30.1460   48.3160 N   0  0  0  0  0  0  0  0  0  0  0  0
   48.3580   28.8120   47.8630 C   0  0  0  0  0  0  0  0  0  0  0  0
   49.8430   28.5300   47.7500 C   0  0  0  0  0  0  0  0  0  0  0  0
   50.6310   29.1820   48.8670 C   0  0  0  0  0  0  0  0  0  0  0  0
   49.7260   29.5780   50.0120 C   0  0  0  0  0  0  0  0  0  0  0  0
   48.7930   30.6280   49.5020 C   0  0  1  0  0  0  0  0  0  0  0  0
   45.9210   32.9320   46.3330 C   0  0  0  0  0  0  0  0  0  0  0  0
   45.5160   32.7090   47.6210 C   0  0  0  0  0  0  0  0  0  0  0  0
   46.1720   31.8020   48.3740 C   0  0  0  0  0  0  0  0  0  0  0  0
   47.2300   31.1510   47.7670 C   0  0  0  0  0  0  0  0  0  0  0  0
   47.2880   31.8320   46.1290 S   0  0  0  0  0  0  0  0  0  0  0  0
   44.4050   35.8630   44.7240 C   0  0  0  0  0  0  0  0  0  0  0  0
   44.4340   35.4900   43.3660 C   0  0  0  0  0  0  0  0  0  0  0  0
   44.9740   34.2390   43.0380 C   0  0  0  0  0  0  0  0  0  0  0  0
   45.4510   33.4360   44.0470 N   0  0  0  0  0  0  0  0  0  0  0  0
   45.4020   33.8330   45.3240 C   0  0  0  0  0  0  0  0  0  0  0  0
   44.8850   35.0390   45.6800 N   0  0  0  0  0  0  0  0  0  0  0  0
   49.4240   31.9640   49.2830 C   0  0  0  0  0  0  0  0  0  0  0  0
   47.9142   28.1026   48.5770 H   0  0  0  0  0  0  0  0  0  0  0  0
   47.9116   28.6990   46.8640 H   0  0  0  0  0  0  0  0  0  0  0  0
   50.0021   27.4423   47.7912 H   0  0  0  0  0  0  0  0  0  0  0  0
   50.1966   28.9480   46.7959 H   0  0  0  0  0  0  0  0  0  0  0  0
   51.3868   28.4726   49.2351 H   0  0  0  0  0  0  0  0  0  0  0  0
   51.1122   30.0889   48.4721 H   0  0  0  0  0  0  0  0  0  0  0  0
   49.1550   28.7043   50.3594 H   0  0  0  0  0  0  0  0  0  0  0  0
   50.3154   29.9603   50.8584 H   0  0  0  0  0  0  0  0  0  0  0  0
   48.0574   30.8075   50.2999 H   0  0  0  0  0  0  0  0  0  0  0  0
   44.6632   33.2643   48.0386 H   0  0  0  0  0  0  0  0  0  0  0  0
   45.8811   31.5919   49.4138 H   0  0  0  0  0  0  0  0  0  0  0  0
   43.9856   36.8390   45.0096 H   0  0  0  0  0  0  0  0  0  0  0  0
   44.0444   36.1607   42.5861 H   0  0  0  0  0  0  0  0  0  0  0  0
   45.0155   33.9051   41.9907 H   0  0  0  0  0  0  0  0  0  0  0  0
   49.6438   32.4295   50.2551 H   0  0  0  0  0  0  0  0  0  0  0  0
   50.3586   31.8397   48.7163 H   0  0  0  0  0  0  0  0  0  0  0  0
   48.7343   32.6068   48.7163 H   0  0  0  0  0  0  0  0  0  0  0  0
  1  6  1  0
  2  1  1  0
  3  2  1  0
  3  4  1  0
  4  5  1  0
  6  5  1  0
  7  8  2  0
  8  9  1  0
 10  1  1  0
 10  9  2  0
 11  7  1  0
 11 10  1  0
 12 17  2  0
 13 12  1  0
 14 13  2  0
 14 15  1  0
 15 16  2  0
 16 17  1  0
 16  7  1  0
 18  6  1  0
  2 19  1  0
  2 20  1  0
  3 21  1  0
  3 22  1  0
  4 23  1  0
  4 24  1  0
  5 25  1  0
  5 26  1  0
  6 27  1  1
  8 28  1  0
  9 29  1  0
 12 30  1  0
 13 31  1  0
 14 32  1  0
 18 33  1  0
 18 34  1  0
 18 35  1  0
M  ISO  8  19  13  20  13  21  13  22  13  23  13  24  13  25  13  26  13
M  ISO  8  27  13  28  14  29  14  30  14  31  14  32  14  33   8  34   8
M  ISO  1  35   8
M  END
>  <minimizedAffinity>  (1) 
-4.72031689

>  <minimizedRMSD>  (1) 
0.49712345

$$$$
