
     RDKit          3D

 38 41  0  0  1  0  0  0  0  0999 V2000
   48.9920   28.9850   48.6570 N   0  0  0  0  0  0  0  0  0  0  0  0
   49.0810   27.6750   48.0880 C   0  0  0  0  0  0  0  0  0  0  0  0
   50.5120   27.2190   47.9020 C   0  0  0  0  0  0  0  0  0  0  0  0
   51.3900   27.6730   49.0290 C   0  0  0  0  0  0  0  0  0  0  0  0
   50.6120   28.1180   50.2350 C   0  0  0  0  0  0  0  0  0  0  0  0
   49.7550   29.2670   49.8620 C   0  0  1  0  0  0  0  0  0  0  0  0
   47.0060   32.0710   46.9380 C   0  0  0  0  0  0  0  0  0  0  0  0
   46.8420   31.9820   48.2940 C   0  0  0  0  0  0  0  0  0  0  0  0
   47.4650   30.9840   48.9650 C   0  0  0  0  0  0  0  0  0  0  0  0
   48.2330   30.1180   48.2050 C   0  0  0  0  0  0  0  0  0  0  0  0
   48.0770   30.7130   46.5330 S   0  0  0  0  0  0  0  0  0  0  0  0
   44.9380   34.7190   45.4590 C   0  0  0  0  0  0  0  0  0  0  0  0
   45.4700   34.8000   44.1560 C   0  0  0  0  0  0  0  0  0  0  0  0
   46.5410   33.9330   43.8100 C   0  0  0  0  0  0  0  0  0  0  0  0
   47.0080   33.0560   44.7630 N   0  0  0  0  0  0  0  0  0  0  0  0
   46.4650   33.0210   45.9850 C   0  0  0  0  0  0  0  0  0  0  0  0
   45.4440   33.8380   46.3350 N   0  0  0  0  0  0  0  0  0  0  0  0
   50.4660   30.5700   49.7950 C   0  0  0  0  0  0  0  0  0  0  0  0
   51.7260   30.3250   49.2340 C   0  0  0  0  0  0  0  0  0  0  0  0
   52.5240   32.0050   49.1940 S   0  0  0  0  0  0  0  0  0  0  0  0
   50.9550   32.7500   49.9700 C   0  0  0  0  0  0  0  0  0  0  0  0
   50.3130   31.8430   50.0780 N   0  0  0  0  0  0  0  0  0  0  0  0
   48.5687   26.9655   48.7545 H   0  0  0  0  0  0  0  0  0  0  0  0
   48.6099   27.7098   47.0946 H   0  0  0  0  0  0  0  0  0  0  0  0
   50.5326   26.1202   47.8545 H   0  0  0  0  0  0  0  0  0  0  0  0
   50.8943   27.6613   46.9702 H   0  0  0  0  0  0  0  0  0  0  0  0
   52.0443   26.8387   49.3219 H   0  0  0  0  0  0  0  0  0  0  0  0
   51.9656   28.5389   48.6701 H   0  0  0  0  0  0  0  0  0  0  0  0
   49.9826   27.2901   50.5934 H   0  0  0  0  0  0  0  0  0  0  0  0
   51.3062   28.4174   51.0340 H   0  0  0  0  0  0  0  0  0  0  0  0
   49.0444   29.3909   50.6925 H   0  0  0  0  0  0  0  0  0  0  0  0
   46.2144   32.7092   48.8300 H   0  0  0  0  0  0  0  0  0  0  0  0
   47.3663   30.8677   50.0544 H   0  0  0  0  0  0  0  0  0  0  0  0
   44.1088   35.3775   45.7571 H   0  0  0  0  0  0  0  0  0  0  0  0
   45.0660   35.5164   43.4256 H   0  0  0  0  0  0  0  0  0  0  0  0
   46.9865   33.9617   42.8047 H   0  0  0  0  0  0  0  0  0  0  0  0
   52.1448   29.3654   48.8966 H   0  0  0  0  0  0  0  0  0  0  0  0
   50.7384   33.7942   50.2399 H   0  0  0  0  0  0  0  0  0  0  0  0
  1  6  1  0
  2  1  1  0
  3  2  1  0
  3  4  1  0
  4  5  1  0
  6  5  1  0
  7  8  2  0
  8  9  1  0
 10  1  1  0
 10  9  2  0
 11  7  1  0
 11 10  1  0
 12 17  2  0
 13 12  1  0
 14 13  2  0
 14 15  1  0
 15 16  2  0
 16 17  1  0
 16  7  1  0
 18  6  1  0
 18 22  1  0
 19 18  2  0
 20 19  1  0
 20 21  1  0
 21 22  2  0
  2 23  1  0
  2 24  1  0
  3 25  1  0
  3 26  1  0
  4 27  1  0
  4 28  1  0
  5 29  1  0
  5 30  1  0
  6 31  1  1
  8 32  1  0
  9 33  1  0
 12 34  1  0
 13 35  1  0
 14 36  1  0
 19 37  1  0
 21 38  1  0
M  ISO  8  23  13  24  13  25  13  26  13  27  13  28  13  29  13  30  13
M  ISO  8  31  13  32  14  33  14  34  14  35  14  36  14  37  14  38  14
M  END
>  <minimizedAffinity>  (1) 
-4.55594444

>  <minimizedRMSD>  (1) 
2.18072605

$$$$
