
     RDKit          3D

 25 26  0  0  0  0  0  0  0  0999 V2000
   43.7630   34.2750   41.3420 C   0  0  0  0  0  0  0  0  0  0  0  0
   44.7180   33.8120   40.5230 C   0  0  0  0  0  0  0  0  0  0  0  0
   45.9540   33.1420   41.6820 S   0  0  0  0  0  0  0  0  0  0  0  0
   44.8840   33.6430   43.1630 C   0  0  0  0  0  0  0  0  0  0  0  0
   43.9780   34.1240   42.6080 N   0  0  0  0  0  0  0  0  0  0  0  0
   45.4140   33.3310   44.4630 N   0  0  0  0  0  0  0  0  0  0  0  0
   46.7800   33.2650   44.7640 C   0  0  0  0  0  0  0  0  0  0  0  0
   47.5770   33.9150   43.9720 N   0  0  0  0  0  0  0  0  0  0  0  0
   47.1050   32.4810   45.9220 N   0  0  0  0  0  0  0  0  0  0  0  0
   48.5910   33.8400   44.2090 H   0  0  0  0  0  0  0  0  0  0  0  0
   40.3790   36.0200   41.0500 C   0  0  0  0  0  0  0  0  0  0  0  0
   41.5180   35.4190   41.6190 C   0  0  0  0  0  0  0  0  0  0  0  0
   42.5420   34.9170   40.7990 C   0  0  0  0  0  0  0  0  0  0  0  0
   42.3200   35.0700   39.4790 N   0  0  0  0  0  0  0  0  0  0  0  0
   41.2500   35.6350   38.9270 C   0  0  0  0  0  0  0  0  0  0  0  0
   40.2950   36.1030   39.7190 N   0  0  0  0  0  0  0  0  0  0  0  0
   41.1770   35.7150   37.4680 C   0  0  0  0  0  0  0  0  0  0  0  0
   41.3230   36.8330   36.9080 O   0  0  0  0  0  0  0  0  0  0  0  0
   44.7480   33.8317   39.4236 H   0  0  0  0  0  0  0  0  0  0  0  0
   44.7445   33.1437   45.2230 H   0  0  0  0  0  0  0  0  0  0  0  0
   48.0869   32.3788   46.2158 H   0  0  0  0  0  0  0  0  0  0  0  0
   46.3562   32.0207   46.4590 H   0  0  0  0  0  0  0  0  0  0  0  0
   39.5743   36.4134   41.6885 H   0  0  0  0  0  0  0  0  0  0  0  0
   41.6065   35.3421   42.7127 H   0  0  0  0  0  0  0  0  0  0  0  0
   40.9970   34.8105   36.8684 H   0  0  0  0  0  0  0  0  0  0  0  0
  1  5  1  0
  2  1  2  0
  2  3  1  0
  3  4  1  0
  4  6  1  0
  5  4  2  0
  6  7  1  0
  7  9  1  0
  8 10  1  0
  8  7  2  0
 11 12  2  0
 13  1  1  0
 13 12  1  0
 14 13  2  0
 15 14  1  0
 15 16  2  0
 16 11  1  0
 17 15  1  0
 18 17  2  0
  2 19  1  0
  6 20  1  0
  9 21  1  0
  9 22  1  0
 11 23  1  0
 12 24  1  0
 17 25  1  0
M  ISO  4  19  14  23  14  24  14  25   6
M  END
>  <minimizedAffinity>  (1) 
-4.76574802

>  <minimizedRMSD>  (1) 
0.471832603

$$$$
