
     RDKit          3D

 40 43  0  0  0  0  0  0  0  0999 V2000
   47.3930   34.0470   42.3490 C   0  0  0  0  0  0  0  0  0  0  0  0
   48.1240   35.2290   41.7290 C   0  0  0  0  0  0  0  0  0  0  0  0
   49.4730   35.5400   42.1820 C   0  0  0  0  0  0  0  0  0  0  0  0
   50.3370   34.3560   42.3720 C   0  0  0  0  0  0  0  0  0  0  0  0
   49.6260   33.0530   42.3640 C   0  0  0  0  0  0  0  0  0  0  0  0
   48.3090   33.2360   43.0980 C   0  0  0  0  0  0  0  0  0  0  0  0
   46.5120   33.6420   41.2530 C   0  0  0  0  0  0  0  0  0  0  0  0
   45.2620   33.1230   41.4940 N   0  0  0  0  0  0  0  0  0  0  0  0
   44.4410   32.6920   40.5480 C   0  0  0  0  0  0  0  0  0  0  0  0
   44.7260   32.7060   39.2430 N   0  0  0  0  0  0  0  0  0  0  0  0
   45.9200   33.1920   38.8790 C   0  0  0  0  0  0  0  0  0  0  0  0
   46.2640   33.2550   37.5500 C   0  0  0  0  0  0  0  0  0  0  0  0
   47.4790   33.7770   37.1540 C   0  0  0  0  0  0  0  0  0  0  0  0
   48.3290   34.2320   38.1620 C   0  0  0  0  0  0  0  0  0  0  0  0
   47.9280   34.1390   39.4520 C   0  0  0  0  0  0  0  0  0  0  0  0
   46.7350   33.6270   39.8960 C   0  0  0  0  0  0  0  0  0  0  0  0
   45.1870   34.4410   45.3470 C   0  0  0  0  0  0  0  0  0  0  0  0
   44.4810   35.6120   45.0660 C   0  0  0  0  0  0  0  0  0  0  0  0
   44.7950   36.2640   43.8550 C   0  0  0  0  0  0  0  0  0  0  0  0
   45.7500   35.7290   43.0390 N   0  0  0  0  0  0  0  0  0  0  0  0
   46.4210   34.5850   43.3390 C   0  0  0  0  0  0  0  0  0  0  0  0
   46.1060   33.9700   44.5140 N   0  0  0  0  0  0  0  0  0  0  0  0
   47.5081   36.1217   41.9129 H   0  0  0  0  0  0  0  0  0  0  0  0
   48.2594   34.9343   40.6779 H   0  0  0  0  0  0  0  0  0  0  0  0
   49.9451   36.1951   41.4351 H   0  0  0  0  0  0  0  0  0  0  0  0
   49.3727   36.0191   43.1671 H   0  0  0  0  0  0  0  0  0  0  0  0
   51.0816   34.3434   41.5624 H   0  0  0  0  0  0  0  0  0  0  0  0
   50.7819   34.4574   43.3729 H   0  0  0  0  0  0  0  0  0  0  0  0
   49.4357   32.7373   41.3276 H   0  0  0  0  0  0  0  0  0  0  0  0
   50.2353   32.2807   42.8564 H   0  0  0  0  0  0  0  0  0  0  0  0
   48.5046   33.7203   44.0661 H   0  0  0  0  0  0  0  0  0  0  0  0
   47.8538   32.2445   43.2384 H   0  0  0  0  0  0  0  0  0  0  0  0
   43.4618   32.2973   40.8568 H   0  0  0  0  0  0  0  0  0  0  0  0
   45.5605   32.8838   36.7902 H   0  0  0  0  0  0  0  0  0  0  0  0
   47.7636   33.8316   36.0929 H   0  0  0  0  0  0  0  0  0  0  0  0
   49.3110   34.6602   37.9126 H   0  0  0  0  0  0  0  0  0  0  0  0
   48.6257   34.5095   40.2175 H   0  0  0  0  0  0  0  0  0  0  0  0
   44.9768   33.8968   46.2795 H   0  0  0  0  0  0  0  0  0  0  0  0
   43.7186   36.0063   45.7539 H   0  0  0  0  0  0  0  0  0  0  0  0
   44.2768   37.1920   43.5717 H   0  0  0  0  0  0  0  0  0  0  0  0
  1  6  1  0
  1 21  1  0
  2  3  1  0
  2  1  1  0
  3  4  1  0
  5  4  1  0
  5  6  1  0
  7  8  2  0
  7  1  1  0
  9  8  1  0
 10  9  2  0
 11 10  1  0
 11 16  2  0
 12 11  1  0
 13 12  2  0
 13 14  1  0
 14 15  2  0
 15 16  1  0
 16  7  1  0
 18 17  2  0
 19 18  1  0
 20 21  1  0
 20 19  2  0
 21 22  2  0
 22 17  1  0
  2 23  1  0
  2 24  1  0
  3 25  1  0
  3 26  1  0
  4 27  1  0
  4 28  1  0
  5 29  1  0
  5 30  1  0
  6 31  1  0
  6 32  1  0
  9 33  1  0
 12 34  1  0
 13 35  1  0
 14 36  1  0
 15 37  1  0
 17 38  1  0
 18 39  1  0
 19 40  1  0
M  ISO  8  23  13  24  13  25  13  26  13  27  13  28  13  29  13  30  13
M  ISO  8  31  13  32  13  33  14  34  14  35  14  36  14  37  14  38  14
M  ISO  2  39  14  40  14
M  END
>  <minimizedAffinity>  (1) 
-6.63720655

>  <minimizedRMSD>  (1) 
0.590119779

$$$$
