
     RDKit          3D

 40 43  0  0  0  0  0  0  0  0999 V2000
   47.5110   34.1140   42.2600 C   0  0  0  0  0  0  0  0  0  0  0  0
   48.3620   35.2710   41.8110 C   0  0  0  0  0  0  0  0  0  0  0  0
   49.7320   35.3740   42.4060 C   0  0  0  0  0  0  0  0  0  0  0  0
   50.4500   34.0760   42.4780 C   0  0  0  0  0  0  0  0  0  0  0  0
   49.6120   32.8850   42.1570 C   0  0  0  0  0  0  0  0  0  0  0  0
   48.2960   33.0290   42.9230 C   0  0  0  0  0  0  0  0  0  0  0  0
   46.7610   33.6280   41.0720 C   0  0  0  0  0  0  0  0  0  0  0  0
   45.5620   32.9480   41.0030 C   0  0  0  0  0  0  0  0  0  0  0  0
   45.1850   32.6650   39.7450 N   0  0  0  0  0  0  0  0  0  0  0  0
   46.1260   33.1480   38.9130 C   0  0  0  0  0  0  0  0  0  0  0  0
   46.2400   33.1330   37.5350 C   0  0  0  0  0  0  0  0  0  0  0  0
   47.3200   33.7050   36.9010 C   0  0  0  0  0  0  0  0  0  0  0  0
   48.2820   34.2920   37.6790 C   0  0  0  0  0  0  0  0  0  0  0  0
   48.1420   34.2910   39.0520 C   0  0  0  0  0  0  0  0  0  0  0  0
   47.0780   33.7300   39.7250 C   0  0  0  0  0  0  0  0  0  0  0  0
   45.2610   34.3690   45.2200 C   0  0  0  0  0  0  0  0  0  0  0  0
   44.5380   35.5580   44.9340 C   0  0  0  0  0  0  0  0  0  0  0  0
   44.8460   36.2490   43.7420 C   0  0  0  0  0  0  0  0  0  0  0  0
   45.8260   35.7360   42.9200 N   0  0  0  0  0  0  0  0  0  0  0  0
   46.4770   34.6130   43.2360 C   0  0  0  0  0  0  0  0  0  0  0  0
   46.2120   33.9350   44.3560 N   0  0  0  0  0  0  0  0  0  0  0  0
   48.4783   35.1945   40.7198 H   0  0  0  0  0  0  0  0  0  0  0  0
   47.8304   36.1698   42.1569 H   0  0  0  0  0  0  0  0  0  0  0  0
   50.3264   36.0662   41.7916 H   0  0  0  0  0  0  0  0  0  0  0  0
   49.6081   35.7309   43.4391 H   0  0  0  0  0  0  0  0  0  0  0  0
   51.2883   34.1076   41.7665 H   0  0  0  0  0  0  0  0  0  0  0  0
   50.7749   33.9567   43.5221 H   0  0  0  0  0  0  0  0  0  0  0  0
   49.4147   32.8450   41.0756 H   0  0  0  0  0  0  0  0  0  0  0  0
   50.1291   31.9581   42.4460 H   0  0  0  0  0  0  0  0  0  0  0  0
   48.4978   33.2970   43.9706 H   0  0  0  0  0  0  0  0  0  0  0  0
   47.7355   32.0826   42.9145 H   0  0  0  0  0  0  0  0  0  0  0  0
   44.9742   32.6661   41.8890 H   0  0  0  0  0  0  0  0  0  0  0  0
   44.3276   32.1666   39.4666 H   0  0  0  0  0  0  0  0  0  0  0  0
   45.4527   32.6549   36.9338 H   0  0  0  0  0  0  0  0  0  0  0  0
   47.4073   33.6909   35.8046 H   0  0  0  0  0  0  0  0  0  0  0  0
   49.1607   34.7613   37.2126 H   0  0  0  0  0  0  0  0  0  0  0  0
   48.9322   34.7698   39.6490 H   0  0  0  0  0  0  0  0  0  0  0  0
   45.0502   33.8024   46.1390 H   0  0  0  0  0  0  0  0  0  0  0  0
   43.7622   35.9288   45.6201 H   0  0  0  0  0  0  0  0  0  0  0  0
   44.3160   37.1754   43.4755 H   0  0  0  0  0  0  0  0  0  0  0  0
  1  6  1  0
  1 20  1  0
  2  1  1  0
  2  3  1  0
  3  4  1  0
  5  4  1  0
  5  6  1  0
  7  1  1  0
  8  7  2  0
  9  8  1  0
 10 15  2  0
 10  9  1  0
 11 10  1  0
 12 11  2  0
 12 13  1  0
 13 14  2  0
 14 15  1  0
 15  7  1  0
 17 16  2  0
 18 17  1  0
 19 20  1  0
 19 18  2  0
 20 21  2  0
 21 16  1  0
  2 22  1  0
  2 23  1  0
  3 24  1  0
  3 25  1  0
  4 26  1  0
  4 27  1  0
  5 28  1  0
  5 29  1  0
  6 30  1  0
  6 31  1  0
  8 32  1  0
  9 33  1  0
 11 34  1  0
 12 35  1  0
 13 36  1  0
 14 37  1  0
 16 38  1  0
 17 39  1  0
 18 40  1  0
M  ISO  8  22  13  23  13  24  13  25  13  26  13  27  13  28  13  29  13
M  ISO  8  30  13  31  13  32  14  33   9  34  14  35  14  36  14  37  14
M  ISO  3  38  14  39  14  40  14
M  END
>  <minimizedAffinity>  (1) 
-6.58679533

>  <minimizedRMSD>  (1) 
0.890606999

$$$$
