
     RDKit          3D

 39 42  0  0  1  0  0  0  0  0999 V2000
   49.2680   29.0420   48.9640 N   0  0  0  0  0  0  0  0  0  0  0  0
   49.5040   27.7550   48.3940 C   0  0  0  0  0  0  0  0  0  0  0  0
   50.9650   27.3920   48.3520 C   0  0  0  0  0  0  0  0  0  0  0  0
   51.6990   27.8870   49.5730 C   0  0  0  0  0  0  0  0  0  0  0  0
   50.7510   28.2460   50.6960 C   0  0  0  0  0  0  0  0  0  0  0  0
   49.8710   29.3550   50.2370 C   0  0  1  0  0  0  0  0  0  0  0  0
   47.2130   31.9630   47.0460 C   0  0  0  0  0  0  0  0  0  0  0  0
   47.0760   31.9850   48.4090 C   0  0  0  0  0  0  0  0  0  0  0  0
   47.7240   31.0500   49.1570 C   0  0  0  0  0  0  0  0  0  0  0  0
   48.4840   30.1340   48.4500 C   0  0  0  0  0  0  0  0  0  0  0  0
   48.2830   30.5950   46.7490 S   0  0  0  0  0  0  0  0  0  0  0  0
   45.0710   34.4760   45.4320 C   0  0  0  0  0  0  0  0  0  0  0  0
   45.5680   34.4620   44.1140 C   0  0  0  0  0  0  0  0  0  0  0  0
   46.6390   33.5810   43.8120 C   0  0  0  0  0  0  0  0  0  0  0  0
   47.1510   32.7770   44.8060 N   0  0  0  0  0  0  0  0  0  0  0  0
   46.6310   32.8360   46.0550 C   0  0  0  0  0  0  0  0  0  0  0  0
   45.6170   33.6670   46.3510 N   0  0  0  0  0  0  0  0  0  0  0  0
   50.6800   30.5890   50.0560 C   0  0  0  0  0  0  0  0  0  0  0  0
   50.7280   31.6320   50.9600 C   0  0  0  0  0  0  0  0  0  0  0  0
   51.5610   32.6230   50.5050 C   0  0  0  0  0  0  0  0  0  0  0  0
   52.0070   32.1430   49.3080 C   0  0  0  0  0  0  0  0  0  0  0  0
   51.4760   30.9880   49.1040 O   0  0  0  0  0  0  0  0  0  0  0  0
   48.9724   27.0022   48.9946 H   0  0  0  0  0  0  0  0  0  0  0  0
   49.1404   27.7817   47.3562 H   0  0  0  0  0  0  0  0  0  0  0  0
   51.0588   26.2973   48.2993 H   0  0  0  0  0  0  0  0  0  0  0  0
   51.4112   27.8694   47.4671 H   0  0  0  0  0  0  0  0  0  0  0  0
   52.3807   27.0975   49.9222 H   0  0  0  0  0  0  0  0  0  0  0  0
   52.2531   28.7948   49.2922 H   0  0  0  0  0  0  0  0  0  0  0  0
   50.1384   27.3708   50.9581 H   0  0  0  0  0  0  0  0  0  0  0  0
   51.3205   28.5602   51.5831 H   0  0  0  0  0  0  0  0  0  0  0  0
   49.0880   29.4990   50.9960 H   0  0  0  0  0  0  0  0  0  0  0  0
   46.4500   32.7489   48.8932 H   0  0  0  0  0  0  0  0  0  0  0  0
   47.6484   31.0240   50.2541 H   0  0  0  0  0  0  0  0  0  0  0  0
   44.2417   35.1452   45.7049 H   0  0  0  0  0  0  0  0  0  0  0  0
   45.1381   35.1155   43.3406 H   0  0  0  0  0  0  0  0  0  0  0  0
   47.0557   33.5408   42.7948 H   0  0  0  0  0  0  0  0  0  0  0  0
   50.1761   31.6638   51.9110 H   0  0  0  0  0  0  0  0  0  0  0  0
   51.8102   33.5782   50.9903 H   0  0  0  0  0  0  0  0  0  0  0  0
   52.7042   32.6573   48.6302 H   0  0  0  0  0  0  0  0  0  0  0  0
  1  6  1  0
  2  1  1  0
  3  2  1  0
  3  4  1  0
  4  5  1  0
  6  5  1  0
  7  8  2  0
  8  9  1  0
 10  1  1  0
 10  9  2  0
 11  7  1  0
 11 10  1  0
 12 17  2  0
 13 12  1  0
 14 13  2  0
 14 15  1  0
 15 16  2  0
 16 17  1  0
 16  7  1  0
 18  6  1  0
 18 19  2  0
 20 19  1  0
 21 20  2  0
 22 21  1  0
 22 18  1  0
  2 23  1  0
  2 24  1  0
  3 25  1  0
  3 26  1  0
  4 27  1  0
  4 28  1  0
  5 29  1  0
  5 30  1  0
  6 31  1  1
  8 32  1  0
  9 33  1  0
 12 34  1  0
 13 35  1  0
 14 36  1  0
 19 37  1  0
 20 38  1  0
 21 39  1  0
M  ISO  8  23  13  24  13  25  13  26  13  27  13  28  13  29  13  30  13
M  ISO  8  31  13  32  14  33  14  34  14  35  14  36  14  37  14  38  14
M  ISO  1  39  14
M  END
>  <minimizedAffinity>  (1) 
-4.54812717

>  <minimizedRMSD>  (1) 
2.33491731

$$$$
