
     RDKit          3D

 33 35  0  0  1  0  0  0  0  0999 V2000
   48.4640   30.0800   48.6390 N   0  0  0  0  0  0  0  0  0  0  0  0
   48.8260   28.7860   48.0970 C   0  0  0  0  0  0  0  0  0  0  0  0
   50.3190   28.5750   48.1050 C   0  0  0  0  0  0  0  0  0  0  0  0
   50.9760   29.1830   49.3080 C   0  0  0  0  0  0  0  0  0  0  0  0
   49.9450   29.4370   50.4160 C   0  0  0  0  0  0  0  0  0  0  0  0
   49.0420   30.5150   49.8970 C   0  0  1  0  0  0  0  0  0  0  0  0
   46.1910   32.7760   46.6450 C   0  0  0  0  0  0  0  0  0  0  0  0
   45.8140   32.5930   47.9480 C   0  0  0  0  0  0  0  0  0  0  0  0
   46.5150   31.7050   48.7110 C   0  0  0  0  0  0  0  0  0  0  0  0
   47.5660   31.0550   48.0860 C   0  0  0  0  0  0  0  0  0  0  0  0
   47.5760   31.6880   46.4190 S   0  0  0  0  0  0  0  0  0  0  0  0
   44.4430   35.5790   45.0420 C   0  0  0  0  0  0  0  0  0  0  0  0
   44.5770   35.2480   43.6790 C   0  0  0  0  0  0  0  0  0  0  0  0
   45.2730   34.0580   43.3340 C   0  0  0  0  0  0  0  0  0  0  0  0
   45.7820   33.2860   44.3470 N   0  0  0  0  0  0  0  0  0  0  0  0
   45.6290   33.6420   45.6280 C   0  0  0  0  0  0  0  0  0  0  0  0
   44.9720   34.7650   45.9610 N   0  0  0  0  0  0  0  0  0  0  0  0
   50.0760   31.9700   49.5150 S   0  0  0  0  0  0  0  0  0  0  0  0
   48.4622   28.7192   47.0610 H   0  0  0  0  0  0  0  0  0  0  0  0
   48.3670   28.0100   48.7272 H   0  0  0  0  0  0  0  0  0  0  0  0
   50.5230   27.4941   48.0996 H   0  0  0  0  0  0  0  0  0  0  0  0
   50.7320   29.0677   47.2125 H   0  0  0  0  0  0  0  0  0  0  0  0
   51.7487   28.4962   49.6837 H   0  0  0  0  0  0  0  0  0  0  0  0
   51.4285   30.1427   49.0179 H   0  0  0  0  0  0  0  0  0  0  0  0
   49.3700   28.5219   50.6209 H   0  0  0  0  0  0  0  0  0  0  0  0
   50.4291   29.7342   51.3580 H   0  0  0  0  0  0  0  0  0  0  0  0
   48.2603   30.7401   50.6375 H   0  0  0  0  0  0  0  0  0  0  0  0
   44.9646   33.1495   48.3708 H   0  0  0  0  0  0  0  0  0  0  0  0
   46.2594   31.5160   49.7641 H   0  0  0  0  0  0  0  0  0  0  0  0
   43.9113   36.4930   45.3452 H   0  0  0  0  0  0  0  0  0  0  0  0
   44.1521   35.8967   42.8988 H   0  0  0  0  0  0  0  0  0  0  0  0
   45.4002   33.7636   42.2818 H   0  0  0  0  0  0  0  0  0  0  0  0
   50.4913   32.5543   50.6825 H   0  0  0  0  0  0  0  0  0  0  0  0
  1  6  1  0
  2  3  1  0
  2  1  1  0
  3  4  1  0
  4  5  1  0
  6  5  1  0
  7  8  2  0
  8  9  1  0
 10  1  1  0
 10  9  2  0
 11  7  1  0
 11 10  1  0
 12 17  2  0
 13 12  1  0
 14 13  2  0
 14 15  1  0
 15 16  2  0
 16 17  1  0
 16  7  1  0
 18  6  1  0
  2 19  1  0
  2 20  1  0
  3 21  1  0
  3 22  1  0
  4 23  1  0
  4 24  1  0
  5 25  1  0
  5 26  1  0
  6 27  1  1
  8 28  1  0
  9 29  1  0
 12 30  1  0
 13 31  1  0
 14 32  1  0
 18 33  1  0
M  ISO  8  19  13  20  13  21  13  22  13  23  13  24  13  25  13  26  13
M  ISO  7  27  13  28  14  29  14  30  14  31  14  32  14  33  11
M  END
>  <minimizedAffinity>  (1) 
-4.30812311

>  <minimizedRMSD>  (1) 
0.886304438

$$$$
