
     RDKit          3D

 39 41  0  0  0  0  0  0  0  0999 V2000
   47.5010   34.1040   42.1690 C   0  0  0  0  0  0  0  0  0  0  0  0
   48.4640   35.2210   41.7940 C   0  0  0  0  0  0  0  0  0  0  0  0
   49.7910   35.1940   42.4560 C   0  0  0  0  0  0  0  0  0  0  0  0
   50.4150   33.8330   42.4290 C   0  0  0  0  0  0  0  0  0  0  0  0
   49.4690   32.7110   42.0530 C   0  0  0  0  0  0  0  0  0  0  0  0
   48.1850   32.9610   42.8160 C   0  0  0  0  0  0  0  0  0  0  0  0
   46.7520   33.8120   40.9720 N   0  0  0  0  0  0  0  0  0  0  0  0
   45.5010   33.3110   41.2110 C   0  0  0  0  0  0  0  0  0  0  0  0
   44.6230   32.9640   40.2320 C   0  0  0  0  0  0  0  0  0  0  0  0
   43.2590   32.4180   40.4820 C   0  0  0  0  0  0  0  0  0  0  0  0
   44.9680   33.1070   38.9070 C   0  0  0  0  0  0  0  0  0  0  0  0
   44.1950   32.8020   37.9640 O   0  0  0  0  0  0  0  0  0  0  0  0
   46.1870   33.5950   38.6680 N   0  0  0  0  0  0  0  0  0  0  0  0
   47.0170   33.9230   39.6650 C   0  0  0  0  0  0  0  0  0  0  0  0
   48.1470   34.3760   39.3750 O   0  0  0  0  0  0  0  0  0  0  0  0
   45.2620   34.4370   45.1120 C   0  0  0  0  0  0  0  0  0  0  0  0
   44.5710   35.6350   44.8510 C   0  0  0  0  0  0  0  0  0  0  0  0
   44.8810   36.3250   43.6690 C   0  0  0  0  0  0  0  0  0  0  0  0
   45.8280   35.7850   42.8620 N   0  0  0  0  0  0  0  0  0  0  0  0
   46.4750   34.6450   43.1220 C   0  0  0  0  0  0  0  0  0  0  0  0
   46.1840   33.9700   44.2600 N   0  0  0  0  0  0  0  0  0  0  0  0
   48.6302   35.1698   40.7078 H   0  0  0  0  0  0  0  0  0  0  0  0
   47.9840   36.1496   42.1365 H   0  0  0  0  0  0  0  0  0  0  0  0
   50.4583   35.8989   41.9385 H   0  0  0  0  0  0  0  0  0  0  0  0
   49.6460   35.4756   43.5094 H   0  0  0  0  0  0  0  0  0  0  0  0
   51.2373   33.8473   41.6985 H   0  0  0  0  0  0  0  0  0  0  0  0
   50.7519   33.6249   43.4552 H   0  0  0  0  0  0  0  0  0  0  0  0
   49.2765   32.7225   40.9700 H   0  0  0  0  0  0  0  0  0  0  0  0
   49.8963   31.7285   42.3023 H   0  0  0  0  0  0  0  0  0  0  0  0
   48.4119   33.2033   43.8647 H   0  0  0  0  0  0  0  0  0  0  0  0
   47.5446   32.0667   42.8023 H   0  0  0  0  0  0  0  0  0  0  0  0
   45.1870   33.1813   42.2572 H   0  0  0  0  0  0  0  0  0  0  0  0
   43.0849   32.3483   41.5659 H   0  0  0  0  0  0  0  0  0  0  0  0
   42.5089   33.0852   40.0323 H   0  0  0  0  0  0  0  0  0  0  0  0
   43.1764   31.4175   40.0323 H   0  0  0  0  0  0  0  0  0  0  0  0
   46.4960   33.7221   37.6937 H   0  0  0  0  0  0  0  0  0  0  0  0
   45.0411   33.8747   46.0312 H   0  0  0  0  0  0  0  0  0  0  0  0
   43.8131   36.0178   45.5503 H   0  0  0  0  0  0  0  0  0  0  0  0
   44.3760   37.2665   43.4073 H   0  0  0  0  0  0  0  0  0  0  0  0
  1  6  1  0
  1 20  1  0
  2  1  1  0
  2  3  1  0
  4  3  1  0
  5  4  1  0
  5  6  1  0
  7  8  1  0
  7  1  1  0
  9 10  1  0
  9  8  2  0
 11  9  1  0
 12 11  2  0
 13 11  1  0
 13 14  1  0
 14  7  1  0
 15 14  2  0
 17 16  2  0
 18 17  1  0
 19 20  1  0
 19 18  2  0
 20 21  2  0
 21 16  1  0
  2 22  1  0
  2 23  1  0
  3 24  1  0
  3 25  1  0
  4 26  1  0
  4 27  1  0
  5 28  1  0
  5 29  1  0
  6 30  1  0
  6 31  1  0
  8 32  1  0
 10 33  1  0
 10 34  1  0
 10 35  1  0
 13 36  1  0
 16 37  1  0
 17 38  1  0
 18 39  1  0
M  ISO  8  22  13  23  13  24  13  25  13  26  13  27  13  28  13  29  13
M  ISO  8  30  13  31  13  32  14  33   8  34   8  35   8  36   9  37  14
M  ISO  2  38  14  39  14
M  END
>  <minimizedAffinity>  (1) 
-6.10128021

>  <minimizedRMSD>  (1) 
0.952870011

$$$$
