
     RDKit          3D

 39 41  0  0  0  0  0  0  0  0999 V2000
   47.6640   34.1010   42.1680 C   0  0  0  0  0  0  0  0  0  0  0  0
   48.5540   35.2270   41.7320 C   0  0  0  0  0  0  0  0  0  0  0  0
   49.8710   35.3260   42.4020 C   0  0  0  0  0  0  0  0  0  0  0  0
   50.5730   34.0120   42.5330 C   0  0  0  0  0  0  0  0  0  0  0  0
   49.7140   32.8160   42.1780 C   0  0  0  0  0  0  0  0  0  0  0  0
   48.3990   33.0220   42.8780 C   0  0  0  0  0  0  0  0  0  0  0  0
   45.2850   34.4110   45.0020 C   0  0  0  0  0  0  0  0  0  0  0  0
   44.5760   35.5720   44.6690 C   0  0  0  0  0  0  0  0  0  0  0  0
   44.9050   36.2430   43.4940 C   0  0  0  0  0  0  0  0  0  0  0  0
   45.9060   35.7160   42.7430 N   0  0  0  0  0  0  0  0  0  0  0  0
   46.5850   34.6030   43.0640 C   0  0  0  0  0  0  0  0  0  0  0  0
   46.2580   33.9560   44.2120 N   0  0  0  0  0  0  0  0  0  0  0  0
   45.7450   32.7480   38.5530 C   0  0  0  0  0  0  0  0  0  0  0  0
   46.8580   33.5600   38.5420 C   0  0  0  0  0  0  0  0  0  0  0  0
   47.4510   33.9780   39.7160 C   0  0  0  0  0  0  0  0  0  0  0  0
   46.9430   33.5930   40.9400 C   0  0  0  0  0  0  0  0  0  0  0  0
   45.8150   32.7700   40.9860 C   0  0  0  0  0  0  0  0  0  0  0  0
   45.2540   32.3770   39.7820 C   0  0  0  0  0  0  0  0  0  0  0  0
   44.8720   32.1300   37.1800 S   0  0  0  0  0  0  0  0  0  0  0  0
   45.4190   32.7790   35.9420 O   0  0  0  0  0  0  0  0  0  0  0  0
   45.0040   30.6450   37.1160 O   0  0  0  0  0  0  0  0  0  0  0  0
   48.7357   35.1108   40.6534 H   0  0  0  0  0  0  0  0  0  0  0  0
   48.0169   36.1463   42.0086 H   0  0  0  0  0  0  0  0  0  0  0  0
   50.5091   36.0051   41.8174 H   0  0  0  0  0  0  0  0  0  0  0  0
   49.6890   35.6990   43.4207 H   0  0  0  0  0  0  0  0  0  0  0  0
   51.4480   34.0194   41.8664 H   0  0  0  0  0  0  0  0  0  0  0  0
   50.8482   33.9027   43.5924 H   0  0  0  0  0  0  0  0  0  0  0  0
   49.5628   32.7646   41.0897 H   0  0  0  0  0  0  0  0  0  0  0  0
   50.1901   31.8741   42.4880 H   0  0  0  0  0  0  0  0  0  0  0  0
   48.5747   33.3157   43.9234 H   0  0  0  0  0  0  0  0  0  0  0  0
   47.8124   32.0915   42.8702 H   0  0  0  0  0  0  0  0  0  0  0  0
   45.0363   33.8683   45.9259 H   0  0  0  0  0  0  0  0  0  0  0  0
   43.7747   35.9466   45.3230 H   0  0  0  0  0  0  0  0  0  0  0  0
   44.3778   37.1586   43.1880 H   0  0  0  0  0  0  0  0  0  0  0  0
   47.2820   33.8812   37.5792 H   0  0  0  0  0  0  0  0  0  0  0  0
   48.3391   34.6258   39.6756 H   0  0  0  0  0  0  0  0  0  0  0  0
   45.3869   32.4451   41.9458 H   0  0  0  0  0  0  0  0  0  0  0  0
   44.3643   31.7308   39.8112 H   0  0  0  0  0  0  0  0  0  0  0  0
   43.5377   32.4204   37.2901 H   0  0  0  0  0  0  0  0  0  0  0  0
  1  6  1  0
  1 11  1  0
  2  1  1  0
  2  3  1  0
  3  4  1  0
  5  4  1  0
  5  6  1  0
  8  7  2  0
  9  8  1  0
 10 11  1  0
 10  9  2  0
 11 12  2  0
 12  7  1  0
 13 18  2  0
 14 13  1  0
 14 15  2  0
 15 16  1  0
 16 17  2  0
 16  1  1  0
 18 17  1  0
 19 13  1  0
 20 19  2  0
 21 19  2  0
  2 22  1  0
  2 23  1  0
  3 24  1  0
  3 25  1  0
  4 26  1  0
  4 27  1  0
  5 28  1  0
  5 29  1  0
  6 30  1  0
  6 31  1  0
  7 32  1  0
  8 33  1  0
  9 34  1  0
 14 35  1  0
 15 36  1  0
 17 37  1  0
 18 38  1  0
 19 39  1  0
M  ISO  8  22  13  23  13  24  13  25  13  26  13  27  13  28  13  29  13
M  ISO  8  30  13  31  13  32  14  33  14  34  14  35  14  36  14  37  14
M  ISO  2  38  14  39  11
M  END
>  <minimizedAffinity>  (1) 
-5.58901405

>  <minimizedRMSD>  (1) 
0.957024992

$$$$
