
     RDKit          3D

 33 35  0  0  0  0  0  0  0  0999 V2000
   47.4960   34.0520   42.3550 C   0  0  0  0  0  0  0  0  0  0  0  0
   48.2960   35.2150   41.7980 C   0  0  0  0  0  0  0  0  0  0  0  0
   49.6620   35.3520   42.3550 C   0  0  0  0  0  0  0  0  0  0  0  0
   50.4160   34.0620   42.4410 C   0  0  0  0  0  0  0  0  0  0  0  0
   49.5810   32.8440   42.1890 C   0  0  0  0  0  0  0  0  0  0  0  0
   48.2990   32.9870   43.0010 C   0  0  0  0  0  0  0  0  0  0  0  0
   45.3250   34.3310   45.3380 C   0  0  0  0  0  0  0  0  0  0  0  0
   44.5590   35.4740   45.0690 C   0  0  0  0  0  0  0  0  0  0  0  0
   44.8010   36.1360   43.8650 C   0  0  0  0  0  0  0  0  0  0  0  0
   45.7460   35.6630   43.0150 N   0  0  0  0  0  0  0  0  0  0  0  0
   46.4650   34.5560   43.3100 C   0  0  0  0  0  0  0  0  0  0  0  0
   46.2530   33.8940   44.4710 N   0  0  0  0  0  0  0  0  0  0  0  0
   46.6940   33.4080   41.2550 C   0  0  0  0  0  0  0  0  0  0  0  0
   46.9050   33.8790   39.9540 C   0  0  0  0  0  0  0  0  0  0  0  0
   46.0590   33.1390   39.1260 C   0  0  0  0  0  0  0  0  0  0  0  0
   45.4030   32.2790   39.9850 C   0  0  0  0  0  0  0  0  0  0  0  0
   45.7970   32.4650   41.2050 O   0  0  0  0  0  0  0  0  0  0  0  0
   48.3820   35.0812   40.7096 H   0  0  0  0  0  0  0  0  0  0  0  0
   47.7528   36.1287   42.0811 H   0  0  0  0  0  0  0  0  0  0  0  0
   50.2295   36.0424   41.7137 H   0  0  0  0  0  0  0  0  0  0  0  0
   49.5505   35.7249   43.3838 H   0  0  0  0  0  0  0  0  0  0  0  0
   51.2254   34.0853   41.6964 H   0  0  0  0  0  0  0  0  0  0  0  0
   50.7881   33.9819   43.4731 H   0  0  0  0  0  0  0  0  0  0  0  0
   49.3403   32.7694   41.1183 H   0  0  0  0  0  0  0  0  0  0  0  0
   50.1255   31.9349   42.4842 H   0  0  0  0  0  0  0  0  0  0  0  0
   48.5372   33.2689   44.0372 H   0  0  0  0  0  0  0  0  0  0  0  0
   47.7435   32.0380   43.0296 H   0  0  0  0  0  0  0  0  0  0  0  0
   45.1629   33.7816   46.2771 H   0  0  0  0  0  0  0  0  0  0  0  0
   43.7987   35.8339   45.7778 H   0  0  0  0  0  0  0  0  0  0  0  0
   44.2275   37.0382   43.6061 H   0  0  0  0  0  0  0  0  0  0  0  0
   47.5995   34.6742   39.6453 H   0  0  0  0  0  0  0  0  0  0  0  0
   45.9414   33.2221   38.0355 H   0  0  0  0  0  0  0  0  0  0  0  0
   44.6503   31.5387   39.6760 H   0  0  0  0  0  0  0  0  0  0  0  0
  1  6  1  0
  1 11  1  0
  2  1  1  0
  2  3  1  0
  3  4  1  0
  5  4  1  0
  5  6  1  0
  8  7  2  0
  9  8  1  0
 10 11  1  0
 10  9  2  0
 11 12  2  0
 12  7  1  0
 13  1  1  0
 14 13  2  0
 15 14  1  0
 15 16  2  0
 16 17  1  0
 17 13  1  0
  2 18  1  0
  2 19  1  0
  3 20  1  0
  3 21  1  0
  4 22  1  0
  4 23  1  0
  5 24  1  0
  5 25  1  0
  6 26  1  0
  6 27  1  0
  7 28  1  0
  8 29  1  0
  9 30  1  0
 14 31  1  0
 15 32  1  0
 16 33  1  0
M  ISO  8  18  13  19  13  20  13  21  13  22  13  23  13  24  13  25  13
M  ISO  8  26  13  27  13  28  14  29  14  30  14  31  14  32  14  33  14
M  END
>  <minimizedAffinity>  (1) 
-5.33615303

>  <minimizedRMSD>  (1) 
0.729431629

$$$$
