
     RDKit          3D

 33 35  0  0  0  0  0  0  0  0999 V2000
   47.4760   34.0420   42.3730 C   0  0  0  0  0  0  0  0  0  0  0  0
   48.2530   35.2250   41.8400 C   0  0  0  0  0  0  0  0  0  0  0  0
   49.6350   35.3500   42.3500 C   0  0  0  0  0  0  0  0  0  0  0  0
   50.3990   34.0650   42.4230 C   0  0  0  0  0  0  0  0  0  0  0  0
   49.5640   32.8480   42.1440 C   0  0  0  0  0  0  0  0  0  0  0  0
   48.3100   32.9710   42.9880 C   0  0  0  0  0  0  0  0  0  0  0  0
   45.3940   34.2620   45.4300 C   0  0  0  0  0  0  0  0  0  0  0  0
   44.5870   35.3770   45.1910 C   0  0  0  0  0  0  0  0  0  0  0  0
   44.7730   36.0470   43.9900 C   0  0  0  0  0  0  0  0  0  0  0  0
   45.7200   35.5890   43.1160 N   0  0  0  0  0  0  0  0  0  0  0  0
   46.4840   34.5060   43.3760 C   0  0  0  0  0  0  0  0  0  0  0  0
   46.3020   33.8490   44.5550 N   0  0  0  0  0  0  0  0  0  0  0  0
   46.6700   33.4350   41.2980 N   0  0  0  0  0  0  0  0  0  0  0  0
   46.5780   33.8770   40.0340 N   0  0  0  0  0  0  0  0  0  0  0  0
   45.7730   33.1200   39.3030 C   0  0  0  0  0  0  0  0  0  0  0  0
   45.3030   32.1270   40.1130 C   0  0  0  0  0  0  0  0  0  0  0  0
   45.8750   32.3440   41.3450 C   0  0  0  0  0  0  0  0  0  0  0  0
   47.7064   36.1408   42.1094 H   0  0  0  0  0  0  0  0  0  0  0  0
   48.3404   35.0696   40.7545 H   0  0  0  0  0  0  0  0  0  0  0  0
   50.1829   36.0360   41.6873 H   0  0  0  0  0  0  0  0  0  0  0  0
   49.5502   35.7173   43.3834 H   0  0  0  0  0  0  0  0  0  0  0  0
   51.2139   34.1034   41.6851 H   0  0  0  0  0  0  0  0  0  0  0  0
   50.7698   33.9702   43.4543 H   0  0  0  0  0  0  0  0  0  0  0  0
   49.2994   32.8073   41.0771 H   0  0  0  0  0  0  0  0  0  0  0  0
   50.1149   31.9280   42.3892 H   0  0  0  0  0  0  0  0  0  0  0  0
   48.5744   33.2437   44.0204 H   0  0  0  0  0  0  0  0  0  0  0  0
   47.7632   32.0171   43.0211 H   0  0  0  0  0  0  0  0  0  0  0  0
   45.2729   33.7091   46.3732 H   0  0  0  0  0  0  0  0  0  0  0  0
   43.8365   35.7096   45.9232 H   0  0  0  0  0  0  0  0  0  0  0  0
   44.1682   36.9325   43.7448 H   0  0  0  0  0  0  0  0  0  0  0  0
   45.5287   33.2649   38.2403 H   0  0  0  0  0  0  0  0  0  0  0  0
   44.6093   31.3191   39.8372 H   0  0  0  0  0  0  0  0  0  0  0  0
   45.7095   31.7213   42.2365 H   0  0  0  0  0  0  0  0  0  0  0  0
  1  6  1  0
  1 11  1  0
  2  3  1  0
  2  1  1  0
  3  4  1  0
  5  4  1  0
  5  6  1  0
  8  7  2  0
  9  8  1  0
 10 11  1  0
 10  9  2  0
 11 12  2  0
 12  7  1  0
 13 17  1  0
 13  1  1  0
 14 13  1  0
 15 14  2  0
 15 16  1  0
 16 17  2  0
  2 18  1  0
  2 19  1  0
  3 20  1  0
  3 21  1  0
  4 22  1  0
  4 23  1  0
  5 24  1  0
  5 25  1  0
  6 26  1  0
  6 27  1  0
  7 28  1  0
  8 29  1  0
  9 30  1  0
 15 31  1  0
 16 32  1  0
 17 33  1  0
M  ISO  8  18  13  19  13  20  13  21  13  22  13  23  13  24  13  25  13
M  ISO  8  26  13  27  13  28  14  29  14  30  14  31  14  32  14  33  14
M  END
>  <minimizedAffinity>  (1) 
-5.18305588

>  <minimizedRMSD>  (1) 
0.593939602

$$$$
