
     RDKit          3D

 39 41  0  0  0  0  0  0  0  0999 V2000
   47.5220   33.9770   42.2880 C   0  0  0  0  0  0  0  0  0  0  0  0
   48.3270   35.0990   41.6680 C   0  0  0  0  0  0  0  0  0  0  0  0
   49.6890   35.3300   42.2410 C   0  0  0  0  0  0  0  0  0  0  0  0
   50.4610   34.0840   42.4770 C   0  0  0  0  0  0  0  0  0  0  0  0
   49.6550   32.8320   42.2810 C   0  0  0  0  0  0  0  0  0  0  0  0
   48.3690   33.0390   43.0630 C   0  0  0  0  0  0  0  0  0  0  0  0
   45.2340   34.4070   45.1810 C   0  0  0  0  0  0  0  0  0  0  0  0
   44.5470   35.6050   44.8630 C   0  0  0  0  0  0  0  0  0  0  0  0
   44.8830   36.2590   43.6590 C   0  0  0  0  0  0  0  0  0  0  0  0
   45.8600   35.6880   42.8690 N   0  0  0  0  0  0  0  0  0  0  0  0
   46.4820   34.5590   43.2050 C   0  0  0  0  0  0  0  0  0  0  0  0
   46.1770   33.9110   44.3570 N   0  0  0  0  0  0  0  0  0  0  0  0
   46.8360   33.3100   41.2080 N   0  0  0  0  0  0  0  0  0  0  0  0
   45.4150   33.1310   41.4200 C   0  0  0  0  0  0  0  0  0  0  0  0
   44.9340   32.3240   40.2000 C   0  0  0  0  0  0  0  0  0  0  0  0
   45.1220   32.9980   39.0190 O   0  0  0  0  0  0  0  0  0  0  0  0
   46.5230   33.0670   38.8270 C   0  0  0  0  0  0  0  0  0  0  0  0
   47.0250   33.9690   39.9450 C   0  0  0  0  0  0  0  0  0  0  0  0
   47.7516   36.0292   41.7851 H   0  0  0  0  0  0  0  0  0  0  0  0
   48.4946   34.7983   40.6233 H   0  0  0  0  0  0  0  0  0  0  0  0
   50.2564   35.9619   41.5419 H   0  0  0  0  0  0  0  0  0  0  0  0
   49.5464   35.8081   43.2214 H   0  0  0  0  0  0  0  0  0  0  0  0
   51.3107   34.0636   41.7787 H   0  0  0  0  0  0  0  0  0  0  0  0
   50.7843   34.0987   43.5283 H   0  0  0  0  0  0  0  0  0  0  0  0
   49.4342   32.6821   41.2139 H   0  0  0  0  0  0  0  0  0  0  0  0
   50.2002   31.9418   42.6279 H   0  0  0  0  0  0  0  0  0  0  0  0
   48.5950   33.4660   44.0512 H   0  0  0  0  0  0  0  0  0  0  0  0
   47.8488   32.0815   43.2136 H   0  0  0  0  0  0  0  0  0  0  0  0
   44.9939   33.8750   46.1134 H   0  0  0  0  0  0  0  0  0  0  0  0
   43.7761   36.0121   45.5338 H   0  0  0  0  0  0  0  0  0  0  0  0
   44.3833   37.1922   43.3601 H   0  0  0  0  0  0  0  0  0  0  0  0
   45.2291   32.5745   42.3505 H   0  0  0  0  0  0  0  0  0  0  0  0
   44.8857   34.0903   41.5183 H   0  0  0  0  0  0  0  0  0  0  0  0
   45.4935   31.3778   40.1596 H   0  0  0  0  0  0  0  0  0  0  0  0
   43.8544   32.1494   40.3181 H   0  0  0  0  0  0  0  0  0  0  0  0
   46.9743   32.0668   38.9040 H   0  0  0  0  0  0  0  0  0  0  0  0
   46.7870   33.4536   37.8316 H   0  0  0  0  0  0  0  0  0  0  0  0
   48.0946   34.1781   39.7961 H   0  0  0  0  0  0  0  0  0  0  0  0
   46.4637   34.9150   39.9353 H   0  0  0  0  0  0  0  0  0  0  0  0
  1  6  1  0
  1 11  1  0
  2  3  1  0
  2  1  1  0
  3  4  1  0
  5  4  1  0
  5  6  1  0
  8  7  2  0
  9  8  1  0
 10 11  1  0
 10  9  2  0
 11 12  2  0
 12  7  1  0
 13 14  1  0
 13  1  1  0
 15 14  1  0
 16 15  1  0
 17 16  1  0
 17 18  1  0
 18 13  1  0
  2 19  1  0
  2 20  1  0
  3 21  1  0
  3 22  1  0
  4 23  1  0
  4 24  1  0
  5 25  1  0
  5 26  1  0
  6 27  1  0
  6 28  1  0
  7 29  1  0
  8 30  1  0
  9 31  1  0
 14 32  1  0
 14 33  1  0
 15 34  1  0
 15 35  1  0
 17 36  1  0
 17 37  1  0
 18 38  1  0
 18 39  1  0
M  ISO  8  19  13  20  13  21  13  22  13  23  13  24  13  25  13  26  13
M  ISO  8  27  13  28  13  29  14  30  14  31  14  32  13  33  13  34  13
M  ISO  5  35  13  36  13  37  13  38  13  39  13
M  END
>  <minimizedAffinity>  (1) 
-5.31932211

>  <minimizedRMSD>  (1) 
0.403142095

$$$$
