
     RDKit          3D

 35 36  0  0  0  0  0  0  0  0999 V2000
   45.7250   31.8170   38.2890 C   0  0  0  0  0  0  0  0  0  0  0  0
   45.5030   34.2870   40.9750 C   0  0  0  0  0  0  0  0  0  0  0  0
   46.8200   34.6590   41.1960 C   0  0  0  0  0  0  0  0  0  0  0  0
   47.8370   34.0650   40.4200 C   0  0  0  0  0  0  0  0  0  0  0  0
   47.4560   33.1480   39.4870 N   0  0  0  0  0  0  0  0  0  0  0  0
   46.1620   32.8110   39.2990 C   0  0  0  0  0  0  0  0  0  0  0  0
   45.2120   33.3800   40.0390 N   0  0  0  0  0  0  0  0  0  0  0  0
   44.4790   34.9050   41.7790 C   0  0  0  0  0  0  0  0  0  0  0  0
   43.7260   35.7890   41.2590 O   0  0  0  0  0  0  0  0  0  0  0  0
   44.3590   34.4910   43.1290 O   0  0  0  0  0  0  0  0  0  0  0  0
   45.0090   35.2420   44.1200 C   0  0  0  0  0  0  0  0  0  0  0  0
   44.2250   35.4620   45.2400 F   0  0  0  0  0  0  0  0  0  0  0  0
   46.1630   34.5880   44.5100 F   0  0  0  0  0  0  0  0  0  0  0  0
   45.2840   36.4750   43.5580 F   0  0  0  0  0  0  0  0  0  0  0  0
   45.8130   30.4090   38.7630 C   0  0  0  0  0  0  0  0  0  0  0  0
   44.3430   32.1270   37.8470 C   0  0  0  0  0  0  0  0  0  0  0  0
   46.6620   31.9820   37.1040 C   0  0  0  0  0  0  0  0  0  0  0  0
   45.9500   31.9880   35.8140 C   0  0  0  0  0  0  0  0  0  0  0  0
   45.8910   30.7750   35.1200 C   0  0  0  0  0  0  0  0  0  0  0  0
   45.1740   31.0440   33.9500 C   0  0  0  0  0  0  0  0  0  0  0  0
   44.8290   32.3430   33.9570 N   0  0  0  0  0  0  0  0  0  0  0  0
   45.2850   32.8960   35.0520 N   0  0  0  0  0  0  0  0  0  0  0  0
   47.0680   35.4058   41.9646 H   0  0  0  0  0  0  0  0  0  0  0  0
   48.8948   34.3312   40.5622 H   0  0  0  0  0  0  0  0  0  0  0  0
   45.8141   30.3918   39.8629 H   0  0  0  0  0  0  0  0  0  0  0  0
   44.9486   29.8412   38.3882 H   0  0  0  0  0  0  0  0  0  0  0  0
   46.7414   29.9533   38.3882 H   0  0  0  0  0  0  0  0  0  0  0  0
   43.7000   32.2712   38.7278 H   0  0  0  0  0  0  0  0  0  0  0  0
   44.3488   33.0462   37.2428 H   0  0  0  0  0  0  0  0  0  0  0  0
   43.9556   31.2934   37.2428 H   0  0  0  0  0  0  0  0  0  0  0  0
   47.2025   32.9339   37.2123 H   0  0  0  0  0  0  0  0  0  0  0  0
   47.3490   31.1229   37.1009 H   0  0  0  0  0  0  0  0  0  0  0  0
   46.3194   29.8104   35.4300 H   0  0  0  0  0  0  0  0  0  0  0  0
   44.9337   30.3175   33.1598 H   0  0  0  0  0  0  0  0  0  0  0  0
   44.2932   32.8246   33.2208 H   0  0  0  0  0  0  0  0  0  0  0  0
  1 15  1  0
  1  6  1  0
  2  3  2  0
  2  8  1  0
  4  3  1  0
  5  4  2  0
  6  5  1  0
  6  7  2  0
  7  2  1  0
  8 10  1  0
  9  8  2  0
 10 11  1  0
 11 13  1  0
 11 12  1  0
 14 11  1  0
 16  1  1  0
 17  1  1  0
 18 17  1  0
 19 18  1  0
 20 21  1  0
 20 19  2  0
 21 22  1  0
 22 18  2  0
  3 23  1  0
  4 24  1  0
 15 25  1  0
 15 26  1  0
 15 27  1  0
 16 28  1  0
 16 29  1  0
 16 30  1  0
 17 31  1  0
 17 32  1  0
 19 33  1  0
 20 34  1  0
 21 35  1  0
M  ISO  8  23  14  24  14  25   8  26   8  27   8  28   8  29   8  30   8
M  ISO  5  31   8  32   8  33  14  34  14  35   9
M  END
>  <minimizedAffinity>  (1) 
-4.62396336

>  <minimizedRMSD>  (1) 
2.37042379

$$$$
