
     RDKit          3D

 32 33  0  0  0  0  0  0  0  0999 V2000
   47.5230   34.1280   42.2330 C   0  0  0  0  0  0  0  0  0  0  0  0
   48.3570   35.2330   41.6860 C   0  0  0  0  0  0  0  0  0  0  0  0
   49.7230   35.3710   42.2900 C   0  0  0  0  0  0  0  0  0  0  0  0
   50.4520   34.0820   42.4850 C   0  0  0  0  0  0  0  0  0  0  0  0
   49.6050   32.8700   42.1870 C   0  0  0  0  0  0  0  0  0  0  0  0
   48.3080   33.0500   42.9430 C   0  0  0  0  0  0  0  0  0  0  0  0
   45.2590   34.4360   45.1290 C   0  0  0  0  0  0  0  0  0  0  0  0
   44.5480   35.6090   44.8550 C   0  0  0  0  0  0  0  0  0  0  0  0
   44.8310   36.2960   43.6830 C   0  0  0  0  0  0  0  0  0  0  0  0
   45.7900   35.7630   42.8850 N   0  0  0  0  0  0  0  0  0  0  0  0
   46.4660   34.6430   43.1500 C   0  0  0  0  0  0  0  0  0  0  0  0
   46.1950   33.9780   44.2800 N   0  0  0  0  0  0  0  0  0  0  0  0
   46.8120   33.4540   41.0610 C   0  0  0  0  0  0  0  0  0  0  0  0
   47.2430   33.9860   39.7320 C   0  0  0  0  0  0  0  0  0  0  0  0
   48.4796   35.0625   40.6062 H   0  0  0  0  0  0  0  0  0  0  0  0
   47.8234   36.1634   41.9303 H   0  0  0  0  0  0  0  0  0  0  0  0
   50.3271   36.0097   41.6289 H   0  0  0  0  0  0  0  0  0  0  0  0
   49.5778   35.8006   43.2922 H   0  0  0  0  0  0  0  0  0  0  0  0
   51.3263   34.0703   41.8176 H   0  0  0  0  0  0  0  0  0  0  0  0
   50.7408   34.0266   43.5450 H   0  0  0  0  0  0  0  0  0  0  0  0
   49.4079   32.8014   41.1070 H   0  0  0  0  0  0  0  0  0  0  0  0
   50.1161   31.9452   42.4926 H   0  0  0  0  0  0  0  0  0  0  0  0
   48.5151   33.3552   43.9793 H   0  0  0  0  0  0  0  0  0  0  0  0
   47.7397   32.1087   42.9730 H   0  0  0  0  0  0  0  0  0  0  0  0
   45.0487   33.8794   46.0542 H   0  0  0  0  0  0  0  0  0  0  0  0
   43.7820   35.9785   45.5527 H   0  0  0  0  0  0  0  0  0  0  0  0
   44.3052   37.2243   43.4150 H   0  0  0  0  0  0  0  0  0  0  0  0
   47.0274   32.3758   41.0935 H   0  0  0  0  0  0  0  0  0  0  0  0
   45.7368   33.6613   41.1653 H   0  0  0  0  0  0  0  0  0  0  0  0
   47.9291   34.8328   39.8810 H   0  0  0  0  0  0  0  0  0  0  0  0
   47.7564   33.1929   39.1686 H   0  0  0  0  0  0  0  0  0  0  0  0
   46.3607   34.3237   39.1686 H   0  0  0  0  0  0  0  0  0  0  0  0
  1  6  1  0
  1 11  1  0
  2  1  1  0
  2  3  1  0
  3  4  1  0
  5  4  1  0
  5  6  1  0
  8  7  2  0
  9  8  1  0
 10 11  1  0
 10  9  2  0
 11 12  2  0
 12  7  1  0
 13  1  1  0
 14 13  1  0
  2 15  1  0
  2 16  1  0
  3 17  1  0
  3 18  1  0
  4 19  1  0
  4 20  1  0
  5 21  1  0
  5 22  1  0
  6 23  1  0
  6 24  1  0
  7 25  1  0
  8 26  1  0
  9 27  1  0
 13 28  1  0
 13 29  1  0
 14 30  1  0
 14 31  1  0
 14 32  1  0
M  ISO  8  15  13  16  13  17  13  18  13  19  13  20  13  21  13  22  13
M  ISO  8  23  13  24  13  25  14  26  14  27  14  28   8  29   8  30   8
M  ISO  2  31   8  32   8
M  END
>  <minimizedAffinity>  (1) 
-4.97541904

>  <minimizedRMSD>  (1) 
0.544508398

$$$$
