
     RDKit          3D

 28 29  0  0  0  0  0  0  0  0999 V2000
   47.4390   34.0250   42.4120 C   0  0  0  0  0  0  0  0  0  0  0  0
   48.2040   35.1990   41.8320 C   0  0  0  0  0  0  0  0  0  0  0  0
   49.5890   35.3560   42.3210 C   0  0  0  0  0  0  0  0  0  0  0  0
   50.3550   34.0740   42.3810 C   0  0  0  0  0  0  0  0  0  0  0  0
   49.5370   32.8370   42.1760 C   0  0  0  0  0  0  0  0  0  0  0  0
   48.2660   32.9540   42.9930 C   0  0  0  0  0  0  0  0  0  0  0  0
   45.3700   34.2440   45.4750 C   0  0  0  0  0  0  0  0  0  0  0  0
   44.5740   35.3910   45.2210 C   0  0  0  0  0  0  0  0  0  0  0  0
   44.7670   36.0730   44.0020 C   0  0  0  0  0  0  0  0  0  0  0  0
   45.7140   35.5930   43.1250 N   0  0  0  0  0  0  0  0  0  0  0  0
   46.4370   34.5030   43.4220 C   0  0  0  0  0  0  0  0  0  0  0  0
   46.2750   33.8230   44.5890 N   0  0  0  0  0  0  0  0  0  0  0  0
   46.6340   33.4990   41.3120 N   0  0  0  0  0  0  0  0  0  0  0  0
   47.6515   36.1182   42.0764 H   0  0  0  0  0  0  0  0  0  0  0  0
   48.2838   35.0053   40.7521 H   0  0  0  0  0  0  0  0  0  0  0  0
   50.1188   36.0457   41.6475 H   0  0  0  0  0  0  0  0  0  0  0  0
   49.5246   35.7399   43.3498 H   0  0  0  0  0  0  0  0  0  0  0  0
   51.1304   34.1032   41.6013 H   0  0  0  0  0  0  0  0  0  0  0  0
   50.7624   34.0072   43.4006 H   0  0  0  0  0  0  0  0  0  0  0  0
   49.2839   32.7330   41.1106 H   0  0  0  0  0  0  0  0  0  0  0  0
   50.1080   31.9528   42.4957 H   0  0  0  0  0  0  0  0  0  0  0  0
   48.5155   33.2009   44.0355 H   0  0  0  0  0  0  0  0  0  0  0  0
   47.7169   32.0010   42.9777 H   0  0  0  0  0  0  0  0  0  0  0  0
   45.2390   33.6927   46.4178 H   0  0  0  0  0  0  0  0  0  0  0  0
   43.8292   35.7375   45.9526 H   0  0  0  0  0  0  0  0  0  0  0  0
   44.1751   36.9673   43.7574 H   0  0  0  0  0  0  0  0  0  0  0  0
   45.8328   32.9755   41.6927 H   0  0  0  0  0  0  0  0  0  0  0  0
   46.2908   34.2794   40.7339 H   0  0  0  0  0  0  0  0  0  0  0  0
  1  6  1  0
  1 11  1  0
  2  3  1  0
  2  1  1  0
  3  4  1  0
  5  4  1  0
  5  6  1  0
  8  7  2  0
  9  8  1  0
 10 11  1  0
 10  9  2  0
 11 12  2  0
 12  7  1  0
 13  1  1  0
  2 14  1  0
  2 15  1  0
  3 16  1  0
  3 17  1  0
  4 18  1  0
  4 19  1  0
  5 20  1  0
  5 21  1  0
  6 22  1  0
  6 23  1  0
  7 24  1  0
  8 25  1  0
  9 26  1  0
 13 27  1  0
 13 28  1  0
M  ISO  8  14  13  15  13  16  13  17  13  18  13  19  13  20  13  21  13
M  ISO  7  22  13  23  13  24  14  25  14  26  14  27   5  28   5
M  END
>  <minimizedAffinity>  (1) 
-4.83636713

>  <minimizedRMSD>  (1) 
0.0231358204

$$$$
