
     RDKit          3D

 29 30  0  0  0  0  0  0  0  0999 V2000
   47.4130   34.1080   42.3260 C   0  0  0  0  0  0  0  0  0  0  0  0
   48.2060   35.2550   41.8010 C   0  0  0  0  0  0  0  0  0  0  0  0
   49.6030   35.3760   42.3460 C   0  0  0  0  0  0  0  0  0  0  0  0
   50.3530   34.0820   42.3840 C   0  0  0  0  0  0  0  0  0  0  0  0
   49.4910   32.8720   42.0760 C   0  0  0  0  0  0  0  0  0  0  0  0
   48.2500   33.0020   42.9240 C   0  0  0  0  0  0  0  0  0  0  0  0
   45.3770   34.2660   45.3910 C   0  0  0  0  0  0  0  0  0  0  0  0
   44.5770   35.4010   45.2200 C   0  0  0  0  0  0  0  0  0  0  0  0
   44.7460   36.1060   44.0360 C   0  0  0  0  0  0  0  0  0  0  0  0
   45.6650   35.6510   43.1340 N   0  0  0  0  0  0  0  0  0  0  0  0
   46.4150   34.5510   43.3380 C   0  0  0  0  0  0  0  0  0  0  0  0
   46.2620   33.8610   44.4780 N   0  0  0  0  0  0  0  0  0  0  0  0
   46.6200   33.4410   41.1970 C   0  0  0  0  0  0  0  0  0  0  0  0
   48.2759   35.1476   40.7085 H   0  0  0  0  0  0  0  0  0  0  0  0
   47.6752   36.1632   42.1225 H   0  0  0  0  0  0  0  0  0  0  0  0
   50.1616   36.0817   41.7135 H   0  0  0  0  0  0  0  0  0  0  0  0
   49.5112   35.7225   43.3859 H   0  0  0  0  0  0  0  0  0  0  0  0
   51.1648   34.1285   41.6432 H   0  0  0  0  0  0  0  0  0  0  0  0
   50.7300   33.9572   43.4098 H   0  0  0  0  0  0  0  0  0  0  0  0
   49.2225   32.8585   41.0094 H   0  0  0  0  0  0  0  0  0  0  0  0
   50.0262   31.9364   42.2957 H   0  0  0  0  0  0  0  0  0  0  0  0
   48.5254   33.2553   43.9584 H   0  0  0  0  0  0  0  0  0  0  0  0
   47.6897   32.0556   42.9430 H   0  0  0  0  0  0  0  0  0  0  0  0
   45.2720   33.6826   46.3176 H   0  0  0  0  0  0  0  0  0  0  0  0
   43.8519   35.7183   45.9839 H   0  0  0  0  0  0  0  0  0  0  0  0
   44.1538   37.0096   43.8293 H   0  0  0  0  0  0  0  0  0  0  0  0
   45.8455   32.7896   41.6281 H   0  0  0  0  0  0  0  0  0  0  0  0
   46.1445   34.2147   40.5762 H   0  0  0  0  0  0  0  0  0  0  0  0
   47.3007   32.8400   40.5762 H   0  0  0  0  0  0  0  0  0  0  0  0
  1  6  1  0
  1 11  1  0
  2  1  1  0
  2  3  1  0
  3  4  1  0
  5  4  1  0
  5  6  1  0
  8  7  2  0
  9  8  1  0
 10 11  1  0
 10  9  2  0
 11 12  2  0
 12  7  1  0
 13  1  1  0
  2 14  1  0
  2 15  1  0
  3 16  1  0
  3 17  1  0
  4 18  1  0
  4 19  1  0
  5 20  1  0
  5 21  1  0
  6 22  1  0
  6 23  1  0
  7 24  1  0
  8 25  1  0
  9 26  1  0
 13 27  1  0
 13 28  1  0
 13 29  1  0
M  ISO  8  14  13  15  13  16  13  17  13  18  13  19  13  20  13  21  13
M  ISO  8  22  13  23  13  24  14  25  14  26  14  27   8  28   8  29   8
M  END
>  <minimizedAffinity>  (1) 
-4.947505

>  <minimizedRMSD>  (1) 
0.119044967

$$$$
