
     RDKit          3D

 33 35  0  0  0  0  0  0  0  0999 V2000
   47.5460   34.1530   42.1780 C   0  0  0  0  0  0  0  0  0  0  0  0
   48.4670   35.2760   41.7610 C   0  0  0  0  0  0  0  0  0  0  0  0
   49.8030   35.2710   42.3950 C   0  0  0  0  0  0  0  0  0  0  0  0
   50.4580   33.9330   42.4650 C   0  0  0  0  0  0  0  0  0  0  0  0
   49.5580   32.7920   42.0800 C   0  0  0  0  0  0  0  0  0  0  0  0
   48.2410   32.9930   42.8050 C   0  0  0  0  0  0  0  0  0  0  0  0
   45.2710   34.4300   45.0870 C   0  0  0  0  0  0  0  0  0  0  0  0
   44.5560   35.6020   44.8200 C   0  0  0  0  0  0  0  0  0  0  0  0
   44.8640   36.2930   43.6530 C   0  0  0  0  0  0  0  0  0  0  0  0
   45.8410   35.7910   42.8410 N   0  0  0  0  0  0  0  0  0  0  0  0
   46.5150   34.6570   43.1230 C   0  0  0  0  0  0  0  0  0  0  0  0
   46.2120   33.9840   44.2650 N   0  0  0  0  0  0  0  0  0  0  0  0
   46.8590   33.6200   40.9280 C   0  0  0  0  0  0  0  0  0  0  0  0
   45.7090   32.9180   40.6120 C   0  0  0  0  0  0  0  0  0  0  0  0
   45.5130   32.6720   39.3000 C   0  0  0  0  0  0  0  0  0  0  0  0
   46.3600   33.0670   38.3180 C   0  0  0  0  0  0  0  0  0  0  0  0
   47.6760   33.9340   39.3240 S   0  0  0  0  0  0  0  0  0  0  0  0
   48.6082   35.2121   40.6720 H   0  0  0  0  0  0  0  0  0  0  0  0
   47.9793   36.2053   42.0905 H   0  0  0  0  0  0  0  0  0  0  0  0
   50.4572   35.9424   41.8195 H   0  0  0  0  0  0  0  0  0  0  0  0
   49.6530   35.5967   43.4349 H   0  0  0  0  0  0  0  0  0  0  0  0
   51.3235   33.9354   41.7861 H   0  0  0  0  0  0  0  0  0  0  0  0
   50.7444   33.7728   43.5149 H   0  0  0  0  0  0  0  0  0  0  0  0
   49.3931   32.7929   40.9924 H   0  0  0  0  0  0  0  0  0  0  0  0
   50.0112   31.8282   42.3550 H   0  0  0  0  0  0  0  0  0  0  0  0
   48.4278   33.1997   43.8691 H   0  0  0  0  0  0  0  0  0  0  0  0
   47.6202   32.0880   42.7304 H   0  0  0  0  0  0  0  0  0  0  0  0
   45.0472   33.8631   46.0027 H   0  0  0  0  0  0  0  0  0  0  0  0
   43.7781   35.9642   45.5082 H   0  0  0  0  0  0  0  0  0  0  0  0
   44.3341   37.2205   43.3905 H   0  0  0  0  0  0  0  0  0  0  0  0
   44.9993   32.5817   41.3822 H   0  0  0  0  0  0  0  0  0  0  0  0
   44.6095   32.1162   39.0089 H   0  0  0  0  0  0  0  0  0  0  0  0
   46.2919   32.9185   37.2302 H   0  0  0  0  0  0  0  0  0  0  0  0
  1  6  1  0
  1 11  1  0
  2  1  1  0
  2  3  1  0
  3  4  1  0
  5  4  1  0
  5  6  1  0
  8  7  2  0
  9  8  1  0
 10 11  1  0
 10  9  2  0
 11 12  2  0
 12  7  1  0
 13  1  1  0
 14 13  2  0
 15 14  1  0
 16 15  2  0
 16 17  1  0
 17 13  1  0
  2 18  1  0
  2 19  1  0
  3 20  1  0
  3 21  1  0
  4 22  1  0
  4 23  1  0
  5 24  1  0
  5 25  1  0
  6 26  1  0
  6 27  1  0
  7 28  1  0
  8 29  1  0
  9 30  1  0
 14 31  1  0
 15 32  1  0
 16 33  1  0
M  ISO  8  18  13  19  13  20  13  21  13  22  13  23  13  24  13  25  13
M  ISO  8  26  13  27  13  28  14  29  14  30  14  31  14  32  14  33  14
M  END
>  <minimizedAffinity>  (1) 
-5.33306217

>  <minimizedRMSD>  (1) 
0.736734509

$$$$
