
     RDKit          3D

 46 50  0  0  0  0  0  0  0  0999 V2000
   47.5920   34.1520   42.2150 C   0  0  0  0  0  0  0  0  0  0  0  0
   48.4370   35.2880   41.7130 C   0  0  0  0  0  0  0  0  0  0  0  0
   49.7700   35.4190   42.3280 C   0  0  0  0  0  0  0  0  0  0  0  0
   50.5100   34.1350   42.5210 C   0  0  0  0  0  0  0  0  0  0  0  0
   49.6840   32.9050   42.2280 C   0  0  0  0  0  0  0  0  0  0  0  0
   48.3580   33.0840   42.9390 C   0  0  0  0  0  0  0  0  0  0  0  0
   45.2490   34.4560   45.0620 C   0  0  0  0  0  0  0  0  0  0  0  0
   44.5270   35.6110   44.7500 C   0  0  0  0  0  0  0  0  0  0  0  0
   44.8480   36.2710   43.5770 C   0  0  0  0  0  0  0  0  0  0  0  0
   45.8390   35.7700   42.7950 N   0  0  0  0  0  0  0  0  0  0  0  0
   46.5200   34.6460   43.1250 C   0  0  0  0  0  0  0  0  0  0  0  0
   46.2130   33.9870   44.2790 N   0  0  0  0  0  0  0  0  0  0  0  0
   46.9500   33.4900   41.0110 C   0  0  0  0  0  0  0  0  0  0  0  0
   45.8780   32.6620   40.7510 C   0  0  0  0  0  0  0  0  0  0  0  0
   45.6630   32.2970   39.4810 C   0  0  0  0  0  0  0  0  0  0  0  0
   46.4580   32.7150   38.4820 C   0  0  0  0  0  0  0  0  0  0  0  0
   47.7010   33.7710   39.3800 S   0  0  0  0  0  0  0  0  0  0  0  0
   46.4680   32.4940   37.0880 N   0  0  0  0  0  0  0  0  0  0  0  0
   45.3320   32.6860   36.3630 C   0  0  0  0  0  0  0  0  0  0  0  0
   45.6120   32.4070   35.0590 N   0  0  0  0  0  0  0  0  0  0  0  0
   46.9190   32.0460   35.0090 C   0  0  0  0  0  0  0  0  0  0  0  0
   47.7860   31.6550   34.0040 C   0  0  0  0  0  0  0  0  0  0  0  0
   49.0730   31.3450   34.2460 N   0  0  0  0  0  0  0  0  0  0  0  0
   49.5570   31.4140   35.5210 C   0  0  0  0  0  0  0  0  0  0  0  0
   48.7340   31.7940   36.5230 N   0  0  0  0  0  0  0  0  0  0  0  0
   47.4560   32.1030   36.2990 C   0  0  0  0  0  0  0  0  0  0  0  0
   47.2890   31.5830   32.6820 N   0  0  0  0  0  0  0  0  0  0  0  0
   48.5771   35.1512   40.6306 H   0  0  0  0  0  0  0  0  0  0  0  0
   47.8932   36.2054   41.9825 H   0  0  0  0  0  0  0  0  0  0  0  0
   50.3796   36.0698   41.6839 H   0  0  0  0  0  0  0  0  0  0  0  0
   49.6030   35.8297   43.3347 H   0  0  0  0  0  0  0  0  0  0  0  0
   51.3830   34.1339   41.8517 H   0  0  0  0  0  0  0  0  0  0  0  0
   50.7932   34.0851   43.5828 H   0  0  0  0  0  0  0  0  0  0  0  0
   49.5218   32.8079   41.1444 H   0  0  0  0  0  0  0  0  0  0  0  0
   50.1964   31.9955   42.5748 H   0  0  0  0  0  0  0  0  0  0  0  0
   48.5303   33.3884   43.9819 H   0  0  0  0  0  0  0  0  0  0  0  0
   47.7928   32.1403   42.9430 H   0  0  0  0  0  0  0  0  0  0  0  0
   45.0099   33.9159   45.9900 H   0  0  0  0  0  0  0  0  0  0  0  0
   43.7318   35.9823   45.4132 H   0  0  0  0  0  0  0  0  0  0  0  0
   44.3105   37.1846   43.2832 H   0  0  0  0  0  0  0  0  0  0  0  0
   45.2208   32.3128   41.5611 H   0  0  0  0  0  0  0  0  0  0  0  0
   44.8134   31.6378   39.2495 H   0  0  0  0  0  0  0  0  0  0  0  0
   44.3586   33.0096   36.7602 H   0  0  0  0  0  0  0  0  0  0  0  0
   50.6072   31.1625   35.7304 H   0  0  0  0  0  0  0  0  0  0  0  0
   46.3052   31.8186   32.4881 H   0  0  0  0  0  0  0  0  0  0  0  0
   47.9108   31.2950   31.9130 H   0  0  0  0  0  0  0  0  0  0  0  0
  1  6  1  0
  1 11  1  0
  2  1  1  0
  2  3  1  0
  3  4  1  0
  5  4  1  0
  5  6  1  0
  8  7  2  0
  9  8  1  0
 10 11  1  0
 10  9  2  0
 11 12  2  0
 12  7  1  0
 13  1  1  0
 14 13  2  0
 15 14  1  0
 16 17  1  0
 16 15  2  0
 17 13  1  0
 18 16  1  0
 19 18  1  0
 20 19  2  0
 21 20  1  0
 21 26  2  0
 22 23  2  0
 22 21  1  0
 23 24  1  0
 24 25  2  0
 26 25  1  0
 26 18  1  0
 27 22  1  0
  2 28  1  0
  2 29  1  0
  3 30  1  0
  3 31  1  0
  4 32  1  0
  4 33  1  0
  5 34  1  0
  5 35  1  0
  6 36  1  0
  6 37  1  0
  7 38  1  0
  8 39  1  0
  9 40  1  0
 14 41  1  0
 15 42  1  0
 19 43  1  0
 24 44  1  0
 27 45  1  0
 27 46  1  0
M  ISO  8  28  13  29  13  30  13  31  13  32  13  33  13  34  13  35  13
M  ISO  8  36  13  37  13  38  14  39  14  40  14  41  14  42  14  43  14
M  ISO  1  44  14
M  END
>  <minimizedAffinity>  (1) 
-6.82322407

>  <minimizedRMSD>  (1) 
1.37595594

$$$$
