
     RDKit          3D

 41 44  0  0  0  0  0  0  0  0999 V2000
   47.5560   34.1580   42.1730 C   0  0  0  0  0  0  0  0  0  0  0  0
   48.4180   35.2890   41.6920 C   0  0  0  0  0  0  0  0  0  0  0  0
   49.7560   35.3780   42.2950 C   0  0  0  0  0  0  0  0  0  0  0  0
   50.4720   34.0670   42.4580 C   0  0  0  0  0  0  0  0  0  0  0  0
   49.6190   32.8750   42.1500 C   0  0  0  0  0  0  0  0  0  0  0  0
   48.2990   33.0630   42.8790 C   0  0  0  0  0  0  0  0  0  0  0  0
   45.2390   34.4600   45.0540 C   0  0  0  0  0  0  0  0  0  0  0  0
   44.5280   35.6330   44.7520 C   0  0  0  0  0  0  0  0  0  0  0  0
   44.8490   36.3000   43.5830 C   0  0  0  0  0  0  0  0  0  0  0  0
   45.8290   35.7920   42.7910 N   0  0  0  0  0  0  0  0  0  0  0  0
   46.5000   34.6540   43.1070 C   0  0  0  0  0  0  0  0  0  0  0  0
   46.1890   33.9980   44.2520 N   0  0  0  0  0  0  0  0  0  0  0  0
   46.8950   33.5290   40.9680 C   0  0  0  0  0  0  0  0  0  0  0  0
   45.7600   32.7770   40.7050 C   0  0  0  0  0  0  0  0  0  0  0  0
   45.5590   32.4190   39.4220 C   0  0  0  0  0  0  0  0  0  0  0  0
   46.3910   32.7590   38.4340 C   0  0  0  0  0  0  0  0  0  0  0  0
   47.6930   33.7330   39.3500 S   0  0  0  0  0  0  0  0  0  0  0  0
   46.4750   32.5540   37.0060 C   0  0  0  0  0  0  0  0  0  0  0  0
   47.7440   32.4880   36.4780 C   0  0  0  0  0  0  0  0  0  0  0  0
   47.8070   32.2910   35.1120 C   0  0  0  0  0  0  0  0  0  0  0  0
   46.6850   32.1740   34.3550 N   0  0  0  0  0  0  0  0  0  0  0  0
   45.4570   32.2460   34.9180 C   0  0  0  0  0  0  0  0  0  0  0  0
   45.3620   32.4390   36.2620 N   0  0  0  0  0  0  0  0  0  0  0  0
   48.5449   35.1774   40.6051 H   0  0  0  0  0  0  0  0  0  0  0  0
   47.8951   36.2096   41.9905 H   0  0  0  0  0  0  0  0  0  0  0  0
   50.3744   36.0266   41.6572 H   0  0  0  0  0  0  0  0  0  0  0  0
   49.6078   35.7736   43.3107 H   0  0  0  0  0  0  0  0  0  0  0  0
   51.3393   34.0581   41.7814 H   0  0  0  0  0  0  0  0  0  0  0  0
   50.7651   33.9891   43.5154 H   0  0  0  0  0  0  0  0  0  0  0  0
   49.4440   32.8074   41.0661 H   0  0  0  0  0  0  0  0  0  0  0  0
   50.1141   31.9478   42.4742 H   0  0  0  0  0  0  0  0  0  0  0  0
   48.4833   33.3464   43.9258 H   0  0  0  0  0  0  0  0  0  0  0  0
   47.7154   32.1306   42.8778 H   0  0  0  0  0  0  0  0  0  0  0  0
   45.0023   33.9114   45.9776 H   0  0  0  0  0  0  0  0  0  0  0  0
   43.7416   36.0091   45.4229 H   0  0  0  0  0  0  0  0  0  0  0  0
   44.3214   37.2230   43.3006 H   0  0  0  0  0  0  0  0  0  0  0  0
   45.0600   32.4878   41.5027 H   0  0  0  0  0  0  0  0  0  0  0  0
   44.6697   31.8197   39.1770 H   0  0  0  0  0  0  0  0  0  0  0  0
   48.6458   32.5853   37.1004 H   0  0  0  0  0  0  0  0  0  0  0  0
   48.7911   32.2272   34.6247 H   0  0  0  0  0  0  0  0  0  0  0  0
   44.5516   32.1503   34.3007 H   0  0  0  0  0  0  0  0  0  0  0  0
  1  6  1  0
  1 11  1  0
  2  1  1  0
  2  3  1  0
  3  4  1  0
  5  4  1  0
  5  6  1  0
  8  7  2  0
  9  8  1  0
 10 11  1  0
 10  9  2  0
 11 12  2  0
 12  7  1  0
 13  1  1  0
 14 13  2  0
 15 14  1  0
 16 17  1  0
 16 15  2  0
 17 13  1  0
 18 16  1  0
 19 18  2  0
 20 19  1  0
 21 22  1  0
 21 20  2  0
 22 23  2  0
 23 18  1  0
  2 24  1  0
  2 25  1  0
  3 26  1  0
  3 27  1  0
  4 28  1  0
  4 29  1  0
  5 30  1  0
  5 31  1  0
  6 32  1  0
  6 33  1  0
  7 34  1  0
  8 35  1  0
  9 36  1  0
 14 37  1  0
 15 38  1  0
 19 39  1  0
 20 40  1  0
 22 41  1  0
M  ISO  8  24  13  25  13  26  13  27  13  28  13  29  13  30  13  31  13
M  ISO  8  32  13  33  13  34  14  35  14  36  14  37  14  38  14  39  14
M  ISO  2  40  14  41  14
M  END
>  <minimizedAffinity>  (1) 
-6.10751963

>  <minimizedRMSD>  (1) 
0.478931695

$$$$
