
     RDKit          3D

 47 50  0  0  0  0  0  0  0  0999 V2000
   47.6440   34.1930   42.1410 C   0  0  0  0  0  0  0  0  0  0  0  0
   48.5510   35.3400   41.7410 C   0  0  0  0  0  0  0  0  0  0  0  0
   49.8650   35.3610   42.4160 C   0  0  0  0  0  0  0  0  0  0  0  0
   50.5440   34.0260   42.5200 C   0  0  0  0  0  0  0  0  0  0  0  0
   49.6710   32.8690   42.1040 C   0  0  0  0  0  0  0  0  0  0  0  0
   48.3300   33.0480   42.7890 C   0  0  0  0  0  0  0  0  0  0  0  0
   45.2530   34.4570   44.9630 C   0  0  0  0  0  0  0  0  0  0  0  0
   44.5450   35.6140   44.6710 C   0  0  0  0  0  0  0  0  0  0  0  0
   44.8810   36.3100   43.5150 C   0  0  0  0  0  0  0  0  0  0  0  0
   45.8850   35.8210   42.7360 N   0  0  0  0  0  0  0  0  0  0  0  0
   46.5590   34.6890   43.0470 C   0  0  0  0  0  0  0  0  0  0  0  0
   46.2330   34.0100   44.1740 N   0  0  0  0  0  0  0  0  0  0  0  0
   47.0140   33.6680   40.8520 C   0  0  0  0  0  0  0  0  0  0  0  0
   45.8660   32.9980   40.4980 C   0  0  0  0  0  0  0  0  0  0  0  0
   45.7050   32.7180   39.1940 C   0  0  0  0  0  0  0  0  0  0  0  0
   46.6080   33.0650   38.2600 C   0  0  0  0  0  0  0  0  0  0  0  0
   47.9000   33.9130   39.2920 S   0  0  0  0  0  0  0  0  0  0  0  0
   46.6340   32.8960   36.8830 N   0  0  0  0  0  0  0  0  0  0  0  0
   45.4980   32.6990   36.0080 C   0  0  0  0  0  0  0  0  0  0  0  0
   45.7060   31.5720   35.0400 C   0  0  0  0  0  0  0  0  0  0  0  0
   47.0940   31.2680   34.8830 N   0  0  0  0  0  0  0  0  0  0  0  0
   47.9520   32.4290   34.9640 C   0  0  0  0  0  0  0  0  0  0  0  0
   48.0030   32.9430   36.4070 C   0  0  0  0  0  0  0  0  0  0  0  0
   48.7252   35.2753   40.6568 H   0  0  0  0  0  0  0  0  0  0  0  0
   48.0339   36.2618   42.0457 H   0  0  0  0  0  0  0  0  0  0  0  0
   50.5263   36.0379   41.8553 H   0  0  0  0  0  0  0  0  0  0  0  0
   49.6763   35.6922   43.4478 H   0  0  0  0  0  0  0  0  0  0  0  0
   51.4352   34.0383   41.8753 H   0  0  0  0  0  0  0  0  0  0  0  0
   50.7956   33.8745   43.5801 H   0  0  0  0  0  0  0  0  0  0  0  0
   49.5392   32.8703   41.0119 H   0  0  0  0  0  0  0  0  0  0  0  0
   50.1303   31.9114   42.3905 H   0  0  0  0  0  0  0  0  0  0  0  0
   48.4801   33.2572   43.8584 H   0  0  0  0  0  0  0  0  0  0  0  0
   47.7250   32.1338   42.6983 H   0  0  0  0  0  0  0  0  0  0  0  0
   44.9994   33.8912   45.8716 H   0  0  0  0  0  0  0  0  0  0  0  0
   43.7424   35.9698   45.3337 H   0  0  0  0  0  0  0  0  0  0  0  0
   44.3493   37.2320   43.2370 H   0  0  0  0  0  0  0  0  0  0  0  0
   45.1155   32.7054   41.2470 H   0  0  0  0  0  0  0  0  0  0  0  0
   44.7975   32.1831   38.8774 H   0  0  0  0  0  0  0  0  0  0  0  0
   44.6135   32.4768   36.6231 H   0  0  0  0  0  0  0  0  0  0  0  0
   45.3633   33.6208   35.4232 H   0  0  0  0  0  0  0  0  0  0  0  0
   45.1841   30.6786   35.4135 H   0  0  0  0  0  0  0  0  0  0  0  0
   45.3060   31.8778   34.0620 H   0  0  0  0  0  0  0  0  0  0  0  0
   47.2289   30.8267   33.9622 H   0  0  0  0  0  0  0  0  0  0  0  0
   48.9666   32.1557   34.6385 H   0  0  0  0  0  0  0  0  0  0  0  0
   47.5519   33.2200   34.3127 H   0  0  0  0  0  0  0  0  0  0  0  0
   48.6466   32.2974   37.0227 H   0  0  0  0  0  0  0  0  0  0  0  0
   48.4205   33.9591   36.4640 H   0  0  0  0  0  0  0  0  0  0  0  0
  1  6  1  0
  1 11  1  0
  2  1  1  0
  2  3  1  0
  3  4  1  0
  5  4  1  0
  5  6  1  0
  8  7  2  0
  9  8  1  0
 10 11  1  0
 10  9  2  0
 11 12  2  0
 12  7  1  0
 13  1  1  0
 14 13  2  0
 15 14  1  0
 16 15  2  0
 16 17  1  0
 17 13  1  0
 18 16  1  0
 19 18  1  0
 20 19  1  0
 21 22  1  0
 21 20  1  0
 22 23  1  0
 23 18  1  0
  2 24  1  0
  2 25  1  0
  3 26  1  0
  3 27  1  0
  4 28  1  0
  4 29  1  0
  5 30  1  0
  5 31  1  0
  6 32  1  0
  6 33  1  0
  7 34  1  0
  8 35  1  0
  9 36  1  0
 14 37  1  0
 15 38  1  0
 19 39  1  0
 19 40  1  0
 20 41  1  0
 20 42  1  0
 21 43  1  0
 22 44  1  0
 22 45  1  0
 23 46  1  0
 23 47  1  0
M  ISO  8  24  13  25  13  26  13  27  13  28  13  29  13  30  13  31  13
M  ISO  8  32  13  33  13  34  14  35  14  36  14  37  14  38  14  39  13
M  ISO  8  40  13  41  13  42  13  43   5  44  13  45  13  46  13  47  13
M  END
>  <minimizedAffinity>  (1) 
-6.1016283

>  <minimizedRMSD>  (1) 
0.499023795

$$$$
