
     RDKit          3D

 46 49  0  0  0  0  0  0  0  0999 V2000
   47.6000   34.1440   42.1950 C   0  0  0  0  0  0  0  0  0  0  0  0
   48.4600   35.2910   41.7000 C   0  0  0  0  0  0  0  0  0  0  0  0
   49.7880   35.4000   42.3200 C   0  0  0  0  0  0  0  0  0  0  0  0
   50.5080   34.1080   42.5090 C   0  0  0  0  0  0  0  0  0  0  0  0
   49.6760   32.8870   42.1720 C   0  0  0  0  0  0  0  0  0  0  0  0
   48.3470   33.0640   42.8870 C   0  0  0  0  0  0  0  0  0  0  0  0
   45.2440   34.4580   45.0330 C   0  0  0  0  0  0  0  0  0  0  0  0
   44.5280   35.6070   44.7260 C   0  0  0  0  0  0  0  0  0  0  0  0
   44.8480   36.2790   43.5560 C   0  0  0  0  0  0  0  0  0  0  0  0
   45.8430   35.7700   42.7840 N   0  0  0  0  0  0  0  0  0  0  0  0
   46.5270   34.6490   43.1000 C   0  0  0  0  0  0  0  0  0  0  0  0
   46.2050   34.0060   44.2430 N   0  0  0  0  0  0  0  0  0  0  0  0
   46.9570   33.5070   40.9680 C   0  0  0  0  0  0  0  0  0  0  0  0
   45.8370   32.7480   40.7010 C   0  0  0  0  0  0  0  0  0  0  0  0
   45.6510   32.4020   39.4020 C   0  0  0  0  0  0  0  0  0  0  0  0
   46.4850   32.7590   38.4220 C   0  0  0  0  0  0  0  0  0  0  0  0
   47.7550   33.7300   39.3580 S   0  0  0  0  0  0  0  0  0  0  0  0
   46.4380   32.5380   37.0560 N   0  0  0  0  0  0  0  0  0  0  0  0
   47.6790   31.9440   36.6010 C   0  0  0  0  0  0  0  0  0  0  0  0
   47.6260   31.5120   35.1610 C   0  0  0  0  0  0  0  0  0  0  0  0
   46.7680   32.3100   34.4060 O   0  0  0  0  0  0  0  0  0  0  0  0
   45.4710   32.1260   34.8590 C   0  0  0  0  0  0  0  0  0  0  0  0
   45.3370   32.8670   36.1810 C   0  0  0  0  0  0  0  0  0  0  0  0
   48.6013   35.1654   40.6164 H   0  0  0  0  0  0  0  0  0  0  0  0
   47.9227   36.2110   41.9737 H   0  0  0  0  0  0  0  0  0  0  0  0
   50.4094   36.0458   41.6822 H   0  0  0  0  0  0  0  0  0  0  0  0
   49.6219   35.8074   43.3282 H   0  0  0  0  0  0  0  0  0  0  0  0
   51.3982   34.1097   41.8629 H   0  0  0  0  0  0  0  0  0  0  0  0
   50.7618   34.0369   43.5770 H   0  0  0  0  0  0  0  0  0  0  0  0
   49.5179   32.8223   41.0853 H   0  0  0  0  0  0  0  0  0  0  0  0
   50.1792   31.9614   42.4882 H   0  0  0  0  0  0  0  0  0  0  0  0
   48.5210   33.3427   43.9368 H   0  0  0  0  0  0  0  0  0  0  0  0
   47.7724   32.1262   42.8679 H   0  0  0  0  0  0  0  0  0  0  0  0
   45.0067   33.9092   45.9563 H   0  0  0  0  0  0  0  0  0  0  0  0
   43.7314   35.9731   45.3904 H   0  0  0  0  0  0  0  0  0  0  0  0
   44.3135   37.1945   43.2626 H   0  0  0  0  0  0  0  0  0  0  0  0
   45.1372   32.4418   41.4925 H   0  0  0  0  0  0  0  0  0  0  0  0
   44.7693   31.7973   39.1434 H   0  0  0  0  0  0  0  0  0  0  0  0
   48.4854   32.6832   36.7165 H   0  0  0  0  0  0  0  0  0  0  0  0
   47.8583   31.0454   37.2096 H   0  0  0  0  0  0  0  0  0  0  0  0
   48.6377   31.5759   34.7339 H   0  0  0  0  0  0  0  0  0  0  0  0
   47.2446   30.4807   35.1303 H   0  0  0  0  0  0  0  0  0  0  0  0
   44.7569   32.5318   34.1273 H   0  0  0  0  0  0  0  0  0  0  0  0
   45.2561   31.0554   34.9922 H   0  0  0  0  0  0  0  0  0  0  0  0
   45.3363   33.9504   35.9909 H   0  0  0  0  0  0  0  0  0  0  0  0
   44.3952   32.5676   36.6642 H   0  0  0  0  0  0  0  0  0  0  0  0
  1  6  1  0
  1 11  1  0
  2  1  1  0
  2  3  1  0
  3  4  1  0
  5  4  1  0
  5  6  1  0
  8  7  2  0
  9  8  1  0
 10 11  1  0
 10  9  2  0
 11 12  2  0
 12  7  1  0
 13  1  1  0
 14 13  2  0
 15 14  1  0
 16 17  1  0
 16 15  2  0
 17 13  1  0
 18 16  1  0
 19 18  1  0
 20 19  1  0
 21 22  1  0
 21 20  1  0
 22 23  1  0
 23 18  1  0
  2 24  1  0
  2 25  1  0
  3 26  1  0
  3 27  1  0
  4 28  1  0
  4 29  1  0
  5 30  1  0
  5 31  1  0
  6 32  1  0
  6 33  1  0
  7 34  1  0
  8 35  1  0
  9 36  1  0
 14 37  1  0
 15 38  1  0
 19 39  1  0
 19 40  1  0
 20 41  1  0
 20 42  1  0
 22 43  1  0
 22 44  1  0
 23 45  1  0
 23 46  1  0
M  ISO  8  24  13  25  13  26  13  27  13  28  13  29  13  30  13  31  13
M  ISO  8  32  13  33  13  34  14  35  14  36  14  37  14  38  14  39  13
M  ISO  7  40  13  41  13  42  13  43  13  44  13  45  13  46  13
M  END
>  <minimizedAffinity>  (1) 
-5.97253275

>  <minimizedRMSD>  (1) 
0.317576915

$$$$
