
     RDKit          3D

 38 39  0  0  0  0  0  0  0  0999 V2000
   46.4770   33.5090   40.7010 C   0  0  0  0  0  0  0  0  0  0  0  0
   43.1020   34.8570   40.3000 C   0  0  0  0  0  0  0  0  0  0  0  0
   42.9000   35.5720   41.4720 C   0  0  0  0  0  0  0  0  0  0  0  0
   43.9250   35.6120   42.4390 C   0  0  0  0  0  0  0  0  0  0  0  0
   45.0740   34.9320   42.1620 N   0  0  0  0  0  0  0  0  0  0  0  0
   45.2300   34.2430   41.0000 C   0  0  0  0  0  0  0  0  0  0  0  0
   44.2580   34.2120   40.0930 N   0  0  0  0  0  0  0  0  0  0  0  0
   42.0430   34.8290   39.3240 C   0  0  0  0  0  0  0  0  0  0  0  0
   42.1920   35.4760   38.2290 O   0  0  0  0  0  0  0  0  0  0  0  0
   40.8800   34.0760   39.6360 O   0  0  0  0  0  0  0  0  0  0  0  0
   39.6380   34.7270   39.5920 C   0  0  0  0  0  0  0  0  0  0  0  0
   39.1410   34.8610   38.3020 F   0  0  0  0  0  0  0  0  0  0  0  0
   38.7240   34.0200   40.3530 F   0  0  0  0  0  0  0  0  0  0  0  0
   39.8390   36.0040   40.0980 F   0  0  0  0  0  0  0  0  0  0  0  0
   46.6880   32.3070   41.5600 C   0  0  0  0  0  0  0  0  0  0  0  0
   46.4700   33.1040   39.2700 C   0  0  0  0  0  0  0  0  0  0  0  0
   47.6220   34.4820   40.9190 C   0  0  0  0  0  0  0  0  0  0  0  0
   48.8820   33.8110   41.2710 C   0  0  0  0  0  0  0  0  0  0  0  0
   49.6660   34.3180   42.2990 C   0  0  0  0  0  0  0  0  0  0  0  0
   50.7750   33.4900   42.4040 C   0  0  0  0  0  0  0  0  0  0  0  0
   50.6500   32.5270   41.4690 N   0  0  0  0  0  0  0  0  0  0  0  0
   49.5410   32.7290   40.8180 N   0  0  0  0  0  0  0  0  0  0  0  0
   51.5590   31.4270   41.1860 C   0  0  0  0  0  0  0  0  0  0  0  0
   51.8950   30.7860   42.3720 F   0  0  0  0  0  0  0  0  0  0  0  0
   52.6640   31.9110   40.5160 F   0  0  0  0  0  0  0  0  0  0  0  0
   50.9690   30.4870   40.3550 F   0  0  0  0  0  0  0  0  0  0  0  0
   41.9513   36.1013   41.6445 H   0  0  0  0  0  0  0  0  0  0  0  0
   43.8028   36.1695   43.3794 H   0  0  0  0  0  0  0  0  0  0  0  0
   46.6366   32.5996   42.6191 H   0  0  0  0  0  0  0  0  0  0  0  0
   45.9068   31.5624   41.3470 H   0  0  0  0  0  0  0  0  0  0  0  0
   47.6761   31.8730   41.3470 H   0  0  0  0  0  0  0  0  0  0  0  0
   46.4510   32.0064   39.1997 H   0  0  0  0  0  0  0  0  0  0  0  0
   45.5789   33.5185   38.7760 H   0  0  0  0  0  0  0  0  0  0  0  0
   47.3749   33.4875   38.7760 H   0  0  0  0  0  0  0  0  0  0  0  0
   47.7763   35.0559   39.9934 H   0  0  0  0  0  0  0  0  0  0  0  0
   47.3471   35.1327   41.7622 H   0  0  0  0  0  0  0  0  0  0  0  0
   49.4497   35.2052   42.9122 H   0  0  0  0  0  0  0  0  0  0  0  0
   51.6038   33.5995   43.1189 H   0  0  0  0  0  0  0  0  0  0  0  0
  1 17  1  0
  1  6  1  0
  1 15  1  0
  2  3  2  0
  3  4  1  0
  5  4  2  0
  6  5  1  0
  7  2  1  0
  7  6  2  0
  8 10  1  0
  8  2  1  0
  9  8  2  0
 11 10  1  0
 11 14  1  0
 11 13  1  0
 12 11  1  0
 16  1  1  0
 17 18  1  0
 18 19  1  0
 19 20  2  0
 21 20  1  0
 22 18  2  0
 22 21  1  0
 23 21  1  0
 23 24  1  0
 25 23  1  0
 26 23  1  0
  3 27  1  0
  4 28  1  0
 15 29  1  0
 15 30  1  0
 15 31  1  0
 16 32  1  0
 16 33  1  0
 16 34  1  0
 17 35  1  0
 17 36  1  0
 19 37  1  0
 20 38  1  0
M  ISO  8  27  14  28  14  29   8  30   8  31   8  32   8  33   8  34   8
M  ISO  4  35   8  36   8  37  14  38  14
M  END
>  <minimizedAffinity>  (1) 
-5.62142658

>  <minimizedRMSD>  (1) 
7.16225243

$$$$
