
     RDKit          3D

 38 41  0  0  0  0  0  0  0  0999 V2000
   47.5500   34.1560   42.1950 C   0  0  0  0  0  0  0  0  0  0  0  0
   48.4250   35.2780   41.7190 C   0  0  0  0  0  0  0  0  0  0  0  0
   49.7630   35.3560   42.3380 C   0  0  0  0  0  0  0  0  0  0  0  0
   50.4740   34.0480   42.4660 C   0  0  0  0  0  0  0  0  0  0  0  0
   49.6110   32.8470   42.1580 C   0  0  0  0  0  0  0  0  0  0  0  0
   48.2940   33.0490   42.8870 C   0  0  0  0  0  0  0  0  0  0  0  0
   45.2520   34.4480   45.0900 C   0  0  0  0  0  0  0  0  0  0  0  0
   44.5420   35.6260   44.7900 C   0  0  0  0  0  0  0  0  0  0  0  0
   44.8560   36.2920   43.6220 C   0  0  0  0  0  0  0  0  0  0  0  0
   45.8280   35.7820   42.8260 N   0  0  0  0  0  0  0  0  0  0  0  0
   46.5030   34.6430   43.1310 C   0  0  0  0  0  0  0  0  0  0  0  0
   46.1980   33.9860   44.2780 N   0  0  0  0  0  0  0  0  0  0  0  0
   46.8890   33.5390   40.9850 C   0  0  0  0  0  0  0  0  0  0  0  0
   45.7710   32.7520   40.7270 C   0  0  0  0  0  0  0  0  0  0  0  0
   45.5550   32.4160   39.4380 C   0  0  0  0  0  0  0  0  0  0  0  0
   46.3610   32.8110   38.4400 C   0  0  0  0  0  0  0  0  0  0  0  0
   47.6510   33.8100   39.3500 S   0  0  0  0  0  0  0  0  0  0  0  0
   46.3560   32.6010   37.0460 C   0  0  0  0  0  0  0  0  0  0  0  0
   47.4010   32.4980   36.2070 N   0  0  0  0  0  0  0  0  0  0  0  0
   46.9480   32.3030   34.9840 O   0  0  0  0  0  0  0  0  0  0  0  0
   45.6430   32.2780   35.0090 C   0  0  0  0  0  0  0  0  0  0  0  0
   45.2510   32.4630   36.2910 N   0  0  0  0  0  0  0  0  0  0  0  0
   48.5614   35.1625   40.6336 H   0  0  0  0  0  0  0  0  0  0  0  0
   47.9072   36.2043   42.0087 H   0  0  0  0  0  0  0  0  0  0  0  0
   50.3849   36.0244   41.7245 H   0  0  0  0  0  0  0  0  0  0  0  0
   49.6079   35.7245   43.3628 H   0  0  0  0  0  0  0  0  0  0  0  0
   51.3269   34.0484   41.7713 H   0  0  0  0  0  0  0  0  0  0  0  0
   50.7842   33.9559   43.5173 H   0  0  0  0  0  0  0  0  0  0  0  0
   49.4360   32.7753   41.0744 H   0  0  0  0  0  0  0  0  0  0  0  0
   50.1012   31.9173   42.4826 H   0  0  0  0  0  0  0  0  0  0  0  0
   48.4848   33.3245   43.9347 H   0  0  0  0  0  0  0  0  0  0  0  0
   47.7020   32.1220   42.8740 H   0  0  0  0  0  0  0  0  0  0  0  0
   45.0195   33.8990   46.0144 H   0  0  0  0  0  0  0  0  0  0  0  0
   43.7608   36.0044   45.4656 H   0  0  0  0  0  0  0  0  0  0  0  0
   44.3290   37.2164   43.3432 H   0  0  0  0  0  0  0  0  0  0  0  0
   45.0982   32.4209   41.5318 H   0  0  0  0  0  0  0  0  0  0  0  0
   44.6820   31.7924   39.1950 H   0  0  0  0  0  0  0  0  0  0  0  0
   44.9806   32.1326   34.1430 H   0  0  0  0  0  0  0  0  0  0  0  0
  1  6  1  0
  1 11  1  0
  2  1  1  0
  2  3  1  0
  3  4  1  0
  5  4  1  0
  5  6  1  0
  8  7  2  0
  9  8  1  0
 10 11  1  0
 10  9  2  0
 11 12  2  0
 12  7  1  0
 13  1  1  0
 14 13  2  0
 15 14  1  0
 16 17  1  0
 16 15  2  0
 17 13  1  0
 18 16  1  0
 19 18  2  0
 20 21  1  0
 20 19  1  0
 21 22  2  0
 22 18  1  0
  2 23  1  0
  2 24  1  0
  3 25  1  0
  3 26  1  0
  4 27  1  0
  4 28  1  0
  5 29  1  0
  5 30  1  0
  6 31  1  0
  6 32  1  0
  7 33  1  0
  8 34  1  0
  9 35  1  0
 14 36  1  0
 15 37  1  0
 21 38  1  0
M  ISO  8  23  13  24  13  25  13  26  13  27  13  28  13  29  13  30  13
M  ISO  8  31  13  32  13  33  14  34  14  35  14  36  14  37  14  38  14
M  END
>  <minimizedAffinity>  (1) 
-5.91671515

>  <minimizedRMSD>  (1) 
0.424624264

$$$$
