
     RDKit          3D

 42 44  0  0  0  0  0  0  0  0999 V2000
   47.6150   34.1910   42.1510 C   0  0  0  0  0  0  0  0  0  0  0  0
   48.5280   35.3250   41.7800 C   0  0  0  0  0  0  0  0  0  0  0  0
   49.8500   35.3210   42.4320 C   0  0  0  0  0  0  0  0  0  0  0  0
   50.5180   33.9840   42.5090 C   0  0  0  0  0  0  0  0  0  0  0  0
   49.6350   32.8420   42.0820 C   0  0  0  0  0  0  0  0  0  0  0  0
   48.2980   33.0150   42.7850 C   0  0  0  0  0  0  0  0  0  0  0  0
   45.2890   34.4010   45.0300 C   0  0  0  0  0  0  0  0  0  0  0  0
   44.5640   35.5590   44.7650 C   0  0  0  0  0  0  0  0  0  0  0  0
   44.8770   36.2610   43.6070 C   0  0  0  0  0  0  0  0  0  0  0  0
   45.8600   35.7900   42.8010 N   0  0  0  0  0  0  0  0  0  0  0  0
   46.5480   34.6540   43.0900 C   0  0  0  0  0  0  0  0  0  0  0  0
   46.2410   33.9720   44.2210 N   0  0  0  0  0  0  0  0  0  0  0  0
   46.9680   33.6850   40.8820 C   0  0  0  0  0  0  0  0  0  0  0  0
   45.8260   32.9880   40.5250 C   0  0  0  0  0  0  0  0  0  0  0  0
   45.6370   32.7420   39.2170 C   0  0  0  0  0  0  0  0  0  0  0  0
   46.5080   33.1500   38.2800 C   0  0  0  0  0  0  0  0  0  0  0  0
   47.8100   34.0110   39.3070 S   0  0  0  0  0  0  0  0  0  0  0  0
   46.5440   33.0220   36.8350 C   0  0  0  0  0  0  0  0  0  0  0  0
   47.9770   33.0170   36.3830 C   0  0  0  0  0  0  0  0  0  0  0  0
   45.9240   31.7130   36.3370 C   0  0  0  0  0  0  0  0  0  0  0  0
   48.6876   35.2884   40.6923 H   0  0  0  0  0  0  0  0  0  0  0  0
   48.0256   36.2401   42.1267 H   0  0  0  0  0  0  0  0  0  0  0  0
   50.5090   35.9988   41.8696 H   0  0  0  0  0  0  0  0  0  0  0  0
   49.6788   35.6372   43.4716 H   0  0  0  0  0  0  0  0  0  0  0  0
   51.4042   34.0003   41.8576 H   0  0  0  0  0  0  0  0  0  0  0  0
   50.7767   33.8137   43.5645 H   0  0  0  0  0  0  0  0  0  0  0  0
   49.4923   32.8642   40.9915 H   0  0  0  0  0  0  0  0  0  0  0  0
   50.0918   31.8771   42.3472 H   0  0  0  0  0  0  0  0  0  0  0  0
   48.4570   33.2038   43.8569 H   0  0  0  0  0  0  0  0  0  0  0  0
   47.6845   32.1071   42.6884 H   0  0  0  0  0  0  0  0  0  0  0  0
   45.0626   33.8260   45.9400 H   0  0  0  0  0  0  0  0  0  0  0  0
   43.7730   35.9056   45.4464 H   0  0  0  0  0  0  0  0  0  0  0  0
   44.3361   37.1834   43.3488 H   0  0  0  0  0  0  0  0  0  0  0  0
   45.1026   32.6492   41.2813 H   0  0  0  0  0  0  0  0  0  0  0  0
   44.7395   32.1884   38.9040 H   0  0  0  0  0  0  0  0  0  0  0  0
   45.9687   33.8671   36.4290 H   0  0  0  0  0  0  0  0  0  0  0  0
   48.6386   33.0147   37.2618 H   0  0  0  0  0  0  0  0  0  0  0  0
   48.1676   32.1182   35.7782 H   0  0  0  0  0  0  0  0  0  0  0  0
   48.1738   33.9145   35.7782 H   0  0  0  0  0  0  0  0  0  0  0  0
   45.6312   31.0949   37.1985 H   0  0  0  0  0  0  0  0  0  0  0  0
   45.0360   31.9365   35.7274 H   0  0  0  0  0  0  0  0  0  0  0  0
   46.6594   31.1675   35.7274 H   0  0  0  0  0  0  0  0  0  0  0  0
  1  6  1  0
  1 11  1  0
  2  1  1  0
  2  3  1  0
  3  4  1  0
  5  4  1  0
  5  6  1  0
  8  7  2  0
  9  8  1  0
 10 11  1  0
 10  9  2  0
 11 12  2  0
 12  7  1  0
 13  1  1  0
 14 13  2  0
 15 14  1  0
 16 15  2  0
 16 17  1  0
 17 13  1  0
 18 16  1  0
 19 18  1  0
 20 18  1  0
  2 21  1  0
  2 22  1  0
  3 23  1  0
  3 24  1  0
  4 25  1  0
  4 26  1  0
  5 27  1  0
  5 28  1  0
  6 29  1  0
  6 30  1  0
  7 31  1  0
  8 32  1  0
  9 33  1  0
 14 34  1  0
 15 35  1  0
 18 36  1  0
 19 37  1  0
 19 38  1  0
 19 39  1  0
 20 40  1  0
 20 41  1  0
 20 42  1  0
M  ISO  8  21  13  22  13  23  13  24  13  25  13  26  13  27  13  28  13
M  ISO  8  29  13  30  13  31  14  32  14  33  14  34  14  35  14  36   8
M  ISO  6  37   8  38   8  39   8  40   8  41   8  42   8
M  END
>  <minimizedAffinity>  (1) 
-5.62593842

>  <minimizedRMSD>  (1) 
0.139793605

$$$$
