
     RDKit          3D

 40 43  0  0  0  0  0  0  0  0999 V2000
   47.5580   34.1480   42.1860 C   0  0  0  0  0  0  0  0  0  0  0  0
   48.4140   35.2920   41.6990 C   0  0  0  0  0  0  0  0  0  0  0  0
   49.7530   35.3930   42.3040 C   0  0  0  0  0  0  0  0  0  0  0  0
   50.4760   34.0880   42.4770 C   0  0  0  0  0  0  0  0  0  0  0  0
   49.6310   32.8870   42.1650 C   0  0  0  0  0  0  0  0  0  0  0  0
   48.3080   33.0650   42.8920 C   0  0  0  0  0  0  0  0  0  0  0  0
   45.2430   34.4620   45.0630 C   0  0  0  0  0  0  0  0  0  0  0  0
   44.5340   35.6260   44.7710 C   0  0  0  0  0  0  0  0  0  0  0  0
   44.8530   36.2970   43.5950 C   0  0  0  0  0  0  0  0  0  0  0  0
   45.8320   35.7860   42.7990 N   0  0  0  0  0  0  0  0  0  0  0  0
   46.5020   34.6470   43.1180 C   0  0  0  0  0  0  0  0  0  0  0  0
   46.1920   33.9910   44.2640 N   0  0  0  0  0  0  0  0  0  0  0  0
   46.9040   33.5200   40.9820 C   0  0  0  0  0  0  0  0  0  0  0  0
   45.7760   32.7540   40.7240 C   0  0  0  0  0  0  0  0  0  0  0  0
   45.5670   32.3970   39.4410 C   0  0  0  0  0  0  0  0  0  0  0  0
   46.3920   32.7530   38.4460 C   0  0  0  0  0  0  0  0  0  0  0  0
   47.6900   33.7420   39.3610 S   0  0  0  0  0  0  0  0  0  0  0  0
   46.4130   32.5270   37.0570 N   0  0  0  0  0  0  0  0  0  0  0  0
   45.2860   32.5250   36.3680 N   0  0  0  0  0  0  0  0  0  0  0  0
   45.5260   32.2910   35.0630 C   0  0  0  0  0  0  0  0  0  0  0  0
   46.9070   32.1310   34.9060 C   0  0  0  0  0  0  0  0  0  0  0  0
   47.4050   32.2920   36.1990 C   0  0  0  0  0  0  0  0  0  0  0  0
   48.5422   35.1789   40.6124 H   0  0  0  0  0  0  0  0  0  0  0  0
   47.8829   36.2092   41.9936 H   0  0  0  0  0  0  0  0  0  0  0  0
   50.3685   36.0407   41.6624 H   0  0  0  0  0  0  0  0  0  0  0  0
   49.6012   35.7947   43.3167 H   0  0  0  0  0  0  0  0  0  0  0  0
   51.3488   34.0826   41.8075 H   0  0  0  0  0  0  0  0  0  0  0  0
   50.7613   34.0152   43.5369 H   0  0  0  0  0  0  0  0  0  0  0  0
   49.4587   32.8192   41.0807 H   0  0  0  0  0  0  0  0  0  0  0  0
   50.1324   31.9629   42.4887 H   0  0  0  0  0  0  0  0  0  0  0  0
   48.4886   33.3521   43.9384 H   0  0  0  0  0  0  0  0  0  0  0  0
   47.7328   32.1274   42.8913 H   0  0  0  0  0  0  0  0  0  0  0  0
   45.0077   33.9149   45.9878 H   0  0  0  0  0  0  0  0  0  0  0  0
   43.7505   36.0005   45.4462 H   0  0  0  0  0  0  0  0  0  0  0  0
   44.3256   37.2206   43.3143 H   0  0  0  0  0  0  0  0  0  0  0  0
   45.0866   32.4530   41.5266 H   0  0  0  0  0  0  0  0  0  0  0  0
   44.6829   31.7883   39.2005 H   0  0  0  0  0  0  0  0  0  0  0  0
   44.7716   32.2357   34.2644 H   0  0  0  0  0  0  0  0  0  0  0  0
   47.4674   31.9266   33.9818 H   0  0  0  0  0  0  0  0  0  0  0  0
   48.4689   32.2331   36.4724 H   0  0  0  0  0  0  0  0  0  0  0  0
  1  6  1  0
  1 11  1  0
  2  1  1  0
  2  3  1  0
  3  4  1  0
  5  4  1  0
  5  6  1  0
  8  7  2  0
  9  8  1  0
 10 11  1  0
 10  9  2  0
 11 12  2  0
 12  7  1  0
 13  1  1  0
 14 13  2  0
 15 14  1  0
 16 17  1  0
 16 15  2  0
 17 13  1  0
 18 16  1  0
 19 18  1  0
 20 19  2  0
 21 20  1  0
 21 22  2  0
 22 18  1  0
  2 23  1  0
  2 24  1  0
  3 25  1  0
  3 26  1  0
  4 27  1  0
  4 28  1  0
  5 29  1  0
  5 30  1  0
  6 31  1  0
  6 32  1  0
  7 33  1  0
  8 34  1  0
  9 35  1  0
 14 36  1  0
 15 37  1  0
 20 38  1  0
 21 39  1  0
 22 40  1  0
M  ISO  8  23  13  24  13  25  13  26  13  27  13  28  13  29  13  30  13
M  ISO  8  31  13  32  13  33  14  34  14  35  14  36  14  37  14  38  14
M  ISO  2  39  14  40  14
M  END
>  <minimizedAffinity>  (1) 
-5.87559175

>  <minimizedRMSD>  (1) 
0.288758963

$$$$
