
     RDKit          3D

 35 37  0  0  0  0  0  0  0  0999 V2000
   47.5700   34.1740   42.1610 C   0  0  0  0  0  0  0  0  0  0  0  0
   48.4870   35.2970   41.7690 C   0  0  0  0  0  0  0  0  0  0  0  0
   49.8190   35.2860   42.4120 C   0  0  0  0  0  0  0  0  0  0  0  0
   50.4740   33.9580   42.4840 C   0  0  0  0  0  0  0  0  0  0  0  0
   49.5820   32.8190   42.0620 C   0  0  0  0  0  0  0  0  0  0  0  0
   48.2580   33.0060   42.7870 C   0  0  0  0  0  0  0  0  0  0  0  0
   45.2790   34.4130   45.0650 C   0  0  0  0  0  0  0  0  0  0  0  0
   44.5640   35.5810   44.8020 C   0  0  0  0  0  0  0  0  0  0  0  0
   44.8690   36.2870   43.6310 C   0  0  0  0  0  0  0  0  0  0  0  0
   45.8410   35.7980   42.8160 N   0  0  0  0  0  0  0  0  0  0  0  0
   46.5160   34.6540   43.1070 C   0  0  0  0  0  0  0  0  0  0  0  0
   46.2210   33.9660   44.2460 N   0  0  0  0  0  0  0  0  0  0  0  0
   46.9040   33.6650   40.9090 C   0  0  0  0  0  0  0  0  0  0  0  0
   45.7560   32.9680   40.5680 C   0  0  0  0  0  0  0  0  0  0  0  0
   45.5430   32.7180   39.2620 C   0  0  0  0  0  0  0  0  0  0  0  0
   46.3980   33.1220   38.3070 C   0  0  0  0  0  0  0  0  0  0  0  0
   47.7220   33.9840   39.3050 S   0  0  0  0  0  0  0  0  0  0  0  0
   46.4070   32.9960   36.9490 N   0  0  0  0  0  0  0  0  0  0  0  0
   48.6360   35.2484   40.6802 H   0  0  0  0  0  0  0  0  0  0  0  0
   47.9955   36.2206   42.1088 H   0  0  0  0  0  0  0  0  0  0  0  0
   50.4770   35.9596   41.8434 H   0  0  0  0  0  0  0  0  0  0  0  0
   49.6583   35.6040   43.4527 H   0  0  0  0  0  0  0  0  0  0  0  0
   51.3563   33.9699   41.8272 H   0  0  0  0  0  0  0  0  0  0  0  0
   50.7377   33.7863   43.5380 H   0  0  0  0  0  0  0  0  0  0  0  0
   49.4247   32.8444   40.9736 H   0  0  0  0  0  0  0  0  0  0  0  0
   50.0356   31.8487   42.3125 H   0  0  0  0  0  0  0  0  0  0  0  0
   48.4377   33.2027   43.8542 H   0  0  0  0  0  0  0  0  0  0  0  0
   47.6388   32.1004   42.7067 H   0  0  0  0  0  0  0  0  0  0  0  0
   45.0546   33.8451   45.9800 H   0  0  0  0  0  0  0  0  0  0  0  0
   43.7850   35.9368   45.4923 H   0  0  0  0  0  0  0  0  0  0  0  0
   44.3349   37.2145   43.3772 H   0  0  0  0  0  0  0  0  0  0  0  0
   45.0444   32.6311   41.3362 H   0  0  0  0  0  0  0  0  0  0  0  0
   44.6392   32.1647   38.9670 H   0  0  0  0  0  0  0  0  0  0  0  0
   47.1827   33.3932   36.4001 H   0  0  0  0  0  0  0  0  0  0  0  0
   45.6381   32.5036   36.4724 H   0  0  0  0  0  0  0  0  0  0  0  0
  1  6  1  0
  1 11  1  0
  2  1  1  0
  2  3  1  0
  3  4  1  0
  5  4  1  0
  5  6  1  0
  8  7  2  0
  9  8  1  0
 10 11  1  0
 10  9  2  0
 11 12  2  0
 12  7  1  0
 13  1  1  0
 14 13  2  0
 15 14  1  0
 16 15  2  0
 16 17  1  0
 17 13  1  0
 18 16  1  0
  2 19  1  0
  2 20  1  0
  3 21  1  0
  3 22  1  0
  4 23  1  0
  4 24  1  0
  5 25  1  0
  5 26  1  0
  6 27  1  0
  6 28  1  0
  7 29  1  0
  8 30  1  0
  9 31  1  0
 14 32  1  0
 15 33  1  0
 18 34  1  0
 18 35  1  0
M  ISO  8  19  13  20  13  21  13  22  13  23  13  24  13  25  13  26  13
M  ISO  7  27  13  28  13  29  14  30  14  31  14  32  14  33  14
M  END
>  <minimizedAffinity>  (1) 
-5.5338912

>  <minimizedRMSD>  (1) 
0.0488071032

$$$$
