
     RDKit          3D

 40 43  0  0  0  0  0  0  0  0999 V2000
   47.5050   34.1520   42.2030 C   0  0  0  0  0  0  0  0  0  0  0  0
   48.3660   35.2730   41.6940 C   0  0  0  0  0  0  0  0  0  0  0  0
   49.7130   35.3690   42.2920 C   0  0  0  0  0  0  0  0  0  0  0  0
   50.4280   34.0690   42.4470 C   0  0  0  0  0  0  0  0  0  0  0  0
   49.5670   32.8560   42.1730 C   0  0  0  0  0  0  0  0  0  0  0  0
   48.2600   33.0630   42.9090 C   0  0  0  0  0  0  0  0  0  0  0  0
   45.2260   34.4880   45.1040 C   0  0  0  0  0  0  0  0  0  0  0  0
   44.5260   35.6580   44.8220 C   0  0  0  0  0  0  0  0  0  0  0  0
   44.8380   36.3210   43.6530 C   0  0  0  0  0  0  0  0  0  0  0  0
   45.7980   35.8070   42.8440 N   0  0  0  0  0  0  0  0  0  0  0  0
   46.4610   34.6680   43.1430 C   0  0  0  0  0  0  0  0  0  0  0  0
   46.1630   34.0010   44.3010 N   0  0  0  0  0  0  0  0  0  0  0  0
   46.8250   33.5130   41.0230 C   0  0  0  0  0  0  0  0  0  0  0  0
   45.7000   32.7510   40.7730 C   0  0  0  0  0  0  0  0  0  0  0  0
   45.4640   32.3790   39.5070 C   0  0  0  0  0  0  0  0  0  0  0  0
   46.2810   32.7240   38.4970 C   0  0  0  0  0  0  0  0  0  0  0  0
   47.5740   33.7050   39.3800 S   0  0  0  0  0  0  0  0  0  0  0  0
   46.3360   32.5160   37.1040 C   0  0  0  0  0  0  0  0  0  0  0  0
   47.4380   32.2800   36.3100 C   0  0  0  0  0  0  0  0  0  0  0  0
   46.9060   32.1510   35.0210 C   0  0  0  0  0  0  0  0  0  0  0  0
   45.5200   32.3190   35.1380 C   0  0  0  0  0  0  0  0  0  0  0  0
   45.2370   32.5340   36.4020 O   0  0  0  0  0  0  0  0  0  0  0  0
   48.4868   35.1402   40.6088 H   0  0  0  0  0  0  0  0  0  0  0  0
   47.8466   36.2010   41.9751 H   0  0  0  0  0  0  0  0  0  0  0  0
   50.3251   36.0208   41.6514 H   0  0  0  0  0  0  0  0  0  0  0  0
   49.5706   35.7647   43.3084 H   0  0  0  0  0  0  0  0  0  0  0  0
   51.2768   34.0557   41.7474 H   0  0  0  0  0  0  0  0  0  0  0  0
   50.7442   34.0035   43.4985 H   0  0  0  0  0  0  0  0  0  0  0  0
   49.3811   32.7613   41.0930 H   0  0  0  0  0  0  0  0  0  0  0  0
   50.0663   31.9365   42.5123 H   0  0  0  0  0  0  0  0  0  0  0  0
   48.4590   33.3592   43.9495 H   0  0  0  0  0  0  0  0  0  0  0  0
   47.6731   32.1327   42.9202 H   0  0  0  0  0  0  0  0  0  0  0  0
   44.9923   33.9447   46.0315 H   0  0  0  0  0  0  0  0  0  0  0  0
   43.7532   36.0395   45.5056 H   0  0  0  0  0  0  0  0  0  0  0  0
   44.3170   37.2509   43.3815 H   0  0  0  0  0  0  0  0  0  0  0  0
   45.0198   32.4590   41.5867 H   0  0  0  0  0  0  0  0  0  0  0  0
   44.5732   31.7720   39.2877 H   0  0  0  0  0  0  0  0  0  0  0  0
   48.4917   32.2093   36.6178 H   0  0  0  0  0  0  0  0  0  0  0  0
   47.4677   31.9556   34.0956 H   0  0  0  0  0  0  0  0  0  0  0  0
   44.7938   32.2779   34.3128 H   0  0  0  0  0  0  0  0  0  0  0  0
  1  6  1  0
  1 11  1  0
  2  1  1  0
  2  3  1  0
  3  4  1  0
  5  4  1  0
  5  6  1  0
  8  7  2  0
  9  8  1  0
 10 11  1  0
 10  9  2  0
 11 12  2  0
 12  7  1  0
 13  1  1  0
 14 13  2  0
 15 14  1  0
 16 17  1  0
 16 15  2  0
 17 13  1  0
 18 16  1  0
 19 18  2  0
 20 21  2  0
 20 19  1  0
 21 22  1  0
 22 18  1  0
  2 23  1  0
  2 24  1  0
  3 25  1  0
  3 26  1  0
  4 27  1  0
  4 28  1  0
  5 29  1  0
  5 30  1  0
  6 31  1  0
  6 32  1  0
  7 33  1  0
  8 34  1  0
  9 35  1  0
 14 36  1  0
 15 37  1  0
 19 38  1  0
 20 39  1  0
 21 40  1  0
M  ISO  8  23  13  24  13  25  13  26  13  27  13  28  13  29  13  30  13
M  ISO  8  31  13  32  13  33  14  34  14  35  14  36  14  37  14  38  14
M  ISO  2  39  14  40  14
M  END
>  <minimizedAffinity>  (1) 
-5.87043095

>  <minimizedRMSD>  (1) 
0.328750402

$$$$
