
     RDKit          3D

 36 38  0  0  0  0  0  0  0  0999 V2000
   47.5700   34.1730   42.1860 C   0  0  0  0  0  0  0  0  0  0  0  0
   48.4750   35.3040   41.7760 C   0  0  0  0  0  0  0  0  0  0  0  0
   49.8030   35.3170   42.4190 C   0  0  0  0  0  0  0  0  0  0  0  0
   50.4770   33.9830   42.4950 C   0  0  0  0  0  0  0  0  0  0  0  0
   49.5930   32.8470   42.0950 C   0  0  0  0  0  0  0  0  0  0  0  0
   48.2680   33.0290   42.8160 C   0  0  0  0  0  0  0  0  0  0  0  0
   45.2690   34.4240   45.0830 C   0  0  0  0  0  0  0  0  0  0  0  0
   44.5580   35.5910   44.8180 C   0  0  0  0  0  0  0  0  0  0  0  0
   44.8660   36.2890   43.6550 C   0  0  0  0  0  0  0  0  0  0  0  0
   45.8440   35.7950   42.8410 N   0  0  0  0  0  0  0  0  0  0  0  0
   46.5170   34.6530   43.1330 C   0  0  0  0  0  0  0  0  0  0  0  0
   46.2180   33.9740   44.2620 N   0  0  0  0  0  0  0  0  0  0  0  0
   46.9020   33.6500   40.9290 C   0  0  0  0  0  0  0  0  0  0  0  0
   45.7630   32.9470   40.6040 C   0  0  0  0  0  0  0  0  0  0  0  0
   45.5550   32.6940   39.2930 C   0  0  0  0  0  0  0  0  0  0  0  0
   46.4070   33.1030   38.3440 C   0  0  0  0  0  0  0  0  0  0  0  0
   47.7240   33.9750   39.3260 S   0  0  0  0  0  0  0  0  0  0  0  0
   46.4140   32.9640   36.8850 C   0  0  0  0  0  0  0  0  0  0  0  0
   46.3800   31.6670   36.4290 F   0  0  0  0  0  0  0  0  0  0  0  0
   45.3100   33.6630   36.4330 F   0  0  0  0  0  0  0  0  0  0  0  0
   47.5890   33.5320   36.4850 F   0  0  0  0  0  0  0  0  0  0  0  0
   48.6253   35.2411   40.6881 H   0  0  0  0  0  0  0  0  0  0  0  0
   47.9723   36.2271   42.1002 H   0  0  0  0  0  0  0  0  0  0  0  0
   50.4528   35.9966   41.8482 H   0  0  0  0  0  0  0  0  0  0  0  0
   49.6409   35.6414   43.4575 H   0  0  0  0  0  0  0  0  0  0  0  0
   51.3514   33.9958   41.8278 H   0  0  0  0  0  0  0  0  0  0  0  0
   50.7578   33.8209   43.5461 H   0  0  0  0  0  0  0  0  0  0  0  0
   49.4339   32.8591   41.0066 H   0  0  0  0  0  0  0  0  0  0  0  0
   50.0523   31.8838   42.3621 H   0  0  0  0  0  0  0  0  0  0  0  0
   48.4460   33.2384   43.8811 H   0  0  0  0  0  0  0  0  0  0  0  0
   47.6589   32.1160   42.7420 H   0  0  0  0  0  0  0  0  0  0  0  0
   45.0410   33.8562   45.9971 H   0  0  0  0  0  0  0  0  0  0  0  0
   43.7780   35.9495   45.5059 H   0  0  0  0  0  0  0  0  0  0  0  0
   44.3342   37.2168   43.3974 H   0  0  0  0  0  0  0  0  0  0  0  0
   45.0560   32.6075   41.3753 H   0  0  0  0  0  0  0  0  0  0  0  0
   44.6564   32.1337   38.9954 H   0  0  0  0  0  0  0  0  0  0  0  0
  1  6  1  0
  1 11  1  0
  2  1  1  0
  2  3  1  0
  3  4  1  0
  5  4  1  0
  5  6  1  0
  8  7  2  0
  9  8  1  0
 10 11  1  0
 10  9  2  0
 11 12  2  0
 12  7  1  0
 13  1  1  0
 14 13  2  0
 15 14  1  0
 16 15  2  0
 16 17  1  0
 17 13  1  0
 18 16  1  0
 19 18  1  0
 20 18  1  0
 21 18  1  0
  2 22  1  0
  2 23  1  0
  3 24  1  0
  3 25  1  0
  4 26  1  0
  4 27  1  0
  5 28  1  0
  5 29  1  0
  6 30  1  0
  6 31  1  0
  7 32  1  0
  8 33  1  0
  9 34  1  0
 14 35  1  0
 15 36  1  0
M  ISO  8  22  13  23  13  24  13  25  13  26  13  27  13  28  13  29  13
M  ISO  7  30  13  31  13  32  14  33  14  34  14  35  14  36  14
M  END
>  <minimizedAffinity>  (1) 
-5.85879803

>  <minimizedRMSD>  (1) 
0.0565060638

$$$$
