
     RDKit          3D

 40 43  0  0  0  0  0  0  0  0999 V2000
   47.6350   34.1940   42.1490 C   0  0  0  0  0  0  0  0  0  0  0  0
   48.5480   35.3390   41.7830 C   0  0  0  0  0  0  0  0  0  0  0  0
   49.8660   35.3330   42.4530 C   0  0  0  0  0  0  0  0  0  0  0  0
   50.5350   34.0070   42.5230 C   0  0  0  0  0  0  0  0  0  0  0  0
   49.6620   32.8700   42.0790 C   0  0  0  0  0  0  0  0  0  0  0  0
   48.3210   33.0380   42.7770 C   0  0  0  0  0  0  0  0  0  0  0  0
   45.2850   34.3970   45.0060 C   0  0  0  0  0  0  0  0  0  0  0  0
   44.5610   35.5660   44.7290 C   0  0  0  0  0  0  0  0  0  0  0  0
   44.8820   36.2750   43.5760 C   0  0  0  0  0  0  0  0  0  0  0  0
   45.8760   35.7990   42.7800 N   0  0  0  0  0  0  0  0  0  0  0  0
   46.5590   34.6630   43.0750 C   0  0  0  0  0  0  0  0  0  0  0  0
   46.2490   33.9660   44.2020 N   0  0  0  0  0  0  0  0  0  0  0  0
   47.0010   33.6960   40.8750 C   0  0  0  0  0  0  0  0  0  0  0  0
   45.8440   33.0340   40.4990 C   0  0  0  0  0  0  0  0  0  0  0  0
   45.6870   32.7870   39.1780 C   0  0  0  0  0  0  0  0  0  0  0  0
   46.5880   33.1540   38.2580 C   0  0  0  0  0  0  0  0  0  0  0  0
   47.8850   33.9720   39.3020 S   0  0  0  0  0  0  0  0  0  0  0  0
   46.7140   33.0430   36.8340 C   0  0  0  0  0  0  0  0  0  0  0  0
   47.2360   31.7030   36.2740 C   0  0  0  0  0  0  0  0  0  0  0  0
   48.0120   32.9570   36.1240 C   0  0  0  0  0  0  0  0  0  0  0  0
   48.7184   35.3044   40.6968 H   0  0  0  0  0  0  0  0  0  0  0  0
   48.0391   36.2543   42.1194 H   0  0  0  0  0  0  0  0  0  0  0  0
   50.5287   36.0200   41.9063 H   0  0  0  0  0  0  0  0  0  0  0  0
   49.6805   35.6364   43.4939 H   0  0  0  0  0  0  0  0  0  0  0  0
   51.4267   34.0328   41.8793 H   0  0  0  0  0  0  0  0  0  0  0  0
   50.7865   33.8277   43.5787 H   0  0  0  0  0  0  0  0  0  0  0  0
   49.5263   32.9021   40.9879 H   0  0  0  0  0  0  0  0  0  0  0  0
   50.1184   31.9024   42.3348 H   0  0  0  0  0  0  0  0  0  0  0  0
   48.4766   33.2302   43.8488 H   0  0  0  0  0  0  0  0  0  0  0  0
   47.7145   32.1257   42.6772 H   0  0  0  0  0  0  0  0  0  0  0  0
   45.0476   33.8224   45.9134 H   0  0  0  0  0  0  0  0  0  0  0  0
   43.7635   35.9117   45.4031 H   0  0  0  0  0  0  0  0  0  0  0  0
   44.3445   37.1985   43.3146 H   0  0  0  0  0  0  0  0  0  0  0  0
   45.0901   32.7244   41.2377 H   0  0  0  0  0  0  0  0  0  0  0  0
   44.7796   32.2618   38.8453 H   0  0  0  0  0  0  0  0  0  0  0  0
   45.8406   33.7013   36.7168 H   0  0  0  0  0  0  0  0  0  0  0  0
   47.5839   30.9149   36.9580 H   0  0  0  0  0  0  0  0  0  0  0  0
   46.8485   30.9322   35.5915 H   0  0  0  0  0  0  0  0  0  0  0  0
   48.9479   33.0862   36.6875 H   0  0  0  0  0  0  0  0  0  0  0  0
   48.4448   33.4860   35.2621 H   0  0  0  0  0  0  0  0  0  0  0  0
  1  6  1  0
  1 11  1  0
  2  1  1  0
  2  3  1  0
  3  4  1  0
  5  4  1  0
  5  6  1  0
  8  7  2  0
  9  8  1  0
 10 11  1  0
 10  9  2  0
 11 12  2  0
 12  7  1  0
 13  1  1  0
 14 13  2  0
 15 14  1  0
 16 15  2  0
 16 17  1  0
 17 13  1  0
 18 16  1  0
 19 18  1  0
 20 19  1  0
 20 18  1  0
  2 21  1  0
  2 22  1  0
  3 23  1  0
  3 24  1  0
  4 25  1  0
  4 26  1  0
  5 27  1  0
  5 28  1  0
  6 29  1  0
  6 30  1  0
  7 31  1  0
  8 32  1  0
  9 33  1  0
 14 34  1  0
 15 35  1  0
 18 36  1  0
 19 37  1  0
 19 38  1  0
 20 39  1  0
 20 40  1  0
M  ISO  8  21  13  22  13  23  13  24  13  25  13  26  13  27  13  28  13
M  ISO  8  29  13  30  13  31  14  32  14  33  14  34  14  35  14  36  13
M  ISO  4  37  13  38  13  39  13  40  13
M  END
>  <minimizedAffinity>  (1) 
-5.62460852

>  <minimizedRMSD>  (1) 
0.411503494

$$$$
