
     RDKit          3D

 27 29  0  0  0  0  0  0  0  0999 V2000
   47.1160   34.5160   41.3730 C   0  0  0  0  0  0  0  0  0  0  0  0
   48.3870   34.9580   41.0780 C   0  0  0  0  0  0  0  0  0  0  0  0
   48.7000   34.6430   39.8180 N   0  0  0  0  0  0  0  0  0  0  0  0
   47.6410   34.0000   39.2920 C   0  0  0  0  0  0  0  0  0  0  0  0
   47.4500   33.4670   38.0280 C   0  0  0  0  0  0  0  0  0  0  0  0
   46.2580   32.8550   37.7490 C   0  0  0  0  0  0  0  0  0  0  0  0
   45.1980   32.7200   38.6460 C   0  0  0  0  0  0  0  0  0  0  0  0
   45.4570   33.2740   39.8870 C   0  0  0  0  0  0  0  0  0  0  0  0
   46.6140   33.8980   40.2440 C   0  0  0  0  0  0  0  0  0  0  0  0
   44.8270   35.8420   44.0150 C   0  0  0  0  0  0  0  0  0  0  0  0
   45.5120   35.7120   42.7960 C   0  0  0  0  0  0  0  0  0  0  0  0
   46.4010   34.6590   42.6350 C   0  0  0  0  0  0  0  0  0  0  0  0
   46.5800   33.7780   43.6810 N   0  0  0  0  0  0  0  0  0  0  0  0
   45.8960   33.9430   44.8400 C   0  0  0  0  0  0  0  0  0  0  0  0
   45.0260   34.9600   45.0170 N   0  0  0  0  0  0  0  0  0  0  0  0
   49.2650   35.6650   42.0030 C   0  0  0  0  0  0  0  0  0  0  0  0
   49.4700   36.9000   41.8840 O   0  0  0  0  0  0  0  0  0  0  0  0
   49.9170   35.0510   43.0480 O   0  0  0  0  0  0  0  0  0  0  0  0
   49.5869   34.8531   39.3382 H   0  0  0  0  0  0  0  0  0  0  0  0
   48.2393   33.5341   37.2648 H   0  0  0  0  0  0  0  0  0  0  0  0
   46.1256   32.4375   36.7400 H   0  0  0  0  0  0  0  0  0  0  0  0
   44.2504   32.2225   38.3918 H   0  0  0  0  0  0  0  0  0  0  0  0
   44.6646   33.2050   40.6468 H   0  0  0  0  0  0  0  0  0  0  0  0
   44.1197   36.6727   44.1549 H   0  0  0  0  0  0  0  0  0  0  0  0
   45.3465   36.4332   41.9821 H   0  0  0  0  0  0  0  0  0  0  0  0
   46.0546   33.2272   45.6601 H   0  0  0  0  0  0  0  0  0  0  0  0
   50.5020   35.5804   43.6460 H   0  0  0  0  0  0  0  0  0  0  0  0
  1 12  1  0
  2  1  2  0
  2 16  1  0
  3  2  1  0
  4  3  1  0
  4  9  2  0
  5  4  1  0
  6  5  2  0
  6  7  1  0
  7  8  2  0
  8  9  1  0
  9  1  1  0
 10 15  2  0
 11 10  1  0
 12 11  2  0
 12 13  1  0
 13 14  2  0
 14 15  1  0
 16 18  1  0
 17 16  2  0
  3 19  1  0
  5 20  1  0
  6 21  1  0
  7 22  1  0
  8 23  1  0
 10 24  1  0
 11 25  1  0
 14 26  1  0
 18 27  1  0
M  ISO  8  19   9  20  14  21  14  22  14  23  14  24  14  25  14  26  14
M  ISO  1  27   3
M  END
>  <minimizedAffinity>  (1) 
-5.83674288

>  <minimizedRMSD>  (1) 
0.813708663

$$$$
