
     RDKit          3D

 35 37  0  0  0  0  0  0  0  0999 V2000
   47.5560   34.1740   42.1670 C   0  0  0  0  0  0  0  0  0  0  0  0
   48.4790   35.3080   41.7730 C   0  0  0  0  0  0  0  0  0  0  0  0
   49.8130   35.3020   42.4060 C   0  0  0  0  0  0  0  0  0  0  0  0
   50.4740   33.9600   42.4780 C   0  0  0  0  0  0  0  0  0  0  0  0
   49.5860   32.8210   42.0740 C   0  0  0  0  0  0  0  0  0  0  0  0
   48.2540   33.0050   42.7980 C   0  0  0  0  0  0  0  0  0  0  0  0
   45.2800   34.4140   45.0760 C   0  0  0  0  0  0  0  0  0  0  0  0
   44.5620   35.5950   44.8070 C   0  0  0  0  0  0  0  0  0  0  0  0
   44.8660   36.2850   43.6490 C   0  0  0  0  0  0  0  0  0  0  0  0
   45.8360   35.7870   42.8400 N   0  0  0  0  0  0  0  0  0  0  0  0
   46.5190   34.6450   43.1150 C   0  0  0  0  0  0  0  0  0  0  0  0
   46.2200   33.9680   44.2530 N   0  0  0  0  0  0  0  0  0  0  0  0
   46.8990   33.6590   40.9140 C   0  0  0  0  0  0  0  0  0  0  0  0
   45.7650   32.9590   40.5700 C   0  0  0  0  0  0  0  0  0  0  0  0
   45.5420   32.6940   39.2760 C   0  0  0  0  0  0  0  0  0  0  0  0
   46.3990   33.0970   38.3190 C   0  0  0  0  0  0  0  0  0  0  0  0
   47.6980   33.9610   39.3180 S   0  0  0  0  0  0  0  0  0  0  0  0
   46.4950   33.0030   36.8670 C   0  0  0  0  0  0  0  0  0  0  0  0
   45.4540   33.0050   36.1970 O   0  0  0  0  0  0  0  0  0  0  0  0
   48.6226   35.2629   40.6833 H   0  0  0  0  0  0  0  0  0  0  0  0
   47.9873   36.2278   42.1225 H   0  0  0  0  0  0  0  0  0  0  0  0
   50.4667   35.9738   41.8304 H   0  0  0  0  0  0  0  0  0  0  0  0
   49.6608   35.6257   43.4462 H   0  0  0  0  0  0  0  0  0  0  0  0
   51.3495   33.9693   41.8120 H   0  0  0  0  0  0  0  0  0  0  0  0
   50.7451   33.7945   43.5311 H   0  0  0  0  0  0  0  0  0  0  0  0
   49.4279   32.8347   40.9855 H   0  0  0  0  0  0  0  0  0  0  0  0
   50.0439   31.8568   42.3399 H   0  0  0  0  0  0  0  0  0  0  0  0
   48.4309   33.2044   43.8652 H   0  0  0  0  0  0  0  0  0  0  0  0
   47.6395   32.0963   42.7162 H   0  0  0  0  0  0  0  0  0  0  0  0
   45.0558   33.8470   45.9916 H   0  0  0  0  0  0  0  0  0  0  0  0
   43.7845   35.9565   45.4961 H   0  0  0  0  0  0  0  0  0  0  0  0
   44.3361   37.2133   43.3895 H   0  0  0  0  0  0  0  0  0  0  0  0
   45.0564   32.6240   41.3418 H   0  0  0  0  0  0  0  0  0  0  0  0
   44.6391   32.1350   38.9891 H   0  0  0  0  0  0  0  0  0  0  0  0
   47.4763   32.9315   36.3751 H   0  0  0  0  0  0  0  0  0  0  0  0
  1  6  1  0
  1 11  1  0
  2  1  1  0
  2  3  1  0
  3  4  1  0
  5  4  1  0
  5  6  1  0
  8  7  2  0
  9  8  1  0
 10 11  1  0
 10  9  2  0
 11 12  2  0
 12  7  1  0
 13  1  1  0
 14 13  2  0
 15 14  1  0
 16 15  2  0
 16 17  1  0
 17 13  1  0
 18 16  1  0
 19 18  2  0
  2 20  1  0
  2 21  1  0
  3 22  1  0
  3 23  1  0
  4 24  1  0
  4 25  1  0
  5 26  1  0
  5 27  1  0
  6 28  1  0
  6 29  1  0
  7 30  1  0
  8 31  1  0
  9 32  1  0
 14 33  1  0
 15 34  1  0
 18 35  1  0
M  ISO  8  20  13  21  13  22  13  23  13  24  13  25  13  26  13  27  13
M  ISO  8  28  13  29  13  30  14  31  14  32  14  33  14  34  14  35   6
M  END
>  <minimizedAffinity>  (1) 
-5.50013399

>  <minimizedRMSD>  (1) 
0.152839765

$$$$
