
     RDKit          3D

 41 42  0  0  0  0  0  0  0  0999 V2000
   46.4910   32.3680   38.1720 C   0  0  0  0  0  0  0  0  0  0  0  0
   45.8220   34.4290   41.1230 C   0  0  0  0  0  0  0  0  0  0  0  0
   47.0780   34.8490   41.5150 C   0  0  0  0  0  0  0  0  0  0  0  0
   48.2080   34.4380   40.7740 C   0  0  0  0  0  0  0  0  0  0  0  0
   47.9820   33.6330   39.6950 N   0  0  0  0  0  0  0  0  0  0  0  0
   46.7290   33.2440   39.3470 C   0  0  0  0  0  0  0  0  0  0  0  0
   45.6810   33.6380   40.0510 N   0  0  0  0  0  0  0  0  0  0  0  0
   44.6820   34.8620   41.8940 C   0  0  0  0  0  0  0  0  0  0  0  0
   43.8360   35.6640   41.3630 O   0  0  0  0  0  0  0  0  0  0  0  0
   44.5520   34.3750   43.2160 O   0  0  0  0  0  0  0  0  0  0  0  0
   45.0450   35.1630   44.2710 C   0  0  0  0  0  0  0  0  0  0  0  0
   44.1440   35.3510   45.2910 F   0  0  0  0  0  0  0  0  0  0  0  0
   46.1870   34.5880   44.7820 F   0  0  0  0  0  0  0  0  0  0  0  0
   45.3100   36.4200   43.7330 F   0  0  0  0  0  0  0  0  0  0  0  0
   45.7030   31.1500   38.4950 C   0  0  0  0  0  0  0  0  0  0  0  0
   45.8030   33.1720   37.1170 C   0  0  0  0  0  0  0  0  0  0  0  0
   47.8630   31.9590   37.6530 C   0  0  0  0  0  0  0  0  0  0  0  0
   47.9010   31.8790   36.1840 C   0  0  0  0  0  0  0  0  0  0  0  0
   47.5900   30.6720   35.5620 C   0  0  0  0  0  0  0  0  0  0  0  0
   47.7050   30.8840   34.1960 C   0  0  0  0  0  0  0  0  0  0  0  0
   48.0730   32.1770   34.0200 N   0  0  0  0  0  0  0  0  0  0  0  0
   48.1830   32.7440   35.1840 N   0  0  0  0  0  0  0  0  0  0  0  0
   48.3200   32.8810   32.7610 C   0  0  0  0  0  0  0  0  0  0  0  0
   49.7710   33.2000   32.5400 C   0  0  0  0  0  0  0  0  0  0  0  0
   47.1971   35.4972   42.3957 H   0  0  0  0  0  0  0  0  0  0  0  0
   49.2243   34.7524   41.0538 H   0  0  0  0  0  0  0  0  0  0  0  0
   45.6310   31.0387   39.5870 H   0  0  0  0  0  0  0  0  0  0  0  0
   44.6933   31.2427   38.0685 H   0  0  0  0  0  0  0  0  0  0  0  0
   46.2015   30.2670   38.0685 H   0  0  0  0  0  0  0  0  0  0  0  0
   45.1581   33.9256   37.5926 H   0  0  0  0  0  0  0  0  0  0  0  0
   46.5546   33.6751   36.4909 H   0  0  0  0  0  0  0  0  0  0  0  0
   45.1898   32.5072   36.4909 H   0  0  0  0  0  0  0  0  0  0  0  0
   48.6034   32.7010   37.9865 H   0  0  0  0  0  0  0  0  0  0  0  0
   48.0903   30.9592   38.0514 H   0  0  0  0  0  0  0  0  0  0  0  0
   47.3076   29.7319   36.0584 H   0  0  0  0  0  0  0  0  0  0  0  0
   47.5302   30.1416   33.4034 H   0  0  0  0  0  0  0  0  0  0  0  0
   47.9702   32.2487   31.9317 H   0  0  0  0  0  0  0  0  0  0  0  0
   47.7771   33.8366   32.8072 H   0  0  0  0  0  0  0  0  0  0  0  0
   50.2742   33.3106   33.5119 H   0  0  0  0  0  0  0  0  0  0  0  0
   50.2436   32.3843   31.9731 H   0  0  0  0  0  0  0  0  0  0  0  0
   49.8579   34.1387   31.9731 H   0  0  0  0  0  0  0  0  0  0  0  0
  1 15  1  0
  1  6  1  0
  2  3  2  0
  2  8  1  0
  4  3  1  0
  5  4  2  0
  6  5  1  0
  6  7  2  0
  7  2  1  0
  8 10  1  0
  9  8  2  0
 10 11  1  0
 11 13  1  0
 11 12  1  0
 14 11  1  0
 16  1  1  0
 17  1  1  0
 18 17  1  0
 19 18  1  0
 20 19  2  0
 21 20  1  0
 21 22  1  0
 22 18  2  0
 23 21  1  0
 24 23  1  0
  3 25  1  0
  4 26  1  0
 15 27  1  0
 15 28  1  0
 15 29  1  0
 16 30  1  0
 16 31  1  0
 16 32  1  0
 17 33  1  0
 17 34  1  0
 19 35  1  0
 20 36  1  0
 23 37  1  0
 23 38  1  0
 24 39  1  0
 24 40  1  0
 24 41  1  0
M  ISO  8  25  14  26  14  27   8  28   8  29   8  30   8  31   8  32   8
M  ISO  8  33   8  34   8  35  14  36  14  37   8  38   8  39   8  40   8
M  ISO  1  41   8
M  END
>  <minimizedAffinity>  (1) 
-4.67563629

>  <minimizedRMSD>  (1) 
1.87890017

$$$$
