
     RDKit          3D

 34 37  0  0  0  0  0  0  0  0999 V2000
   45.2400   33.8010   40.8850 C   0  0  0  0  0  0  0  0  0  0  0  0
   45.9630   34.3780   41.9150 C   0  0  0  0  0  0  0  0  0  0  0  0
   47.2040   34.6470   41.5040 N   0  0  0  0  0  0  0  0  0  0  0  0
   47.2970   34.2520   40.2150 C   0  0  0  0  0  0  0  0  0  0  0  0
   48.3650   34.3160   39.3410 C   0  0  0  0  0  0  0  0  0  0  0  0
   48.1850   33.8430   38.0670 C   0  0  0  0  0  0  0  0  0  0  0  0
   46.9980   33.2930   37.5760 C   0  0  0  0  0  0  0  0  0  0  0  0
   45.9770   33.2600   38.5020 C   0  0  0  0  0  0  0  0  0  0  0  0
   46.0820   33.7150   39.7940 C   0  0  0  0  0  0  0  0  0  0  0  0
   41.5480   33.7060   40.3760 C   0  0  0  0  0  0  0  0  0  0  0  0
   42.8820   34.1460   40.3340 C   0  0  0  0  0  0  0  0  0  0  0  0
   43.8610   33.3570   40.9220 C   0  0  0  0  0  0  0  0  0  0  0  0
   43.4720   32.1830   41.5150 N   0  0  0  0  0  0  0  0  0  0  0  0
   42.1760   31.7920   41.5340 C   0  0  0  0  0  0  0  0  0  0  0  0
   41.2130   32.5390   40.9740 N   0  0  0  0  0  0  0  0  0  0  0  0
   45.5100   34.6780   43.2680 C   0  0  0  0  0  0  0  0  0  0  0  0
   44.8220   35.8060   43.6600 C   0  0  0  0  0  0  0  0  0  0  0  0
   44.4250   36.0230   44.9630 C   0  0  0  0  0  0  0  0  0  0  0  0
   44.7310   35.0580   45.9260 C   0  0  0  0  0  0  0  0  0  0  0  0
   45.4210   33.9260   45.5420 C   0  0  0  0  0  0  0  0  0  0  0  0
   45.8050   33.7290   44.2530 C   0  0  0  0  0  0  0  0  0  0  0  0
   47.9529   35.0765   42.0658 H   0  0  0  0  0  0  0  0  0  0  0  0
   49.3317   34.7343   39.6582 H   0  0  0  0  0  0  0  0  0  0  0  0
   49.0408   33.9009   37.3783 H   0  0  0  0  0  0  0  0  0  0  0  0
   46.8884   32.9210   36.5466 H   0  0  0  0  0  0  0  0  0  0  0  0
   45.0112   32.8402   38.1842 H   0  0  0  0  0  0  0  0  0  0  0  0
   40.7617   34.3214   39.9144 H   0  0  0  0  0  0  0  0  0  0  0  0
   43.1448   35.0958   39.8454 H   0  0  0  0  0  0  0  0  0  0  0  0
   41.9072   30.8419   42.0188 H   0  0  0  0  0  0  0  0  0  0  0  0
   44.5793   36.5652   42.9019 H   0  0  0  0  0  0  0  0  0  0  0  0
   43.8786   36.9371   45.2384 H   0  0  0  0  0  0  0  0  0  0  0  0
   44.4268   35.1983   46.9737 H   0  0  0  0  0  0  0  0  0  0  0  0
   45.6661   33.1648   46.2973 H   0  0  0  0  0  0  0  0  0  0  0  0
   46.3530   32.8146   43.9816 H   0  0  0  0  0  0  0  0  0  0  0  0
  1 12  1  0
  1  2  2  0
  2 16  1  0
  3  2  1  0
  4  3  1  0
  5  4  2  0
  6  5  1  0
  7  6  2  0
  7  8  1  0
  8  9  2  0
  9  4  1  0
  9  1  1  0
 10 15  2  0
 11 10  1  0
 11 12  2  0
 12 13  1  0
 13 14  2  0
 15 14  1  0
 16 17  2  0
 16 21  1  0
 17 18  1  0
 18 19  2  0
 20 19  1  0
 21 20  2  0
  3 22  1  0
  5 23  1  0
  6 24  1  0
  7 25  1  0
  8 26  1  0
 10 27  1  0
 11 28  1  0
 14 29  1  0
 17 30  1  0
 18 31  1  0
 19 32  1  0
 20 33  1  0
 21 34  1  0
M  ISO  8  22   9  23  14  24  14  25  14  26  14  27  14  28  14  29  14
M  ISO  5  30  14  31  14  32  14  33  14  34  14
M  END
>  <minimizedAffinity>  (1) 
-5.48566532

>  <minimizedRMSD>  (1) 
4.1010623

$$$$
