
     RDKit          3D

 27 29  0  0  0  0  0  0  0  0999 V2000
   47.1500   34.6470   41.4760 C   0  0  0  0  0  0  0  0  0  0  0  0
   48.4120   35.1260   41.2050 C   0  0  0  0  0  0  0  0  0  0  0  0
   48.7610   34.8390   39.9480 N   0  0  0  0  0  0  0  0  0  0  0  0
   47.7310   34.1740   39.3920 C   0  0  0  0  0  0  0  0  0  0  0  0
   47.5750   33.6520   38.1190 C   0  0  0  0  0  0  0  0  0  0  0  0
   46.4070   33.0110   37.8080 C   0  0  0  0  0  0  0  0  0  0  0  0
   45.3360   32.8340   38.6840 C   0  0  0  0  0  0  0  0  0  0  0  0
   45.5560   33.3760   39.9350 C   0  0  0  0  0  0  0  0  0  0  0  0
   46.6960   34.0320   40.3230 C   0  0  0  0  0  0  0  0  0  0  0  0
   44.7780   35.8510   44.0870 C   0  0  0  0  0  0  0  0  0  0  0  0
   45.4830   35.7760   42.8680 C   0  0  0  0  0  0  0  0  0  0  0  0
   46.4060   34.7500   42.7230 C   0  0  0  0  0  0  0  0  0  0  0  0
   46.5900   33.8610   43.7600 N   0  0  0  0  0  0  0  0  0  0  0  0
   45.8850   33.9780   44.9110 C   0  0  0  0  0  0  0  0  0  0  0  0
   44.9850   34.9600   45.0830 N   0  0  0  0  0  0  0  0  0  0  0  0
   49.2500   35.8640   42.2150 C   0  0  0  0  0  0  0  0  0  0  0  0
   49.6512   35.0811   39.4900 H   0  0  0  0  0  0  0  0  0  0  0  0
   48.3757   33.7509   37.3713 H   0  0  0  0  0  0  0  0  0  0  0  0
   46.3048   32.6047   36.7909 H   0  0  0  0  0  0  0  0  0  0  0  0
   44.4075   32.3139   38.4057 H   0  0  0  0  0  0  0  0  0  0  0  0
   44.7528   33.2733   40.6795 H   0  0  0  0  0  0  0  0  0  0  0  0
   44.0410   36.6547   44.2314 H   0  0  0  0  0  0  0  0  0  0  0  0
   45.3078   36.5038   42.0620 H   0  0  0  0  0  0  0  0  0  0  0  0
   46.0532   33.2536   45.7216 H   0  0  0  0  0  0  0  0  0  0  0  0
   48.9320   35.5839   43.2301 H   0  0  0  0  0  0  0  0  0  0  0  0
   50.3087   35.5996   42.0764 H   0  0  0  0  0  0  0  0  0  0  0  0
   49.1215   36.9476   42.0764 H   0  0  0  0  0  0  0  0  0  0  0  0
  1 12  1  0
  2  1  2  0
  2 16  1  0
  3  2  1  0
  4  3  1  0
  4  9  2  0
  5  4  1  0
  6  5  2  0
  6  7  1  0
  7  8  2  0
  8  9  1  0
  9  1  1  0
 10 15  2  0
 11 10  1  0
 12 11  2  0
 12 13  1  0
 13 14  2  0
 14 15  1  0
  3 17  1  0
  5 18  1  0
  6 19  1  0
  7 20  1  0
  8 21  1  0
 10 22  1  0
 11 23  1  0
 14 24  1  0
 16 25  1  0
 16 26  1  0
 16 27  1  0
M  ISO  8  17   9  18  14  19  14  20  14  21  14  22  14  23  14  24  14
M  ISO  3  25   8  26   8  27   8
M  END
>  <minimizedAffinity>  (1) 
-5.45303106

>  <minimizedRMSD>  (1) 
0.591843903

$$$$
