
     RDKit          3D

 25 27  0  0  0  0  0  0  0  0999 V2000
   47.3050   34.7920   41.7620 C   0  0  0  0  0  0  0  0  0  0  0  0
   48.5570   35.3420   41.5960 C   0  0  0  0  0  0  0  0  0  0  0  0
   48.9700   35.1180   40.3330 N   0  0  0  0  0  0  0  0  0  0  0  0
   47.9990   34.4330   39.6980 C   0  0  0  0  0  0  0  0  0  0  0  0
   47.9550   33.9700   38.3880 C   0  0  0  0  0  0  0  0  0  0  0  0
   46.8270   33.2900   37.9960 C   0  0  0  0  0  0  0  0  0  0  0  0
   45.7290   33.0300   38.8070 C   0  0  0  0  0  0  0  0  0  0  0  0
   45.8430   33.5200   40.0930 C   0  0  0  0  0  0  0  0  0  0  0  0
   46.9320   34.2080   40.5680 C   0  0  0  0  0  0  0  0  0  0  0  0
   44.7190   35.7810   44.2760 C   0  0  0  0  0  0  0  0  0  0  0  0
   45.4970   35.7750   43.1040 C   0  0  0  0  0  0  0  0  0  0  0  0
   46.4900   34.8060   42.9780 C   0  0  0  0  0  0  0  0  0  0  0  0
   46.6640   33.9100   43.9890 N   0  0  0  0  0  0  0  0  0  0  0  0
   45.8880   33.9500   45.1090 C   0  0  0  0  0  0  0  0  0  0  0  0
   44.9280   34.8720   45.2530 N   0  0  0  0  0  0  0  0  0  0  0  0
   49.2730   36.0240   42.5840 O   0  0  0  0  0  0  0  0  0  0  0  0
   49.8676   35.4170   39.9258 H   0  0  0  0  0  0  0  0  0  0  0  0
   48.7900   34.1412   37.6927 H   0  0  0  0  0  0  0  0  0  0  0  0
   46.7904   32.9230   36.9597 H   0  0  0  0  0  0  0  0  0  0  0  0
   44.8438   32.4803   38.4544 H   0  0  0  0  0  0  0  0  0  0  0  0
   45.0044   33.3474   40.7837 H   0  0  0  0  0  0  0  0  0  0  0  0
   43.9292   36.5367   44.3986 H   0  0  0  0  0  0  0  0  0  0  0  0
   45.3260   36.5153   42.3086 H   0  0  0  0  0  0  0  0  0  0  0  0
   46.0534   33.2123   45.9080 H   0  0  0  0  0  0  0  0  0  0  0  0
   50.1703   36.3899   42.3815 H   0  0  0  0  0  0  0  0  0  0  0  0
  1 12  1  0
  2  1  2  0
  2 16  1  0
  3  2  1  0
  4  3  1  0
  4  9  2  0
  5  4  1  0
  6  5  2  0
  6  7  1  0
  7  8  2  0
  8  9  1  0
  9  1  1  0
 10 15  2  0
 11 10  1  0
 12 11  2  0
 12 13  1  0
 13 14  2  0
 14 15  1  0
  3 17  1  0
  5 18  1  0
  6 19  1  0
  7 20  1  0
  8 21  1  0
 10 22  1  0
 11 23  1  0
 14 24  1  0
 16 25  1  0
M  ISO  8  17   9  18  14  19  14  20  14  21  14  22  14  23  14  24  14
M  ISO  1  25   3
M  END
>  <minimizedAffinity>  (1) 
-5.4735384

>  <minimizedRMSD>  (1) 
0.231879324

$$$$
