
     RDKit          3D

 26 28  0  0  0  0  0  0  0  0999 V2000
   47.2320   34.7430   41.7600 C   0  0  0  0  0  0  0  0  0  0  0  0
   48.5300   35.2300   41.5950 C   0  0  0  0  0  0  0  0  0  0  0  0
   48.9390   34.9750   40.3430 N   0  0  0  0  0  0  0  0  0  0  0  0
   47.9420   34.3390   39.7040 C   0  0  0  0  0  0  0  0  0  0  0  0
   47.8640   33.8640   38.4070 C   0  0  0  0  0  0  0  0  0  0  0  0
   46.7110   33.2450   38.0100 C   0  0  0  0  0  0  0  0  0  0  0  0
   45.5850   33.0470   38.8170 C   0  0  0  0  0  0  0  0  0  0  0  0
   45.7300   33.5430   40.0940 C   0  0  0  0  0  0  0  0  0  0  0  0
   46.8430   34.1720   40.5690 C   0  0  0  0  0  0  0  0  0  0  0  0
   44.7200   35.9270   44.2530 C   0  0  0  0  0  0  0  0  0  0  0  0
   45.4970   35.8690   43.0730 C   0  0  0  0  0  0  0  0  0  0  0  0
   46.4220   34.8160   42.9730 C   0  0  0  0  0  0  0  0  0  0  0  0
   46.5370   33.9070   43.9920 N   0  0  0  0  0  0  0  0  0  0  0  0
   45.7560   34.0270   45.0970 C   0  0  0  0  0  0  0  0  0  0  0  0
   44.8560   35.0190   45.2380 N   0  0  0  0  0  0  0  0  0  0  0  0
   49.3140   35.8930   42.5730 N   0  0  0  0  0  0  0  0  0  0  0  0
   49.8549   35.2227   39.9423 H   0  0  0  0  0  0  0  0  0  0  0  0
   48.7086   33.9813   37.7122 H   0  0  0  0  0  0  0  0  0  0  0  0
   46.6651   32.8738   36.9756 H   0  0  0  0  0  0  0  0  0  0  0  0
   44.6721   32.5438   38.4656 H   0  0  0  0  0  0  0  0  0  0  0  0
   44.8821   33.4223   40.7843 H   0  0  0  0  0  0  0  0  0  0  0  0
   43.9841   36.7363   44.3695 H   0  0  0  0  0  0  0  0  0  0  0  0
   45.3827   36.6132   42.2711 H   0  0  0  0  0  0  0  0  0  0  0  0
   45.8624   33.2881   45.9049 H   0  0  0  0  0  0  0  0  0  0  0  0
   50.2655   36.2119   42.3408 H   0  0  0  0  0  0  0  0  0  0  0  0
   48.9320   36.0557   43.5156 H   0  0  0  0  0  0  0  0  0  0  0  0
  1 12  1  0
  2  1  2  0
  2 16  1  0
  3  2  1  0
  4  3  1  0
  4  9  2  0
  5  4  1  0
  6  5  2  0
  6  7  1  0
  7  8  2  0
  8  9  1  0
  9  1  1  0
 10 15  2  0
 11 10  1  0
 12 11  2  0
 12 13  1  0
 13 14  2  0
 14 15  1  0
  3 17  1  0
  5 18  1  0
  6 19  1  0
  7 20  1  0
  8 21  1  0
 10 22  1  0
 11 23  1  0
 14 24  1  0
 16 25  1  0
 16 26  1  0
M  ISO  8  17   9  18  14  19  14  20  14  21  14  22  14  23  14  24  14
M  END
>  <minimizedAffinity>  (1) 
-5.485816

>  <minimizedRMSD>  (1) 
0.282787293

$$$$
