
     RDKit          3D

 37 39  0  0  0  0  0  0  0  0999 V2000
   47.0990   34.5250   41.1470 C   0  0  0  0  0  0  0  0  0  0  0  0
   48.3520   35.0300   40.8380 C   0  0  0  0  0  0  0  0  0  0  0  0
   48.6580   34.7540   39.5760 N   0  0  0  0  0  0  0  0  0  0  0  0
   47.6110   34.0700   39.0570 C   0  0  0  0  0  0  0  0  0  0  0  0
   47.4250   33.5490   37.7860 C   0  0  0  0  0  0  0  0  0  0  0  0
   46.2490   32.8860   37.5210 C   0  0  0  0  0  0  0  0  0  0  0  0
   45.2160   32.6910   38.4320 C   0  0  0  0  0  0  0  0  0  0  0  0
   45.4670   33.2360   39.6800 C   0  0  0  0  0  0  0  0  0  0  0  0
   46.6080   33.9060   40.0170 C   0  0  0  0  0  0  0  0  0  0  0  0
   44.8850   35.8060   43.8780 C   0  0  0  0  0  0  0  0  0  0  0  0
   45.5560   35.7210   42.6440 C   0  0  0  0  0  0  0  0  0  0  0  0
   46.3970   34.6200   42.4300 C   0  0  0  0  0  0  0  0  0  0  0  0
   46.5350   33.6820   43.4120 N   0  0  0  0  0  0  0  0  0  0  0  0
   45.8540   33.8250   44.5880 C   0  0  0  0  0  0  0  0  0  0  0  0
   45.0430   34.8710   44.8180 N   0  0  0  0  0  0  0  0  0  0  0  0
   49.2100   35.7600   41.7890 C   0  0  0  0  0  0  0  0  0  0  0  0
   49.7920   34.8580   42.8320 C   0  0  0  0  0  0  0  0  0  0  0  0
   50.8180   34.0400   42.2290 N   0  0  0  0  0  0  0  0  0  0  0  0
   50.5650   32.6290   42.4320 C   0  0  0  0  0  0  0  0  0  0  0  0
   49.3730   32.1770   42.6220 N   0  0  0  0  0  0  0  0  0  0  0  0
   51.6700   31.6990   42.4200 N   0  0  0  0  0  0  0  0  0  0  0  0
   49.2460   31.1550   42.7630 H   0  0  0  0  0  0  0  0  0  0  0  0
   49.5263   35.0111   39.0852 H   0  0  0  0  0  0  0  0  0  0  0  0
   48.1967   33.6626   37.0104 H   0  0  0  0  0  0  0  0  0  0  0  0
   46.1150   32.4777   36.5084 H   0  0  0  0  0  0  0  0  0  0  0  0
   44.2879   32.1548   38.1845 H   0  0  0  0  0  0  0  0  0  0  0  0
   44.6935   33.1212   40.4536 H   0  0  0  0  0  0  0  0  0  0  0  0
   44.2178   36.6588   44.0718 H   0  0  0  0  0  0  0  0  0  0  0  0
   45.4248   36.4936   41.8721 H   0  0  0  0  0  0  0  0  0  0  0  0
   45.9735   33.0606   45.3699 H   0  0  0  0  0  0  0  0  0  0  0  0
   50.0316   36.2347   41.2326 H   0  0  0  0  0  0  0  0  0  0  0  0
   48.5872   36.5093   42.2996 H   0  0  0  0  0  0  0  0  0  0  0  0
   50.2302   35.4630   43.6395 H   0  0  0  0  0  0  0  0  0  0  0  0
   49.0026   34.2154   43.2490 H   0  0  0  0  0  0  0  0  0  0  0  0
   51.6299   34.4143   41.7175 H   0  0  0  0  0  0  0  0  0  0  0  0
   51.4985   30.6936   42.5636 H   0  0  0  0  0  0  0  0  0  0  0  0
   52.6295   32.0412   42.2678 H   0  0  0  0  0  0  0  0  0  0  0  0
  1 12  1  0
  2  1  2  0
  2 16  1  0
  3  2  1  0
  4  3  1  0
  4  9  2  0
  5  4  1  0
  6  5  2  0
  6  7  1  0
  7  8  2  0
  8  9  1  0
  9  1  1  0
 10 15  2  0
 11 10  1  0
 12 11  2  0
 12 13  1  0
 13 14  2  0
 14 15  1  0
 16 17  1  0
 18 19  1  0
 18 17  1  0
 19 20  2  0
 20 22  1  0
 21 19  1  0
  3 23  1  0
  5 24  1  0
  6 25  1  0
  7 26  1  0
  8 27  1  0
 10 28  1  0
 11 29  1  0
 14 30  1  0
 16 31  1  0
 16 32  1  0
 17 33  1  0
 17 34  1  0
 18 35  1  0
 21 36  1  0
 21 37  1  0
M  ISO  8  23   9  24  14  25  14  26  14  27  14  28  14  29  14  30  14
M  ISO  4  31   8  32   8  33   8  34   8
M  END
>  <minimizedAffinity>  (1) 
-6.0098772

>  <minimizedRMSD>  (1) 
0.489489168

$$$$
