
     RDKit          3D

 43 46  0  0  0  0  0  0  0  0999 V2000
   46.6810   34.4390   41.4370 C   0  0  0  0  0  0  0  0  0  0  0  0
   48.0060   34.5900   41.1430 C   0  0  0  0  0  0  0  0  0  0  0  0
   48.2390   34.1830   39.8830 N   0  0  0  0  0  0  0  0  0  0  0  0
   47.0600   33.7700   39.3680 C   0  0  0  0  0  0  0  0  0  0  0  0
   46.7450   33.2630   38.1220 C   0  0  0  0  0  0  0  0  0  0  0  0
   45.4500   32.9190   37.8600 C   0  0  0  0  0  0  0  0  0  0  0  0
   44.3900   33.0390   38.7650 C   0  0  0  0  0  0  0  0  0  0  0  0
   44.7800   33.5530   39.9890 C   0  0  0  0  0  0  0  0  0  0  0  0
   46.0440   33.9180   40.3270 C   0  0  0  0  0  0  0  0  0  0  0  0
   44.7670   36.2680   44.0750 C   0  0  0  0  0  0  0  0  0  0  0  0
   45.3980   35.9850   42.8430 C   0  0  0  0  0  0  0  0  0  0  0  0
   46.0180   34.7630   42.6990 C   0  0  0  0  0  0  0  0  0  0  0  0
   45.9920   33.8770   43.7620 N   0  0  0  0  0  0  0  0  0  0  0  0
   45.3730   34.1980   44.9220 C   0  0  0  0  0  0  0  0  0  0  0  0
   44.7620   35.3800   45.0880 N   0  0  0  0  0  0  0  0  0  0  0  0
   49.0290   35.1180   42.0610 C   0  0  0  0  0  0  0  0  0  0  0  0
   49.4620   34.0640   43.0580 C   0  0  0  0  0  0  0  0  0  0  0  0
   49.9170   32.8460   42.4610 N   0  0  0  0  0  0  0  0  0  0  0  0
   51.0480   32.8150   41.7000 C   0  0  0  0  0  0  0  0  0  0  0  0
   51.4810   31.6470   41.1280 C   0  0  0  0  0  0  0  0  0  0  0  0
   52.6910   31.4990   40.2850 C   0  0  0  0  0  0  0  0  0  0  0  0
   50.7370   30.4820   41.3430 C   0  0  0  0  0  0  0  0  0  0  0  0
   51.0650   29.3640   40.8530 O   0  0  0  0  0  0  0  0  0  0  0  0
   49.6130   30.4900   42.0940 N   0  0  0  0  0  0  0  0  0  0  0  0
   49.2600   31.6790   42.6170 C   0  0  0  0  0  0  0  0  0  0  0  0
   48.2030   31.7020   43.3260 O   0  0  0  0  0  0  0  0  0  0  0  0
   49.1484   34.1855   39.3995 H   0  0  0  0  0  0  0  0  0  0  0  0
   47.5235   33.1387   37.3549 H   0  0  0  0  0  0  0  0  0  0  0  0
   45.2229   32.5170   36.8616 H   0  0  0  0  0  0  0  0  0  0  0  0
   43.3542   32.7543   38.5282 H   0  0  0  0  0  0  0  0  0  0  0  0
   43.9994   33.6767   40.7541 H   0  0  0  0  0  0  0  0  0  0  0  0
   44.2670   37.2384   44.2105 H   0  0  0  0  0  0  0  0  0  0  0  0
   45.3944   36.7184   42.0232 H   0  0  0  0  0  0  0  0  0  0  0  0
   45.3711   33.4719   45.7483 H   0  0  0  0  0  0  0  0  0  0  0  0
   49.9034   35.4411   41.4771 H   0  0  0  0  0  0  0  0  0  0  0  0
   48.5986   35.9662   42.6136 H   0  0  0  0  0  0  0  0  0  0  0  0
   50.2809   34.4782   43.6646 H   0  0  0  0  0  0  0  0  0  0  0  0
   48.5748   33.8111   43.6571 H   0  0  0  0  0  0  0  0  0  0  0  0
   51.6212   33.7406   41.5428 H   0  0  0  0  0  0  0  0  0  0  0  0
   53.5759   31.3908   40.9294 H   0  0  0  0  0  0  0  0  0  0  0  0
   52.5885   30.6067   39.6499 H   0  0  0  0  0  0  0  0  0  0  0  0
   52.8066   32.3897   39.6499 H   0  0  0  0  0  0  0  0  0  0  0  0
   49.0594   29.6367   42.2564 H   0  0  0  0  0  0  0  0  0  0  0  0
  1 12  1  0
  2  1  2  0
  2 16  1  0
  3  2  1  0
  4  3  1  0
  4  9  2  0
  5  4  1  0
  6  5  2  0
  6  7  1  0
  7  8  2  0
  8  9  1  0
  9  1  1  0
 10 15  2  0
 11 10  1  0
 12 11  2  0
 12 13  1  0
 13 14  2  0
 14 15  1  0
 16 17  1  0
 18 25  1  0
 18 17  1  0
 19 18  1  0
 20 22  1  0
 20 19  2  0
 21 20  1  0
 22 24  1  0
 23 22  2  0
 24 25  1  0
 25 26  2  0
  3 27  1  0
  5 28  1  0
  6 29  1  0
  7 30  1  0
  8 31  1  0
 10 32  1  0
 11 33  1  0
 14 34  1  0
 16 35  1  0
 16 36  1  0
 17 37  1  0
 17 38  1  0
 19 39  1  0
 21 40  1  0
 21 41  1  0
 21 42  1  0
 24 43  1  0
M  ISO  8  27   9  28  14  29  14  30  14  31  14  32  14  33  14  34  14
M  ISO  8  35   8  36   8  37   8  38   8  39  14  40   8  41   8  42   8
M  ISO  1  43   9
M  END
>  <minimizedAffinity>  (1) 
-5.63861179

>  <minimizedRMSD>  (1) 
1.90892482

$$$$
