
     RDKit          3D

 46 50  0  0  0  0  0  0  0  0999 V2000
   46.2500   34.4170   41.5260 C   0  0  0  0  0  0  0  0  0  0  0  0
   47.5510   34.5740   41.0810 C   0  0  0  0  0  0  0  0  0  0  0  0
   47.6730   34.0940   39.8440 N   0  0  0  0  0  0  0  0  0  0  0  0
   46.4710   33.6280   39.4810 C   0  0  0  0  0  0  0  0  0  0  0  0
   46.0490   33.0290   38.3010 C   0  0  0  0  0  0  0  0  0  0  0  0
   44.7350   32.6400   38.1920 C   0  0  0  0  0  0  0  0  0  0  0  0
   43.7740   32.7970   39.1810 C   0  0  0  0  0  0  0  0  0  0  0  0
   44.2420   33.3960   40.3310 C   0  0  0  0  0  0  0  0  0  0  0  0
   45.5410   33.8120   40.5130 C   0  0  0  0  0  0  0  0  0  0  0  0
   44.6810   36.4760   44.2280 C   0  0  0  0  0  0  0  0  0  0  0  0
   45.2020   36.1100   42.9700 C   0  0  0  0  0  0  0  0  0  0  0  0
   45.7070   34.8120   42.8200 C   0  0  0  0  0  0  0  0  0  0  0  0
   45.6730   33.9580   43.9000 N   0  0  0  0  0  0  0  0  0  0  0  0
   45.1590   34.3730   45.0850 C   0  0  0  0  0  0  0  0  0  0  0  0
   44.6650   35.6210   45.2530 N   0  0  0  0  0  0  0  0  0  0  0  0
   48.6390   35.1990   41.8960 C   0  0  0  0  0  0  0  0  0  0  0  0
   49.0640   34.2630   43.0120 C   0  0  0  0  0  0  0  0  0  0  0  0
   49.6500   33.0150   42.5290 C   0  0  0  0  0  0  0  0  0  0  0  0
   50.8490   33.0790   41.8100 C   0  0  0  0  0  0  0  0  0  0  0  0
   51.4140   31.8870   41.3680 C   0  0  0  0  0  0  0  0  0  0  0  0
   50.8520   30.6330   41.6010 C   0  0  0  0  0  0  0  0  0  0  0  0
   49.6550   30.5800   42.3190 C   0  0  0  0  0  0  0  0  0  0  0  0
   49.0350   29.3840   42.5870 C   0  0  0  0  0  0  0  0  0  0  0  0
   47.8540   29.2900   43.2850 C   0  0  0  0  0  0  0  0  0  0  0  0
   47.2730   30.4610   43.7340 C   0  0  0  0  0  0  0  0  0  0  0  0
   47.9070   31.6590   43.4580 C   0  0  0  0  0  0  0  0  0  0  0  0
   49.0910   31.7770   42.7620 C   0  0  0  0  0  0  0  0  0  0  0  0
   48.5308   34.0833   39.2739 H   0  0  0  0  0  0  0  0  0  0  0  0
   46.7522   32.8691   37.4703 H   0  0  0  0  0  0  0  0  0  0  0  0
   44.4213   32.1683   37.2491 H   0  0  0  0  0  0  0  0  0  0  0  0
   42.7304   32.4719   39.0580 H   0  0  0  0  0  0  0  0  0  0  0  0
   43.5314   33.5514   41.1562 H   0  0  0  0  0  0  0  0  0  0  0  0
   44.2782   37.4900   44.3681 H   0  0  0  0  0  0  0  0  0  0  0  0
   45.2116   36.8222   42.1317 H   0  0  0  0  0  0  0  0  0  0  0  0
   45.1435   33.6740   45.9342 H   0  0  0  0  0  0  0  0  0  0  0  0
   49.5033   35.4078   41.2484 H   0  0  0  0  0  0  0  0  0  0  0  0
   48.2640   36.1345   42.3366 H   0  0  0  0  0  0  0  0  0  0  0  0
   49.8082   34.7794   43.6361 H   0  0  0  0  0  0  0  0  0  0  0  0
   48.1585   33.9995   43.5783 H   0  0  0  0  0  0  0  0  0  0  0  0
   51.3313   34.0451   41.6002 H   0  0  0  0  0  0  0  0  0  0  0  0
   52.3566   31.9370   40.8033 H   0  0  0  0  0  0  0  0  0  0  0  0
   51.3348   29.7161   41.2319 H   0  0  0  0  0  0  0  0  0  0  0  0
   49.5055   28.4575   42.2262 H   0  0  0  0  0  0  0  0  0  0  0  0
   47.3864   28.3136   43.4799 H   0  0  0  0  0  0  0  0  0  0  0  0
   46.3286   30.4407   44.2976 H   0  0  0  0  0  0  0  0  0  0  0  0
   47.4326   32.5832   43.8196 H   0  0  0  0  0  0  0  0  0  0  0  0
  1 12  1  0
  2  1  2  0
  2 16  1  0
  3  2  1  0
  4  3  1  0
  4  9  2  0
  5  4  1  0
  6  5  2  0
  6  7  1  0
  7  8  2  0
  8  9  1  0
  9  1  1  0
 10 15  2  0
 11 10  1  0
 12 11  2  0
 12 13  1  0
 13 14  2  0
 14 15  1  0
 16 17  1  0
 18 27  1  0
 18 17  1  0
 19 18  2  0
 20 21  2  0
 20 19  1  0
 21 22  1  0
 22 23  1  0
 22 27  2  0
 23 24  2  0
 24 25  1  0
 26 25  2  0
 27 26  1  0
  3 28  1  0
  5 29  1  0
  6 30  1  0
  7 31  1  0
  8 32  1  0
 10 33  1  0
 11 34  1  0
 14 35  1  0
 16 36  1  0
 16 37  1  0
 17 38  1  0
 17 39  1  0
 19 40  1  0
 20 41  1  0
 21 42  1  0
 23 43  1  0
 24 44  1  0
 25 45  1  0
 26 46  1  0
M  ISO  8  28   9  29  14  30  14  31  14  32  14  33  14  34  14  35  14
M  ISO  8  36   8  37   8  38   8  39   8  40  14  41  14  42  14  43  14
M  ISO  3  44  14  45  14  46  14
M  END
>  <minimizedAffinity>  (1) 
-5.78136444

>  <minimizedRMSD>  (1) 
2.17792225

$$$$
