
     RDKit          3D

 41 45  0  0  0  0  0  0  0  0999 V2000
   46.6970   34.4940   41.3870 C   0  0  0  0  0  0  0  0  0  0  0  0
   48.0120   34.7560   41.0560 C   0  0  0  0  0  0  0  0  0  0  0  0
   48.2510   34.3500   39.8040 N   0  0  0  0  0  0  0  0  0  0  0  0
   47.1040   33.8270   39.3220 C   0  0  0  0  0  0  0  0  0  0  0  0
   46.8260   33.2720   38.0820 C   0  0  0  0  0  0  0  0  0  0  0  0
   45.5460   32.8070   37.8530 C   0  0  0  0  0  0  0  0  0  0  0  0
   44.5110   32.8520   38.7700 C   0  0  0  0  0  0  0  0  0  0  0  0
   44.8540   33.4160   39.9850 C   0  0  0  0  0  0  0  0  0  0  0  0
   46.0880   33.8970   40.2920 C   0  0  0  0  0  0  0  0  0  0  0  0
   44.7600   36.2640   44.0420 C   0  0  0  0  0  0  0  0  0  0  0  0
   45.3950   36.0030   42.8190 C   0  0  0  0  0  0  0  0  0  0  0  0
   46.0310   34.7810   42.6540 C   0  0  0  0  0  0  0  0  0  0  0  0
   46.0190   33.8740   43.6870 N   0  0  0  0  0  0  0  0  0  0  0  0
   45.3880   34.1790   44.8520 C   0  0  0  0  0  0  0  0  0  0  0  0
   44.7640   35.3630   45.0310 N   0  0  0  0  0  0  0  0  0  0  0  0
   48.9910   35.3900   41.9580 C   0  0  0  0  0  0  0  0  0  0  0  0
   49.4620   34.4240   43.0180 C   0  0  0  0  0  0  0  0  0  0  0  0
   49.9500   33.1910   42.5020 N   0  0  0  0  0  0  0  0  0  0  0  0
   51.1580   33.0260   41.9270 C   0  0  0  0  0  0  0  0  0  0  0  0
   51.3900   31.7800   41.5220 N   0  0  0  0  0  0  0  0  0  0  0  0
   50.2990   31.0710   41.8330 C   0  0  0  0  0  0  0  0  0  0  0  0
   49.9010   29.7550   41.6900 C   0  0  0  0  0  0  0  0  0  0  0  0
   48.6780   29.3460   42.1320 N   0  0  0  0  0  0  0  0  0  0  0  0
   47.8300   30.2310   42.7220 C   0  0  0  0  0  0  0  0  0  0  0  0
   48.1930   31.5370   42.8780 N   0  0  0  0  0  0  0  0  0  0  0  0
   49.4200   31.9390   42.4330 C   0  0  0  0  0  0  0  0  0  0  0  0
   49.1464   34.4231   39.3001 H   0  0  0  0  0  0  0  0  0  0  0  0
   47.6013   33.2042   37.3046 H   0  0  0  0  0  0  0  0  0  0  0  0
   45.3333   32.3677   36.8672 H   0  0  0  0  0  0  0  0  0  0  0  0
   43.5022   32.4719   38.5514 H   0  0  0  0  0  0  0  0  0  0  0  0
   44.0735   33.4800   40.7575 H   0  0  0  0  0  0  0  0  0  0  0  0
   44.2494   37.2269   44.1907 H   0  0  0  0  0  0  0  0  0  0  0  0
   45.3889   36.7488   42.0105 H   0  0  0  0  0  0  0  0  0  0  0  0
   45.3857   33.4428   45.6693 H   0  0  0  0  0  0  0  0  0  0  0  0
   49.8568   35.7261   41.3686 H   0  0  0  0  0  0  0  0  0  0  0  0
   48.5055   36.2429   42.4549 H   0  0  0  0  0  0  0  0  0  0  0  0
   50.2704   34.9042   43.5889 H   0  0  0  0  0  0  0  0  0  0  0  0
   48.5878   34.1844   43.6411 H   0  0  0  0  0  0  0  0  0  0  0  0
   51.8832   33.8439   41.8042 H   0  0  0  0  0  0  0  0  0  0  0  0
   50.5782   29.0302   41.2146 H   0  0  0  0  0  0  0  0  0  0  0  0
   46.8452   29.8916   43.0756 H   0  0  0  0  0  0  0  0  0  0  0  0
  1 12  1  0
  2  1  2  0
  2 16  1  0
  3  2  1  0
  4  3  1  0
  4  9  2  0
  5  4  1  0
  6  5  2  0
  6  7  1  0
  7  8  2  0
  8  9  1  0
  9  1  1  0
 10 15  2  0
 11 10  1  0
 12 11  2  0
 12 13  1  0
 13 14  2  0
 14 15  1  0
 16 17  1  0
 18 17  1  0
 19 18  1  0
 20 21  1  0
 20 19  2  0
 21 26  2  0
 22 21  1  0
 22 23  2  0
 23 24  1  0
 24 25  2  0
 26 18  1  0
 26 25  1  0
  3 27  1  0
  5 28  1  0
  6 29  1  0
  7 30  1  0
  8 31  1  0
 10 32  1  0
 11 33  1  0
 14 34  1  0
 16 35  1  0
 16 36  1  0
 17 37  1  0
 17 38  1  0
 19 39  1  0
 22 40  1  0
 24 41  1  0
M  ISO  8  27   9  28  14  29  14  30  14  31  14  32  14  33  14  34  14
M  ISO  7  35   8  36   8  37   8  38   8  39  14  40  14  41  14
M  END
>  <minimizedAffinity>  (1) 
-5.56173468

>  <minimizedRMSD>  (1) 
1.52442908

$$$$
