
     RDKit          3D

 41 44  0  0  0  0  0  0  0  0999 V2000
   45.9120   34.3980   41.4820 C   0  0  0  0  0  0  0  0  0  0  0  0
   47.1810   34.5100   40.9370 C   0  0  0  0  0  0  0  0  0  0  0  0
   47.1720   34.0240   39.6880 N   0  0  0  0  0  0  0  0  0  0  0  0
   45.9190   33.6020   39.4210 C   0  0  0  0  0  0  0  0  0  0  0  0
   45.3990   33.0280   38.2820 C   0  0  0  0  0  0  0  0  0  0  0  0
   44.0660   32.6890   38.2840 C   0  0  0  0  0  0  0  0  0  0  0  0
   43.1930   32.8780   39.3460 C   0  0  0  0  0  0  0  0  0  0  0  0
   43.7810   33.4570   40.4510 C   0  0  0  0  0  0  0  0  0  0  0  0
   45.0860   33.8220   40.5390 C   0  0  0  0  0  0  0  0  0  0  0  0
   44.6500   36.5040   44.3020 C   0  0  0  0  0  0  0  0  0  0  0  0
   45.0540   36.1170   43.0080 C   0  0  0  0  0  0  0  0  0  0  0  0
   45.4910   34.8080   42.8190 C   0  0  0  0  0  0  0  0  0  0  0  0
   45.5090   33.9600   43.8910 N   0  0  0  0  0  0  0  0  0  0  0  0
   45.1100   34.3810   45.1180 C   0  0  0  0  0  0  0  0  0  0  0  0
   44.6840   35.6330   45.3300 N   0  0  0  0  0  0  0  0  0  0  0  0
   48.3460   35.0780   41.6410 C   0  0  0  0  0  0  0  0  0  0  0  0
   48.7150   34.2670   42.8450 C   0  0  0  0  0  0  0  0  0  0  0  0
   49.1720   32.9500   42.6050 N   0  0  0  0  0  0  0  0  0  0  0  0
   48.3010   31.9380   42.6770 C   0  0  0  0  0  0  0  0  0  0  0  0
   48.7020   30.6190   42.4480 C   0  0  0  0  0  0  0  0  0  0  0  0
   50.0340   30.4320   42.1470 C   0  0  0  0  0  0  0  0  0  0  0  0
   50.4420   29.0920   41.9140 N   0  0  0  0  0  0  0  0  0  0  0  0
   50.9260   31.4330   42.0680 N   0  0  0  0  0  0  0  0  0  0  0  0
   50.4770   32.7010   42.3020 C   0  0  0  0  0  0  0  0  0  0  0  0
   51.3310   33.6340   42.2240 O   0  0  0  0  0  0  0  0  0  0  0  0
   47.9772   33.9806   39.0472 H   0  0  0  0  0  0  0  0  0  0  0  0
   46.0295   32.8465   37.3991 H   0  0  0  0  0  0  0  0  0  0  0  0
   43.6592   32.2312   37.3702 H   0  0  0  0  0  0  0  0  0  0  0  0
   42.1313   32.5927   39.3099 H   0  0  0  0  0  0  0  0  0  0  0  0
   43.1435   33.6371   41.3291 H   0  0  0  0  0  0  0  0  0  0  0  0
   44.3016   37.5329   44.4754 H   0  0  0  0  0  0  0  0  0  0  0  0
   45.0249   36.8294   42.1704 H   0  0  0  0  0  0  0  0  0  0  0  0
   45.1372   33.6750   45.9611 H   0  0  0  0  0  0  0  0  0  0  0  0
   49.2025   35.1020   40.9512 H   0  0  0  0  0  0  0  0  0  0  0  0
   48.0826   36.0915   41.9777 H   0  0  0  0  0  0  0  0  0  0  0  0
   49.5125   34.8051   43.3784 H   0  0  0  0  0  0  0  0  0  0  0  0
   47.7809   34.1510   43.4143 H   0  0  0  0  0  0  0  0  0  0  0  0
   47.2491   32.1476   42.9211 H   0  0  0  0  0  0  0  0  0  0  0  0
   47.9951   29.7781   42.5047 H   0  0  0  0  0  0  0  0  0  0  0  0
   51.4246   28.8854   41.6844 H   0  0  0  0  0  0  0  0  0  0  0  0
   49.7554   28.3267   41.9746 H   0  0  0  0  0  0  0  0  0  0  0  0
  1 12  1  0
  2  1  2  0
  2 16  1  0
  3  2  1  0
  4  3  1  0
  4  9  2  0
  5  6  2  0
  5  4  1  0
  6  7  1  0
  7  8  2  0
  8  9  1  0
  9  1  1  0
 10 15  2  0
 11 10  1  0
 12 11  2  0
 12 13  1  0
 13 14  2  0
 14 15  1  0
 16 17  1  0
 18 19  1  0
 18 17  1  0
 20 19  2  0
 21 20  1  0
 22 21  1  0
 23 21  2  0
 23 24  1  0
 24 18  1  0
 25 24  2  0
  3 26  1  0
  5 27  1  0
  6 28  1  0
  7 29  1  0
  8 30  1  0
 10 31  1  0
 11 32  1  0
 14 33  1  0
 16 34  1  0
 16 35  1  0
 17 36  1  0
 17 37  1  0
 19 38  1  0
 20 39  1  0
 22 40  1  0
 22 41  1  0
M  ISO  8  26   9  27  14  28  14  29  14  30  14  31  14  32  14  33  14
M  ISO  6  34   8  35   8  36   8  37   8  38  14  39  14
M  END
>  <minimizedAffinity>  (1) 
-5.43004465

>  <minimizedRMSD>  (1) 
2.30292749

$$$$
