
     RDKit          3D

 45 49  0  0  1  0  0  0  0  0999 V2000
   46.9540   34.5520   41.3700 C   0  0  0  0  0  0  0  0  0  0  0  0
   48.2330   34.9740   41.0460 C   0  0  0  0  0  0  0  0  0  0  0  0
   48.5030   34.6620   39.7850 N   0  0  0  0  0  0  0  0  0  0  0  0
   47.4280   34.0460   39.2800 C   0  0  0  0  0  0  0  0  0  0  0  0
   47.1870   33.5200   38.0130 C   0  0  0  0  0  0  0  0  0  0  0  0
   45.9830   32.9340   37.7550 C   0  0  0  0  0  0  0  0  0  0  0  0
   44.9600   32.8160   38.6680 C   0  0  0  0  0  0  0  0  0  0  0  0
   45.2390   33.3510   39.9140 C   0  0  0  0  0  0  0  0  0  0  0  0
   46.4210   33.9530   40.2470 C   0  0  0  0  0  0  0  0  0  0  0  0
   44.7670   35.9050   44.0760 C   0  0  0  0  0  0  0  0  0  0  0  0
   45.4190   35.7870   42.8430 C   0  0  0  0  0  0  0  0  0  0  0  0
   46.2600   34.6960   42.6530 C   0  0  0  0  0  0  0  0  0  0  0  0
   46.4250   33.7760   43.6680 N   0  0  0  0  0  0  0  0  0  0  0  0
   45.7570   33.9540   44.8470 C   0  0  0  0  0  0  0  0  0  0  0  0
   44.9400   34.9980   45.0550 N   0  0  0  0  0  0  0  0  0  0  0  0
   49.1300   35.6620   41.9880 C   0  0  0  0  0  0  0  0  0  0  0  0
   50.0510   34.7070   42.6970 C   0  0  0  0  0  0  0  0  0  0  0  0
   50.3590   33.4700   41.9180 C   0  0  1  0  0  0  0  0  0  0  0  0
   50.9200   32.2690   42.5280 C   0  0  0  0  0  0  0  0  0  0  0  0
   49.4630   32.2580   42.2870 C   0  0  2  0  0  0  0  0  0  0  0  0
   49.0470   31.3760   41.1510 C   0  0  0  0  0  0  0  0  0  0  0  0
   47.9520   30.5400   41.2320 C   0  0  0  0  0  0  0  0  0  0  0  0
   47.6680   29.7750   40.1190 C   0  0  0  0  0  0  0  0  0  0  0  0
   48.3990   29.8020   38.9700 N   0  0  0  0  0  0  0  0  0  0  0  0
   49.4630   30.6390   38.9410 C   0  0  0  0  0  0  0  0  0  0  0  0
   49.7720   31.4080   40.0180 N   0  0  0  0  0  0  0  0  0  0  0  0
   49.3818   34.8586   39.2850 H   0  0  0  0  0  0  0  0  0  0  0  0
   47.9580   33.5766   37.2305 H   0  0  0  0  0  0  0  0  0  0  0  0
   45.8179   32.5271   36.7465 H   0  0  0  0  0  0  0  0  0  0  0  0
   43.9998   32.3362   38.4275 H   0  0  0  0  0  0  0  0  0  0  0  0
   44.4588   33.2877   40.6869 H   0  0  0  0  0  0  0  0  0  0  0  0
   44.0969   36.7600   44.2489 H   0  0  0  0  0  0  0  0  0  0  0  0
   45.2707   36.5339   42.0492 H   0  0  0  0  0  0  0  0  0  0  0  0
   45.8936   33.2170   45.6521 H   0  0  0  0  0  0  0  0  0  0  0  0
   49.7366   36.3913   41.4310 H   0  0  0  0  0  0  0  0  0  0  0  0
   48.5067   36.1564   42.7476 H   0  0  0  0  0  0  0  0  0  0  0  0
   50.9965   35.2288   42.9059 H   0  0  0  0  0  0  0  0  0  0  0  0
   49.5335   34.3861   43.6131 H   0  0  0  0  0  0  0  0  0  0  0  0
   50.6586   34.0526   41.0343 H   0  0  0  0  0  0  0  0  0  0  0  0
   51.5704   31.6139   41.9298 H   0  0  0  0  0  0  0  0  0  0  0  0
   51.5387   32.0944   43.4206 H   0  0  0  0  0  0  0  0  0  0  0  0
   48.5476   32.1161   42.8802 H   0  0  0  0  0  0  0  0  0  0  0  0
   47.3347   30.4859   42.1408 H   0  0  0  0  0  0  0  0  0  0  0  0
   46.7985   29.1026   40.1624 H   0  0  0  0  0  0  0  0  0  0  0  0
   50.0844   30.6972   38.0352 H   0  0  0  0  0  0  0  0  0  0  0  0
  1 12  1  0
  2  1  2  0
  2 16  1  0
  3  2  1  0
  4  3  1  0
  4  9  2  0
  5  4  1  0
  6  5  2  0
  6  7  1  0
  7  8  2  0
  8  9  1  0
  9  1  1  0
 10 15  2  0
 11 10  1  0
 12 11  2  0
 12 13  1  0
 13 14  2  0
 14 15  1  0
 16 17  1  0
 18 20  1  0
 18 19  1  0
 18 17  1  0
 20 19  1  0
 21 22  2  0
 21 20  1  0
 23 22  1  0
 24 23  2  0
 25 24  1  0
 25 26  2  0
 26 21  1  0
  3 27  1  0
  5 28  1  0
  6 29  1  0
  7 30  1  0
  8 31  1  0
 10 32  1  0
 11 33  1  0
 14 34  1  0
 16 35  1  0
 16 36  1  0
 17 37  1  0
 17 38  1  0
 18 39  1  6
 19 40  1  0
 19 41  1  0
 20 42  1  1
 22 43  1  0
 23 44  1  0
 25 45  1  0
M  ISO  8  27   9  28  14  29  14  30  14  31  14  32  14  33  14  34  14
M  ISO  8  35   8  36   8  37   8  38   8  39  13  40  13  41  13  42  13
M  ISO  3  43  14  44  14  45  14
M  END
>  <minimizedAffinity>  (1) 
-5.88199282

>  <minimizedRMSD>  (1) 
0.418749779

$$$$
