
     RDKit          3D

 44 48  0  0  1  0  0  0  0  0999 V2000
   46.9530   34.5300   41.3670 C   0  0  0  0  0  0  0  0  0  0  0  0
   48.2390   34.9560   41.0380 C   0  0  0  0  0  0  0  0  0  0  0  0
   48.5030   34.6530   39.7830 N   0  0  0  0  0  0  0  0  0  0  0  0
   47.4280   34.0390   39.2730 C   0  0  0  0  0  0  0  0  0  0  0  0
   47.1820   33.5200   38.0040 C   0  0  0  0  0  0  0  0  0  0  0  0
   45.9750   32.9310   37.7350 C   0  0  0  0  0  0  0  0  0  0  0  0
   44.9560   32.8120   38.6590 C   0  0  0  0  0  0  0  0  0  0  0  0
   45.2280   33.3370   39.9150 C   0  0  0  0  0  0  0  0  0  0  0  0
   46.4290   33.9400   40.2340 C   0  0  0  0  0  0  0  0  0  0  0  0
   44.7790   35.8960   44.0740 C   0  0  0  0  0  0  0  0  0  0  0  0
   45.4340   35.7690   42.8380 C   0  0  0  0  0  0  0  0  0  0  0  0
   46.2690   34.6690   42.6510 C   0  0  0  0  0  0  0  0  0  0  0  0
   46.4260   33.7580   43.6590 N   0  0  0  0  0  0  0  0  0  0  0  0
   45.7630   33.9410   44.8320 C   0  0  0  0  0  0  0  0  0  0  0  0
   44.9480   34.9880   45.0510 N   0  0  0  0  0  0  0  0  0  0  0  0
   49.1450   35.6430   41.9840 C   0  0  0  0  0  0  0  0  0  0  0  0
   50.0930   34.6850   42.6480 C   0  0  0  0  0  0  0  0  0  0  0  0
   50.2920   33.4070   41.8990 C   0  0  1  0  0  0  0  0  0  0  0  0
   50.9280   32.2230   42.4850 C   0  0  0  0  0  0  0  0  0  0  0  0
   49.4520   32.2230   42.4420 C   0  0  2  0  0  0  0  0  0  0  0  0
   48.8560   31.3130   41.4170 C   0  0  0  0  0  0  0  0  0  0  0  0
   49.4540   30.7460   40.3090 C   0  0  0  0  0  0  0  0  0  0  0  0
   48.5260   29.9710   39.6380 C   0  0  0  0  0  0  0  0  0  0  0  0
   47.3970   30.1090   40.3820 C   0  0  0  0  0  0  0  0  0  0  0  0
   47.6330   30.8970   41.4060 O   0  0  0  0  0  0  0  0  0  0  0  0
   49.3809   34.8531   39.2829 H   0  0  0  0  0  0  0  0  0  0  0  0
   47.9530   33.5828   37.2220 H   0  0  0  0  0  0  0  0  0  0  0  0
   45.8079   32.5297   36.7246 H   0  0  0  0  0  0  0  0  0  0  0  0
   43.9952   32.3343   38.4167 H   0  0  0  0  0  0  0  0  0  0  0  0
   44.4518   33.2697   40.6915 H   0  0  0  0  0  0  0  0  0  0  0  0
   44.1145   36.7555   44.2461 H   0  0  0  0  0  0  0  0  0  0  0  0
   45.2922   36.5149   42.0420 H   0  0  0  0  0  0  0  0  0  0  0  0
   45.8990   33.2018   45.6352 H   0  0  0  0  0  0  0  0  0  0  0  0
   49.7280   36.3966   41.4343 H   0  0  0  0  0  0  0  0  0  0  0  0
   48.5296   36.1109   42.7665 H   0  0  0  0  0  0  0  0  0  0  0  0
   51.0695   35.1808   42.7511 H   0  0  0  0  0  0  0  0  0  0  0  0
   49.6477   34.4186   43.6179 H   0  0  0  0  0  0  0  0  0  0  0  0
   50.4736   33.9461   40.9575 H   0  0  0  0  0  0  0  0  0  0  0  0
   51.4870   31.5333   41.8355 H   0  0  0  0  0  0  0  0  0  0  0  0
   51.6610   32.0800   43.2926 H   0  0  0  0  0  0  0  0  0  0  0  0
   48.6309   32.1116   43.1655 H   0  0  0  0  0  0  0  0  0  0  0  0
   50.5024   30.8883   40.0079 H   0  0  0  0  0  0  0  0  0  0  0  0
   48.6679   29.3823   38.7197 H   0  0  0  0  0  0  0  0  0  0  0  0
   46.4308   29.6324   40.1599 H   0  0  0  0  0  0  0  0  0  0  0  0
  1 12  1  0
  2  1  2  0
  2 16  1  0
  3  2  1  0
  4  3  1  0
  4  9  2  0
  5  4  1  0
  6  5  2  0
  6  7  1  0
  7  8  2  0
  8  9  1  0
  9  1  1  0
 10 15  2  0
 11 10  1  0
 12 11  2  0
 12 13  1  0
 13 14  2  0
 14 15  1  0
 16 17  1  0
 18 20  1  0
 18 19  1  0
 18 17  1  0
 20 19  1  0
 21 20  1  0
 22 21  2  0
 23 22  1  0
 23 24  2  0
 24 25  1  0
 25 21  1  0
  3 26  1  0
  5 27  1  0
  6 28  1  0
  7 29  1  0
  8 30  1  0
 10 31  1  0
 11 32  1  0
 14 33  1  0
 16 34  1  0
 16 35  1  0
 17 36  1  0
 17 37  1  0
 18 38  1  6
 19 39  1  0
 19 40  1  0
 20 41  1  1
 22 42  1  0
 23 43  1  0
 24 44  1  0
M  ISO  8  26   9  27  14  28  14  29  14  30  14  31  14  32  14  33  14
M  ISO  8  34   8  35   8  36   8  37   8  38  13  39  13  40  13  41  13
M  ISO  3  42  14  43  14  44  14
M  END
>  <minimizedAffinity>  (1) 
-5.79556131

>  <minimizedRMSD>  (1) 
0.272745073

$$$$
