
     RDKit          3D

 42 46  0  0  1  0  0  0  0  0999 V2000
   46.9420   34.5160   41.3380 C   0  0  0  0  0  0  0  0  0  0  0  0
   48.2120   34.9560   41.0020 C   0  0  0  0  0  0  0  0  0  0  0  0
   48.4810   34.6490   39.7380 N   0  0  0  0  0  0  0  0  0  0  0  0
   47.4060   34.0180   39.2540 C   0  0  0  0  0  0  0  0  0  0  0  0
   47.1560   33.4840   37.9850 C   0  0  0  0  0  0  0  0  0  0  0  0
   45.9570   32.8790   37.7370 C   0  0  0  0  0  0  0  0  0  0  0  0
   44.9530   32.7540   38.6660 C   0  0  0  0  0  0  0  0  0  0  0  0
   45.2300   33.2930   39.9100 C   0  0  0  0  0  0  0  0  0  0  0  0
   46.4090   33.9120   40.2290 C   0  0  0  0  0  0  0  0  0  0  0  0
   44.7750   35.8830   44.0580 C   0  0  0  0  0  0  0  0  0  0  0  0
   45.4220   35.7540   42.8160 C   0  0  0  0  0  0  0  0  0  0  0  0
   46.2650   34.6560   42.6300 C   0  0  0  0  0  0  0  0  0  0  0  0
   46.4360   33.7480   43.6470 N   0  0  0  0  0  0  0  0  0  0  0  0
   45.7740   33.9400   44.8270 C   0  0  0  0  0  0  0  0  0  0  0  0
   44.9610   34.9780   45.0370 N   0  0  0  0  0  0  0  0  0  0  0  0
   49.1130   35.6660   41.9490 C   0  0  0  0  0  0  0  0  0  0  0  0
   50.0060   34.7150   42.6830 C   0  0  0  0  0  0  0  0  0  0  0  0
   50.3460   33.4740   41.9300 C   0  0  1  0  0  0  0  0  0  0  0  0
   50.9680   32.2960   42.5370 C   0  0  0  0  0  0  0  0  0  0  0  0
   49.5060   32.2360   42.3570 C   0  0  2  0  0  0  0  0  0  0  0  0
   49.0350   31.3520   41.2670 C   0  0  0  0  0  0  0  0  0  0  0  0
   49.5350   31.3500   39.9970 N   0  0  0  0  0  0  0  0  0  0  0  0
   48.9000   30.4540   39.2930 O   0  0  0  0  0  0  0  0  0  0  0  0
   48.0100   29.8870   40.0760 C   0  0  0  0  0  0  0  0  0  0  0  0
   48.0640   30.4240   41.3210 N   0  0  0  0  0  0  0  0  0  0  0  0
   49.3514   34.8572   39.2281 H   0  0  0  0  0  0  0  0  0  0  0  0
   47.9181   33.5509   37.1946 H   0  0  0  0  0  0  0  0  0  0  0  0
   45.7848   32.4666   36.7319 H   0  0  0  0  0  0  0  0  0  0  0  0
   43.9968   32.2606   38.4374 H   0  0  0  0  0  0  0  0  0  0  0  0
   44.4569   33.2198   40.6891 H   0  0  0  0  0  0  0  0  0  0  0  0
   44.1054   36.7381   44.2325 H   0  0  0  0  0  0  0  0  0  0  0  0
   45.2691   36.4941   42.0167 H   0  0  0  0  0  0  0  0  0  0  0  0
   45.9168   33.2095   45.6369 H   0  0  0  0  0  0  0  0  0  0  0  0
   49.7355   36.3757   41.3844 H   0  0  0  0  0  0  0  0  0  0  0  0
   48.4890   36.1898   42.6881 H   0  0  0  0  0  0  0  0  0  0  0  0
   50.9433   35.2392   42.9210 H   0  0  0  0  0  0  0  0  0  0  0  0
   49.4511   34.3943   43.5770 H   0  0  0  0  0  0  0  0  0  0  0  0
   50.6044   34.0524   41.0307 H   0  0  0  0  0  0  0  0  0  0  0  0
   51.6134   31.6508   41.9228 H   0  0  0  0  0  0  0  0  0  0  0  0
   51.6269   32.1551   43.4065 H   0  0  0  0  0  0  0  0  0  0  0  0
   48.6296   32.0632   42.9989 H   0  0  0  0  0  0  0  0  0  0  0  0
   47.3187   29.0895   39.7659 H   0  0  0  0  0  0  0  0  0  0  0  0
  1 12  1  0
  2  1  2  0
  2 16  1  0
  3  2  1  0
  4  3  1  0
  4  9  2  0
  5  4  1  0
  6  5  2  0
  6  7  1  0
  7  8  2  0
  8  9  1  0
  9  1  1  0
 10 15  2  0
 11 10  1  0
 12 11  2  0
 12 13  1  0
 13 14  2  0
 14 15  1  0
 16 17  1  0
 18 20  1  0
 18 19  1  0
 18 17  1  0
 20 19  1  0
 21 25  1  0
 21 20  1  0
 22 21  2  0
 23 22  1  0
 23 24  1  0
 24 25  2  0
  3 26  1  0
  5 27  1  0
  6 28  1  0
  7 29  1  0
  8 30  1  0
 10 31  1  0
 11 32  1  0
 14 33  1  0
 16 34  1  0
 16 35  1  0
 17 36  1  0
 17 37  1  0
 18 38  1  6
 19 39  1  0
 19 40  1  0
 20 41  1  1
 24 42  1  0
M  ISO  8  26   9  27  14  28  14  29  14  30  14  31  14  32  14  33  14
M  ISO  8  34   8  35   8  36   8  37   8  38  13  39  13  40  13  41  13
M  ISO  1  42  14
M  END
>  <minimizedAffinity>  (1) 
-5.78408051

>  <minimizedRMSD>  (1) 
0.355833352

$$$$
