
     RDKit          3D

 47 51  0  0  1  0  0  0  0  0999 V2000
   46.9680   34.5490   41.3890 C   0  0  0  0  0  0  0  0  0  0  0  0
   48.2480   34.9580   41.0690 C   0  0  0  0  0  0  0  0  0  0  0  0
   48.5290   34.6510   39.8140 N   0  0  0  0  0  0  0  0  0  0  0  0
   47.4420   34.0400   39.2990 C   0  0  0  0  0  0  0  0  0  0  0  0
   47.2060   33.5180   38.0240 C   0  0  0  0  0  0  0  0  0  0  0  0
   46.0010   32.9460   37.7670 C   0  0  0  0  0  0  0  0  0  0  0  0
   44.9590   32.8320   38.6770 C   0  0  0  0  0  0  0  0  0  0  0  0
   45.2420   33.3610   39.9200 C   0  0  0  0  0  0  0  0  0  0  0  0
   46.4360   33.9580   40.2650 C   0  0  0  0  0  0  0  0  0  0  0  0
   44.7690   35.9170   44.0890 C   0  0  0  0  0  0  0  0  0  0  0  0
   45.4310   35.7950   42.8480 C   0  0  0  0  0  0  0  0  0  0  0  0
   46.2660   34.6970   42.6740 C   0  0  0  0  0  0  0  0  0  0  0  0
   46.4210   33.7770   43.6950 N   0  0  0  0  0  0  0  0  0  0  0  0
   45.7540   33.9550   44.8630 C   0  0  0  0  0  0  0  0  0  0  0  0
   44.9400   34.9960   45.0750 N   0  0  0  0  0  0  0  0  0  0  0  0
   49.1430   35.6400   42.0290 C   0  0  0  0  0  0  0  0  0  0  0  0
   50.1040   34.6810   42.6630 C   0  0  0  0  0  0  0  0  0  0  0  0
   50.3130   33.4070   41.9110 C   0  0  1  0  0  0  0  0  0  0  0  0
   50.9130   32.2180   42.5100 C   0  0  0  0  0  0  0  0  0  0  0  0
   49.4380   32.2300   42.4220 C   0  0  2  0  0  0  0  0  0  0  0  0
   48.8860   31.2970   41.4030 C   0  0  0  0  0  0  0  0  0  0  0  0
   47.5980   30.8280   41.5630 C   0  0  0  0  0  0  0  0  0  0  0  0
   47.0630   29.9620   40.6340 C   0  0  0  0  0  0  0  0  0  0  0  0
   47.8940   29.6170   39.5680 C   0  0  0  0  0  0  0  0  0  0  0  0
   49.1920   30.0750   39.3850 C   0  0  0  0  0  0  0  0  0  0  0  0
   49.6940   30.9440   40.3420 C   0  0  0  0  0  0  0  0  0  0  0  0
   49.4130   34.8426   39.3214 H   0  0  0  0  0  0  0  0  0  0  0  0
   47.9804   33.5694   37.2445 H   0  0  0  0  0  0  0  0  0  0  0  0
   45.8380   32.5409   36.7574 H   0  0  0  0  0  0  0  0  0  0  0  0
   43.9953   32.3627   38.4299 H   0  0  0  0  0  0  0  0  0  0  0  0
   44.4591   33.3021   40.6904 H   0  0  0  0  0  0  0  0  0  0  0  0
   44.1016   36.7741   44.2619 H   0  0  0  0  0  0  0  0  0  0  0  0
   45.2917   36.5393   42.0502 H   0  0  0  0  0  0  0  0  0  0  0  0
   45.8873   33.2155   45.6664 H   0  0  0  0  0  0  0  0  0  0  0  0
   49.7121   36.4166   41.4970 H   0  0  0  0  0  0  0  0  0  0  0  0
   48.5234   36.0822   42.8231 H   0  0  0  0  0  0  0  0  0  0  0  0
   51.0771   35.1852   42.7573 H   0  0  0  0  0  0  0  0  0  0  0  0
   49.6632   34.3983   43.6303 H   0  0  0  0  0  0  0  0  0  0  0  0
   50.5325   33.9470   40.9782 H   0  0  0  0  0  0  0  0  0  0  0  0
   51.4853   31.5251   41.8757 H   0  0  0  0  0  0  0  0  0  0  0  0
   51.6182   32.0653   43.3403 H   0  0  0  0  0  0  0  0  0  0  0  0
   48.5825   32.1419   43.1078 H   0  0  0  0  0  0  0  0  0  0  0  0
   46.9998   31.1447   42.4301 H   0  0  0  0  0  0  0  0  0  0  0  0
   46.0410   29.5662   40.7276 H   0  0  0  0  0  0  0  0  0  0  0  0
   47.4890   28.9276   38.8126 H   0  0  0  0  0  0  0  0  0  0  0  0
   49.7950   29.7625   38.5197 H   0  0  0  0  0  0  0  0  0  0  0  0
   50.7153   31.3436   40.2569 H   0  0  0  0  0  0  0  0  0  0  0  0
  1 12  1  0
  2  1  2  0
  2 16  1  0
  3  2  1  0
  4  3  1  0
  4  9  2  0
  5  4  1  0
  6  5  2  0
  6  7  1  0
  7  8  2  0
  8  9  1  0
  9  1  1  0
 10 15  2  0
 11 10  1  0
 12 11  2  0
 12 13  1  0
 13 14  2  0
 14 15  1  0
 16 17  1  0
 18 20  1  0
 18 19  1  0
 18 17  1  0
 20 19  1  0
 21 22  2  0
 21 20  1  0
 23 22  1  0
 24 23  2  0
 25 24  1  0
 25 26  2  0
 26 21  1  0
  3 27  1  0
  5 28  1  0
  6 29  1  0
  7 30  1  0
  8 31  1  0
 10 32  1  0
 11 33  1  0
 14 34  1  0
 16 35  1  0
 16 36  1  0
 17 37  1  0
 17 38  1  0
 18 39  1  6
 19 40  1  0
 19 41  1  0
 20 42  1  1
 22 43  1  0
 23 44  1  0
 24 45  1  0
 25 46  1  0
 26 47  1  0
M  ISO  8  27   9  28  14  29  14  30  14  31  14  32  14  33  14  34  14
M  ISO  8  35   8  36   8  37   8  38   8  39  13  40  13  41  13  42  13
M  ISO  5  43  14  44  14  45  14  46  14  47  14
M  END
>  <minimizedAffinity>  (1) 
-5.83795023

>  <minimizedRMSD>  (1) 
0.301970005

$$$$
