
     RDKit          3D

 43 47  0  0  1  0  0  0  0  0999 V2000
   46.9270   34.5060   41.2840 C   0  0  0  0  0  0  0  0  0  0  0  0
   48.1830   34.9510   40.9310 C   0  0  0  0  0  0  0  0  0  0  0  0
   48.4450   34.6370   39.6680 N   0  0  0  0  0  0  0  0  0  0  0  0
   47.3710   33.9930   39.1910 C   0  0  0  0  0  0  0  0  0  0  0  0
   47.1150   33.4510   37.9380 C   0  0  0  0  0  0  0  0  0  0  0  0
   45.9110   32.8300   37.7040 C   0  0  0  0  0  0  0  0  0  0  0  0
   44.9090   32.7020   38.6470 C   0  0  0  0  0  0  0  0  0  0  0  0
   45.2060   33.2550   39.8790 C   0  0  0  0  0  0  0  0  0  0  0  0
   46.3820   33.8870   40.1830 C   0  0  0  0  0  0  0  0  0  0  0  0
   44.7850   35.8610   44.0340 C   0  0  0  0  0  0  0  0  0  0  0  0
   45.4160   35.7430   42.7760 C   0  0  0  0  0  0  0  0  0  0  0  0
   46.2590   34.6490   42.5840 C   0  0  0  0  0  0  0  0  0  0  0  0
   46.4450   33.7400   43.6060 N   0  0  0  0  0  0  0  0  0  0  0  0
   45.8060   33.9190   44.7880 C   0  0  0  0  0  0  0  0  0  0  0  0
   44.9830   34.9610   45.0120 N   0  0  0  0  0  0  0  0  0  0  0  0
   49.0950   35.6730   41.8500 C   0  0  0  0  0  0  0  0  0  0  0  0
   49.9260   34.7240   42.6710 C   0  0  0  0  0  0  0  0  0  0  0  0
   50.3070   33.4660   41.9600 C   0  0  1  0  0  0  0  0  0  0  0  0
   51.0390   32.3880   42.6260 C   0  0  0  0  0  0  0  0  0  0  0  0
   49.5660   32.2200   42.4660 C   0  0  2  0  0  0  0  0  0  0  0  0
   49.2050   31.2000   41.4260 C   0  0  0  0  0  0  0  0  0  0  0  0
   48.6290   29.9820   41.7750 C   0  0  0  0  0  0  0  0  0  0  0  0
   48.4120   29.1600   40.1050 S   0  0  0  0  0  0  0  0  0  0  0  0
   49.1590   30.6600   39.2560 C   0  0  0  0  0  0  0  0  0  0  0  0
   49.3890   31.3500   40.1300 N   0  0  0  0  0  0  0  0  0  0  0  0
   49.3109   34.8486   39.1518 H   0  0  0  0  0  0  0  0  0  0  0  0
   47.8690   33.5181   37.1399 H   0  0  0  0  0  0  0  0  0  0  0  0
   45.7342   32.4086   36.7034 H   0  0  0  0  0  0  0  0  0  0  0  0
   43.9530   32.2010   38.4348 H   0  0  0  0  0  0  0  0  0  0  0  0
   44.4448   33.1822   40.6697 H   0  0  0  0  0  0  0  0  0  0  0  0
   44.1134   36.7125   44.2182 H   0  0  0  0  0  0  0  0  0  0  0  0
   45.2493   36.4838   41.9802 H   0  0  0  0  0  0  0  0  0  0  0  0
   45.9655   33.1867   45.5932 H   0  0  0  0  0  0  0  0  0  0  0  0
   49.7656   36.3122   41.2569 H   0  0  0  0  0  0  0  0  0  0  0  0
   48.4823   36.2744   42.5377 H   0  0  0  0  0  0  0  0  0  0  0  0
   50.8484   35.2438   42.9694 H   0  0  0  0  0  0  0  0  0  0  0  0
   49.3064   34.4250   43.5293 H   0  0  0  0  0  0  0  0  0  0  0  0
   50.4853   33.9966   41.0131 H   0  0  0  0  0  0  0  0  0  0  0  0
   51.7239   31.7556   42.0420 H   0  0  0  0  0  0  0  0  0  0  0  0
   51.7213   32.3493   43.4880 H   0  0  0  0  0  0  0  0  0  0  0  0
   48.6945   32.0468   43.1145 H   0  0  0  0  0  0  0  0  0  0  0  0
   48.3684   29.6004   42.7733 H   0  0  0  0  0  0  0  0  0  0  0  0
   49.3308   30.8285   38.1827 H   0  0  0  0  0  0  0  0  0  0  0  0
  1 12  1  0
  2  1  2  0
  2 16  1  0
  3  2  1  0
  4  3  1  0
  4  9  2  0
  5  4  1  0
  6  5  2  0
  6  7  1  0
  7  8  2  0
  8  9  1  0
  9  1  1  0
 10 15  2  0
 11 10  1  0
 12 11  2  0
 12 13  1  0
 13 14  2  0
 14 15  1  0
 16 17  1  0
 18 20  1  0
 18 19  1  0
 18 17  1  0
 20 19  1  0
 21 22  2  0
 21 20  1  0
 23 22  1  0
 24 23  1  0
 24 25  2  0
 25 21  1  0
  3 26  1  0
  5 27  1  0
  6 28  1  0
  7 29  1  0
  8 30  1  0
 10 31  1  0
 11 32  1  0
 14 33  1  0
 16 34  1  0
 16 35  1  0
 17 36  1  0
 17 37  1  0
 18 38  1  6
 19 39  1  0
 19 40  1  0
 20 41  1  1
 22 42  1  0
 24 43  1  0
M  ISO  8  26   9  27  14  28  14  29  14  30  14  31  14  32  14  33  14
M  ISO  8  34   8  35   8  36   8  37   8  38  13  39  13  40  13  41  13
M  ISO  2  42  14  43  14
M  END
>  <minimizedAffinity>  (1) 
-5.71786833

>  <minimizedRMSD>  (1) 
0.216029719

$$$$
