
     RDKit          3D

 40 43  0  0  1  0  0  0  0  0999 V2000
   46.9430   34.5190   41.3340 C   0  0  0  0  0  0  0  0  0  0  0  0
   48.2080   34.9590   40.9950 C   0  0  0  0  0  0  0  0  0  0  0  0
   48.4840   34.6470   39.7260 N   0  0  0  0  0  0  0  0  0  0  0  0
   47.3980   34.0070   39.2420 C   0  0  0  0  0  0  0  0  0  0  0  0
   47.1650   33.4720   37.9780 C   0  0  0  0  0  0  0  0  0  0  0  0
   45.9610   32.8560   37.7320 C   0  0  0  0  0  0  0  0  0  0  0  0
   44.9600   32.7350   38.6640 C   0  0  0  0  0  0  0  0  0  0  0  0
   45.2330   33.2780   39.9030 C   0  0  0  0  0  0  0  0  0  0  0  0
   46.4030   33.9050   40.2270 C   0  0  0  0  0  0  0  0  0  0  0  0
   44.7800   35.8700   44.0590 C   0  0  0  0  0  0  0  0  0  0  0  0
   45.4250   35.7560   42.8050 C   0  0  0  0  0  0  0  0  0  0  0  0
   46.2670   34.6590   42.6170 C   0  0  0  0  0  0  0  0  0  0  0  0
   46.4410   33.7390   43.6380 N   0  0  0  0  0  0  0  0  0  0  0  0
   45.7860   33.9190   44.8150 C   0  0  0  0  0  0  0  0  0  0  0  0
   44.9640   34.9650   45.0360 N   0  0  0  0  0  0  0  0  0  0  0  0
   49.1110   35.6700   41.9260 C   0  0  0  0  0  0  0  0  0  0  0  0
   50.0230   34.7230   42.6390 C   0  0  0  0  0  0  0  0  0  0  0  0
   50.2890   33.4280   41.9080 C   0  0  1  0  0  0  0  0  0  0  0  0
   50.9660   32.3150   42.5390 C   0  0  0  0  0  0  0  0  0  0  0  0
   49.4840   32.2320   42.4470 C   0  0  2  0  0  0  0  0  0  0  0  0
   48.9940   31.1870   41.4800 C   0  0  0  0  0  0  0  0  0  0  0  0
   47.6430   31.0070   41.4660 F   0  0  0  0  0  0  0  0  0  0  0  0
   49.5480   29.9790   41.9360 F   0  0  0  0  0  0  0  0  0  0  0  0
   49.5280   31.3760   40.2270 F   0  0  0  0  0  0  0  0  0  0  0  0
   49.3548   34.8541   39.2163 H   0  0  0  0  0  0  0  0  0  0  0  0
   47.9302   33.5409   37.1908 H   0  0  0  0  0  0  0  0  0  0  0  0
   45.7895   32.4355   36.7301 H   0  0  0  0  0  0  0  0  0  0  0  0
   44.0047   32.2386   38.4383 H   0  0  0  0  0  0  0  0  0  0  0  0
   44.4584   33.2011   40.6802 H   0  0  0  0  0  0  0  0  0  0  0  0
   44.1092   36.7229   44.2397 H   0  0  0  0  0  0  0  0  0  0  0  0
   45.2693   36.5012   42.0110 H   0  0  0  0  0  0  0  0  0  0  0  0
   45.9320   33.1826   45.6190 H   0  0  0  0  0  0  0  0  0  0  0  0
   49.7177   36.3888   41.3558 H   0  0  0  0  0  0  0  0  0  0  0  0
   48.4944   36.1853   42.6772 H   0  0  0  0  0  0  0  0  0  0  0  0
   50.9861   35.2300   42.7983 H   0  0  0  0  0  0  0  0  0  0  0  0
   49.5154   34.4509   43.5762 H   0  0  0  0  0  0  0  0  0  0  0  0
   50.4630   33.9458   40.9532 H   0  0  0  0  0  0  0  0  0  0  0  0
   51.5844   31.6412   41.9277 H   0  0  0  0  0  0  0  0  0  0  0  0
   51.6796   32.2354   43.3724 H   0  0  0  0  0  0  0  0  0  0  0  0
   48.6200   32.1315   43.1203 H   0  0  0  0  0  0  0  0  0  0  0  0
  1 12  1  0
  2  1  2  0
  2 16  1  0
  3  2  1  0
  4  3  1  0
  4  9  2  0
  5  4  1  0
  6  5  2  0
  6  7  1  0
  7  8  2  0
  8  9  1  0
  9  1  1  0
 10 15  2  0
 11 10  1  0
 12 11  2  0
 12 13  1  0
 13 14  2  0
 14 15  1  0
 16 17  1  0
 18 20  1  0
 18 19  1  0
 18 17  1  0
 20 19  1  0
 21 23  1  0
 21 20  1  0
 22 21  1  0
 24 21  1  0
  3 25  1  0
  5 26  1  0
  6 27  1  0
  7 28  1  0
  8 29  1  0
 10 30  1  0
 11 31  1  0
 14 32  1  0
 16 33  1  0
 16 34  1  0
 17 35  1  0
 17 36  1  0
 18 37  1  6
 19 38  1  0
 19 39  1  0
 20 40  1  1
M  ISO  8  25   9  26  14  27  14  28  14  29  14  30  14  31  14  32  14
M  ISO  8  33   8  34   8  35   8  36   8  37  13  38  13  39  13  40  13
M  END
>  <minimizedAffinity>  (1) 
-5.75944376

>  <minimizedRMSD>  (1) 
0.16807963

$$$$
