
     RDKit          3D

 40 43  0  0  1  0  0  0  0  0999 V2000
   46.9390   34.5070   41.3020 C   0  0  0  0  0  0  0  0  0  0  0  0
   48.2060   34.9560   40.9640 C   0  0  0  0  0  0  0  0  0  0  0  0
   48.4700   34.6500   39.6940 N   0  0  0  0  0  0  0  0  0  0  0  0
   47.3780   34.0080   39.2160 C   0  0  0  0  0  0  0  0  0  0  0  0
   47.1360   33.4760   37.9410 C   0  0  0  0  0  0  0  0  0  0  0  0
   45.9300   32.8680   37.7170 C   0  0  0  0  0  0  0  0  0  0  0  0
   44.9220   32.7320   38.6510 C   0  0  0  0  0  0  0  0  0  0  0  0
   45.2150   33.2740   39.8880 C   0  0  0  0  0  0  0  0  0  0  0  0
   46.3970   33.9020   40.2020 C   0  0  0  0  0  0  0  0  0  0  0  0
   44.7850   35.8640   44.0470 C   0  0  0  0  0  0  0  0  0  0  0  0
   45.4260   35.7370   42.7940 C   0  0  0  0  0  0  0  0  0  0  0  0
   46.2700   34.6450   42.6020 C   0  0  0  0  0  0  0  0  0  0  0  0
   46.4530   33.7390   43.6140 N   0  0  0  0  0  0  0  0  0  0  0  0
   45.8100   33.9130   44.7960 C   0  0  0  0  0  0  0  0  0  0  0  0
   44.9820   34.9590   45.0270 N   0  0  0  0  0  0  0  0  0  0  0  0
   49.1080   35.6630   41.8880 C   0  0  0  0  0  0  0  0  0  0  0  0
   49.9790   34.6950   42.6470 C   0  0  0  0  0  0  0  0  0  0  0  0
   50.2840   33.4270   41.9180 C   0  0  1  0  0  0  0  0  0  0  0  0
   51.0170   32.3130   42.5150 C   0  0  0  0  0  0  0  0  0  0  0  0
   49.5420   32.1990   42.5040 C   0  0  2  0  0  0  0  0  0  0  0  0
   48.9900   31.1870   41.5420 C   0  0  0  0  0  0  0  0  0  0  0  0
   49.3356   34.8607   39.1771 H   0  0  0  0  0  0  0  0  0  0  0  0
   47.8922   33.5452   37.1452 H   0  0  0  0  0  0  0  0  0  0  0  0
   45.7497   32.4551   36.7135 H   0  0  0  0  0  0  0  0  0  0  0  0
   43.9665   32.2343   38.4291 H   0  0  0  0  0  0  0  0  0  0  0  0
   44.4503   33.1978   40.6751 H   0  0  0  0  0  0  0  0  0  0  0  0
   44.1133   36.7165   44.2261 H   0  0  0  0  0  0  0  0  0  0  0  0
   45.2639   36.4764   41.9959 H   0  0  0  0  0  0  0  0  0  0  0  0
   45.9674   33.1760   45.5973 H   0  0  0  0  0  0  0  0  0  0  0  0
   49.7489   36.3461   41.3113 H   0  0  0  0  0  0  0  0  0  0  0  0
   48.4968   36.2225   42.6114 H   0  0  0  0  0  0  0  0  0  0  0  0
   50.9310   35.1967   42.8752 H   0  0  0  0  0  0  0  0  0  0  0  0
   49.4148   34.4085   43.5468 H   0  0  0  0  0  0  0  0  0  0  0  0
   50.4198   33.9560   40.9631 H   0  0  0  0  0  0  0  0  0  0  0  0
   51.6142   31.6522   41.8695 H   0  0  0  0  0  0  0  0  0  0  0  0
   51.7745   32.2459   43.3098 H   0  0  0  0  0  0  0  0  0  0  0  0
   48.7363   32.0569   43.2393 H   0  0  0  0  0  0  0  0  0  0  0  0
   48.5370   30.3565   42.1033 H   0  0  0  0  0  0  0  0  0  0  0  0
   48.2258   31.6616   40.9089 H   0  0  0  0  0  0  0  0  0  0  0  0
   49.8028   30.8015   40.9089 H   0  0  0  0  0  0  0  0  0  0  0  0
  1 12  1  0
  2  1  2  0
  2 16  1  0
  3  2  1  0
  4  3  1  0
  4  9  2  0
  5  4  1  0
  6  5  2  0
  6  7  1  0
  7  8  2  0
  8  9  1  0
  9  1  1  0
 10 15  2  0
 11 10  1  0
 12 11  2  0
 12 13  1  0
 13 14  2  0
 14 15  1  0
 16 17  1  0
 18 20  1  0
 18 19  1  0
 18 17  1  0
 20 19  1  0
 21 20  1  0
  3 22  1  0
  5 23  1  0
  6 24  1  0
  7 25  1  0
  8 26  1  0
 10 27  1  0
 11 28  1  0
 14 29  1  0
 16 30  1  0
 16 31  1  0
 17 32  1  0
 17 33  1  0
 18 34  1  6
 19 35  1  0
 19 36  1  0
 20 37  1  1
 21 38  1  0
 21 39  1  0
 21 40  1  0
M  ISO  8  22   9  23  14  24  14  25  14  26  14  27  14  28  14  29  14
M  ISO  8  30   8  31   8  32   8  33   8  34  13  35  13  36  13  37  13
M  ISO  3  38   8  39   8  40   8
M  END
>  <minimizedAffinity>  (1) 
-5.76817513

>  <minimizedRMSD>  (1) 
0.0823444799

$$$$
