
     RDKit          3D

 38 41  0  0  1  0  0  0  0  0999 V2000
   46.9240   34.4920   41.2660 C   0  0  0  0  0  0  0  0  0  0  0  0
   48.2000   34.9300   40.9150 C   0  0  0  0  0  0  0  0  0  0  0  0
   48.4470   34.6310   39.6450 N   0  0  0  0  0  0  0  0  0  0  0  0
   47.3530   34.0040   39.1670 C   0  0  0  0  0  0  0  0  0  0  0  0
   47.0900   33.4820   37.8910 C   0  0  0  0  0  0  0  0  0  0  0  0
   45.8850   32.8910   37.6710 C   0  0  0  0  0  0  0  0  0  0  0  0
   44.8750   32.7560   38.6130 C   0  0  0  0  0  0  0  0  0  0  0  0
   45.1880   33.2890   39.8560 C   0  0  0  0  0  0  0  0  0  0  0  0
   46.3770   33.9000   40.1580 C   0  0  0  0  0  0  0  0  0  0  0  0
   44.7990   35.8420   44.0260 C   0  0  0  0  0  0  0  0  0  0  0  0
   45.4250   35.7240   42.7700 C   0  0  0  0  0  0  0  0  0  0  0  0
   46.2680   34.6250   42.5690 C   0  0  0  0  0  0  0  0  0  0  0  0
   46.4490   33.7250   43.5800 N   0  0  0  0  0  0  0  0  0  0  0  0
   45.8160   33.8970   44.7670 C   0  0  0  0  0  0  0  0  0  0  0  0
   45.0030   34.9360   44.9970 N   0  0  0  0  0  0  0  0  0  0  0  0
   49.1150   35.6210   41.8400 C   0  0  0  0  0  0  0  0  0  0  0  0
   49.9540   34.6440   42.6290 C   0  0  0  0  0  0  0  0  0  0  0  0
   50.2560   33.3630   41.9150 C   0  0  1  0  0  0  0  0  0  0  0  0
   51.0480   32.2850   42.4800 C   0  0  0  0  0  0  0  0  0  0  0  0
   49.5770   32.1260   42.5490 C   0  0  2  0  0  0  0  0  0  0  0  0
   48.6830   31.0690   41.4200 S   0  0  0  0  0  0  0  0  0  0  0  0
   49.3107   34.8387   39.1237 H   0  0  0  0  0  0  0  0  0  0  0  0
   47.8398   33.5492   37.0889 H   0  0  0  0  0  0  0  0  0  0  0  0
   45.6958   32.4875   36.6653 H   0  0  0  0  0  0  0  0  0  0  0  0
   43.9126   32.2702   38.3944 H   0  0  0  0  0  0  0  0  0  0  0  0
   44.4315   33.2161   40.6513 H   0  0  0  0  0  0  0  0  0  0  0  0
   44.1291   36.6936   44.2160 H   0  0  0  0  0  0  0  0  0  0  0  0
   45.2577   36.4676   41.9768 H   0  0  0  0  0  0  0  0  0  0  0  0
   45.9756   33.1590   45.5669 H   0  0  0  0  0  0  0  0  0  0  0  0
   49.7815   36.2757   41.2594 H   0  0  0  0  0  0  0  0  0  0  0  0
   48.5096   36.2044   42.5494 H   0  0  0  0  0  0  0  0  0  0  0  0
   50.9082   35.1324   42.8758 H   0  0  0  0  0  0  0  0  0  0  0  0
   49.3648   34.3740   43.5178 H   0  0  0  0  0  0  0  0  0  0  0  0
   50.3281   33.8831   40.9484 H   0  0  0  0  0  0  0  0  0  0  0  0
   51.6302   31.6349   41.8104 H   0  0  0  0  0  0  0  0  0  0  0  0
   51.8481   32.2501   43.2341 H   0  0  0  0  0  0  0  0  0  0  0  0
   48.8784   31.8896   43.3652 H   0  0  0  0  0  0  0  0  0  0  0  0
   47.9273   30.1755   42.1324 H   0  0  0  0  0  0  0  0  0  0  0  0
  1 12  1  0
  2  1  2  0
  2 16  1  0
  3  2  1  0
  4  3  1  0
  4  9  2  0
  5  4  1  0
  6  5  2  0
  6  7  1  0
  7  8  2  0
  8  9  1  0
  9  1  1  0
 10 15  2  0
 11 10  1  0
 12 11  2  0
 12 13  1  0
 13 14  2  0
 14 15  1  0
 16 17  1  0
 18 19  1  0
 18 20  1  0
 18 17  1  0
 19 20  1  0
 21 20  1  0
  3 22  1  0
  5 23  1  0
  6 24  1  0
  7 25  1  0
  8 26  1  0
 10 27  1  0
 11 28  1  0
 14 29  1  0
 16 30  1  0
 16 31  1  0
 17 32  1  0
 17 33  1  0
 18 34  1  6
 19 35  1  0
 19 36  1  0
 20 37  1  1
 21 38  1  0
M  ISO  8  22   9  23  14  24  14  25  14  26  14  27  14  28  14  29  14
M  ISO  8  30   8  31   8  32   8  33   8  34  13  35  13  36  13  37  13
M  ISO  1  38  11
M  END
>  <minimizedAffinity>  (1) 
-5.69409752

>  <minimizedRMSD>  (1) 
0.0257222299

$$$$
