
     RDKit          3D

 38 41  0  0  1  0  0  0  0  0999 V2000
   46.9300   34.4970   41.3000 C   0  0  0  0  0  0  0  0  0  0  0  0
   48.2010   34.9170   40.9330 C   0  0  0  0  0  0  0  0  0  0  0  0
   48.4480   34.6130   39.6710 N   0  0  0  0  0  0  0  0  0  0  0  0
   47.3540   33.9930   39.1950 C   0  0  0  0  0  0  0  0  0  0  0  0
   47.1030   33.4740   37.9230 C   0  0  0  0  0  0  0  0  0  0  0  0
   45.8850   32.8830   37.6990 C   0  0  0  0  0  0  0  0  0  0  0  0
   44.8830   32.7600   38.6340 C   0  0  0  0  0  0  0  0  0  0  0  0
   45.1940   33.2930   39.8680 C   0  0  0  0  0  0  0  0  0  0  0  0
   46.3810   33.8990   40.1800 C   0  0  0  0  0  0  0  0  0  0  0  0
   44.7970   35.8470   44.0400 C   0  0  0  0  0  0  0  0  0  0  0  0
   45.4270   35.7300   42.7840 C   0  0  0  0  0  0  0  0  0  0  0  0
   46.2680   34.6350   42.5930 C   0  0  0  0  0  0  0  0  0  0  0  0
   46.4540   33.7260   43.6040 N   0  0  0  0  0  0  0  0  0  0  0  0
   45.8140   33.8980   44.7910 C   0  0  0  0  0  0  0  0  0  0  0  0
   44.9910   34.9470   45.0150 N   0  0  0  0  0  0  0  0  0  0  0  0
   49.1270   35.6150   41.8680 C   0  0  0  0  0  0  0  0  0  0  0  0
   49.9660   34.6550   42.6400 C   0  0  0  0  0  0  0  0  0  0  0  0
   50.2660   33.3700   41.9120 C   0  0  1  0  0  0  0  0  0  0  0  0
   51.0270   32.2690   42.4970 C   0  0  0  0  0  0  0  0  0  0  0  0
   49.5490   32.1390   42.5270 C   0  0  2  0  0  0  0  0  0  0  0  0
   48.9890   31.2140   41.6860 O   0  0  0  0  0  0  0  0  0  0  0  0
   49.3141   34.8130   39.1507 H   0  0  0  0  0  0  0  0  0  0  0  0
   47.8581   33.5370   37.1256 H   0  0  0  0  0  0  0  0  0  0  0  0
   45.6950   32.4763   36.6948 H   0  0  0  0  0  0  0  0  0  0  0  0
   43.9181   32.2787   38.4166 H   0  0  0  0  0  0  0  0  0  0  0  0
   44.4324   33.2261   40.6589 H   0  0  0  0  0  0  0  0  0  0  0  0
   44.1278   36.7002   44.2252 H   0  0  0  0  0  0  0  0  0  0  0  0
   45.2618   36.4715   41.9885 H   0  0  0  0  0  0  0  0  0  0  0  0
   45.9704   33.1617   45.5931 H   0  0  0  0  0  0  0  0  0  0  0  0
   49.7867   36.2765   41.2873 H   0  0  0  0  0  0  0  0  0  0  0  0
   48.5199   36.1888   42.5836 H   0  0  0  0  0  0  0  0  0  0  0  0
   50.9206   35.1465   42.8792 H   0  0  0  0  0  0  0  0  0  0  0  0
   49.3895   34.3824   43.5363 H   0  0  0  0  0  0  0  0  0  0  0  0
   50.3714   33.8922   40.9496 H   0  0  0  0  0  0  0  0  0  0  0  0
   51.6137   31.6096   41.8405 H   0  0  0  0  0  0  0  0  0  0  0  0
   51.8065   32.2162   43.2713 H   0  0  0  0  0  0  0  0  0  0  0  0
   48.7718   31.9866   43.2903 H   0  0  0  0  0  0  0  0  0  0  0  0
   48.5573   30.5010   42.2202 H   0  0  0  0  0  0  0  0  0  0  0  0
  1 12  1  0
  2  1  2  0
  2 16  1  0
  3  2  1  0
  4  3  1  0
  4  9  2  0
  5  4  1  0
  6  5  2  0
  6  7  1  0
  7  8  2  0
  8  9  1  0
  9  1  1  0
 10 15  2  0
 11 10  1  0
 12 11  2  0
 12 13  1  0
 13 14  2  0
 14 15  1  0
 16 17  1  0
 18 19  1  0
 18 20  1  0
 18 17  1  0
 19 20  1  0
 21 20  1  0
  3 22  1  0
  5 23  1  0
  6 24  1  0
  7 25  1  0
  8 26  1  0
 10 27  1  0
 11 28  1  0
 14 29  1  0
 16 30  1  0
 16 31  1  0
 17 32  1  0
 17 33  1  0
 18 34  1  6
 19 35  1  0
 19 36  1  0
 20 37  1  1
 21 38  1  0
M  ISO  8  22   9  23  14  24  14  25  14  26  14  27  14  28  14  29  14
M  ISO  8  30   8  31   8  32   8  33   8  34  13  35  13  36  13  37  13
M  ISO  1  38   3
M  END
>  <minimizedAffinity>  (1) 
-5.71469784

>  <minimizedRMSD>  (1) 
0.0415512025

$$$$
