
     RDKit          3D

 53 57  0  0  1  0  0  0  0  0999 V2000
   46.9060   34.5260   41.3390 C   0  0  0  0  0  0  0  0  0  0  0  0
   48.1750   34.9390   40.9680 C   0  0  0  0  0  0  0  0  0  0  0  0
   48.4410   34.6100   39.7070 N   0  0  0  0  0  0  0  0  0  0  0  0
   47.3440   33.9790   39.2420 C   0  0  0  0  0  0  0  0  0  0  0  0
   47.0770   33.4240   37.9830 C   0  0  0  0  0  0  0  0  0  0  0  0
   45.8670   32.8330   37.7720 C   0  0  0  0  0  0  0  0  0  0  0  0
   44.8700   32.7340   38.7030 C   0  0  0  0  0  0  0  0  0  0  0  0
   45.1770   33.2900   39.9170 C   0  0  0  0  0  0  0  0  0  0  0  0
   46.3620   33.9020   40.2220 C   0  0  0  0  0  0  0  0  0  0  0  0
   44.7620   35.9270   44.0420 C   0  0  0  0  0  0  0  0  0  0  0  0
   45.3970   35.7890   42.7850 C   0  0  0  0  0  0  0  0  0  0  0  0
   46.2410   34.6910   42.6220 C   0  0  0  0  0  0  0  0  0  0  0  0
   46.4270   33.8040   43.6510 N   0  0  0  0  0  0  0  0  0  0  0  0
   45.7840   33.9960   44.8380 C   0  0  0  0  0  0  0  0  0  0  0  0
   44.9570   35.0510   45.0340 N   0  0  0  0  0  0  0  0  0  0  0  0
   49.0960   35.6540   41.8870 C   0  0  0  0  0  0  0  0  0  0  0  0
   49.9940   34.7150   42.6210 C   0  0  0  0  0  0  0  0  0  0  0  0
   50.2400   33.4120   41.9270 C   0  0  1  0  0  0  0  0  0  0  0  0
   51.0500   32.3200   42.4720 C   0  0  0  0  0  0  0  0  0  0  0  0
   49.5670   32.2040   42.6070 C   0  0  2  0  0  0  0  0  0  0  0  0
   48.9590   31.2430   41.8260 O   0  0  0  0  0  0  0  0  0  0  0  0
   45.9830   29.4870   43.9820 N   0  0  0  0  0  0  0  0  0  0  0  0
   46.6340   28.6780   42.9710 C   0  0  0  0  0  0  0  0  0  0  0  0
   47.2240   29.5600   41.8710 C   0  0  0  0  0  0  0  0  0  0  0  0
   47.8380   30.7960   42.4780 C   0  0  0  0  0  0  0  0  0  0  0  0
   48.2120   30.4020   43.9120 C   0  0  0  0  0  0  0  0  0  0  0  0
   46.9070   30.3490   44.6760 C   0  0  0  0  0  0  0  0  0  0  0  0
   49.3110   34.7994   39.1893 H   0  0  0  0  0  0  0  0  0  0  0  0
   47.8289   33.4646   37.1812 H   0  0  0  0  0  0  0  0  0  0  0  0
   45.6780   32.4030   36.7773 H   0  0  0  0  0  0  0  0  0  0  0  0
   43.9046   32.2496   38.4950 H   0  0  0  0  0  0  0  0  0  0  0  0
   44.4126   33.2406   40.7065 H   0  0  0  0  0  0  0  0  0  0  0  0
   44.0879   36.7801   44.2084 H   0  0  0  0  0  0  0  0  0  0  0  0
   45.2325   36.5140   41.9743 H   0  0  0  0  0  0  0  0  0  0  0  0
   45.9405   33.2772   45.6558 H   0  0  0  0  0  0  0  0  0  0  0  0
   49.7134   36.3501   41.3003 H   0  0  0  0  0  0  0  0  0  0  0  0
   48.4865   36.1909   42.6288 H   0  0  0  0  0  0  0  0  0  0  0  0
   50.9637   35.2131   42.7680 H   0  0  0  0  0  0  0  0  0  0  0  0
   49.4840   34.4722   43.5649 H   0  0  0  0  0  0  0  0  0  0  0  0
   50.2768   33.9160   40.9500 H   0  0  0  0  0  0  0  0  0  0  0  0
   51.5861   31.6480   41.7858 H   0  0  0  0  0  0  0  0  0  0  0  0
   51.8852   32.2751   43.1865 H   0  0  0  0  0  0  0  0  0  0  0  0
   48.8353   32.0819   43.4193 H   0  0  0  0  0  0  0  0  0  0  0  0
   45.5351   28.8622   44.6675 H   0  0  0  0  0  0  0  0  0  0  0  0
   47.4415   28.0959   43.4391 H   0  0  0  0  0  0  0  0  0  0  0  0
   45.8886   28.0046   42.5228 H   0  0  0  0  0  0  0  0  0  0  0  0
   46.4267   29.8542   41.1726 H   0  0  0  0  0  0  0  0  0  0  0  0
   48.0007   28.9968   41.3330 H   0  0  0  0  0  0  0  0  0  0  0  0
   47.1168   31.6242   42.4149 H   0  0  0  0  0  0  0  0  0  0  0  0
   48.7033   29.4179   43.9235 H   0  0  0  0  0  0  0  0  0  0  0  0
   48.9155   31.1194   44.3596 H   0  0  0  0  0  0  0  0  0  0  0  0
   46.4820   31.3610   44.7480 H   0  0  0  0  0  0  0  0  0  0  0  0
   47.0880   29.9567   45.6876 H   0  0  0  0  0  0  0  0  0  0  0  0
  1 12  1  0
  2  1  2  0
  2 16  1  0
  3  2  1  0
  4  3  1  0
  4  9  2  0
  5  4  1  0
  6  5  2  0
  6  7  1  0
  7  8  2  0
  8  9  1  0
  9  1  1  0
 10 15  2  0
 11 10  1  0
 12 11  2  0
 12 13  1  0
 13 14  2  0
 14 15  1  0
 16 17  1  0
 18 19  1  0
 18 20  1  0
 18 17  1  0
 19 20  1  0
 21 25  1  0
 21 20  1  0
 22 27  1  0
 23 22  1  0
 24 25  1  0
 24 23  1  0
 25 26  1  0
 26 27  1  0
  3 28  1  0
  5 29  1  0
  6 30  1  0
  7 31  1  0
  8 32  1  0
 10 33  1  0
 11 34  1  0
 14 35  1  0
 16 36  1  0
 16 37  1  0
 17 38  1  0
 17 39  1  0
 18 40  1  6
 19 41  1  0
 19 42  1  0
 20 43  1  1
 22 44  1  0
 23 45  1  0
 23 46  1  0
 24 47  1  0
 24 48  1  0
 25 49  1  0
 26 50  1  0
 26 51  1  0
 27 52  1  0
 27 53  1  0
M  ISO  8  28   9  29  14  30  14  31  14  32  14  33  14  34  14  35  14
M  ISO  8  36   8  37   8  38   8  39   8  40  13  41  13  42  13  43  13
M  ISO  8  44   5  45  13  46  13  47  13  48  13  49  13  50  13  51  13
M  ISO  2  52  13  53  13
M  END
>  <minimizedAffinity>  (1) 
-5.62234211

>  <minimizedRMSD>  (1) 
0.192958847

$$$$
