
     RDKit          3D

 41 44  0  0  1  0  0  0  0  0999 V2000
   46.9290   34.5010   41.3060 C   0  0  0  0  0  0  0  0  0  0  0  0
   48.1990   34.9300   40.9370 C   0  0  0  0  0  0  0  0  0  0  0  0
   48.4490   34.6210   39.6780 N   0  0  0  0  0  0  0  0  0  0  0  0
   47.3670   33.9930   39.2060 C   0  0  0  0  0  0  0  0  0  0  0  0
   47.1080   33.4600   37.9400 C   0  0  0  0  0  0  0  0  0  0  0  0
   45.9040   32.8640   37.7170 C   0  0  0  0  0  0  0  0  0  0  0  0
   44.9030   32.7390   38.6530 C   0  0  0  0  0  0  0  0  0  0  0  0
   45.2090   33.2830   39.8890 C   0  0  0  0  0  0  0  0  0  0  0  0
   46.3860   33.8930   40.1900 C   0  0  0  0  0  0  0  0  0  0  0  0
   44.7890   35.8520   44.0480 C   0  0  0  0  0  0  0  0  0  0  0  0
   45.4180   35.7350   42.7940 C   0  0  0  0  0  0  0  0  0  0  0  0
   46.2650   34.6420   42.5990 C   0  0  0  0  0  0  0  0  0  0  0  0
   46.4520   33.7370   43.6150 N   0  0  0  0  0  0  0  0  0  0  0  0
   45.8130   33.9070   44.8060 C   0  0  0  0  0  0  0  0  0  0  0  0
   44.9830   34.9640   45.0220 N   0  0  0  0  0  0  0  0  0  0  0  0
   49.1160   35.6390   41.8700 C   0  0  0  0  0  0  0  0  0  0  0  0
   49.9630   34.6920   42.6600 C   0  0  0  0  0  0  0  0  0  0  0  0
   50.3050   33.4170   41.9340 C   0  0  1  0  0  0  0  0  0  0  0  0
   51.0480   32.3240   42.5340 C   0  0  0  0  0  0  0  0  0  0  0  0
   49.5640   32.1690   42.4550 C   0  0  2  0  0  0  0  0  0  0  0  0
   49.0810   31.2670   41.5610 O   0  0  0  0  0  0  0  0  0  0  0  0
   47.7950   30.8260   41.7920 C   0  0  0  0  0  0  0  0  0  0  0  0
   49.3141   34.8251   39.1576 H   0  0  0  0  0  0  0  0  0  0  0  0
   47.8611   33.5207   37.1405 H   0  0  0  0  0  0  0  0  0  0  0  0
   45.7178   32.4519   36.7142 H   0  0  0  0  0  0  0  0  0  0  0  0
   43.9420   32.2489   38.4377 H   0  0  0  0  0  0  0  0  0  0  0  0
   44.4483   33.2171   40.6808 H   0  0  0  0  0  0  0  0  0  0  0  0
   44.1163   36.7032   44.2293 H   0  0  0  0  0  0  0  0  0  0  0  0
   45.2489   36.4758   41.9986 H   0  0  0  0  0  0  0  0  0  0  0  0
   45.9712   33.1740   45.6108 H   0  0  0  0  0  0  0  0  0  0  0  0
   49.7738   36.2996   41.2861 H   0  0  0  0  0  0  0  0  0  0  0  0
   48.4996   36.2116   42.5786 H   0  0  0  0  0  0  0  0  0  0  0  0
   50.9016   35.2033   42.9201 H   0  0  0  0  0  0  0  0  0  0  0  0
   49.3753   34.4045   43.5443 H   0  0  0  0  0  0  0  0  0  0  0  0
   50.4545   33.9642   40.9916 H   0  0  0  0  0  0  0  0  0  0  0  0
   51.6922   31.6959   41.9012 H   0  0  0  0  0  0  0  0  0  0  0  0
   51.7748   32.2621   43.3573 H   0  0  0  0  0  0  0  0  0  0  0  0
   48.7350   31.9843   43.1540 H   0  0  0  0  0  0  0  0  0  0  0  0
   47.6174   30.7651   42.8759 H   0  0  0  0  0  0  0  0  0  0  0  0
   47.0796   31.5301   41.3422 H   0  0  0  0  0  0  0  0  0  0  0  0
   47.6622   29.8310   41.3422 H   0  0  0  0  0  0  0  0  0  0  0  0
  1 12  1  0
  2  1  2  0
  2 16  1  0
  3  2  1  0
  4  3  1  0
  4  9  2  0
  5  4  1  0
  6  5  2  0
  6  7  1  0
  7  8  2  0
  8  9  1  0
  9  1  1  0
 10 15  2  0
 11 10  1  0
 12 11  2  0
 12 13  1  0
 13 14  2  0
 14 15  1  0
 16 17  1  0
 18 20  1  0
 18 19  1  0
 18 17  1  0
 20 19  1  0
 21 22  1  0
 21 20  1  0
  3 23  1  0
  5 24  1  0
  6 25  1  0
  7 26  1  0
  8 27  1  0
 10 28  1  0
 11 29  1  0
 14 30  1  0
 16 31  1  0
 16 32  1  0
 17 33  1  0
 17 34  1  0
 18 35  1  6
 19 36  1  0
 19 37  1  0
 20 38  1  1
 22 39  1  0
 22 40  1  0
 22 41  1  0
M  ISO  8  23   9  24  14  25  14  26  14  27  14  28  14  29  14  30  14
M  ISO  8  31   8  32   8  33   8  34   8  35  13  36  13  37  13  38  13
M  ISO  3  39   8  40   8  41   8
M  END
>  <minimizedAffinity>  (1) 
-5.53753901

>  <minimizedRMSD>  (1) 
0.104154438

$$$$
