
     RDKit          3D

 50 53  0  0  1  0  0  0  0  0999 V2000
   46.9360   34.5100   41.2950 C   0  0  0  0  0  0  0  0  0  0  0  0
   48.1930   34.9470   40.9230 C   0  0  0  0  0  0  0  0  0  0  0  0
   48.4490   34.6380   39.6710 N   0  0  0  0  0  0  0  0  0  0  0  0
   47.3610   33.9910   39.1990 C   0  0  0  0  0  0  0  0  0  0  0  0
   47.1160   33.4480   37.9330 C   0  0  0  0  0  0  0  0  0  0  0  0
   45.9170   32.8360   37.7230 C   0  0  0  0  0  0  0  0  0  0  0  0
   44.9130   32.7000   38.6460 C   0  0  0  0  0  0  0  0  0  0  0  0
   45.2110   33.2530   39.8740 C   0  0  0  0  0  0  0  0  0  0  0  0
   46.3960   33.8910   40.1770 C   0  0  0  0  0  0  0  0  0  0  0  0
   44.7880   35.8430   44.0400 C   0  0  0  0  0  0  0  0  0  0  0  0
   45.4220   35.7350   42.7830 C   0  0  0  0  0  0  0  0  0  0  0  0
   46.2700   34.6490   42.5860 C   0  0  0  0  0  0  0  0  0  0  0  0
   46.4510   33.7520   43.5940 N   0  0  0  0  0  0  0  0  0  0  0  0
   45.8100   33.9090   44.7900 C   0  0  0  0  0  0  0  0  0  0  0  0
   44.9840   34.9450   45.0150 N   0  0  0  0  0  0  0  0  0  0  0  0
   49.1070   35.6690   41.8520 C   0  0  0  0  0  0  0  0  0  0  0  0
   49.9820   34.7270   42.6250 C   0  0  0  0  0  0  0  0  0  0  0  0
   50.2530   33.4220   41.9260 C   0  0  1  0  0  0  0  0  0  0  0  0
   51.0910   32.3660   42.4490 C   0  0  0  0  0  0  0  0  0  0  0  0
   49.6050   32.1940   42.5830 C   0  0  2  0  0  0  0  0  0  0  0  0
   49.0450   31.2490   41.8050 O   0  0  0  0  0  0  0  0  0  0  0  0
   48.1960   30.3280   42.2640 C   0  0  0  0  0  0  0  0  0  0  0  0
   46.7580   30.4950   41.7970 C   0  0  0  0  0  0  0  0  0  0  0  0
   48.5300   28.8800   42.1060 C   0  0  0  0  0  0  0  0  0  0  0  0
   48.1080   30.5530   43.7920 C   0  0  0  0  0  0  0  0  0  0  0  0
   49.3125   34.8486   39.1504 H   0  0  0  0  0  0  0  0  0  0  0  0
   47.8677   33.5132   37.1325 H   0  0  0  0  0  0  0  0  0  0  0  0
   45.7388   32.4132   36.7232 H   0  0  0  0  0  0  0  0  0  0  0  0
   43.9593   32.1971   38.4280 H   0  0  0  0  0  0  0  0  0  0  0  0
   44.4514   33.1803   40.6663 H   0  0  0  0  0  0  0  0  0  0  0  0
   44.1120   36.6909   44.2246 H   0  0  0  0  0  0  0  0  0  0  0  0
   45.2525   36.4794   41.9911 H   0  0  0  0  0  0  0  0  0  0  0  0
   45.9738   33.1698   45.5880 H   0  0  0  0  0  0  0  0  0  0  0  0
   49.7454   36.3470   41.2665 H   0  0  0  0  0  0  0  0  0  0  0  0
   48.4891   36.2263   42.5715 H   0  0  0  0  0  0  0  0  0  0  0  0
   50.9450   35.2250   42.8112 H   0  0  0  0  0  0  0  0  0  0  0  0
   49.4420   34.4828   43.5517 H   0  0  0  0  0  0  0  0  0  0  0  0
   50.2704   33.9359   40.9536 H   0  0  0  0  0  0  0  0  0  0  0  0
   51.6506   31.7233   41.7535 H   0  0  0  0  0  0  0  0  0  0  0  0
   51.9275   32.3412   43.1629 H   0  0  0  0  0  0  0  0  0  0  0  0
   48.8726   32.0380   43.3888 H   0  0  0  0  0  0  0  0  0  0  0  0
   46.0951   30.5720   42.6714 H   0  0  0  0  0  0  0  0  0  0  0  0
   46.6731   31.4090   41.1909 H   0  0  0  0  0  0  0  0  0  0  0  0
   46.4659   29.6247   41.1909 H   0  0  0  0  0  0  0  0  0  0  0  0
   48.6366   28.4179   43.0985 H   0  0  0  0  0  0  0  0  0  0  0  0
   47.7245   28.3763   41.5516 H   0  0  0  0  0  0  0  0  0  0  0  0
   49.4748   28.7800   41.5516 H   0  0  0  0  0  0  0  0  0  0  0  0
   48.4603   29.6523   44.3161 H   0  0  0  0  0  0  0  0  0  0  0  0
   48.7370   31.4105   44.0732 H   0  0  0  0  0  0  0  0  0  0  0  0
   47.0641   30.7562   44.0732 H   0  0  0  0  0  0  0  0  0  0  0  0
  1 12  1  0
  2  1  2  0
  2 16  1  0
  3  2  1  0
  4  3  1  0
  4  9  2  0
  5  4  1  0
  6  5  2  0
  6  7  1  0
  7  8  2  0
  8  9  1  0
  9  1  1  0
 10 15  2  0
 11 10  1  0
 12 11  2  0
 12 13  1  0
 13 14  2  0
 14 15  1  0
 16 17  1  0
 18 19  1  0
 18 20  1  0
 18 17  1  0
 19 20  1  0
 21 22  1  0
 21 20  1  0
 22 25  1  0
 23 22  1  0
 24 22  1  0
  3 26  1  0
  5 27  1  0
  6 28  1  0
  7 29  1  0
  8 30  1  0
 10 31  1  0
 11 32  1  0
 14 33  1  0
 16 34  1  0
 16 35  1  0
 17 36  1  0
 17 37  1  0
 18 38  1  6
 19 39  1  0
 19 40  1  0
 20 41  1  1
 23 42  1  0
 23 43  1  0
 23 44  1  0
 24 45  1  0
 24 46  1  0
 24 47  1  0
 25 48  1  0
 25 49  1  0
 25 50  1  0
M  ISO  8  26   9  27  14  28  14  29  14  30  14  31  14  32  14  33  14
M  ISO  8  34   8  35   8  36   8  37   8  38  13  39  13  40  13  41  13
M  ISO  8  42   8  43   8  44   8  45   8  46   8  47   8  48   8  49   8
M  ISO  1  50   8
M  END
>  <minimizedAffinity>  (1) 
-5.50655603

>  <minimizedRMSD>  (1) 
0.150454924

$$$$
