
     RDKit          3D

 45 49  0  0  1  0  0  0  0  0999 V2000
   46.9290   34.5080   41.3180 C   0  0  0  0  0  0  0  0  0  0  0  0
   48.1960   34.9320   40.9360 C   0  0  0  0  0  0  0  0  0  0  0  0
   48.4560   34.6290   39.6860 N   0  0  0  0  0  0  0  0  0  0  0  0
   47.3590   33.9960   39.2190 C   0  0  0  0  0  0  0  0  0  0  0  0
   47.1160   33.4650   37.9420 C   0  0  0  0  0  0  0  0  0  0  0  0
   45.9040   32.8640   37.7200 C   0  0  0  0  0  0  0  0  0  0  0  0
   44.8990   32.7390   38.6570 C   0  0  0  0  0  0  0  0  0  0  0  0
   45.2050   33.2800   39.8800 C   0  0  0  0  0  0  0  0  0  0  0  0
   46.3880   33.8970   40.1920 C   0  0  0  0  0  0  0  0  0  0  0  0
   44.7850   35.8590   44.0430 C   0  0  0  0  0  0  0  0  0  0  0  0
   45.4170   35.7410   42.7910 C   0  0  0  0  0  0  0  0  0  0  0  0
   46.2660   34.6490   42.6070 C   0  0  0  0  0  0  0  0  0  0  0  0
   46.4540   33.7470   43.6230 N   0  0  0  0  0  0  0  0  0  0  0  0
   45.8110   33.9230   44.8070 C   0  0  0  0  0  0  0  0  0  0  0  0
   44.9830   34.9630   45.0260 N   0  0  0  0  0  0  0  0  0  0  0  0
   49.1150   35.6430   41.8730 C   0  0  0  0  0  0  0  0  0  0  0  0
   49.9570   34.6930   42.6610 C   0  0  0  0  0  0  0  0  0  0  0  0
   50.3150   33.4210   41.9350 C   0  0  1  0  0  0  0  0  0  0  0  0
   51.0490   32.3210   42.5550 C   0  0  0  0  0  0  0  0  0  0  0  0
   49.5740   32.1640   42.4790 C   0  0  2  0  0  0  0  0  0  0  0  0
   49.1010   31.2580   41.5780 O   0  0  0  0  0  0  0  0  0  0  0  0
   47.7750   30.9150   41.6900 C   0  0  0  0  0  0  0  0  0  0  0  0
   47.5300   29.4050   41.6710 C   0  0  0  0  0  0  0  0  0  0  0  0
   47.2360   30.2270   42.8850 C   0  0  0  0  0  0  0  0  0  0  0  0
   49.3217   34.8329   39.1665 H   0  0  0  0  0  0  0  0  0  0  0  0
   47.8728   33.5291   37.1463 H   0  0  0  0  0  0  0  0  0  0  0  0
   45.7186   32.4497   36.7180 H   0  0  0  0  0  0  0  0  0  0  0  0
   43.9378   32.2491   38.4425 H   0  0  0  0  0  0  0  0  0  0  0  0
   44.4427   33.2134   40.6702 H   0  0  0  0  0  0  0  0  0  0  0  0
   44.1097   36.7085   44.2226 H   0  0  0  0  0  0  0  0  0  0  0  0
   45.2489   36.4780   41.9919 H   0  0  0  0  0  0  0  0  0  0  0  0
   45.9718   33.1922   45.6133 H   0  0  0  0  0  0  0  0  0  0  0  0
   49.7747   36.3030   41.2906 H   0  0  0  0  0  0  0  0  0  0  0  0
   48.4998   36.2184   42.5805 H   0  0  0  0  0  0  0  0  0  0  0  0
   50.8906   35.2069   42.9335 H   0  0  0  0  0  0  0  0  0  0  0  0
   49.3576   34.3955   43.5340 H   0  0  0  0  0  0  0  0  0  0  0  0
   50.4737   33.9607   40.9897 H   0  0  0  0  0  0  0  0  0  0  0  0
   51.6920   31.6826   41.9312 H   0  0  0  0  0  0  0  0  0  0  0  0
   51.7719   32.2677   43.3824 H   0  0  0  0  0  0  0  0  0  0  0  0
   48.7496   31.9818   43.1841 H   0  0  0  0  0  0  0  0  0  0  0  0
   47.4442   31.8172   41.1547 H   0  0  0  0  0  0  0  0  0  0  0  0
   46.7072   28.9849   41.0740 H   0  0  0  0  0  0  0  0  0  0  0  0
   48.1359   28.5131   41.4535 H   0  0  0  0  0  0  0  0  0  0  0  0
   47.8646   30.1191   43.7813 H   0  0  0  0  0  0  0  0  0  0  0  0
   46.3470   30.3708   43.5166 H   0  0  0  0  0  0  0  0  0  0  0  0
  1 12  1  0
  2  1  2  0
  2 16  1  0
  3  2  1  0
  4  3  1  0
  4  9  2  0
  5  4  1  0
  6  5  2  0
  6  7  1  0
  7  8  2  0
  8  9  1  0
  9  1  1  0
 10 15  2  0
 11 10  1  0
 12 11  2  0
 12 13  1  0
 13 14  2  0
 14 15  1  0
 16 17  1  0
 18 20  1  0
 18 19  1  0
 18 17  1  0
 20 19  1  0
 21 22  1  0
 21 20  1  0
 22 24  1  0
 23 22  1  0
 23 24  1  0
  3 25  1  0
  5 26  1  0
  6 27  1  0
  7 28  1  0
  8 29  1  0
 10 30  1  0
 11 31  1  0
 14 32  1  0
 16 33  1  0
 16 34  1  0
 17 35  1  0
 17 36  1  0
 18 37  1  6
 19 38  1  0
 19 39  1  0
 20 40  1  1
 22 41  1  0
 23 42  1  0
 23 43  1  0
 24 44  1  0
 24 45  1  0
M  ISO  8  25   9  26  14  27  14  28  14  29  14  30  14  31  14  32  14
M  ISO  8  33   8  34   8  35   8  36   8  37  13  38  13  39  13  40  13
M  ISO  5  41  13  42  13  43  13  44  13  45  13
M  END
>  <minimizedAffinity>  (1) 
-5.36806822

>  <minimizedRMSD>  (1) 
0.2871795

$$$$
