
     RDKit          3D

 54 56  0  0  0  0  0  0  0  0999 V2000
   47.4280   32.9030   38.3790 C   0  0  0  0  0  0  0  0  0  0  0  0
   46.2200   34.4620   41.4580 C   0  0  0  0  0  0  0  0  0  0  0  0
   47.3260   35.1740   41.9140 C   0  0  0  0  0  0  0  0  0  0  0  0
   48.5150   35.1340   41.1670 C   0  0  0  0  0  0  0  0  0  0  0  0
   48.5140   34.3890   40.0280 N   0  0  0  0  0  0  0  0  0  0  0  0
   47.4160   33.7120   39.6220 C   0  0  0  0  0  0  0  0  0  0  0  0
   46.3060   33.7570   40.3310 N   0  0  0  0  0  0  0  0  0  0  0  0
   45.0080   34.5130   42.2340 C   0  0  0  0  0  0  0  0  0  0  0  0
   43.8810   34.4540   41.6430 O   0  0  0  0  0  0  0  0  0  0  0  0
   45.1290   34.6290   43.6330 O   0  0  0  0  0  0  0  0  0  0  0  0
   44.5660   35.7690   44.2610 C   0  0  0  0  0  0  0  0  0  0  0  0
   43.1930   35.8620   44.0260 F   0  0  0  0  0  0  0  0  0  0  0  0
   44.7520   35.6690   45.6170 F   0  0  0  0  0  0  0  0  0  0  0  0
   45.1440   36.8730   43.6940 F   0  0  0  0  0  0  0  0  0  0  0  0
   47.2160   31.4570   38.6040 C   0  0  0  0  0  0  0  0  0  0  0  0
   46.3690   33.4260   37.4580 C   0  0  0  0  0  0  0  0  0  0  0  0
   48.7740   33.1410   37.7210 C   0  0  0  0  0  0  0  0  0  0  0  0
   48.8190   32.6620   36.3230 C   0  0  0  0  0  0  0  0  0  0  0  0
   49.5620   31.5290   36.0050 C   0  0  0  0  0  0  0  0  0  0  0  0
   49.3920   31.3580   34.6340 C   0  0  0  0  0  0  0  0  0  0  0  0
   48.5970   32.3290   34.1640 N   0  0  0  0  0  0  0  0  0  0  0  0
   48.2730   33.0800   35.1680 N   0  0  0  0  0  0  0  0  0  0  0  0
   48.1810   32.5020   32.7890 C   0  0  0  0  0  0  0  0  0  0  0  0
   48.9170   31.6110   31.8200 C   0  0  0  0  0  0  0  0  0  0  0  0
   48.0440   30.4540   31.3590 C   0  0  0  0  0  0  0  0  0  0  0  0
   48.7430   29.9210   30.1000 C   0  0  0  0  0  0  0  0  0  0  0  0
   48.2810   30.9100   29.0240 C   0  0  0  0  0  0  0  0  0  0  0  0
   48.8330   32.2450   29.3750 C   0  0  0  0  0  0  0  0  0  0  0  0
   49.5490   32.3440   30.6820 C   0  0  0  0  0  0  0  0  0  0  0  0
   47.2697   35.7584   42.8442 H   0  0  0  0  0  0  0  0  0  0  0  0
   49.4117   35.6833   41.4900 H   0  0  0  0  0  0  0  0  0  0  0  0
   47.1863   31.2546   39.6848 H   0  0  0  0  0  0  0  0  0  0  0  0
   46.2633   31.1507   38.1473 H   0  0  0  0  0  0  0  0  0  0  0  0
   48.0406   30.8901   38.1473 H   0  0  0  0  0  0  0  0  0  0  0  0
   45.5379   33.8364   38.0504 H   0  0  0  0  0  0  0  0  0  0  0  0
   46.7933   34.2181   36.8236 H   0  0  0  0  0  0  0  0  0  0  0  0
   45.9979   32.6075   36.8236 H   0  0  0  0  0  0  0  0  0  0  0  0
   48.9839   34.2208   37.7298 H   0  0  0  0  0  0  0  0  0  0  0  0
   49.5264   32.5753   38.2901 H   0  0  0  0  0  0  0  0  0  0  0  0
   50.1551   30.9040   36.6889 H   0  0  0  0  0  0  0  0  0  0  0  0
   49.8393   30.5534   34.0319 H   0  0  0  0  0  0  0  0  0  0  0  0
   47.1062   32.2783   32.7199 H   0  0  0  0  0  0  0  0  0  0  0  0
   48.4103   33.5412   32.5104 H   0  0  0  0  0  0  0  0  0  0  0  0
   49.7634   31.1861   32.3795 H   0  0  0  0  0  0  0  0  0  0  0  0
   47.9910   29.6746   32.1334 H   0  0  0  0  0  0  0  0  0  0  0  0
   47.0077   30.7655   31.1613 H   0  0  0  0  0  0  0  0  0  0  0  0
   49.8369   29.9393   30.2141 H   0  0  0  0  0  0  0  0  0  0  0  0
   48.4962   28.8740   29.8700 H   0  0  0  0  0  0  0  0  0  0  0  0
   47.1821   30.9527   29.0005 H   0  0  0  0  0  0  0  0  0  0  0  0
   48.6343   30.5943   28.0313 H   0  0  0  0  0  0  0  0  0  0  0  0
   49.5400   32.5337   28.5832 H   0  0  0  0  0  0  0  0  0  0  0  0
   47.9597   32.9072   29.4690 H   0  0  0  0  0  0  0  0  0  0  0  0
   50.5641   31.9436   30.5432 H   0  0  0  0  0  0  0  0  0  0  0  0
   49.5255   33.4084   30.9588 H   0  0  0  0  0  0  0  0  0  0  0  0
  1 15  1  0
  1  6  1  0
  2  3  2  0
  2  8  1  0
  4  3  1  0
  5  4  2  0
  6  5  1  0
  6  7  2  0
  7  2  1  0
  8 10  1  0
  9  8  2  0
 10 11  1  0
 11 13  1  0
 12 11  1  0
 14 11  1  0
 16  1  1  0
 17  1  1  0
 18 17  1  0
 19 18  1  0
 20 19  2  0
 21 20  1  0
 21 22  1  0
 22 18  2  0
 23 21  1  0
 24 23  1  0
 25 24  1  0
 26 25  1  0
 27 28  1  0
 27 26  1  0
 28 29  1  0
 29 24  1  0
  3 30  1  0
  4 31  1  0
 15 32  1  0
 15 33  1  0
 15 34  1  0
 16 35  1  0
 16 36  1  0
 16 37  1  0
 17 38  1  0
 17 39  1  0
 19 40  1  0
 20 41  1  0
 23 42  1  0
 23 43  1  0
 24 44  1  0
 25 45  1  0
 25 46  1  0
 26 47  1  0
 26 48  1  0
 27 49  1  0
 27 50  1  0
 28 51  1  0
 28 52  1  0
 29 53  1  0
 29 54  1  0
M  ISO  8  30  14  31  14  32   8  33   8  34   8  35   8  36   8  37   8
M  ISO  8  38   8  39   8  40  14  41  14  42   8  43   8  44  13  45  13
M  ISO  8  46  13  47  13  48  13  49  13  50  13  51  13  52  13  53  13
M  ISO  1  54  13
M  END
>  <minimizedAffinity>  (1) 
-6.07698584

>  <minimizedRMSD>  (1) 
1.54863012

$$$$
