
     RDKit          3D

 50 54  0  0  1  0  0  0  0  0999 V2000
   49.1030   35.6900   41.7930 C   0  0  0  0  0  0  0  0  0  0  0  0
   46.9040   34.5310   41.2640 C   0  0  0  0  0  0  0  0  0  0  0  0
   48.1800   34.9520   40.8800 C   0  0  0  0  0  0  0  0  0  0  0  0
   48.4340   34.6190   39.6380 N   0  0  0  0  0  0  0  0  0  0  0  0
   47.3460   33.9780   39.1760 C   0  0  0  0  0  0  0  0  0  0  0  0
   47.1090   33.4270   37.9110 C   0  0  0  0  0  0  0  0  0  0  0  0
   45.8970   32.8260   37.7010 C   0  0  0  0  0  0  0  0  0  0  0  0
   44.8820   32.7200   38.6470 C   0  0  0  0  0  0  0  0  0  0  0  0
   45.1780   33.2780   39.8580 C   0  0  0  0  0  0  0  0  0  0  0  0
   46.3570   33.8980   40.1620 C   0  0  0  0  0  0  0  0  0  0  0  0
   44.7940   35.9750   43.9750 C   0  0  0  0  0  0  0  0  0  0  0  0
   45.4280   35.8300   42.7230 C   0  0  0  0  0  0  0  0  0  0  0  0
   46.2390   34.7010   42.5530 C   0  0  0  0  0  0  0  0  0  0  0  0
   46.3880   33.7990   43.5770 N   0  0  0  0  0  0  0  0  0  0  0  0
   45.7510   33.9950   44.7590 C   0  0  0  0  0  0  0  0  0  0  0  0
   44.9580   35.0720   44.9640 N   0  0  0  0  0  0  0  0  0  0  0  0
   50.0060   34.7550   42.5270 C   0  0  0  0  0  0  0  0  0  0  0  0
   50.0750   33.3650   41.9560 C   0  0  1  0  0  0  0  0  0  0  0  0
   51.0060   32.3320   42.4250 C   0  0  0  0  0  0  0  0  0  0  0  0
   49.6100   32.2880   42.9460 C   0  0  2  0  0  0  0  0  0  0  0  0
   48.8340   31.2410   42.4880 O   0  0  0  0  0  0  0  0  0  0  0  0
   48.1250   30.3520   43.2430 C   0  0  0  0  0  0  0  0  0  0  0  0
   47.3470   29.5000   42.7600 O   0  0  0  0  0  0  0  0  0  0  0  0
   48.1110   30.1890   44.7320 C   0  0  0  0  0  0  0  0  0  0  0  0
   49.0340   29.3980   45.3700 C   0  0  0  0  0  0  0  0  0  0  0  0
   49.0120   29.2650   46.7650 C   0  0  0  0  0  0  0  0  0  0  0  0
   48.0830   29.9130   47.5210 C   0  0  0  0  0  0  0  0  0  0  0  0
   47.1410   30.7140   46.9280 C   0  0  0  0  0  0  0  0  0  0  0  0
   47.2140   30.8040   45.5650 C   0  0  0  0  0  0  0  0  0  0  0  0
   48.5066   36.2579   42.5223 H   0  0  0  0  0  0  0  0  0  0  0  0
   49.7236   36.3654   41.1858 H   0  0  0  0  0  0  0  0  0  0  0  0
   49.3008   34.8114   39.1160 H   0  0  0  0  0  0  0  0  0  0  0  0
   47.8678   33.4751   37.1160 H   0  0  0  0  0  0  0  0  0  0  0  0
   45.7110   32.3932   36.7070 H   0  0  0  0  0  0  0  0  0  0  0  0
   43.9210   32.2277   38.4369 H   0  0  0  0  0  0  0  0  0  0  0  0
   44.4118   33.2244   40.6455 H   0  0  0  0  0  0  0  0  0  0  0  0
   44.1483   36.8482   44.1496 H   0  0  0  0  0  0  0  0  0  0  0  0
   45.2918   36.5683   41.9190 H   0  0  0  0  0  0  0  0  0  0  0  0
   45.8822   33.2620   45.5686 H   0  0  0  0  0  0  0  0  0  0  0  0
   51.0205   35.1800   42.5160 H   0  0  0  0  0  0  0  0  0  0  0  0
   49.5886   34.6530   43.5396 H   0  0  0  0  0  0  0  0  0  0  0  0
   49.8593   33.7288   40.9406 H   0  0  0  0  0  0  0  0  0  0  0  0
   51.3500   31.5540   41.7275 H   0  0  0  0  0  0  0  0  0  0  0  0
   51.9973   32.3579   42.9010 H   0  0  0  0  0  0  0  0  0  0  0  0
   49.1095   32.3078   43.9253 H   0  0  0  0  0  0  0  0  0  0  0  0
   49.7960   28.8650   44.7824 H   0  0  0  0  0  0  0  0  0  0  0  0
   49.7588   28.6255   47.2583 H   0  0  0  0  0  0  0  0  0  0  0  0
   48.0882   29.7931   48.6144 H   0  0  0  0  0  0  0  0  0  0  0  0
   46.3766   31.2492   47.5104 H   0  0  0  0  0  0  0  0  0  0  0  0
   46.4637   31.4461   45.0805 H   0  0  0  0  0  0  0  0  0  0  0  0
  1 17  1  0
  2 13  1  0
  3  2  2  0
  3  1  1  0
  4  3  1  0
  5  4  1  0
  5 10  2  0
  6  5  1  0
  7  6  2  0
  7  8  1  0
  8  9  2  0
  9 10  1  0
 10  2  1  0
 11 16  2  0
 12 11  1  0
 13 12  2  0
 13 14  1  0
 14 15  2  0
 15 16  1  0
 18 19  1  0
 18 17  1  0
 18 20  1  0
 19 20  1  0
 21 20  1  0
 21 22  1  0
 22 24  1  0
 23 22  2  0
 24 25  2  0
 24 29  1  0
 25 26  1  0
 26 27  2  0
 28 27  1  0
 29 28  2  0
  1 30  1  0
  1 31  1  0
  4 32  1  0
  6 33  1  0
  7 34  1  0
  8 35  1  0
  9 36  1  0
 11 37  1  0
 12 38  1  0
 15 39  1  0
 17 40  1  0
 17 41  1  0
 18 42  1  6
 19 43  1  0
 19 44  1  0
 20 45  1  1
 25 46  1  0
 26 47  1  0
 27 48  1  0
 28 49  1  0
 29 50  1  0
M  ISO  8  30   8  31   8  32   9  33  14  34  14  35  14  36  14  37  14
M  ISO  8  38  14  39  14  40   8  41   8  42  13  43  13  44  13  45  13
M  ISO  5  46  14  47  14  48  14  49  14  50  14
M  END
>  <minimizedAffinity>  (1) 
-5.90066338

>  <minimizedRMSD>  (1) 
2.18623781

$$$$
