
     RDKit          3D

 47 51  0  0  1  0  0  0  0  0999 V2000
   46.8580   34.5460   41.3740 C   0  0  0  0  0  0  0  0  0  0  0  0
   48.1440   34.9100   40.9710 C   0  0  0  0  0  0  0  0  0  0  0  0
   48.3730   34.5550   39.7320 N   0  0  0  0  0  0  0  0  0  0  0  0
   47.2510   33.9520   39.2890 C   0  0  0  0  0  0  0  0  0  0  0  0
   46.9760   33.3960   38.0320 C   0  0  0  0  0  0  0  0  0  0  0  0
   45.7400   32.8450   37.8470 C   0  0  0  0  0  0  0  0  0  0  0  0
   44.7330   32.7880   38.7990 C   0  0  0  0  0  0  0  0  0  0  0  0
   45.0670   33.3490   40.0040 C   0  0  0  0  0  0  0  0  0  0  0  0
   46.2720   33.9220   40.2850 C   0  0  0  0  0  0  0  0  0  0  0  0
   44.7110   36.0170   44.0410 C   0  0  0  0  0  0  0  0  0  0  0  0
   45.3180   35.8280   42.7880 C   0  0  0  0  0  0  0  0  0  0  0  0
   46.2180   34.7600   42.6710 C   0  0  0  0  0  0  0  0  0  0  0  0
   46.4720   33.9550   43.7520 N   0  0  0  0  0  0  0  0  0  0  0  0
   45.8550   34.1880   44.9370 C   0  0  0  0  0  0  0  0  0  0  0  0
   44.9800   35.2090   45.0890 N   0  0  0  0  0  0  0  0  0  0  0  0
   49.1100   35.6210   41.8650 C   0  0  0  0  0  0  0  0  0  0  0  0
   49.9480   34.6580   42.6320 C   0  0  0  0  0  0  0  0  0  0  0  0
   50.2370   33.3590   41.9270 C   0  0  1  0  0  0  0  0  0  0  0  0
   50.9730   32.2460   42.5360 C   0  0  0  0  0  0  0  0  0  0  0  0
   49.4900   32.1670   42.5320 C   0  0  2  0  0  0  0  0  0  0  0  0
   48.9370   31.2210   41.6900 O   0  0  0  0  0  0  0  0  0  0  0  0
   47.6340   30.8160   41.6540 C   0  0  0  0  0  0  0  0  0  0  0  0
   47.0460   30.4730   40.6000 O   0  0  0  0  0  0  0  0  0  0  0  0
   44.7520   30.6820   43.8620 N   0  0  0  0  0  0  0  0  0  0  0  0
   45.3340   30.8960   42.6680 N   0  0  0  0  0  0  0  0  0  0  0  0
   46.6520   30.6850   42.7770 C   0  0  0  0  0  0  0  0  0  0  0  0
   46.8390   30.3320   44.0950 C   0  0  0  0  0  0  0  0  0  0  0  0
   45.6520   30.3290   44.7830 C   0  0  0  0  0  0  0  0  0  0  0  0
   49.2413   34.7067   39.1991 H   0  0  0  0  0  0  0  0  0  0  0  0
   47.7255   33.4031   37.2269 H   0  0  0  0  0  0  0  0  0  0  0  0
   45.5251   32.4098   36.8599 H   0  0  0  0  0  0  0  0  0  0  0  0
   43.7512   32.3320   38.6038 H   0  0  0  0  0  0  0  0  0  0  0  0
   44.3091   33.3361   40.8011 H   0  0  0  0  0  0  0  0  0  0  0  0
   43.9982   36.8446   44.1717 H   0  0  0  0  0  0  0  0  0  0  0  0
   45.0967   36.4888   41.9369 H   0  0  0  0  0  0  0  0  0  0  0  0
   46.0706   33.5325   45.7936 H   0  0  0  0  0  0  0  0  0  0  0  0
   49.7654   36.2562   41.2510 H   0  0  0  0  0  0  0  0  0  0  0  0
   48.5373   36.2291   42.5807 H   0  0  0  0  0  0  0  0  0  0  0  0
   50.9085   35.1452   42.8557 H   0  0  0  0  0  0  0  0  0  0  0  0
   49.3693   34.3966   43.5302 H   0  0  0  0  0  0  0  0  0  0  0  0
   50.3714   33.8686   40.9614 H   0  0  0  0  0  0  0  0  0  0  0  0
   51.5547   31.5654   41.8969 H   0  0  0  0  0  0  0  0  0  0  0  0
   51.7385   32.1775   43.3230 H   0  0  0  0  0  0  0  0  0  0  0  0
   48.6853   32.0581   43.2740 H   0  0  0  0  0  0  0  0  0  0  0  0
   43.7425   30.7781   44.0423 H   0  0  0  0  0  0  0  0  0  0  0  0
   47.8145   30.0843   44.5390 H   0  0  0  0  0  0  0  0  0  0  0  0
   45.4818   30.0917   45.8435 H   0  0  0  0  0  0  0  0  0  0  0  0
  1 12  1  0
  2  1  2  0
  2 16  1  0
  3  2  1  0
  4  3  1  0
  4  9  2  0
  5  4  1  0
  6  5  2  0
  6  7  1  0
  7  8  2  0
  8  9  1  0
  9  1  1  0
 10 15  2  0
 11 10  1  0
 12 11  2  0
 12 13  1  0
 13 14  2  0
 14 15  1  0
 16 17  1  0
 18 20  1  0
 18 19  1  0
 18 17  1  0
 20 19  1  0
 21 20  1  0
 22 21  1  0
 22 26  1  0
 23 22  2  0
 24 28  1  0
 25 26  2  0
 25 24  1  0
 26 27  1  0
 27 28  2  0
  3 29  1  0
  5 30  1  0
  6 31  1  0
  7 32  1  0
  8 33  1  0
 10 34  1  0
 11 35  1  0
 14 36  1  0
 16 37  1  0
 16 38  1  0
 17 39  1  0
 17 40  1  0
 18 41  1  6
 19 42  1  0
 19 43  1  0
 20 44  1  1
 24 45  1  0
 27 46  1  0
 28 47  1  0
M  ISO  8  29   9  30  14  31  14  32  14  33  14  34  14  35  14  36  14
M  ISO  8  37   8  38   8  39   8  40   8  41  13  42  13  43  13  44  13
M  ISO  3  45   9  46  14  47  14
M  END
>  <minimizedAffinity>  (1) 
-5.61774683

>  <minimizedRMSD>  (1) 
1.65081465

$$$$
