
     RDKit          3D

 21 22  0  0  0  0  0  0  0  0999 V2000
   43.7610   35.3390   42.1800 C   0  0  0  0  0  0  0  0  0  0  0  0
   43.4870   34.4500   41.1200 C   0  0  0  0  0  0  0  0  0  0  0  0
   43.9120   33.1340   41.2450 C   0  0  0  0  0  0  0  0  0  0  0  0
   44.5720   32.7330   42.3690 N   0  0  0  0  0  0  0  0  0  0  0  0
   44.8150   33.6250   43.3670 C   0  0  0  0  0  0  0  0  0  0  0  0
   44.4210   34.8960   43.2800 N   0  0  0  0  0  0  0  0  0  0  0  0
   45.4920   33.3150   44.5760 N   0  0  0  0  0  0  0  0  0  0  0  0
   46.2470   32.1960   44.5120 C   0  0  0  0  0  0  0  0  0  0  0  0
   46.9810   31.7390   45.6010 C   0  0  0  0  0  0  0  0  0  0  0  0
   46.9050   32.4880   46.7670 C   0  0  0  0  0  0  0  0  0  0  0  0
   47.5500   32.1120   47.7700 O   0  0  0  0  0  0  0  0  0  0  0  0
   46.1400   33.5930   46.7760 N   0  0  0  0  0  0  0  0  0  0  0  0
   45.4370   34.0130   45.6990 C   0  0  0  0  0  0  0  0  0  0  0  0
   44.7150   35.0510   45.7000 O   0  0  0  0  0  0  0  0  0  0  0  0
   42.6120   35.0170   39.6530 S   0  0  0  0  0  0  0  0  0  0  0  0
   43.4404   36.3893   42.1153 H   0  0  0  0  0  0  0  0  0  0  0  0
   43.7161   32.4142   40.4366 H   0  0  0  0  0  0  0  0  0  0  0  0
   46.2820   31.6295   43.5698 H   0  0  0  0  0  0  0  0  0  0  0  0
   47.5930   30.8269   45.5412 H   0  0  0  0  0  0  0  0  0  0  0  0
   46.0864   34.1459   47.6433 H   0  0  0  0  0  0  0  0  0  0  0  0
   41.5064   35.7334   40.0291 H   0  0  0  0  0  0  0  0  0  0  0  0
  1  6  2  0
  2  3  2  0
  2  1  1  0
  3  4  1  0
  4  5  2  0
  5  7  1  0
  6  5  1  0
  7 13  1  0
  8  7  1  0
  8  9  2  0
  9 10  1  0
 10 12  1  0
 10 11  2  0
 13 14  2  0
 13 12  1  0
 15  2  1  0
  1 16  1  0
  3 17  1  0
  8 18  1  0
  9 19  1  0
 12 20  1  0
 15 21  1  0
M  ISO  6  16  14  17  14  18  14  19  14  20   9  21  11
M  END
>  <minimizedAffinity>  (1) 
-4.69779253

>  <minimizedRMSD>  (1) 
2.54057598

$$$$
