
     RDKit          3D

 27 29  0  0  0  0  0  0  0  0999 V2000
   44.7110   35.4300   44.5370 C   0  0  0  0  0  0  0  0  0  0  0  0
   44.6540   34.7500   43.3080 C   0  0  0  0  0  0  0  0  0  0  0  0
   45.0050   33.4120   43.2830 C   0  0  0  0  0  0  0  0  0  0  0  0
   45.3890   32.8220   44.4670 N   0  0  0  0  0  0  0  0  0  0  0  0
   45.4310   33.5000   45.6190 C   0  0  0  0  0  0  0  0  0  0  0  0
   45.0970   34.7650   45.6270 N   0  0  0  0  0  0  0  0  0  0  0  0
   45.8720   32.6260   46.7000 C   0  0  0  0  0  0  0  0  0  0  0  0
   45.4380   32.7740   48.0010 C   0  0  0  0  0  0  0  0  0  0  0  0
   45.8160   31.9840   49.0660 C   0  0  0  0  0  0  0  0  0  0  0  0
   46.6960   30.9510   48.8550 C   0  0  0  0  0  0  0  0  0  0  0  0
   47.1670   30.7500   47.5760 C   0  0  0  0  0  0  0  0  0  0  0  0
   48.0450   29.7080   47.4050 C   0  0  0  0  0  0  0  0  0  0  0  0
   48.5680   29.4320   46.1590 C   0  0  0  0  0  0  0  0  0  0  0  0
   48.1620   30.2480   45.1260 C   0  0  0  0  0  0  0  0  0  0  0  0
   47.2790   31.2790   45.3550 C   0  0  0  0  0  0  0  0  0  0  0  0
   46.7410   31.5780   46.5860 C   0  0  0  0  0  0  0  0  0  0  0  0
   44.1470   35.5550   41.7900 S   0  0  0  0  0  0  0  0  0  0  0  0
   44.4413   36.4946   44.5989 H   0  0  0  0  0  0  0  0  0  0  0  0
   44.9782   32.8367   42.3458 H   0  0  0  0  0  0  0  0  0  0  0  0
   44.7307   33.5911   48.2061 H   0  0  0  0  0  0  0  0  0  0  0  0
   45.4175   32.1788   50.0726 H   0  0  0  0  0  0  0  0  0  0  0  0
   47.0158   30.3023   49.6838 H   0  0  0  0  0  0  0  0  0  0  0  0
   48.3331   29.0893   48.2677 H   0  0  0  0  0  0  0  0  0  0  0  0
   49.2730   28.6030   45.9984 H   0  0  0  0  0  0  0  0  0  0  0  0
   48.5464   30.0744   44.1101 H   0  0  0  0  0  0  0  0  0  0  0  0
   46.9845   31.9040   44.4991 H   0  0  0  0  0  0  0  0  0  0  0  0
   43.4345   36.6863   42.0890 H   0  0  0  0  0  0  0  0  0  0  0  0
  1  6  2  0
  2  1  1  0
  3  2  2  0
  3  4  1  0
  4  5  2  0
  5  6  1  0
  5  7  1  0
  7  8  2  0
  8  9  1  0
 10  9  2  0
 11 10  1  0
 12 11  2  0
 13 12  1  0
 14 15  1  0
 14 13  2  0
 15 16  2  0
 16  7  1  0
 16 11  1  0
 17  2  1  0
  1 18  1  0
  3 19  1  0
  8 20  1  0
  9 21  1  0
 10 22  1  0
 12 23  1  0
 13 24  1  0
 14 25  1  0
 15 26  1  0
 17 27  1  0
M  ISO  8  18  14  19  14  20  14  21  14  22  14  23  14  24  14  25  14
M  ISO  2  26  14  27  11
M  END
>  <minimizedAffinity>  (1) 
-4.89774132

>  <minimizedRMSD>  (1) 
0.989597738

$$$$
