
     RDKit          3D

 24 25  0  0  0  0  0  0  0  0999 V2000
   43.9610   35.3090   42.1900 C   0  0  0  0  0  0  0  0  0  0  0  0
   43.4260   34.4290   41.2250 C   0  0  0  0  0  0  0  0  0  0  0  0
   43.6160   33.0570   41.3820 C   0  0  0  0  0  0  0  0  0  0  0  0
   44.3160   32.6120   42.4710 N   0  0  0  0  0  0  0  0  0  0  0  0
   44.8100   33.4840   43.3690 C   0  0  0  0  0  0  0  0  0  0  0  0
   44.6380   34.8150   43.2380 N   0  0  0  0  0  0  0  0  0  0  0  0
   45.5510   33.0550   44.5260 N   0  0  0  0  0  0  0  0  0  0  0  0
   46.2580   31.9130   44.5740 C   0  0  0  0  0  0  0  0  0  0  0  0
   46.9270   31.6110   45.7400 C   0  0  0  0  0  0  0  0  0  0  0  0
   47.7200   30.3460   45.8130 C   0  0  0  0  0  0  0  0  0  0  0  0
   46.8840   32.4430   46.8380 C   0  0  0  0  0  0  0  0  0  0  0  0
   47.5120   32.1320   47.8920 O   0  0  0  0  0  0  0  0  0  0  0  0
   46.1780   33.5840   46.7940 N   0  0  0  0  0  0  0  0  0  0  0  0
   45.5400   33.8420   45.6360 C   0  0  0  0  0  0  0  0  0  0  0  0
   44.8710   34.9140   45.5820 O   0  0  0  0  0  0  0  0  0  0  0  0
   42.5070   35.0720   39.8030 S   0  0  0  0  0  0  0  0  0  0  0  0
   43.8236   36.3952   42.0835 H   0  0  0  0  0  0  0  0  0  0  0  0
   43.2117   32.3465   40.6459 H   0  0  0  0  0  0  0  0  0  0  0  0
   46.3013   31.2381   43.7064 H   0  0  0  0  0  0  0  0  0  0  0  0
   47.8876   30.0786   46.8668 H   0  0  0  0  0  0  0  0  0  0  0  0
   47.1670   29.5372   45.3130 H   0  0  0  0  0  0  0  0  0  0  0  0
   48.6890   30.4913   45.3130 H   0  0  0  0  0  0  0  0  0  0  0  0
   46.1271   34.2248   47.5988 H   0  0  0  0  0  0  0  0  0  0  0  0
   41.4443   35.8155   40.2444 H   0  0  0  0  0  0  0  0  0  0  0  0
  1  6  2  0
  2  3  2  0
  2  1  1  0
  3  4  1  0
  4  5  2  0
  5  7  1  0
  6  5  1  0
  7  8  1  0
  7 14  1  0
  8  9  2  0
  9 10  1  0
  9 11  1  0
 11 12  2  0
 13 11  1  0
 14 13  1  0
 15 14  2  0
 16  2  1  0
  1 17  1  0
  3 18  1  0
  8 19  1  0
 10 20  1  0
 10 21  1  0
 10 22  1  0
 13 23  1  0
 16 24  1  0
M  ISO  8  17  14  18  14  19  14  20   8  21   8  22   8  23   9  24  11
M  END
>  <minimizedAffinity>  (1) 
-4.90811443

>  <minimizedRMSD>  (1) 
2.70207453

$$$$
