
     RDKit          3D

 22 24  0  0  0  0  0  0  0  0999 V2000
   44.6090   35.3470   44.7950 C   0  0  0  0  0  0  0  0  0  0  0  0
   44.7700   34.8050   43.5000 C   0  0  0  0  0  0  0  0  0  0  0  0
   45.3410   33.5440   43.3670 C   0  0  0  0  0  0  0  0  0  0  0  0
   45.7210   32.8840   44.5000 N   0  0  0  0  0  0  0  0  0  0  0  0
   45.5540   33.4310   45.7150 C   0  0  0  0  0  0  0  0  0  0  0  0
   45.0100   34.6340   45.8650 N   0  0  0  0  0  0  0  0  0  0  0  0
   45.9740   32.6870   46.8560 N   0  0  0  0  0  0  0  0  0  0  0  0
   45.6410   32.8900   48.1460 C   0  0  0  0  0  0  0  0  0  0  0  0
   46.2410   31.9770   48.9380 N   0  0  0  0  0  0  0  0  0  0  0  0
   46.9720   31.1660   48.1830 C   0  0  0  0  0  0  0  0  0  0  0  0
   47.7980   30.0770   48.3120 C   0  0  0  0  0  0  0  0  0  0  0  0
   48.4200   29.4540   47.2940 N   0  0  0  0  0  0  0  0  0  0  0  0
   48.2250   29.9260   46.0380 C   0  0  0  0  0  0  0  0  0  0  0  0
   47.4140   31.0030   45.8640 N   0  0  0  0  0  0  0  0  0  0  0  0
   46.7960   31.6210   46.8850 C   0  0  0  0  0  0  0  0  0  0  0  0
   44.2460   35.7240   42.0330 S   0  0  0  0  0  0  0  0  0  0  0  0
   44.1602   36.3424   44.9280 H   0  0  0  0  0  0  0  0  0  0  0  0
   45.4827   33.0903   42.3750 H   0  0  0  0  0  0  0  0  0  0  0  0
   44.9736   33.6881   48.5032 H   0  0  0  0  0  0  0  0  0  0  0  0
   47.9643   29.6833   49.3256 H   0  0  0  0  0  0  0  0  0  0  0  0
   48.7135   29.4468   45.1767 H   0  0  0  0  0  0  0  0  0  0  0  0
   43.5948   36.8661   42.4181 H   0  0  0  0  0  0  0  0  0  0  0  0
  1  6  2  0
  2  1  1  0
  3  2  2  0
  3  4  1  0
  4  5  2  0
  5  6  1  0
  5  7  1  0
  7 15  1  0
  7  8  1  0
  8  9  2  0
 10 11  2  0
 10  9  1  0
 12 11  1  0
 13 12  2  0
 14 13  1  0
 14 15  2  0
 15 10  1  0
 16  2  1  0
  1 17  1  0
  3 18  1  0
  8 19  1  0
 11 20  1  0
 13 21  1  0
 16 22  1  0
M  ISO  6  17  14  18  14  19  14  20  14  21  14  22  11
M  END
>  <minimizedAffinity>  (1) 
-4.34921885

>  <minimizedRMSD>  (1) 
1.18473136

$$$$
