
     RDKit          3D

 17 18  0  0  0  0  0  0  0  0999 V2000
   44.5320   35.4770   44.6350 C   0  0  0  0  0  0  0  0  0  0  0  0
   44.7030   34.8260   43.3970 C   0  0  0  0  0  0  0  0  0  0  0  0
   45.2730   33.5430   43.3720 C   0  0  0  0  0  0  0  0  0  0  0  0
   45.6370   32.9830   44.5780 N   0  0  0  0  0  0  0  0  0  0  0  0
   45.4500   33.6530   45.7270 C   0  0  0  0  0  0  0  0  0  0  0  0
   44.9120   34.8730   45.7870 N   0  0  0  0  0  0  0  0  0  0  0  0
   45.8550   33.0020   46.9270 N   0  0  0  0  0  0  0  0  0  0  0  0
   47.0940   32.5010   47.2100 C   0  0  0  0  0  0  0  0  0  0  0  0
   47.1170   31.9570   48.4350 N   0  0  0  0  0  0  0  0  0  0  0  0
   45.8890   32.1060   48.9460 C   0  0  0  0  0  0  0  0  0  0  0  0
   45.1570   32.7410   48.0100 N   0  0  0  0  0  0  0  0  0  0  0  0
   44.2010   35.6190   41.8570 S   0  0  0  0  0  0  0  0  0  0  0  0
   44.0870   36.4825   44.6665 H   0  0  0  0  0  0  0  0  0  0  0  0
   45.4236   33.0044   42.4248 H   0  0  0  0  0  0  0  0  0  0  0  0
   47.9549   32.5388   46.5263 H   0  0  0  0  0  0  0  0  0  0  0  0
   45.5446   31.7747   49.9368 H   0  0  0  0  0  0  0  0  0  0  0  0
   43.4839   36.7517   42.1392 H   0  0  0  0  0  0  0  0  0  0  0  0
  1  6  2  0
  2  1  1  0
  3  2  2  0
  3  4  1  0
  4  5  2  0
  5  6  1  0
  5  7  1  0
  7  8  1  0
  7 11  1  0
  8  9  2  0
  9 10  1  0
 11 10  2  0
 12  2  1  0
  1 13  1  0
  3 14  1  0
  8 15  1  0
 10 16  1  0
 12 17  1  0
M  ISO  5  13  14  14  14  15  14  16  14  17  11
M  END
>  <minimizedAffinity>  (1) 
-4.15303516

>  <minimizedRMSD>  (1) 
0.722568989

$$$$
