
     RDKit          3D

 18 19  0  0  0  0  0  0  0  0999 V2000
   44.5600   35.4140   44.7980 C   0  0  0  0  0  0  0  0  0  0  0  0
   44.8110   34.8020   43.5480 C   0  0  0  0  0  0  0  0  0  0  0  0
   45.4240   33.5430   43.5250 C   0  0  0  0  0  0  0  0  0  0  0  0
   45.7560   32.9530   44.7190 N   0  0  0  0  0  0  0  0  0  0  0  0
   45.5000   33.5700   45.8840 C   0  0  0  0  0  0  0  0  0  0  0  0
   44.9110   34.7810   45.9310 N   0  0  0  0  0  0  0  0  0  0  0  0
   45.8560   32.9370   47.1490 C   0  0  0  0  0  0  0  0  0  0  0  0
   47.0730   32.3580   47.4440 C   0  0  0  0  0  0  0  0  0  0  0  0
   46.9730   31.8880   48.7350 C   0  0  0  0  0  0  0  0  0  0  0  0
   45.7480   32.1690   49.2020 N   0  0  0  0  0  0  0  0  0  0  0  0
   45.1180   32.7860   48.2390 N   0  0  0  0  0  0  0  0  0  0  0  0
   44.3550   35.6190   41.9950 S   0  0  0  0  0  0  0  0  0  0  0  0
   44.0801   36.4028   44.8430 H   0  0  0  0  0  0  0  0  0  0  0  0
   45.6348   33.0380   42.5708 H   0  0  0  0  0  0  0  0  0  0  0  0
   47.9479   32.2861   46.7811 H   0  0  0  0  0  0  0  0  0  0  0  0
   47.7670   31.3680   49.2910 H   0  0  0  0  0  0  0  0  0  0  0  0
   45.3771   31.9428   50.1359 H   0  0  0  0  0  0  0  0  0  0  0  0
   43.7009   36.7909   42.2704 H   0  0  0  0  0  0  0  0  0  0  0  0
  1  6  2  0
  2  1  1  0
  3  2  2  0
  3  4  1  0
  4  5  2  0
  5  6  1  0
  5  7  1  0
  7  8  1  0
  7 11  2  0
  8  9  2  0
  9 10  1  0
 11 10  1  0
 12  2  1  0
  1 13  1  0
  3 14  1  0
  8 15  1  0
  9 16  1  0
 10 17  1  0
 12 18  1  0
M  ISO  6  13  14  14  14  15  14  16  14  17   9  18  11
M  END
>  <minimizedAffinity>  (1) 
-4.02399111

>  <minimizedRMSD>  (1) 
0.967234612

$$$$
