
     RDKit          3D

 18 19  0  0  0  0  0  0  0  0999 V2000
   44.5550   35.3970   44.7780 C   0  0  0  0  0  0  0  0  0  0  0  0
   44.7730   34.8090   43.5080 C   0  0  0  0  0  0  0  0  0  0  0  0
   45.3980   33.5720   43.4320 C   0  0  0  0  0  0  0  0  0  0  0  0
   45.7810   32.9660   44.5950 N   0  0  0  0  0  0  0  0  0  0  0  0
   45.5610   33.5490   45.7910 C   0  0  0  0  0  0  0  0  0  0  0  0
   44.9560   34.7510   45.8860 N   0  0  0  0  0  0  0  0  0  0  0  0
   45.9680   32.9010   46.9880 N   0  0  0  0  0  0  0  0  0  0  0  0
   47.1720   32.3730   47.2870 C   0  0  0  0  0  0  0  0  0  0  0  0
   47.0910   31.8490   48.5720 C   0  0  0  0  0  0  0  0  0  0  0  0
   45.8410   32.0750   49.0160 N   0  0  0  0  0  0  0  0  0  0  0  0
   45.1510   32.7130   48.0620 C   0  0  0  0  0  0  0  0  0  0  0  0
   44.2430   35.6580   41.9970 S   0  0  0  0  0  0  0  0  0  0  0  0
   44.0605   36.3764   44.8568 H   0  0  0  0  0  0  0  0  0  0  0  0
   45.5804   33.0915   42.4595 H   0  0  0  0  0  0  0  0  0  0  0  0
   48.0567   32.3594   46.6335 H   0  0  0  0  0  0  0  0  0  0  0  0
   47.8980   31.3439   49.1230 H   0  0  0  0  0  0  0  0  0  0  0  0
   44.1007   33.0318   48.1335 H   0  0  0  0  0  0  0  0  0  0  0  0
   43.5392   36.7854   42.3296 H   0  0  0  0  0  0  0  0  0  0  0  0
  1  6  2  0
  2  1  1  0
  3  2  2  0
  3  4  1  0
  4  5  2  0
  5  6  1  0
  5  7  1  0
  7  8  1  0
  7 11  1  0
  8  9  2  0
  9 10  1  0
 11 10  2  0
 12  2  1  0
  1 13  1  0
  3 14  1  0
  8 15  1  0
  9 16  1  0
 11 17  1  0
 12 18  1  0
M  ISO  6  13  14  14  14  15  14  16  14  17  14  18  11
M  END
>  <minimizedAffinity>  (1) 
-4.08026314

>  <minimizedRMSD>  (1) 
0.884641945

$$$$
