
     RDKit          3D

 26 27  0  0  0  0  0  0  0  0999 V2000
   44.6010   32.8940   42.6630 C   0  0  0  0  0  0  0  0  0  0  0  0
   45.5030   33.9620   42.8830 C   0  0  0  0  0  0  0  0  0  0  0  0
   45.1860   35.2390   42.3960 C   0  0  0  0  0  0  0  0  0  0  0  0
   44.0030   35.3860   41.7230 N   0  0  0  0  0  0  0  0  0  0  0  0
   43.1700   34.3470   41.5310 C   0  0  0  0  0  0  0  0  0  0  0  0
   43.4520   33.1230   41.9870 N   0  0  0  0  0  0  0  0  0  0  0  0
   41.9410   34.5510   40.8180 N   0  0  0  0  0  0  0  0  0  0  0  0
   41.9480   35.0290   39.4470 C   0  0  0  0  0  0  0  0  0  0  0  0
   40.6680   35.7780   39.2100 C   0  0  0  0  0  0  0  0  0  0  0  0
   39.5610   34.7190   39.2370 C   0  0  0  0  0  0  0  0  0  0  0  0
   39.5630   33.9380   40.5250 C   0  0  0  0  0  0  0  0  0  0  0  0
   40.6770   34.2820   41.4580 C   0  0  0  0  0  0  0  0  0  0  0  0
   47.0380   33.6820   43.7800 S   0  0  0  0  0  0  0  0  0  0  0  0
   44.8323   31.8863   43.0385 H   0  0  0  0  0  0  0  0  0  0  0  0
   45.8638   36.0916   42.5495 H   0  0  0  0  0  0  0  0  0  0  0  0
   42.8067   35.6981   39.2894 H   0  0  0  0  0  0  0  0  0  0  0  0
   42.0311   34.1837   38.7481 H   0  0  0  0  0  0  0  0  0  0  0  0
   40.6934   36.2824   38.2328 H   0  0  0  0  0  0  0  0  0  0  0  0
   40.5052   36.5570   39.9694 H   0  0  0  0  0  0  0  0  0  0  0  0
   38.5876   35.2190   39.1257 H   0  0  0  0  0  0  0  0  0  0  0  0
   39.7418   34.0154   38.4110 H   0  0  0  0  0  0  0  0  0  0  0  0
   38.6110   34.1272   41.0426 H   0  0  0  0  0  0  0  0  0  0  0  0
   39.7015   32.8821   40.2495 H   0  0  0  0  0  0  0  0  0  0  0  0
   40.8166   33.4384   42.1500 H   0  0  0  0  0  0  0  0  0  0  0  0
   40.3813   35.2134   41.9630 H   0  0  0  0  0  0  0  0  0  0  0  0
   46.7942   33.7265   45.1274 H   0  0  0  0  0  0  0  0  0  0  0  0
  1  2  2  0
  2 13  1  0
  3  2  1  0
  4  3  2  0
  5  4  1  0
  5  6  2  0
  6  1  1  0
  7 12  1  0
  7  5  1  0
  8  7  1  0
  9 10  1  0
  9  8  1  0
 10 11  1  0
 11 12  1  0
  1 14  1  0
  3 15  1  0
  8 16  1  0
  8 17  1  0
  9 18  1  0
  9 19  1  0
 10 20  1  0
 10 21  1  0
 11 22  1  0
 11 23  1  0
 12 24  1  0
 12 25  1  0
 13 26  1  0
M  ISO  8  14  14  15  14  16  13  17  13  18  13  19  13  20  13  21  13
M  ISO  5  22  13  23  13  24  13  25  13  26  11
M  END
>  <minimizedAffinity>  (1) 
-4.14587259

>  <minimizedRMSD>  (1) 
7.35458088

$$$$
