
     RDKit          3D

 23 24  0  0  0  0  0  0  0  0999 V2000
   44.6790   35.0870   45.4130 C   0  0  0  0  0  0  0  0  0  0  0  0
   45.3960   34.9050   44.2060 C   0  0  0  0  0  0  0  0  0  0  0  0
   46.3680   33.8950   44.1470 C   0  0  0  0  0  0  0  0  0  0  0  0
   46.5790   33.1270   45.2740 N   0  0  0  0  0  0  0  0  0  0  0  0
   45.8580   33.3490   46.4060 C   0  0  0  0  0  0  0  0  0  0  0  0
   44.9310   34.3080   46.4700 N   0  0  0  0  0  0  0  0  0  0  0  0
   46.1290   32.5280   47.5090 N   0  0  0  0  0  0  0  0  0  0  0  0
   47.4220   31.9350   47.7910 C   0  0  0  0  0  0  0  0  0  0  0  0
   46.9960   30.5640   48.2770 C   0  0  0  0  0  0  0  0  0  0  0  0
   45.9030   30.9430   49.2520 C   0  0  0  0  0  0  0  0  0  0  0  0
   45.2390   32.1000   48.5710 C   0  0  0  0  0  0  0  0  0  0  0  0
   45.0860   35.9310   42.7640 S   0  0  0  0  0  0  0  0  0  0  0  0
   43.9117   35.8722   45.4815 H   0  0  0  0  0  0  0  0  0  0  0  0
   46.9461   33.7201   43.2276 H   0  0  0  0  0  0  0  0  0  0  0  0
   48.0450   31.8700   46.8868 H   0  0  0  0  0  0  0  0  0  0  0  0
   48.0414   32.5017   48.5018 H   0  0  0  0  0  0  0  0  0  0  0  0
   46.6094   29.9439   47.4548 H   0  0  0  0  0  0  0  0  0  0  0  0
   47.8065   29.9595   48.7101 H   0  0  0  0  0  0  0  0  0  0  0  0
   45.1977   30.1119   49.3995 H   0  0  0  0  0  0  0  0  0  0  0  0
   46.2799   31.1861   50.2564 H   0  0  0  0  0  0  0  0  0  0  0  0
   45.0809   32.9205   49.2863 H   0  0  0  0  0  0  0  0  0  0  0  0
   44.2563   31.8110   48.1700 H   0  0  0  0  0  0  0  0  0  0  0  0
   44.7074   37.1841   43.1680 H   0  0  0  0  0  0  0  0  0  0  0  0
  1  6  2  0
  2  1  1  0
  3  2  2  0
  3  4  1  0
  4  5  2  0
  5  6  1  0
  5  7  1  0
  7  8  1  0
  7 11  1  0
  8  9  1  0
  9 10  1  0
 11 10  1  0
 12  2  1  0
  1 13  1  0
  3 14  1  0
  8 15  1  0
  8 16  1  0
  9 17  1  0
  9 18  1  0
 10 19  1  0
 10 20  1  0
 11 21  1  0
 11 22  1  0
 12 23  1  0
M  ISO  8  13  14  14  14  15  13  16  13  17  13  18  13  19  13  20  13
M  ISO  3  21  13  22  13  23  11
M  END
>  <minimizedAffinity>  (1) 
-4.09908438

>  <minimizedRMSD>  (1) 
1.56847394

$$$$
