
     RDKit          3D

 14 14  0  0  0  0  0  0  0  0999 V2000
   44.4400   35.6100   44.1440 C   0  0  0  0  0  0  0  0  0  0  0  0
   44.3780   34.8690   42.9460 C   0  0  0  0  0  0  0  0  0  0  0  0
   44.8990   33.5830   42.9250 C   0  0  0  0  0  0  0  0  0  0  0  0
   45.4550   33.0870   44.0770 N   0  0  0  0  0  0  0  0  0  0  0  0
   45.4930   33.8300   45.2000 C   0  0  0  0  0  0  0  0  0  0  0  0
   44.9960   35.0680   45.2370 N   0  0  0  0  0  0  0  0  0  0  0  0
   43.6350   35.5700   41.4620 S   0  0  0  0  0  0  0  0  0  0  0  0
   46.1040   33.2610   46.4310 C   0  0  0  0  0  0  0  0  0  0  0  0
   44.0328   36.6312   44.1818 H   0  0  0  0  0  0  0  0  0  0  0  0
   44.8670   32.9766   42.0078 H   0  0  0  0  0  0  0  0  0  0  0  0
   42.6728   36.4778   41.8182 H   0  0  0  0  0  0  0  0  0  0  0  0
   45.6265   33.7057   47.3166 H   0  0  0  0  0  0  0  0  0  0  0  0
   45.9566   32.1710   46.4434 H   0  0  0  0  0  0  0  0  0  0  0  0
   47.1808   33.4855   46.4434 H   0  0  0  0  0  0  0  0  0  0  0  0
  1  6  2  0
  2  1  1  0
  3  2  2  0
  3  4  1  0
  4  5  2  0
  5  6  1  0
  5  8  1  0
  7  2  1  0
  1  9  1  0
  3 10  1  0
  7 11  1  0
  8 12  1  0
  8 13  1  0
  8 14  1  0
M  ISO  6   9  14  10  14  11  11  12   8  13   8  14   8
M  END
>  <minimizedAffinity>  (1) 
-2.76955843

>  <minimizedRMSD>  (1) 
0.5239923

$$$$
