
     RDKit          3D

 12 12  0  0  0  0  0  0  0  0999 V2000
   44.3270   35.7010   44.3130 C   0  0  0  0  0  0  0  0  0  0  0  0
   44.4400   34.9080   43.1440 C   0  0  0  0  0  0  0  0  0  0  0  0
   45.0600   33.6690   43.2560 C   0  0  0  0  0  0  0  0  0  0  0  0
   45.5300   33.2660   44.4710 N   0  0  0  0  0  0  0  0  0  0  0  0
   45.4030   34.0500   45.5610 C   0  0  0  0  0  0  0  0  0  0  0  0
   44.8130   35.2410   45.4770 N   0  0  0  0  0  0  0  0  0  0  0  0
   43.8060   35.4780   41.5640 S   0  0  0  0  0  0  0  0  0  0  0  0
   45.8600   33.6970   46.8270 O   0  0  0  0  0  0  0  0  0  0  0  0
   43.8437   36.6881   44.2670 H   0  0  0  0  0  0  0  0  0  0  0  0
   45.1703   33.0207   42.3742 H   0  0  0  0  0  0  0  0  0  0  0  0
   42.7994   36.3830   41.7755 H   0  0  0  0  0  0  0  0  0  0  0  0
   45.7366   34.3173   47.5886 H   0  0  0  0  0  0  0  0  0  0  0  0
  1  6  2  0
  2  3  2  0
  2  1  1  0
  3  4  1  0
  4  5  2  0
  5  8  1  0
  6  5  1  0
  7  2  1  0
  1  9  1  0
  3 10  1  0
  7 11  1  0
  8 12  1  0
M  ISO  4   9  14  10  14  11  11  12   3
M  END
>  <minimizedAffinity>  (1) 
-3.08801556

>  <minimizedRMSD>  (1) 
0.172983915

$$$$
