
     RDKit          3D

 17 17  0  0  0  0  0  0  0  0999 V2000
   44.5810   35.3900   44.4830 C   0  0  0  0  0  0  0  0  0  0  0  0
   44.5730   34.7360   43.2370 C   0  0  0  0  0  0  0  0  0  0  0  0
   45.1410   33.4710   43.1320 C   0  0  0  0  0  0  0  0  0  0  0  0
   45.6930   32.9090   44.2700 N   0  0  0  0  0  0  0  0  0  0  0  0
   45.6730   33.5800   45.4410 C   0  0  0  0  0  0  0  0  0  0  0  0
   45.1350   34.7880   45.5560 N   0  0  0  0  0  0  0  0  0  0  0  0
   43.8430   35.5040   41.7750 S   0  0  0  0  0  0  0  0  0  0  0  0
   46.2720   32.9680   46.6680 C   0  0  0  0  0  0  0  0  0  0  0  0
   45.2320   32.7070   47.7330 C   0  0  0  0  0  0  0  0  0  0  0  0
   44.1360   36.3911   44.5821 H   0  0  0  0  0  0  0  0  0  0  0  0
   45.1513   32.9329   42.1727 H   0  0  0  0  0  0  0  0  0  0  0  0
   42.9378   36.4563   42.1632 H   0  0  0  0  0  0  0  0  0  0  0  0
   46.7474   32.0146   46.3940 H   0  0  0  0  0  0  0  0  0  0  0  0
   47.0085   33.6754   47.0769 H   0  0  0  0  0  0  0  0  0  0  0  0
   45.6885   32.8216   48.7272 H   0  0  0  0  0  0  0  0  0  0  0  0
   44.4066   33.4259   47.6235 H   0  0  0  0  0  0  0  0  0  0  0  0
   44.8439   31.6836   47.6235 H   0  0  0  0  0  0  0  0  0  0  0  0
  1  6  2  0
  2  1  1  0
  3  2  2  0
  3  4  1  0
  4  5  2  0
  5  6  1  0
  5  8  1  0
  7  2  1  0
  8  9  1  0
  1 10  1  0
  3 11  1  0
  7 12  1  0
  8 13  1  0
  8 14  1  0
  9 15  1  0
  9 16  1  0
  9 17  1  0
M  ISO  8  10  14  11  14  12  11  13   8  14   8  15   8  16   8  17   8
M  END
>  <minimizedAffinity>  (1) 
-2.97310901

>  <minimizedRMSD>  (1) 
0.829729855

$$$$
