
     RDKit          3D

 13 13  0  0  0  0  0  0  0  0999 V2000
   44.3230   35.7010   44.3020 C   0  0  0  0  0  0  0  0  0  0  0  0
   44.4460   34.8920   43.1360 C   0  0  0  0  0  0  0  0  0  0  0  0
   45.0630   33.6560   43.2400 C   0  0  0  0  0  0  0  0  0  0  0  0
   45.5380   33.2490   44.4730 N   0  0  0  0  0  0  0  0  0  0  0  0
   45.3930   34.0540   45.5350 C   0  0  0  0  0  0  0  0  0  0  0  0
   44.8080   35.2480   45.4780 N   0  0  0  0  0  0  0  0  0  0  0  0
   45.8920   33.6070   46.7810 N   0  0  0  0  0  0  0  0  0  0  0  0
   43.8020   35.4860   41.5590 S   0  0  0  0  0  0  0  0  0  0  0  0
   43.8371   36.6862   44.2449 H   0  0  0  0  0  0  0  0  0  0  0  0
   45.1731   33.0096   42.3568 H   0  0  0  0  0  0  0  0  0  0  0  0
   45.7969   34.2011   47.6170 H   0  0  0  0  0  0  0  0  0  0  0  0
   46.3504   32.6874   46.8522 H   0  0  0  0  0  0  0  0  0  0  0  0
   42.8090   36.4019   41.7871 H   0  0  0  0  0  0  0  0  0  0  0  0
  1  6  2  0
  2  3  2  0
  2  1  1  0
  3  4  1  0
  4  5  2  0
  5  7  1  0
  6  5  1  0
  8  2  1  0
  1  9  1  0
  3 10  1  0
  7 11  1  0
  7 12  1  0
  8 13  1  0
M  ISO  3   9  14  10  14  13  11
M  END
>  <minimizedAffinity>  (1) 
-3.10063124

>  <minimizedRMSD>  (1) 
0.176375404

$$$$
