
     RDKit          3D

 29 31  0  0  0  0  0  0  0  0999 V2000
   44.0000   35.6890   42.9030 C   0  0  0  0  0  0  0  0  0  0  0  0
   43.2210   35.2070   41.8410 C   0  0  0  0  0  0  0  0  0  0  0  0
   43.8300   34.4580   40.8420 C   0  0  0  0  0  0  0  0  0  0  0  0
   45.1770   34.2030   40.9120 N   0  0  0  0  0  0  0  0  0  0  0  0
   45.8930   34.6890   41.9590 C   0  0  0  0  0  0  0  0  0  0  0  0
   45.3080   35.4120   42.9240 N   0  0  0  0  0  0  0  0  0  0  0  0
   47.3300   34.4570   42.0970 C   0  0  0  0  0  0  0  0  0  0  0  0
   48.2140   35.4890   41.9430 C   0  0  0  0  0  0  0  0  0  0  0  0
   49.5860   35.3380   42.0600 C   0  0  0  0  0  0  0  0  0  0  0  0
   50.1020   34.0940   42.3450 C   0  0  0  0  0  0  0  0  0  0  0  0
   49.1870   33.0610   42.4960 C   0  0  0  0  0  0  0  0  0  0  0  0
   47.8570   33.2520   42.3740 N   0  0  0  0  0  0  0  0  0  0  0  0
   41.4380   35.5220   41.7120 S   0  0  0  0  0  0  0  0  0  0  0  0
   40.8580   35.2390   40.0580 C   0  0  0  0  0  0  0  0  0  0  0  0
   39.6700   34.5150   40.0020 C   0  0  0  0  0  0  0  0  0  0  0  0
   39.0600   34.1930   38.8180 C   0  0  0  0  0  0  0  0  0  0  0  0
   39.6580   34.6100   37.6310 C   0  0  0  0  0  0  0  0  0  0  0  0
   40.8420   35.3290   37.7250 C   0  0  0  0  0  0  0  0  0  0  0  0
   41.4160   35.6290   38.9040 N   0  0  0  0  0  0  0  0  0  0  0  0
   43.5422   36.2854   43.7059 H   0  0  0  0  0  0  0  0  0  0  0  0
   43.2366   34.0717   40.0002 H   0  0  0  0  0  0  0  0  0  0  0  0
   47.8158   36.4887   41.7149 H   0  0  0  0  0  0  0  0  0  0  0  0
   50.2547   36.2012   41.9269 H   0  0  0  0  0  0  0  0  0  0  0  0
   51.1844   33.9270   42.4479 H   0  0  0  0  0  0  0  0  0  0  0  0
   49.5594   32.0512   42.7231 H   0  0  0  0  0  0  0  0  0  0  0  0
   39.2037   34.1893   40.9435 H   0  0  0  0  0  0  0  0  0  0  0  0
   38.1214   33.6195   38.8052 H   0  0  0  0  0  0  0  0  0  0  0  0
   39.2083   34.3780   36.6543 H   0  0  0  0  0  0  0  0  0  0  0  0
   41.3300   35.6667   36.7988 H   0  0  0  0  0  0  0  0  0  0  0  0
  1  6  2  0
  2  1  1  0
  3  4  1  0
  3  2  2  0
  4  5  2  0
  5  7  1  0
  5  6  1  0
  7 12  2  0
  8  9  2  0
  8  7  1  0
  9 10  1  0
 10 11  2  0
 12 11  1  0
 13  2  1  0
 14 13  1  0
 15 14  2  0
 16 15  1  0
 17 18  1  0
 17 16  2  0
 18 19  2  0
 19 14  1  0
  1 20  1  0
  3 21  1  0
  8 22  1  0
  9 23  1  0
 10 24  1  0
 11 25  1  0
 15 26  1  0
 16 27  1  0
 17 28  1  0
 18 29  1  0
M  ISO  8  20  14  21  14  22  14  23  14  24  14  25  14  26  14  27  14
M  ISO  2  28  14  29  14
M  END
>  <minimizedAffinity>  (1) 
-5.79587078

>  <minimizedRMSD>  (1) 
2.02748418

$$$$
