
     RDKit          3D

 45 47  0  0  0  0  0  0  0  0999 V2000
   47.7170   32.9840   36.8990 C   0  0  0  0  0  0  0  0  0  0  0  0
   48.7610   32.1910   33.4760 C   0  0  0  0  0  0  0  0  0  0  0  0
   48.4950   30.8470   33.3690 C   0  0  0  0  0  0  0  0  0  0  0  0
   47.9480   30.1600   34.4690 C   0  0  0  0  0  0  0  0  0  0  0  0
   47.7040   30.8730   35.6010 N   0  0  0  0  0  0  0  0  0  0  0  0
   47.9810   32.2030   35.6660 C   0  0  0  0  0  0  0  0  0  0  0  0
   48.4990   32.8440   34.6200 N   0  0  0  0  0  0  0  0  0  0  0  0
   49.3210   32.8840   32.3450 C   0  0  0  0  0  0  0  0  0  0  0  0
   49.2940   34.1570   32.3070 O   0  0  0  0  0  0  0  0  0  0  0  0
   49.8870   32.0970   31.3050 O   0  0  0  0  0  0  0  0  0  0  0  0
   49.3380   32.2220   30.0150 C   0  0  0  0  0  0  0  0  0  0  0  0
   49.7860   33.3420   29.3360 F   0  0  0  0  0  0  0  0  0  0  0  0
   49.6600   31.0980   29.2790 F   0  0  0  0  0  0  0  0  0  0  0  0
   47.9680   32.3770   30.1740 F   0  0  0  0  0  0  0  0  0  0  0  0
   48.5720   34.1880   37.0430 C   0  0  0  0  0  0  0  0  0  0  0  0
   46.2720   33.3870   36.8980 C   0  0  0  0  0  0  0  0  0  0  0  0
   47.9400   32.0470   38.0700 C   0  0  0  0  0  0  0  0  0  0  0  0
   48.2860   32.7610   39.3100 C   0  0  0  0  0  0  0  0  0  0  0  0
   49.3060   32.2850   40.1290 C   0  0  0  0  0  0  0  0  0  0  0  0
   49.3770   33.1840   41.2100 C   0  0  0  0  0  0  0  0  0  0  0  0
   48.4520   34.1140   41.0160 N   0  0  0  0  0  0  0  0  0  0  0  0
   47.8150   33.8750   39.9150 N   0  0  0  0  0  0  0  0  0  0  0  0
   48.1960   35.2400   41.9190 C   0  0  0  0  0  0  0  0  0  0  0  0
   47.1410   34.7940   42.8130 N   0  0  0  0  0  0  0  0  0  0  0  0
   47.1250   33.9090   43.7670 N   0  0  0  0  0  0  0  0  0  0  0  0
   45.9010   33.8260   44.3400 C   0  0  0  0  0  0  0  0  0  0  0  0
   45.0660   34.7420   43.6910 C   0  0  0  0  0  0  0  0  0  0  0  0
   45.8930   35.3180   42.7460 C   0  0  0  0  0  0  0  0  0  0  0  0
   48.7078   30.3125   32.4314 H   0  0  0  0  0  0  0  0  0  0  0  0
   47.7257   29.0841   34.4149 H   0  0  0  0  0  0  0  0  0  0  0  0
   48.7250   34.4035   38.1108 H   0  0  0  0  0  0  0  0  0  0  0  0
   49.5447   34.0066   36.5625 H   0  0  0  0  0  0  0  0  0  0  0  0
   48.0801   35.0466   36.5625 H   0  0  0  0  0  0  0  0  0  0  0  0
   45.9181   33.4857   37.9348 H   0  0  0  0  0  0  0  0  0  0  0  0
   46.1604   34.3505   36.3792 H   0  0  0  0  0  0  0  0  0  0  0  0
   45.6779   32.6203   36.3792 H   0  0  0  0  0  0  0  0  0  0  0  0
   47.0184   31.4713   38.2407 H   0  0  0  0  0  0  0  0  0  0  0  0
   48.7867   31.3925   37.8157 H   0  0  0  0  0  0  0  0  0  0  0  0
   49.9273   31.3921   39.9655 H   0  0  0  0  0  0  0  0  0  0  0  0
   50.0726   33.1256   42.0601 H   0  0  0  0  0  0  0  0  0  0  0  0
   49.1031   35.4881   42.4896 H   0  0  0  0  0  0  0  0  0  0  0  0
   47.9048   36.1457   41.3667 H   0  0  0  0  0  0  0  0  0  0  0  0
   45.6148   33.1589   45.1665 H   0  0  0  0  0  0  0  0  0  0  0  0
   44.0043   34.9532   43.8865 H   0  0  0  0  0  0  0  0  0  0  0  0
   45.5806   36.0970   42.0350 H   0  0  0  0  0  0  0  0  0  0  0  0
  1 15  1  0
  1 17  1  0
  2  7  2  0
  3  2  1  0
  3  4  2  0
  4  5  1  0
  5  6  2  0
  6  1  1  0
  7  6  1  0
  8  2  1  0
  9  8  2  0
 10  8  1  0
 11 14  1  0
 11 10  1  0
 12 11  1  0
 13 11  1  0
 16  1  1  0
 17 18  1  0
 18 22  2  0
 18 19  1  0
 19 20  2  0
 21 20  1  0
 21 23  1  0
 22 21  1  0
 23 24  1  0
 24 25  1  0
 25 26  2  0
 27 26  1  0
 28 24  1  0
 28 27  2  0
  3 29  1  0
  4 30  1  0
 15 31  1  0
 15 32  1  0
 15 33  1  0
 16 34  1  0
 16 35  1  0
 16 36  1  0
 17 37  1  0
 17 38  1  0
 19 39  1  0
 20 40  1  0
 23 41  1  0
 23 42  1  0
 26 43  1  0
 27 44  1  0
 28 45  1  0
M  ISO  8  29  14  30  14  31   8  32   8  33   8  34   8  35   8  36   8
M  ISO  8  37   8  38   8  39  14  40  14  41   8  42   8  43  14  44  14
M  ISO  1  45  14
M  END
>  <minimizedAffinity>  (1) 
-5.5589323

>  <minimizedRMSD>  (1) 
9.90328979

$$$$
