
     RDKit          3D

 51 53  0  0  0  0  0  0  0  0999 V2000
   45.9900   32.3800   37.9060 C   0  0  0  0  0  0  0  0  0  0  0  0
   45.6740   34.3010   41.0080 C   0  0  0  0  0  0  0  0  0  0  0  0
   46.9660   34.6680   41.2950 C   0  0  0  0  0  0  0  0  0  0  0  0
   48.0010   34.2630   40.4230 C   0  0  0  0  0  0  0  0  0  0  0  0
   47.6480   33.5240   39.3390 N   0  0  0  0  0  0  0  0  0  0  0  0
   46.3600   33.1860   39.0960 C   0  0  0  0  0  0  0  0  0  0  0  0
   45.4070   33.5750   39.9230 N   0  0  0  0  0  0  0  0  0  0  0  0
   44.6270   34.7230   41.9100 C   0  0  0  0  0  0  0  0  0  0  0  0
   43.6310   35.3730   41.4430 O   0  0  0  0  0  0  0  0  0  0  0  0
   44.7570   34.3940   43.2740 O   0  0  0  0  0  0  0  0  0  0  0  0
   44.7460   35.4320   44.2150 C   0  0  0  0  0  0  0  0  0  0  0  0
   43.4740   35.9240   44.4620 F   0  0  0  0  0  0  0  0  0  0  0  0
   45.2850   34.9730   45.3980 F   0  0  0  0  0  0  0  0  0  0  0  0
   45.4800   36.4700   43.6590 F   0  0  0  0  0  0  0  0  0  0  0  0
   44.9250   31.3860   38.1740 C   0  0  0  0  0  0  0  0  0  0  0  0
   45.5600   33.3220   36.8210 C   0  0  0  0  0  0  0  0  0  0  0  0
   47.2500   31.6770   37.4420 C   0  0  0  0  0  0  0  0  0  0  0  0
   47.5150   31.8870   36.0080 C   0  0  0  0  0  0  0  0  0  0  0  0
   46.7110   31.2580   35.0510 C   0  0  0  0  0  0  0  0  0  0  0  0
   47.2200   31.6580   33.8050 C   0  0  0  0  0  0  0  0  0  0  0  0
   48.2620   32.4750   34.0410 N   0  0  0  0  0  0  0  0  0  0  0  0
   48.4290   32.6040   35.3190 N   0  0  0  0  0  0  0  0  0  0  0  0
   49.0710   33.1080   32.9960 C   0  0  0  0  0  0  0  0  0  0  0  0
   48.7400   32.3520   31.7250 C   0  0  0  0  0  0  0  0  0  0  0  0
   49.2870   33.0200   30.4860 C   0  0  0  0  0  0  0  0  0  0  0  0
   49.2450   31.8840   29.4810 C   0  0  0  0  0  0  0  0  0  0  0  0
   49.6830   30.6840   30.2950 C   0  0  0  0  0  0  0  0  0  0  0  0
   49.5990   31.0810   31.7510 C   0  0  0  0  0  0  0  0  0  0  0  0
   47.1912   35.2676   42.1893 H   0  0  0  0  0  0  0  0  0  0  0  0
   49.0497   34.5348   40.6138 H   0  0  0  0  0  0  0  0  0  0  0  0
   44.7985   31.2680   39.2603 H   0  0  0  0  0  0  0  0  0  0  0  0
   43.9800   31.7325   37.7304 H   0  0  0  0  0  0  0  0  0  0  0  0
   45.2056   30.4193   37.7304 H   0  0  0  0  0  0  0  0  0  0  0  0
   45.1433   34.2348   37.2718 H   0  0  0  0  0  0  0  0  0  0  0  0
   46.4277   33.5840   36.1977 H   0  0  0  0  0  0  0  0  0  0  0  0
   44.7936   32.8381   36.1977 H   0  0  0  0  0  0  0  0  0  0  0  0
   48.1030   32.0634   38.0191 H   0  0  0  0  0  0  0  0  0  0  0  0
   47.1103   30.5978   37.6026 H   0  0  0  0  0  0  0  0  0  0  0  0
   45.8576   30.5892   35.2363 H   0  0  0  0  0  0  0  0  0  0  0  0
   46.8373   31.3585   32.8182 H   0  0  0  0  0  0  0  0  0  0  0  0
   48.8055   34.1705   32.8931 H   0  0  0  0  0  0  0  0  0  0  0  0
   50.1455   33.0708   33.2286 H   0  0  0  0  0  0  0  0  0  0  0  0
   47.6459   32.2438   31.6912 H   0  0  0  0  0  0  0  0  0  0  0  0
   48.6510   33.8597   30.1690 H   0  0  0  0  0  0  0  0  0  0  0  0
   50.2857   33.4612   30.6202 H   0  0  0  0  0  0  0  0  0  0  0  0
   49.9383   32.0693   28.6474 H   0  0  0  0  0  0  0  0  0  0  0  0
   48.2552   31.7535   29.0192 H   0  0  0  0  0  0  0  0  0  0  0  0
   49.0176   29.8307   30.0974 H   0  0  0  0  0  0  0  0  0  0  0  0
   50.7071   30.3830   30.0294 H   0  0  0  0  0  0  0  0  0  0  0  0
   50.5985   31.2899   32.1601 H   0  0  0  0  0  0  0  0  0  0  0  0
   49.1758   30.2901   32.3877 H   0  0  0  0  0  0  0  0  0  0  0  0
  1 15  1  0
  1  6  1  0
  2  3  2  0
  2  8  1  0
  4  3  1  0
  5  4  2  0
  6  5  1  0
  6  7  2  0
  7  2  1  0
  8 10  1  0
  9  8  2  0
 10 11  1  0
 11 12  1  0
 11 13  1  0
 14 11  1  0
 16  1  1  0
 17  1  1  0
 18 17  1  0
 19 18  1  0
 20 21  1  0
 20 19  2  0
 21 22  1  0
 22 18  2  0
 23 21  1  0
 24 28  1  0
 24 23  1  0
 25 24  1  0
 26 27  1  0
 26 25  1  0
 27 28  1  0
  3 29  1  0
  4 30  1  0
 15 31  1  0
 15 32  1  0
 15 33  1  0
 16 34  1  0
 16 35  1  0
 16 36  1  0
 17 37  1  0
 17 38  1  0
 19 39  1  0
 20 40  1  0
 23 41  1  0
 23 42  1  0
 24 43  1  0
 25 44  1  0
 25 45  1  0
 26 46  1  0
 26 47  1  0
 27 48  1  0
 27 49  1  0
 28 50  1  0
 28 51  1  0
M  ISO  8  29  14  30  14  31   8  32   8  33   8  34   8  35   8  36   8
M  ISO  8  37   8  38   8  39  14  40  14  41   8  42   8  43  13  44  13
M  ISO  7  45  13  46  13  47  13  48  13  49  13  50  13  51  13
M  END
>  <minimizedAffinity>  (1) 
-5.51629543

>  <minimizedRMSD>  (1) 
1.48806953

$$$$
