
     RDKit          3D

 27 29  0  0  0  0  0  0  0  0999 V2000
   44.0570   33.4250   39.4110 C   0  0  0  0  0  0  0  0  0  0  0  0
   45.2710   33.2350   38.7340 C   0  0  0  0  0  0  0  0  0  0  0  0
   46.4550   33.3970   39.4190 C   0  0  0  0  0  0  0  0  0  0  0  0
   46.4390   33.7420   40.7550 N   0  0  0  0  0  0  0  0  0  0  0  0
   45.2450   33.9150   41.3650 C   0  0  0  0  0  0  0  0  0  0  0  0
   44.0840   33.7570   40.6980 N   0  0  0  0  0  0  0  0  0  0  0  0
   45.1330   34.2820   42.7810 C   0  0  0  0  0  0  0  0  0  0  0  0
   44.6030   35.4890   43.1440 C   0  0  0  0  0  0  0  0  0  0  0  0
   44.4770   35.8810   44.4680 C   0  0  0  0  0  0  0  0  0  0  0  0
   44.9010   35.0250   45.4750 C   0  0  0  0  0  0  0  0  0  0  0  0
   45.4350   33.8050   45.0760 C   0  0  0  0  0  0  0  0  0  0  0  0
   45.5400   33.4620   43.7770 N   0  0  0  0  0  0  0  0  0  0  0  0
   45.3680   32.7780   36.9730 S   0  0  0  0  0  0  0  0  0  0  0  0
   46.9540   32.1270   36.5800 C   0  0  0  0  0  0  0  0  0  0  0  0
   48.0030   32.6840   35.9170 C   0  0  0  0  0  0  0  0  0  0  0  0
   49.1480   31.9450   35.7440 C   0  0  0  0  0  0  0  0  0  0  0  0
   49.2030   30.6650   36.2450 C   0  0  0  0  0  0  0  0  0  0  0  0
   47.5010   30.4210   37.0520 S   0  0  0  0  0  0  0  0  0  0  0  0
   43.0986   33.3013   38.8855 H   0  0  0  0  0  0  0  0  0  0  0  0
   47.4142   33.2512   38.9006 H   0  0  0  0  0  0  0  0  0  0  0  0
   44.2633   36.1759   42.3548 H   0  0  0  0  0  0  0  0  0  0  0  0
   44.0450   36.8613   44.7180 H   0  0  0  0  0  0  0  0  0  0  0  0
   44.8185   35.2986   46.5372 H   0  0  0  0  0  0  0  0  0  0  0  0
   45.7824   33.0982   45.8440 H   0  0  0  0  0  0  0  0  0  0  0  0
   47.9355   33.7098   35.5256 H   0  0  0  0  0  0  0  0  0  0  0  0
   50.0106   32.3717   35.2112 H   0  0  0  0  0  0  0  0  0  0  0  0
   50.0373   29.9502   36.1909 H   0  0  0  0  0  0  0  0  0  0  0  0
  1  6  2  0
  2  1  1  0
  2  3  2  0
  3  4  1  0
  4  5  2  0
  5  7  1  0
  6  5  1  0
  7  8  2  0
  7 12  1  0
  8  9  1  0
  9 10  2  0
 11 10  1  0
 12 11  2  0
 13  2  1  0
 14 13  1  0
 14 18  1  0
 15 14  2  0
 16 15  1  0
 16 17  2  0
 17 18  1  0
  1 19  1  0
  3 20  1  0
  8 21  1  0
  9 22  1  0
 10 23  1  0
 11 24  1  0
 15 25  1  0
 16 26  1  0
 17 27  1  0
M  ISO  8  19  14  20  14  21  14  22  14  23  14  24  14  25  14  26  14
M  ISO  1  27  14
M  END
>  <minimizedAffinity>  (1) 
-3.85075235

>  <minimizedRMSD>  (1) 
7.33790827

$$$$
