
     RDKit          3D

 45 47  0  0  0  0  0  0  0  0999 V2000
   46.1770   32.3080   37.7560 C   0  0  0  0  0  0  0  0  0  0  0  0
   45.7940   34.2350   40.8500 C   0  0  0  0  0  0  0  0  0  0  0  0
   47.0820   34.5830   41.1800 C   0  0  0  0  0  0  0  0  0  0  0  0
   48.1390   34.1680   40.3470 C   0  0  0  0  0  0  0  0  0  0  0  0
   47.8140   33.4300   39.2450 N   0  0  0  0  0  0  0  0  0  0  0  0
   46.5220   33.1110   38.9600 C   0  0  0  0  0  0  0  0  0  0  0  0
   45.5390   33.5100   39.7550 N   0  0  0  0  0  0  0  0  0  0  0  0
   44.7130   34.6650   41.7090 C   0  0  0  0  0  0  0  0  0  0  0  0
   43.7270   35.3090   41.2190 O   0  0  0  0  0  0  0  0  0  0  0  0
   44.8020   34.3450   43.0850 O   0  0  0  0  0  0  0  0  0  0  0  0
   44.7870   35.3950   44.0170 C   0  0  0  0  0  0  0  0  0  0  0  0
   43.5000   35.8570   44.2800 F   0  0  0  0  0  0  0  0  0  0  0  0
   45.3270   34.9480   45.1970 F   0  0  0  0  0  0  0  0  0  0  0  0
   45.5030   36.4280   43.4570 F   0  0  0  0  0  0  0  0  0  0  0  0
   45.2020   31.2280   38.0180 C   0  0  0  0  0  0  0  0  0  0  0  0
   45.6460   33.2310   36.7150 C   0  0  0  0  0  0  0  0  0  0  0  0
   47.4850   31.7250   37.2360 C   0  0  0  0  0  0  0  0  0  0  0  0
   47.6710   31.9430   35.7950 C   0  0  0  0  0  0  0  0  0  0  0  0
   46.9560   31.1690   34.8860 C   0  0  0  0  0  0  0  0  0  0  0  0
   47.3530   31.6180   33.6160 C   0  0  0  0  0  0  0  0  0  0  0  0
   48.2490   32.5970   33.7890 N   0  0  0  0  0  0  0  0  0  0  0  0
   48.4250   32.7770   35.0590 N   0  0  0  0  0  0  0  0  0  0  0  0
   48.9110   33.3340   32.7130 C   0  0  0  0  0  0  0  0  0  0  0  0
   49.0730   32.3740   31.5880 C   0  0  0  0  0  0  0  0  0  0  0  0
   49.9290   31.3070   31.6930 C   0  0  0  0  0  0  0  0  0  0  0  0
   49.8860   30.5880   30.5210 C   0  0  0  0  0  0  0  0  0  0  0  0
   48.9730   31.2750   29.7280 C   0  0  0  0  0  0  0  0  0  0  0  0
   48.5370   32.3050   30.4060 O   0  0  0  0  0  0  0  0  0  0  0  0
   47.2846   35.1778   42.0828 H   0  0  0  0  0  0  0  0  0  0  0  0
   49.1834   34.4277   40.5747 H   0  0  0  0  0  0  0  0  0  0  0  0
   45.0833   31.0966   39.1037 H   0  0  0  0  0  0  0  0  0  0  0  0
   44.2319   31.4938   37.5726 H   0  0  0  0  0  0  0  0  0  0  0  0
   45.5653   30.2901   37.5726 H   0  0  0  0  0  0  0  0  0  0  0  0
   45.1537   34.0867   37.2003 H   0  0  0  0  0  0  0  0  0  0  0  0
   46.4745   33.5919   36.0879 H   0  0  0  0  0  0  0  0  0  0  0  0
   44.9175   32.6962   36.0879 H   0  0  0  0  0  0  0  0  0  0  0  0
   48.3195   32.1985   37.7739 H   0  0  0  0  0  0  0  0  0  0  0  0
   47.4548   30.6386   37.4060 H   0  0  0  0  0  0  0  0  0  0  0  0
   46.2321   30.3729   35.1143 H   0  0  0  0  0  0  0  0  0  0  0  0
   46.9918   31.2335   32.6508 H   0  0  0  0  0  0  0  0  0  0  0  0
   48.2923   34.1877   32.3992 H   0  0  0  0  0  0  0  0  0  0  0  0
   49.8820   33.7338   33.0406 H   0  0  0  0  0  0  0  0  0  0  0  0
   50.5478   31.0661   32.5699 H   0  0  0  0  0  0  0  0  0  0  0  0
   50.4468   29.6761   30.2682 H   0  0  0  0  0  0  0  0  0  0  0  0
   48.6700   30.9997   28.7070 H   0  0  0  0  0  0  0  0  0  0  0  0
  1 15  1  0
  1  6  1  0
  2  3  2  0
  2  8  1  0
  4  3  1  0
  5  4  2  0
  6  5  1  0
  6  7  2  0
  7  2  1  0
  8 10  1  0
  9  8  2  0
 10 11  1  0
 11 12  1  0
 11 13  1  0
 14 11  1  0
 16  1  1  0
 17  1  1  0
 18 17  1  0
 19 18  1  0
 20 21  1  0
 20 19  2  0
 21 22  1  0
 22 18  2  0
 23 21  1  0
 24 25  2  0
 24 23  1  0
 26 25  1  0
 27 28  1  0
 27 26  2  0
 28 24  1  0
  3 29  1  0
  4 30  1  0
 15 31  1  0
 15 32  1  0
 15 33  1  0
 16 34  1  0
 16 35  1  0
 16 36  1  0
 17 37  1  0
 17 38  1  0
 19 39  1  0
 20 40  1  0
 23 41  1  0
 23 42  1  0
 25 43  1  0
 26 44  1  0
 27 45  1  0
M  ISO  8  29  14  30  14  31   8  32   8  33   8  34   8  35   8  36   8
M  ISO  8  37   8  38   8  39  14  40  14  41   8  42   8  43  14  44  14
M  ISO  1  45  14
M  END
>  <minimizedAffinity>  (1) 
-5.50394011

>  <minimizedRMSD>  (1) 
1.24099481

$$$$
