
     RDKit          3D

 49 53  0  0  1  0  0  0  0  0999 V2000
   38.5920   33.1440   38.8470 N   0  0  0  0  0  0  0  0  0  0  0  0
   38.4050   33.8490   40.0700 C   0  0  0  0  0  0  0  0  0  0  0  0
   39.5180   33.5750   41.0490 C   0  0  0  0  0  0  0  0  0  0  0  0
   40.8160   33.9820   40.4220 C   0  0  1  0  0  0  0  0  0  0  0  0
   40.6640   34.4440   39.0040 C   0  0  0  0  0  0  0  0  0  0  0  0
   39.8450   33.4760   38.1740 C   0  0  1  0  0  0  0  0  0  0  0  0
   40.6350   32.2550   37.8780 C   0  0  0  0  0  0  0  0  0  0  0  0
   41.9780   32.4150   38.0730 N   0  0  0  0  0  0  0  0  0  0  0  0
   42.8320   31.3890   37.8490 C   0  0  0  0  0  0  0  0  0  0  0  0
   42.4260   30.1670   37.4290 N   0  0  0  0  0  0  0  0  0  0  0  0
   41.1110   30.0030   37.2360 C   0  0  0  0  0  0  0  0  0  0  0  0
   40.5330   28.8210   36.8100 C   0  0  0  0  0  0  0  0  0  0  0  0
   39.1740   28.6580   36.6100 C   0  0  0  0  0  0  0  0  0  0  0  0
   38.3200   29.7200   36.8440 C   0  0  0  0  0  0  0  0  0  0  0  0
   38.8520   30.9250   37.2730 C   0  0  0  0  0  0  0  0  0  0  0  0
   40.2030   31.0180   37.4500 C   0  0  0  0  0  0  0  0  0  0  0  0
   41.5540   35.2630   41.4330 S   0  0  0  0  0  0  0  0  0  0  0  0
   44.0110   35.4980   42.7090 C   0  0  0  0  0  0  0  0  0  0  0  0
   43.3310   35.0250   41.5910 C   0  0  0  0  0  0  0  0  0  0  0  0
   44.0550   34.3790   40.6320 C   0  0  0  0  0  0  0  0  0  0  0  0
   45.3980   34.2030   40.7620 N   0  0  0  0  0  0  0  0  0  0  0  0
   46.0330   34.6790   41.8680 C   0  0  0  0  0  0  0  0  0  0  0  0
   45.3470   35.3220   42.8360 N   0  0  0  0  0  0  0  0  0  0  0  0
   47.4680   34.5320   42.0840 C   0  0  0  0  0  0  0  0  0  0  0  0
   48.3070   35.5920   41.9110 C   0  0  0  0  0  0  0  0  0  0  0  0
   49.6730   35.4930   42.1050 C   0  0  0  0  0  0  0  0  0  0  0  0
   50.2230   34.2850   42.4890 C   0  0  0  0  0  0  0  0  0  0  0  0
   49.3440   33.2150   42.6600 C   0  0  0  0  0  0  0  0  0  0  0  0
   48.0180   33.3490   42.4610 N   0  0  0  0  0  0  0  0  0  0  0  0
   38.5866   32.1338   39.0480 H   0  0  0  0  0  0  0  0  0  0  0  0
   38.3746   34.9280   39.8581 H   0  0  0  0  0  0  0  0  0  0  0  0
   37.4612   33.5082   40.5206 H   0  0  0  0  0  0  0  0  0  0  0  0
   39.3531   34.1544   41.9694 H   0  0  0  0  0  0  0  0  0  0  0  0
   39.5417   32.5047   41.3016 H   0  0  0  0  0  0  0  0  0  0  0  0
   41.4695   33.0983   40.3783 H   0  0  0  0  0  0  0  0  0  0  0  0
   40.1644   35.4240   39.0018 H   0  0  0  0  0  0  0  0  0  0  0  0
   41.6679   34.5070   38.5587 H   0  0  0  0  0  0  0  0  0  0  0  0
   39.5916   33.9611   37.2198 H   0  0  0  0  0  0  0  0  0  0  0  0
   43.9064   31.5555   38.0159 H   0  0  0  0  0  0  0  0  0  0  0  0
   41.1919   27.9610   36.6192 H   0  0  0  0  0  0  0  0  0  0  0  0
   38.7759   27.6914   36.2676 H   0  0  0  0  0  0  0  0  0  0  0  0
   37.2361   29.6099   36.6920 H   0  0  0  0  0  0  0  0  0  0  0  0
   38.1997   31.7892   37.4671 H   0  0  0  0  0  0  0  0  0  0  0  0
   43.4552   36.0221   43.5004 H   0  0  0  0  0  0  0  0  0  0  0  0
   43.5439   33.9935   39.7375 H   0  0  0  0  0  0  0  0  0  0  0  0
   47.8830   36.5602   41.6064 H   0  0  0  0  0  0  0  0  0  0  0  0
   50.3180   36.3713   41.9544 H   0  0  0  0  0  0  0  0  0  0  0  0
   51.3049   34.1720   42.6525 H   0  0  0  0  0  0  0  0  0  0  0  0
   49.7438   32.2367   42.9652 H   0  0  0  0  0  0  0  0  0  0  0  0
  1  2  1  0
  2  3  1  0
  4  3  1  0
  4 17  1  0
  5  4  1  0
  6  1  1  0
  6  5  1  0
  7  8  2  0
  7  6  1  0
  9  8  1  0
 10  9  2  0
 11 10  1  0
 11 16  2  0
 12 11  1  0
 13 12  2  0
 13 14  1  0
 14 15  2  0
 15 16  1  0
 16  7  1  0
 17 19  1  0
 18 23  2  0
 19 18  1  0
 20 21  1  0
 20 19  2  0
 21 22  2  0
 22 24  1  0
 22 23  1  0
 24 29  1  0
 25 24  2  0
 25 26  1  0
 26 27  2  0
 27 28  1  0
 29 28  2  0
  1 30  1  0
  2 31  1  0
  2 32  1  0
  3 33  1  0
  3 34  1  0
  4 35  1  6
  5 36  1  0
  5 37  1  0
  6 38  1  6
  9 39  1  0
 12 40  1  0
 13 41  1  0
 14 42  1  0
 15 43  1  0
 18 44  1  0
 20 45  1  0
 25 46  1  0
 26 47  1  0
 27 48  1  0
 28 49  1  0
M  ISO  8  30   5  31  13  32  13  33  13  34  13  35  13  36  13  37  13
M  ISO  8  38  13  39  14  40  14  41  14  42  14  43  14  44  14  45  14
M  ISO  4  46  14  47  14  48  14  49  14
M  END
>  <minimizedAffinity>  (1) 
-6.4612999

>  <minimizedRMSD>  (1) 
1.54911804

$$$$
