
     RDKit          3D

 38 40  0  0  1  0  0  0  0  0999 V2000
   41.5810   35.3620   41.4400 S   0  0  0  0  0  0  0  0  0  0  0  0
   38.5860   33.7060   38.5710 N   0  0  0  0  0  0  0  0  0  0  0  0
   38.4180   34.1950   39.9110 C   0  0  0  0  0  0  0  0  0  0  0  0
   39.5430   33.7470   40.8270 C   0  0  0  0  0  0  0  0  0  0  0  0
   40.8390   34.2520   40.2490 C   0  0  1  0  0  0  0  0  0  0  0  0
   40.6980   34.9030   38.9040 C   0  0  0  0  0  0  0  0  0  0  0  0
   39.8630   34.0270   37.9800 C   0  0  1  0  0  0  0  0  0  0  0  0
   40.6060   32.7220   37.8890 C   0  0  0  0  0  0  0  0  0  0  0  0
   39.9850   31.6320   38.0680 O   0  0  0  0  0  0  0  0  0  0  0  0
   41.9740   32.6580   37.6120 O   0  0  0  0  0  0  0  0  0  0  0  0
   44.0620   35.5620   42.6810 C   0  0  0  0  0  0  0  0  0  0  0  0
   43.3510   35.0770   41.5860 C   0  0  0  0  0  0  0  0  0  0  0  0
   44.0440   34.3820   40.6390 C   0  0  0  0  0  0  0  0  0  0  0  0
   45.3840   34.1680   40.7580 N   0  0  0  0  0  0  0  0  0  0  0  0
   46.0460   34.6570   41.8420 C   0  0  0  0  0  0  0  0  0  0  0  0
   45.3900   35.3530   42.8050 N   0  0  0  0  0  0  0  0  0  0  0  0
   47.4720   34.4780   42.0520 C   0  0  0  0  0  0  0  0  0  0  0  0
   48.3330   35.5200   41.9580 C   0  0  0  0  0  0  0  0  0  0  0  0
   49.6970   35.3670   42.1540 C   0  0  0  0  0  0  0  0  0  0  0  0
   50.2190   34.1230   42.4580 C   0  0  0  0  0  0  0  0  0  0  0  0
   49.3250   33.0790   42.5500 C   0  0  0  0  0  0  0  0  0  0  0  0
   48.0130   33.2700   42.3520 N   0  0  0  0  0  0  0  0  0  0  0  0
   38.4856   32.6810   38.5862 H   0  0  0  0  0  0  0  0  0  0  0  0
   38.3962   35.2945   39.8873 H   0  0  0  0  0  0  0  0  0  0  0  0
   37.4762   33.7859   40.3056 H   0  0  0  0  0  0  0  0  0  0  0  0
   39.3945   34.1652   41.8335 H   0  0  0  0  0  0  0  0  0  0  0  0
   39.5598   32.6499   40.9052 H   0  0  0  0  0  0  0  0  0  0  0  0
   41.4900   33.3848   40.0641 H   0  0  0  0  0  0  0  0  0  0  0  0
   40.2049   35.8791   39.0228 H   0  0  0  0  0  0  0  0  0  0  0  0
   41.6972   35.0377   38.4643 H   0  0  0  0  0  0  0  0  0  0  0  0
   39.7051   34.5430   37.0214 H   0  0  0  0  0  0  0  0  0  0  0  0
   42.4280   31.7798   37.5602 H   0  0  0  0  0  0  0  0  0  0  0  0
   43.5305   36.1270   43.4609 H   0  0  0  0  0  0  0  0  0  0  0  0
   43.5105   33.9866   39.7621 H   0  0  0  0  0  0  0  0  0  0  0  0
   47.9376   36.5182   41.7188 H   0  0  0  0  0  0  0  0  0  0  0  0
   50.3651   36.2366   42.0675 H   0  0  0  0  0  0  0  0  0  0  0  0
   51.2970   33.9742   42.6187 H   0  0  0  0  0  0  0  0  0  0  0  0
   49.6942   32.0710   42.7901 H   0  0  0  0  0  0  0  0  0  0  0  0
  1 12  1  0
  2  3  1  0
  3  4  1  0
  5  4  1  0
  5  1  1  0
  6  5  1  0
  7  2  1  0
  7  6  1  0
  8  7  1  0
  8  9  2  0
 10  8  1  0
 11 16  2  0
 12 11  1  0
 13 14  1  0
 13 12  2  0
 14 15  2  0
 15 17  1  0
 15 16  1  0
 17 22  1  0
 18 17  2  0
 18 19  1  0
 19 20  2  0
 20 21  1  0
 22 21  2  0
  2 23  1  0
  3 24  1  0
  3 25  1  0
  4 26  1  0
  4 27  1  0
  5 28  1  6
  6 29  1  0
  6 30  1  0
  7 31  1  6
 10 32  1  0
 11 33  1  0
 13 34  1  0
 18 35  1  0
 19 36  1  0
 20 37  1  0
 21 38  1  0
M  ISO  8  23   5  24  13  25  13  26  13  27  13  28  13  29  13  30  13
M  ISO  8  31  13  32   3  33  14  34  14  35  14  36  14  37  14  38  14
M  END
>  <minimizedAffinity>  (1) 
-5.91418219

>  <minimizedRMSD>  (1) 
0.371750146

$$$$
