
     RDKit          3D

 41 44  0  0  1  0  0  0  0  0999 V2000
   38.5890   33.7030   38.5200 N   0  0  0  0  0  0  0  0  0  0  0  0
   38.4010   34.2510   39.8420 C   0  0  0  0  0  0  0  0  0  0  0  0
   39.4840   33.7630   40.7920 C   0  0  0  0  0  0  0  0  0  0  0  0
   40.8130   34.2140   40.2510 C   0  0  1  0  0  0  0  0  0  0  0  0
   40.7270   34.8420   38.8840 C   0  0  0  0  0  0  0  0  0  0  0  0
   39.8950   33.9630   37.9560 C   0  0  1  0  0  0  0  0  0  0  0  0
   40.5500   32.6480   37.8830 N   0  0  0  0  0  0  0  0  0  0  0  0
   39.9270   31.4390   37.8900 C   0  0  0  0  0  0  0  0  0  0  0  0
   40.8290   30.4440   37.8110 N   0  0  0  0  0  0  0  0  0  0  0  0
   42.0310   31.0390   37.7550 C   0  0  0  0  0  0  0  0  0  0  0  0
   41.8590   32.3770   37.8000 N   0  0  0  0  0  0  0  0  0  0  0  0
   41.5530   35.3420   41.4290 S   0  0  0  0  0  0  0  0  0  0  0  0
   44.0270   35.5150   42.6910 C   0  0  0  0  0  0  0  0  0  0  0  0
   43.3210   35.0580   41.5820 C   0  0  0  0  0  0  0  0  0  0  0  0
   44.0200   34.3870   40.6220 C   0  0  0  0  0  0  0  0  0  0  0  0
   45.3590   34.1700   40.7410 N   0  0  0  0  0  0  0  0  0  0  0  0
   46.0180   34.6310   41.8390 C   0  0  0  0  0  0  0  0  0  0  0  0
   45.3510   35.3070   42.8200 N   0  0  0  0  0  0  0  0  0  0  0  0
   47.4470   34.4450   42.0490 C   0  0  0  0  0  0  0  0  0  0  0  0
   48.3020   35.5080   41.9500 C   0  0  0  0  0  0  0  0  0  0  0  0
   49.6720   35.3540   42.1460 C   0  0  0  0  0  0  0  0  0  0  0  0
   50.1920   34.1080   42.4510 C   0  0  0  0  0  0  0  0  0  0  0  0
   49.2980   33.0530   42.5450 C   0  0  0  0  0  0  0  0  0  0  0  0
   47.9830   33.2520   42.3460 N   0  0  0  0  0  0  0  0  0  0  0  0
   38.4550   32.6830   38.5701 H   0  0  0  0  0  0  0  0  0  0  0  0
   38.4398   35.3489   39.7854 H   0  0  0  0  0  0  0  0  0  0  0  0
   37.4240   33.9197   40.2236 H   0  0  0  0  0  0  0  0  0  0  0  0
   39.3235   34.1907   41.7927 H   0  0  0  0  0  0  0  0  0  0  0  0
   39.4561   32.6663   40.8730 H   0  0  0  0  0  0  0  0  0  0  0  0
   41.4431   33.3220   40.1194 H   0  0  0  0  0  0  0  0  0  0  0  0
   40.2552   35.8322   38.9673 H   0  0  0  0  0  0  0  0  0  0  0  0
   41.7410   34.9447   38.4701 H   0  0  0  0  0  0  0  0  0  0  0  0
   39.8052   34.4721   36.9850 H   0  0  0  0  0  0  0  0  0  0  0  0
   38.8382   31.2950   37.9516 H   0  0  0  0  0  0  0  0  0  0  0  0
   42.9986   30.5206   37.6840 H   0  0  0  0  0  0  0  0  0  0  0  0
   43.4900   36.0596   43.4816 H   0  0  0  0  0  0  0  0  0  0  0  0
   43.4909   34.0133   39.7330 H   0  0  0  0  0  0  0  0  0  0  0  0
   47.8997   36.5035   41.7110 H   0  0  0  0  0  0  0  0  0  0  0  0
   50.3411   36.2227   42.0584 H   0  0  0  0  0  0  0  0  0  0  0  0
   51.2702   33.9612   42.6121 H   0  0  0  0  0  0  0  0  0  0  0  0
   49.6671   32.0448   42.7843 H   0  0  0  0  0  0  0  0  0  0  0  0
  1  2  1  0
  2  3  1  0
  4  3  1  0
  4 12  1  0
  5  4  1  0
  6  1  1  0
  6  5  1  0
  7  8  1  0
  7  6  1  0
  9  8  2  0
 10 11  2  0
 10  9  1  0
 11  7  1  0
 12 14  1  0
 13 18  2  0
 14 13  1  0
 15 16  1  0
 15 14  2  0
 16 17  2  0
 17 19  1  0
 17 18  1  0
 19 24  1  0
 20 19  2  0
 20 21  1  0
 21 22  2  0
 22 23  1  0
 24 23  2  0
  1 25  1  0
  2 26  1  0
  2 27  1  0
  3 28  1  0
  3 29  1  0
  4 30  1  6
  5 31  1  0
  5 32  1  0
  6 33  1  6
  8 34  1  0
 10 35  1  0
 13 36  1  0
 15 37  1  0
 20 38  1  0
 21 39  1  0
 22 40  1  0
 23 41  1  0
M  ISO  8  25   5  26  13  27  13  28  13  29  13  30  13  31  13  32  13
M  ISO  8  33  13  34  14  35  14  36  14  37  14  38  14  39  14  40  14
M  ISO  1  41  14
M  END
>  <minimizedAffinity>  (1) 
-5.92310047

>  <minimizedRMSD>  (1) 
0.731477559

$$$$
