
     RDKit          3D

 45 47  0  0  0  0  0  0  0  0999 V2000
   47.7400   32.9690   36.9190 C   0  0  0  0  0  0  0  0  0  0  0  0
   48.8490   32.1810   33.5260 C   0  0  0  0  0  0  0  0  0  0  0  0
   48.7040   30.8180   33.4400 C   0  0  0  0  0  0  0  0  0  0  0  0
   48.2140   30.1090   34.5580 C   0  0  0  0  0  0  0  0  0  0  0  0
   47.9100   30.8290   35.6670 N   0  0  0  0  0  0  0  0  0  0  0  0
   48.0710   32.1820   35.7070 C   0  0  0  0  0  0  0  0  0  0  0  0
   48.5350   32.8310   34.6430 N   0  0  0  0  0  0  0  0  0  0  0  0
   49.3530   32.8840   32.3680 C   0  0  0  0  0  0  0  0  0  0  0  0
   49.2870   34.1590   32.3320 O   0  0  0  0  0  0  0  0  0  0  0  0
   49.9030   32.1230   31.3130 O   0  0  0  0  0  0  0  0  0  0  0  0
   49.3270   32.2250   30.0320 C   0  0  0  0  0  0  0  0  0  0  0  0
   49.7710   33.3670   29.3520 F   0  0  0  0  0  0  0  0  0  0  0  0
   49.6770   31.1300   29.2960 F   0  0  0  0  0  0  0  0  0  0  0  0
   47.9790   32.3770   30.2190 F   0  0  0  0  0  0  0  0  0  0  0  0
   48.6100   34.1640   37.1010 C   0  0  0  0  0  0  0  0  0  0  0  0
   46.3080   33.3600   36.8640 C   0  0  0  0  0  0  0  0  0  0  0  0
   47.9440   32.0340   38.1040 C   0  0  0  0  0  0  0  0  0  0  0  0
   48.2470   32.7560   39.3460 C   0  0  0  0  0  0  0  0  0  0  0  0
   49.3050   32.3490   40.1450 C   0  0  0  0  0  0  0  0  0  0  0  0
   49.3180   33.2360   41.2320 C   0  0  0  0  0  0  0  0  0  0  0  0
   48.3280   34.1080   41.0740 N   0  0  0  0  0  0  0  0  0  0  0  0
   47.7020   33.8220   39.9650 N   0  0  0  0  0  0  0  0  0  0  0  0
   47.9880   35.1970   41.9720 C   0  0  0  0  0  0  0  0  0  0  0  0
   46.8040   34.8950   42.7580 N   0  0  0  0  0  0  0  0  0  0  0  0
   46.8090   33.9660   43.7390 C   0  0  0  0  0  0  0  0  0  0  0  0
   45.5430   33.9070   44.3000 C   0  0  0  0  0  0  0  0  0  0  0  0
   44.7830   34.8220   43.6320 N   0  0  0  0  0  0  0  0  0  0  0  0
   45.5680   35.4210   42.6900 C   0  0  0  0  0  0  0  0  0  0  0  0
   48.9659   30.2864   32.5133 H   0  0  0  0  0  0  0  0  0  0  0  0
   48.0839   29.0170   34.5311 H   0  0  0  0  0  0  0  0  0  0  0  0
   48.7496   34.3557   38.1751 H   0  0  0  0  0  0  0  0  0  0  0  0
   49.5876   33.9808   36.6311 H   0  0  0  0  0  0  0  0  0  0  0  0
   48.1354   35.0381   36.6311 H   0  0  0  0  0  0  0  0  0  0  0  0
   45.9175   33.4666   37.8868 H   0  0  0  0  0  0  0  0  0  0  0  0
   46.2096   34.3179   36.3322 H   0  0  0  0  0  0  0  0  0  0  0  0
   45.7365   32.5850   36.3322 H   0  0  0  0  0  0  0  0  0  0  0  0
   47.0254   31.4474   38.2524 H   0  0  0  0  0  0  0  0  0  0  0  0
   48.8046   31.3882   37.8751 H   0  0  0  0  0  0  0  0  0  0  0  0
   49.9901   31.5075   39.9644 H   0  0  0  0  0  0  0  0  0  0  0  0
   50.0274   33.2134   42.0724 H   0  0  0  0  0  0  0  0  0  0  0  0
   48.8329   35.3740   42.6537 H   0  0  0  0  0  0  0  0  0  0  0  0
   47.7781   36.0898   41.3646 H   0  0  0  0  0  0  0  0  0  0  0  0
   47.6739   33.3577   44.0420 H   0  0  0  0  0  0  0  0  0  0  0  0
   45.2159   33.2522   45.1211 H   0  0  0  0  0  0  0  0  0  0  0  0
   45.2433   36.2051   41.9902 H   0  0  0  0  0  0  0  0  0  0  0  0
  1 15  1  0
  1 17  1  0
  2  7  2  0
  3  2  1  0
  3  4  2  0
  4  5  1  0
  5  6  2  0
  6  1  1  0
  7  6  1  0
  8  2  1  0
  9  8  2  0
 10  8  1  0
 11 14  1  0
 11 10  1  0
 12 11  1  0
 13 11  1  0
 16  1  1  0
 17 18  1  0
 18 22  2  0
 18 19  1  0
 19 20  2  0
 21 20  1  0
 21 23  1  0
 22 21  1  0
 23 24  1  0
 24 25  1  0
 25 26  2  0
 27 26  1  0
 28 24  1  0
 28 27  2  0
  3 29  1  0
  4 30  1  0
 15 31  1  0
 15 32  1  0
 15 33  1  0
 16 34  1  0
 16 35  1  0
 16 36  1  0
 17 37  1  0
 17 38  1  0
 19 39  1  0
 20 40  1  0
 23 41  1  0
 23 42  1  0
 25 43  1  0
 26 44  1  0
 28 45  1  0
M  ISO  8  29  14  30  14  31   8  32   8  33   8  34   8  35   8  36   8
M  ISO  8  37   8  38   8  39  14  40  14  41   8  42   8  43  14  44  14
M  ISO  1  45  14
M  END
>  <minimizedAffinity>  (1) 
-5.48895836

>  <minimizedRMSD>  (1) 
9.96490192

$$$$
