
     RDKit          3D

 50 53  0  0  1  0  0  0  0  0999 V2000
   38.3560   32.3530   39.1980 N   0  0  0  0  0  0  0  0  0  0  0  0
   38.2580   33.6040   39.9090 C   0  0  0  0  0  0  0  0  0  0  0  0
   39.3720   33.7360   40.9170 C   0  0  0  0  0  0  0  0  0  0  0  0
   40.6890   33.6580   40.1930 C   0  0  1  0  0  0  0  0  0  0  0  0
   40.5470   33.3810   38.7180 C   0  0  0  0  0  0  0  0  0  0  0  0
   39.5970   32.2470   38.4680 C   0  0  1  0  0  0  0  0  0  0  0  0
   40.2020   30.9350   38.5350 N   0  0  0  0  0  0  0  0  0  0  0  0
   39.1740   29.9730   38.2410 C   0  0  0  0  0  0  0  0  0  0  0  0
   38.6780   30.0040   36.8270 C   0  0  0  0  0  0  0  0  0  0  0  0
   39.7710   29.7180   35.8240 C   0  0  0  0  0  0  0  0  0  0  0  0
   41.0800   29.7050   36.5750 C   0  0  0  0  0  0  0  0  0  0  0  0
   41.2060   30.8990   37.4910 C   0  0  0  0  0  0  0  0  0  0  0  0
   41.5520   35.2080   40.4700 S   0  0  0  0  0  0  0  0  0  0  0  0
   43.8950   35.5830   41.9080 C   0  0  0  0  0  0  0  0  0  0  0  0
   43.2850   34.9240   40.8360 C   0  0  0  0  0  0  0  0  0  0  0  0
   44.0430   34.0670   40.0890 C   0  0  0  0  0  0  0  0  0  0  0  0
   45.3570   33.8780   40.4000 N   0  0  0  0  0  0  0  0  0  0  0  0
   45.9210   34.5270   41.4390 C   0  0  0  0  0  0  0  0  0  0  0  0
   45.1960   35.3830   42.2000 N   0  0  0  0  0  0  0  0  0  0  0  0
   47.3230   34.3640   41.8200 C   0  0  0  0  0  0  0  0  0  0  0  0
   48.1860   35.4130   41.7580 C   0  0  0  0  0  0  0  0  0  0  0  0
   49.5230   35.2660   42.1190 C   0  0  0  0  0  0  0  0  0  0  0  0
   50.0020   34.0540   42.5470 C   0  0  0  0  0  0  0  0  0  0  0  0
   49.1040   33.0130   42.5990 C   0  0  0  0  0  0  0  0  0  0  0  0
   47.8200   33.1850   42.2440 N   0  0  0  0  0  0  0  0  0  0  0  0
   38.3006   31.5792   39.8756 H   0  0  0  0  0  0  0  0  0  0  0  0
   38.3225   34.4336   39.1896 H   0  0  0  0  0  0  0  0  0  0  0  0
   37.2958   33.6325   40.4413 H   0  0  0  0  0  0  0  0  0  0  0  0
   39.2906   34.7034   41.4342 H   0  0  0  0  0  0  0  0  0  0  0  0
   39.3037   32.9272   41.6594 H   0  0  0  0  0  0  0  0  0  0  0  0
   41.2584   32.8059   40.5927 H   0  0  0  0  0  0  0  0  0  0  0  0
   40.1670   34.2842   38.2182 H   0  0  0  0  0  0  0  0  0  0  0  0
   41.5338   33.1032   38.3192 H   0  0  0  0  0  0  0  0  0  0  0  0
   39.3147   32.3615   37.4110 H   0  0  0  0  0  0  0  0  0  0  0  0
   39.5758   28.9689   38.4419 H   0  0  0  0  0  0  0  0  0  0  0  0
   38.3152   30.2290   38.8789 H   0  0  0  0  0  0  0  0  0  0  0  0
   37.8882   29.2468   36.7136 H   0  0  0  0  0  0  0  0  0  0  0  0
   38.2986   31.0172   36.6281 H   0  0  0  0  0  0  0  0  0  0  0  0
   39.7879   30.5018   35.0524 H   0  0  0  0  0  0  0  0  0  0  0  0
   39.5988   28.7521   35.3265 H   0  0  0  0  0  0  0  0  0  0  0  0
   41.1376   28.7858   37.1764 H   0  0  0  0  0  0  0  0  0  0  0  0
   41.8986   29.7457   35.8413 H   0  0  0  0  0  0  0  0  0  0  0  0
   42.1989   30.8720   37.9636 H   0  0  0  0  0  0  0  0  0  0  0  0
   41.0624   31.7975   36.8729 H   0  0  0  0  0  0  0  0  0  0  0  0
   43.3032   36.2765   42.5236 H   0  0  0  0  0  0  0  0  0  0  0  0
   43.5945   33.5312   39.2394 H   0  0  0  0  0  0  0  0  0  0  0  0
   47.8222   36.3936   41.4172 H   0  0  0  0  0  0  0  0  0  0  0  0
   50.2013   36.1300   42.0604 H   0  0  0  0  0  0  0  0  0  0  0  0
   51.0551   33.9206   42.8352 H   0  0  0  0  0  0  0  0  0  0  0  0
   49.4433   32.0228   42.9371 H   0  0  0  0  0  0  0  0  0  0  0  0
  1  2  1  0
  2  3  1  0
  4 13  1  0
  4  3  1  0
  5  4  1  0
  6  7  1  0
  6  5  1  0
  6  1  1  0
  8  7  1  0
  9  8  1  0
 10 11  1  0
 10  9  1  0
 11 12  1  0
 12  7  1  0
 13 15  1  0
 14 19  2  0
 15 14  1  0
 16 17  1  0
 16 15  2  0
 17 18  2  0
 18 20  1  0
 18 19  1  0
 20 25  1  0
 21 20  2  0
 21 22  1  0
 22 23  2  0
 23 24  1  0
 25 24  2  0
  1 26  1  0
  2 27  1  0
  2 28  1  0
  3 29  1  0
  3 30  1  0
  4 31  1  1
  5 32  1  0
  5 33  1  0
  6 34  1  6
  8 35  1  0
  8 36  1  0
  9 37  1  0
  9 38  1  0
 10 39  1  0
 10 40  1  0
 11 41  1  0
 11 42  1  0
 12 43  1  0
 12 44  1  0
 14 45  1  0
 16 46  1  0
 21 47  1  0
 22 48  1  0
 23 49  1  0
 24 50  1  0
M  ISO  8  26   5  27  13  28  13  29  13  30  13  31  13  32  13  33  13
M  ISO  8  34  13  35  13  36  13  37  13  38  13  39  13  40  13  41  13
M  ISO  8  42  13  43  13  44  13  45  14  46  14  47  14  48  14  49  14
M  ISO  1  50  14
M  END
>  <minimizedAffinity>  (1) 
-5.77726889

>  <minimizedRMSD>  (1) 
1.61309659

$$$$
