
     RDKit          3D

 37 39  0  0  1  0  0  0  0  0999 V2000
   41.6510   35.2360   41.2100 S   0  0  0  0  0  0  0  0  0  0  0  0
   38.4980   32.7620   39.2370 N   0  0  0  0  0  0  0  0  0  0  0  0
   38.5640   33.2980   40.5750 C   0  0  0  0  0  0  0  0  0  0  0  0
   39.9550   33.1730   41.1520 C   0  0  0  0  0  0  0  0  0  0  0  0
   40.9000   33.9200   40.2560 C   0  0  1  0  0  0  0  0  0  0  0  0
   40.2610   34.4570   39.0050 C   0  0  0  0  0  0  0  0  0  0  0  0
   39.4280   33.3850   38.3220 C   0  0  2  0  0  0  0  0  0  0  0  0
   38.5920   34.1120   37.3560 N   0  0  0  0  0  0  0  0  0  0  0  0
   44.1030   35.5400   42.4830 C   0  0  0  0  0  0  0  0  0  0  0  0
   43.4200   34.9780   41.4060 C   0  0  0  0  0  0  0  0  0  0  0  0
   44.1290   34.2320   40.5120 C   0  0  0  0  0  0  0  0  0  0  0  0
   45.4770   34.0420   40.6740 N   0  0  0  0  0  0  0  0  0  0  0  0
   46.1100   34.6050   41.7370 C   0  0  0  0  0  0  0  0  0  0  0  0
   45.4290   35.3570   42.6500 N   0  0  0  0  0  0  0  0  0  0  0  0
   47.5400   34.4540   41.9860 C   0  0  0  0  0  0  0  0  0  0  0  0
   48.3760   35.5200   41.9440 C   0  0  0  0  0  0  0  0  0  0  0  0
   49.7400   35.3990   42.1770 C   0  0  0  0  0  0  0  0  0  0  0  0
   50.2800   34.1580   42.4620 C   0  0  0  0  0  0  0  0  0  0  0  0
   49.4090   33.0950   42.4980 C   0  0  0  0  0  0  0  0  0  0  0  0
   48.0890   33.2490   42.2660 N   0  0  0  0  0  0  0  0  0  0  0  0
   38.7065   31.7542   39.2784 H   0  0  0  0  0  0  0  0  0  0  0  0
   38.2817   34.3608   40.5489 H   0  0  0  0  0  0  0  0  0  0  0  0
   37.8730   32.7256   41.2113 H   0  0  0  0  0  0  0  0  0  0  0  0
   39.9795   33.6053   42.1632 H   0  0  0  0  0  0  0  0  0  0  0  0
   40.2473   32.1145   41.2166 H   0  0  0  0  0  0  0  0  0  0  0  0
   41.6597   33.2087   39.8997 H   0  0  0  0  0  0  0  0  0  0  0  0
   39.6120   35.3056   39.2671 H   0  0  0  0  0  0  0  0  0  0  0  0
   41.0540   34.7806   38.3148 H   0  0  0  0  0  0  0  0  0  0  0  0
   40.0911   32.6169   37.8974 H   0  0  0  0  0  0  0  0  0  0  0  0
   37.9152   34.7006   37.8623 H   0  0  0  0  0  0  0  0  0  0  0  0
   39.1894   34.7070   36.7644 H   0  0  0  0  0  0  0  0  0  0  0  0
   43.5481   36.1467   43.2137 H   0  0  0  0  0  0  0  0  0  0  0  0
   43.6145   33.7781   39.6522 H   0  0  0  0  0  0  0  0  0  0  0  0
   47.9608   36.5133   41.7181 H   0  0  0  0  0  0  0  0  0  0  0  0
   50.3882   36.2867   42.1350 H   0  0  0  0  0  0  0  0  0  0  0  0
   51.3558   34.0277   42.6510 H   0  0  0  0  0  0  0  0  0  0  0  0
   49.7991   32.0912   42.7221 H   0  0  0  0  0  0  0  0  0  0  0  0
  1 10  1  0
  2  3  1  0
  3  4  1  0
  5  4  1  0
  5  1  1  0
  6  5  1  0
  7  6  1  0
  7  2  1  0
  8  7  1  0
  9 14  2  0
 10  9  1  0
 11 12  1  0
 11 10  2  0
 12 13  2  0
 13 15  1  0
 13 14  1  0
 15 20  1  0
 16 15  2  0
 16 17  1  0
 17 18  2  0
 18 19  1  0
 20 19  2  0
  2 21  1  0
  3 22  1  0
  3 23  1  0
  4 24  1  0
  4 25  1  0
  5 26  1  6
  6 27  1  0
  6 28  1  0
  7 29  1  6
  8 30  1  0
  8 31  1  0
  9 32  1  0
 11 33  1  0
 16 34  1  0
 17 35  1  0
 18 36  1  0
 19 37  1  0
M  ISO  8  21   5  22  13  23  13  24  13  25  13  26  13  27  13  28  13
M  ISO  8  29  13  30   5  31   5  32  14  33  14  34  14  35  14  36  14
M  ISO  1  37  14
M  END
>  <minimizedAffinity>  (1) 
-5.57105017

>  <minimizedRMSD>  (1) 
0.636179447

$$$$
