
     RDKit          3D

 45 47  0  0  0  0  0  0  0  0999 V2000
   47.3490   32.8270   38.3380 C   0  0  0  0  0  0  0  0  0  0  0  0
   46.2040   34.4120   41.4340 C   0  0  0  0  0  0  0  0  0  0  0  0
   47.2920   35.1420   41.8440 C   0  0  0  0  0  0  0  0  0  0  0  0
   48.4740   35.1210   41.0680 C   0  0  0  0  0  0  0  0  0  0  0  0
   48.4590   34.3600   39.9370 N   0  0  0  0  0  0  0  0  0  0  0  0
   47.3530   33.6480   39.5670 C   0  0  0  0  0  0  0  0  0  0  0  0
   46.2670   33.6890   40.3100 N   0  0  0  0  0  0  0  0  0  0  0  0
   45.0140   34.4510   42.2410 C   0  0  0  0  0  0  0  0  0  0  0  0
   43.8730   34.3320   41.6810 O   0  0  0  0  0  0  0  0  0  0  0  0
   45.1610   34.6210   43.6340 O   0  0  0  0  0  0  0  0  0  0  0  0
   44.5680   35.7540   44.2310 C   0  0  0  0  0  0  0  0  0  0  0  0
   43.2050   35.8460   43.9790 F   0  0  0  0  0  0  0  0  0  0  0  0
   44.7570   35.6810   45.5920 F   0  0  0  0  0  0  0  0  0  0  0  0
   45.1570   36.8600   43.6610 F   0  0  0  0  0  0  0  0  0  0  0  0
   46.8680   31.4360   38.5620 C   0  0  0  0  0  0  0  0  0  0  0  0
   46.5030   33.4920   37.3170 C   0  0  0  0  0  0  0  0  0  0  0  0
   48.7740   32.7820   37.8280 C   0  0  0  0  0  0  0  0  0  0  0  0
   48.8440   32.5210   36.3750 C   0  0  0  0  0  0  0  0  0  0  0  0
   49.2820   31.2770   35.9290 C   0  0  0  0  0  0  0  0  0  0  0  0
   49.2350   31.3460   34.5250 C   0  0  0  0  0  0  0  0  0  0  0  0
   48.7910   32.5680   34.1920 N   0  0  0  0  0  0  0  0  0  0  0  0
   48.5650   33.2480   35.2720 N   0  0  0  0  0  0  0  0  0  0  0  0
   48.6120   33.0180   32.8280 C   0  0  0  0  0  0  0  0  0  0  0  0
   49.3420   32.0380   31.9390 C   0  0  0  0  0  0  0  0  0  0  0  0
   48.6200   31.3070   30.8720 C   0  0  0  0  0  0  0  0  0  0  0  0
   49.4420   32.4810   30.4830 C   0  0  0  0  0  0  0  0  0  0  0  0
   47.2448   35.7377   42.7675 H   0  0  0  0  0  0  0  0  0  0  0  0
   49.3657   35.6932   41.3638 H   0  0  0  0  0  0  0  0  0  0  0  0
   46.8005   31.2409   39.6425 H   0  0  0  0  0  0  0  0  0  0  0  0
   45.8752   31.3132   38.1045 H   0  0  0  0  0  0  0  0  0  0  0  0
   47.5729   30.7262   38.1045 H   0  0  0  0  0  0  0  0  0  0  0  0
   45.7327   34.0975   37.8170 H   0  0  0  0  0  0  0  0  0  0  0  0
   47.1295   34.1419   36.6885 H   0  0  0  0  0  0  0  0  0  0  0  0
   46.0194   32.7297   36.6885 H   0  0  0  0  0  0  0  0  0  0  0  0
   49.2547   33.7491   38.0368 H   0  0  0  0  0  0  0  0  0  0  0  0
   49.2886   31.9569   38.3423 H   0  0  0  0  0  0  0  0  0  0  0  0
   49.5978   30.4216   36.5442 H   0  0  0  0  0  0  0  0  0  0  0  0
   49.5122   30.5432   33.8259 H   0  0  0  0  0  0  0  0  0  0  0  0
   47.5421   33.0344   32.5731 H   0  0  0  0  0  0  0  0  0  0  0  0
   49.0065   34.0363   32.6960 H   0  0  0  0  0  0  0  0  0  0  0  0
   50.0134   31.7075   32.7452 H   0  0  0  0  0  0  0  0  0  0  0  0
   48.9461   30.2956   30.5881 H   0  0  0  0  0  0  0  0  0  0  0  0
   47.5696   31.0207   30.7147 H   0  0  0  0  0  0  0  0  0  0  0  0
   50.3793   32.3392   29.9250 H   0  0  0  0  0  0  0  0  0  0  0  0
   49.2617   33.4171   29.9342 H   0  0  0  0  0  0  0  0  0  0  0  0
  1 15  1  0
  1  6  1  0
  2  3  2  0
  2  8  1  0
  4  3  1  0
  5  4  2  0
  6  5  1  0
  6  7  2  0
  7  2  1  0
  8 10  1  0
  9  8  2  0
 10 11  1  0
 11 13  1  0
 12 11  1  0
 14 11  1  0
 16  1  1  0
 17  1  1  0
 18 17  1  0
 19 18  1  0
 20 19  2  0
 21 20  1  0
 21 22  1  0
 22 18  2  0
 23 21  1  0
 24 23  1  0
 25 24  1  0
 26 25  1  0
 26 24  1  0
  3 27  1  0
  4 28  1  0
 15 29  1  0
 15 30  1  0
 15 31  1  0
 16 32  1  0
 16 33  1  0
 16 34  1  0
 17 35  1  0
 17 36  1  0
 19 37  1  0
 20 38  1  0
 23 39  1  0
 23 40  1  0
 24 41  1  0
 25 42  1  0
 25 43  1  0
 26 44  1  0
 26 45  1  0
M  ISO  8  27  14  28  14  29   8  30   8  31   8  32   8  33   8  34   8
M  ISO  8  35   8  36   8  37  14  38  14  39   8  40   8  41  13  42  13
M  ISO  3  43  13  44  13  45  13
M  END
>  <minimizedAffinity>  (1) 
-5.2206049

>  <minimizedRMSD>  (1) 
1.44611871

$$$$
