
     RDKit          3D

 48 50  0  0  0  0  0  0  0  0999 V2000
   45.5200   32.3610   37.6980 C   0  0  0  0  0  0  0  0  0  0  0  0
   45.5280   34.2080   40.8650 C   0  0  0  0  0  0  0  0  0  0  0  0
   46.8700   34.4220   41.1090 C   0  0  0  0  0  0  0  0  0  0  0  0
   47.8140   33.9320   40.1840 C   0  0  0  0  0  0  0  0  0  0  0  0
   47.3470   33.2710   39.0910 N   0  0  0  0  0  0  0  0  0  0  0  0
   46.0240   33.0850   38.8920 C   0  0  0  0  0  0  0  0  0  0  0  0
   45.1490   33.5460   39.7640 N   0  0  0  0  0  0  0  0  0  0  0  0
   44.5670   34.7120   41.8160 C   0  0  0  0  0  0  0  0  0  0  0  0
   43.6550   35.5130   41.4200 O   0  0  0  0  0  0  0  0  0  0  0  0
   44.6880   34.2830   43.1610 O   0  0  0  0  0  0  0  0  0  0  0  0
   44.8870   35.2800   44.1470 C   0  0  0  0  0  0  0  0  0  0  0  0
   43.7100   35.8860   44.5530 F   0  0  0  0  0  0  0  0  0  0  0  0
   45.4930   34.7030   45.2350 F   0  0  0  0  0  0  0  0  0  0  0  0
   45.6730   36.2530   43.5680 F   0  0  0  0  0  0  0  0  0  0  0  0
   44.2130   31.7020   37.9120 C   0  0  0  0  0  0  0  0  0  0  0  0
   45.4010   33.3380   36.5650 C   0  0  0  0  0  0  0  0  0  0  0  0
   46.5810   31.3320   37.3360 C   0  0  0  0  0  0  0  0  0  0  0  0
   46.8760   31.3210   35.8950 C   0  0  0  0  0  0  0  0  0  0  0  0
   46.1220   30.4930   35.0540 C   0  0  0  0  0  0  0  0  0  0  0  0
   46.6360   30.7050   33.7660 C   0  0  0  0  0  0  0  0  0  0  0  0
   47.6250   31.5940   33.8420 N   0  0  0  0  0  0  0  0  0  0  0  0
   47.7530   31.9440   35.0890 N   0  0  0  0  0  0  0  0  0  0  0  0
   48.4310   32.1010   32.7510 C   0  0  0  0  0  0  0  0  0  0  0  0
   49.6370   31.3150   32.4750 C   0  0  0  0  0  0  0  0  0  0  0  0
   50.8140   31.4480   33.1400 C   0  0  0  0  0  0  0  0  0  0  0  0
   51.9510   30.6900   32.8620 C   0  0  0  0  0  0  0  0  0  0  0  0
   51.8580   29.7450   31.8400 C   0  0  0  0  0  0  0  0  0  0  0  0
   50.6940   29.5480   31.1120 C   0  0  0  0  0  0  0  0  0  0  0  0
   49.6230   30.3580   31.4730 C   0  0  0  0  0  0  0  0  0  0  0  0
   47.1964   34.9647   42.0084 H   0  0  0  0  0  0  0  0  0  0  0  0
   48.8927   34.0794   40.3410 H   0  0  0  0  0  0  0  0  0  0  0  0
   44.0230   31.6062   38.9912 H   0  0  0  0  0  0  0  0  0  0  0  0
   43.4177   32.3069   37.4520 H   0  0  0  0  0  0  0  0  0  0  0  0
   44.2264   30.7029   37.4520 H   0  0  0  0  0  0  0  0  0  0  0  0
   45.2773   34.3539   36.9683 H   0  0  0  0  0  0  0  0  0  0  0  0
   46.3108   33.2967   35.9481 H   0  0  0  0  0  0  0  0  0  0  0  0
   44.5277   33.0795   35.9481 H   0  0  0  0  0  0  0  0  0  0  0  0
   47.5047   31.5676   37.8848 H   0  0  0  0  0  0  0  0  0  0  0  0
   46.1951   30.3388   37.6091 H   0  0  0  0  0  0  0  0  0  0  0  0
   45.3013   29.8196   35.3421 H   0  0  0  0  0  0  0  0  0  0  0  0
   46.2811   30.2178   32.8458 H   0  0  0  0  0  0  0  0  0  0  0  0
   47.8119   32.1124   31.8419 H   0  0  0  0  0  0  0  0  0  0  0  0
   48.7705   33.1036   33.0502 H   0  0  0  0  0  0  0  0  0  0  0  0
   50.8736   32.1965   33.9439 H   0  0  0  0  0  0  0  0  0  0  0  0
   52.8845   30.8316   33.4264 H   0  0  0  0  0  0  0  0  0  0  0  0
   52.7408   29.1332   31.6026 H   0  0  0  0  0  0  0  0  0  0  0  0
   50.6231   28.8032   30.3056 H   0  0  0  0  0  0  0  0  0  0  0  0
   48.6839   30.2279   30.9152 H   0  0  0  0  0  0  0  0  0  0  0  0
  1 15  1  0
  1  6  1  0
  2  3  2  0
  2  8  1  0
  4  3  1  0
  5  4  2  0
  6  5  1  0
  6  7  2  0
  7  2  1  0
  8 10  1  0
  9  8  2  0
 10 11  1  0
 11 12  1  0
 11 13  1  0
 14 11  1  0
 16  1  1  0
 17  1  1  0
 18 17  1  0
 19 18  1  0
 20 21  1  0
 20 19  2  0
 21 22  1  0
 22 18  2  0
 23 21  1  0
 24 23  1  0
 24 25  2  0
 26 25  1  0
 27 26  2  0
 28 29  2  0
 28 27  1  0
 29 24  1  0
  3 30  1  0
  4 31  1  0
 15 32  1  0
 15 33  1  0
 15 34  1  0
 16 35  1  0
 16 36  1  0
 16 37  1  0
 17 38  1  0
 17 39  1  0
 19 40  1  0
 20 41  1  0
 23 42  1  0
 23 43  1  0
 25 44  1  0
 26 45  1  0
 27 46  1  0
 28 47  1  0
 29 48  1  0
M  ISO  8  30  14  31  14  32   8  33   8  34   8  35   8  36   8  37   8
M  ISO  8  38   8  39   8  40  14  41  14  42   8  43   8  44  14  45  14
M  ISO  3  46  14  47  14  48  14
M  END
>  <minimizedAffinity>  (1) 
-5.00758362

>  <minimizedRMSD>  (1) 
1.28161669

$$$$
