
     RDKit          3D

 39 42  0  0  0  0  0  0  0  0999 V2000
   46.4830   34.6040   42.1860 C   0  0  0  0  0  0  0  0  0  0  0  0
   47.7910   34.9780   42.0400 C   0  0  0  0  0  0  0  0  0  0  0  0
   48.4680   34.8470   40.8230 C   0  0  0  0  0  0  0  0  0  0  0  0
   47.7980   34.3180   39.7130 C   0  0  0  0  0  0  0  0  0  0  0  0
   46.4880   33.9450   39.8670 C   0  0  0  0  0  0  0  0  0  0  0  0
   45.8510   34.0910   41.0910 C   0  0  0  0  0  0  0  0  0  0  0  0
   44.4390   35.8530   45.0890 C   0  0  0  0  0  0  0  0  0  0  0  0
   44.9700   35.7920   43.8050 C   0  0  0  0  0  0  0  0  0  0  0  0
   45.8600   34.7770   43.4890 C   0  0  0  0  0  0  0  0  0  0  0  0
   46.1740   33.8850   44.4450 N   0  0  0  0  0  0  0  0  0  0  0  0
   45.6400   33.9650   45.6960 C   0  0  0  0  0  0  0  0  0  0  0  0
   44.7750   34.9540   46.0030 N   0  0  0  0  0  0  0  0  0  0  0  0
   45.9690   33.0220   46.7170 N   0  0  0  0  0  0  0  0  0  0  0  0
   46.9350   32.1620   47.0090 C   0  0  0  0  0  0  0  0  0  0  0  0
   46.6230   31.5570   48.1670 N   0  0  0  0  0  0  0  0  0  0  0  0
   45.4660   32.0310   48.6080 C   0  0  0  0  0  0  0  0  0  0  0  0
   45.0630   32.9430   47.7030 N   0  0  0  0  0  0  0  0  0  0  0  0
   44.4940   33.6910   41.2010 N   0  0  0  0  0  0  0  0  0  0  0  0
   43.6580   34.6470   40.6810 C   0  0  0  0  0  0  0  0  0  0  0  0
   42.2780   34.4660   40.6830 C   0  0  0  0  0  0  0  0  0  0  0  0
   41.7880   33.2890   41.2270 C   0  0  0  0  0  0  0  0  0  0  0  0
   40.5500   33.0680   41.2570 O   0  0  0  0  0  0  0  0  0  0  0  0
   42.6350   32.3830   41.7230 N   0  0  0  0  0  0  0  0  0  0  0  0
   43.9700   32.5720   41.7150 C   0  0  0  0  0  0  0  0  0  0  0  0
   44.8290   31.7810   42.1550 O   0  0  0  0  0  0  0  0  0  0  0  0
   41.3440   35.4850   40.1270 C   0  0  0  0  0  0  0  0  0  0  0  0
   48.3265   35.3944   42.9060 H   0  0  0  0  0  0  0  0  0  0  0  0
   49.5199   35.1575   40.7385 H   0  0  0  0  0  0  0  0  0  0  0  0
   48.3083   34.2050   38.7451 H   0  0  0  0  0  0  0  0  0  0  0  0
   45.9366   33.5261   39.0123 H   0  0  0  0  0  0  0  0  0  0  0  0
   43.7330   36.6556   45.3486 H   0  0  0  0  0  0  0  0  0  0  0  0
   44.6873   36.5399   43.0495 H   0  0  0  0  0  0  0  0  0  0  0  0
   47.8365   31.9760   46.4068 H   0  0  0  0  0  0  0  0  0  0  0  0
   44.9405   31.7379   49.5288 H   0  0  0  0  0  0  0  0  0  0  0  0
   44.0841   35.5683   40.2571 H   0  0  0  0  0  0  0  0  0  0  0  0
   42.2566   31.5130   42.1240 H   0  0  0  0  0  0  0  0  0  0  0  0
   40.8526   36.0211   40.9523 H   0  0  0  0  0  0  0  0  0  0  0  0
   41.9070   36.2000   39.5091 H   0  0  0  0  0  0  0  0  0  0  0  0
   40.5828   34.9863   39.5091 H   0  0  0  0  0  0  0  0  0  0  0  0
  1  9  1  0
  2  1  2  0
  3  2  1  0
  4  5  1  0
  4  3  2  0
  5  6  2  0
  6 18  1  0
  6  1  1  0
  7 12  2  0
  8  7  1  0
  9  8  2  0
  9 10  1  0
 10 11  2  0
 11 12  1  0
 11 13  1  0
 13 14  1  0
 13 17  1  0
 14 15  2  0
 15 16  1  0
 17 16  2  0
 18 24  1  0
 19 20  2  0
 19 18  1  0
 20 21  1  0
 21 22  2  0
 21 23  1  0
 24 23  1  0
 24 25  2  0
 26 20  1  0
  2 27  1  0
  3 28  1  0
  4 29  1  0
  5 30  1  0
  7 31  1  0
  8 32  1  0
 14 33  1  0
 16 34  1  0
 19 35  1  0
 23 36  1  0
 26 37  1  0
 26 38  1  0
 26 39  1  0
M  ISO  8  27  14  28  14  29  14  30  14  31  14  32  14  33  14  34  14
M  ISO  5  35  14  36   9  37   8  38   8  39   8
M  END
>  <minimizedAffinity>  (1) 
-7.73765945

>  <minimizedRMSD>  (1) 
0.27965793

$$$$
