
     RDKit          3D

 39 40  0  0  0  0  0  0  0  0999 V2000
   46.4380   32.2760   37.8610 C   0  0  0  0  0  0  0  0  0  0  0  0
   45.9020   34.2590   40.8830 C   0  0  0  0  0  0  0  0  0  0  0  0
   47.1750   34.6360   41.2610 C   0  0  0  0  0  0  0  0  0  0  0  0
   48.2720   34.2150   40.4800 C   0  0  0  0  0  0  0  0  0  0  0  0
   47.9990   33.4540   39.3870 N   0  0  0  0  0  0  0  0  0  0  0  0
   46.7350   33.1040   39.0490 C   0  0  0  0  0  0  0  0  0  0  0  0
   45.7170   33.5080   39.7940 N   0  0  0  0  0  0  0  0  0  0  0  0
   44.7900   34.6970   41.6930 C   0  0  0  0  0  0  0  0  0  0  0  0
   43.8520   35.3730   41.1600 O   0  0  0  0  0  0  0  0  0  0  0  0
   44.7990   34.3480   43.0640 O   0  0  0  0  0  0  0  0  0  0  0  0
   44.8050   35.3840   44.0210 C   0  0  0  0  0  0  0  0  0  0  0  0
   43.5240   35.8610   44.2720 F   0  0  0  0  0  0  0  0  0  0  0  0
   45.3330   34.9190   45.1970 F   0  0  0  0  0  0  0  0  0  0  0  0
   45.5240   36.4110   43.4760 F   0  0  0  0  0  0  0  0  0  0  0  0
   45.5510   31.1190   38.1410 C   0  0  0  0  0  0  0  0  0  0  0  0
   45.8440   33.1530   36.8090 C   0  0  0  0  0  0  0  0  0  0  0  0
   47.7770   31.7750   37.3450 C   0  0  0  0  0  0  0  0  0  0  0  0
   47.9320   31.9380   35.8870 C   0  0  0  0  0  0  0  0  0  0  0  0
   47.4120   30.9690   35.0340 C   0  0  0  0  0  0  0  0  0  0  0  0
   47.7150   31.4040   33.7460 C   0  0  0  0  0  0  0  0  0  0  0  0
   48.3710   32.5560   33.8380 N   0  0  0  0  0  0  0  0  0  0  0  0
   48.4960   32.8660   35.1000 N   0  0  0  0  0  0  0  0  0  0  0  0
   48.8850   33.3720   32.7320 C   0  0  0  0  0  0  0  0  0  0  0  0
   49.1690   32.1680   31.3760 S   0  0  0  0  0  0  0  0  0  0  0  0
   47.3316   35.2548   42.1569 H   0  0  0  0  0  0  0  0  0  0  0  0
   49.3037   34.4906   40.7441 H   0  0  0  0  0  0  0  0  0  0  0  0
   45.4509   30.9885   39.2286 H   0  0  0  0  0  0  0  0  0  0  0  0
   44.5596   31.3021   37.7009 H   0  0  0  0  0  0  0  0  0  0  0  0
   45.9852   30.2092   37.7009 H   0  0  0  0  0  0  0  0  0  0  0  0
   45.2883   33.9735   37.2865 H   0  0  0  0  0  0  0  0  0  0  0  0
   46.6467   33.5695   36.1827 H   0  0  0  0  0  0  0  0  0  0  0  0
   45.1594   32.5622   36.1827 H   0  0  0  0  0  0  0  0  0  0  0  0
   48.5783   32.3367   37.8474 H   0  0  0  0  0  0  0  0  0  0  0  0
   47.8307   30.6981   37.5626 H   0  0  0  0  0  0  0  0  0  0  0  0
   46.8745   30.0521   35.3175 H   0  0  0  0  0  0  0  0  0  0  0  0
   47.4557   30.8831   32.8125 H   0  0  0  0  0  0  0  0  0  0  0  0
   48.1473   34.1307   32.4316 H   0  0  0  0  0  0  0  0  0  0  0  0
   49.7977   33.9224   33.0040 H   0  0  0  0  0  0  0  0  0  0  0  0
   49.4587   30.9397   31.9092 H   0  0  0  0  0  0  0  0  0  0  0  0
  1 15  1  0
  1  6  1  0
  2  3  2  0
  2  8  1  0
  4  3  1  0
  5  4  2  0
  6  5  1  0
  6  7  2  0
  7  2  1  0
  8 10  1  0
  9  8  2  0
 10 11  1  0
 11 12  1  0
 11 13  1  0
 14 11  1  0
 16  1  1  0
 17  1  1  0
 18 17  1  0
 19 18  1  0
 20 21  1  0
 20 19  2  0
 21 22  1  0
 22 18  2  0
 23 21  1  0
 24 23  1  0
  3 25  1  0
  4 26  1  0
 15 27  1  0
 15 28  1  0
 15 29  1  0
 16 30  1  0
 16 31  1  0
 16 32  1  0
 17 33  1  0
 17 34  1  0
 19 35  1  0
 20 36  1  0
 23 37  1  0
 23 38  1  0
 24 39  1  0
M  ISO  8  25  14  26  14  27   8  28   8  29   8  30   8  31   8  32   8
M  ISO  7  33   8  34   8  35  14  36  14  37   8  38   8  39  11
M  END
>  <minimizedAffinity>  (1) 
-4.78565168

>  <minimizedRMSD>  (1) 
0.387378931

$$$$
