
     RDKit          3D

 40 43  0  0  0  0  0  0  0  0999 V2000
   46.4370   34.6620   42.1970 C   0  0  0  0  0  0  0  0  0  0  0  0
   47.7450   35.0310   42.0670 C   0  0  0  0  0  0  0  0  0  0  0  0
   48.4500   34.8500   40.8770 C   0  0  0  0  0  0  0  0  0  0  0  0
   47.7980   34.2690   39.7690 C   0  0  0  0  0  0  0  0  0  0  0  0
   46.4860   33.9020   39.9110 C   0  0  0  0  0  0  0  0  0  0  0  0
   45.8240   34.1010   41.1150 C   0  0  0  0  0  0  0  0  0  0  0  0
   44.4640   33.7060   41.2140 N   0  0  0  0  0  0  0  0  0  0  0  0
   43.6380   34.6580   40.6740 C   0  0  0  0  0  0  0  0  0  0  0  0
   42.2530   34.4770   40.6630 C   0  0  0  0  0  0  0  0  0  0  0  0
   41.7580   33.3090   41.2140 C   0  0  0  0  0  0  0  0  0  0  0  0
   40.5230   33.0840   41.2350 O   0  0  0  0  0  0  0  0  0  0  0  0
   42.6020   32.4010   41.7310 N   0  0  0  0  0  0  0  0  0  0  0  0
   43.9300   32.5930   41.7330 C   0  0  0  0  0  0  0  0  0  0  0  0
   44.7890   31.8050   42.1910 O   0  0  0  0  0  0  0  0  0  0  0  0
   41.3310   35.4950   40.0860 C   0  0  0  0  0  0  0  0  0  0  0  0
   44.4160   36.0920   45.0300 C   0  0  0  0  0  0  0  0  0  0  0  0
   44.9830   35.9820   43.7710 C   0  0  0  0  0  0  0  0  0  0  0  0
   45.7880   34.8900   43.4770 C   0  0  0  0  0  0  0  0  0  0  0  0
   45.9820   33.9710   44.4510 N   0  0  0  0  0  0  0  0  0  0  0  0
   45.4100   34.1090   45.6780 C   0  0  0  0  0  0  0  0  0  0  0  0
   44.6310   35.1670   45.9600 N   0  0  0  0  0  0  0  0  0  0  0  0
   45.6690   33.0510   46.7120 C   0  0  0  0  0  0  0  0  0  0  0  0
   46.0610   31.7190   46.0530 C   0  0  0  0  0  0  0  0  0  0  0  0
   47.0060   32.4960   46.9260 C   0  0  0  0  0  0  0  0  0  0  0  0
   48.2588   35.4850   42.9272 H   0  0  0  0  0  0  0  0  0  0  0  0
   49.5037   35.1572   40.8033 H   0  0  0  0  0  0  0  0  0  0  0  0
   48.3284   34.1150   38.8177 H   0  0  0  0  0  0  0  0  0  0  0  0
   45.9525   33.4458   39.0641 H   0  0  0  0  0  0  0  0  0  0  0  0
   44.0706   35.5739   40.2450 H   0  0  0  0  0  0  0  0  0  0  0  0
   42.2199   31.5347   42.1365 H   0  0  0  0  0  0  0  0  0  0  0  0
   40.8344   36.0433   40.9001 H   0  0  0  0  0  0  0  0  0  0  0  0
   41.9046   36.1996   39.4659 H   0  0  0  0  0  0  0  0  0  0  0  0
   40.5732   34.9938   39.4659 H   0  0  0  0  0  0  0  0  0  0  0  0
   43.7785   36.9575   45.2636 H   0  0  0  0  0  0  0  0  0  0  0  0
   44.7968   36.7541   43.0100 H   0  0  0  0  0  0  0  0  0  0  0  0
   44.9349   33.4500   47.4275 H   0  0  0  0  0  0  0  0  0  0  0  0
   45.6257   30.7731   46.4077 H   0  0  0  0  0  0  0  0  0  0  0  0
   46.0779   31.3166   45.0294 H   0  0  0  0  0  0  0  0  0  0  0  0
   47.8785   32.9918   46.4755 H   0  0  0  0  0  0  0  0  0  0  0  0
   47.5960   32.2495   47.8211 H   0  0  0  0  0  0  0  0  0  0  0  0
  1 18  1  0
  2  1  2  0
  3  2  1  0
  4  5  1  0
  4  3  2  0
  5  6  2  0
  6  7  1  0
  6  1  1  0
  7 13  1  0
  8  7  1  0
  9  8  2  0
  9 10  1  0
 10 11  2  0
 10 12  1  0
 12 13  1  0
 13 14  2  0
 15  9  1  0
 16 21  2  0
 17 16  1  0
 18 17  2  0
 18 19  1  0
 19 20  2  0
 20 21  1  0
 20 22  1  0
 22 24  1  0
 23 22  1  0
 23 24  1  0
  2 25  1  0
  3 26  1  0
  4 27  1  0
  5 28  1  0
  8 29  1  0
 12 30  1  0
 15 31  1  0
 15 32  1  0
 15 33  1  0
 16 34  1  0
 17 35  1  0
 22 36  1  0
 23 37  1  0
 23 38  1  0
 24 39  1  0
 24 40  1  0
M  ISO  8  25  14  26  14  27  14  28  14  29  14  30   9  31   8  32   8
M  ISO  8  33   8  34  14  35  14  36  13  37  13  38  13  39  13  40  13
M  END
>  <minimizedAffinity>  (1) 
-6.89940739

>  <minimizedRMSD>  (1) 
0.12115974

$$$$
