
     RDKit          3D

 34 36  0  0  0  0  0  0  0  0999 V2000
   46.3890   34.6940   42.1660 C   0  0  0  0  0  0  0  0  0  0  0  0
   47.6940   35.0440   42.0310 C   0  0  0  0  0  0  0  0  0  0  0  0
   48.4070   34.8220   40.8470 C   0  0  0  0  0  0  0  0  0  0  0  0
   47.7600   34.2190   39.7590 C   0  0  0  0  0  0  0  0  0  0  0  0
   46.4460   33.8720   39.9090 C   0  0  0  0  0  0  0  0  0  0  0  0
   45.7710   34.1080   41.1000 C   0  0  0  0  0  0  0  0  0  0  0  0
   44.4070   33.7290   41.2010 N   0  0  0  0  0  0  0  0  0  0  0  0
   43.5940   34.6960   40.6690 C   0  0  0  0  0  0  0  0  0  0  0  0
   42.2060   34.5300   40.6630 C   0  0  0  0  0  0  0  0  0  0  0  0
   41.6980   33.3580   41.2130 C   0  0  0  0  0  0  0  0  0  0  0  0
   40.4620   33.1500   41.2370 O   0  0  0  0  0  0  0  0  0  0  0  0
   42.5400   32.4480   41.7180 N   0  0  0  0  0  0  0  0  0  0  0  0
   43.8670   32.6160   41.7190 C   0  0  0  0  0  0  0  0  0  0  0  0
   44.7180   31.8210   42.1660 O   0  0  0  0  0  0  0  0  0  0  0  0
   41.2890   35.5530   40.0970 C   0  0  0  0  0  0  0  0  0  0  0  0
   44.4330   36.2660   44.9820 C   0  0  0  0  0  0  0  0  0  0  0  0
   45.0190   36.1240   43.7220 C   0  0  0  0  0  0  0  0  0  0  0  0
   45.7300   34.9660   43.4410 C   0  0  0  0  0  0  0  0  0  0  0  0
   45.8220   34.0300   44.3970 N   0  0  0  0  0  0  0  0  0  0  0  0
   45.2440   34.1870   45.6200 C   0  0  0  0  0  0  0  0  0  0  0  0
   44.5520   35.3040   45.9050 N   0  0  0  0  0  0  0  0  0  0  0  0
   45.4250   33.1320   46.5100 O   0  0  0  0  0  0  0  0  0  0  0  0
   48.2080   35.5178   42.8803 H   0  0  0  0  0  0  0  0  0  0  0  0
   49.4638   35.1175   40.7710 H   0  0  0  0  0  0  0  0  0  0  0  0
   48.2925   34.0311   38.8150 H   0  0  0  0  0  0  0  0  0  0  0  0
   45.9138   33.3974   39.0715 H   0  0  0  0  0  0  0  0  0  0  0  0
   44.0368   35.6088   40.2439 H   0  0  0  0  0  0  0  0  0  0  0  0
   42.1505   31.5842   42.1218 H   0  0  0  0  0  0  0  0  0  0  0  0
   40.7990   36.0996   40.9162 H   0  0  0  0  0  0  0  0  0  0  0  0
   41.8633   36.2579   39.4779 H   0  0  0  0  0  0  0  0  0  0  0  0
   40.5258   35.0589   39.4779 H   0  0  0  0  0  0  0  0  0  0  0  0
   43.8671   37.1791   45.2185 H   0  0  0  0  0  0  0  0  0  0  0  0
   44.9186   36.9164   42.9657 H   0  0  0  0  0  0  0  0  0  0  0  0
   45.0326   33.1773   47.4178 H   0  0  0  0  0  0  0  0  0  0  0  0
  1 18  1  0
  2  1  2  0
  3  2  1  0
  4  5  1  0
  4  3  2  0
  5  6  2  0
  6  7  1  0
  6  1  1  0
  7 13  1  0
  8  7  1  0
  9  8  2  0
  9 10  1  0
 10 11  2  0
 10 12  1  0
 12 13  1  0
 13 14  2  0
 15  9  1  0
 16 21  2  0
 17 16  1  0
 18 17  2  0
 18 19  1  0
 19 20  2  0
 20 21  1  0
 20 22  1  0
  2 23  1  0
  3 24  1  0
  4 25  1  0
  5 26  1  0
  8 27  1  0
 12 28  1  0
 15 29  1  0
 15 30  1  0
 15 31  1  0
 16 32  1  0
 17 33  1  0
 22 34  1  0
M  ISO  8  23  14  24  14  25  14  26  14  27  14  28   9  29   8  30   8
M  ISO  4  31   8  32  14  33  14  34   3
M  END
>  <minimizedAffinity>  (1) 
-6.7414813

>  <minimizedRMSD>  (1) 
0.0803198442

$$$$
