
     RDKit          3D

 36 38  0  0  0  0  0  0  0  0999 V2000
   46.4290   34.6590   42.1820 C   0  0  0  0  0  0  0  0  0  0  0  0
   47.7370   35.0210   42.0470 C   0  0  0  0  0  0  0  0  0  0  0  0
   48.4310   34.8320   40.8460 C   0  0  0  0  0  0  0  0  0  0  0  0
   47.7750   34.2580   39.7460 C   0  0  0  0  0  0  0  0  0  0  0  0
   46.4670   33.9000   39.8910 C   0  0  0  0  0  0  0  0  0  0  0  0
   45.8080   34.1020   41.1020 C   0  0  0  0  0  0  0  0  0  0  0  0
   44.4450   33.7150   41.2050 N   0  0  0  0  0  0  0  0  0  0  0  0
   43.6240   34.6750   40.6730 C   0  0  0  0  0  0  0  0  0  0  0  0
   42.2400   34.5020   40.6670 C   0  0  0  0  0  0  0  0  0  0  0  0
   41.7390   33.3270   41.2180 C   0  0  0  0  0  0  0  0  0  0  0  0
   40.5030   33.1100   41.2450 O   0  0  0  0  0  0  0  0  0  0  0  0
   42.5830   32.4190   41.7260 N   0  0  0  0  0  0  0  0  0  0  0  0
   43.9090   32.5940   41.7260 C   0  0  0  0  0  0  0  0  0  0  0  0
   44.7700   31.8100   42.1730 O   0  0  0  0  0  0  0  0  0  0  0  0
   41.3160   35.5170   40.1010 C   0  0  0  0  0  0  0  0  0  0  0  0
   44.4210   36.0950   45.0270 C   0  0  0  0  0  0  0  0  0  0  0  0
   44.9840   35.9870   43.7560 C   0  0  0  0  0  0  0  0  0  0  0  0
   45.7830   34.8900   43.4650 C   0  0  0  0  0  0  0  0  0  0  0  0
   45.9730   33.9830   44.4320 N   0  0  0  0  0  0  0  0  0  0  0  0
   45.4140   34.1100   45.6630 C   0  0  0  0  0  0  0  0  0  0  0  0
   44.6430   35.1610   45.9540 N   0  0  0  0  0  0  0  0  0  0  0  0
   45.6900   33.0380   46.6750 C   0  0  0  0  0  0  0  0  0  0  0  0
   48.2596   35.4727   42.9031 H   0  0  0  0  0  0  0  0  0  0  0  0
   49.4861   35.1321   40.7648 H   0  0  0  0  0  0  0  0  0  0  0  0
   48.3014   34.1012   38.7930 H   0  0  0  0  0  0  0  0  0  0  0  0
   45.9280   33.4482   39.0452 H   0  0  0  0  0  0  0  0  0  0  0  0
   44.0606   35.5903   40.2469 H   0  0  0  0  0  0  0  0  0  0  0  0
   42.1966   31.5546   42.1314 H   0  0  0  0  0  0  0  0  0  0  0  0
   40.8217   36.0600   40.9200 H   0  0  0  0  0  0  0  0  0  0  0  0
   41.8850   36.2261   39.4818 H   0  0  0  0  0  0  0  0  0  0  0  0
   40.5567   35.0169   39.4818 H   0  0  0  0  0  0  0  0  0  0  0  0
   43.7863   36.9604   45.2685 H   0  0  0  0  0  0  0  0  0  0  0  0
   44.7978   36.7595   42.9954 H   0  0  0  0  0  0  0  0  0  0  0  0
   45.5830   33.4536   47.6878 H   0  0  0  0  0  0  0  0  0  0  0  0
   44.9749   32.2132   46.5397 H   0  0  0  0  0  0  0  0  0  0  0  0
   46.7145   32.6610   46.5397 H   0  0  0  0  0  0  0  0  0  0  0  0
  1 18  1  0
  2  1  2  0
  3  2  1  0
  4  5  1  0
  4  3  2  0
  5  6  2  0
  6  7  1  0
  6  1  1  0
  7 13  1  0
  8  7  1  0
  9  8  2  0
  9 10  1  0
 10 11  2  0
 10 12  1  0
 12 13  1  0
 13 14  2  0
 15  9  1  0
 16 21  2  0
 17 16  1  0
 18 17  2  0
 18 19  1  0
 19 20  2  0
 20 21  1  0
 20 22  1  0
  2 23  1  0
  3 24  1  0
  4 25  1  0
  5 26  1  0
  8 27  1  0
 12 28  1  0
 15 29  1  0
 15 30  1  0
 15 31  1  0
 16 32  1  0
 17 33  1  0
 22 34  1  0
 22 35  1  0
 22 36  1  0
M  ISO  8  23  14  24  14  25  14  26  14  27  14  28   9  29   8  30   8
M  ISO  6  31   8  32  14  33  14  34   8  35   8  36   8
M  END
>  <minimizedAffinity>  (1) 
-6.65509415

>  <minimizedRMSD>  (1) 
0.0323348455

$$$$
