
     RDKit          3D

 32 34  0  0  1  0  0  0  0  0999 V2000
   46.5110   33.1740   46.0780 C   0  0  2  0  0  0  0  0  0  0  0  0
   47.0490   31.9740   45.3340 C   0  0  0  0  0  0  0  0  0  0  0  0
   47.2530   30.7590   46.0920 C   0  0  0  0  0  0  0  0  0  0  0  0
   46.9430   30.7210   47.5200 C   0  0  2  0  0  0  0  0  0  0  0  0
   46.4890   31.9710   48.1560 C   0  0  0  0  0  0  0  0  0  0  0  0
   45.6150   32.7500   47.2020 C   0  0  0  0  0  0  0  0  0  0  0  0
   46.3660   34.1420   43.8160 C   0  0  0  0  0  0  0  0  0  0  0  0
   45.8930   34.1030   45.1280 C   0  0  0  0  0  0  0  0  0  0  0  0
   44.8370   34.9860   45.4760 C   0  0  0  0  0  0  0  0  0  0  0  0
   44.3470   35.8210   44.5180 N   0  0  0  0  0  0  0  0  0  0  0  0
   44.8350   35.8300   43.2540 C   0  0  0  0  0  0  0  0  0  0  0  0
   45.8390   34.9930   42.9060 N   0  0  0  0  0  0  0  0  0  0  0  0
   48.0740   30.1750   48.3360 C   0  0  0  0  0  0  0  0  0  0  0  0
   48.4910   30.9040   49.4310 C   0  0  0  0  0  0  0  0  0  0  0  0
   49.5380   30.3390   50.1360 C   0  0  0  0  0  0  0  0  0  0  0  0
   50.1650   29.1710   49.8480 N   0  0  0  0  0  0  0  0  0  0  0  0
   49.7070   28.5100   48.7660 C   0  0  0  0  0  0  0  0  0  0  0  0
   48.6860   29.0070   48.0330 N   0  0  0  0  0  0  0  0  0  0  0  0
   47.3325   33.7227   46.5617 H   0  0  0  0  0  0  0  0  0  0  0  0
   47.2765   32.0224   44.2589 H   0  0  0  0  0  0  0  0  0  0  0  0
   47.6429   29.8602   45.5919 H   0  0  0  0  0  0  0  0  0  0  0  0
   46.0726   30.0484   47.5208 H   0  0  0  0  0  0  0  0  0  0  0  0
   45.9141   31.7303   49.0624 H   0  0  0  0  0  0  0  0  0  0  0  0
   47.3660   32.5800   48.4204 H   0  0  0  0  0  0  0  0  0  0  0  0
   45.1894   33.6307   47.7052 H   0  0  0  0  0  0  0  0  0  0  0  0
   44.7717   32.1437   46.8398 H   0  0  0  0  0  0  0  0  0  0  0  0
   47.1823   33.4685   43.5161 H   0  0  0  0  0  0  0  0  0  0  0  0
   44.4242   34.9955   46.4956 H   0  0  0  0  0  0  0  0  0  0  0  0
   44.4134   36.5202   42.5084 H   0  0  0  0  0  0  0  0  0  0  0  0
   48.0274   31.8587   49.7201 H   0  0  0  0  0  0  0  0  0  0  0  0
   49.8978   30.8909   51.0169 H   0  0  0  0  0  0  0  0  0  0  0  0
   50.1697   27.5550   48.4763 H   0  0  0  0  0  0  0  0  0  0  0  0
  1  6  1  0
  2  1  1  0
  2  3  2  0
  3  4  1  0
  4  5  1  0
  4 13  1  0
  6  5  1  0
  7  8  2  0
  8  9  1  0
  8  1  1  0
 10  9  2  0
 11 10  1  0
 12 11  2  0
 12  7  1  0
 13 14  2  0
 14 15  1  0
 16 15  2  0
 17 16  1  0
 18 13  1  0
 18 17  2  0
  1 19  1  1
  2 20  1  0
  3 21  1  0
  4 22  1  6
  5 23  1  0
  5 24  1  0
  6 25  1  0
  6 26  1  0
  7 27  1  0
  9 28  1  0
 11 29  1  0
 14 30  1  0
 15 31  1  0
 17 32  1  0
M  ISO  8  19  13  20  13  21  13  22  13  23  13  24  13  25  13  26  13
M  ISO  6  27  14  28  14  29  14  30  14  31  14  32  14
M  END
>  <minimizedAffinity>  (1) 
-5.26193476

>  <minimizedRMSD>  (1) 
7.78523827

$$$$
