
     RDKit          3D

 31 33  0  0  1  0  0  0  0  0999 V2000
   46.3390   33.5410   45.7080 C   0  0  2  0  0  0  0  0  0  0  0  0
   45.1080   34.4200   45.7140 C   0  0  0  0  0  0  0  0  0  0  0  0
   44.8580   35.1950   44.5210 C   0  0  0  0  0  0  0  0  0  0  0  0
   45.7650   35.1180   43.3750 C   0  0  1  0  0  0  0  0  0  0  0  0
   46.9140   34.2010   43.4700 C   0  0  0  0  0  0  0  0  0  0  0  0
   46.6150   33.0240   44.3310 C   0  0  0  0  0  0  0  0  0  0  0  0
   45.2620   32.6620   47.7500 C   0  0  0  0  0  0  0  0  0  0  0  0
   46.1930   32.4820   46.7260 C   0  0  0  0  0  0  0  0  0  0  0  0
   46.9680   31.2930   46.7170 C   0  0  0  0  0  0  0  0  0  0  0  0
   46.7670   30.3880   47.7050 N   0  0  0  0  0  0  0  0  0  0  0  0
   45.8530   30.5930   48.6870 C   0  0  0  0  0  0  0  0  0  0  0  0
   45.1060   31.7220   48.7090 N   0  0  0  0  0  0  0  0  0  0  0  0
   44.9550   34.9160   42.1740 N   0  0  0  0  0  0  0  0  0  0  0  0
   43.7730   35.5250   41.8950 C   0  0  0  0  0  0  0  0  0  0  0  0
   43.3060   35.0790   40.6690 C   0  0  0  0  0  0  0  0  0  0  0  0
   44.1980   34.2110   40.2150 N   0  0  0  0  0  0  0  0  0  0  0  0
   45.1770   34.1160   41.1110 C   0  0  0  0  0  0  0  0  0  0  0  0
   47.2270   34.1284   45.9842 H   0  0  0  0  0  0  0  0  0  0  0  0
   44.4364   34.4667   46.5839 H   0  0  0  0  0  0  0  0  0  0  0  0
   43.9759   35.8505   44.4733 H   0  0  0  0  0  0  0  0  0  0  0  0
   46.2992   36.0789   43.3392 H   0  0  0  0  0  0  0  0  0  0  0  0
   47.1710   33.8472   42.4607 H   0  0  0  0  0  0  0  0  0  0  0  0
   47.7523   34.7506   43.9229 H   0  0  0  0  0  0  0  0  0  0  0  0
   45.7342   32.4894   43.9457 H   0  0  0  0  0  0  0  0  0  0  0  0
   47.4618   32.3220   44.3402 H   0  0  0  0  0  0  0  0  0  0  0  0
   44.6504   33.5759   47.7770 H   0  0  0  0  0  0  0  0  0  0  0  0
   47.7127   31.1110   45.9281 H   0  0  0  0  0  0  0  0  0  0  0  0
   45.7178   29.8348   49.4724 H   0  0  0  0  0  0  0  0  0  0  0  0
   43.2663   36.2571   42.5409 H   0  0  0  0  0  0  0  0  0  0  0  0
   42.3752   35.3861   40.1696 H   0  0  0  0  0  0  0  0  0  0  0  0
   46.0574   33.4662   40.9989 H   0  0  0  0  0  0  0  0  0  0  0  0
  1  2  1  0
  1  8  1  0
  3  2  2  0
  4  5  1  0
  4  3  1  0
  5  6  1  0
  6  1  1  0
  7 12  2  0
  8  7  1  0
  9  8  2  0
  9 10  1  0
 10 11  2  0
 11 12  1  0
 13  4  1  0
 14 13  1  0
 15 14  2  0
 16 15  1  0
 16 17  2  0
 17 13  1  0
  1 18  1  1
  2 19  1  0
  3 20  1  0
  4 21  1  6
  5 22  1  0
  5 23  1  0
  6 24  1  0
  6 25  1  0
  7 26  1  0
  9 27  1  0
 11 28  1  0
 14 29  1  0
 15 30  1  0
 17 31  1  0
M  ISO  8  18  13  19  13  20  13  21  13  22  13  23  13  24  13  25  13
M  ISO  6  26  14  27  14  28  14  29  14  30  14  31  14
M  END
>  <minimizedAffinity>  (1) 
-5.07665205

>  <minimizedRMSD>  (1) 
0.965020001

$$$$
