
     RDKit          3D

 40 42  0  0  1  0  0  0  0  0999 V2000
   48.5170   30.8290   48.0840 C   0  0  2  0  0  0  0  0  0  0  0  0
   47.6930   32.0170   48.5170 C   0  0  0  0  0  0  0  0  0  0  0  0
   46.4860   32.2980   47.7610 C   0  0  0  0  0  0  0  0  0  0  0  0
   46.1040   31.4520   46.6290 C   0  0  2  0  0  0  0  0  0  0  0  0
   47.0610   30.3820   46.2360 C   0  0  0  0  0  0  0  0  0  0  0  0
   47.6330   29.7720   47.4930 C   0  0  0  0  0  0  0  0  0  0  0  0
   49.8280   31.3150   50.1210 C   0  0  0  0  0  0  0  0  0  0  0  0
   49.3490   30.3790   49.2040 C   0  0  0  0  0  0  0  0  0  0  0  0
   49.7150   29.0350   49.4100 C   0  0  0  0  0  0  0  0  0  0  0  0
   50.5020   28.7100   50.4680 N   0  0  0  0  0  0  0  0  0  0  0  0
   50.9460   29.6480   51.3320 C   0  0  0  0  0  0  0  0  0  0  0  0
   50.6080   30.9470   51.1580 N   0  0  0  0  0  0  0  0  0  0  0  0
   45.9630   32.4060   45.4340 C   0  0  0  0  0  0  0  0  0  0  0  0
   47.1310   32.3340   44.5040 C   0  0  0  0  0  0  0  0  0  0  0  0
   47.3980   33.6720   43.8400 C   0  0  0  0  0  0  0  0  0  0  0  0
   46.1170   34.3750   43.4570 C   0  0  0  0  0  0  0  0  0  0  0  0
   45.1460   34.5180   44.5820 C   0  0  0  0  0  0  0  0  0  0  0  0
   45.6650   33.8100   45.8400 C   0  0  0  0  0  0  0  0  0  0  0  0
   49.2136   31.1047   47.2786 H   0  0  0  0  0  0  0  0  0  0  0  0
   47.9943   32.6435   49.3695 H   0  0  0  0  0  0  0  0  0  0  0  0
   45.8535   33.1533   48.0409 H   0  0  0  0  0  0  0  0  0  0  0  0
   45.1934   30.9135   46.9306 H   0  0  0  0  0  0  0  0  0  0  0  0
   46.5370   29.6101   45.6532 H   0  0  0  0  0  0  0  0  0  0  0  0
   47.8678   30.8035   45.6184 H   0  0  0  0  0  0  0  0  0  0  0  0
   46.8271   29.5087   48.1938 H   0  0  0  0  0  0  0  0  0  0  0  0
   48.1885   28.8464   47.2815 H   0  0  0  0  0  0  0  0  0  0  0  0
   49.5640   32.3755   49.9956 H   0  0  0  0  0  0  0  0  0  0  0  0
   49.3659   28.2537   48.7188 H   0  0  0  0  0  0  0  0  0  0  0  0
   51.5838   29.3557   52.1792 H   0  0  0  0  0  0  0  0  0  0  0  0
   45.0843   32.0513   44.8753 H   0  0  0  0  0  0  0  0  0  0  0  0
   48.0229   32.0335   45.0733 H   0  0  0  0  0  0  0  0  0  0  0  0
   46.9012   31.5992   43.7184 H   0  0  0  0  0  0  0  0  0  0  0  0
   47.9590   34.3102   44.5385 H   0  0  0  0  0  0  0  0  0  0  0  0
   47.9745   33.4883   42.9213 H   0  0  0  0  0  0  0  0  0  0  0  0
   46.3703   35.3799   43.0882 H   0  0  0  0  0  0  0  0  0  0  0  0
   45.6290   33.7546   42.6908 H   0  0  0  0  0  0  0  0  0  0  0  0
   45.0031   35.5863   44.8020 H   0  0  0  0  0  0  0  0  0  0  0  0
   44.1916   34.0581   44.2859 H   0  0  0  0  0  0  0  0  0  0  0  0
   44.8989   33.8243   46.6292 H   0  0  0  0  0  0  0  0  0  0  0  0
   46.5590   34.3097   46.2413 H   0  0  0  0  0  0  0  0  0  0  0  0
  1  2  1  0
  1  8  1  0
  3  2  2  0
  4  3  1  0
  5  4  1  0
  5  6  1  0
  6  1  1  0
  7 12  2  0
  8  9  2  0
  8  7  1  0
  9 10  1  0
 10 11  2  0
 12 11  1  0
 13 18  1  0
 13  4  1  0
 14 13  1  0
 15 14  1  0
 16 15  1  0
 16 17  1  0
 17 18  1  0
  1 19  1  6
  2 20  1  0
  3 21  1  0
  4 22  1  1
  5 23  1  0
  5 24  1  0
  6 25  1  0
  6 26  1  0
  7 27  1  0
  9 28  1  0
 11 29  1  0
 13 30  1  0
 14 31  1  0
 14 32  1  0
 15 33  1  0
 15 34  1  0
 16 35  1  0
 16 36  1  0
 17 37  1  0
 17 38  1  0
 18 39  1  0
 18 40  1  0
M  ISO  8  19  13  20  13  21  13  22  13  23  13  24  13  25  13  26  13
M  ISO  8  27  14  28  14  29  14  30  13  31  13  32  13  33  13  34  13
M  ISO  6  35  13  36  13  37  13  38  13  39  13  40  13
M  END
>  <minimizedAffinity>  (1) 
-4.95671749

>  <minimizedRMSD>  (1) 
5.65562868

$$$$
