
     RDKit          3D

 25 26  0  0  1  0  0  0  0  0999 V2000
   45.9280   33.8230   45.4120 C   0  0  2  0  0  0  0  0  0  0  0  0
   44.8660   34.7700   45.9050 C   0  0  0  0  0  0  0  0  0  0  0  0
   44.3250   35.7450   44.9760 C   0  0  0  0  0  0  0  0  0  0  0  0
   44.8190   35.7840   43.5960 C   0  0  2  0  0  0  0  0  0  0  0  0
   45.9570   34.8950   43.2730 C   0  0  0  0  0  0  0  0  0  0  0  0
   45.7690   33.5600   43.9460 C   0  0  0  0  0  0  0  0  0  0  0  0
   45.4240   32.6600   47.5520 C   0  0  0  0  0  0  0  0  0  0  0  0
   45.9230   32.6010   46.2410 C   0  0  0  0  0  0  0  0  0  0  0  0
   46.4120   31.3530   45.7710 C   0  0  0  0  0  0  0  0  0  0  0  0
   46.3710   30.2890   46.6070 N   0  0  0  0  0  0  0  0  0  0  0  0
   45.8800   30.3970   47.8660 C   0  0  0  0  0  0  0  0  0  0  0  0
   45.4090   31.5770   48.3330 N   0  0  0  0  0  0  0  0  0  0  0  0
   45.1300   37.0760   43.1710 O   0  0  0  0  0  0  0  0  0  0  0  0
   46.9226   34.2799   45.5218 H   0  0  0  0  0  0  0  0  0  0  0  0
   44.5088   34.7239   46.9444 H   0  0  0  0  0  0  0  0  0  0  0  0
   43.5484   36.4510   45.3054 H   0  0  0  0  0  0  0  0  0  0  0  0
   43.9536   35.3894   43.0434 H   0  0  0  0  0  0  0  0  0  0  0  0
   46.0099   34.7506   42.1838 H   0  0  0  0  0  0  0  0  0  0  0  0
   46.8899   35.3544   43.6318 H   0  0  0  0  0  0  0  0  0  0  0  0
   44.7662   33.1607   43.7339 H   0  0  0  0  0  0  0  0  0  0  0  0
   46.4941   32.8159   43.5846 H   0  0  0  0  0  0  0  0  0  0  0  0
   45.0392   33.6138   47.9421 H   0  0  0  0  0  0  0  0  0  0  0  0
   46.8144   31.2534   44.7521 H   0  0  0  0  0  0  0  0  0  0  0  0
   45.8641   29.5116   48.5185 H   0  0  0  0  0  0  0  0  0  0  0  0
   45.2701   37.6580   43.9595 H   0  0  0  0  0  0  0  0  0  0  0  0
  1  2  1  0
  1  8  1  0
  3  2  2  0
  4  3  1  0
  5  4  1  0
  5  6  1  0
  6  1  1  0
  7 12  2  0
  8  7  1  0
  9  8  2  0
  9 10  1  0
 10 11  2  0
 11 12  1  0
 13  4  1  0
  1 14  1  6
  2 15  1  0
  3 16  1  0
  4 17  1  6
  5 18  1  0
  5 19  1  0
  6 20  1  0
  6 21  1  0
  7 22  1  0
  9 23  1  0
 11 24  1  0
 13 25  1  0
M  ISO  8  14  13  15  13  16  13  17  13  18  13  19  13  20  13  21  13
M  ISO  4  22  14  23  14  24  14  25   3
M  END
>  <minimizedAffinity>  (1) 
-4.35159874

>  <minimizedRMSD>  (1) 
0.47334215

$$$$
