
     RDKit          3D

 30 31  0  0  1  0  0  0  0  0999 V2000
   46.5730   33.2690   46.0590 C   0  0  2  0  0  0  0  0  0  0  0  0
   45.2910   34.0440   45.8550 C   0  0  0  0  0  0  0  0  0  0  0  0
   44.9960   34.5150   44.5150 C   0  0  0  0  0  0  0  0  0  0  0  0
   45.9290   34.2270   43.4270 C   0  0  2  0  0  0  0  0  0  0  0  0
   47.1990   33.5690   43.7770 C   0  0  0  0  0  0  0  0  0  0  0  0
   46.9520   32.5120   44.8240 C   0  0  0  0  0  0  0  0  0  0  0  0
   45.1580   32.2340   47.8220 C   0  0  0  0  0  0  0  0  0  0  0  0
   46.4350   32.4120   47.2670 C   0  0  0  0  0  0  0  0  0  0  0  0
   47.5400   31.7690   47.8930 C   0  0  0  0  0  0  0  0  0  0  0  0
   47.2980   31.0190   48.9960 N   0  0  0  0  0  0  0  0  0  0  0  0
   46.0450   30.8790   49.4940 C   0  0  0  0  0  0  0  0  0  0  0  0
   44.9850   31.4840   48.9090 N   0  0  0  0  0  0  0  0  0  0  0  0
   46.2370   35.4740   42.5950 C   0  0  0  0  0  0  0  0  0  0  0  0
   45.2360   36.5430   42.9920 C   0  0  0  0  0  0  0  0  0  0  0  0
   47.4090   33.9609   46.2385 H   0  0  0  0  0  0  0  0  0  0  0  0
   44.6065   34.2436   46.6926 H   0  0  0  0  0  0  0  0  0  0  0  0
   44.0761   35.0853   44.3188 H   0  0  0  0  0  0  0  0  0  0  0  0
   45.3665   33.4801   42.8476 H   0  0  0  0  0  0  0  0  0  0  0  0
   47.6279   33.1008   42.8788 H   0  0  0  0  0  0  0  0  0  0  0  0
   47.9002   34.3180   44.1737 H   0  0  0  0  0  0  0  0  0  0  0  0
   46.1345   31.8445   44.5138 H   0  0  0  0  0  0  0  0  0  0  0  0
   47.8350   31.8760   44.9846 H   0  0  0  0  0  0  0  0  0  0  0  0
   44.2895   32.7199   47.3534 H   0  0  0  0  0  0  0  0  0  0  0  0
   48.5593   31.8774   47.4938 H   0  0  0  0  0  0  0  0  0  0  0  0
   45.8867   30.2619   50.3907 H   0  0  0  0  0  0  0  0  0  0  0  0
   46.1376   35.2452   41.5237 H   0  0  0  0  0  0  0  0  0  0  0  0
   47.2657   35.8183   42.7774 H   0  0  0  0  0  0  0  0  0  0  0  0
   45.1796   36.6033   44.0889 H   0  0  0  0  0  0  0  0  0  0  0  0
   45.5570   37.5142   42.5875 H   0  0  0  0  0  0  0  0  0  0  0  0
   44.2458   36.2865   42.5875 H   0  0  0  0  0  0  0  0  0  0  0  0
  1  8  1  0
  2  1  1  0
  3  2  2  0
  4  5  1  0
  4  3  1  0
  5  6  1  0
  6  1  1  0
  7 12  2  0
  8  7  1  0
  8  9  2  0
  9 10  1  0
 10 11  2  0
 12 11  1  0
 13 14  1  0
 13  4  1  0
  1 15  1  1
  2 16  1  0
  3 17  1  0
  4 18  1  6
  5 19  1  0
  5 20  1  0
  6 21  1  0
  6 22  1  0
  7 23  1  0
  9 24  1  0
 11 25  1  0
 13 26  1  0
 13 27  1  0
 14 28  1  0
 14 29  1  0
 14 30  1  0
M  ISO  8  15  13  16  13  17  13  18  13  19  13  20  13  21  13  22  13
M  ISO  8  23  14  24  14  25  14  26   8  27   8  28   8  29   8  30   8
M  END
>  <minimizedAffinity>  (1) 
-4.40139771

>  <minimizedRMSD>  (1) 
1.68473458

$$$$
