
     RDKit          3D

 40 43  0  0  1  0  0  0  0  0999 V2000
   47.3840   31.2760   46.8010 C   0  0  0  0  0  0  0  0  0  0  0  0
   46.8170   31.4810   45.5560 C   0  0  0  0  0  0  0  0  0  0  0  0
   46.2970   30.3610   44.9010 C   0  0  0  0  0  0  0  0  0  0  0  0
   46.3570   29.1480   45.4800 N   0  0  0  0  0  0  0  0  0  0  0  0
   46.9220   28.9670   46.7100 C   0  0  0  0  0  0  0  0  0  0  0  0
   47.4300   30.0350   47.3600 N   0  0  0  0  0  0  0  0  0  0  0  0
   46.9880   27.6850   47.3240 N   0  0  0  0  0  0  0  0  0  0  0  0
   48.0020   26.9860   47.8740 C   0  0  0  0  0  0  0  0  0  0  0  0
   47.5450   25.8010   48.3280 N   0  0  0  0  0  0  0  0  0  0  0  0
   46.2310   25.7340   48.0700 C   0  0  0  0  0  0  0  0  0  0  0  0
   45.2320   24.8210   48.2770 C   0  0  0  0  0  0  0  0  0  0  0  0
   43.9460   24.9980   47.9110 N   0  0  0  0  0  0  0  0  0  0  0  0
   43.6300   26.1600   47.2980 C   0  0  0  0  0  0  0  0  0  0  0  0
   44.5940   27.0710   47.0840 N   0  0  0  0  0  0  0  0  0  0  0  0
   45.8780   26.8980   47.4480 C   0  0  0  0  0  0  0  0  0  0  0  0
   46.8030   32.8240   44.9980 C   0  0  2  0  0  0  0  0  0  0  0  0
   45.5760   33.5630   45.4660 C   0  0  0  0  0  0  0  0  0  0  0  0
   45.1540   34.7020   44.6870 C   0  0  0  0  0  0  0  0  0  0  0  0
   45.8900   35.1090   43.4980 C   0  0  1  0  0  0  0  0  0  0  0  0
   47.1350   34.3710   43.1880 C   0  0  0  0  0  0  0  0  0  0  0  0
   46.9620   32.9180   43.5200 C   0  0  0  0  0  0  0  0  0  0  0  0
   44.9210   35.0470   42.3090 C   0  0  0  0  0  0  0  0  0  0  0  0
   43.9060   34.1410   42.4890 F   0  0  0  0  0  0  0  0  0  0  0  0
   44.3180   36.3010   42.1930 F   0  0  0  0  0  0  0  0  0  0  0  0
   45.6310   34.8270   41.1400 F   0  0  0  0  0  0  0  0  0  0  0  0
   45.5210   23.5860   48.9190 N   0  0  0  0  0  0  0  0  0  0  0  0
   47.8055   32.1312   47.3496 H   0  0  0  0  0  0  0  0  0  0  0  0
   45.8368   30.4718   43.9080 H   0  0  0  0  0  0  0  0  0  0  0  0
   49.0445   27.3304   47.9420 H   0  0  0  0  0  0  0  0  0  0  0  0
   42.5962   26.3576   46.9781 H   0  0  0  0  0  0  0  0  0  0  0  0
   47.7123   33.3060   45.3863 H   0  0  0  0  0  0  0  0  0  0  0  0
   45.0249   33.2473   46.3641 H   0  0  0  0  0  0  0  0  0  0  0  0
   44.2643   35.2706   44.9954 H   0  0  0  0  0  0  0  0  0  0  0  0
   46.2567   36.1250   43.7060 H   0  0  0  0  0  0  0  0  0  0  0  0
   47.3645   34.4759   42.1173 H   0  0  0  0  0  0  0  0  0  0  0  0
   47.9601   34.7841   43.7867 H   0  0  0  0  0  0  0  0  0  0  0  0
   46.0679   32.5198   43.0180 H   0  0  0  0  0  0  0  0  0  0  0  0
   47.8291   32.3323   43.1808 H   0  0  0  0  0  0  0  0  0  0  0  0
   44.7700   22.8986   49.0751 H   0  0  0  0  0  0  0  0  0  0  0  0
   46.4814   23.3786   49.2281 H   0  0  0  0  0  0  0  0  0  0  0  0
  1  6  2  0
  2  1  1  0
  3  4  1  0
  3  2  2  0
  4  5  2  0
  5  7  1  0
  5  6  1  0
  7 15  1  0
  7  8  1  0
  8  9  2  0
 10 11  2  0
 10  9  1  0
 11 26  1  0
 12 11  1  0
 13 12  2  0
 14 13  1  0
 14 15  2  0
 15 10  1  0
 16 17  1  0
 16  2  1  0
 18 17  2  0
 19 18  1  0
 20 19  1  0
 20 21  1  0
 21 16  1  0
 22 23  1  0
 22 19  1  0
 24 22  1  0
 25 22  1  0
  1 27  1  0
  3 28  1  0
  8 29  1  0
 13 30  1  0
 16 31  1  1
 17 32  1  0
 18 33  1  0
 19 34  1  1
 20 35  1  0
 20 36  1  0
 21 37  1  0
 21 38  1  0
 26 39  1  0
 26 40  1  0
M  ISO  8  27  14  28  14  29  14  30  14  31  13  32  13  33  13  34  13
M  ISO  4  35  13  36  13  37  13  38  13
M  END
>  <minimizedAffinity>  (1) 
-5.84340858

>  <minimizedRMSD>  (1) 
2.18250585

$$$$
