
     RDKit          3D

 27 28  0  0  1  0  0  0  0  0999 V2000
   46.1380   33.7130   45.4230 C   0  0  2  0  0  0  0  0  0  0  0  0
   44.9810   34.6780   45.5450 C   0  0  0  0  0  0  0  0  0  0  0  0
   44.7070   35.5350   44.4160 C   0  0  0  0  0  0  0  0  0  0  0  0
   45.5300   35.4500   43.2130 C   0  0  1  0  0  0  0  0  0  0  0  0
   46.6950   34.5510   43.2460 C   0  0  0  0  0  0  0  0  0  0  0  0
   46.3420   33.2880   43.9990 C   0  0  0  0  0  0  0  0  0  0  0  0
   45.2780   32.8560   47.5700 C   0  0  0  0  0  0  0  0  0  0  0  0
   45.9750   32.6200   46.3860 C   0  0  0  0  0  0  0  0  0  0  0  0
   46.5050   31.3400   46.1870 C   0  0  0  0  0  0  0  0  0  0  0  0
   46.3270   30.3880   47.1350 N   0  0  0  0  0  0  0  0  0  0  0  0
   45.6440   30.6480   48.2770 C   0  0  0  0  0  0  0  0  0  0  0  0
   45.1240   31.8770   48.4900 N   0  0  0  0  0  0  0  0  0  0  0  0
   44.6190   35.1080   42.0340 C   0  0  0  0  0  0  0  0  0  0  0  0
   43.6720   34.1680   42.3540 F   0  0  0  0  0  0  0  0  0  0  0  0
   43.9180   36.2650   41.6860 F   0  0  0  0  0  0  0  0  0  0  0  0
   45.3840   34.7510   40.9380 F   0  0  0  0  0  0  0  0  0  0  0  0
   47.0813   34.2105   45.6926 H   0  0  0  0  0  0  0  0  0  0  0  0
   44.3710   34.7255   46.4592 H   0  0  0  0  0  0  0  0  0  0  0  0
   43.8758   36.2541   44.4622 H   0  0  0  0  0  0  0  0  0  0  0  0
   45.9995   36.4401   43.1172 H   0  0  0  0  0  0  0  0  0  0  0  0
   46.9878   34.2938   42.2174 H   0  0  0  0  0  0  0  0  0  0  0  0
   47.5309   35.0558   43.7524 H   0  0  0  0  0  0  0  0  0  0  0  0
   45.4202   32.8444   43.5946 H   0  0  0  0  0  0  0  0  0  0  0  0
   47.1306   32.5263   43.9099 H   0  0  0  0  0  0  0  0  0  0  0  0
   44.8480   33.8508   47.7582 H   0  0  0  0  0  0  0  0  0  0  0  0
   47.0623   31.1083   45.2673 H   0  0  0  0  0  0  0  0  0  0  0  0
   45.5130   29.8578   49.0309 H   0  0  0  0  0  0  0  0  0  0  0  0
  1  2  1  0
  1  8  1  0
  3  2  2  0
  4  5  1  0
  4  3  1  0
  5  6  1  0
  6  1  1  0
  7 12  2  0
  8  7  1  0
  9  8  2  0
  9 10  1  0
 10 11  2  0
 11 12  1  0
 13 14  1  0
 13  4  1  0
 15 13  1  0
 16 13  1  0
  1 17  1  1
  2 18  1  0
  3 19  1  0
  4 20  1  6
  5 21  1  0
  5 22  1  0
  6 23  1  0
  6 24  1  0
  7 25  1  0
  9 26  1  0
 11 27  1  0
M  ISO  8  17  13  18  13  19  13  20  13  21  13  22  13  23  13  24  13
M  ISO  3  25  14  26  14  27  14
M  END
>  <minimizedAffinity>  (1) 
-5.06067324

>  <minimizedRMSD>  (1) 
0.421088398

$$$$
