
     RDKit          3D

 30 31  0  0  1  0  0  0  0  0999 V2000
   46.0500   34.1230   44.3890 C   0  0  2  0  0  0  0  0  0  0  0  0
   44.9150   35.1210   44.4290 C   0  0  0  0  0  0  0  0  0  0  0  0
   44.5050   35.6990   43.1700 C   0  0  0  0  0  0  0  0  0  0  0  0
   45.1600   35.3290   41.9290 C   0  0  1  0  0  0  0  0  0  0  0  0
   46.3070   34.4050   42.0180 C   0  0  0  0  0  0  0  0  0  0  0  0
   46.0700   33.3860   43.0970 C   0  0  0  0  0  0  0  0  0  0  0  0
   45.2010   33.6680   46.6380 C   0  0  0  0  0  0  0  0  0  0  0  0
   46.0270   33.3080   45.5910 C   0  0  0  0  0  0  0  0  0  0  0  0
   46.8090   32.1730   45.7740 C   0  0  0  0  0  0  0  0  0  0  0  0
   46.7540   31.4690   46.9190 N   0  0  0  0  0  0  0  0  0  0  0  0
   45.9300   31.8460   47.9410 C   0  0  0  0  0  0  0  0  0  0  0  0
   45.1630   32.9390   47.7880 N   0  0  0  0  0  0  0  0  0  0  0  0
   45.9010   31.0390   49.1880 C   0  0  0  0  0  0  0  0  0  0  0  0
   45.2020   29.8500   49.0290 F   0  0  0  0  0  0  0  0  0  0  0  0
   47.1360   30.7320   49.6800 F   0  0  0  0  0  0  0  0  0  0  0  0
   45.2090   31.7160   50.1990 F   0  0  0  0  0  0  0  0  0  0  0  0
   44.0950   34.7280   40.9950 C   0  0  0  0  0  0  0  0  0  0  0  0
   43.1440   34.0040   41.6700 F   0  0  0  0  0  0  0  0  0  0  0  0
   43.4220   35.8020   40.3980 F   0  0  0  0  0  0  0  0  0  0  0  0
   44.7050   34.0080   39.9850 F   0  0  0  0  0  0  0  0  0  0  0  0
   47.0232   34.6353   44.4077 H   0  0  0  0  0  0  0  0  0  0  0  0
   44.4235   35.3947   45.3742 H   0  0  0  0  0  0  0  0  0  0  0  0
   43.6838   36.4307   43.1518 H   0  0  0  0  0  0  0  0  0  0  0  0
   45.6076   36.2603   41.5519 H   0  0  0  0  0  0  0  0  0  0  0  0
   46.4348   33.8906   41.0541 H   0  0  0  0  0  0  0  0  0  0  0  0
   47.2131   34.9799   42.2599 H   0  0  0  0  0  0  0  0  0  0  0  0
   45.1067   32.8802   42.9349 H   0  0  0  0  0  0  0  0  0  0  0  0
   46.8573   32.6178   43.0935 H   0  0  0  0  0  0  0  0  0  0  0  0
   44.5629   34.5588   46.5414 H   0  0  0  0  0  0  0  0  0  0  0  0
   47.4837   31.8454   44.9693 H   0  0  0  0  0  0  0  0  0  0  0  0
  1  2  1  0
  1  8  1  0
  3  2  2  0
  4  5  1  0
  4  3  1  0
  5  6  1  0
  6  1  1  0
  7 12  2  0
  8  9  2  0
  8  7  1  0
  9 10  1  0
 10 11  2  0
 11 13  1  0
 12 11  1  0
 13 15  1  0
 13 16  1  0
 14 13  1  0
 17 18  1  0
 17  4  1  0
 19 17  1  0
 20 17  1  0
  1 21  1  1
  2 22  1  0
  3 23  1  0
  4 24  1  6
  5 25  1  0
  5 26  1  0
  6 27  1  0
  6 28  1  0
  7 29  1  0
  9 30  1  0
M  ISO  8  21  13  22  13  23  13  24  13  25  13  26  13  27  13  28  13
M  ISO  2  29  14  30  14
M  END
>  <minimizedAffinity>  (1) 
-5.69124842

>  <minimizedRMSD>  (1) 
1.36242342

$$$$
