
     RDKit          3D

 32 34  0  0  1  0  0  0  0  0999 V2000
   43.5460   34.9280   40.7460 C   0  0  2  0  0  0  0  0  0  0  0  0
   42.2550   35.6200   41.1540 C   0  0  0  0  0  0  0  0  0  0  0  0
   41.2810   35.8620   40.1280 C   0  0  0  0  0  0  0  0  0  0  0  0
   41.5240   35.4590   38.7570 C   0  0  1  0  0  0  0  0  0  0  0  0
   42.8580   34.8980   38.4530 C   0  0  0  0  0  0  0  0  0  0  0  0
   43.3110   34.0180   39.5950 C   0  0  0  0  0  0  0  0  0  0  0  0
   44.6910   35.1560   42.9110 C   0  0  0  0  0  0  0  0  0  0  0  0
   44.1770   34.3460   41.9180 C   0  0  0  0  0  0  0  0  0  0  0  0
   44.3120   32.9750   42.1020 C   0  0  0  0  0  0  0  0  0  0  0  0
   44.9210   32.4820   43.2110 N   0  0  0  0  0  0  0  0  0  0  0  0
   45.4140   33.3040   44.1640 C   0  0  0  0  0  0  0  0  0  0  0  0
   45.2910   34.6460   44.0000 N   0  0  0  0  0  0  0  0  0  0  0  0
   46.0660   32.7560   45.3480 C   0  0  0  0  0  0  0  0  0  0  0  0
   46.6850   33.3260   46.4100 N   0  0  0  0  0  0  0  0  0  0  0  0
   47.1080   32.3850   47.2100 O   0  0  0  0  0  0  0  0  0  0  0  0
   46.7880   31.1910   46.7130 C   0  0  0  0  0  0  0  0  0  0  0  0
   46.1360   31.4170   45.5490 N   0  0  0  0  0  0  0  0  0  0  0  0
   40.4330   34.4680   38.3340 C   0  0  0  0  0  0  0  0  0  0  0  0
   39.5790   34.1430   39.3700 F   0  0  0  0  0  0  0  0  0  0  0  0
   39.6480   35.1120   37.3740 F   0  0  0  0  0  0  0  0  0  0  0  0
   40.9920   33.3660   37.7250 F   0  0  0  0  0  0  0  0  0  0  0  0
   44.2837   35.6464   40.3590 H   0  0  0  0  0  0  0  0  0  0  0  0
   42.0744   35.9236   42.1958 H   0  0  0  0  0  0  0  0  0  0  0  0
   40.3353   36.3611   40.3861 H   0  0  0  0  0  0  0  0  0  0  0  0
   41.4953   36.3931   38.1768 H   0  0  0  0  0  0  0  0  0  0  0  0
   42.8024   34.3010   37.5308 H   0  0  0  0  0  0  0  0  0  0  0  0
   43.5771   35.7193   38.3177 H   0  0  0  0  0  0  0  0  0  0  0  0
   42.5318   33.2821   39.8426 H   0  0  0  0  0  0  0  0  0  0  0  0
   44.2198   33.4559   39.3341 H   0  0  0  0  0  0  0  0  0  0  0  0
   44.6071   36.2480   42.8080 H   0  0  0  0  0  0  0  0  0  0  0  0
   43.9216   32.2825   41.3417 H   0  0  0  0  0  0  0  0  0  0  0  0
   47.0106   30.2117   47.1617 H   0  0  0  0  0  0  0  0  0  0  0  0
  1  2  1  0
  1  8  1  0
  3  2  2  0
  4  3  1  0
  5  4  1  0
  5  6  1  0
  6  1  1  0
  7 12  2  0
  8  9  2  0
  8  7  1  0
  9 10  1  0
 10 11  2  0
 11 13  1  0
 12 11  1  0
 13 17  1  0
 13 14  2  0
 14 15  1  0
 16 15  1  0
 17 16  2  0
 18  4  1  0
 18 19  1  0
 20 18  1  0
 21 18  1  0
  1 22  1  6
  2 23  1  0
  3 24  1  0
  4 25  1  6
  5 26  1  0
  5 27  1  0
  6 28  1  0
  6 29  1  0
  7 30  1  0
  9 31  1  0
 16 32  1  0
M  ISO  8  22  13  23  13  24  13  25  13  26  13  27  13  28  13  29  13
M  ISO  3  30  14  31  14  32  14
M  END
>  <minimizedAffinity>  (1) 
-5.33784246

>  <minimizedRMSD>  (1) 
5.3975091

$$$$
