
     RDKit          3D

 43 46  0  0  1  0  0  0  0  0999 V2000
   46.2210   32.7840   44.3380 C   0  0  2  0  0  0  0  0  0  0  0  0
   45.4600   33.8270   45.1500 C   0  0  0  0  0  0  0  0  0  0  0  0
   45.2690   35.1240   44.5550 C   0  0  0  0  0  0  0  0  0  0  0  0
   45.7880   35.3980   43.2170 C   0  0  1  0  0  0  0  0  0  0  0  0
   46.5630   34.3490   42.5570 C   0  0  0  0  0  0  0  0  0  0  0  0
   45.9990   32.9970   42.8830 C   0  0  0  0  0  0  0  0  0  0  0  0
   45.6410   31.2780   46.1980 C   0  0  0  0  0  0  0  0  0  0  0  0
   45.9150   31.4620   44.8580 C   0  0  0  0  0  0  0  0  0  0  0  0
   45.8840   30.3170   44.0670 C   0  0  0  0  0  0  0  0  0  0  0  0
   45.6000   29.1180   44.6070 N   0  0  0  0  0  0  0  0  0  0  0  0
   45.3370   28.9530   45.9000 C   0  0  0  0  0  0  0  0  0  0  0  0
   45.3630   30.0400   46.6740 N   0  0  0  0  0  0  0  0  0  0  0  0
   45.0110   27.7560   46.6650 C   0  0  0  0  0  0  0  0  0  0  0  0
   45.9090   27.1170   47.5260 C   0  0  0  0  0  0  0  0  0  0  0  0
   45.6220   25.9950   48.2550 C   0  0  0  0  0  0  0  0  0  0  0  0
   44.3800   25.4240   48.1640 C   0  0  0  0  0  0  0  0  0  0  0  0
   43.4510   25.9950   47.3410 C   0  0  0  0  0  0  0  0  0  0  0  0
   42.2210   25.3800   47.2900 C   0  0  0  0  0  0  0  0  0  0  0  0
   41.2300   25.8950   46.4840 C   0  0  0  0  0  0  0  0  0  0  0  0
   41.5270   27.0270   45.7530 C   0  0  0  0  0  0  0  0  0  0  0  0
   42.7740   27.5970   45.8470 C   0  0  0  0  0  0  0  0  0  0  0  0
   43.7930   27.1210   46.6340 C   0  0  0  0  0  0  0  0  0  0  0  0
   44.5890   35.8020   42.3410 C   0  0  0  0  0  0  0  0  0  0  0  0
   43.3820   35.4470   42.8940 F   0  0  0  0  0  0  0  0  0  0  0  0
   44.5910   37.1970   42.2470 F   0  0  0  0  0  0  0  0  0  0  0  0
   44.7690   35.3020   41.0580 F   0  0  0  0  0  0  0  0  0  0  0  0
   47.3103   32.8889   44.4498 H   0  0  0  0  0  0  0  0  0  0  0  0
   45.0715   33.5968   46.1530 H   0  0  0  0  0  0  0  0  0  0  0  0
   44.7322   35.9089   45.1079 H   0  0  0  0  0  0  0  0  0  0  0  0
   46.5362   36.1938   43.3470 H   0  0  0  0  0  0  0  0  0  0  0  0
   47.6066   34.3987   42.9010 H   0  0  0  0  0  0  0  0  0  0  0  0
   46.5156   34.5020   41.4687 H   0  0  0  0  0  0  0  0  0  0  0  0
   44.9232   32.9694   42.6551 H   0  0  0  0  0  0  0  0  0  0  0  0
   46.4855   32.2101   42.2880 H   0  0  0  0  0  0  0  0  0  0  0  0
   45.6483   32.1393   46.8822 H   0  0  0  0  0  0  0  0  0  0  0  0
   46.0938   30.3933   42.9899 H   0  0  0  0  0  0  0  0  0  0  0  0
   46.9169   27.5465   47.6241 H   0  0  0  0  0  0  0  0  0  0  0  0
   46.3858   25.5531   48.9117 H   0  0  0  0  0  0  0  0  0  0  0  0
   44.1351   24.5216   48.7434 H   0  0  0  0  0  0  0  0  0  0  0  0
   42.0297   24.4792   47.8916 H   0  0  0  0  0  0  0  0  0  0  0  0
   40.2388   25.4216   46.4252 H   0  0  0  0  0  0  0  0  0  0  0  0
   40.7662   27.4729   45.0955 H   0  0  0  0  0  0  0  0  0  0  0  0
   42.9695   28.4992   45.2488 H   0  0  0  0  0  0  0  0  0  0  0  0
  1  8  1  0
  1  2  1  0
  3  2  2  0
  4  3  1  0
  5  6  1  0
  5  4  1  0
  6  1  1  0
  7 12  2  0
  8  7  1  0
  9 10  1  0
  9  8  2  0
 10 11  2  0
 11 13  1  0
 11 12  1  0
 13 14  2  0
 14 15  1  0
 16 15  2  0
 17 16  1  0
 18 17  2  0
 19 18  1  0
 20 21  1  0
 20 19  2  0
 21 22  2  0
 22 13  1  0
 22 17  1  0
 23 24  1  0
 23  4  1  0
 25 23  1  0
 26 23  1  0
  1 27  1  6
  2 28  1  0
  3 29  1  0
  4 30  1  1
  5 31  1  0
  5 32  1  0
  6 33  1  0
  6 34  1  0
  7 35  1  0
  9 36  1  0
 14 37  1  0
 15 38  1  0
 16 39  1  0
 18 40  1  0
 19 41  1  0
 20 42  1  0
 21 43  1  0
M  ISO  8  27  13  28  13  29  13  30  13  31  13  32  13  33  13  34  13
M  ISO  8  35  14  36  14  37  14  38  14  39  14  40  14  41  14  42  14
M  ISO  1  43  14
M  END
>  <minimizedAffinity>  (1) 
-5.514956

>  <minimizedRMSD>  (1) 
2.70798445

$$$$
