
     RDKit          3D

 33 35  0  0  0  0  0  0  0  0999 V2000
   44.8230   34.5290   41.9430 C   0  0  0  0  0  0  0  0  0  0  0  0
   43.9410   35.5930   41.4430 C   0  0  0  0  0  0  0  0  0  0  0  0
   42.5980   34.9580   41.0850 C   0  0  0  0  0  0  0  0  0  0  0  0
   42.6950   33.5070   41.4540 C   0  0  0  0  0  0  0  0  0  0  0  0
   44.1790   33.2290   41.4470 C   0  0  0  0  0  0  0  0  0  0  0  0
   44.9590   34.3830   43.3960 C   0  0  0  0  0  0  0  0  0  0  0  0
   44.5210   35.4240   44.2260 C   0  0  0  0  0  0  0  0  0  0  0  0
   44.6610   35.2960   45.6270 C   0  0  0  0  0  0  0  0  0  0  0  0
   45.2260   34.1410   46.0810 N   0  0  0  0  0  0  0  0  0  0  0  0
   45.6350   33.1580   45.2450 C   0  0  0  0  0  0  0  0  0  0  0  0
   45.5030   33.2790   43.9180 N   0  0  0  0  0  0  0  0  0  0  0  0
   46.2250   34.6540   41.4090 C   0  0  0  0  0  0  0  0  0  0  0  0
   46.3170   33.9600   40.2200 C   0  0  0  0  0  0  0  0  0  0  0  0
   47.5190   33.9140   39.5080 C   0  0  0  0  0  0  0  0  0  0  0  0
   48.6140   34.5820   40.0250 C   0  0  0  0  0  0  0  0  0  0  0  0
   48.4890   35.2650   41.2140 C   0  0  0  0  0  0  0  0  0  0  0  0
   47.3090   35.3100   41.9150 C   0  0  0  0  0  0  0  0  0  0  0  0
   43.7979   36.3568   42.2215 H   0  0  0  0  0  0  0  0  0  0  0  0
   44.3847   36.0761   40.5600 H   0  0  0  0  0  0  0  0  0  0  0  0
   41.7877   35.4399   41.6518 H   0  0  0  0  0  0  0  0  0  0  0  0
   42.3755   35.0800   40.0147 H   0  0  0  0  0  0  0  0  0  0  0  0
   42.2679   33.3275   42.4517 H   0  0  0  0  0  0  0  0  0  0  0  0
   42.1381   32.8557   40.7643 H   0  0  0  0  0  0  0  0  0  0  0  0
   44.4202   32.3948   42.1222 H   0  0  0  0  0  0  0  0  0  0  0  0
   44.5426   32.9394   40.4501 H   0  0  0  0  0  0  0  0  0  0  0  0
   44.0734   36.3304   43.7923 H   0  0  0  0  0  0  0  0  0  0  0  0
   44.3310   36.0877   46.3157 H   0  0  0  0  0  0  0  0  0  0  0  0
   46.0833   32.2445   45.6628 H   0  0  0  0  0  0  0  0  0  0  0  0
   45.4330   33.4362   39.8273 H   0  0  0  0  0  0  0  0  0  0  0  0
   47.5921   33.3604   38.5603 H   0  0  0  0  0  0  0  0  0  0  0  0
   49.5758   34.5678   39.4914 H   0  0  0  0  0  0  0  0  0  0  0  0
   49.3656   35.7935   41.6168 H   0  0  0  0  0  0  0  0  0  0  0  0
   47.2393   35.8627   42.8635 H   0  0  0  0  0  0  0  0  0  0  0  0
  1  6  1  0
  2  1  1  0
  3  2  1  0
  3  4  1  0
  5  4  1  0
  5  1  1  0
  6 11  1  0
  6  7  2  0
  7  8  1  0
  8  9  2  0
 10  9  1  0
 11 10  2  0
 12 17  1  0
 12  1  1  0
 13 12  2  0
 14 15  2  0
 14 13  1  0
 15 16  1  0
 16 17  2  0
  2 18  1  0
  2 19  1  0
  3 20  1  0
  3 21  1  0
  4 22  1  0
  4 23  1  0
  5 24  1  0
  5 25  1  0
  7 26  1  0
  8 27  1  0
 10 28  1  0
 13 29  1  0
 14 30  1  0
 15 31  1  0
 16 32  1  0
 17 33  1  0
M  ISO  8  18  13  19  13  20  13  21  13  22  13  23  13  24  13  25  13
M  ISO  8  26  14  27  14  28  14  29  14  30  14  31  14  32  14  33  14
M  END
>  <minimizedAffinity>  (1) 
-5.26678705

>  <minimizedRMSD>  (1) 
4.42114639

$$$$
