
     RDKit          3D

 30 31  0  0  1  0  0  0  0  0999 V2000
   45.9800   33.8390   45.2780 C   0  0  2  0  0  0  0  0  0  0  0  0
   44.8590   34.8570   45.4030 C   0  0  0  0  0  0  0  0  0  0  0  0
   44.6260   35.7160   44.2710 C   0  0  0  0  0  0  0  0  0  0  0  0
   45.4330   35.6040   43.0690 C   0  0  1  0  0  0  0  0  0  0  0  0
   46.5530   34.6360   43.0870 C   0  0  0  0  0  0  0  0  0  0  0  0
   46.1560   33.4160   43.8630 C   0  0  0  0  0  0  0  0  0  0  0  0
   45.2400   33.0710   47.4870 C   0  0  0  0  0  0  0  0  0  0  0  0
   45.7730   32.7740   46.2460 C   0  0  0  0  0  0  0  0  0  0  0  0
   46.0970   31.4350   46.0020 C   0  0  0  0  0  0  0  0  0  0  0  0
   45.8900   30.4920   46.9520 N   0  0  0  0  0  0  0  0  0  0  0  0
   45.3640   30.8190   48.1630 C   0  0  0  0  0  0  0  0  0  0  0  0
   45.0460   32.1000   48.4150 N   0  0  0  0  0  0  0  0  0  0  0  0
   45.1890   29.6890   49.1130 C   0  0  0  0  0  0  0  0  0  0  0  0
   44.4920   35.2950   41.8990 C   0  0  0  0  0  0  0  0  0  0  0  0
   43.4660   34.4420   42.2520 F   0  0  0  0  0  0  0  0  0  0  0  0
   43.8940   36.4950   41.5120 F   0  0  0  0  0  0  0  0  0  0  0  0
   45.2270   34.8360   40.8140 F   0  0  0  0  0  0  0  0  0  0  0  0
   46.9528   34.2819   45.5377 H   0  0  0  0  0  0  0  0  0  0  0  0
   44.2525   34.9344   46.3174 H   0  0  0  0  0  0  0  0  0  0  0  0
   43.8248   36.4682   44.3175 H   0  0  0  0  0  0  0  0  0  0  0  0
   45.9467   36.5720   42.9736 H   0  0  0  0  0  0  0  0  0  0  0  0
   46.8032   34.3475   42.0554 H   0  0  0  0  0  0  0  0  0  0  0  0
   47.4283   35.1014   43.5638 H   0  0  0  0  0  0  0  0  0  0  0  0
   45.2126   33.0089   43.4703 H   0  0  0  0  0  0  0  0  0  0  0  0
   46.9225   32.6314   43.7802 H   0  0  0  0  0  0  0  0  0  0  0  0
   44.9692   34.1101   47.7256 H   0  0  0  0  0  0  0  0  0  0  0  0
   46.5235   31.1456   45.0302 H   0  0  0  0  0  0  0  0  0  0  0  0
   45.2473   30.0652   50.1450 H   0  0  0  0  0  0  0  0  0  0  0  0
   44.2076   29.2203   48.9485 H   0  0  0  0  0  0  0  0  0  0  0  0
   45.9827   28.9454   48.9485 H   0  0  0  0  0  0  0  0  0  0  0  0
  1  2  1  0
  1  8  1  0
  3  2  2  0
  4  5  1  0
  4  3  1  0
  5  6  1  0
  6  1  1  0
  7 12  2  0
  8  7  1  0
  9  8  2  0
  9 10  1  0
 10 11  2  0
 11 12  1  0
 11 13  1  0
 14 15  1  0
 14  4  1  0
 16 14  1  0
 17 14  1  0
  1 18  1  1
  2 19  1  0
  3 20  1  0
  4 21  1  6
  5 22  1  0
  5 23  1  0
  6 24  1  0
  6 25  1  0
  7 26  1  0
  9 27  1  0
 13 28  1  0
 13 29  1  0
 13 30  1  0
M  ISO  8  18  13  19  13  20  13  21  13  22  13  23  13  24  13  25  13
M  ISO  5  26  14  27  14  28   8  29   8  30   8
M  END
>  <minimizedAffinity>  (1) 
-5.02380705

>  <minimizedRMSD>  (1) 
0.306818157

$$$$
