
     RDKit          3D

 37 39  0  0  1  0  0  0  0  0999 V2000
   46.5750   32.8700   44.9620 C   0  0  2  0  0  0  0  0  0  0  0  0
   45.4360   33.7600   45.4330 C   0  0  0  0  0  0  0  0  0  0  0  0
   45.1310   34.9110   44.6240 C   0  0  0  0  0  0  0  0  0  0  0  0
   45.8760   35.2030   43.4150 C   0  0  1  0  0  0  0  0  0  0  0  0
   47.0190   34.3170   43.1040 C   0  0  0  0  0  0  0  0  0  0  0  0
   46.6870   32.9010   43.4800 C   0  0  0  0  0  0  0  0  0  0  0  0
   45.7710   31.4160   46.7720 C   0  0  0  0  0  0  0  0  0  0  0  0
   46.4460   31.5590   45.5740 C   0  0  0  0  0  0  0  0  0  0  0  0
   46.9850   30.3980   45.0190 C   0  0  0  0  0  0  0  0  0  0  0  0
   46.8450   29.2060   45.6370 N   0  0  0  0  0  0  0  0  0  0  0  0
   46.1750   29.0990   46.8160 C   0  0  0  0  0  0  0  0  0  0  0  0
   45.6400   30.2180   47.3730 N   0  0  0  0  0  0  0  0  0  0  0  0
   46.0110   27.8220   47.4990 C   0  0  0  0  0  0  0  0  0  0  0  0
   44.8060   27.5270   48.1030 C   0  0  0  0  0  0  0  0  0  0  0  0
   44.6030   26.3200   48.7690 C   0  0  0  0  0  0  0  0  0  0  0  0
   45.6350   25.3900   48.8270 C   0  0  0  0  0  0  0  0  0  0  0  0
   46.8400   25.7040   48.2130 C   0  0  0  0  0  0  0  0  0  0  0  0
   47.0490   26.9010   47.5500 C   0  0  0  0  0  0  0  0  0  0  0  0
   44.8880   35.2070   42.2350 C   0  0  0  0  0  0  0  0  0  0  0  0
   43.8010   34.3980   42.4460 F   0  0  0  0  0  0  0  0  0  0  0  0
   44.3780   36.5090   42.1330 F   0  0  0  0  0  0  0  0  0  0  0  0
   45.5480   34.9400   41.0600 F   0  0  0  0  0  0  0  0  0  0  0  0
   47.5502   33.2488   45.3019 H   0  0  0  0  0  0  0  0  0  0  0  0
   44.8711   33.5349   46.3496 H   0  0  0  0  0  0  0  0  0  0  0  0
   44.3156   35.5831   44.9295 H   0  0  0  0  0  0  0  0  0  0  0  0
   46.3461   36.1819   43.5905 H   0  0  0  0  0  0  0  0  0  0  0  0
   47.2362   34.3667   42.0268 H   0  0  0  0  0  0  0  0  0  0  0  0
   47.8983   34.6466   43.6769 H   0  0  0  0  0  0  0  0  0  0  0  0
   45.7337   32.6000   43.0210 H   0  0  0  0  0  0  0  0  0  0  0  0
   47.4615   32.2047   43.1261 H   0  0  0  0  0  0  0  0  0  0  0  0
   45.3292   32.3044   47.2469 H   0  0  0  0  0  0  0  0  0  0  0  0
   47.5310   30.4546   44.0657 H   0  0  0  0  0  0  0  0  0  0  0  0
   43.9877   28.2607   48.0578 H   0  0  0  0  0  0  0  0  0  0  0  0
   43.6348   26.1048   49.2447 H   0  0  0  0  0  0  0  0  0  0  0  0
   45.5001   24.4297   49.3463 H   0  0  0  0  0  0  0  0  0  0  0  0
   47.6608   24.9729   48.2551 H   0  0  0  0  0  0  0  0  0  0  0  0
   48.0165   27.1180   47.0738 H   0  0  0  0  0  0  0  0  0  0  0  0
  1  2  1  0
  1  8  1  0
  3  2  2  0
  4  3  1  0
  5  4  1  0
  5  6  1  0
  6  1  1  0
  7 12  2  0
  8  7  1  0
  9  8  2  0
  9 10  1  0
 10 11  2  0
 11 12  1  0
 11 13  1  0
 13 18  1  0
 13 14  2  0
 14 15  1  0
 15 16  2  0
 17 16  1  0
 18 17  2  0
 19 20  1  0
 19  4  1  0
 21 19  1  0
 22 19  1  0
  1 23  1  1
  2 24  1  0
  3 25  1  0
  4 26  1  1
  5 27  1  0
  5 28  1  0
  6 29  1  0
  6 30  1  0
  7 31  1  0
  9 32  1  0
 14 33  1  0
 15 34  1  0
 16 35  1  0
 17 36  1  0
 18 37  1  0
M  ISO  8  23  13  24  13  25  13  26  13  27  13  28  13  29  13  30  13
M  ISO  7  31  14  32  14  33  14  34  14  35  14  36  14  37  14
M  END
>  <minimizedAffinity>  (1) 
-5.01831865

>  <minimizedRMSD>  (1) 
1.96422338

$$$$
