
     RDKit          3D

 29 30  0  0  1  0  0  0  0  0999 V2000
   46.0460   33.7110   45.3610 C   0  0  2  0  0  0  0  0  0  0  0  0
   44.9340   34.7200   45.4910 C   0  0  0  0  0  0  0  0  0  0  0  0
   44.7060   35.5980   44.3730 C   0  0  0  0  0  0  0  0  0  0  0  0
   45.5220   35.5060   43.1680 C   0  0  1  0  0  0  0  0  0  0  0  0
   46.6470   34.5430   43.1870 C   0  0  0  0  0  0  0  0  0  0  0  0
   46.2530   33.3080   43.9440 C   0  0  0  0  0  0  0  0  0  0  0  0
   45.2960   32.9070   47.5480 C   0  0  0  0  0  0  0  0  0  0  0  0
   45.8510   32.6310   46.3140 C   0  0  0  0  0  0  0  0  0  0  0  0
   46.2070   31.3060   46.0640 C   0  0  0  0  0  0  0  0  0  0  0  0
   46.0120   30.3560   46.9990 N   0  0  0  0  0  0  0  0  0  0  0  0
   45.4610   30.6560   48.2110 C   0  0  0  0  0  0  0  0  0  0  0  0
   45.1110   31.9230   48.4710 N   0  0  0  0  0  0  0  0  0  0  0  0
   45.2730   29.6220   49.1680 N   0  0  0  0  0  0  0  0  0  0  0  0
   44.5920   35.1900   41.9840 C   0  0  0  0  0  0  0  0  0  0  0  0
   43.5970   34.3010   42.3120 F   0  0  0  0  0  0  0  0  0  0  0  0
   43.9460   36.3740   41.6340 F   0  0  0  0  0  0  0  0  0  0  0  0
   45.3430   34.8000   40.8890 F   0  0  0  0  0  0  0  0  0  0  0  0
   47.0095   34.1639   45.6379 H   0  0  0  0  0  0  0  0  0  0  0  0
   44.3217   34.7830   46.4027 H   0  0  0  0  0  0  0  0  0  0  0  0
   43.9045   36.3493   44.4286 H   0  0  0  0  0  0  0  0  0  0  0  0
   46.0205   36.4828   43.0823 H   0  0  0  0  0  0  0  0  0  0  0  0
   46.9095   34.2691   42.1545 H   0  0  0  0  0  0  0  0  0  0  0  0
   47.5125   35.0086   43.6811 H   0  0  0  0  0  0  0  0  0  0  0  0
   45.3224   32.8925   43.5301 H   0  0  0  0  0  0  0  0  0  0  0  0
   47.0326   32.5358   43.8664 H   0  0  0  0  0  0  0  0  0  0  0  0
   44.9986   33.9382   47.7892 H   0  0  0  0  0  0  0  0  0  0  0  0
   46.6509   31.0343   45.0949 H   0  0  0  0  0  0  0  0  0  0  0  0
   44.8579   29.8386   50.0854 H   0  0  0  0  0  0  0  0  0  0  0  0
   45.5518   28.6561   48.9440 H   0  0  0  0  0  0  0  0  0  0  0  0
  1  2  1  0
  1  8  1  0
  3  2  2  0
  4  5  1  0
  4  3  1  0
  5  6  1  0
  6  1  1  0
  7 12  2  0
  8  7  1  0
  9  8  2  0
  9 10  1  0
 10 11  2  0
 11 12  1  0
 11 13  1  0
 14 15  1  0
 14  4  1  0
 16 14  1  0
 17 14  1  0
  1 18  1  1
  2 19  1  0
  3 20  1  0
  4 21  1  6
  5 22  1  0
  5 23  1  0
  6 24  1  0
  6 25  1  0
  7 26  1  0
  9 27  1  0
 13 28  1  0
 13 29  1  0
M  ISO  8  18  13  19  13  20  13  21  13  22  13  23  13  24  13  25  13
M  ISO  2  26  14  27  14
M  END
>  <minimizedAffinity>  (1) 
-5.51706934

>  <minimizedRMSD>  (1) 
0.160933867

$$$$
