
     RDKit          3D

 44 46  0  0  1  0  0  0  0  0999 V2000
   46.0750   33.6600   45.3400 C   0  0  2  0  0  0  0  0  0  0  0  0
   44.9030   34.6860   45.4690 C   0  0  0  0  0  0  0  0  0  0  0  0
   44.6900   35.5710   44.3570 C   0  0  0  0  0  0  0  0  0  0  0  0
   45.5210   35.4980   43.1640 C   0  0  1  0  0  0  0  0  0  0  0  0
   46.6430   34.5540   43.1960 C   0  0  0  0  0  0  0  0  0  0  0  0
   46.2660   33.3170   43.9570 C   0  0  0  0  0  0  0  0  0  0  0  0
   45.2640   32.9340   47.5190 C   0  0  0  0  0  0  0  0  0  0  0  0
   45.8810   32.6590   46.3420 C   0  0  0  0  0  0  0  0  0  0  0  0
   46.2980   31.3370   46.1340 C   0  0  0  0  0  0  0  0  0  0  0  0
   46.1020   30.3940   47.0540 N   0  0  0  0  0  0  0  0  0  0  0  0
   45.4740   30.6920   48.2450 C   0  0  0  0  0  0  0  0  0  0  0  0
   45.0660   31.9440   48.4610 N   0  0  0  0  0  0  0  0  0  0  0  0
   45.2770   29.6740   49.2240 N   0  0  0  0  0  0  0  0  0  0  0  0
   46.8770   30.6400   45.0320 N   0  0  0  0  0  0  0  0  0  0  0  0
   47.6120   29.3780   44.8730 C   0  0  0  0  0  0  0  0  0  0  0  0
   48.9840   29.6100   44.3010 C   0  0  0  0  0  0  0  0  0  0  0  0
   48.9320   30.3110   42.9620 C   0  0  0  0  0  0  0  0  0  0  0  0
   48.1810   31.6050   43.1990 C   0  0  0  0  0  0  0  0  0  0  0  0
   46.8170   31.2110   43.6810 C   0  0  0  0  0  0  0  0  0  0  0  0
   44.5990   35.1530   41.9780 C   0  0  0  0  0  0  0  0  0  0  0  0
   43.6060   34.2510   42.3180 F   0  0  0  0  0  0  0  0  0  0  0  0
   43.9380   36.3330   41.6230 F   0  0  0  0  0  0  0  0  0  0  0  0
   45.3320   34.7510   40.8860 F   0  0  0  0  0  0  0  0  0  0  0  0
   47.0804   34.0372   45.5785 H   0  0  0  0  0  0  0  0  0  0  0  0
   44.2711   34.7286   46.3684 H   0  0  0  0  0  0  0  0  0  0  0  0
   43.8838   36.3176   44.4083 H   0  0  0  0  0  0  0  0  0  0  0  0
   46.0069   36.4811   43.0776 H   0  0  0  0  0  0  0  0  0  0  0  0
   46.9132   34.2775   42.1662 H   0  0  0  0  0  0  0  0  0  0  0  0
   47.4976   35.0332   43.6960 H   0  0  0  0  0  0  0  0  0  0  0  0
   45.3333   32.9017   43.5476 H   0  0  0  0  0  0  0  0  0  0  0  0
   47.0649   32.5663   43.8665 H   0  0  0  0  0  0  0  0  0  0  0  0
   44.9176   33.9575   47.7250 H   0  0  0  0  0  0  0  0  0  0  0  0
   44.8077   29.8984   50.1130 H   0  0  0  0  0  0  0  0  0  0  0  0
   45.6040   28.7144   49.0421 H   0  0  0  0  0  0  0  0  0  0  0  0
   47.7112   28.8953   45.8564 H   0  0  0  0  0  0  0  0  0  0  0  0
   47.0512   28.7360   44.1778 H   0  0  0  0  0  0  0  0  0  0  0  0
   49.5608   30.2296   45.0034 H   0  0  0  0  0  0  0  0  0  0  0  0
   49.4584   28.6289   44.1511 H   0  0  0  0  0  0  0  0  0  0  0  0
   48.4011   29.6900   42.2255 H   0  0  0  0  0  0  0  0  0  0  0  0
   49.9406   30.4967   42.5642 H   0  0  0  0  0  0  0  0  0  0  0  0
   48.6947   32.2108   43.9600 H   0  0  0  0  0  0  0  0  0  0  0  0
   48.1243   32.2107   42.2825 H   0  0  0  0  0  0  0  0  0  0  0  0
   46.1705   32.1009   43.6957 H   0  0  0  0  0  0  0  0  0  0  0  0
   46.4123   30.4495   42.9981 H   0  0  0  0  0  0  0  0  0  0  0  0
  1  2  1  0
  1  8  1  0
  3  2  2  0
  4  5  1  0
  4  3  1  0
  5  6  1  0
  6  1  1  0
  7 12  2  0
  8  7  1  0
  9  8  2  0
  9 10  1  0
 10 11  2  0
 11 12  1  0
 11 13  1  0
 14  9  1  0
 15 14  1  0
 16 15  1  0
 17 18  1  0
 17 16  1  0
 18 19  1  0
 19 14  1  0
 20 21  1  0
 20  4  1  0
 22 20  1  0
 23 20  1  0
  1 24  1  1
  2 25  1  0
  3 26  1  0
  4 27  1  6
  5 28  1  0
  5 29  1  0
  6 30  1  0
  6 31  1  0
  7 32  1  0
 13 33  1  0
 13 34  1  0
 15 35  1  0
 15 36  1  0
 16 37  1  0
 16 38  1  0
 17 39  1  0
 17 40  1  0
 18 41  1  0
 18 42  1  0
 19 43  1  0
 19 44  1  0
M  ISO  8  24  13  25  13  26  13  27  13  28  13  29  13  30  13  31  13
M  ISO  8  32  14  35  13  36  13  37  13  38  13  39  13  40  13  41  13
M  ISO  3  42  13  43  13  44  13
M  END
>  <minimizedAffinity>  (1) 
-5.92496824

>  <minimizedRMSD>  (1) 
0.137828901

$$$$
