
     RDKit          3D

 45 48  0  0  1  0  0  0  0  0999 V2000
   45.2040   32.7440   47.6010 C   0  0  0  0  0  0  0  0  0  0  0  0
   45.8150   32.4190   46.4330 C   0  0  0  0  0  0  0  0  0  0  0  0
   46.1510   31.0750   46.2340 C   0  0  0  0  0  0  0  0  0  0  0  0
   45.8830   30.1670   47.1680 N   0  0  0  0  0  0  0  0  0  0  0  0
   45.2690   30.5190   48.3470 C   0  0  0  0  0  0  0  0  0  0  0  0
   44.9310   31.7960   48.5550 N   0  0  0  0  0  0  0  0  0  0  0  0
   45.0400   29.5330   49.3580 N   0  0  0  0  0  0  0  0  0  0  0  0
   46.1190   33.4260   45.4530 C   0  0  2  0  0  0  0  0  0  0  0  0
   45.0440   34.5440   45.5950 C   0  0  0  0  0  0  0  0  0  0  0  0
   44.9090   35.4600   44.4990 C   0  0  0  0  0  0  0  0  0  0  0  0
   45.7240   35.3500   43.3130 C   0  0  1  0  0  0  0  0  0  0  0  0
   46.8020   34.3440   43.3570 C   0  0  0  0  0  0  0  0  0  0  0  0
   46.3240   33.1060   44.0770 C   0  0  0  0  0  0  0  0  0  0  0  0
   44.7880   35.0720   42.1070 C   0  0  0  0  0  0  0  0  0  0  0  0
   43.8030   34.1780   42.4010 F   0  0  0  0  0  0  0  0  0  0  0  0
   44.1510   36.2900   41.8370 F   0  0  0  0  0  0  0  0  0  0  0  0
   45.5440   34.7470   40.9950 F   0  0  0  0  0  0  0  0  0  0  0  0
   46.7900   30.3710   45.1400 C   0  0  0  0  0  0  0  0  0  0  0  0
   46.3410   30.1060   43.8230 C   0  0  0  0  0  0  0  0  0  0  0  0
   47.1060   29.3340   42.9660 C   0  0  0  0  0  0  0  0  0  0  0  0
   48.3070   28.8180   43.3750 C   0  0  0  0  0  0  0  0  0  0  0  0
   48.8020   29.0290   44.6230 C   0  0  0  0  0  0  0  0  0  0  0  0
   50.0170   28.5060   45.0140 C   0  0  0  0  0  0  0  0  0  0  0  0
   50.5010   28.7410   46.2800 C   0  0  0  0  0  0  0  0  0  0  0  0
   49.7890   29.4990   47.1790 C   0  0  0  0  0  0  0  0  0  0  0  0
   48.5840   29.9970   46.7410 C   0  0  0  0  0  0  0  0  0  0  0  0
   48.0270   29.8080   45.4910 C   0  0  0  0  0  0  0  0  0  0  0  0
   44.9214   33.7907   47.7869 H   0  0  0  0  0  0  0  0  0  0  0  0
   44.5800   29.7977   50.2407 H   0  0  0  0  0  0  0  0  0  0  0  0
   45.3351   28.5584   49.2031 H   0  0  0  0  0  0  0  0  0  0  0  0
   47.1502   33.7073   45.7129 H   0  0  0  0  0  0  0  0  0  0  0  0
   44.4167   34.6275   46.4947 H   0  0  0  0  0  0  0  0  0  0  0  0
   44.1648   36.2674   44.5644 H   0  0  0  0  0  0  0  0  0  0  0  0
   46.2574   36.3077   43.2222 H   0  0  0  0  0  0  0  0  0  0  0  0
   47.0944   34.0783   42.3304 H   0  0  0  0  0  0  0  0  0  0  0  0
   47.6655   34.7633   43.8942 H   0  0  0  0  0  0  0  0  0  0  0  0
   45.3787   32.7613   43.6325 H   0  0  0  0  0  0  0  0  0  0  0  0
   47.0745   32.3069   43.9863 H   0  0  0  0  0  0  0  0  0  0  0  0
   45.3796   30.5158   43.4797 H   0  0  0  0  0  0  0  0  0  0  0  0
   46.7459   29.1329   41.9463 H   0  0  0  0  0  0  0  0  0  0  0  0
   48.8918   28.2111   42.6681 H   0  0  0  0  0  0  0  0  0  0  0  0
   50.6024   27.8973   44.3092 H   0  0  0  0  0  0  0  0  0  0  0  0
   51.4713   28.3165   46.5771 H   0  0  0  0  0  0  0  0  0  0  0  0
   50.1630   29.6967   48.1944 H   0  0  0  0  0  0  0  0  0  0  0  0
   48.0083   30.6044   47.4549 H   0  0  0  0  0  0  0  0  0  0  0  0
  1  6  2  0
  2  1  1  0
  3  2  2  0
  3  4  1  0
  4  5  2  0
  5  6  1  0
  5  7  1  0
  8  9  1  0
  8  2  1  0
 10  9  2  0
 11 12  1  0
 11 10  1  0
 12 13  1  0
 13  8  1  0
 14 15  1  0
 14 11  1  0
 16 14  1  0
 17 14  1  0
 18 27  1  0
 18  3  1  0
 19 18  2  0
 20 21  2  0
 20 19  1  0
 21 22  1  0
 22 23  1  0
 22 27  2  0
 23 24  2  0
 24 25  1  0
 26 25  2  0
 27 26  1  0
  1 28  1  0
  7 29  1  0
  7 30  1  0
  8 31  1  1
  9 32  1  0
 10 33  1  0
 11 34  1  6
 12 35  1  0
 12 36  1  0
 13 37  1  0
 13 38  1  0
 19 39  1  0
 20 40  1  0
 21 41  1  0
 23 42  1  0
 24 43  1  0
 25 44  1  0
 26 45  1  0
M  ISO  8  28  14  31  13  32  13  33  13  34  13  35  13  36  13  37  13
M  ISO  8  38  13  39  14  40  14  41  14  42  14  43  14  44  14  45  14
M  END
>  <minimizedAffinity>  (1) 
-5.9732585

>  <minimizedRMSD>  (1) 
0.868658602

$$$$
