
     RDKit          3D

 42 44  0  0  1  0  0  0  0  0999 V2000
   46.1620   33.6610   45.3300 C   0  0  2  0  0  0  0  0  0  0  0  0
   45.0180   34.7290   45.4880 C   0  0  0  0  0  0  0  0  0  0  0  0
   44.7860   35.6060   44.3750 C   0  0  0  0  0  0  0  0  0  0  0  0
   45.5750   35.4940   43.1480 C   0  0  1  0  0  0  0  0  0  0  0  0
   46.6690   34.5220   43.1610 C   0  0  0  0  0  0  0  0  0  0  0  0
   46.2710   33.2990   43.9450 C   0  0  0  0  0  0  0  0  0  0  0  0
   45.1270   32.8880   47.4060 C   0  0  0  0  0  0  0  0  0  0  0  0
   45.9600   32.6800   46.3470 C   0  0  0  0  0  0  0  0  0  0  0  0
   46.5820   31.4190   46.2800 C   0  0  0  0  0  0  0  0  0  0  0  0
   46.3700   30.4800   47.2050 N   0  0  0  0  0  0  0  0  0  0  0  0
   45.5230   30.7150   48.2680 C   0  0  0  0  0  0  0  0  0  0  0  0
   44.9240   31.9000   48.3460 N   0  0  0  0  0  0  0  0  0  0  0  0
   45.3010   29.7050   49.2340 N   0  0  0  0  0  0  0  0  0  0  0  0
   47.4380   30.7830   45.3350 N   0  0  0  0  0  0  0  0  0  0  0  0
   47.5720   30.7690   43.8630 C   0  0  0  0  0  0  0  0  0  0  0  0
   48.9510   30.2860   43.5060 C   0  0  0  0  0  0  0  0  0  0  0  0
   48.9550   28.8880   43.7120 O   0  0  0  0  0  0  0  0  0  0  0  0
   48.6860   28.6690   45.0350 C   0  0  0  0  0  0  0  0  0  0  0  0
   48.4620   29.9060   45.8650 C   0  0  0  0  0  0  0  0  0  0  0  0
   44.5870   35.1660   42.0030 C   0  0  0  0  0  0  0  0  0  0  0  0
   43.6040   34.2740   42.3810 F   0  0  0  0  0  0  0  0  0  0  0  0
   43.9320   36.3590   41.6890 F   0  0  0  0  0  0  0  0  0  0  0  0
   45.2820   34.7670   40.8790 F   0  0  0  0  0  0  0  0  0  0  0  0
   47.1902   33.9988   45.5268 H   0  0  0  0  0  0  0  0  0  0  0  0
   44.4223   34.8008   46.4100 H   0  0  0  0  0  0  0  0  0  0  0  0
   44.0023   36.3746   44.4460 H   0  0  0  0  0  0  0  0  0  0  0  0
   46.0926   36.4560   43.0185 H   0  0  0  0  0  0  0  0  0  0  0  0
   46.9069   34.2293   42.1277 H   0  0  0  0  0  0  0  0  0  0  0  0
   47.5497   34.9802   43.6346 H   0  0  0  0  0  0  0  0  0  0  0  0
   45.3024   32.9246   43.5821 H   0  0  0  0  0  0  0  0  0  0  0  0
   47.0264   32.5092   43.8203 H   0  0  0  0  0  0  0  0  0  0  0  0
   44.6116   33.8540   47.5116 H   0  0  0  0  0  0  0  0  0  0  0  0
   44.6684   29.8814   50.0274 H   0  0  0  0  0  0  0  0  0  0  0  0
   45.7721   28.7935   49.1437 H   0  0  0  0  0  0  0  0  0  0  0  0
   46.8200   30.0932   43.4298 H   0  0  0  0  0  0  0  0  0  0  0  0
   47.4161   31.7822   43.4640 H   0  0  0  0  0  0  0  0  0  0  0  0
   49.7006   30.7669   44.1516 H   0  0  0  0  0  0  0  0  0  0  0  0
   49.2008   30.5341   42.4639 H   0  0  0  0  0  0  0  0  0  0  0  0
   47.7791   28.0496   45.0984 H   0  0  0  0  0  0  0  0  0  0  0  0
   49.5831   28.1858   45.4494 H   0  0  0  0  0  0  0  0  0  0  0  0
   49.4072   30.4663   45.9161 H   0  0  0  0  0  0  0  0  0  0  0  0
   48.1193   29.5719   46.8554 H   0  0  0  0  0  0  0  0  0  0  0  0
  1  2  1  0
  1  8  1  0
  3  2  2  0
  4  5  1  0
  4  3  1  0
  5  6  1  0
  6  1  1  0
  7 12  2  0
  8  7  1  0
  9  8  2  0
  9 10  1  0
 10 11  2  0
 11 12  1  0
 11 13  1  0
 14 19  1  0
 14  9  1  0
 15 14  1  0
 16 17  1  0
 16 15  1  0
 17 18  1  0
 18 19  1  0
 20 21  1  0
 20  4  1  0
 22 20  1  0
 23 20  1  0
  1 24  1  1
  2 25  1  0
  3 26  1  0
  4 27  1  6
  5 28  1  0
  5 29  1  0
  6 30  1  0
  6 31  1  0
  7 32  1  0
 13 33  1  0
 13 34  1  0
 15 35  1  0
 15 36  1  0
 16 37  1  0
 16 38  1  0
 18 39  1  0
 18 40  1  0
 19 41  1  0
 19 42  1  0
M  ISO  8  24  13  25  13  26  13  27  13  28  13  29  13  30  13  31  13
M  ISO  8  32  14  35  13  36  13  37  13  38  13  39  13  40  13  41  13
M  ISO  1  42  13
M  END
>  <minimizedAffinity>  (1) 
-5.72108078

>  <minimizedRMSD>  (1) 
0.738046706

$$$$
