
     RDKit          3D

 36 39  0  0  0  0  0  0  0  0999 V2000
   43.5250   32.9750   40.6740 C   0  0  0  0  0  0  0  0  0  0  0  0
   43.6230   31.7360   39.8990 C   0  0  0  0  0  0  0  0  0  0  0  0
   42.8330   30.6570   40.6420 C   0  0  0  0  0  0  0  0  0  0  0  0
   42.1390   31.3280   41.7850 C   0  0  0  0  0  0  0  0  0  0  0  0
   43.0100   32.5280   42.0600 C   0  0  0  0  0  0  0  0  0  0  0  0
   42.5590   33.9860   40.2160 C   0  0  0  0  0  0  0  0  0  0  0  0
   42.4100   34.2120   38.8380 C   0  0  0  0  0  0  0  0  0  0  0  0
   41.4930   35.1660   38.3950 C   0  0  0  0  0  0  0  0  0  0  0  0
   40.7820   35.8350   39.3480 N   0  0  0  0  0  0  0  0  0  0  0  0
   40.9390   35.6060   40.6600 C   0  0  0  0  0  0  0  0  0  0  0  0
   41.8220   34.6870   41.0860 N   0  0  0  0  0  0  0  0  0  0  0  0
   44.8360   33.5930   40.8410 N   0  0  0  0  0  0  0  0  0  0  0  0
   45.1200   34.2140   41.9980 C   0  0  0  0  0  0  0  0  0  0  0  0
   46.3770   34.7100   41.9350 N   0  0  0  0  0  0  0  0  0  0  0  0
   46.8760   34.3900   40.7210 C   0  0  0  0  0  0  0  0  0  0  0  0
   48.0970   34.6210   40.0820 C   0  0  0  0  0  0  0  0  0  0  0  0
   48.2600   34.1450   38.8320 N   0  0  0  0  0  0  0  0  0  0  0  0
   47.2590   33.4610   38.2160 C   0  0  0  0  0  0  0  0  0  0  0  0
   46.0620   33.2270   38.8250 N   0  0  0  0  0  0  0  0  0  0  0  0
   45.9100   33.7000   40.0600 C   0  0  0  0  0  0  0  0  0  0  0  0
   49.0550   35.3470   40.8330 N   0  0  0  0  0  0  0  0  0  0  0  0
   44.6767   31.4332   39.8088 H   0  0  0  0  0  0  0  0  0  0  0  0
   43.2167   31.8821   38.8873 H   0  0  0  0  0  0  0  0  0  0  0  0
   42.0938   30.1993   39.9681 H   0  0  0  0  0  0  0  0  0  0  0  0
   43.5013   29.8612   41.0027 H   0  0  0  0  0  0  0  0  0  0  0  0
   41.1213   31.6356   41.5029 H   0  0  0  0  0  0  0  0  0  0  0  0
   42.0176   30.6732   42.6605 H   0  0  0  0  0  0  0  0  0  0  0  0
   43.8504   32.2537   42.7146 H   0  0  0  0  0  0  0  0  0  0  0  0
   42.4587   33.3293   42.5738 H   0  0  0  0  0  0  0  0  0  0  0  0
   43.0109   33.6420   38.1141 H   0  0  0  0  0  0  0  0  0  0  0  0
   41.3496   35.3698   37.3236 H   0  0  0  0  0  0  0  0  0  0  0  0
   40.3427   36.1726   41.3903 H   0  0  0  0  0  0  0  0  0  0  0  0
   44.4400   34.3045   42.8579 H   0  0  0  0  0  0  0  0  0  0  0  0
   47.4201   33.0850   37.1949 H   0  0  0  0  0  0  0  0  0  0  0  0
   49.9782   35.5549   40.4263 H   0  0  0  0  0  0  0  0  0  0  0  0
   48.8280   35.6667   41.7855 H   0  0  0  0  0  0  0  0  0  0  0  0
  1 12  1  0
  1  5  1  0
  2  3  1  0
  2  1  1  0
  3  4  1  0
  4  5  1  0
  6  1  1  0
  6 11  1  0
  7  6  2  0
  8  7  1  0
  8  9  2  0
  9 10  1  0
 10 11  2  0
 12 13  1  0
 14 13  2  0
 15 14  1  0
 16 15  2  0
 16 21  1  0
 17 16  1  0
 18 19  1  0
 18 17  2  0
 19 20  2  0
 20 15  1  0
 20 12  1  0
  2 22  1  0
  2 23  1  0
  3 24  1  0
  3 25  1  0
  4 26  1  0
  4 27  1  0
  5 28  1  0
  5 29  1  0
  7 30  1  0
  8 31  1  0
 10 32  1  0
 13 33  1  0
 18 34  1  0
 21 35  1  0
 21 36  1  0
M  ISO  8  22  13  23  13  24  13  25  13  26  13  27  13  28  13  29  13
M  ISO  5  30  14  31  14  32  14  33  14  34  14
M  END
>  <minimizedAffinity>  (1) 
-4.75304079

>  <minimizedRMSD>  (1) 
4.8876543

$$$$
