
     RDKit          3D

 35 37  0  0  1  0  0  0  0  0999 V2000
   46.0900   33.6020   45.2610 C   0  0  2  0  0  0  0  0  0  0  0  0
   44.9730   34.7090   45.4930 C   0  0  0  0  0  0  0  0  0  0  0  0
   44.7350   35.6390   44.4170 C   0  0  0  0  0  0  0  0  0  0  0  0
   45.4870   35.5400   43.1770 C   0  0  1  0  0  0  0  0  0  0  0  0
   46.5560   34.5040   43.1150 C   0  0  0  0  0  0  0  0  0  0  0  0
   46.0560   33.2850   43.8710 C   0  0  0  0  0  0  0  0  0  0  0  0
   45.3380   32.8840   47.5080 C   0  0  0  0  0  0  0  0  0  0  0  0
   45.8700   32.6160   46.2760 C   0  0  0  0  0  0  0  0  0  0  0  0
   46.1280   31.2790   46.0200 C   0  0  0  0  0  0  0  0  0  0  0  0
   45.8710   30.3170   46.9140 N   0  0  0  0  0  0  0  0  0  0  0  0
   45.3370   30.6200   48.1460 C   0  0  0  0  0  0  0  0  0  0  0  0
   45.0790   31.8940   48.4220 N   0  0  0  0  0  0  0  0  0  0  0  0
   45.1120   29.5890   49.1110 N   0  0  0  0  0  0  0  0  0  0  0  0
   46.7450   30.6170   44.8760 C   0  0  0  0  0  0  0  0  0  0  0  0
   46.0630   29.8630   43.8820 C   0  0  0  0  0  0  0  0  0  0  0  0
   47.4670   29.2460   42.8580 S   0  0  0  0  0  0  0  0  0  0  0  0
   48.7270   30.1280   43.9730 C   0  0  0  0  0  0  0  0  0  0  0  0
   48.0800   30.6300   44.7520 N   0  0  0  0  0  0  0  0  0  0  0  0
   44.4660   35.2760   42.0390 C   0  0  0  0  0  0  0  0  0  0  0  0
   43.4140   34.4820   42.4340 F   0  0  0  0  0  0  0  0  0  0  0  0
   43.9290   36.5180   41.7110 F   0  0  0  0  0  0  0  0  0  0  0  0
   45.1150   34.8100   40.9140 F   0  0  0  0  0  0  0  0  0  0  0  0
   47.1495   33.8601   45.4054 H   0  0  0  0  0  0  0  0  0  0  0  0
   44.4059   34.7633   46.4340 H   0  0  0  0  0  0  0  0  0  0  0  0
   43.9789   36.4291   44.5354 H   0  0  0  0  0  0  0  0  0  0  0  0
   46.0329   36.4905   43.0841 H   0  0  0  0  0  0  0  0  0  0  0  0
   46.7608   34.2381   42.0675 H   0  0  0  0  0  0  0  0  0  0  0  0
   47.4874   34.8816   43.5621 H   0  0  0  0  0  0  0  0  0  0  0  0
   45.0264   33.0485   43.5643 H   0  0  0  0  0  0  0  0  0  0  0  0
   46.6864   32.4094   43.6567 H   0  0  0  0  0  0  0  0  0  0  0  0
   45.1107   33.9268   47.7742 H   0  0  0  0  0  0  0  0  0  0  0  0
   44.7121   29.8230   50.0309 H   0  0  0  0  0  0  0  0  0  0  0  0
   45.3498   28.6124   48.8862 H   0  0  0  0  0  0  0  0  0  0  0  0
   44.9835   29.6928   43.7569 H   0  0  0  0  0  0  0  0  0  0  0  0
   49.8231   30.1459   43.8823 H   0  0  0  0  0  0  0  0  0  0  0  0
  1  2  1  0
  1  8  1  0
  3  2  2  0
  4  3  1  0
  5  4  1  0
  5  6  1  0
  6  1  1  0
  7 12  2  0
  8  7  1  0
  9  8  2  0
  9 10  1  0
 10 11  2  0
 11 12  1  0
 11 13  1  0
 14  9  1  0
 15 14  2  0
 16 15  1  0
 16 17  1  0
 17 18  2  0
 18 14  1  0
 19 20  1  0
 19  4  1  0
 21 19  1  0
 22 19  1  0
  1 23  1  1
  2 24  1  0
  3 25  1  0
  4 26  1  6
  5 27  1  0
  5 28  1  0
  6 29  1  0
  6 30  1  0
  7 31  1  0
 13 32  1  0
 13 33  1  0
 15 34  1  0
 17 35  1  0
M  ISO  8  23  13  24  13  25  13  26  13  27  13  28  13  29  13  30  13
M  ISO  3  31  14  34  14  35  14
M  END
>  <minimizedAffinity>  (1) 
-5.58171797

>  <minimizedRMSD>  (1) 
0.453418881

$$$$
