
     RDKit          3D

 31 32  0  0  1  0  0  0  0  0999 V2000
   46.0960   33.8840   45.2500 C   0  0  2  0  0  0  0  0  0  0  0  0
   44.8890   34.8820   45.3990 C   0  0  0  0  0  0  0  0  0  0  0  0
   44.6020   35.7190   44.2630 C   0  0  0  0  0  0  0  0  0  0  0  0
   45.3910   35.6290   43.0410 C   0  0  1  0  0  0  0  0  0  0  0  0
   46.5400   34.7110   43.0570 C   0  0  0  0  0  0  0  0  0  0  0  0
   46.2120   33.4980   43.8770 C   0  0  0  0  0  0  0  0  0  0  0  0
   45.1710   33.1210   47.3810 C   0  0  0  0  0  0  0  0  0  0  0  0
   45.9590   32.9120   46.2960 C   0  0  0  0  0  0  0  0  0  0  0  0
   46.6200   31.6760   46.2270 C   0  0  0  0  0  0  0  0  0  0  0  0
   46.4860   30.7520   47.1810 N   0  0  0  0  0  0  0  0  0  0  0  0
   45.6830   30.9910   48.2740 C   0  0  0  0  0  0  0  0  0  0  0  0
   45.0440   32.1560   48.3570 N   0  0  0  0  0  0  0  0  0  0  0  0
   45.5740   30.0160   49.3120 N   0  0  0  0  0  0  0  0  0  0  0  0
   47.4890   31.2100   45.2100 N   0  0  0  0  0  0  0  0  0  0  0  0
   44.4220   35.2130   41.9070 C   0  0  0  0  0  0  0  0  0  0  0  0
   43.4700   34.3100   42.3180 F   0  0  0  0  0  0  0  0  0  0  0  0
   43.7340   36.3660   41.5260 F   0  0  0  0  0  0  0  0  0  0  0  0
   45.1360   34.7830   40.8060 F   0  0  0  0  0  0  0  0  0  0  0  0
   47.1042   34.2877   45.4249 H   0  0  0  0  0  0  0  0  0  0  0  0
   44.2950   34.9375   46.3232 H   0  0  0  0  0  0  0  0  0  0  0  0
   43.7724   36.4392   44.3185 H   0  0  0  0  0  0  0  0  0  0  0  0
   45.8506   36.6186   42.9016 H   0  0  0  0  0  0  0  0  0  0  0  0
   46.7752   34.4029   42.0276 H   0  0  0  0  0  0  0  0  0  0  0  0
   47.4074   35.2235   43.4987 H   0  0  0  0  0  0  0  0  0  0  0  0
   45.2605   33.0662   43.5332 H   0  0  0  0  0  0  0  0  0  0  0  0
   47.0085   32.7473   43.7670 H   0  0  0  0  0  0  0  0  0  0  0  0
   44.6272   34.0718   47.4827 H   0  0  0  0  0  0  0  0  0  0  0  0
   44.9726   30.1977   50.1282 H   0  0  0  0  0  0  0  0  0  0  0  0
   46.0968   29.1311   49.2444 H   0  0  0  0  0  0  0  0  0  0  0  0
   47.9116   30.2735   45.2829 H   0  0  0  0  0  0  0  0  0  0  0  0
   47.6983   31.8077   44.3977 H   0  0  0  0  0  0  0  0  0  0  0  0
  1  2  1  0
  1  8  1  0
  3  2  2  0
  4  5  1  0
  4  3  1  0
  5  6  1  0
  6  1  1  0
  7 12  2  0
  8  7  1  0
  9  8  2  0
  9 10  1  0
 10 11  2  0
 11 12  1  0
 11 13  1  0
 14  9  1  0
 15 16  1  0
 15  4  1  0
 17 15  1  0
 18 15  1  0
  1 19  1  1
  2 20  1  0
  3 21  1  0
  4 22  1  6
  5 23  1  0
  5 24  1  0
  6 25  1  0
  6 26  1  0
  7 27  1  0
 13 28  1  0
 13 29  1  0
 14 30  1  0
 14 31  1  0
M  ISO  8  19  13  20  13  21  13  22  13  23  13  24  13  25  13  26  13
M  ISO  1  27  14
M  END
>  <minimizedAffinity>  (1) 
-5.66156912

>  <minimizedRMSD>  (1) 
0.379965812

$$$$
