
     RDKit          3D

 39 42  0  0  0  0  0  0  0  0999 V2000
   43.7380   33.2890   40.3600 C   0  0  0  0  0  0  0  0  0  0  0  0
   44.1970   33.2770   38.9360 C   0  0  0  0  0  0  0  0  0  0  0  0
   45.7010   33.3130   38.9140 C   0  0  0  0  0  0  0  0  0  0  0  0
   46.1450   33.2850   40.3530 C   0  0  0  0  0  0  0  0  0  0  0  0
   44.9370   33.6950   41.1270 C   0  0  0  0  0  0  0  0  0  0  0  0
   42.5080   34.0620   40.3350 C   0  0  0  0  0  0  0  0  0  0  0  0
   42.3490   35.1230   41.2520 C   0  0  0  0  0  0  0  0  0  0  0  0
   41.2480   35.9360   41.3920 C   0  0  0  0  0  0  0  0  0  0  0  0
   40.1770   35.7090   40.5580 C   0  0  0  0  0  0  0  0  0  0  0  0
   40.2300   34.6980   39.6260 C   0  0  0  0  0  0  0  0  0  0  0  0
   39.1690   34.4720   38.7780 C   0  0  0  0  0  0  0  0  0  0  0  0
   39.1980   33.4620   37.8130 C   0  0  0  0  0  0  0  0  0  0  0  0
   40.3710   32.7030   37.7630 C   0  0  0  0  0  0  0  0  0  0  0  0
   41.3960   32.9580   38.6170 C   0  0  0  0  0  0  0  0  0  0  0  0
   41.3710   33.9500   39.5700 C   0  0  0  0  0  0  0  0  0  0  0  0
   43.4000   31.9030   40.8520 C   0  0  0  0  0  0  0  0  0  0  0  0
   43.5230   30.7840   40.0360 C   0  0  0  0  0  0  0  0  0  0  0  0
   43.1650   29.5310   40.5390 C   0  0  0  0  0  0  0  0  0  0  0  0
   42.7100   29.4730   41.8160 N   0  0  0  0  0  0  0  0  0  0  0  0
   42.5980   30.5780   42.5960 C   0  0  0  0  0  0  0  0  0  0  0  0
   42.9450   31.7800   42.1090 N   0  0  0  0  0  0  0  0  0  0  0  0
   43.8413   32.3618   38.4401 H   0  0  0  0  0  0  0  0  0  0  0  0
   43.7932   34.1514   38.4045 H   0  0  0  0  0  0  0  0  0  0  0  0
   46.0952   32.4379   38.3766 H   0  0  0  0  0  0  0  0  0  0  0  0
   46.0722   34.2109   38.3982 H   0  0  0  0  0  0  0  0  0  0  0  0
   46.4658   32.2730   40.6409 H   0  0  0  0  0  0  0  0  0  0  0  0
   47.0037   33.9471   40.5378 H   0  0  0  0  0  0  0  0  0  0  0  0
   44.9374   34.7859   41.2680 H   0  0  0  0  0  0  0  0  0  0  0  0
   44.9372   33.2133   42.1159 H   0  0  0  0  0  0  0  0  0  0  0  0
   43.1952   35.3209   41.9264 H   0  0  0  0  0  0  0  0  0  0  0  0
   41.2245   36.7388   42.1437 H   0  0  0  0  0  0  0  0  0  0  0  0
   39.2771   36.3368   40.6366 H   0  0  0  0  0  0  0  0  0  0  0  0
   38.2731   35.1046   38.8627 H   0  0  0  0  0  0  0  0  0  0  0  0
   38.3516   33.2758   37.1356 H   0  0  0  0  0  0  0  0  0  0  0  0
   40.4647   31.8922   37.0256 H   0  0  0  0  0  0  0  0  0  0  0  0
   42.2993   32.3347   38.5423 H   0  0  0  0  0  0  0  0  0  0  0  0
   43.8977   30.8842   39.0067 H   0  0  0  0  0  0  0  0  0  0  0  0
   43.2489   28.6241   39.9222 H   0  0  0  0  0  0  0  0  0  0  0  0
   42.2232   30.4888   43.6263 H   0  0  0  0  0  0  0  0  0  0  0  0
  1 16  1  0
  1  5  1  0
  2  1  1  0
  3  2  1  0
  3  4  1  0
  4  5  1  0
  6  1  1  0
  6  7  2  0
  7  8  1  0
  9  8  2  0
 10  9  1  0
 11 10  2  0
 12 11  1  0
 13 12  2  0
 13 14  1  0
 14 15  2  0
 15 10  1  0
 15  6  1  0
 16 21  2  0
 17 18  2  0
 17 16  1  0
 18 19  1  0
 19 20  2  0
 21 20  1  0
  2 22  1  0
  2 23  1  0
  3 24  1  0
  3 25  1  0
  4 26  1  0
  4 27  1  0
  5 28  1  0
  5 29  1  0
  7 30  1  0
  8 31  1  0
  9 32  1  0
 11 33  1  0
 12 34  1  0
 13 35  1  0
 14 36  1  0
 17 37  1  0
 18 38  1  0
 20 39  1  0
M  ISO  8  22  13  23  13  24  13  25  13  26  13  27  13  28  13  29  13
M  ISO  8  30  14  31  14  32  14  33  14  34  14  35  14  36  14  37  14
M  ISO  2  38  14  39  14
M  END
>  <minimizedAffinity>  (1) 
-4.7046957

>  <minimizedRMSD>  (1) 
3.34573054

$$$$
