
     RDKit          3D

 30 32  0  0  0  0  0  0  0  0999 V2000
   45.1130   34.4780   41.9230 C   0  0  0  0  0  0  0  0  0  0  0  0
   44.1820   35.4620   41.3630 C   0  0  0  0  0  0  0  0  0  0  0  0
   42.9070   34.7300   40.9450 C   0  0  0  0  0  0  0  0  0  0  0  0
   43.0960   33.2920   41.3200 C   0  0  0  0  0  0  0  0  0  0  0  0
   44.5840   33.1210   41.4180 C   0  0  0  0  0  0  0  0  0  0  0  0
   45.1760   34.3510   43.3840 C   0  0  0  0  0  0  0  0  0  0  0  0
   44.6310   35.3700   44.1830 C   0  0  0  0  0  0  0  0  0  0  0  0
   44.6900   35.2570   45.5820 C   0  0  0  0  0  0  0  0  0  0  0  0
   45.2860   34.1400   46.0870 N   0  0  0  0  0  0  0  0  0  0  0  0
   45.8040   33.1730   45.2830 C   0  0  0  0  0  0  0  0  0  0  0  0
   45.7470   33.2820   43.9500 N   0  0  0  0  0  0  0  0  0  0  0  0
   46.4950   34.5890   41.3310 C   0  0  0  0  0  0  0  0  0  0  0  0
   46.8150   33.9630   40.1330 C   0  0  0  0  0  0  0  0  0  0  0  0
   48.1390   34.2840   39.9140 C   0  0  0  0  0  0  0  0  0  0  0  0
   48.5840   35.0570   40.9260 N   0  0  0  0  0  0  0  0  0  0  0  0
   47.5850   35.2380   41.7810 N   0  0  0  0  0  0  0  0  0  0  0  0
   43.9432   36.2222   42.1213 H   0  0  0  0  0  0  0  0  0  0  0  0
   44.6351   35.9619   40.4942 H   0  0  0  0  0  0  0  0  0  0  0  0
   42.7550   34.8222   39.8595 H   0  0  0  0  0  0  0  0  0  0  0  0
   42.0236   35.1567   41.4425 H   0  0  0  0  0  0  0  0  0  0  0  0
   42.6154   33.0757   42.2855 H   0  0  0  0  0  0  0  0  0  0  0  0
   42.6437   32.6063   40.5884 H   0  0  0  0  0  0  0  0  0  0  0  0
   44.8345   32.3202   42.1293 H   0  0  0  0  0  0  0  0  0  0  0  0
   45.0303   32.8384   40.4532 H   0  0  0  0  0  0  0  0  0  0  0  0
   44.1619   36.2491   43.7170 H   0  0  0  0  0  0  0  0  0  0  0  0
   44.2742   36.0344   46.2399 H   0  0  0  0  0  0  0  0  0  0  0  0
   46.2767   32.2884   45.7347 H   0  0  0  0  0  0  0  0  0  0  0  0
   46.1588   33.3480   39.4996 H   0  0  0  0  0  0  0  0  0  0  0  0
   48.7377   33.9603   39.0498 H   0  0  0  0  0  0  0  0  0  0  0  0
   49.5353   35.4407   41.0192 H   0  0  0  0  0  0  0  0  0  0  0  0
  1  6  1  0
  2  1  1  0
  3  4  1  0
  3  2  1  0
  4  5  1  0
  5  1  1  0
  6 11  1  0
  6  7  2  0
  7  8  1  0
  8  9  2  0
 10  9  1  0
 11 10  2  0
 12 16  2  0
 12  1  1  0
 13 12  1  0
 14 13  2  0
 14 15  1  0
 15 16  1  0
  2 17  1  0
  2 18  1  0
  3 19  1  0
  3 20  1  0
  4 21  1  0
  4 22  1  0
  5 23  1  0
  5 24  1  0
  7 25  1  0
  8 26  1  0
 10 27  1  0
 13 28  1  0
 14 29  1  0
 15 30  1  0
M  ISO  8  17  13  18  13  19  13  20  13  21  13  22  13  23  13  24  13
M  ISO  6  25  14  26  14  27  14  28  14  29  14  30   9
M  END
>  <minimizedAffinity>  (1) 
-4.70179796

>  <minimizedRMSD>  (1) 
4.18137646

$$$$
