
     RDKit          3D

 30 32  0  0  0  0  0  0  0  0999 V2000
   45.5560   34.7710   42.6560 C   0  0  0  0  0  0  0  0  0  0  0  0
   45.0700   36.0640   43.1370 C   0  0  0  0  0  0  0  0  0  0  0  0
   44.7750   35.9450   44.6340 C   0  0  0  0  0  0  0  0  0  0  0  0
   45.1470   34.5430   45.0320 C   0  0  0  0  0  0  0  0  0  0  0  0
   45.1150   33.7690   43.7430 C   0  0  0  0  0  0  0  0  0  0  0  0
   47.0120   34.6010   42.5330 C   0  0  0  0  0  0  0  0  0  0  0  0
   47.7710   35.5870   41.8870 C   0  0  0  0  0  0  0  0  0  0  0  0
   49.1500   35.4090   41.7830 C   0  0  0  0  0  0  0  0  0  0  0  0
   49.6930   34.2800   42.3190 N   0  0  0  0  0  0  0  0  0  0  0  0
   48.9440   33.3470   42.9340 C   0  0  0  0  0  0  0  0  0  0  0  0
   47.6310   33.5180   43.0320 N   0  0  0  0  0  0  0  0  0  0  0  0
   44.9400   34.3050   41.3900 C   0  0  0  0  0  0  0  0  0  0  0  0
   43.7920   34.7750   40.7930 C   0  0  0  0  0  0  0  0  0  0  0  0
   43.6540   34.0280   39.6630 C   0  0  0  0  0  0  0  0  0  0  0  0
   44.7070   33.1410   39.6090 C   0  0  0  0  0  0  0  0  0  0  0  0
   45.4580   33.3410   40.6660 O   0  0  0  0  0  0  0  0  0  0  0  0
   45.8373   36.8343   42.9700 H   0  0  0  0  0  0  0  0  0  0  0  0
   44.1568   36.3492   42.5942 H   0  0  0  0  0  0  0  0  0  0  0  0
   45.3762   36.6727   45.1989 H   0  0  0  0  0  0  0  0  0  0  0  0
   43.7162   36.1520   44.8487 H   0  0  0  0  0  0  0  0  0  0  0  0
   46.1529   34.5182   45.4764 H   0  0  0  0  0  0  0  0  0  0  0  0
   44.4659   34.1266   45.7888 H   0  0  0  0  0  0  0  0  0  0  0  0
   44.0983   33.4019   43.5391 H   0  0  0  0  0  0  0  0  0  0  0  0
   45.7708   32.8865   43.7779 H   0  0  0  0  0  0  0  0  0  0  0  0
   47.2882   36.4833   41.4704 H   0  0  0  0  0  0  0  0  0  0  0  0
   49.7812   36.1582   41.2828 H   0  0  0  0  0  0  0  0  0  0  0  0
   49.4170   32.4469   43.3536 H   0  0  0  0  0  0  0  0  0  0  0  0
   43.1309   35.5782   41.1506 H   0  0  0  0  0  0  0  0  0  0  0  0
   42.8445   34.1170   38.9235 H   0  0  0  0  0  0  0  0  0  0  0  0
   44.8863   32.3967   38.8192 H   0  0  0  0  0  0  0  0  0  0  0  0
  1  2  1  0
  1  5  1  0
  2  3  1  0
  3  4  1  0
  5  4  1  0
  6  1  1  0
  6 11  1  0
  7  6  2  0
  8  7  1  0
  8  9  2  0
  9 10  1  0
 10 11  2  0
 12  1  1  0
 13 12  2  0
 14 13  1  0
 15 14  2  0
 15 16  1  0
 16 12  1  0
  2 17  1  0
  2 18  1  0
  3 19  1  0
  3 20  1  0
  4 21  1  0
  4 22  1  0
  5 23  1  0
  5 24  1  0
  7 25  1  0
  8 26  1  0
 10 27  1  0
 13 28  1  0
 14 29  1  0
 15 30  1  0
M  ISO  8  17  13  18  13  19  13  20  13  21  13  22  13  23  13  24  13
M  ISO  6  25  14  26  14  27  14  28  14  29  14  30  14
M  END
>  <minimizedAffinity>  (1) 
-4.65829086

>  <minimizedRMSD>  (1) 
3.81139874

$$$$
