
     RDKit          3D

 36 38  0  0  0  0  0  0  0  0999 V2000
   46.1700   33.7950   42.1170 C   0  0  0  0  0  0  0  0  0  0  0  0
   45.6280   34.4370   40.9160 C   0  0  0  0  0  0  0  0  0  0  0  0
   44.5650   33.5100   40.3340 C   0  0  0  0  0  0  0  0  0  0  0  0
   44.3940   32.3630   41.2910 C   0  0  0  0  0  0  0  0  0  0  0  0
   45.6900   32.3200   42.0110 C   0  0  0  0  0  0  0  0  0  0  0  0
   45.6600   34.2670   43.4160 C   0  0  0  0  0  0  0  0  0  0  0  0
   44.9470   35.4810   43.4830 C   0  0  0  0  0  0  0  0  0  0  0  0
   44.4570   35.9300   44.7080 C   0  0  0  0  0  0  0  0  0  0  0  0
   44.7110   35.1340   45.7980 N   0  0  0  0  0  0  0  0  0  0  0  0
   45.4010   33.9700   45.7030 C   0  0  0  0  0  0  0  0  0  0  0  0
   45.8620   33.5530   44.5280 N   0  0  0  0  0  0  0  0  0  0  0  0
   47.5900   33.8320   42.2290 N   0  0  0  0  0  0  0  0  0  0  0  0
   48.2860   32.6370   41.9910 C   0  0  0  0  0  0  0  0  0  0  0  0
   49.7170   32.6730   42.4830 C   0  0  0  0  0  0  0  0  0  0  0  0
   50.3010   33.8580   42.0360 O   0  0  0  0  0  0  0  0  0  0  0  0
   49.6580   34.9510   42.6110 C   0  0  0  0  0  0  0  0  0  0  0  0
   48.2760   35.0250   41.9520 C   0  0  0  0  0  0  0  0  0  0  0  0
   45.1771   35.4051   41.1798 H   0  0  0  0  0  0  0  0  0  0  0  0
   46.4268   34.6164   40.1813 H   0  0  0  0  0  0  0  0  0  0  0  0
   43.6141   34.0517   40.2230 H   0  0  0  0  0  0  0  0  0  0  0  0
   44.8696   33.1453   39.3419 H   0  0  0  0  0  0  0  0  0  0  0  0
   43.5632   32.5515   41.9869 H   0  0  0  0  0  0  0  0  0  0  0  0
   44.1510   31.4159   40.7871 H   0  0  0  0  0  0  0  0  0  0  0  0
   45.5560   31.8886   43.0140 H   0  0  0  0  0  0  0  0  0  0  0  0
   46.4242   31.6942   41.4824 H   0  0  0  0  0  0  0  0  0  0  0  0
   44.7778   36.0724   42.5710 H   0  0  0  0  0  0  0  0  0  0  0  0
   43.8964   36.8722   44.7972 H   0  0  0  0  0  0  0  0  0  0  0  0
   45.5804   33.3666   46.6051 H   0  0  0  0  0  0  0  0  0  0  0  0
   47.7604   31.8180   42.5038 H   0  0  0  0  0  0  0  0  0  0  0  0
   48.3183   32.4886   40.9015 H   0  0  0  0  0  0  0  0  0  0  0  0
   49.7338   32.6410   43.5824 H   0  0  0  0  0  0  0  0  0  0  0  0
   50.2735   31.8059   42.0978 H   0  0  0  0  0  0  0  0  0  0  0  0
   49.5562   34.8065   43.6967 H   0  0  0  0  0  0  0  0  0  0  0  0
   50.2274   35.8795   42.4569 H   0  0  0  0  0  0  0  0  0  0  0  0
   48.3887   35.1451   40.8644 H   0  0  0  0  0  0  0  0  0  0  0  0
   47.7143   35.8848   42.3460 H   0  0  0  0  0  0  0  0  0  0  0  0
  1 12  1  0
  1  6  1  0
  2  1  1  0
  3  2  1  0
  3  4  1  0
  4  5  1  0
  5  1  1  0
  6  7  2  0
  6 11  1  0
  7  8  1  0
  8  9  2  0
 10  9  1  0
 11 10  2  0
 13 12  1  0
 13 14  1  0
 15 14  1  0
 15 16  1  0
 17 12  1  0
 17 16  1  0
  2 18  1  0
  2 19  1  0
  3 20  1  0
  3 21  1  0
  4 22  1  0
  4 23  1  0
  5 24  1  0
  5 25  1  0
  7 26  1  0
  8 27  1  0
 10 28  1  0
 13 29  1  0
 13 30  1  0
 14 31  1  0
 14 32  1  0
 16 33  1  0
 16 34  1  0
 17 35  1  0
 17 36  1  0
M  ISO  8  18  13  19  13  20  13  21  13  22  13  23  13  24  13  25  13
M  ISO  8  26  14  27  14  28  14  29  13  30  13  31  13  32  13  33  13
M  ISO  3  34  13  35  13  36  13
M  END
>  <minimizedAffinity>  (1) 
-4.51156473

>  <minimizedRMSD>  (1) 
4.82915735

$$$$
