
     RDKit          3D

 36 38  0  0  0  0  0  0  0  0999 V2000
   44.9700   33.6730   42.7400 C   0  0  0  0  0  0  0  0  0  0  0  0
   45.1160   35.0140   42.7950 C   0  0  0  0  0  0  0  0  0  0  0  0
   43.7540   35.6000   41.7330 S   0  0  0  0  0  0  0  0  0  0  0  0
   43.2070   33.8180   41.3930 C   0  0  0  0  0  0  0  0  0  0  0  0
   43.9910   33.2180   42.0140 N   0  0  0  0  0  0  0  0  0  0  0  0
   42.0640   33.6490   40.5300 N   0  0  0  0  0  0  0  0  0  0  0  0
   41.7270   34.5490   39.5130 C   0  0  0  0  0  0  0  0  0  0  0  0
   42.6920   35.2840   39.0400 N   0  0  0  0  0  0  0  0  0  0  0  0
   40.3380   34.5380   39.1260 N   0  0  0  0  0  0  0  0  0  0  0  0
   42.4290   35.9340   38.2630 H   0  0  0  0  0  0  0  0  0  0  0  0
   47.6610   31.1020   43.6140 C   0  0  0  0  0  0  0  0  0  0  0  0
   46.8150   31.9230   42.8600 C   0  0  0  0  0  0  0  0  0  0  0  0
   45.9030   32.7700   43.4860 C   0  0  0  0  0  0  0  0  0  0  0  0
   45.9210   32.7150   44.8290 N   0  0  0  0  0  0  0  0  0  0  0  0
   46.7100   31.9480   45.5680 C   0  0  0  0  0  0  0  0  0  0  0  0
   47.5710   31.1500   44.9560 N   0  0  0  0  0  0  0  0  0  0  0  0
   46.5960   32.0190   46.9680 N   0  0  0  0  0  0  0  0  0  0  0  0
   45.5000   32.6180   47.6830 C   0  0  0  0  0  0  0  0  0  0  0  0
   44.7640   31.5080   48.4250 C   0  0  0  0  0  0  0  0  0  0  0  0
   45.6640   30.5540   48.9000 O   0  0  0  0  0  0  0  0  0  0  0  0
   46.9060   31.0980   49.1640 C   0  0  0  0  0  0  0  0  0  0  0  0
   47.5860   31.4870   47.8600 C   0  0  0  0  0  0  0  0  0  0  0  0
   45.8664   35.6038   43.3418 H   0  0  0  0  0  0  0  0  0  0  0  0
   41.4647   32.8230   40.6695 H   0  0  0  0  0  0  0  0  0  0  0  0
   40.0051   35.1702   38.3841 H   0  0  0  0  0  0  0  0  0  0  0  0
   39.6787   33.8980   39.5915 H   0  0  0  0  0  0  0  0  0  0  0  0
   48.3824   30.4333   43.1216 H   0  0  0  0  0  0  0  0  0  0  0  0
   46.8706   31.8994   41.7617 H   0  0  0  0  0  0  0  0  0  0  0  0
   45.8821   33.3584   48.4012 H   0  0  0  0  0  0  0  0  0  0  0  0
   44.8204   33.1294   46.9854 H   0  0  0  0  0  0  0  0  0  0  0  0
   44.2162   31.9425   49.2742 H   0  0  0  0  0  0  0  0  0  0  0  0
   44.0645   31.0204   47.7301 H   0  0  0  0  0  0  0  0  0  0  0  0
   46.7868   31.9915   49.7944 H   0  0  0  0  0  0  0  0  0  0  0  0
   47.5242   30.3543   49.6882 H   0  0  0  0  0  0  0  0  0  0  0  0
   48.0543   30.6005   47.4075 H   0  0  0  0  0  0  0  0  0  0  0  0
   48.3629   32.2417   48.0521 H   0  0  0  0  0  0  0  0  0  0  0  0
  1  2  2  0
  1 13  1  0
  3  2  1  0
  4  3  1  0
  4  5  2  0
  5  1  1  0
  6  4  1  0
  7  6  1  0
  8  7  2  0
  9  7  1  0
 10  8  1  0
 11 16  2  0
 12 13  2  0
 12 11  1  0
 13 14  1  0
 14 15  2  0
 15 17  1  0
 16 15  1  0
 17 18  1  0
 17 22  1  0
 18 19  1  0
 19 20  1  0
 20 21  1  0
 22 21  1  0
  2 23  1  0
  6 24  1  0
  9 25  1  0
  9 26  1  0
 11 27  1  0
 12 28  1  0
 18 29  1  0
 18 30  1  0
 19 31  1  0
 19 32  1  0
 21 33  1  0
 21 34  1  0
 22 35  1  0
 22 36  1  0
M  ISO  8  23  14  27  14  28  14  29  13  30  13  31  13  32  13  33  13
M  ISO  3  34  13  35  13  36  13
M  END
>  <minimizedAffinity>  (1) 
-5.29446793

>  <minimizedRMSD>  (1) 
9.17341518

$$$$
