
     RDKit          3D

 30 32  0  0  0  0  0  0  0  0999 V2000
   45.0190   34.2840   42.7370 C   0  0  0  0  0  0  0  0  0  0  0  0
   45.0530   35.0510   43.9800 C   0  0  0  0  0  0  0  0  0  0  0  0
   45.4830   34.1070   45.1060 C   0  0  0  0  0  0  0  0  0  0  0  0
   45.7810   32.7830   44.4710 C   0  0  0  0  0  0  0  0  0  0  0  0
   44.9850   32.8060   43.1900 C   0  0  0  0  0  0  0  0  0  0  0  0
   46.1700   34.3850   41.8300 C   0  0  0  0  0  0  0  0  0  0  0  0
   47.2460   35.2070   42.1950 C   0  0  0  0  0  0  0  0  0  0  0  0
   48.3490   35.3100   41.3260 C   0  0  0  0  0  0  0  0  0  0  0  0
   48.2940   34.5890   40.1650 N   0  0  0  0  0  0  0  0  0  0  0  0
   47.2320   33.8030   39.8490 C   0  0  0  0  0  0  0  0  0  0  0  0
   46.1870   33.7080   40.6760 N   0  0  0  0  0  0  0  0  0  0  0  0
   43.8240   34.5210   41.9220 N   0  0  0  0  0  0  0  0  0  0  0  0
   42.9600   33.5600   41.6160 N   0  0  0  0  0  0  0  0  0  0  0  0
   41.9580   34.0090   40.8720 C   0  0  0  0  0  0  0  0  0  0  0  0
   42.1680   35.3560   40.6690 C   0  0  0  0  0  0  0  0  0  0  0  0
   43.3370   35.6170   41.3410 C   0  0  0  0  0  0  0  0  0  0  0  0
   45.7738   35.8770   43.8895 H   0  0  0  0  0  0  0  0  0  0  0  0
   44.0612   35.4755   44.1947 H   0  0  0  0  0  0  0  0  0  0  0  0
   46.3815   34.4981   45.6056 H   0  0  0  0  0  0  0  0  0  0  0  0
   44.6922   34.0117   45.8647 H   0  0  0  0  0  0  0  0  0  0  0  0
   46.8562   32.6828   44.2616 H   0  0  0  0  0  0  0  0  0  0  0  0
   45.5173   31.9337   45.1184 H   0  0  0  0  0  0  0  0  0  0  0  0
   43.9504   32.4785   43.3696 H   0  0  0  0  0  0  0  0  0  0  0  0
   45.3980   32.1268   42.4297 H   0  0  0  0  0  0  0  0  0  0  0  0
   47.2285   35.7621   43.1445 H   0  0  0  0  0  0  0  0  0  0  0  0
   49.2158   35.9418   41.5698 H   0  0  0  0  0  0  0  0  0  0  0  0
   47.2325   33.2399   38.9041 H   0  0  0  0  0  0  0  0  0  0  0  0
   41.1150   33.4159   40.4879 H   0  0  0  0  0  0  0  0  0  0  0  0
   41.5431   36.0599   40.0998 H   0  0  0  0  0  0  0  0  0  0  0  0
   43.8123   36.6077   41.3932 H   0  0  0  0  0  0  0  0  0  0  0  0
  1  5  1  0
  1  2  1  0
  2  3  1  0
  4  3  1  0
  5  4  1  0
  6  7  2  0
  6  1  1  0
  8  7  1  0
  9  8  2  0
 10  9  1  0
 10 11  2  0
 11  6  1  0
 12  1  1  0
 13 12  1  0
 14 13  2  0
 15 14  1  0
 15 16  2  0
 16 12  1  0
  2 17  1  0
  2 18  1  0
  3 19  1  0
  3 20  1  0
  4 21  1  0
  4 22  1  0
  5 23  1  0
  5 24  1  0
  7 25  1  0
  8 26  1  0
 10 27  1  0
 14 28  1  0
 15 29  1  0
 16 30  1  0
M  ISO  8  17  13  18  13  19  13  20  13  21  13  22  13  23  13  24  13
M  ISO  6  25  14  26  14  27  14  28  14  29  14  30  14
M  END
>  <minimizedAffinity>  (1) 
-4.44715357

>  <minimizedRMSD>  (1) 
3.60873556

$$$$
