
     RDKit          3D

 27 28  0  0  0  0  0  0  0  0999 V2000
   45.3800   34.4250   42.6690 C   0  0  0  0  0  0  0  0  0  0  0  0
   44.3640   33.4540   42.1870 C   0  0  0  0  0  0  0  0  0  0  0  0
   43.2300   34.2470   41.5710 C   0  0  0  0  0  0  0  0  0  0  0  0
   43.6400   35.6900   41.5930 C   0  0  0  0  0  0  0  0  0  0  0  0
   44.6580   35.7530   42.7130 C   0  0  0  0  0  0  0  0  0  0  0  0
   46.5510   34.6180   41.7840 C   0  0  0  0  0  0  0  0  0  0  0  0
   46.5970   33.9810   40.5390 C   0  0  0  0  0  0  0  0  0  0  0  0
   47.7230   34.1770   39.7420 C   0  0  0  0  0  0  0  0  0  0  0  0
   48.7270   34.9800   40.2140 N   0  0  0  0  0  0  0  0  0  0  0  0
   48.6470   35.5730   41.4150 C   0  0  0  0  0  0  0  0  0  0  0  0
   47.5720   35.3880   42.1780 N   0  0  0  0  0  0  0  0  0  0  0  0
   45.9070   34.1150   44.0350 C   0  0  0  0  0  0  0  0  0  0  0  0
   45.1020   34.6300   45.1720 C   0  0  0  0  0  0  0  0  0  0  0  0
   44.3070   35.3640   44.9060 H   0  0  0  0  0  0  0  0  0  0  0  0
   44.8092   32.7882   41.4330 H   0  0  0  0  0  0  0  0  0  0  0  0
   43.9959   32.8348   43.0183 H   0  0  0  0  0  0  0  0  0  0  0  0
   42.3095   34.1070   42.1568 H   0  0  0  0  0  0  0  0  0  0  0  0
   43.0304   33.9117   40.5426 H   0  0  0  0  0  0  0  0  0  0  0  0
   44.0918   35.9848   40.6344 H   0  0  0  0  0  0  0  0  0  0  0  0
   42.7919   36.3734   41.7468 H   0  0  0  0  0  0  0  0  0  0  0  0
   44.1565   35.8873   43.6828 H   0  0  0  0  0  0  0  0  0  0  0  0
   45.3490   36.6004   42.5928 H   0  0  0  0  0  0  0  0  0  0  0  0
   45.7676   33.3434   40.1990 H   0  0  0  0  0  0  0  0  0  0  0  0
   47.8037   33.6973   38.7554 H   0  0  0  0  0  0  0  0  0  0  0  0
   49.4695   36.2119   41.7690 H   0  0  0  0  0  0  0  0  0  0  0  0
   46.8331   33.5413   44.1875 H   0  0  0  0  0  0  0  0  0  0  0  0
   45.2791   34.3079   46.2088 H   0  0  0  0  0  0  0  0  0  0  0  0
  1  5  1  0
  1 12  1  0
  2  1  1  0
  3  4  1  0
  3  2  1  0
  4  5  1  0
  6 11  1  0
  6  1  1  0
  7  6  2  0
  8  9  2  0
  8  7  1  0
  9 10  1  0
 10 11  2  0
 12 13  2  0
 14 13  1  0
  2 15  1  0
  2 16  1  0
  3 17  1  0
  3 18  1  0
  4 19  1  0
  4 20  1  0
  5 21  1  0
  5 22  1  0
  7 23  1  0
  8 24  1  0
 10 25  1  0
 12 26  1  0
 13 27  1  0
M  ISO  8  15  13  16  13  17  13  18  13  19  13  20  13  21  13  22  13
M  ISO  3  23  14  24  14  25  14
M  END
>  <minimizedAffinity>  (1) 
-3.95861173

>  <minimizedRMSD>  (1) 
4.09690046

$$$$
