
     RDKit          3D

 30 32  0  0  0  0  0  0  0  0999 V2000
   45.6960   32.3250   43.2530 C   0  0  0  0  0  0  0  0  0  0  0  0
   46.5210   31.5530   44.1850 C   0  0  0  0  0  0  0  0  0  0  0  0
   47.9710   31.6330   43.7090 C   0  0  0  0  0  0  0  0  0  0  0  0
   48.0030   32.5710   42.5350 C   0  0  0  0  0  0  0  0  0  0  0  0
   46.5920   32.5100   42.0080 C   0  0  0  0  0  0  0  0  0  0  0  0
   45.3150   33.6910   43.6510 C   0  0  0  0  0  0  0  0  0  0  0  0
   45.1980   33.9840   45.0230 C   0  0  0  0  0  0  0  0  0  0  0  0
   44.8450   35.2750   45.4060 C   0  0  0  0  0  0  0  0  0  0  0  0
   44.6280   36.1930   44.4230 N   0  0  0  0  0  0  0  0  0  0  0  0
   44.7440   35.8910   43.1190 C   0  0  0  0  0  0  0  0  0  0  0  0
   45.0860   34.6510   42.7500 N   0  0  0  0  0  0  0  0  0  0  0  0
   44.4930   31.5210   42.8720 C   0  0  0  0  0  0  0  0  0  0  0  0
   44.2660   30.1520   42.7180 C   0  0  0  0  0  0  0  0  0  0  0  0
   42.9940   29.9510   42.3560 N   0  0  0  0  0  0  0  0  0  0  0  0
   42.4030   31.1780   42.2760 C   0  0  0  0  0  0  0  0  0  0  0  0
   43.3140   32.1170   42.5870 N   0  0  0  0  0  0  0  0  0  0  0  0
   46.4363   31.9758   45.1970 H   0  0  0  0  0  0  0  0  0  0  0  0
   46.1857   30.5058   44.2152 H   0  0  0  0  0  0  0  0  0  0  0  0
   48.6118   32.0176   44.5161 H   0  0  0  0  0  0  0  0  0  0  0  0
   48.3435   30.6381   43.4238 H   0  0  0  0  0  0  0  0  0  0  0  0
   48.2618   33.5919   42.8525 H   0  0  0  0  0  0  0  0  0  0  0  0
   48.7571   32.2958   41.7829 H   0  0  0  0  0  0  0  0  0  0  0  0
   46.3360   33.4432   41.4849 H   0  0  0  0  0  0  0  0  0  0  0  0
   46.4608   31.6918   41.2846 H   0  0  0  0  0  0  0  0  0  0  0  0
   45.3823   33.2065   45.7791 H   0  0  0  0  0  0  0  0  0  0  0  0
   44.7446   35.5451   46.4676 H   0  0  0  0  0  0  0  0  0  0  0  0
   44.5582   36.6615   42.3562 H   0  0  0  0  0  0  0  0  0  0  0  0
   45.0161   29.3620   42.8705 H   0  0  0  0  0  0  0  0  0  0  0  0
   41.3546   31.3678   42.0023 H   0  0  0  0  0  0  0  0  0  0  0  0
   43.1403   33.1321   42.6052 H   0  0  0  0  0  0  0  0  0  0  0  0
  1  6  1  0
  1  2  1  0
  3  2  1  0
  4  3  1  0
  5  4  1  0
  5  1  1  0
  6  7  2  0
  7  8  1  0
  9  8  2  0
 10  9  1  0
 11 10  2  0
 11  6  1  0
 12  1  1  0
 13 12  2  0
 14 13  1  0
 15 14  2  0
 15 16  1  0
 16 12  1  0
  2 17  1  0
  2 18  1  0
  3 19  1  0
  3 20  1  0
  4 21  1  0
  4 22  1  0
  5 23  1  0
  5 24  1  0
  7 25  1  0
  8 26  1  0
 10 27  1  0
 13 28  1  0
 15 29  1  0
 16 30  1  0
M  ISO  8  17  13  18  13  19  13  20  13  21  13  22  13  23  13  24  13
M  ISO  6  25  14  26  14  27  14  28  14  29  14  30   9
M  END
>  <minimizedAffinity>  (1) 
-3.72483373

>  <minimizedRMSD>  (1) 
4.79038763

$$$$
