
     RDKit          3D

 26 27  0  0  0  0  0  0  0  0999 V2000
   46.5450   34.4120   41.7960 C   0  0  0  0  0  0  0  0  0  0  0  0
   46.8870   34.0420   40.3970 C   0  0  0  0  0  0  0  0  0  0  0  0
   48.2440   34.6560   40.0820 C   0  0  0  0  0  0  0  0  0  0  0  0
   48.7240   35.3060   41.3430 C   0  0  0  0  0  0  0  0  0  0  0  0
   47.4540   35.5760   42.1240 C   0  0  0  0  0  0  0  0  0  0  0  0
   46.7880   33.3860   42.8200 C   0  0  0  0  0  0  0  0  0  0  0  0
   47.0270   32.0740   42.4140 C   0  0  0  0  0  0  0  0  0  0  0  0
   47.2310   31.0880   43.4160 C   0  0  0  0  0  0  0  0  0  0  0  0
   47.1770   31.5050   44.7260 N   0  0  0  0  0  0  0  0  0  0  0  0
   46.9400   32.8030   45.0600 C   0  0  0  0  0  0  0  0  0  0  0  0
   46.7500   33.7160   44.1140 N   0  0  0  0  0  0  0  0  0  0  0  0
   45.0960   34.9000   41.8840 C   0  0  0  0  0  0  0  0  0  0  0  0
   46.9378   32.9475   40.2993 H   0  0  0  0  0  0  0  0  0  0  0  0
   46.1217   34.4128   39.6992 H   0  0  0  0  0  0  0  0  0  0  0  0
   48.9500   33.8740   39.7658 H   0  0  0  0  0  0  0  0  0  0  0  0
   48.1677   35.3871   39.2636 H   0  0  0  0  0  0  0  0  0  0  0  0
   49.3901   34.6317   41.9012 H   0  0  0  0  0  0  0  0  0  0  0  0
   49.3058   36.2199   41.1527 H   0  0  0  0  0  0  0  0  0  0  0  0
   46.9981   36.5254   41.8065 H   0  0  0  0  0  0  0  0  0  0  0  0
   47.6414   35.6654   43.2042 H   0  0  0  0  0  0  0  0  0  0  0  0
   47.0568   31.8094   41.3467 H   0  0  0  0  0  0  0  0  0  0  0  0
   47.4238   30.0367   43.1559 H   0  0  0  0  0  0  0  0  0  0  0  0
   46.9056   33.0976   46.1192 H   0  0  0  0  0  0  0  0  0  0  0  0
   44.8056   34.9978   42.9404 H   0  0  0  0  0  0  0  0  0  0  0  0
   45.0075   35.8775   41.3874 H   0  0  0  0  0  0  0  0  0  0  0  0
   44.4342   34.1752   41.3874 H   0  0  0  0  0  0  0  0  0  0  0  0
  1 12  1  0
  1  5  1  0
  1  6  1  0
  2  1  1  0
  3  2  1  0
  3  4  1  0
  4  5  1  0
  6 11  1  0
  7  6  2  0
  7  8  1  0
  8  9  2  0
  9 10  1  0
 11 10  2  0
  2 13  1  0
  2 14  1  0
  3 15  1  0
  3 16  1  0
  4 17  1  0
  4 18  1  0
  5 19  1  0
  5 20  1  0
  7 21  1  0
  8 22  1  0
 10 23  1  0
 12 24  1  0
 12 25  1  0
 12 26  1  0
M  ISO  8  13  13  14  13  15  13  16  13  17  13  18  13  19  13  20  13
M  ISO  6  21  14  22  14  23  14  24   8  25   8  26   8
M  END
>  <minimizedAffinity>  (1) 
-3.57440734

>  <minimizedRMSD>  (1) 
2.28942323

$$$$
