
     RDKit          3D

 24 25  0  0  0  0  0  0  0  0999 V2000
   45.5040   33.8010   42.8940 C   0  0  0  0  0  0  0  0  0  0  0  0
   44.3790   34.1790   42.0430 C   0  0  0  0  0  0  0  0  0  0  0  0
   43.7600   35.4530   42.6190 C   0  0  0  0  0  0  0  0  0  0  0  0
   44.6030   35.8480   43.7900 C   0  0  0  0  0  0  0  0  0  0  0  0
   45.2760   34.5740   44.2110 C   0  0  0  0  0  0  0  0  0  0  0  0
   46.8560   34.1570   42.4610 C   0  0  0  0  0  0  0  0  0  0  0  0
   47.0540   34.5560   41.1320 C   0  0  0  0  0  0  0  0  0  0  0  0
   48.3450   34.9000   40.6990 C   0  0  0  0  0  0  0  0  0  0  0  0
   49.3470   34.8250   41.6130 N   0  0  0  0  0  0  0  0  0  0  0  0
   49.1170   34.4310   42.8990 C   0  0  0  0  0  0  0  0  0  0  0  0
   47.8860   34.1030   43.3130 N   0  0  0  0  0  0  0  0  0  0  0  0
   45.4500   32.0290   43.3670 S   0  0  0  0  0  0  0  0  0  0  0  0
   43.6313   33.3723   42.0321 H   0  0  0  0  0  0  0  0  0  0  0  0
   44.7203   34.3517   41.0117 H   0  0  0  0  0  0  0  0  0  0  0  0
   43.7633   36.2517   41.8627 H   0  0  0  0  0  0  0  0  0  0  0  0
   42.7160   35.2843   42.9216 H   0  0  0  0  0  0  0  0  0  0  0  0
   45.3472   36.6031   43.4970 H   0  0  0  0  0  0  0  0  0  0  0  0
   44.0109   36.2976   44.6007 H   0  0  0  0  0  0  0  0  0  0  0  0
   44.6299   33.9999   44.8915 H   0  0  0  0  0  0  0  0  0  0  0  0
   46.2143   34.7576   44.7550 H   0  0  0  0  0  0  0  0  0  0  0  0
   46.2051   34.5994   40.4338 H   0  0  0  0  0  0  0  0  0  0  0  0
   48.5366   35.2169   39.6632 H   0  0  0  0  0  0  0  0  0  0  0  0
   49.9568   34.3819   43.6078 H   0  0  0  0  0  0  0  0  0  0  0  0
   45.4467   31.9208   44.7327 H   0  0  0  0  0  0  0  0  0  0  0  0
  1 12  1  0
  1  5  1  0
  2  3  1  0
  2  1  1  0
  3  4  1  0
  4  5  1  0
  6  1  1  0
  6 11  1  0
  7  6  2  0
  8  7  1  0
  8  9  2  0
  9 10  1  0
 10 11  2  0
  2 13  1  0
  2 14  1  0
  3 15  1  0
  3 16  1  0
  4 17  1  0
  4 18  1  0
  5 19  1  0
  5 20  1  0
  7 21  1  0
  8 22  1  0
 10 23  1  0
 12 24  1  0
M  ISO  8  13  13  14  13  15  13  16  13  17  13  18  13  19  13  20  13
M  ISO  4  21  14  22  14  23  14  24  11
M  END
>  <minimizedAffinity>  (1) 
-3.57276821

>  <minimizedRMSD>  (1) 
4.13585234

$$$$
