
     RDKit          3D

 43 46  0  0  0  0  0  0  0  0999 V2000
   45.1340   34.2830   42.7030 C   0  0  0  0  0  0  0  0  0  0  0  0
   45.1670   34.8320   44.0660 C   0  0  0  0  0  0  0  0  0  0  0  0
   45.5440   33.7190   45.0340 C   0  0  0  0  0  0  0  0  0  0  0  0
   45.7630   32.4860   44.2130 C   0  0  0  0  0  0  0  0  0  0  0  0
   45.0440   32.7480   42.9450 C   0  0  0  0  0  0  0  0  0  0  0  0
   46.3120   34.4660   41.8510 C   0  0  0  0  0  0  0  0  0  0  0  0
   47.3690   35.2630   42.3050 C   0  0  0  0  0  0  0  0  0  0  0  0
   48.4920   35.4390   41.4930 C   0  0  0  0  0  0  0  0  0  0  0  0
   48.4940   34.8180   40.2900 N   0  0  0  0  0  0  0  0  0  0  0  0
   47.4450   34.0460   39.8770 C   0  0  0  0  0  0  0  0  0  0  0  0
   46.3680   33.8740   40.6520 N   0  0  0  0  0  0  0  0  0  0  0  0
   43.8960   34.6600   41.9810 C   0  0  0  0  0  0  0  0  0  0  0  0
   43.0510   35.7010   41.8560 C   0  0  0  0  0  0  0  0  0  0  0  0
   41.9630   35.6610   41.0530 C   0  0  0  0  0  0  0  0  0  0  0  0
   41.7510   34.4700   40.3480 C   0  0  0  0  0  0  0  0  0  0  0  0
   43.1420   33.4230   40.8640 S   0  0  0  0  0  0  0  0  0  0  0  0
   40.7470   34.1300   39.4670 N   0  0  0  0  0  0  0  0  0  0  0  0
   40.0550   33.0410   39.7470 C   0  0  0  0  0  0  0  0  0  0  0  0
   39.0170   32.6020   38.9260 C   0  0  0  0  0  0  0  0  0  0  0  0
   38.1980   31.3980   39.1680 C   0  0  0  0  0  0  0  0  0  0  0  0
   38.7840   33.3920   37.8190 C   0  0  0  0  0  0  0  0  0  0  0  0
   37.8730   33.1290   36.9710 O   0  0  0  0  0  0  0  0  0  0  0  0
   39.4940   34.5160   37.5240 N   0  0  0  0  0  0  0  0  0  0  0  0
   40.4850   34.8710   38.3750 C   0  0  0  0  0  0  0  0  0  0  0  0
   41.1950   35.8840   38.1960 O   0  0  0  0  0  0  0  0  0  0  0  0
   45.9127   35.6388   44.1217 H   0  0  0  0  0  0  0  0  0  0  0  0
   44.1792   35.2380   44.3295 H   0  0  0  0  0  0  0  0  0  0  0  0
   46.4654   33.9829   45.5739 H   0  0  0  0  0  0  0  0  0  0  0  0
   44.7516   33.5602   45.7802 H   0  0  0  0  0  0  0  0  0  0  0  0
   46.8356   32.3297   44.0259 H   0  0  0  0  0  0  0  0  0  0  0  0
   45.4000   31.5788   44.7183 H   0  0  0  0  0  0  0  0  0  0  0  0
   43.9925   32.4368   43.0317 H   0  0  0  0  0  0  0  0  0  0  0  0
   45.4859   32.1843   42.1101 H   0  0  0  0  0  0  0  0  0  0  0  0
   47.3160   35.7462   43.2918 H   0  0  0  0  0  0  0  0  0  0  0  0
   49.3413   36.0578   41.8183 H   0  0  0  0  0  0  0  0  0  0  0  0
   47.4866   33.5583   38.8919 H   0  0  0  0  0  0  0  0  0  0  0  0
   43.2530   36.6184   42.4283 H   0  0  0  0  0  0  0  0  0  0  0  0
   41.2809   36.5188   40.9589 H   0  0  0  0  0  0  0  0  0  0  0  0
   40.3036   32.4655   40.6508 H   0  0  0  0  0  0  0  0  0  0  0  0
   38.0902   31.2395   40.2512 H   0  0  0  0  0  0  0  0  0  0  0  0
   37.2041   31.5338   38.7166 H   0  0  0  0  0  0  0  0  0  0  0  0
   38.6894   30.5235   38.7166 H   0  0  0  0  0  0  0  0  0  0  0  0
   39.2848   35.0751   36.6847 H   0  0  0  0  0  0  0  0  0  0  0  0
  1  5  1  0
  1  2  1  0
  2  3  1  0
  4  3  1  0
  5  4  1  0
  6  7  2  0
  6  1  1  0
  8  7  1  0
  9  8  2  0
 10  9  1  0
 10 11  2  0
 11  6  1  0
 12  1  1  0
 13 12  2  0
 14 13  1  0
 15 16  1  0
 15 14  2  0
 16 12  1  0
 17 18  1  0
 17 15  1  0
 19 20  1  0
 19 18  2  0
 21 19  1  0
 22 21  2  0
 23 21  1  0
 23 24  1  0
 24 17  1  0
 25 24  2  0
  2 26  1  0
  2 27  1  0
  3 28  1  0
  3 29  1  0
  4 30  1  0
  4 31  1  0
  5 32  1  0
  5 33  1  0
  7 34  1  0
  8 35  1  0
 10 36  1  0
 13 37  1  0
 14 38  1  0
 18 39  1  0
 20 40  1  0
 20 41  1  0
 20 42  1  0
 23 43  1  0
M  ISO  8  26  13  27  13  28  13  29  13  30  13  31  13  32  13  33  13
M  ISO  8  34  14  35  14  36  14  37  14  38  14  39  14  40   8  41   8
M  ISO  2  42   8  43   9
M  END
>  <minimizedAffinity>  (1) 
-6.43572521

>  <minimizedRMSD>  (1) 
1.23331988

$$$$
