
     RDKit          3D

 40 43  0  0  0  0  0  0  0  0999 V2000
   45.2310   34.0980   42.7370 C   0  0  0  0  0  0  0  0  0  0  0  0
   45.2950   34.5190   44.1530 C   0  0  0  0  0  0  0  0  0  0  0  0
   45.7130   33.3180   44.9980 C   0  0  0  0  0  0  0  0  0  0  0  0
   45.9220   32.1670   44.0450 C   0  0  0  0  0  0  0  0  0  0  0  0
   45.1610   32.5460   42.8280 C   0  0  0  0  0  0  0  0  0  0  0  0
   46.3910   34.3970   41.8980 C   0  0  0  0  0  0  0  0  0  0  0  0
   47.4100   35.2130   42.3930 C   0  0  0  0  0  0  0  0  0  0  0  0
   48.5140   35.4890   41.5780 C   0  0  0  0  0  0  0  0  0  0  0  0
   48.5310   34.9390   40.3330 N   0  0  0  0  0  0  0  0  0  0  0  0
   47.5130   34.1420   39.8810 C   0  0  0  0  0  0  0  0  0  0  0  0
   46.4550   33.8760   40.6590 N   0  0  0  0  0  0  0  0  0  0  0  0
   43.9700   34.5300   42.0860 C   0  0  0  0  0  0  0  0  0  0  0  0
   43.2000   35.6320   41.9870 C   0  0  0  0  0  0  0  0  0  0  0  0
   42.0450   35.6410   41.2570 C   0  0  0  0  0  0  0  0  0  0  0  0
   41.7090   34.4390   40.6180 C   0  0  0  0  0  0  0  0  0  0  0  0
   43.0670   33.3000   41.0760 S   0  0  0  0  0  0  0  0  0  0  0  0
   40.6270   34.1640   39.8340 N   0  0  0  0  0  0  0  0  0  0  0  0
   39.4820   33.6800   40.3510 C   0  0  0  0  0  0  0  0  0  0  0  0
   38.3680   33.3890   39.5930 C   0  0  0  0  0  0  0  0  0  0  0  0
   38.5090   33.6320   38.2350 C   0  0  0  0  0  0  0  0  0  0  0  0
   37.6080   33.4330   37.3680 O   0  0  0  0  0  0  0  0  0  0  0  0
   39.6600   34.1200   37.7100 N   0  0  0  0  0  0  0  0  0  0  0  0
   40.7210   34.3860   38.5090 C   0  0  0  0  0  0  0  0  0  0  0  0
   41.7740   34.8370   37.9950 O   0  0  0  0  0  0  0  0  0  0  0  0
   46.0325   35.3272   44.2667 H   0  0  0  0  0  0  0  0  0  0  0  0
   44.3116   34.8864   44.4814 H   0  0  0  0  0  0  0  0  0  0  0  0
   46.6470   33.5394   45.5352 H   0  0  0  0  0  0  0  0  0  0  0  0
   44.9451   33.0759   45.7475 H   0  0  0  0  0  0  0  0  0  0  0  0
   46.9901   32.0442   43.8126 H   0  0  0  0  0  0  0  0  0  0  0  0
   45.5840   31.2091   44.4671 H   0  0  0  0  0  0  0  0  0  0  0  0
   44.1152   32.2160   42.9142 H   0  0  0  0  0  0  0  0  0  0  0  0
   45.5820   32.0727   41.9287 H   0  0  0  0  0  0  0  0  0  0  0  0
   47.3462   35.6325   43.4078 H   0  0  0  0  0  0  0  0  0  0  0  0
   49.3377   36.1270   41.9307 H   0  0  0  0  0  0  0  0  0  0  0  0
   47.5645   33.7156   38.8683 H   0  0  0  0  0  0  0  0  0  0  0  0
   43.5101   36.5496   42.5084 H   0  0  0  0  0  0  0  0  0  0  0  0
   41.4153   36.5392   41.1753 H   0  0  0  0  0  0  0  0  0  0  0  0
   39.4328   33.5075   41.4363 H   0  0  0  0  0  0  0  0  0  0  0  0
   37.4393   32.9947   40.0313 H   0  0  0  0  0  0  0  0  0  0  0  0
   39.7280   34.2897   36.6963 H   0  0  0  0  0  0  0  0  0  0  0  0
  1  5  1  0
  1  2  1  0
  2  3  1  0
  4  3  1  0
  5  4  1  0
  6  7  2  0
  6  1  1  0
  8  7  1  0
  9  8  2  0
 10  9  1  0
 10 11  2  0
 11  6  1  0
 12  1  1  0
 13 12  2  0
 14 13  1  0
 15 16  1  0
 15 14  2  0
 16 12  1  0
 17 18  1  0
 17 15  1  0
 19 18  2  0
 20 19  1  0
 21 20  2  0
 22 20  1  0
 22 23  1  0
 23 17  1  0
 24 23  2  0
  2 25  1  0
  2 26  1  0
  3 27  1  0
  3 28  1  0
  4 29  1  0
  4 30  1  0
  5 31  1  0
  5 32  1  0
  7 33  1  0
  8 34  1  0
 10 35  1  0
 13 36  1  0
 14 37  1  0
 18 38  1  0
 19 39  1  0
 22 40  1  0
M  ISO  8  25  13  26  13  27  13  28  13  29  13  30  13  31  13  32  13
M  ISO  8  33  14  34  14  35  14  36  14  37  14  38  14  39  14  40   9
M  END
>  <minimizedAffinity>  (1) 
-6.16346788

>  <minimizedRMSD>  (1) 
1.62222672

$$$$
