
     RDKit          3D

 41 44  0  0  0  0  0  0  0  0999 V2000
   45.2280   34.0930   42.7510 C   0  0  0  0  0  0  0  0  0  0  0  0
   45.2920   34.5060   44.1530 C   0  0  0  0  0  0  0  0  0  0  0  0
   45.7150   33.2900   44.9860 C   0  0  0  0  0  0  0  0  0  0  0  0
   45.9300   32.1580   44.0280 C   0  0  0  0  0  0  0  0  0  0  0  0
   45.1630   32.5470   42.8140 C   0  0  0  0  0  0  0  0  0  0  0  0
   46.4040   34.3970   41.9040 C   0  0  0  0  0  0  0  0  0  0  0  0
   47.4190   35.2120   42.3970 C   0  0  0  0  0  0  0  0  0  0  0  0
   48.5250   35.4920   41.5810 C   0  0  0  0  0  0  0  0  0  0  0  0
   48.5380   34.9390   40.3340 N   0  0  0  0  0  0  0  0  0  0  0  0
   47.5240   34.1420   39.8800 C   0  0  0  0  0  0  0  0  0  0  0  0
   46.4660   33.8740   40.6610 N   0  0  0  0  0  0  0  0  0  0  0  0
   43.9780   34.5430   42.1010 C   0  0  0  0  0  0  0  0  0  0  0  0
   43.2050   35.6420   41.9930 C   0  0  0  0  0  0  0  0  0  0  0  0
   42.0700   35.6520   41.2550 C   0  0  0  0  0  0  0  0  0  0  0  0
   41.7240   34.4580   40.6020 C   0  0  0  0  0  0  0  0  0  0  0  0
   43.0750   33.3180   41.0750 S   0  0  0  0  0  0  0  0  0  0  0  0
   40.6480   34.1740   39.8010 N   0  0  0  0  0  0  0  0  0  0  0  0
   40.7590   34.6100   38.5330 C   0  0  0  0  0  0  0  0  0  0  0  0
   39.7560   34.4050   37.5820 C   0  0  0  0  0  0  0  0  0  0  0  0
   38.6540   33.7130   38.0890 C   0  0  0  0  0  0  0  0  0  0  0  0
   37.5580   33.4370   37.2270 N   0  0  0  0  0  0  0  0  0  0  0  0
   38.5480   33.2800   39.3550 N   0  0  0  0  0  0  0  0  0  0  0  0
   39.5660   33.5210   40.2080 C   0  0  0  0  0  0  0  0  0  0  0  0
   39.4680   33.1150   41.3950 O   0  0  0  0  0  0  0  0  0  0  0  0
   46.0290   35.3140   44.2709 H   0  0  0  0  0  0  0  0  0  0  0  0
   44.3117   34.8763   44.4876 H   0  0  0  0  0  0  0  0  0  0  0  0
   46.6469   33.5087   45.5280 H   0  0  0  0  0  0  0  0  0  0  0  0
   44.9450   33.0353   45.7291 H   0  0  0  0  0  0  0  0  0  0  0  0
   46.9987   32.0450   43.7931 H   0  0  0  0  0  0  0  0  0  0  0  0
   45.6001   31.1929   44.4399 H   0  0  0  0  0  0  0  0  0  0  0  0
   44.1190   32.2106   42.8964 H   0  0  0  0  0  0  0  0  0  0  0  0
   45.5810   32.0870   41.9064 H   0  0  0  0  0  0  0  0  0  0  0  0
   47.3547   35.6306   43.4122 H   0  0  0  0  0  0  0  0  0  0  0  0
   49.3483   36.1314   41.9323 H   0  0  0  0  0  0  0  0  0  0  0  0
   47.5758   33.7171   38.8667 H   0  0  0  0  0  0  0  0  0  0  0  0
   43.5057   36.5591   42.5208 H   0  0  0  0  0  0  0  0  0  0  0  0
   41.4470   36.5547   41.1707 H   0  0  0  0  0  0  0  0  0  0  0  0
   41.6715   35.1468   38.2344 H   0  0  0  0  0  0  0  0  0  0  0  0
   39.8271   34.7529   36.5409 H   0  0  0  0  0  0  0  0  0  0  0  0
   36.7372   32.9277   37.5845 H   0  0  0  0  0  0  0  0  0  0  0  0
   37.5846   33.7463   36.2449 H   0  0  0  0  0  0  0  0  0  0  0  0
  1  5  1  0
  1  2  1  0
  2  3  1  0
  4  3  1  0
  5  4  1  0
  6  7  2  0
  6  1  1  0
  8  7  1  0
  9  8  2  0
 10  9  1  0
 10 11  2  0
 11  6  1  0
 12  1  1  0
 13 12  2  0
 14 13  1  0
 15 16  1  0
 15 14  2  0
 16 12  1  0
 17 23  1  0
 17 15  1  0
 18 17  1  0
 19 20  1  0
 19 18  2  0
 20 22  2  0
 21 20  1  0
 22 23  1  0
 23 24  2  0
  2 25  1  0
  2 26  1  0
  3 27  1  0
  3 28  1  0
  4 29  1  0
  4 30  1  0
  5 31  1  0
  5 32  1  0
  7 33  1  0
  8 34  1  0
 10 35  1  0
 13 36  1  0
 14 37  1  0
 18 38  1  0
 19 39  1  0
 21 40  1  0
 21 41  1  0
M  ISO  8  25  13  26  13  27  13  28  13  29  13  30  13  31  13  32  13
M  ISO  7  33  14  34  14  35  14  36  14  37  14  38  14  39  14
M  END
>  <minimizedAffinity>  (1) 
-6.12402487

>  <minimizedRMSD>  (1) 
1.32249558

$$$$
