
     RDKit          3D

 38 41  0  0  0  0  0  0  0  0999 V2000
   44.9880   34.3630   42.5770 C   0  0  0  0  0  0  0  0  0  0  0  0
   44.9950   35.0570   43.8690 C   0  0  0  0  0  0  0  0  0  0  0  0
   45.3590   34.0550   44.9590 C   0  0  0  0  0  0  0  0  0  0  0  0
   45.6120   32.7480   44.2690 C   0  0  0  0  0  0  0  0  0  0  0  0
   44.8920   32.8570   42.9630 C   0  0  0  0  0  0  0  0  0  0  0  0
   46.1920   34.4720   41.7400 C   0  0  0  0  0  0  0  0  0  0  0  0
   47.2830   35.2200   42.1870 C   0  0  0  0  0  0  0  0  0  0  0  0
   48.4230   35.3250   41.3970 C   0  0  0  0  0  0  0  0  0  0  0  0
   48.4070   34.6720   40.1990 N   0  0  0  0  0  0  0  0  0  0  0  0
   47.3220   33.9450   39.7860 C   0  0  0  0  0  0  0  0  0  0  0  0
   46.2300   33.8450   40.5460 N   0  0  0  0  0  0  0  0  0  0  0  0
   43.7640   34.6620   41.7950 C   0  0  0  0  0  0  0  0  0  0  0  0
   43.0720   35.7180   41.3210 C   0  0  0  0  0  0  0  0  0  0  0  0
   41.9320   35.5830   40.6060 C   0  0  0  0  0  0  0  0  0  0  0  0
   41.5020   34.2700   40.3820 C   0  0  0  0  0  0  0  0  0  0  0  0
   42.7630   33.2450   41.2130 S   0  0  0  0  0  0  0  0  0  0  0  0
   40.3460   33.7730   39.6720 C   0  0  0  0  0  0  0  0  0  0  0  0
   39.9990   34.3900   38.5030 C   0  0  0  0  0  0  0  0  0  0  0  0
   38.8700   33.8510   37.8780 C   0  0  0  0  0  0  0  0  0  0  0  0
   38.1910   32.8110   38.3920 N   0  0  0  0  0  0  0  0  0  0  0  0
   38.5660   32.2350   39.5430 C   0  0  0  0  0  0  0  0  0  0  0  0
   39.6500   32.7360   40.1650 N   0  0  0  0  0  0  0  0  0  0  0  0
   45.7371   35.8687   43.8493 H   0  0  0  0  0  0  0  0  0  0  0  0
   44.0022   35.4858   44.0699 H   0  0  0  0  0  0  0  0  0  0  0  0
   46.2632   34.3847   45.4916 H   0  0  0  0  0  0  0  0  0  0  0  0
   44.5518   33.9634   45.7006 H   0  0  0  0  0  0  0  0  0  0  0  0
   46.6895   32.5988   44.1057 H   0  0  0  0  0  0  0  0  0  0  0  0
   45.2631   31.8911   44.8640 H   0  0  0  0  0  0  0  0  0  0  0  0
   43.8409   32.5521   43.0739 H   0  0  0  0  0  0  0  0  0  0  0  0
   45.3289   32.2036   42.1935 H   0  0  0  0  0  0  0  0  0  0  0  0
   47.2410   35.7257   43.1629 H   0  0  0  0  0  0  0  0  0  0  0  0
   49.2972   35.9076   41.7230 H   0  0  0  0  0  0  0  0  0  0  0  0
   47.3515   33.4352   38.8117 H   0  0  0  0  0  0  0  0  0  0  0  0
   43.4503   36.7307   41.5243 H   0  0  0  0  0  0  0  0  0  0  0  0
   41.3766   36.4521   40.2238 H   0  0  0  0  0  0  0  0  0  0  0  0
   40.5609   35.2398   38.0882 H   0  0  0  0  0  0  0  0  0  0  0  0
   38.5253   34.2939   36.9320 H   0  0  0  0  0  0  0  0  0  0  0  0
   38.0089   31.3848   39.9636 H   0  0  0  0  0  0  0  0  0  0  0  0
  1  5  1  0
  1  2  1  0
  2  3  1  0
  4  3  1  0
  5  4  1  0
  6  7  2  0
  6  1  1  0
  8  7  1  0
  9  8  2  0
 10  9  1  0
 10 11  2  0
 11  6  1  0
 12  1  1  0
 13 12  2  0
 14 13  1  0
 15 14  2  0
 15 16  1  0
 16 12  1  0
 17 22  1  0
 17 15  1  0
 18 17  2  0
 19 20  2  0
 19 18  1  0
 20 21  1  0
 21 22  2  0
  2 23  1  0
  2 24  1  0
  3 25  1  0
  3 26  1  0
  4 27  1  0
  4 28  1  0
  5 29  1  0
  5 30  1  0
  7 31  1  0
  8 32  1  0
 10 33  1  0
 13 34  1  0
 14 35  1  0
 18 36  1  0
 19 37  1  0
 21 38  1  0
M  ISO  8  23  13  24  13  25  13  26  13  27  13  28  13  29  13  30  13
M  ISO  8  31  14  32  14  33  14  34  14  35  14  36  14  37  14  38  14
M  END
>  <minimizedAffinity>  (1) 
-5.71055174

>  <minimizedRMSD>  (1) 
0.790531874

$$$$
