
     RDKit          3D

 43 46  0  0  0  0  0  0  0  0999 V2000
   44.9150   34.6920   42.3900 C   0  0  0  0  0  0  0  0  0  0  0  0
   44.6410   35.7050   43.4150 C   0  0  0  0  0  0  0  0  0  0  0  0
   44.8930   35.0880   44.7950 C   0  0  0  0  0  0  0  0  0  0  0  0
   45.3870   33.6990   44.5510 C   0  0  0  0  0  0  0  0  0  0  0  0
   44.8940   33.3540   43.1850 C   0  0  0  0  0  0  0  0  0  0  0  0
   46.2300   34.7390   41.7410 C   0  0  0  0  0  0  0  0  0  0  0  0
   47.2850   35.4320   42.3370 C   0  0  0  0  0  0  0  0  0  0  0  0
   48.5290   35.4740   41.7160 C   0  0  0  0  0  0  0  0  0  0  0  0
   48.6510   34.8170   40.5260 N   0  0  0  0  0  0  0  0  0  0  0  0
   47.6050   34.1490   39.9670 C   0  0  0  0  0  0  0  0  0  0  0  0
   46.4100   34.1080   40.5620 N   0  0  0  0  0  0  0  0  0  0  0  0
   43.8320   34.6020   41.3940 C   0  0  0  0  0  0  0  0  0  0  0  0
   43.0270   35.3890   40.6520 C   0  0  0  0  0  0  0  0  0  0  0  0
   42.0970   34.9010   39.7980 C   0  0  0  0  0  0  0  0  0  0  0  0
   42.0090   33.5050   39.7230 C   0  0  0  0  0  0  0  0  0  0  0  0
   43.2840   32.9190   40.8970 S   0  0  0  0  0  0  0  0  0  0  0  0
   39.6040   31.0310   37.4420 C   0  0  0  0  0  0  0  0  0  0  0  0
   40.9860   30.8480   37.4190 C   0  0  0  0  0  0  0  0  0  0  0  0
   41.7790   31.6970   38.1990 C   0  0  0  0  0  0  0  0  0  0  0  0
   41.1700   32.6760   38.9550 C   0  0  0  0  0  0  0  0  0  0  0  0
   39.8050   32.8760   38.9930 C   0  0  0  0  0  0  0  0  0  0  0  0
   39.0060   32.0310   38.2150 C   0  0  0  0  0  0  0  0  0  0  0  0
   38.6120   29.9510   36.4510 S   0  0  0  0  0  0  0  0  0  0  0  0
   38.0380   30.6870   35.2730 O   0  0  0  0  0  0  0  0  0  0  0  0
   39.5350   28.8340   36.0050 O   0  0  0  0  0  0  0  0  0  0  0  0
   45.3060   36.5689   43.2687 H   0  0  0  0  0  0  0  0  0  0  0  0
   43.5964   36.0414   43.3398 H   0  0  0  0  0  0  0  0  0  0  0  0
   45.6500   35.6710   45.3401 H   0  0  0  0  0  0  0  0  0  0  0  0
   43.9771   35.0848   45.4042 H   0  0  0  0  0  0  0  0  0  0  0  0
   46.4860   33.6667   44.5861 H   0  0  0  0  0  0  0  0  0  0  0  0
   45.0291   32.9909   45.3129 H   0  0  0  0  0  0  0  0  0  0  0  0
   43.8715   32.9515   43.2348 H   0  0  0  0  0  0  0  0  0  0  0  0
   45.5167   32.5834   42.7070 H   0  0  0  0  0  0  0  0  0  0  0  0
   47.1326   35.9450   43.2980 H   0  0  0  0  0  0  0  0  0  0  0  0
   49.3768   36.0129   42.1642 H   0  0  0  0  0  0  0  0  0  0  0  0
   47.7468   33.6327   39.0061 H   0  0  0  0  0  0  0  0  0  0  0  0
   43.1310   36.4801   40.7451 H   0  0  0  0  0  0  0  0  0  0  0  0
   41.4504   35.5599   39.1999 H   0  0  0  0  0  0  0  0  0  0  0  0
   41.4408   30.0574   36.8041 H   0  0  0  0  0  0  0  0  0  0  0  0
   42.8732   31.5849   38.2089 H   0  0  0  0  0  0  0  0  0  0  0  0
   39.3617   33.6701   39.6118 H   0  0  0  0  0  0  0  0  0  0  0  0
   37.9128   32.1528   38.2115 H   0  0  0  0  0  0  0  0  0  0  0  0
   37.5440   29.4584   37.1537 H   0  0  0  0  0  0  0  0  0  0  0  0
  1  5  1  0
  1  2  1  0
  2  3  1  0
  4  3  1  0
  5  4  1  0
  6  7  2  0
  6  1  1  0
  8  7  1  0
  9  8  2  0
 10  9  1  0
 10 11  2  0
 11  6  1  0
 12  1  1  0
 13 12  2  0
 14 13  1  0
 15 14  2  0
 15 16  1  0
 16 12  1  0
 17 22  2  0
 18 17  1  0
 18 19  2  0
 19 20  1  0
 20 21  2  0
 20 15  1  0
 22 21  1  0
 23 17  1  0
 24 23  2  0
 25 23  2  0
  2 26  1  0
  2 27  1  0
  3 28  1  0
  3 29  1  0
  4 30  1  0
  4 31  1  0
  5 32  1  0
  5 33  1  0
  7 34  1  0
  8 35  1  0
 10 36  1  0
 13 37  1  0
 14 38  1  0
 18 39  1  0
 19 40  1  0
 21 41  1  0
 22 42  1  0
 23 43  1  0
M  ISO  8  26  13  27  13  28  13  29  13  30  13  31  13  32  13  33  13
M  ISO  8  34  14  35  14  36  14  37  14  38  14  39  14  40  14  41  14
M  ISO  2  42  14  43  11
M  END
>  <minimizedAffinity>  (1) 
-5.70004797

>  <minimizedRMSD>  (1) 
0.978485942

$$$$
