
     RDKit          3D

 36 39  0  0  0  0  0  0  0  0999 V2000
   45.0060   34.3750   42.6690 C   0  0  0  0  0  0  0  0  0  0  0  0
   45.0180   35.1070   43.9280 C   0  0  0  0  0  0  0  0  0  0  0  0
   45.4190   34.1360   45.0420 C   0  0  0  0  0  0  0  0  0  0  0  0
   45.6970   32.8130   44.3910 C   0  0  0  0  0  0  0  0  0  0  0  0
   44.9720   32.8780   43.0930 C   0  0  0  0  0  0  0  0  0  0  0  0
   46.2060   34.4870   41.8040 C   0  0  0  0  0  0  0  0  0  0  0  0
   47.2960   35.2460   42.2320 C   0  0  0  0  0  0  0  0  0  0  0  0
   48.4190   35.3500   41.4130 C   0  0  0  0  0  0  0  0  0  0  0  0
   48.3970   34.7010   40.2220 N   0  0  0  0  0  0  0  0  0  0  0  0
   47.3110   33.9640   39.8280 C   0  0  0  0  0  0  0  0  0  0  0  0
   46.2330   33.8610   40.6100 N   0  0  0  0  0  0  0  0  0  0  0  0
   43.7750   34.6160   41.8850 C   0  0  0  0  0  0  0  0  0  0  0  0
   43.0890   35.6350   41.3300 C   0  0  0  0  0  0  0  0  0  0  0  0
   41.9410   35.4370   40.6470 C   0  0  0  0  0  0  0  0  0  0  0  0
   41.4800   34.1150   40.5330 C   0  0  0  0  0  0  0  0  0  0  0  0
   42.7520   33.1670   41.4400 S   0  0  0  0  0  0  0  0  0  0  0  0
   40.3670   33.6070   39.9120 N   0  0  0  0  0  0  0  0  0  0  0  0
   39.1640   33.6680   40.5550 C   0  0  0  0  0  0  0  0  0  0  0  0
   38.2290   33.1040   39.7360 N   0  0  0  0  0  0  0  0  0  0  0  0
   38.8770   32.7070   38.6030 C   0  0  0  0  0  0  0  0  0  0  0  0
   40.1790   33.0200   38.7240 N   0  0  0  0  0  0  0  0  0  0  0  0
   45.7446   35.9310   43.8728 H   0  0  0  0  0  0  0  0  0  0  0  0
   44.0228   35.5290   44.1317 H   0  0  0  0  0  0  0  0  0  0  0  0
   46.3206   34.5014   45.5553 H   0  0  0  0  0  0  0  0  0  0  0  0
   44.6182   34.0448   45.7907 H   0  0  0  0  0  0  0  0  0  0  0  0
   46.7765   32.6792   44.2273 H   0  0  0  0  0  0  0  0  0  0  0  0
   45.3710   31.9647   45.0107 H   0  0  0  0  0  0  0  0  0  0  0  0
   43.9334   32.5372   43.2159 H   0  0  0  0  0  0  0  0  0  0  0  0
   45.4357   32.2297   42.3349 H   0  0  0  0  0  0  0  0  0  0  0  0
   47.2692   35.7570   43.2057 H   0  0  0  0  0  0  0  0  0  0  0  0
   49.2948   35.9393   41.7224 H   0  0  0  0  0  0  0  0  0  0  0  0
   47.3272   33.4506   38.8553 H   0  0  0  0  0  0  0  0  0  0  0  0
   43.4761   36.6591   41.4367 H   0  0  0  0  0  0  0  0  0  0  0  0
   41.3896   36.2764   40.1984 H   0  0  0  0  0  0  0  0  0  0  0  0
   38.9814   34.0944   41.5524 H   0  0  0  0  0  0  0  0  0  0  0  0
   38.4125   32.2139   37.7364 H   0  0  0  0  0  0  0  0  0  0  0  0
  1  5  1  0
  1  2  1  0
  2  3  1  0
  4  3  1  0
  5  4  1  0
  6  7  2  0
  6  1  1  0
  8  7  1  0
  9  8  2  0
 10  9  1  0
 10 11  2  0
 11  6  1  0
 12  1  1  0
 13 12  2  0
 14 13  1  0
 15 14  2  0
 15 16  1  0
 16 12  1  0
 17 15  1  0
 17 18  1  0
 19 18  2  0
 20 21  2  0
 20 19  1  0
 21 17  1  0
  2 22  1  0
  2 23  1  0
  3 24  1  0
  3 25  1  0
  4 26  1  0
  4 27  1  0
  5 28  1  0
  5 29  1  0
  7 30  1  0
  8 31  1  0
 10 32  1  0
 13 33  1  0
 14 34  1  0
 18 35  1  0
 20 36  1  0
M  ISO  8  22  13  23  13  24  13  25  13  26  13  27  13  28  13  29  13
M  ISO  7  30  14  31  14  32  14  33  14  34  14  35  14  36  14
M  END
>  <minimizedAffinity>  (1) 
-5.43748426

>  <minimizedRMSD>  (1) 
0.655524492

$$$$
