
     RDKit          3D

 37 40  0  0  0  0  0  0  0  0999 V2000
   45.0270   34.3760   42.6520 C   0  0  0  0  0  0  0  0  0  0  0  0
   45.0420   35.0890   43.9230 C   0  0  0  0  0  0  0  0  0  0  0  0
   45.4350   34.1070   45.0250 C   0  0  0  0  0  0  0  0  0  0  0  0
   45.6840   32.7890   44.3480 C   0  0  0  0  0  0  0  0  0  0  0  0
   44.9520   32.8750   43.0560 C   0  0  0  0  0  0  0  0  0  0  0  0
   46.2230   34.4820   41.7920 C   0  0  0  0  0  0  0  0  0  0  0  0
   47.3190   35.2390   42.2240 C   0  0  0  0  0  0  0  0  0  0  0  0
   48.4480   35.3370   41.4010 C   0  0  0  0  0  0  0  0  0  0  0  0
   48.4140   34.6800   40.2080 N   0  0  0  0  0  0  0  0  0  0  0  0
   47.3280   33.9510   39.8170 C   0  0  0  0  0  0  0  0  0  0  0  0
   46.2480   33.8540   40.5990 N   0  0  0  0  0  0  0  0  0  0  0  0
   43.7910   34.6430   41.8700 C   0  0  0  0  0  0  0  0  0  0  0  0
   43.1180   35.6860   41.3390 C   0  0  0  0  0  0  0  0  0  0  0  0
   41.9640   35.5340   40.6540 C   0  0  0  0  0  0  0  0  0  0  0  0
   41.4910   34.2220   40.5210 C   0  0  0  0  0  0  0  0  0  0  0  0
   42.7500   33.2100   41.4060 S   0  0  0  0  0  0  0  0  0  0  0  0
   40.3520   33.7170   39.8880 N   0  0  0  0  0  0  0  0  0  0  0  0
   40.2360   33.2630   38.6550 C   0  0  0  0  0  0  0  0  0  0  0  0
   38.8960   32.8870   38.5400 C   0  0  0  0  0  0  0  0  0  0  0  0
   38.2220   33.1190   39.7020 N   0  0  0  0  0  0  0  0  0  0  0  0
   39.1570   33.6440   40.5440 C   0  0  0  0  0  0  0  0  0  0  0  0
   45.7730   35.9098   43.8794 H   0  0  0  0  0  0  0  0  0  0  0  0
   44.0473   35.5102   44.1306 H   0  0  0  0  0  0  0  0  0  0  0  0
   46.3470   34.4516   45.5344 H   0  0  0  0  0  0  0  0  0  0  0  0
   44.6443   34.0224   45.7850 H   0  0  0  0  0  0  0  0  0  0  0  0
   46.7600   32.6412   44.1736 H   0  0  0  0  0  0  0  0  0  0  0  0
   45.3443   31.9400   44.9594 H   0  0  0  0  0  0  0  0  0  0  0  0
   43.9056   32.5601   43.1824 H   0  0  0  0  0  0  0  0  0  0  0  0
   45.3874   32.2176   42.2890 H   0  0  0  0  0  0  0  0  0  0  0  0
   47.2935   35.7503   43.1976 H   0  0  0  0  0  0  0  0  0  0  0  0
   49.3282   35.9219   41.7061 H   0  0  0  0  0  0  0  0  0  0  0  0
   47.3418   33.4362   38.8450 H   0  0  0  0  0  0  0  0  0  0  0  0
   43.5256   36.6994   41.4694 H   0  0  0  0  0  0  0  0  0  0  0  0
   41.4258   36.3920   40.2247 H   0  0  0  0  0  0  0  0  0  0  0  0
   41.0209   33.1955   37.8873 H   0  0  0  0  0  0  0  0  0  0  0  0
   38.4443   32.4603   37.6323 H   0  0  0  0  0  0  0  0  0  0  0  0
   38.9777   33.9577   41.5829 H   0  0  0  0  0  0  0  0  0  0  0  0
  1  5  1  0
  1  2  1  0
  2  3  1  0
  4  3  1  0
  5  4  1  0
  6  7  2  0
  6  1  1  0
  8  7  1  0
  9  8  2  0
 10  9  1  0
 10 11  2  0
 11  6  1  0
 12  1  1  0
 13 12  2  0
 14 13  1  0
 15 14  2  0
 15 16  1  0
 16 12  1  0
 17 15  1  0
 17 21  1  0
 18 17  1  0
 19 18  2  0
 19 20  1  0
 20 21  2  0
  2 22  1  0
  2 23  1  0
  3 24  1  0
  3 25  1  0
  4 26  1  0
  4 27  1  0
  5 28  1  0
  5 29  1  0
  7 30  1  0
  8 31  1  0
 10 32  1  0
 13 33  1  0
 14 34  1  0
 18 35  1  0
 19 36  1  0
 21 37  1  0
M  ISO  8  22  13  23  13  24  13  25  13  26  13  27  13  28  13  29  13
M  ISO  8  30  14  31  14  32  14  33  14  34  14  35  14  36  14  37  14
M  END
>  <minimizedAffinity>  (1) 
-5.43620586

>  <minimizedRMSD>  (1) 
0.733303726

$$$$
