
     RDKit          3D

 33 35  0  0  0  0  0  0  0  0999 V2000
   44.9570   34.5500   42.5250 C   0  0  0  0  0  0  0  0  0  0  0  0
   44.8160   35.4300   43.6910 C   0  0  0  0  0  0  0  0  0  0  0  0
   45.1570   34.6460   44.9500 C   0  0  0  0  0  0  0  0  0  0  0  0
   45.5150   33.2640   44.5010 C   0  0  0  0  0  0  0  0  0  0  0  0
   44.9070   33.1230   43.1480 C   0  0  0  0  0  0  0  0  0  0  0  0
   46.2070   34.6060   41.7690 C   0  0  0  0  0  0  0  0  0  0  0  0
   47.2800   35.3520   42.2610 C   0  0  0  0  0  0  0  0  0  0  0  0
   48.4700   35.3990   41.5250 C   0  0  0  0  0  0  0  0  0  0  0  0
   48.5160   34.7030   40.3530 N   0  0  0  0  0  0  0  0  0  0  0  0
   47.4570   33.9890   39.9050 C   0  0  0  0  0  0  0  0  0  0  0  0
   46.3100   33.9420   40.6070 N   0  0  0  0  0  0  0  0  0  0  0  0
   43.7820   34.6450   41.6240 C   0  0  0  0  0  0  0  0  0  0  0  0
   43.1070   35.5450   40.8840 C   0  0  0  0  0  0  0  0  0  0  0  0
   42.0140   35.2290   40.1520 C   0  0  0  0  0  0  0  0  0  0  0  0
   41.6130   33.8910   40.2070 C   0  0  0  0  0  0  0  0  0  0  0  0
   42.8240   33.0990   41.3180 S   0  0  0  0  0  0  0  0  0  0  0  0
   40.5280   33.2380   39.5700 C   0  0  0  0  0  0  0  0  0  0  0  0
   39.6930   32.6550   40.3060 O   0  0  0  0  0  0  0  0  0  0  0  0
   40.3970   33.2430   38.1900 O   0  0  0  0  0  0  0  0  0  0  0  0
   45.5012   36.2849   43.5924 H   0  0  0  0  0  0  0  0  0  0  0  0
   43.7820   35.8002   43.7533 H   0  0  0  0  0  0  0  0  0  0  0  0
   46.0086   35.1104   45.4688 H   0  0  0  0  0  0  0  0  0  0  0  0
   44.3109   34.6311   45.6528 H   0  0  0  0  0  0  0  0  0  0  0  0
   46.6074   33.1468   44.4471 H   0  0  0  0  0  0  0  0  0  0  0  0
   45.1477   32.4970   45.1987 H   0  0  0  0  0  0  0  0  0  0  0  0
   43.8671   32.7733   43.2273 H   0  0  0  0  0  0  0  0  0  0  0  0
   45.4438   32.3870   42.5315 H   0  0  0  0  0  0  0  0  0  0  0  0
   47.1915   35.8951   43.2135 H   0  0  0  0  0  0  0  0  0  0  0  0
   49.3367   35.9765   41.8792 H   0  0  0  0  0  0  0  0  0  0  0  0
   47.5350   33.4401   38.9549 H   0  0  0  0  0  0  0  0  0  0  0  0
   43.4610   36.5864   40.8742 H   0  0  0  0  0  0  0  0  0  0  0  0
   41.4753   35.9771   39.5519 H   0  0  0  0  0  0  0  0  0  0  0  0
   39.6321   32.7812   37.7637 H   0  0  0  0  0  0  0  0  0  0  0  0
  1  5  1  0
  1  2  1  0
  2  3  1  0
  4  3  1  0
  5  4  1  0
  6  7  2  0
  6  1  1  0
  8  7  1  0
  9  8  2  0
 10  9  1  0
 10 11  2  0
 11  6  1  0
 12  1  1  0
 13 12  2  0
 14 15  2  0
 14 13  1  0
 15 16  1  0
 16 12  1  0
 17 15  1  0
 17 18  2  0
 19 17  1  0
  2 20  1  0
  2 21  1  0
  3 22  1  0
  3 23  1  0
  4 24  1  0
  4 25  1  0
  5 26  1  0
  5 27  1  0
  7 28  1  0
  8 29  1  0
 10 30  1  0
 13 31  1  0
 14 32  1  0
 19 33  1  0
M  ISO  8  20  13  21  13  22  13  23  13  24  13  25  13  26  13  27  13
M  ISO  6  28  14  29  14  30  14  31  14  32  14  33   3
M  END
>  <minimizedAffinity>  (1) 
-4.97040033

>  <minimizedRMSD>  (1) 
0.169631064

$$$$
