
     RDKit          3D

 31 33  0  0  0  0  0  0  0  0999 V2000
   44.9140   34.5350   42.4980 C   0  0  0  0  0  0  0  0  0  0  0  0
   44.8100   35.4330   43.6470 C   0  0  0  0  0  0  0  0  0  0  0  0
   45.1710   34.6570   44.9120 C   0  0  0  0  0  0  0  0  0  0  0  0
   45.5050   33.2620   44.4720 C   0  0  0  0  0  0  0  0  0  0  0  0
   44.8770   33.1180   43.1260 C   0  0  0  0  0  0  0  0  0  0  0  0
   46.1690   34.5790   41.7180 C   0  0  0  0  0  0  0  0  0  0  0  0
   47.2540   35.3220   42.1990 C   0  0  0  0  0  0  0  0  0  0  0  0
   48.4350   35.3510   41.4420 C   0  0  0  0  0  0  0  0  0  0  0  0
   48.4620   34.6520   40.2720 N   0  0  0  0  0  0  0  0  0  0  0  0
   47.3740   33.9390   39.8410 C   0  0  0  0  0  0  0  0  0  0  0  0
   46.2500   33.9110   40.5600 N   0  0  0  0  0  0  0  0  0  0  0  0
   43.7380   34.6330   41.6110 C   0  0  0  0  0  0  0  0  0  0  0  0
   43.0780   35.5450   40.8680 C   0  0  0  0  0  0  0  0  0  0  0  0
   41.9750   35.2330   40.1490 C   0  0  0  0  0  0  0  0  0  0  0  0
   41.5400   33.9040   40.2120 C   0  0  0  0  0  0  0  0  0  0  0  0
   42.7590   33.1040   41.3310 S   0  0  0  0  0  0  0  0  0  0  0  0
   40.1900   33.1450   39.4410 S   0  0  0  0  0  0  0  0  0  0  0  0
   45.5037   36.2772   43.5205 H   0  0  0  0  0  0  0  0  0  0  0  0
   43.7838   35.8211   43.7265 H   0  0  0  0  0  0  0  0  0  0  0  0
   46.0387   35.1180   45.4066 H   0  0  0  0  0  0  0  0  0  0  0  0
   44.3398   34.6598   45.6325 H   0  0  0  0  0  0  0  0  0  0  0  0
   46.5949   33.1284   44.4059 H   0  0  0  0  0  0  0  0  0  0  0  0
   45.1364   32.5067   45.1817 H   0  0  0  0  0  0  0  0  0  0  0  0
   43.8389   32.7669   43.2217 H   0  0  0  0  0  0  0  0  0  0  0  0
   45.4082   32.3821   42.5044 H   0  0  0  0  0  0  0  0  0  0  0  0
   47.1821   35.8709   43.1495 H   0  0  0  0  0  0  0  0  0  0  0  0
   49.3124   35.9205   41.7823 H   0  0  0  0  0  0  0  0  0  0  0  0
   47.4276   33.3841   38.8927 H   0  0  0  0  0  0  0  0  0  0  0  0
   43.4499   36.5800   40.8458 H   0  0  0  0  0  0  0  0  0  0  0  0
   41.4468   35.9858   39.5454 H   0  0  0  0  0  0  0  0  0  0  0  0
   39.3319   32.6625   40.3938 H   0  0  0  0  0  0  0  0  0  0  0  0
  1  5  1  0
  1  2  1  0
  2  3  1  0
  4  3  1  0
  5  4  1  0
  6  7  2  0
  6  1  1  0
  8  7  1  0
  9  8  2  0
 10  9  1  0
 10 11  2  0
 11  6  1  0
 12  1  1  0
 13 12  2  0
 14 15  2  0
 14 13  1  0
 15 16  1  0
 16 12  1  0
 17 15  1  0
  2 18  1  0
  2 19  1  0
  3 20  1  0
  3 21  1  0
  4 22  1  0
  4 23  1  0
  5 24  1  0
  5 25  1  0
  7 26  1  0
  8 27  1  0
 10 28  1  0
 13 29  1  0
 14 30  1  0
 17 31  1  0
M  ISO  8  18  13  19  13  20  13  21  13  22  13  23  13  24  13  25  13
M  ISO  6  26  14  27  14  28  14  29  14  30  14  31  11
M  END
>  <minimizedAffinity>  (1) 
-4.79572773

>  <minimizedRMSD>  (1) 
0.150725037

$$$$
