
     RDKit          3D

 32 34  0  0  0  0  0  0  0  0999 V2000
   44.9550   34.5610   42.5310 C   0  0  0  0  0  0  0  0  0  0  0  0
   44.8150   35.4390   43.6880 C   0  0  0  0  0  0  0  0  0  0  0  0
   45.1580   34.6440   44.9480 C   0  0  0  0  0  0  0  0  0  0  0  0
   45.5130   33.2570   44.4980 C   0  0  0  0  0  0  0  0  0  0  0  0
   44.9130   33.1330   43.1520 C   0  0  0  0  0  0  0  0  0  0  0  0
   46.2090   34.6100   41.7660 C   0  0  0  0  0  0  0  0  0  0  0  0
   47.2810   35.3540   42.2570 C   0  0  0  0  0  0  0  0  0  0  0  0
   48.4700   35.3960   41.5220 C   0  0  0  0  0  0  0  0  0  0  0  0
   48.5170   34.7010   40.3550 N   0  0  0  0  0  0  0  0  0  0  0  0
   47.4540   33.9880   39.9060 C   0  0  0  0  0  0  0  0  0  0  0  0
   46.3110   33.9400   40.6030 N   0  0  0  0  0  0  0  0  0  0  0  0
   43.7820   34.6460   41.6250 C   0  0  0  0  0  0  0  0  0  0  0  0
   43.1080   35.5440   40.8830 C   0  0  0  0  0  0  0  0  0  0  0  0
   42.0190   35.2300   40.1450 C   0  0  0  0  0  0  0  0  0  0  0  0
   41.6140   33.8940   40.1890 C   0  0  0  0  0  0  0  0  0  0  0  0
   42.8250   33.1060   41.3070 S   0  0  0  0  0  0  0  0  0  0  0  0
   40.5600   33.1790   39.5840 C   0  0  0  0  0  0  0  0  0  0  0  0
   40.3760   33.3480   38.3490 O   0  0  0  0  0  0  0  0  0  0  0  0
   45.5014   36.2930   43.5903 H   0  0  0  0  0  0  0  0  0  0  0  0
   43.7836   35.8162   43.7508 H   0  0  0  0  0  0  0  0  0  0  0  0
   46.0117   35.1047   45.4665 H   0  0  0  0  0  0  0  0  0  0  0  0
   44.3108   34.6283   45.6494 H   0  0  0  0  0  0  0  0  0  0  0  0
   46.6049   33.1329   44.4488 H   0  0  0  0  0  0  0  0  0  0  0  0
   45.1424   32.4874   45.1910 H   0  0  0  0  0  0  0  0  0  0  0  0
   43.8742   32.7793   43.2275 H   0  0  0  0  0  0  0  0  0  0  0  0
   45.4599   32.4074   42.5320 H   0  0  0  0  0  0  0  0  0  0  0  0
   47.1929   35.8997   43.2080 H   0  0  0  0  0  0  0  0  0  0  0  0
   49.3376   35.9719   41.8763 H   0  0  0  0  0  0  0  0  0  0  0  0
   47.5317   33.4408   38.9549 H   0  0  0  0  0  0  0  0  0  0  0  0
   43.4606   36.5859   40.8764 H   0  0  0  0  0  0  0  0  0  0  0  0
   41.4842   35.9818   39.5460 H   0  0  0  0  0  0  0  0  0  0  0  0
   39.9223   32.4992   40.1682 H   0  0  0  0  0  0  0  0  0  0  0  0
  1  5  1  0
  1  2  1  0
  2  3  1  0
  4  3  1  0
  5  4  1  0
  6  7  2  0
  6  1  1  0
  8  7  1  0
  9  8  2  0
 10  9  1  0
 10 11  2  0
 11  6  1  0
 12  1  1  0
 13 12  2  0
 14 15  2  0
 14 13  1  0
 15 16  1  0
 16 12  1  0
 17 15  1  0
 18 17  2  0
  2 19  1  0
  2 20  1  0
  3 21  1  0
  3 22  1  0
  4 23  1  0
  4 24  1  0
  5 25  1  0
  5 26  1  0
  7 27  1  0
  8 28  1  0
 10 29  1  0
 13 30  1  0
 14 31  1  0
 17 32  1  0
M  ISO  8  19  13  20  13  21  13  22  13  23  13  24  13  25  13  26  13
M  ISO  6  27  14  28  14  29  14  30  14  31  14  32   6
M  END
>  <minimizedAffinity>  (1) 
-4.77850533

>  <minimizedRMSD>  (1) 
0.157582536

$$$$
