
     RDKit          3D

 46 49  0  0  1  0  0  0  0  0999 V2000
   49.2430   30.4710   43.3470 C   0  0  0  0  0  0  0  0  0  0  0  0
   48.5440   31.5960   42.8980 C   0  0  0  0  0  0  0  0  0  0  0  0
   47.4280   32.0520   43.5800 C   0  0  0  0  0  0  0  0  0  0  0  0
   47.0930   31.3400   44.6760 N   0  0  0  0  0  0  0  0  0  0  0  0
   47.7370   30.2730   45.1210 C   0  0  0  0  0  0  0  0  0  0  0  0
   48.8100   29.8430   44.4550 N   0  0  0  0  0  0  0  0  0  0  0  0
   47.2560   29.6370   46.2900 N   0  0  0  0  0  0  0  0  0  0  0  0
   45.9640   29.8340   46.8670 C   0  0  0  0  0  0  0  0  0  0  0  0
   45.1840   28.5220   46.7140 C   0  0  0  0  0  0  0  0  0  0  0  0
   46.0360   27.4250   46.8690 O   0  0  0  0  0  0  0  0  0  0  0  0
   47.0780   27.7120   47.7130 C   0  0  0  0  0  0  0  0  0  0  0  0
   48.0340   28.7000   47.0400 C   0  0  2  0  0  0  0  0  0  0  0  0
   46.6280   33.2520   43.1590 C   0  0  0  0  0  0  0  0  0  0  0  0
   47.2000   34.4390   42.9350 C   0  0  0  0  0  0  0  0  0  0  0  0
   45.7850   35.4910   42.4670 S   0  0  0  0  0  0  0  0  0  0  0  0
   44.5960   34.0420   42.6740 C   0  0  0  0  0  0  0  0  0  0  0  0
   45.3390   33.1980   42.9940 N   0  0  0  0  0  0  0  0  0  0  0  0
   43.2080   34.3120   42.4110 N   0  0  0  0  0  0  0  0  0  0  0  0
   42.7580   35.2670   41.5050 C   0  0  0  0  0  0  0  0  0  0  0  0
   43.5810   35.5850   40.5550 N   0  0  0  0  0  0  0  0  0  0  0  0
   41.4380   35.7790   41.7370 N   0  0  0  0  0  0  0  0  0  0  0  0
   43.2480   36.3170   39.8710 H   0  0  0  0  0  0  0  0  0  0  0  0
   48.9430   29.3070   48.0420 C   0  0  0  0  0  0  0  0  0  0  0  0
   50.2400   28.9320   48.3020 C   0  0  0  0  0  0  0  0  0  0  0  0
   51.0090   29.5600   49.2600 C   0  0  0  0  0  0  0  0  0  0  0  0
   50.4760   30.6130   50.0010 C   0  0  0  0  0  0  0  0  0  0  0  0
   49.1800   31.0250   49.7750 C   0  0  0  0  0  0  0  0  0  0  0  0
   48.4500   30.3650   48.8070 C   0  0  0  0  0  0  0  0  0  0  0  0
   50.1286   30.1072   42.8053 H   0  0  0  0  0  0  0  0  0  0  0  0
   48.8837   32.1237   41.9946 H   0  0  0  0  0  0  0  0  0  0  0  0
   46.0637   30.0893   47.9323 H   0  0  0  0  0  0  0  0  0  0  0  0
   45.4372   30.6581   46.3637 H   0  0  0  0  0  0  0  0  0  0  0  0
   44.3951   28.4786   47.4793 H   0  0  0  0  0  0  0  0  0  0  0  0
   44.7393   28.4877   45.7085 H   0  0  0  0  0  0  0  0  0  0  0  0
   46.6856   28.1570   48.6393 H   0  0  0  0  0  0  0  0  0  0  0  0
   47.6208   26.7846   47.9480 H   0  0  0  0  0  0  0  0  0  0  0  0
   48.7033   28.1951   46.3278 H   0  0  0  0  0  0  0  0  0  0  0  0
   48.2622   34.7139   43.0135 H   0  0  0  0  0  0  0  0  0  0  0  0
   42.5035   33.7643   42.9254 H   0  0  0  0  0  0  0  0  0  0  0  0
   41.0424   36.4889   41.1042 H   0  0  0  0  0  0  0  0  0  0  0  0
   40.8860   35.4367   42.5364 H   0  0  0  0  0  0  0  0  0  0  0  0
   50.6793   28.1035   47.7269 H   0  0  0  0  0  0  0  0  0  0  0  0
   52.0428   29.2295   49.4389 H   0  0  0  0  0  0  0  0  0  0  0  0
   51.0883   31.1145   50.7649 H   0  0  0  0  0  0  0  0  0  0  0  0
   48.7409   31.8545   50.3486 H   0  0  0  0  0  0  0  0  0  0  0  0
   47.4156   30.6933   48.6275 H   0  0  0  0  0  0  0  0  0  0  0  0
  1  6  2  0
  2  1  1  0
  2  3  2  0
  3  4  1  0
  4  5  2  0
  5  7  1  0
  6  5  1  0
  7  8  1  0
  7 12  1  0
  9  8  1  0
  9 10  1  0
 10 11  1  0
 12 11  1  0
 12 23  1  0
 13  3  1  0
 14 13  2  0
 15 16  1  0
 15 14  1  0
 16 17  2  0
 17 13  1  0
 18 16  1  0
 19 21  1  0
 19 18  1  0
 20 19  2  0
 22 20  1  0
 23 24  2  0
 23 28  1  0
 24 25  1  0
 25 26  2  0
 27 26  1  0
 28 27  2  0
  1 29  1  0
  2 30  1  0
  8 31  1  0
  8 32  1  0
  9 33  1  0
  9 34  1  0
 11 35  1  0
 11 36  1  0
 12 37  1  6
 14 38  1  0
 18 39  1  0
 21 40  1  0
 21 41  1  0
 24 42  1  0
 25 43  1  0
 26 44  1  0
 27 45  1  0
 28 46  1  0
M  ISO  8  29  14  30  14  31  13  32  13  33  13  34  13  35  13  36  13
M  ISO  7  37  13  38  14  42  14  43  14  44  14  45  14  46  14
M  END
>  <minimizedAffinity>  (1) 
-5.63986492

>  <minimizedRMSD>  (1) 
2.73181033

$$$$
