
     RDKit          3D

 35 38  0  0  0  0  0  0  0  0999 V2000
   44.5390   35.7850   44.6630 C   0  0  0  0  0  0  0  0  0  0  0  0
   45.2970   35.7720   43.4650 C   0  0  0  0  0  0  0  0  0  0  0  0
   46.2810   34.7820   43.3270 C   0  0  0  0  0  0  0  0  0  0  0  0
   46.4570   33.8900   44.3440 N   0  0  0  0  0  0  0  0  0  0  0  0
   45.7160   33.9370   45.4680 C   0  0  0  0  0  0  0  0  0  0  0  0
   44.7670   34.8730   45.6290 N   0  0  0  0  0  0  0  0  0  0  0  0
   45.9460   32.9780   46.4950 N   0  0  0  0  0  0  0  0  0  0  0  0
   46.9700   31.9840   46.2970 C   0  0  0  0  0  0  0  0  0  0  0  0
   46.4380   30.5760   46.5740 C   0  0  0  0  0  0  0  0  0  0  0  0
   45.0430   30.7080   46.9430 N   0  0  0  0  0  0  0  0  0  0  0  0
   44.9750   31.5190   48.1370 C   0  0  0  0  0  0  0  0  0  0  0  0
   45.2020   32.9630   47.7150 C   0  0  0  0  0  0  0  0  0  0  0  0
   47.0310   34.7750   42.1280 N   0  0  0  0  0  0  0  0  0  0  0  0
   48.2010   35.4150   41.9360 C   0  0  0  0  0  0  0  0  0  0  0  0
   48.6530   35.2010   40.6690 N   0  0  0  0  0  0  0  0  0  0  0  0
   47.7340   34.4110   40.0790 C   0  0  0  0  0  0  0  0  0  0  0  0
   47.6870   33.8850   38.7950 C   0  0  0  0  0  0  0  0  0  0  0  0
   46.6290   33.1140   38.4700 N   0  0  0  0  0  0  0  0  0  0  0  0
   45.6430   32.8610   39.3730 C   0  0  0  0  0  0  0  0  0  0  0  0
   45.6440   33.3500   40.6350 N   0  0  0  0  0  0  0  0  0  0  0  0
   46.7060   34.1330   40.9810 C   0  0  0  0  0  0  0  0  0  0  0  0
   43.7578   36.5462   44.8055 H   0  0  0  0  0  0  0  0  0  0  0  0
   45.1196   36.5126   42.6713 H   0  0  0  0  0  0  0  0  0  0  0  0
   47.3232   32.0355   45.2565 H   0  0  0  0  0  0  0  0  0  0  0  0
   47.7931   32.1886   46.9975 H   0  0  0  0  0  0  0  0  0  0  0  0
   46.5316   29.9538   45.6717 H   0  0  0  0  0  0  0  0  0  0  0  0
   47.0106   30.0947   47.3805 H   0  0  0  0  0  0  0  0  0  0  0  0
   44.5207   31.1629   46.1806 H   0  0  0  0  0  0  0  0  0  0  0  0
   43.9860   31.4150   48.6072 H   0  0  0  0  0  0  0  0  0  0  0  0
   45.7341   31.2022   48.8674 H   0  0  0  0  0  0  0  0  0  0  0  0
   45.7657   33.4920   48.4976 H   0  0  0  0  0  0  0  0  0  0  0  0
   44.2341   33.4642   47.5670 H   0  0  0  0  0  0  0  0  0  0  0  0
   48.7171   36.0230   42.6936 H   0  0  0  0  0  0  0  0  0  0  0  0
   48.4858   34.0901   38.0671 H   0  0  0  0  0  0  0  0  0  0  0  0
   44.8010   32.2257   39.0609 H   0  0  0  0  0  0  0  0  0  0  0  0
  1  6  2  0
  2  1  1  0
  3  2  2  0
  3  4  1  0
  4  5  2  0
  5  6  1  0
  5  7  1  0
  7 12  1  0
  8  7  1  0
  8  9  1  0
  9 10  1  0
 10 11  1  0
 12 11  1  0
 13  3  1  0
 14 13  1  0
 15 14  2  0
 16 15  1  0
 16 21  2  0
 17 16  1  0
 18 17  2  0
 18 19  1  0
 19 20  2  0
 20 21  1  0
 21 13  1  0
  1 22  1  0
  2 23  1  0
  8 24  1  0
  8 25  1  0
  9 26  1  0
  9 27  1  0
 10 28  1  0
 11 29  1  0
 11 30  1  0
 12 31  1  0
 12 32  1  0
 14 33  1  0
 17 34  1  0
 19 35  1  0
M  ISO  8  22  14  23  14  24  13  25  13  26  13  27  13  28   5  29  13
M  ISO  6  30  13  31  13  32  13  33  14  34  14  35  14
M  END
>  <minimizedAffinity>  (1) 
-6.59822655

>  <minimizedRMSD>  (1) 
0.330274433

$$$$
