
     RDKit          3D

 31 34  0  0  0  0  0  0  0  0999 V2000
   44.5380   35.7680   44.6420 C   0  0  0  0  0  0  0  0  0  0  0  0
   45.2790   35.7670   43.4480 C   0  0  0  0  0  0  0  0  0  0  0  0
   46.2810   34.7890   43.3210 C   0  0  0  0  0  0  0  0  0  0  0  0
   46.4610   33.9240   44.3510 N   0  0  0  0  0  0  0  0  0  0  0  0
   45.7390   33.9510   45.4730 C   0  0  0  0  0  0  0  0  0  0  0  0
   44.7640   34.8810   45.6270 N   0  0  0  0  0  0  0  0  0  0  0  0
   47.0340   34.7790   42.1220 N   0  0  0  0  0  0  0  0  0  0  0  0
   48.2220   35.4040   41.9440 C   0  0  0  0  0  0  0  0  0  0  0  0
   48.6790   35.1970   40.6810 N   0  0  0  0  0  0  0  0  0  0  0  0
   47.7540   34.4330   40.0760 C   0  0  0  0  0  0  0  0  0  0  0  0
   47.6910   33.9130   38.7850 C   0  0  0  0  0  0  0  0  0  0  0  0
   46.6100   33.1580   38.4480 N   0  0  0  0  0  0  0  0  0  0  0  0
   45.6310   32.9250   39.3460 C   0  0  0  0  0  0  0  0  0  0  0  0
   45.6350   33.4020   40.6170 N   0  0  0  0  0  0  0  0  0  0  0  0
   46.7030   34.1570   40.9720 C   0  0  0  0  0  0  0  0  0  0  0  0
   45.9860   32.9880   46.5420 C   0  0  0  0  0  0  0  0  0  0  0  0
   45.1660   32.9550   47.6510 C   0  0  0  0  0  0  0  0  0  0  0  0
   45.3930   32.0470   48.6660 C   0  0  0  0  0  0  0  0  0  0  0  0
   46.4740   31.2000   48.4850 C   0  0  0  0  0  0  0  0  0  0  0  0
   47.3250   31.1890   47.3990 C   0  0  0  0  0  0  0  0  0  0  0  0
   47.0630   32.1190   46.3960 C   0  0  0  0  0  0  0  0  0  0  0  0
   43.7462   36.5199   44.7754 H   0  0  0  0  0  0  0  0  0  0  0  0
   45.0840   36.4979   42.6494 H   0  0  0  0  0  0  0  0  0  0  0  0
   48.7427   35.9948   42.7120 H   0  0  0  0  0  0  0  0  0  0  0  0
   48.4932   34.1074   38.0579 H   0  0  0  0  0  0  0  0  0  0  0  0
   44.7759   32.3101   39.0287 H   0  0  0  0  0  0  0  0  0  0  0  0
   44.3238   33.6584   47.7272 H   0  0  0  0  0  0  0  0  0  0  0  0
   44.7559   31.9992   49.5615 H   0  0  0  0  0  0  0  0  0  0  0  0
   46.6725   30.4677   49.2815 H   0  0  0  0  0  0  0  0  0  0  0  0
   48.1658   30.4831   47.3291 H   0  0  0  0  0  0  0  0  0  0  0  0
   47.6992   32.1660   45.4999 H   0  0  0  0  0  0  0  0  0  0  0  0
  1  6  2  0
  2  1  1  0
  3  2  2  0
  3  4  1  0
  4  5  2  0
  5  6  1  0
  5 16  1  0
  7  3  1  0
  8  7  1  0
  9  8  2  0
 10  9  1  0
 10 15  2  0
 11 10  1  0
 12 11  2  0
 12 13  1  0
 13 14  2  0
 14 15  1  0
 15  7  1  0
 16 17  2  0
 17 18  1  0
 19 18  2  0
 20 19  1  0
 21 16  1  0
 21 20  2  0
  1 22  1  0
  2 23  1  0
  8 24  1  0
 11 25  1  0
 13 26  1  0
 17 27  1  0
 18 28  1  0
 19 29  1  0
 20 30  1  0
 21 31  1  0
M  ISO  8  22  14  23  14  24  14  25  14  26  14  27  14  28  14  29  14
M  ISO  2  30  14  31  14
M  END
>  <minimizedAffinity>  (1) 
-6.46045113

>  <minimizedRMSD>  (1) 
0.654071093

$$$$
