
     RDKit          3D

 42 45  0  0  1  0  0  0  0  0999 V2000
   47.6120   31.0280   43.6590 C   0  0  0  0  0  0  0  0  0  0  0  0
   46.7830   31.8650   42.8980 C   0  0  0  0  0  0  0  0  0  0  0  0
   45.8950   32.7320   43.5090 C   0  0  0  0  0  0  0  0  0  0  0  0
   45.9000   32.6970   44.8600 N   0  0  0  0  0  0  0  0  0  0  0  0
   46.6810   31.9080   45.5980 C   0  0  0  0  0  0  0  0  0  0  0  0
   47.5190   31.0920   44.9940 N   0  0  0  0  0  0  0  0  0  0  0  0
   46.5680   31.9910   46.9960 N   0  0  0  0  0  0  0  0  0  0  0  0
   45.4910   32.6320   47.7110 C   0  0  0  0  0  0  0  0  0  0  0  0
   44.7310   31.5430   48.4580 C   0  0  0  0  0  0  0  0  0  0  0  0
   45.6170   30.5890   48.9550 O   0  0  0  0  0  0  0  0  0  0  0  0
   46.8560   31.1260   49.2140 C   0  0  0  0  0  0  0  0  0  0  0  0
   47.5470   31.4260   47.8910 C   0  0  1  0  0  0  0  0  0  0  0  0
   44.9760   33.6570   42.7580 C   0  0  0  0  0  0  0  0  0  0  0  0
   45.1460   34.9850   42.8020 C   0  0  0  0  0  0  0  0  0  0  0  0
   43.7980   35.5900   41.7470 S   0  0  0  0  0  0  0  0  0  0  0  0
   43.2070   33.8150   41.4150 C   0  0  0  0  0  0  0  0  0  0  0  0
   43.9900   33.2330   42.0410 N   0  0  0  0  0  0  0  0  0  0  0  0
   42.0610   33.6780   40.5610 N   0  0  0  0  0  0  0  0  0  0  0  0
   41.7460   34.5770   39.5350 C   0  0  0  0  0  0  0  0  0  0  0  0
   42.7230   35.2850   39.0550 N   0  0  0  0  0  0  0  0  0  0  0  0
   40.3520   34.5900   39.1510 N   0  0  0  0  0  0  0  0  0  0  0  0
   42.4630   35.9380   38.2790 H   0  0  0  0  0  0  0  0  0  0  0  0
   47.8720   30.1110   47.3360 N   0  0  0  0  0  0  0  0  0  0  0  0
   47.0120   29.1220   47.0410 C   0  0  0  0  0  0  0  0  0  0  0  0
   47.7790   28.1050   46.5560 N   0  0  0  0  0  0  0  0  0  0  0  0
   49.0710   28.4840   46.5630 C   0  0  0  0  0  0  0  0  0  0  0  0
   49.1090   29.7330   47.0520 N   0  0  0  0  0  0  0  0  0  0  0  0
   48.3185   30.3386   43.1736 H   0  0  0  0  0  0  0  0  0  0  0  0
   46.8397   31.8316   41.8000 H   0  0  0  0  0  0  0  0  0  0  0  0
   45.8964   33.3648   48.4242 H   0  0  0  0  0  0  0  0  0  0  0  0
   44.8251   33.1645   47.0160 H   0  0  0  0  0  0  0  0  0  0  0  0
   44.1778   31.9951   49.2944 H   0  0  0  0  0  0  0  0  0  0  0  0
   44.0314   31.0544   47.7639 H   0  0  0  0  0  0  0  0  0  0  0  0
   46.7427   32.0556   49.7911 H   0  0  0  0  0  0  0  0  0  0  0  0
   47.4579   30.4132   49.7968 H   0  0  0  0  0  0  0  0  0  0  0  0
   48.4120   32.0941   48.0153 H   0  0  0  0  0  0  0  0  0  0  0  0
   45.9102   35.5635   43.3417 H   0  0  0  0  0  0  0  0  0  0  0  0
   41.4357   32.8735   40.7116 H   0  0  0  0  0  0  0  0  0  0  0  0
   40.0295   35.2212   38.4037 H   0  0  0  0  0  0  0  0  0  0  0  0
   39.6815   33.9680   39.6248 H   0  0  0  0  0  0  0  0  0  0  0  0
   45.9190   29.1310   47.1648 H   0  0  0  0  0  0  0  0  0  0  0  0
   49.9313   27.8842   46.2312 H   0  0  0  0  0  0  0  0  0  0  0  0
  1  6  2  0
  2  3  2  0
  2  1  1  0
  3  4  1  0
  4  5  2  0
  5  7  1  0
  6  5  1  0
  7  8  1  0
  7 12  1  0
  8  9  1  0
  9 10  1  0
 10 11  1  0
 12 11  1  0
 13 14  2  0
 13  3  1  0
 15 14  1  0
 16 15  1  0
 16 17  2  0
 17 13  1  0
 18 16  1  0
 19 18  1  0
 20 19  2  0
 21 19  1  0
 22 20  1  0
 23 12  1  0
 24 23  1  0
 25 26  1  0
 25 24  2  0
 26 27  2  0
 27 23  1  0
  1 28  1  0
  2 29  1  0
  8 30  1  0
  8 31  1  0
  9 32  1  0
  9 33  1  0
 11 34  1  0
 11 35  1  0
 12 36  1  1
 14 37  1  0
 18 38  1  0
 21 39  1  0
 21 40  1  0
 24 41  1  0
 26 42  1  0
M  ISO  8  28  14  29  14  30  13  31  13  32  13  33  13  34  13  35  13
M  ISO  4  36  13  37  14  41  14  42  14
M  END
>  <minimizedAffinity>  (1) 
-5.62830734

>  <minimizedRMSD>  (1) 
0.48766169

$$$$
