
     RDKit          3D

 39 43  0  0  1  0  0  0  0  0999 V2000
   45.0250   35.0460   44.4960 C   0  0  0  0  0  0  0  0  0  0  0  0
   45.7170   35.3360   43.2990 C   0  0  0  0  0  0  0  0  0  0  0  0
   46.7140   34.4570   42.9350 C   0  0  0  0  0  0  0  0  0  0  0  0
   46.9350   33.3970   43.7590 N   0  0  0  0  0  0  0  0  0  0  0  0
   46.2680   33.1420   44.8880 C   0  0  0  0  0  0  0  0  0  0  0  0
   45.3180   33.9770   45.2380 N   0  0  0  0  0  0  0  0  0  0  0  0
   47.4440   34.7130   41.7290 N   0  0  0  0  0  0  0  0  0  0  0  0
   48.5030   35.5470   41.6280 C   0  0  0  0  0  0  0  0  0  0  0  0
   48.9600   35.5530   40.3430 N   0  0  0  0  0  0  0  0  0  0  0  0
   48.1610   34.7090   39.6660 C   0  0  0  0  0  0  0  0  0  0  0  0
   48.1620   34.3300   38.3250 C   0  0  0  0  0  0  0  0  0  0  0  0
   47.2240   33.4480   37.9190 N   0  0  0  0  0  0  0  0  0  0  0  0
   46.3130   32.9500   38.7830 C   0  0  0  0  0  0  0  0  0  0  0  0
   46.2750   33.2910   40.0900 N   0  0  0  0  0  0  0  0  0  0  0  0
   47.1970   34.1690   40.5320 C   0  0  0  0  0  0  0  0  0  0  0  0
   46.9470   31.9300   45.2150 C   0  0  0  0  0  0  0  0  0  0  0  0
   47.5240   30.9000   45.4920 N   0  0  0  0  0  0  0  0  0  0  0  0
   48.1240   29.8620   45.7310 C   0  0  0  0  0  0  0  0  0  0  0  0
   47.6630   29.7430   46.9770 N   0  0  0  0  0  0  0  0  0  0  0  0
   46.8050   30.7080   47.4440 C   0  0  0  0  0  0  0  0  0  0  0  0
   46.4150   30.4310   48.7800 C   0  0  0  0  0  0  0  0  0  0  0  0
   45.5640   31.3480   49.3210 C   0  0  0  0  0  0  0  0  0  0  0  0
   45.0820   32.4660   48.6920 C   0  0  0  0  0  0  0  0  0  0  0  0
   45.5720   32.5620   47.4070 C   0  0  0  0  0  0  0  0  0  0  0  0
   46.4520   31.7860   46.5740 C   0  0  0  0  0  0  0  0  0  0  0  0
   44.2215   35.7211   44.8256 H   0  0  0  0  0  0  0  0  0  0  0  0
   45.4726   36.2181   42.6889 H   0  0  0  0  0  0  0  0  0  0  0  0
   48.9308   36.1316   42.4558 H   0  0  0  0  0  0  0  0  0  0  0  0
   48.9027   34.7361   37.6204 H   0  0  0  0  0  0  0  0  0  0  0  0
   45.5680   32.2342   38.4054 H   0  0  0  0  0  0  0  0  0  0  0  0
   45.9833   31.4011   45.2558 H   0  0  0  0  0  0  0  0  0  0  0  0
   47.9265   31.3388   46.3325 H   0  0  0  0  0  0  0  0  0  0  0  0
   47.8180   29.0302   45.0794 H   0  0  0  0  0  0  0  0  0  0  0  0
   49.2146   29.8584   45.5878 H   0  0  0  0  0  0  0  0  0  0  0  0
   47.9426   28.9500   47.5718 H   0  0  0  0  0  0  0  0  0  0  0  0
   46.7701   29.5491   49.3333 H   0  0  0  0  0  0  0  0  0  0  0  0
   45.2343   31.1750   50.3561 H   0  0  0  0  0  0  0  0  0  0  0  0
   44.3946   33.1913   49.1519 H   0  0  0  0  0  0  0  0  0  0  0  0
   45.1959   33.4562   46.8884 H   0  0  0  0  0  0  0  0  0  0  0  0
  1  6  2  0
  2  1  1  0
  3  2  2  0
  3  4  1  0
  4  5  2  0
  5  6  1  0
  7  3  1  0
  8  7  1  0
  9  8  2  0
 10  9  1  0
 10 15  2  0
 11 10  1  0
 12 11  2  0
 12 13  1  0
 13 14  2  0
 14 15  1  0
 15  7  1  0
 16  5  1  0
 16 17  1  0
 16 25  1  0
 17 18  1  0
 18 19  1  0
 19 20  1  0
 20 21  2  0
 21 22  1  0
 23 22  2  0
 24 23  1  0
 25 24  2  0
 25 20  1  0
  1 26  1  0
  2 27  1  0
  8 28  1  0
 11 29  1  0
 13 30  1  0
 16 31  1  0
 17 32  1  0
 18 33  1  0
 18 34  1  0
 19 35  1  0
 21 36  1  0
 22 37  1  0
 23 38  1  0
 24 39  1  0
M  ISO  8  26  14  27  14  28  14  29  14  30  14  31  13  32   5  33  13
M  ISO  5  34  13  36  14  37  14  38  14  39  14
M  END
>  <minimizedAffinity>  (1) 
-6.36133766

>  <minimizedRMSD>  (1) 
1.22143817

$$$$
