
     RDKit          3D

 37 40  0  0  0  0  0  0  0  0999 V2000
   44.5890   35.8400   44.7050 C   0  0  0  0  0  0  0  0  0  0  0  0
   45.3450   35.8210   43.5250 C   0  0  0  0  0  0  0  0  0  0  0  0
   46.2400   34.7710   43.3440 C   0  0  0  0  0  0  0  0  0  0  0  0
   46.3500   33.8050   44.3100 N   0  0  0  0  0  0  0  0  0  0  0  0
   45.6010   33.8660   45.4290 C   0  0  0  0  0  0  0  0  0  0  0  0
   44.7170   34.8750   45.6390 N   0  0  0  0  0  0  0  0  0  0  0  0
   47.0080   34.7590   42.1370 N   0  0  0  0  0  0  0  0  0  0  0  0
   48.2100   35.3780   41.9860 C   0  0  0  0  0  0  0  0  0  0  0  0
   48.6770   35.1750   40.7170 N   0  0  0  0  0  0  0  0  0  0  0  0
   47.7380   34.4210   40.0970 C   0  0  0  0  0  0  0  0  0  0  0  0
   47.6870   33.9200   38.8100 C   0  0  0  0  0  0  0  0  0  0  0  0
   46.6070   33.1840   38.4550 N   0  0  0  0  0  0  0  0  0  0  0  0
   45.6110   32.9480   39.3360 C   0  0  0  0  0  0  0  0  0  0  0  0
   45.6120   33.4150   40.6080 N   0  0  0  0  0  0  0  0  0  0  0  0
   46.6890   34.1580   40.9850 C   0  0  0  0  0  0  0  0  0  0  0  0
   45.7690   32.8000   46.4200 C   0  0  0  0  0  0  0  0  0  0  0  0
   44.9830   33.1070   47.6790 C   0  0  0  0  0  0  0  0  0  0  0  0
   45.0120   31.7950   48.4620 C   0  0  0  0  0  0  0  0  0  0  0  0
   46.4120   31.5450   48.9380 C   0  0  0  0  0  0  0  0  0  0  0  0
   47.4770   31.7340   47.9310 C   0  0  0  0  0  0  0  0  0  0  0  0
   47.2080   32.6940   46.8350 C   0  0  0  0  0  0  0  0  0  0  0  0
   43.8754   36.6600   44.8733 H   0  0  0  0  0  0  0  0  0  0  0  0
   45.2345   36.6103   42.7668 H   0  0  0  0  0  0  0  0  0  0  0  0
   48.7278   35.9546   42.7666 H   0  0  0  0  0  0  0  0  0  0  0  0
   48.5000   34.1134   38.0947 H   0  0  0  0  0  0  0  0  0  0  0  0
   44.7535   32.3447   39.0033 H   0  0  0  0  0  0  0  0  0  0  0  0
   45.4166   31.8684   45.9532 H   0  0  0  0  0  0  0  0  0  0  0  0
   45.4619   33.9148   48.2517 H   0  0  0  0  0  0  0  0  0  0  0  0
   43.9599   33.4505   47.4662 H   0  0  0  0  0  0  0  0  0  0  0  0
   44.3351   31.8656   49.3262 H   0  0  0  0  0  0  0  0  0  0  0  0
   44.6845   30.9675   47.8155 H   0  0  0  0  0  0  0  0  0  0  0  0
   46.6120   32.2317   49.7737 H   0  0  0  0  0  0  0  0  0  0  0  0
   46.4479   30.4810   49.2148 H   0  0  0  0  0  0  0  0  0  0  0  0
   48.3765   32.0802   48.4612 H   0  0  0  0  0  0  0  0  0  0  0  0
   47.5759   30.7571   47.4352 H   0  0  0  0  0  0  0  0  0  0  0  0
   47.7936   32.3823   45.9576 H   0  0  0  0  0  0  0  0  0  0  0  0
   47.4896   33.6852   47.2200 H   0  0  0  0  0  0  0  0  0  0  0  0
  1  6  2  0
  2  1  1  0
  3  2  2  0
  3  4  1  0
  4  5  2  0
  5  6  1  0
  5 16  1  0
  7  3  1  0
  8  7  1  0
  9  8  2  0
 10  9  1  0
 10 15  2  0
 11 10  1  0
 12 11  2  0
 12 13  1  0
 13 14  2  0
 14 15  1  0
 15  7  1  0
 16 21  1  0
 16 17  1  0
 17 18  1  0
 18 19  1  0
 20 19  1  0
 21 20  1  0
  1 22  1  0
  2 23  1  0
  8 24  1  0
 11 25  1  0
 13 26  1  0
 16 27  1  0
 17 28  1  0
 17 29  1  0
 18 30  1  0
 18 31  1  0
 19 32  1  0
 19 33  1  0
 20 34  1  0
 20 35  1  0
 21 36  1  0
 21 37  1  0
M  ISO  8  22  14  23  14  24  14  25  14  26  14  27  13  28  13  29  13
M  ISO  8  30  13  31  13  32  13  33  13  34  13  35  13  36  13  37  13
M  END
>  <minimizedAffinity>  (1) 
-6.31330729

>  <minimizedRMSD>  (1) 
0.414936781

$$$$
