
     RDKit          3D

 34 37  0  0  0  0  0  0  0  0999 V2000
   44.5710   35.6800   44.6530 C   0  0  0  0  0  0  0  0  0  0  0  0
   45.3120   35.6760   43.4650 C   0  0  0  0  0  0  0  0  0  0  0  0
   46.3250   34.7400   43.3290 C   0  0  0  0  0  0  0  0  0  0  0  0
   46.5720   33.8520   44.3450 N   0  0  0  0  0  0  0  0  0  0  0  0
   45.8350   33.8870   45.4740 C   0  0  0  0  0  0  0  0  0  0  0  0
   44.8340   34.7940   45.6390 N   0  0  0  0  0  0  0  0  0  0  0  0
   47.0700   34.7550   42.1070 N   0  0  0  0  0  0  0  0  0  0  0  0
   48.2380   35.4260   41.9190 C   0  0  0  0  0  0  0  0  0  0  0  0
   48.6760   35.2260   40.6430 N   0  0  0  0  0  0  0  0  0  0  0  0
   47.7650   34.4260   40.0540 C   0  0  0  0  0  0  0  0  0  0  0  0
   47.7230   33.9180   38.7710 C   0  0  0  0  0  0  0  0  0  0  0  0
   46.6610   33.1220   38.4440 N   0  0  0  0  0  0  0  0  0  0  0  0
   45.6880   32.8450   39.3530 C   0  0  0  0  0  0  0  0  0  0  0  0
   45.7040   33.3290   40.6200 N   0  0  0  0  0  0  0  0  0  0  0  0
   46.7520   34.1240   40.9660 C   0  0  0  0  0  0  0  0  0  0  0  0
   46.1300   32.9160   46.5440 C   0  0  0  0  0  0  0  0  0  0  0  0
   45.1350   32.9520   47.6850 C   0  0  0  0  0  0  0  0  0  0  0  0
   45.6570   31.7750   48.5120 C   0  0  0  0  0  0  0  0  0  0  0  0
   46.0400   30.7460   47.4570 C   0  0  0  0  0  0  0  0  0  0  0  0
   46.0620   31.4840   46.1300 C   0  0  0  0  0  0  0  0  0  0  0  0
   43.7632   36.4148   44.7857 H   0  0  0  0  0  0  0  0  0  0  0  0
   45.0961   36.3959   42.6618 H   0  0  0  0  0  0  0  0  0  0  0  0
   48.7499   36.0354   42.6783 H   0  0  0  0  0  0  0  0  0  0  0  0
   48.5134   34.1450   38.0404 H   0  0  0  0  0  0  0  0  0  0  0  0
   44.8511   32.2000   39.0472 H   0  0  0  0  0  0  0  0  0  0  0  0
   47.1466   33.2285   46.8250 H   0  0  0  0  0  0  0  0  0  0  0  0
   45.1839   33.8990   48.2425 H   0  0  0  0  0  0  0  0  0  0  0  0
   44.0783   32.8831   47.3873 H   0  0  0  0  0  0  0  0  0  0  0  0
   46.5320   32.0709   49.1094 H   0  0  0  0  0  0  0  0  0  0  0  0
   44.9187   31.3960   49.2340 H   0  0  0  0  0  0  0  0  0  0  0  0
   47.0332   30.3271   47.6764 H   0  0  0  0  0  0  0  0  0  0  0  0
   45.3264   29.9091   47.4372 H   0  0  0  0  0  0  0  0  0  0  0  0
   45.1489   31.2828   45.5505 H   0  0  0  0  0  0  0  0  0  0  0  0
   46.8951   31.1808   45.4789 H   0  0  0  0  0  0  0  0  0  0  0  0
  1  6  2  0
  2  1  1  0
  3  2  2  0
  3  4  1  0
  4  5  2  0
  5  6  1  0
  5 16  1  0
  7  3  1  0
  8  7  1  0
  9  8  2  0
 10  9  1  0
 10 15  2  0
 11 10  1  0
 12 11  2  0
 12 13  1  0
 13 14  2  0
 14 15  1  0
 15  7  1  0
 16 17  1  0
 17 18  1  0
 19 18  1  0
 20 16  1  0
 20 19  1  0
  1 21  1  0
  2 22  1  0
  8 23  1  0
 11 24  1  0
 13 25  1  0
 16 26  1  0
 17 27  1  0
 17 28  1  0
 18 29  1  0
 18 30  1  0
 19 31  1  0
 19 32  1  0
 20 33  1  0
 20 34  1  0
M  ISO  8  21  14  22  14  23  14  24  14  25  14  26  13  27  13  28  13
M  ISO  6  29  13  30  13  31  13  32  13  33  13  34  13
M  END
>  <minimizedAffinity>  (1) 
-6.01288605

>  <minimizedRMSD>  (1) 
0.424923062

$$$$
