
     RDKit          3D

 27 30  0  0  0  0  0  0  0  0999 V2000
   44.5500   35.9050   44.3760 C   0  0  0  0  0  0  0  0  0  0  0  0
   45.3590   35.8870   43.2230 C   0  0  0  0  0  0  0  0  0  0  0  0
   46.3410   34.9120   43.1300 C   0  0  0  0  0  0  0  0  0  0  0  0
   46.4800   34.0100   44.1610 N   0  0  0  0  0  0  0  0  0  0  0  0
   45.6820   34.0650   45.2480 C   0  0  0  0  0  0  0  0  0  0  0  0
   44.7180   35.0070   45.3620 N   0  0  0  0  0  0  0  0  0  0  0  0
   47.1510   34.8980   41.9690 N   0  0  0  0  0  0  0  0  0  0  0  0
   48.3510   35.5340   41.8600 C   0  0  0  0  0  0  0  0  0  0  0  0
   48.8750   35.3210   40.6120 N   0  0  0  0  0  0  0  0  0  0  0  0
   47.9700   34.5420   39.9640 C   0  0  0  0  0  0  0  0  0  0  0  0
   47.9930   34.0310   38.6850 C   0  0  0  0  0  0  0  0  0  0  0  0
   46.9420   33.2760   38.2970 N   0  0  0  0  0  0  0  0  0  0  0  0
   45.9050   33.0280   39.1310 C   0  0  0  0  0  0  0  0  0  0  0  0
   45.8440   33.5130   40.4020 N   0  0  0  0  0  0  0  0  0  0  0  0
   46.8990   34.2790   40.8090 C   0  0  0  0  0  0  0  0  0  0  0  0
   45.9730   33.0210   46.2560 C   0  0  0  0  0  0  0  0  0  0  0  0
   46.9420   32.0570   46.1290 C   0  0  0  0  0  0  0  0  0  0  0  0
   46.7700   31.1040   47.7080 S   0  0  0  0  0  0  0  0  0  0  0  0
   45.3540   32.2510   48.2510 C   0  0  0  0  0  0  0  0  0  0  0  0
   45.2800   32.9640   47.3760 N   0  0  0  0  0  0  0  0  0  0  0  0
   43.7648   36.6695   44.4714 H   0  0  0  0  0  0  0  0  0  0  0  0
   45.2161   36.6248   42.4197 H   0  0  0  0  0  0  0  0  0  0  0  0
   48.8271   36.1285   42.6537 H   0  0  0  0  0  0  0  0  0  0  0  0
   48.8349   34.2301   38.0056 H   0  0  0  0  0  0  0  0  0  0  0  0
   45.0741   32.4067   38.7655 H   0  0  0  0  0  0  0  0  0  0  0  0
   47.6441   31.8920   45.2984 H   0  0  0  0  0  0  0  0  0  0  0  0
   44.7603   32.2273   49.1767 H   0  0  0  0  0  0  0  0  0  0  0  0
  1  6  2  0
  2  1  1  0
  3  2  2  0
  3  4  1  0
  4  5  2  0
  5  6  1  0
  5 16  1  0
  7  3  1  0
  8  7  1  0
  9  8  2  0
 10  9  1  0
 10 15  2  0
 11 10  1  0
 12 11  2  0
 12 13  1  0
 13 14  2  0
 14 15  1  0
 15  7  1  0
 16 20  1  0
 17 16  2  0
 17 18  1  0
 18 19  1  0
 20 19  2  0
  1 21  1  0
  2 22  1  0
  8 23  1  0
 11 24  1  0
 13 25  1  0
 17 26  1  0
 19 27  1  0
M  ISO  7  21  14  22  14  23  14  24  14  25  14  26  14  27  14
M  END
>  <minimizedAffinity>  (1) 
-6.00742149

>  <minimizedRMSD>  (1) 
0.0892007351

$$$$
