
     RDKit          3D

 24 26  0  0  0  0  0  0  0  0999 V2000
   46.9810   34.8400   42.0230 N   0  0  0  0  0  0  0  0  0  0  0  0
   48.2270   35.3520   41.8710 C   0  0  0  0  0  0  0  0  0  0  0  0
   48.7040   35.0510   40.6260 N   0  0  0  0  0  0  0  0  0  0  0  0
   47.7230   34.3430   40.0160 C   0  0  0  0  0  0  0  0  0  0  0  0
   47.6730   33.7910   38.7520 C   0  0  0  0  0  0  0  0  0  0  0  0
   46.5480   33.1260   38.4020 N   0  0  0  0  0  0  0  0  0  0  0  0
   45.5020   33.0020   39.2610 C   0  0  0  0  0  0  0  0  0  0  0  0
   45.5230   33.5360   40.5120 N   0  0  0  0  0  0  0  0  0  0  0  0
   46.6340   34.2060   40.8870 C   0  0  0  0  0  0  0  0  0  0  0  0
   44.4990   36.1570   44.4180 C   0  0  0  0  0  0  0  0  0  0  0  0
   45.2910   36.0310   43.2570 C   0  0  0  0  0  0  0  0  0  0  0  0
   46.1890   34.9630   43.1900 C   0  0  0  0  0  0  0  0  0  0  0  0
   46.2530   34.0960   44.2520 N   0  0  0  0  0  0  0  0  0  0  0  0
   45.4850   34.2520   45.3370 C   0  0  0  0  0  0  0  0  0  0  0  0
   44.6110   35.2640   45.4370 N   0  0  0  0  0  0  0  0  0  0  0  0
   45.5810   33.3100   46.4480 C   0  0  0  0  0  0  0  0  0  0  0  0
   46.3770   32.3240   46.4150 O   0  0  0  0  0  0  0  0  0  0  0  0
   44.8110   33.4390   47.5950 O   0  0  0  0  0  0  0  0  0  0  0  0
   48.7727   35.9243   42.6356 H   0  0  0  0  0  0  0  0  0  0  0  0
   48.5177   33.8883   38.0541 H   0  0  0  0  0  0  0  0  0  0  0  0
   44.6080   32.4511   38.9335 H   0  0  0  0  0  0  0  0  0  0  0  0
   43.7825   36.9876   44.4996 H   0  0  0  0  0  0  0  0  0  0  0  0
   45.2040   36.7514   42.4303 H   0  0  0  0  0  0  0  0  0  0  0  0
   44.9024   32.7811   48.3291 H   0  0  0  0  0  0  0  0  0  0  0  0
  1 12  1  0
  2  1  1  0
  3  2  2  0
  4  3  1  0
  4  9  2  0
  5  4  1  0
  6  5  2  0
  6  7  1  0
  7  8  2  0
  8  9  1  0
  9  1  1  0
 10 15  2  0
 11 10  1  0
 12 11  2  0
 12 13  1  0
 13 14  2  0
 14 15  1  0
 14 16  1  0
 16 18  1  0
 17 16  2  0
  2 19  1  0
  5 20  1  0
  7 21  1  0
 10 22  1  0
 11 23  1  0
 18 24  1  0
M  ISO  6  19  14  20  14  21  14  22  14  23  14  24   3
M  END
>  <minimizedAffinity>  (1) 
-5.80373287

>  <minimizedRMSD>  (1) 
0.439785838

$$$$
