
     RDKit          3D

 24 26  0  0  0  0  0  0  0  0999 V2000
   47.1810   34.8980   41.9390 N   0  0  0  0  0  0  0  0  0  0  0  0
   48.3710   35.5390   41.8250 C   0  0  0  0  0  0  0  0  0  0  0  0
   48.8860   35.3410   40.5860 N   0  0  0  0  0  0  0  0  0  0  0  0
   47.9940   34.5630   39.9320 C   0  0  0  0  0  0  0  0  0  0  0  0
   48.0090   34.0550   38.6450 C   0  0  0  0  0  0  0  0  0  0  0  0
   46.9590   33.2920   38.2550 N   0  0  0  0  0  0  0  0  0  0  0  0
   45.9270   33.0350   39.1020 C   0  0  0  0  0  0  0  0  0  0  0  0
   45.8810   33.5170   40.3680 N   0  0  0  0  0  0  0  0  0  0  0  0
   46.9140   34.2790   40.7790 C   0  0  0  0  0  0  0  0  0  0  0  0
   44.5590   35.8910   44.3360 C   0  0  0  0  0  0  0  0  0  0  0  0
   45.3690   35.8840   43.1800 C   0  0  0  0  0  0  0  0  0  0  0  0
   46.3670   34.8970   43.1100 C   0  0  0  0  0  0  0  0  0  0  0  0
   46.5010   34.0190   44.1330 N   0  0  0  0  0  0  0  0  0  0  0  0
   45.7120   34.0540   45.2200 C   0  0  0  0  0  0  0  0  0  0  0  0
   44.7420   34.9830   45.3300 N   0  0  0  0  0  0  0  0  0  0  0  0
   45.9840   33.0240   46.2540 C   0  0  0  0  0  0  0  0  0  0  0  0
   48.8477   36.1316   42.6197 H   0  0  0  0  0  0  0  0  0  0  0  0
   48.8451   34.2635   37.9613 H   0  0  0  0  0  0  0  0  0  0  0  0
   45.0950   32.4101   38.7451 H   0  0  0  0  0  0  0  0  0  0  0  0
   43.7648   36.6457   44.4339 H   0  0  0  0  0  0  0  0  0  0  0  0
   45.2258   36.6166   42.3720 H   0  0  0  0  0  0  0  0  0  0  0  0
   45.8668   33.4680   47.2536 H   0  0  0  0  0  0  0  0  0  0  0  0
   45.2750   32.1911   46.1373 H   0  0  0  0  0  0  0  0  0  0  0  0
   47.0118   32.6497   46.1373 H   0  0  0  0  0  0  0  0  0  0  0  0
  1 12  1  0
  2  1  1  0
  3  2  2  0
  4  3  1  0
  4  9  2  0
  5  4  1  0
  6  5  2  0
  6  7  1  0
  7  8  2  0
  8  9  1  0
  9  1  1  0
 10 15  2  0
 11 10  1  0
 12 11  2  0
 12 13  1  0
 13 14  2  0
 14 15  1  0
 14 16  1  0
  2 17  1  0
  5 18  1  0
  7 19  1  0
 10 20  1  0
 11 21  1  0
 16 22  1  0
 16 23  1  0
 16 24  1  0
M  ISO  8  17  14  18  14  19  14  20  14  21  14  22   8  23   8  24   8
M  END
>  <minimizedAffinity>  (1) 
-5.177876

>  <minimizedRMSD>  (1) 
0.0360576361

$$$$
