
     RDKit          3D

 22 24  0  0  0  0  0  0  0  0999 V2000
   47.1910   34.9050   41.9500 N   0  0  0  0  0  0  0  0  0  0  0  0
   48.3760   35.5380   41.8320 C   0  0  0  0  0  0  0  0  0  0  0  0
   48.8890   35.3330   40.5840 N   0  0  0  0  0  0  0  0  0  0  0  0
   47.9960   34.5620   39.9390 C   0  0  0  0  0  0  0  0  0  0  0  0
   48.0000   34.0490   38.6520 C   0  0  0  0  0  0  0  0  0  0  0  0
   46.9380   33.2840   38.2630 N   0  0  0  0  0  0  0  0  0  0  0  0
   45.9160   33.0340   39.1060 C   0  0  0  0  0  0  0  0  0  0  0  0
   45.8680   33.5140   40.3720 N   0  0  0  0  0  0  0  0  0  0  0  0
   46.9100   34.2760   40.7840 C   0  0  0  0  0  0  0  0  0  0  0  0
   44.5550   35.8810   44.3430 C   0  0  0  0  0  0  0  0  0  0  0  0
   45.3680   35.8780   43.1950 C   0  0  0  0  0  0  0  0  0  0  0  0
   46.3750   34.9010   43.1110 C   0  0  0  0  0  0  0  0  0  0  0  0
   46.5050   34.0230   44.1400 N   0  0  0  0  0  0  0  0  0  0  0  0
   45.7120   34.0570   45.2180 C   0  0  0  0  0  0  0  0  0  0  0  0
   44.7380   34.9700   45.3390 N   0  0  0  0  0  0  0  0  0  0  0  0
   46.1210   32.7790   46.3990 S   0  0  0  0  0  0  0  0  0  0  0  0
   48.8573   36.1311   42.6236 H   0  0  0  0  0  0  0  0  0  0  0  0
   48.8340   34.2520   37.9640 H   0  0  0  0  0  0  0  0  0  0  0  0
   45.0823   32.4113   38.7493 H   0  0  0  0  0  0  0  0  0  0  0  0
   43.7573   36.6324   44.4381 H   0  0  0  0  0  0  0  0  0  0  0  0
   45.2208   36.6144   42.3912 H   0  0  0  0  0  0  0  0  0  0  0  0
   45.9654   33.2653   47.6703 H   0  0  0  0  0  0  0  0  0  0  0  0
  1 12  1  0
  2  1  1  0
  3  2  2  0
  4  3  1  0
  4  9  2  0
  5  4  1  0
  6  5  2  0
  6  7  1  0
  7  8  2  0
  8  9  1  0
  9  1  1  0
 10 15  2  0
 11 10  1  0
 12 11  2  0
 12 13  1  0
 13 14  2  0
 14 15  1  0
 14 16  1  0
  2 17  1  0
  5 18  1  0
  7 19  1  0
 10 20  1  0
 11 21  1  0
 16 22  1  0
M  ISO  6  17  14  18  14  19  14  20  14  21  14  22  11
M  END
>  <minimizedAffinity>  (1) 
-5.13704967

>  <minimizedRMSD>  (1) 
0.0357864462

$$$$
