
     RDKit          3D

 45 47  0  0  1  0  0  0  0  0999 V2000
   47.5570   30.9800   43.6880 C   0  0  0  0  0  0  0  0  0  0  0  0
   46.7470   31.8280   42.9240 C   0  0  0  0  0  0  0  0  0  0  0  0
   45.8730   32.7100   43.5390 C   0  0  0  0  0  0  0  0  0  0  0  0
   45.8800   32.6730   44.8860 N   0  0  0  0  0  0  0  0  0  0  0  0
   46.6360   31.8810   45.6350 C   0  0  0  0  0  0  0  0  0  0  0  0
   47.4590   31.0500   45.0260 N   0  0  0  0  0  0  0  0  0  0  0  0
   46.5280   31.9590   47.0330 N   0  0  0  0  0  0  0  0  0  0  0  0
   45.4270   32.5980   47.7240 C   0  0  0  0  0  0  0  0  0  0  0  0
   44.6560   31.5270   48.4750 C   0  0  0  0  0  0  0  0  0  0  0  0
   45.5190   30.5510   48.9640 O   0  0  0  0  0  0  0  0  0  0  0  0
   46.7670   31.0470   49.2410 C   0  0  0  0  0  0  0  0  0  0  0  0
   47.4700   31.4300   47.9470 C   0  0  1  0  0  0  0  0  0  0  0  0
   44.9740   33.6500   42.7810 C   0  0  0  0  0  0  0  0  0  0  0  0
   45.1700   34.9760   42.8180 C   0  0  0  0  0  0  0  0  0  0  0  0
   43.8240   35.5930   41.7480 S   0  0  0  0  0  0  0  0  0  0  0  0
   43.2110   33.8340   41.4310 C   0  0  0  0  0  0  0  0  0  0  0  0
   43.9830   33.2340   42.0660 N   0  0  0  0  0  0  0  0  0  0  0  0
   42.0640   33.7040   40.5740 N   0  0  0  0  0  0  0  0  0  0  0  0
   41.7650   34.6040   39.5420 C   0  0  0  0  0  0  0  0  0  0  0  0
   42.7640   35.2840   39.0560 N   0  0  0  0  0  0  0  0  0  0  0  0
   40.3820   34.6530   39.1550 N   0  0  0  0  0  0  0  0  0  0  0  0
   42.5250   35.9320   38.2700 H   0  0  0  0  0  0  0  0  0  0  0  0
   48.3260   30.3010   47.5130 C   0  0  0  0  0  0  0  0  0  0  0  0
   49.5170   30.2390   48.4760 C   0  0  0  0  0  0  0  0  0  0  0  0
   47.6510   28.9680   47.5730 C   0  0  0  0  0  0  0  0  0  0  0  0
   48.2532   30.2771   43.2072 H   0  0  0  0  0  0  0  0  0  0  0  0
   46.8047   31.7940   41.8260 H   0  0  0  0  0  0  0  0  0  0  0  0
   45.8147   33.3445   48.4328 H   0  0  0  0  0  0  0  0  0  0  0  0
   44.7692   33.1069   47.0040 H   0  0  0  0  0  0  0  0  0  0  0  0
   44.1211   31.9906   49.3170 H   0  0  0  0  0  0  0  0  0  0  0  0
   43.9430   31.0542   47.7836 H   0  0  0  0  0  0  0  0  0  0  0  0
   46.6724   31.9360   49.8818 H   0  0  0  0  0  0  0  0  0  0  0  0
   47.3565   30.2765   49.7595 H   0  0  0  0  0  0  0  0  0  0  0  0
   48.1832   32.2596   48.0616 H   0  0  0  0  0  0  0  0  0  0  0  0
   45.9428   35.5459   43.3548 H   0  0  0  0  0  0  0  0  0  0  0  0
   41.4287   32.9077   40.7264 H   0  0  0  0  0  0  0  0  0  0  0  0
   40.0797   35.2892   38.4035 H   0  0  0  0  0  0  0  0  0  0  0  0
   39.6929   34.0519   39.6291 H   0  0  0  0  0  0  0  0  0  0  0  0
   48.6011   30.4864   46.4642 H   0  0  0  0  0  0  0  0  0  0  0  0
   49.1512   30.2580   49.5132 H   0  0  0  0  0  0  0  0  0  0  0  0
   50.0805   29.3103   48.3029 H   0  0  0  0  0  0  0  0  0  0  0  0
   50.1739   31.1042   48.3029 H   0  0  0  0  0  0  0  0  0  0  0  0
   47.5043   28.6783   48.6240 H   0  0  0  0  0  0  0  0  0  0  0  0
   46.6748   29.0283   47.0696 H   0  0  0  0  0  0  0  0  0  0  0  0
   48.2774   28.2168   47.0696 H   0  0  0  0  0  0  0  0  0  0  0  0
  1  6  2  0
  2  3  2  0
  2  1  1  0
  3  4  1  0
  4  5  2  0
  5  7  1  0
  6  5  1  0
  7  8  1  0
  7 12  1  0
  8  9  1  0
  9 10  1  0
 10 11  1  0
 12 11  1  0
 13 14  2  0
 13  3  1  0
 15 14  1  0
 16 15  1  0
 16 17  2  0
 17 13  1  0
 18 16  1  0
 19 18  1  0
 20 19  2  0
 21 19  1  0
 22 20  1  0
 23 25  1  0
 23 12  1  0
 23 24  1  0
  1 26  1  0
  2 27  1  0
  8 28  1  0
  8 29  1  0
  9 30  1  0
  9 31  1  0
 11 32  1  0
 11 33  1  0
 12 34  1  1
 14 35  1  0
 18 36  1  0
 21 37  1  0
 21 38  1  0
 23 39  1  0
 24 40  1  0
 24 41  1  0
 24 42  1  0
 25 43  1  0
 25 44  1  0
 25 45  1  0
M  ISO  8  26  14  27  14  28  13  29  13  30  13  31  13  32  13  33  13
M  ISO  8  34  13  35  14  39   8  40   8  41   8  42   8  43   8  44   8
M  ISO  1  45   8
M  END
>  <minimizedAffinity>  (1) 
-5.52482224

>  <minimizedRMSD>  (1) 
0.342002749

$$$$
