
     RDKit          3D

 37 41  0  0  0  0  0  0  0  0999 V2000
   44.5920   36.0000   44.5860 C   0  0  0  0  0  0  0  0  0  0  0  0
   45.3740   35.9640   43.4120 C   0  0  0  0  0  0  0  0  0  0  0  0
   46.2350   34.8900   43.2540 C   0  0  0  0  0  0  0  0  0  0  0  0
   46.2370   33.9970   44.2350 N   0  0  0  0  0  0  0  0  0  0  0  0
   45.5170   33.9970   45.3520 C   0  0  0  0  0  0  0  0  0  0  0  0
   44.6680   35.0340   45.5310 N   0  0  0  0  0  0  0  0  0  0  0  0
   47.0160   34.8200   42.0860 N   0  0  0  0  0  0  0  0  0  0  0  0
   48.2360   35.3790   41.9320 C   0  0  0  0  0  0  0  0  0  0  0  0
   48.7120   35.1270   40.6690 N   0  0  0  0  0  0  0  0  0  0  0  0
   47.7530   34.3980   40.0550 C   0  0  0  0  0  0  0  0  0  0  0  0
   47.7180   33.8760   38.7740 C   0  0  0  0  0  0  0  0  0  0  0  0
   46.6090   33.1750   38.4290 N   0  0  0  0  0  0  0  0  0  0  0  0
   45.5880   32.9970   39.3000 C   0  0  0  0  0  0  0  0  0  0  0  0
   45.5910   33.4930   40.5570 N   0  0  0  0  0  0  0  0  0  0  0  0
   46.6890   34.1990   40.9300 C   0  0  0  0  0  0  0  0  0  0  0  0
   45.5970   32.9890   46.4020 C   0  0  0  0  0  0  0  0  0  0  0  0
   45.0860   33.1850   47.5200 O   0  0  0  0  0  0  0  0  0  0  0  0
   46.1800   31.6720   46.5210 C   0  0  0  0  0  0  0  0  0  0  0  0
   45.7270   30.6700   45.7100 N   0  0  0  0  0  0  0  0  0  0  0  0
   46.1980   29.4120   45.7300 C   0  0  0  0  0  0  0  0  0  0  0  0
   47.1630   29.0870   46.5750 N   0  0  0  0  0  0  0  0  0  0  0  0
   47.7050   29.9680   47.4260 C   0  0  0  0  0  0  0  0  0  0  0  0
   48.7330   29.6330   48.2780 C   0  0  0  0  0  0  0  0  0  0  0  0
   49.2970   30.5700   49.1150 C   0  0  0  0  0  0  0  0  0  0  0  0
   48.7840   31.8500   49.0520 C   0  0  0  0  0  0  0  0  0  0  0  0
   47.7560   32.1480   48.1890 C   0  0  0  0  0  0  0  0  0  0  0  0
   47.1810   31.2370   47.3550 C   0  0  0  0  0  0  0  0  0  0  0  0
   43.8984   36.8401   44.7381 H   0  0  0  0  0  0  0  0  0  0  0  0
   45.3029   36.7568   42.6527 H   0  0  0  0  0  0  0  0  0  0  0  0
   48.7696   35.9518   42.7047 H   0  0  0  0  0  0  0  0  0  0  0  0
   48.5497   34.0224   38.0691 H   0  0  0  0  0  0  0  0  0  0  0  0
   44.7124   32.4199   38.9680 H   0  0  0  0  0  0  0  0  0  0  0  0
   45.7834   28.6558   45.0472 H   0  0  0  0  0  0  0  0  0  0  0  0
   49.1102   28.5998   48.2905 H   0  0  0  0  0  0  0  0  0  0  0  0
   50.1170   30.3108   49.8009 H   0  0  0  0  0  0  0  0  0  0  0  0
   49.2008   32.6375   49.6971 H   0  0  0  0  0  0  0  0  0  0  0  0
   47.3764   33.1803   48.1709 H   0  0  0  0  0  0  0  0  0  0  0  0
  1  6  2  0
  2  1  1  0
  3  2  2  0
  3  4  1  0
  4  5  2  0
  5  6  1  0
  5 16  1  0
  7  3  1  0
  8  7  1  0
  9  8  2  0
 10  9  1  0
 10 15  2  0
 11 10  1  0
 12 11  2  0
 12 13  1  0
 13 14  2  0
 14 15  1  0
 15  7  1  0
 16 18  1  0
 16 17  2  0
 18 27  2  0
 19 20  2  0
 19 18  1  0
 20 21  1  0
 21 22  2  0
 22 23  1  0
 23 24  2  0
 25 24  1  0
 26 25  2  0
 27 22  1  0
 27 26  1  0
  1 28  1  0
  2 29  1  0
  8 30  1  0
 11 31  1  0
 13 32  1  0
 20 33  1  0
 23 34  1  0
 24 35  1  0
 25 36  1  0
 26 37  1  0
M  ISO  8  28  14  29  14  30  14  31  14  32  14  33  14  34  14  35  14
M  ISO  2  36  14  37  14
M  END
>  <minimizedAffinity>  (1) 
-6.97721863

>  <minimizedRMSD>  (1) 
0.622009397

$$$$
