
     RDKit          3D

 38 41  0  0  0  0  0  0  0  0999 V2000
   44.4680   36.0880   44.4920 C   0  0  0  0  0  0  0  0  0  0  0  0
   45.2460   35.9830   43.3290 C   0  0  0  0  0  0  0  0  0  0  0  0
   46.1460   34.9280   43.2680 C   0  0  0  0  0  0  0  0  0  0  0  0
   46.2030   34.0910   44.3230 N   0  0  0  0  0  0  0  0  0  0  0  0
   45.4640   34.1880   45.4330 C   0  0  0  0  0  0  0  0  0  0  0  0
   44.5820   35.2080   45.5110 N   0  0  0  0  0  0  0  0  0  0  0  0
   46.9460   34.7970   42.1070 N   0  0  0  0  0  0  0  0  0  0  0  0
   48.2230   35.2820   41.9860 C   0  0  0  0  0  0  0  0  0  0  0  0
   48.7150   34.9900   40.7460 N   0  0  0  0  0  0  0  0  0  0  0  0
   47.7290   34.3260   40.1160 C   0  0  0  0  0  0  0  0  0  0  0  0
   47.6780   33.7910   38.8380 C   0  0  0  0  0  0  0  0  0  0  0  0
   46.5490   33.1680   38.4620 N   0  0  0  0  0  0  0  0  0  0  0  0
   45.5000   33.0650   39.3000 C   0  0  0  0  0  0  0  0  0  0  0  0
   45.4870   33.5640   40.5540 N   0  0  0  0  0  0  0  0  0  0  0  0
   46.6110   34.1950   40.9550 C   0  0  0  0  0  0  0  0  0  0  0  0
   45.5610   33.2580   46.5480 C   0  0  0  0  0  0  0  0  0  0  0  0
   44.8180   33.4000   47.5690 O   0  0  0  0  0  0  0  0  0  0  0  0
   46.4850   32.1780   46.5170 N   0  0  0  0  0  0  0  0  0  0  0  0
   46.4850   31.1310   45.5220 C   0  0  0  0  0  0  0  0  0  0  0  0
   47.7270   30.2920   45.6580 C   0  0  0  0  0  0  0  0  0  0  0  0
   47.6700   29.6160   47.0330 C   0  0  0  0  0  0  0  0  0  0  0  0
   47.5850   30.6700   48.1070 C   0  0  0  0  0  0  0  0  0  0  0  0
   47.5200   32.0650   47.5230 C   0  0  0  0  0  0  0  0  0  0  0  0
   43.7436   36.9114   44.5767 H   0  0  0  0  0  0  0  0  0  0  0  0
   45.1472   36.7035   42.5037 H   0  0  0  0  0  0  0  0  0  0  0  0
   48.7696   35.8253   42.7709 H   0  0  0  0  0  0  0  0  0  0  0  0
   48.5351   33.8741   38.1535 H   0  0  0  0  0  0  0  0  0  0  0  0
   44.6005   32.5433   38.9413 H   0  0  0  0  0  0  0  0  0  0  0  0
   46.4578   31.5817   44.5189 H   0  0  0  0  0  0  0  0  0  0  0  0
   45.6006   30.4935   45.6685 H   0  0  0  0  0  0  0  0  0  0  0  0
   47.7560   29.5305   44.8647 H   0  0  0  0  0  0  0  0  0  0  0  0
   48.6298   30.9136   45.5659 H   0  0  0  0  0  0  0  0  0  0  0  0
   46.7840   28.9662   47.0858 H   0  0  0  0  0  0  0  0  0  0  0  0
   48.5769   29.0117   47.1828 H   0  0  0  0  0  0  0  0  0  0  0  0
   46.6809   30.4934   48.7082 H   0  0  0  0  0  0  0  0  0  0  0  0
   48.4917   30.6008   48.7259 H   0  0  0  0  0  0  0  0  0  0  0  0
   48.4905   32.3047   47.0641 H   0  0  0  0  0  0  0  0  0  0  0  0
   47.2842   32.7663   48.3370 H   0  0  0  0  0  0  0  0  0  0  0  0
  1  6  2  0
  2  1  1  0
  3  2  2  0
  3  4  1  0
  4  5  2  0
  5  6  1  0
  5 16  1  0
  7  3  1  0
  8  7  1  0
  9  8  2  0
 10  9  1  0
 10 15  2  0
 11 10  1  0
 12 11  2  0
 12 13  1  0
 13 14  2  0
 14 15  1  0
 15  7  1  0
 16 17  2  0
 18 16  1  0
 18 23  1  0
 19 20  1  0
 19 18  1  0
 20 21  1  0
 21 22  1  0
 23 22  1  0
  1 24  1  0
  2 25  1  0
  8 26  1  0
 11 27  1  0
 13 28  1  0
 19 29  1  0
 19 30  1  0
 20 31  1  0
 20 32  1  0
 21 33  1  0
 21 34  1  0
 22 35  1  0
 22 36  1  0
 23 37  1  0
 23 38  1  0
M  ISO  8  24  14  25  14  26  14  27  14  28  14  29  13  30  13  31  13
M  ISO  7  32  13  33  13  34  13  35  13  36  13  37  13  38  13
M  END
>  <minimizedAffinity>  (1) 
-6.38856888

>  <minimizedRMSD>  (1) 
0.474008411

$$$$
