
     RDKit          3D

 42 45  0  0  1  0  0  0  0  0999 V2000
   47.1850   30.5700   43.5710 C   0  0  0  0  0  0  0  0  0  0  0  0
   46.4130   31.4590   42.8190 C   0  0  0  0  0  0  0  0  0  0  0  0
   45.6810   32.4580   43.4380 C   0  0  0  0  0  0  0  0  0  0  0  0
   45.7910   32.4740   44.7820 N   0  0  0  0  0  0  0  0  0  0  0  0
   46.5120   31.6490   45.5230 C   0  0  0  0  0  0  0  0  0  0  0  0
   47.1970   30.7110   44.9080 N   0  0  0  0  0  0  0  0  0  0  0  0
   46.5190   31.8030   46.9170 N   0  0  0  0  0  0  0  0  0  0  0  0
   45.5500   32.5970   47.6490 C   0  0  0  0  0  0  0  0  0  0  0  0
   44.7500   31.6580   48.5230 C   0  0  0  0  0  0  0  0  0  0  0  0
   45.5410   30.6260   49.0030 O   0  0  0  0  0  0  0  0  0  0  0  0
   46.8620   31.0350   49.1540 C   0  0  0  0  0  0  0  0  0  0  0  0
   47.4950   31.1870   47.7670 C   0  0  1  0  0  0  0  0  0  0  0  0
   44.8330   33.4470   42.6990 C   0  0  0  0  0  0  0  0  0  0  0  0
   45.0930   34.7620   42.7620 C   0  0  0  0  0  0  0  0  0  0  0  0
   43.8010   35.4900   41.7150 S   0  0  0  0  0  0  0  0  0  0  0  0
   43.0870   33.7610   41.3530 C   0  0  0  0  0  0  0  0  0  0  0  0
   43.8230   33.1000   41.9730 N   0  0  0  0  0  0  0  0  0  0  0  0
   41.9280   33.6910   40.4870 N   0  0  0  0  0  0  0  0  0  0  0  0
   41.6950   34.6430   39.4750 C   0  0  0  0  0  0  0  0  0  0  0  0
   42.7200   35.3140   39.0230 N   0  0  0  0  0  0  0  0  0  0  0  0
   40.3210   34.7470   39.0650 N   0  0  0  0  0  0  0  0  0  0  0  0
   42.5160   35.9740   38.2500 H   0  0  0  0  0  0  0  0  0  0  0  0
   47.9280   29.8350   47.2820 C   0  0  0  0  0  0  0  0  0  0  0  0
   47.0670   28.6730   47.1590 C   0  0  0  0  0  0  0  0  0  0  0  0
   48.2390   27.3690   46.4940 S   0  0  0  0  0  0  0  0  0  0  0  0
   49.6330   28.6540   46.5210 C   0  0  0  0  0  0  0  0  0  0  0  0
   49.1770   29.6030   46.9080 N   0  0  0  0  0  0  0  0  0  0  0  0
   47.7678   29.7755   43.0820 H   0  0  0  0  0  0  0  0  0  0  0  0
   46.3864   31.3643   41.7234 H   0  0  0  0  0  0  0  0  0  0  0  0
   46.0692   33.3388   48.2737 H   0  0  0  0  0  0  0  0  0  0  0  0
   44.8876   33.1328   46.9532 H   0  0  0  0  0  0  0  0  0  0  0  0
   44.3397   32.2215   49.3739 H   0  0  0  0  0  0  0  0  0  0  0  0
   43.9395   31.2244   47.9188 H   0  0  0  0  0  0  0  0  0  0  0  0
   46.8920   31.9998   49.6815 H   0  0  0  0  0  0  0  0  0  0  0  0
   47.4193   30.2883   49.7387 H   0  0  0  0  0  0  0  0  0  0  0  0
   48.3925   31.8229   47.7793 H   0  0  0  0  0  0  0  0  0  0  0  0
   45.8946   35.2745   43.3141 H   0  0  0  0  0  0  0  0  0  0  0  0
   41.2543   32.9225   40.6149 H   0  0  0  0  0  0  0  0  0  0  0  0
   40.0522   35.4166   38.3299 H   0  0  0  0  0  0  0  0  0  0  0  0
   39.6054   34.1520   39.5063 H   0  0  0  0  0  0  0  0  0  0  0  0
   45.9968   28.5806   47.3961 H   0  0  0  0  0  0  0  0  0  0  0  0
   50.6791   28.4998   46.2179 H   0  0  0  0  0  0  0  0  0  0  0  0
  1  6  2  0
  2  3  2  0
  2  1  1  0
  3  4  1  0
  4  5  2  0
  5  7  1  0
  6  5  1  0
  7  8  1  0
  7 12  1  0
  8  9  1  0
  9 10  1  0
 10 11  1  0
 12 11  1  0
 13 14  2  0
 13  3  1  0
 15 14  1  0
 16 15  1  0
 16 17  2  0
 17 13  1  0
 18 16  1  0
 19 18  1  0
 20 19  2  0
 21 19  1  0
 22 20  1  0
 23 12  1  0
 24 23  2  0
 25 26  1  0
 25 24  1  0
 26 27  2  0
 27 23  1  0
  1 28  1  0
  2 29  1  0
  8 30  1  0
  8 31  1  0
  9 32  1  0
  9 33  1  0
 11 34  1  0
 11 35  1  0
 12 36  1  1
 14 37  1  0
 18 38  1  0
 21 39  1  0
 21 40  1  0
 24 41  1  0
 26 42  1  0
M  ISO  8  28  14  29  14  30  13  31  13  32  13  33  13  34  13  35  13
M  ISO  4  36  13  37  14  41  14  42  14
M  END
>  <minimizedAffinity>  (1) 
-5.50161219

>  <minimizedRMSD>  (1) 
0.469633639

$$$$
