
     RDKit          3D

 36 39  0  0  0  0  0  0  0  0999 V2000
   44.4750   36.0310   44.4810 C   0  0  0  0  0  0  0  0  0  0  0  0
   45.2500   35.9370   43.3060 C   0  0  0  0  0  0  0  0  0  0  0  0
   46.1870   34.9140   43.2380 C   0  0  0  0  0  0  0  0  0  0  0  0
   46.2950   34.0710   44.3070 N   0  0  0  0  0  0  0  0  0  0  0  0
   45.5510   34.1720   45.4160 C   0  0  0  0  0  0  0  0  0  0  0  0
   44.6380   35.1520   45.5080 N   0  0  0  0  0  0  0  0  0  0  0  0
   46.9710   34.8060   42.0720 N   0  0  0  0  0  0  0  0  0  0  0  0
   48.2300   35.3310   41.9270 C   0  0  0  0  0  0  0  0  0  0  0  0
   48.7160   35.0540   40.6860 N   0  0  0  0  0  0  0  0  0  0  0  0
   47.7350   34.3500   40.0700 C   0  0  0  0  0  0  0  0  0  0  0  0
   47.6940   33.8190   38.7990 C   0  0  0  0  0  0  0  0  0  0  0  0
   46.5860   33.1620   38.4370 N   0  0  0  0  0  0  0  0  0  0  0  0
   45.5350   33.0210   39.2920 C   0  0  0  0  0  0  0  0  0  0  0  0
   45.5300   33.5250   40.5500 N   0  0  0  0  0  0  0  0  0  0  0  0
   46.6450   34.1940   40.9290 C   0  0  0  0  0  0  0  0  0  0  0  0
   45.6860   33.2620   46.5390 C   0  0  0  0  0  0  0  0  0  0  0  0
   44.8960   33.2930   47.5140 O   0  0  0  0  0  0  0  0  0  0  0  0
   46.7790   32.2850   46.5180 C   0  0  0  0  0  0  0  0  0  0  0  0
   46.2970   30.8920   46.1650 C   0  0  0  0  0  0  0  0  0  0  0  0
   47.5860   30.1120   46.3220 C   0  0  0  0  0  0  0  0  0  0  0  0
   48.1610   30.7030   47.5850 C   0  0  0  0  0  0  0  0  0  0  0  0
   47.4170   32.0090   47.8500 C   0  0  0  0  0  0  0  0  0  0  0  0
   43.7243   36.8301   44.5693 H   0  0  0  0  0  0  0  0  0  0  0  0
   45.1174   36.6464   42.4758 H   0  0  0  0  0  0  0  0  0  0  0  0
   48.7694   35.8949   42.7023 H   0  0  0  0  0  0  0  0  0  0  0  0
   48.5416   33.9312   38.1070 H   0  0  0  0  0  0  0  0  0  0  0  0
   44.6476   32.4716   38.9446 H   0  0  0  0  0  0  0  0  0  0  0  0
   47.4665   32.7546   45.7991 H   0  0  0  0  0  0  0  0  0  0  0  0
   45.9142   30.8426   45.1349 H   0  0  0  0  0  0  0  0  0  0  0  0
   45.4596   30.5256   46.7769 H   0  0  0  0  0  0  0  0  0  0  0  0
   47.3899   29.0359   46.4380 H   0  0  0  0  0  0  0  0  0  0  0  0
   48.2568   30.1861   45.4533 H   0  0  0  0  0  0  0  0  0  0  0  0
   48.0160   30.0091   48.4261 H   0  0  0  0  0  0  0  0  0  0  0  0
   49.2407   30.8832   47.4761 H   0  0  0  0  0  0  0  0  0  0  0  0
   48.1115   32.8133   48.1342 H   0  0  0  0  0  0  0  0  0  0  0  0
   46.6981   31.9477   48.6803 H   0  0  0  0  0  0  0  0  0  0  0  0
  1  6  2  0
  2  1  1  0
  3  2  2  0
  3  4  1  0
  4  5  2  0
  5  6  1  0
  5 16  1  0
  7  3  1  0
  8  7  1  0
  9  8  2  0
 10  9  1  0
 10 15  2  0
 11 10  1  0
 12 11  2  0
 12 13  1  0
 13 14  2  0
 14 15  1  0
 15  7  1  0
 16 17  2  0
 18 16  1  0
 18 22  1  0
 19 20  1  0
 19 18  1  0
 20 21  1  0
 21 22  1  0
  1 23  1  0
  2 24  1  0
  8 25  1  0
 11 26  1  0
 13 27  1  0
 18 28  1  0
 19 29  1  0
 19 30  1  0
 20 31  1  0
 20 32  1  0
 21 33  1  0
 21 34  1  0
 22 35  1  0
 22 36  1  0
M  ISO  8  23  14  24  14  25  14  26  14  27  14  28  13  29  13  30  13
M  ISO  6  31  13  32  13  33  13  34  13  35  13  36  13
M  END
>  <minimizedAffinity>  (1) 
-6.13034058

>  <minimizedRMSD>  (1) 
1.11198795

$$$$
