
     RDKit          3D

 30 33  0  0  0  0  0  0  0  0999 V2000
   44.5140   36.0780   44.4930 C   0  0  0  0  0  0  0  0  0  0  0  0
   45.2920   35.9940   43.3230 C   0  0  0  0  0  0  0  0  0  0  0  0
   46.1780   34.9270   43.2340 C   0  0  0  0  0  0  0  0  0  0  0  0
   46.2190   34.0650   44.2670 N   0  0  0  0  0  0  0  0  0  0  0  0
   45.4800   34.1410   45.3790 C   0  0  0  0  0  0  0  0  0  0  0  0
   44.6220   35.1620   45.4830 N   0  0  0  0  0  0  0  0  0  0  0  0
   46.9720   34.8260   42.0650 N   0  0  0  0  0  0  0  0  0  0  0  0
   48.2170   35.3590   41.9220 C   0  0  0  0  0  0  0  0  0  0  0  0
   48.7100   35.0870   40.6830 N   0  0  0  0  0  0  0  0  0  0  0  0
   47.7430   34.3750   40.0620 C   0  0  0  0  0  0  0  0  0  0  0  0
   47.7020   33.8360   38.7910 C   0  0  0  0  0  0  0  0  0  0  0  0
   46.5920   33.1610   38.4280 N   0  0  0  0  0  0  0  0  0  0  0  0
   45.5640   33.0220   39.2840 C   0  0  0  0  0  0  0  0  0  0  0  0
   45.5460   33.5270   40.5390 N   0  0  0  0  0  0  0  0  0  0  0  0
   46.6480   34.2050   40.9190 C   0  0  0  0  0  0  0  0  0  0  0  0
   45.5670   33.1770   46.4650 C   0  0  0  0  0  0  0  0  0  0  0  0
   44.9430   33.3770   47.5530 O   0  0  0  0  0  0  0  0  0  0  0  0
   47.8850   30.4950   46.8410 N   0  0  0  0  0  0  0  0  0  0  0  0
   47.4010   31.6990   47.1880 N   0  0  0  0  0  0  0  0  0  0  0  0
   46.3530   31.9510   46.3830 C   0  0  0  0  0  0  0  0  0  0  0  0
   46.2140   30.8690   45.5390 C   0  0  0  0  0  0  0  0  0  0  0  0
   47.1900   29.9410   45.8300 C   0  0  0  0  0  0  0  0  0  0  0  0
   43.8011   36.9082   44.6052 H   0  0  0  0  0  0  0  0  0  0  0  0
   45.2029   36.7376   42.5173 H   0  0  0  0  0  0  0  0  0  0  0  0
   48.7489   35.9288   42.6981 H   0  0  0  0  0  0  0  0  0  0  0  0
   48.5474   33.9534   38.0971 H   0  0  0  0  0  0  0  0  0  0  0  0
   44.6813   32.4618   38.9418 H   0  0  0  0  0  0  0  0  0  0  0  0
   48.6938   30.0477   47.2956 H   0  0  0  0  0  0  0  0  0  0  0  0
   45.4464   30.7637   44.7581 H   0  0  0  0  0  0  0  0  0  0  0  0
   47.3622   28.9683   45.3461 H   0  0  0  0  0  0  0  0  0  0  0  0
  1  6  2  0
  2  1  1  0
  3  2  2  0
  3  4  1  0
  4  5  2  0
  5  6  1  0
  5 16  1  0
  7  3  1  0
  8  7  1  0
  9  8  2  0
 10  9  1  0
 10 15  2  0
 11 10  1  0
 12 11  2  0
 12 13  1  0
 13 14  2  0
 14 15  1  0
 15  7  1  0
 16 17  2  0
 18 19  1  0
 20 16  1  0
 20 19  2  0
 21 22  2  0
 21 20  1  0
 22 18  1  0
  1 23  1  0
  2 24  1  0
  8 25  1  0
 11 26  1  0
 13 27  1  0
 18 28  1  0
 21 29  1  0
 22 30  1  0
M  ISO  8  23  14  24  14  25  14  26  14  27  14  28   9  29  14  30  14
M  END
>  <minimizedAffinity>  (1) 
-5.81754255

>  <minimizedRMSD>  (1) 
0.528125823

$$$$
