
     RDKit          3D

 25 27  0  0  0  0  0  0  0  0999 V2000
   44.5470   35.8590   44.3550 C   0  0  0  0  0  0  0  0  0  0  0  0
   45.3470   35.8560   43.1960 C   0  0  0  0  0  0  0  0  0  0  0  0
   46.3600   34.9040   43.1120 C   0  0  0  0  0  0  0  0  0  0  0  0
   46.5040   34.0510   44.1480 N   0  0  0  0  0  0  0  0  0  0  0  0
   45.7430   34.0540   45.2500 C   0  0  0  0  0  0  0  0  0  0  0  0
   44.7550   34.9630   45.3590 N   0  0  0  0  0  0  0  0  0  0  0  0
   47.1660   34.8960   41.9510 N   0  0  0  0  0  0  0  0  0  0  0  0
   48.3650   35.5320   41.8280 C   0  0  0  0  0  0  0  0  0  0  0  0
   48.8910   35.3340   40.5970 N   0  0  0  0  0  0  0  0  0  0  0  0
   47.9840   34.5520   39.9470 C   0  0  0  0  0  0  0  0  0  0  0  0
   47.9910   34.0360   38.6560 C   0  0  0  0  0  0  0  0  0  0  0  0
   46.9470   33.2860   38.2790 N   0  0  0  0  0  0  0  0  0  0  0  0
   45.9230   33.0390   39.1170 C   0  0  0  0  0  0  0  0  0  0  0  0
   45.8680   33.5200   40.3840 N   0  0  0  0  0  0  0  0  0  0  0  0
   46.9160   34.2830   40.7880 C   0  0  0  0  0  0  0  0  0  0  0  0
   45.9170   33.1260   46.3490 C   0  0  0  0  0  0  0  0  0  0  0  0
   45.1490   33.0880   47.3330 O   0  0  0  0  0  0  0  0  0  0  0  0
   46.9760   32.1780   46.4110 N   0  0  0  0  0  0  0  0  0  0  0  0
   43.7389   36.5991   44.4510 H   0  0  0  0  0  0  0  0  0  0  0  0
   45.1777   36.5802   42.3855 H   0  0  0  0  0  0  0  0  0  0  0  0
   48.8409   36.1261   42.6221 H   0  0  0  0  0  0  0  0  0  0  0  0
   48.8252   34.2367   37.9677 H   0  0  0  0  0  0  0  0  0  0  0  0
   45.0904   32.4169   38.7568 H   0  0  0  0  0  0  0  0  0  0  0  0
   47.0511   31.5418   47.2175 H   0  0  0  0  0  0  0  0  0  0  0  0
   47.6676   32.1278   45.6493 H   0  0  0  0  0  0  0  0  0  0  0  0
  1  6  2  0
  2  1  1  0
  3  2  2  0
  3  4  1  0
  4  5  2  0
  5  6  1  0
  5 16  1  0
  7  3  1  0
  8  7  1  0
  9  8  2  0
 10  9  1  0
 10 15  2  0
 11 10  1  0
 12 11  2  0
 12 13  1  0
 13 14  2  0
 14 15  1  0
 15  7  1  0
 16 18  1  0
 16 17  2  0
  1 19  1  0
  2 20  1  0
  8 21  1  0
 11 22  1  0
 13 23  1  0
 18 24  1  0
 18 25  1  0
M  ISO  5  19  14  20  14  21  14  22  14  23  14
M  END
>  <minimizedAffinity>  (1) 
-5.46865225

>  <minimizedRMSD>  (1) 
0.0751935467

$$$$
