
     RDKit          3D

 43 46  0  0  1  0  0  0  0  0999 V2000
   49.2650   30.4420   43.4490 C   0  0  0  0  0  0  0  0  0  0  0  0
   48.5720   31.5680   42.9940 C   0  0  0  0  0  0  0  0  0  0  0  0
   47.4160   31.9950   43.6240 C   0  0  0  0  0  0  0  0  0  0  0  0
   47.0490   31.2340   44.6820 N   0  0  0  0  0  0  0  0  0  0  0  0
   47.6810   30.1660   45.1360 C   0  0  0  0  0  0  0  0  0  0  0  0
   48.7780   29.7830   44.5170 N   0  0  0  0  0  0  0  0  0  0  0  0
   47.1480   29.5000   46.2540 N   0  0  0  0  0  0  0  0  0  0  0  0
   45.8240   29.6580   46.7690 C   0  0  0  0  0  0  0  0  0  0  0  0
   45.0700   28.3600   46.5660 C   0  0  0  0  0  0  0  0  0  0  0  0
   45.9120   27.2670   46.7400 O   0  0  0  0  0  0  0  0  0  0  0  0
   46.9370   27.5270   47.6150 C   0  0  0  0  0  0  0  0  0  0  0  0
   47.8970   28.5540   47.0270 C   0  0  2  0  0  0  0  0  0  0  0  0
   46.6240   33.1870   43.1940 C   0  0  0  0  0  0  0  0  0  0  0  0
   47.2350   34.3780   42.9590 C   0  0  0  0  0  0  0  0  0  0  0  0
   45.8340   35.4450   42.4780 S   0  0  0  0  0  0  0  0  0  0  0  0
   44.6170   33.9980   42.6970 C   0  0  0  0  0  0  0  0  0  0  0  0
   45.3430   33.1490   43.0260 N   0  0  0  0  0  0  0  0  0  0  0  0
   43.2350   34.2920   42.4260 N   0  0  0  0  0  0  0  0  0  0  0  0
   42.8010   35.2570   41.5250 C   0  0  0  0  0  0  0  0  0  0  0  0
   43.6280   35.5790   40.5890 N   0  0  0  0  0  0  0  0  0  0  0  0
   41.4890   35.7900   41.7290 N   0  0  0  0  0  0  0  0  0  0  0  0
   43.3010   36.2520   39.8590 H   0  0  0  0  0  0  0  0  0  0  0  0
   48.5470   29.2460   48.1490 N   0  0  0  0  0  0  0  0  0  0  0  0
   49.5820   28.7800   48.8650 N   0  0  0  0  0  0  0  0  0  0  0  0
   49.9250   29.6640   49.8100 C   0  0  0  0  0  0  0  0  0  0  0  0
   49.0430   30.7280   49.6570 C   0  0  0  0  0  0  0  0  0  0  0  0
   48.1780   30.4600   48.6090 C   0  0  0  0  0  0  0  0  0  0  0  0
   50.1837   30.1037   42.9475 H   0  0  0  0  0  0  0  0  0  0  0  0
   48.9510   32.1224   42.1228 H   0  0  0  0  0  0  0  0  0  0  0  0
   45.8694   29.8966   47.8418 H   0  0  0  0  0  0  0  0  0  0  0  0
   45.3112   30.4773   46.2439 H   0  0  0  0  0  0  0  0  0  0  0  0
   44.6572   28.3385   45.5466 H   0  0  0  0  0  0  0  0  0  0  0  0
   44.2604   28.3029   47.3085 H   0  0  0  0  0  0  0  0  0  0  0  0
   46.5197   27.9186   48.5544 H   0  0  0  0  0  0  0  0  0  0  0  0
   47.4879   26.5937   47.8030 H   0  0  0  0  0  0  0  0  0  0  0  0
   48.6471   28.0715   46.3831 H   0  0  0  0  0  0  0  0  0  0  0  0
   48.3019   34.6339   43.0384 H   0  0  0  0  0  0  0  0  0  0  0  0
   42.5199   33.7515   42.9333 H   0  0  0  0  0  0  0  0  0  0  0  0
   41.1195   36.5078   41.0893 H   0  0  0  0  0  0  0  0  0  0  0  0
   40.9140   35.4559   42.5155 H   0  0  0  0  0  0  0  0  0  0  0  0
   50.7330   29.5689   50.5503 H   0  0  0  0  0  0  0  0  0  0  0  0
   49.0337   31.6399   50.2721 H   0  0  0  0  0  0  0  0  0  0  0  0
   47.3654   31.0989   48.2327 H   0  0  0  0  0  0  0  0  0  0  0  0
  1  6  2  0
  2  1  1  0
  2  3  2  0
  3  4  1  0
  4  5  2  0
  5  7  1  0
  6  5  1  0
  7  8  1  0
  7 12  1  0
  9 10  1  0
  9  8  1  0
 10 11  1  0
 12 11  1  0
 12 23  1  0
 13  3  1  0
 14 13  2  0
 15 16  1  0
 15 14  1  0
 16 17  2  0
 17 13  1  0
 18 16  1  0
 19 21  1  0
 19 18  1  0
 20 19  2  0
 22 20  1  0
 23 27  1  0
 23 24  1  0
 24 25  2  0
 26 25  1  0
 27 26  2  0
  1 28  1  0
  2 29  1  0
  8 30  1  0
  8 31  1  0
  9 32  1  0
  9 33  1  0
 11 34  1  0
 11 35  1  0
 12 36  1  6
 14 37  1  0
 18 38  1  0
 21 39  1  0
 21 40  1  0
 25 41  1  0
 26 42  1  0
 27 43  1  0
M  ISO  8  28  14  29  14  30  13  31  13  32  13  33  13  34  13  35  13
M  ISO  5  36  13  37  14  41  14  42  14  43  14
M  END
>  <minimizedAffinity>  (1) 
-5.48769045

>  <minimizedRMSD>  (1) 
2.79855251

$$$$
