
     RDKit          3D

 46 50  0  0  0  0  0  0  0  0999 V2000
   45.6650   32.8460   47.1310 C   0  0  0  0  0  0  0  0  0  0  0  0
   44.6900   32.8130   47.9240 O   0  0  0  0  0  0  0  0  0  0  0  0
   46.7540   31.9750   47.5120 C   0  0  0  0  0  0  0  0  0  0  0  0
   47.7780   32.4430   48.3220 C   0  0  0  0  0  0  0  0  0  0  0  0
   48.8250   31.5890   48.6820 C   0  0  0  0  0  0  0  0  0  0  0  0
   48.8790   30.2680   48.2530 C   0  0  0  0  0  0  0  0  0  0  0  0
   47.8440   29.8220   47.4430 C   0  0  0  0  0  0  0  0  0  0  0  0
   46.8180   30.6720   47.0950 C   0  0  0  0  0  0  0  0  0  0  0  0
   45.8250   30.0750   46.2720 N   0  0  0  0  0  0  0  0  0  0  0  0
   45.9270   30.1360   44.9140 C   0  0  0  0  0  0  0  0  0  0  0  0
   44.9870   29.5790   44.0950 C   0  0  0  0  0  0  0  0  0  0  0  0
   45.1010   29.6470   42.6140 C   0  0  0  0  0  0  0  0  0  0  0  0
   43.9030   28.9380   44.6580 C   0  0  0  0  0  0  0  0  0  0  0  0
   42.9960   28.4010   44.0000 O   0  0  0  0  0  0  0  0  0  0  0  0
   43.8900   28.9290   46.0060 N   0  0  0  0  0  0  0  0  0  0  0  0
   44.7820   29.4570   46.8600 C   0  0  0  0  0  0  0  0  0  0  0  0
   44.6140   29.3580   48.0980 O   0  0  0  0  0  0  0  0  0  0  0  0
   44.6940   35.4990   44.8200 C   0  0  0  0  0  0  0  0  0  0  0  0
   45.5730   35.3420   43.7220 C   0  0  0  0  0  0  0  0  0  0  0  0
   46.4990   34.2960   43.8140 C   0  0  0  0  0  0  0  0  0  0  0  0
   46.4750   33.5350   44.9300 N   0  0  0  0  0  0  0  0  0  0  0  0
   45.6320   33.7030   45.9590 C   0  0  0  0  0  0  0  0  0  0  0  0
   44.7360   34.6920   45.9030 N   0  0  0  0  0  0  0  0  0  0  0  0
   47.3870   34.1170   42.7310 N   0  0  0  0  0  0  0  0  0  0  0  0
   48.7390   34.2380   42.7990 C   0  0  0  0  0  0  0  0  0  0  0  0
   49.3050   33.9990   41.5690 N   0  0  0  0  0  0  0  0  0  0  0  0
   48.2530   33.7280   40.7470 C   0  0  0  0  0  0  0  0  0  0  0  0
   48.2400   33.4170   39.4030 C   0  0  0  0  0  0  0  0  0  0  0  0
   47.0310   33.1900   38.8330 N   0  0  0  0  0  0  0  0  0  0  0  0
   45.8990   33.2700   39.5590 C   0  0  0  0  0  0  0  0  0  0  0  0
   45.8810   33.5700   40.8670 N   0  0  0  0  0  0  0  0  0  0  0  0
   47.0650   33.8000   41.4680 C   0  0  0  0  0  0  0  0  0  0  0  0
   47.7665   33.4830   48.6802 H   0  0  0  0  0  0  0  0  0  0  0  0
   49.6305   31.9744   49.3243 H   0  0  0  0  0  0  0  0  0  0  0  0
   49.7068   29.6043   48.5431 H   0  0  0  0  0  0  0  0  0  0  0  0
   47.8433   28.7846   47.0773 H   0  0  0  0  0  0  0  0  0  0  0  0
   46.7908   30.6483   44.4653 H   0  0  0  0  0  0  0  0  0  0  0  0
   46.0162   30.1929   42.3414 H   0  0  0  0  0  0  0  0  0  0  0  0
   45.1457   28.6278   42.2025 H   0  0  0  0  0  0  0  0  0  0  0  0
   44.2255   30.1705   42.2025 H   0  0  0  0  0  0  0  0  0  0  0  0
   43.0867   28.4523   46.4400 H   0  0  0  0  0  0  0  0  0  0  0  0
   43.9491   36.3079   44.7907 H   0  0  0  0  0  0  0  0  0  0  0  0
   45.5310   36.0049   42.8452 H   0  0  0  0  0  0  0  0  0  0  0  0
   49.3012   34.4915   43.7098 H   0  0  0  0  0  0  0  0  0  0  0  0
   49.1702   33.3559   38.8191 H   0  0  0  0  0  0  0  0  0  0  0  0
   44.9405   33.0797   39.0539 H   0  0  0  0  0  0  0  0  0  0  0  0
  1  3  1  0
  1  2  2  0
  3  4  2  0
  4  5  1  0
  6  5  2  0
  7  6  1  0
  8  7  2  0
  8  3  1  0
  9 16  1  0
  9  8  1  0
 10  9  1  0
 11 13  1  0
 11 10  2  0
 12 11  1  0
 13 15  1  0
 14 13  2  0
 15 16  1  0
 16 17  2  0
 18 23  2  0
 19 20  2  0
 19 18  1  0
 20 21  1  0
 21 22  2  0
 22  1  1  0
 23 22  1  0
 24 25  1  0
 24 20  1  0
 26 25  2  0
 27 32  2  0
 27 26  1  0
 28 27  1  0
 29 28  2  0
 29 30  1  0
 30 31  2  0
 31 32  1  0
 32 24  1  0
  4 33  1  0
  5 34  1  0
  6 35  1  0
  7 36  1  0
 10 37  1  0
 12 38  1  0
 12 39  1  0
 12 40  1  0
 15 41  1  0
 18 42  1  0
 19 43  1  0
 25 44  1  0
 28 45  1  0
 30 46  1  0
M  ISO  8  33  14  34  14  35  14  36  14  37  14  38   8  39   8  40   8
M  ISO  6  41   9  42  14  43  14  44  14  45  14  46  14
M  END
>  <minimizedAffinity>  (1) 
-6.57749128

>  <minimizedRMSD>  (1) 
1.78197575

$$$$
