
     RDKit          3D

 44 48  0  0  0  0  0  0  0  0999 V2000
   45.6840   32.7790   47.1660 C   0  0  0  0  0  0  0  0  0  0  0  0
   44.6960   32.7100   47.9390 O   0  0  0  0  0  0  0  0  0  0  0  0
   46.7920   31.9420   47.5760 C   0  0  0  0  0  0  0  0  0  0  0  0
   47.8100   32.4530   48.3740 C   0  0  0  0  0  0  0  0  0  0  0  0
   48.8700   31.6120   48.7500 C   0  0  0  0  0  0  0  0  0  0  0  0
   48.9490   30.2820   48.3570 C   0  0  0  0  0  0  0  0  0  0  0  0
   47.9170   29.8000   47.5600 C   0  0  0  0  0  0  0  0  0  0  0  0
   46.8880   30.6290   47.1990 C   0  0  0  0  0  0  0  0  0  0  0  0
   45.9030   29.9820   46.3950 N   0  0  0  0  0  0  0  0  0  0  0  0
   45.9560   29.9980   45.0420 C   0  0  0  0  0  0  0  0  0  0  0  0
   45.0450   29.4080   44.2050 C   0  0  0  0  0  0  0  0  0  0  0  0
   43.9880   28.7430   44.7930 C   0  0  0  0  0  0  0  0  0  0  0  0
   43.0160   28.1150   43.9650 N   0  0  0  0  0  0  0  0  0  0  0  0
   43.9130   28.7130   46.1360 N   0  0  0  0  0  0  0  0  0  0  0  0
   44.8470   29.3160   46.8920 C   0  0  0  0  0  0  0  0  0  0  0  0
   44.6990   29.2370   48.1390 O   0  0  0  0  0  0  0  0  0  0  0  0
   44.7250   35.4390   44.8460 C   0  0  0  0  0  0  0  0  0  0  0  0
   45.6050   35.2770   43.7480 C   0  0  0  0  0  0  0  0  0  0  0  0
   46.5340   34.2160   43.8450 C   0  0  0  0  0  0  0  0  0  0  0  0
   46.5040   33.4640   44.9540 N   0  0  0  0  0  0  0  0  0  0  0  0
   45.6600   33.6330   45.9900 C   0  0  0  0  0  0  0  0  0  0  0  0
   44.7710   34.6240   45.9320 N   0  0  0  0  0  0  0  0  0  0  0  0
   47.4200   34.0340   42.7630 N   0  0  0  0  0  0  0  0  0  0  0  0
   48.7690   34.1180   42.8370 C   0  0  0  0  0  0  0  0  0  0  0  0
   49.3310   33.8890   41.6100 N   0  0  0  0  0  0  0  0  0  0  0  0
   48.2750   33.6580   40.7690 C   0  0  0  0  0  0  0  0  0  0  0  0
   48.2500   33.3740   39.4240 C   0  0  0  0  0  0  0  0  0  0  0  0
   47.0410   33.1920   38.8490 N   0  0  0  0  0  0  0  0  0  0  0  0
   45.9060   33.2860   39.5700 C   0  0  0  0  0  0  0  0  0  0  0  0
   45.9000   33.5620   40.8870 N   0  0  0  0  0  0  0  0  0  0  0  0
   47.0880   33.7510   41.4960 C   0  0  0  0  0  0  0  0  0  0  0  0
   47.7852   33.5014   48.7061 H   0  0  0  0  0  0  0  0  0  0  0  0
   49.6709   32.0235   49.3819 H   0  0  0  0  0  0  0  0  0  0  0  0
   49.7887   29.6403   48.6621 H   0  0  0  0  0  0  0  0  0  0  0  0
   47.9267   28.7540   47.2196 H   0  0  0  0  0  0  0  0  0  0  0  0
   46.7998   30.5282   44.5763 H   0  0  0  0  0  0  0  0  0  0  0  0
   45.1517   29.4621   43.1115 H   0  0  0  0  0  0  0  0  0  0  0  0
   42.2222   27.6154   44.3907 H   0  0  0  0  0  0  0  0  0  0  0  0
   43.1062   28.1600   42.9399 H   0  0  0  0  0  0  0  0  0  0  0  0
   43.9817   36.2494   44.8186 H   0  0  0  0  0  0  0  0  0  0  0  0
   45.5676   35.9388   42.8702 H   0  0  0  0  0  0  0  0  0  0  0  0
   49.3343   34.3392   43.7544 H   0  0  0  0  0  0  0  0  0  0  0  0
   49.1783   33.2979   38.8388 H   0  0  0  0  0  0  0  0  0  0  0  0
   44.9438   33.1305   39.0601 H   0  0  0  0  0  0  0  0  0  0  0  0
  1  3  1  0
  1  2  2  0
  3  4  2  0
  4  5  1  0
  6  5  2  0
  7  6  1  0
  8  7  2  0
  8  3  1  0
  9 15  1  0
  9  8  1  0
 10  9  1  0
 11 12  1  0
 11 10  2  0
 12 14  2  0
 13 12  1  0
 14 15  1  0
 15 16  2  0
 17 22  2  0
 18 19  2  0
 18 17  1  0
 19 20  1  0
 20 21  2  0
 21  1  1  0
 22 21  1  0
 23 24  1  0
 23 19  1  0
 25 24  2  0
 26 31  2  0
 26 25  1  0
 27 26  1  0
 28 27  2  0
 28 29  1  0
 29 30  2  0
 30 31  1  0
 31 23  1  0
  4 32  1  0
  5 33  1  0
  6 34  1  0
  7 35  1  0
 10 36  1  0
 11 37  1  0
 13 38  1  0
 13 39  1  0
 17 40  1  0
 18 41  1  0
 24 42  1  0
 27 43  1  0
 29 44  1  0
M  ISO  8  32  14  33  14  34  14  35  14  36  14  37  14  40  14  41  14
M  ISO  3  42  14  43  14  44  14
M  END
>  <minimizedAffinity>  (1) 
-6.45612288

>  <minimizedRMSD>  (1) 
1.87168515

$$$$
