
     RDKit          3D

 41 45  0  0  0  0  0  0  0  0999 V2000
   44.6040   35.6180   44.8240 C   0  0  0  0  0  0  0  0  0  0  0  0
   45.4560   35.4440   43.7080 C   0  0  0  0  0  0  0  0  0  0  0  0
   46.3750   34.3820   43.7860 C   0  0  0  0  0  0  0  0  0  0  0  0
   46.3670   33.6320   44.9000 N   0  0  0  0  0  0  0  0  0  0  0  0
   45.5510   33.8150   45.9450 C   0  0  0  0  0  0  0  0  0  0  0  0
   44.6630   34.8090   45.9170 N   0  0  0  0  0  0  0  0  0  0  0  0
   47.2280   34.1820   42.6810 N   0  0  0  0  0  0  0  0  0  0  0  0
   48.5650   34.3080   42.7110 C   0  0  0  0  0  0  0  0  0  0  0  0
   49.0950   34.0500   41.4740 N   0  0  0  0  0  0  0  0  0  0  0  0
   48.0340   33.7610   40.6860 C   0  0  0  0  0  0  0  0  0  0  0  0
   48.0000   33.4270   39.3400 C   0  0  0  0  0  0  0  0  0  0  0  0
   46.7750   33.1850   38.8050 N   0  0  0  0  0  0  0  0  0  0  0  0
   45.6500   33.2700   39.5560 C   0  0  0  0  0  0  0  0  0  0  0  0
   45.6580   33.5920   40.8600 N   0  0  0  0  0  0  0  0  0  0  0  0
   46.8680   33.8400   41.4240 C   0  0  0  0  0  0  0  0  0  0  0  0
   45.5640   32.9360   47.1220 C   0  0  0  0  0  0  0  0  0  0  0  0
   44.6320   32.9600   47.9570 O   0  0  0  0  0  0  0  0  0  0  0  0
   46.6000   31.9830   47.4480 C   0  0  0  0  0  0  0  0  0  0  0  0
   47.6640   32.3690   48.2630 C   0  0  0  0  0  0  0  0  0  0  0  0
   48.7020   31.4850   48.5540 C   0  0  0  0  0  0  0  0  0  0  0  0
   48.7140   30.1940   48.0430 C   0  0  0  0  0  0  0  0  0  0  0  0
   47.6440   29.8310   47.2340 C   0  0  0  0  0  0  0  0  0  0  0  0
   46.6130   30.7130   46.9500 C   0  0  0  0  0  0  0  0  0  0  0  0
   45.6140   30.0740   46.1150 C   0  0  0  0  0  0  0  0  0  0  0  0
   44.6380   29.1990   46.5380 C   0  0  0  0  0  0  0  0  0  0  0  0
   43.7400   28.5480   45.7280 C   0  0  0  0  0  0  0  0  0  0  0  0
   43.7870   28.7560   44.4000 N   0  0  0  0  0  0  0  0  0  0  0  0
   44.7270   29.6030   43.9470 C   0  0  0  0  0  0  0  0  0  0  0  0
   45.5790   30.2130   44.7850 N   0  0  0  0  0  0  0  0  0  0  0  0
   43.8683   36.4356   44.8078 H   0  0  0  0  0  0  0  0  0  0  0  0
   45.4027   36.1024   42.8285 H   0  0  0  0  0  0  0  0  0  0  0  0
   49.1508   34.5796   43.6015 H   0  0  0  0  0  0  0  0  0  0  0  0
   48.9177   33.3615   38.7370 H   0  0  0  0  0  0  0  0  0  0  0  0
   44.6827   33.0652   39.0739 H   0  0  0  0  0  0  0  0  0  0  0  0
   47.6844   33.3858   48.6823 H   0  0  0  0  0  0  0  0  0  0  0  0
   49.5275   31.8167   49.2010 H   0  0  0  0  0  0  0  0  0  0  0  0
   49.5310   29.4925   48.2677 H   0  0  0  0  0  0  0  0  0  0  0  0
   47.6144   28.8173   46.8079 H   0  0  0  0  0  0  0  0  0  0  0  0
   44.5720   29.0047   47.6187 H   0  0  0  0  0  0  0  0  0  0  0  0
   42.9926   27.8659   46.1594 H   0  0  0  0  0  0  0  0  0  0  0  0
   44.7993   29.8002   42.8672 H   0  0  0  0  0  0  0  0  0  0  0  0
  1  6  2  0
  2  3  2  0
  2  1  1  0
  3  4  1  0
  4  5  2  0
  5 16  1  0
  6  5  1  0
  7  8  1  0
  7  3  1  0
  9  8  2  0
 10 15  2  0
 10  9  1  0
 11 10  1  0
 12 11  2  0
 12 13  1  0
 13 14  2  0
 14 15  1  0
 15  7  1  0
 16 18  1  0
 16 17  2  0
 18 19  2  0
 19 20  1  0
 21 20  2  0
 22 21  1  0
 23 22  2  0
 23 18  1  0
 24 25  2  0
 24 23  1  0
 26 25  1  0
 27 26  2  0
 28 27  1  0
 28 29  2  0
 29 24  1  0
  1 30  1  0
  2 31  1  0
  8 32  1  0
 11 33  1  0
 13 34  1  0
 19 35  1  0
 20 36  1  0
 21 37  1  0
 22 38  1  0
 25 39  1  0
 26 40  1  0
 28 41  1  0
M  ISO  8  30  14  31  14  32  14  33  14  34  14  35  14  36  14  37  14
M  ISO  4  38  14  39  14  40  14  41  14
M  END
>  <minimizedAffinity>  (1) 
-6.32730627

>  <minimizedRMSD>  (1) 
1.55172896

$$$$
