
     RDKit          3D

 46 50  0  0  0  0  0  0  0  0999 V2000
   44.6180   35.5910   44.8460 C   0  0  0  0  0  0  0  0  0  0  0  0
   45.4720   35.4310   43.7250 C   0  0  0  0  0  0  0  0  0  0  0  0
   46.4000   34.3650   43.7860 C   0  0  0  0  0  0  0  0  0  0  0  0
   46.3860   33.6100   44.8930 N   0  0  0  0  0  0  0  0  0  0  0  0
   45.5650   33.7750   45.9530 C   0  0  0  0  0  0  0  0  0  0  0  0
   44.6830   34.7690   45.9210 N   0  0  0  0  0  0  0  0  0  0  0  0
   47.2470   34.1750   42.6800 N   0  0  0  0  0  0  0  0  0  0  0  0
   48.5830   34.3050   42.6970 C   0  0  0  0  0  0  0  0  0  0  0  0
   49.1050   34.0540   41.4540 N   0  0  0  0  0  0  0  0  0  0  0  0
   48.0390   33.7660   40.6740 C   0  0  0  0  0  0  0  0  0  0  0  0
   47.9940   33.4370   39.3360 C   0  0  0  0  0  0  0  0  0  0  0  0
   46.7590   33.1920   38.8060 N   0  0  0  0  0  0  0  0  0  0  0  0
   45.6460   33.2700   39.5640 C   0  0  0  0  0  0  0  0  0  0  0  0
   45.6640   33.5880   40.8670 N   0  0  0  0  0  0  0  0  0  0  0  0
   46.8780   33.8380   41.4290 C   0  0  0  0  0  0  0  0  0  0  0  0
   45.6050   32.8960   47.1200 C   0  0  0  0  0  0  0  0  0  0  0  0
   44.6530   32.8840   47.9410 O   0  0  0  0  0  0  0  0  0  0  0  0
   46.6770   31.9850   47.4610 C   0  0  0  0  0  0  0  0  0  0  0  0
   47.6800   32.3970   48.3360 C   0  0  0  0  0  0  0  0  0  0  0  0
   48.7240   31.5040   48.6290 C   0  0  0  0  0  0  0  0  0  0  0  0
   48.7990   30.2330   48.0850 C   0  0  0  0  0  0  0  0  0  0  0  0
   47.7790   29.8560   47.2170 C   0  0  0  0  0  0  0  0  0  0  0  0
   46.7430   30.7270   46.9210 C   0  0  0  0  0  0  0  0  0  0  0  0
   45.7160   30.0980   46.0490 C   0  0  0  0  0  0  0  0  0  0  0  0
   44.6470   29.4460   46.9320 C   0  0  0  0  0  0  0  0  0  0  0  0
   44.9170   27.9700   46.8690 C   0  0  0  0  0  0  0  0  0  0  0  0
   45.8300   27.6860   45.7310 C   0  0  0  0  0  0  0  0  0  0  0  0
   46.2100   29.0050   45.1770 C   0  0  0  0  0  0  0  0  0  0  0  0
   43.8806   36.4072   44.8425 H   0  0  0  0  0  0  0  0  0  0  0  0
   45.4157   36.1005   42.8540 H   0  0  0  0  0  0  0  0  0  0  0  0
   49.1757   34.5749   43.5834 H   0  0  0  0  0  0  0  0  0  0  0  0
   48.9070   33.3749   38.7256 H   0  0  0  0  0  0  0  0  0  0  0  0
   44.6753   33.0625   39.0900 H   0  0  0  0  0  0  0  0  0  0  0  0
   47.6549   33.3997   48.7875 H   0  0  0  0  0  0  0  0  0  0  0  0
   49.5158   31.8284   49.3202 H   0  0  0  0  0  0  0  0  0  0  0  0
   49.6278   29.5518   48.3281 H   0  0  0  0  0  0  0  0  0  0  0  0
   47.7953   28.8552   46.7607 H   0  0  0  0  0  0  0  0  0  0  0  0
   45.3543   30.9182   45.4115 H   0  0  0  0  0  0  0  0  0  0  0  0
   44.7310   29.8079   47.9673 H   0  0  0  0  0  0  0  0  0  0  0  0
   43.6309   29.6891   46.5879 H   0  0  0  0  0  0  0  0  0  0  0  0
   45.3870   27.6420   47.8079 H   0  0  0  0  0  0  0  0  0  0  0  0
   43.9705   27.4279   46.7264 H   0  0  0  0  0  0  0  0  0  0  0  0
   46.7223   27.1468   46.0817 H   0  0  0  0  0  0  0  0  0  0  0  0
   45.3454   27.0537   44.9725 H   0  0  0  0  0  0  0  0  0  0  0  0
   47.3061   29.0657   45.1068 H   0  0  0  0  0  0  0  0  0  0  0  0
   45.7587   29.1147   44.1798 H   0  0  0  0  0  0  0  0  0  0  0  0
  1  6  2  0
  2  3  2  0
  2  1  1  0
  3  4  1  0
  4  5  2  0
  5 16  1  0
  6  5  1  0
  7  8  1  0
  7  3  1  0
  9  8  2  0
 10 15  2  0
 10  9  1  0
 11 10  1  0
 12 11  2  0
 12 13  1  0
 13 14  2  0
 14 15  1  0
 15  7  1  0
 16 18  1  0
 16 17  2  0
 18 19  2  0
 19 20  1  0
 21 20  2  0
 22 21  1  0
 23 22  2  0
 23 18  1  0
 24 23  1  0
 24 25  1  0
 26 25  1  0
 27 26  1  0
 28 27  1  0
 28 24  1  0
  1 29  1  0
  2 30  1  0
  8 31  1  0
 11 32  1  0
 13 33  1  0
 19 34  1  0
 20 35  1  0
 21 36  1  0
 22 37  1  0
 24 38  1  0
 25 39  1  0
 25 40  1  0
 26 41  1  0
 26 42  1  0
 27 43  1  0
 27 44  1  0
 28 45  1  0
 28 46  1  0
M  ISO  8  29  14  30  14  31  14  32  14  33  14  34  14  35  14  36  14
M  ISO  8  37  14  38  13  39  13  40  13  41  13  42  13  43  13  44  13
M  ISO  2  45  13  46  13
M  END
>  <minimizedAffinity>  (1) 
-6.23429346

>  <minimizedRMSD>  (1) 
1.65060186

$$$$
