
     RDKit          3D

 42 44  0  0  1  0  0  0  0  0999 V2000
   47.5940   31.0300   43.6350 C   0  0  0  0  0  0  0  0  0  0  0  0
   46.7630   31.8660   42.8740 C   0  0  0  0  0  0  0  0  0  0  0  0
   45.8740   32.7400   43.4940 C   0  0  0  0  0  0  0  0  0  0  0  0
   45.9010   32.6950   44.8350 N   0  0  0  0  0  0  0  0  0  0  0  0
   46.6720   31.9200   45.5810 C   0  0  0  0  0  0  0  0  0  0  0  0
   47.5070   31.0990   44.9740 N   0  0  0  0  0  0  0  0  0  0  0  0
   46.5710   32.0010   46.9830 N   0  0  0  0  0  0  0  0  0  0  0  0
   45.4840   32.6320   47.6970 C   0  0  0  0  0  0  0  0  0  0  0  0
   44.7180   31.5290   48.4380 C   0  0  0  0  0  0  0  0  0  0  0  0
   45.6030   30.5760   48.9290 O   0  0  0  0  0  0  0  0  0  0  0  0
   46.8500   31.0860   49.1850 C   0  0  0  0  0  0  0  0  0  0  0  0
   47.5310   31.4690   47.8890 C   0  0  1  0  0  0  0  0  0  0  0  0
   44.9640   33.6550   42.7480 C   0  0  0  0  0  0  0  0  0  0  0  0
   45.1340   35.0010   42.7910 C   0  0  0  0  0  0  0  0  0  0  0  0
   43.7740   35.5990   41.7250 S   0  0  0  0  0  0  0  0  0  0  0  0
   43.1930   33.8240   41.4000 C   0  0  0  0  0  0  0  0  0  0  0  0
   43.9740   33.2380   42.0280 N   0  0  0  0  0  0  0  0  0  0  0  0
   42.0430   33.6750   40.5410 N   0  0  0  0  0  0  0  0  0  0  0  0
   41.7210   34.5880   39.5210 C   0  0  0  0  0  0  0  0  0  0  0  0
   42.7070   35.2860   39.0300 N   0  0  0  0  0  0  0  0  0  0  0  0
   40.3290   34.6130   39.1670 N   0  0  0  0  0  0  0  0  0  0  0  0
   42.4560   35.9340   38.2600 H   0  0  0  0  0  0  0  0  0  0  0  0
   48.2920   30.2670   47.4160 C   0  0  0  0  0  0  0  0  0  0  0  0
   49.2740   29.7550   48.4320 C   0  0  0  0  0  0  0  0  0  0  0  0
   48.2970   30.3375   43.1490 H   0  0  0  0  0  0  0  0  0  0  0  0
   46.8144   31.8305   41.7758 H   0  0  0  0  0  0  0  0  0  0  0  0
   45.8815   33.3622   48.4173 H   0  0  0  0  0  0  0  0  0  0  0  0
   44.8198   33.1642   47.0002 H   0  0  0  0  0  0  0  0  0  0  0  0
   44.1612   31.9736   49.2760 H   0  0  0  0  0  0  0  0  0  0  0  0
   44.0209   31.0445   47.7386 H   0  0  0  0  0  0  0  0  0  0  0  0
   46.7548   31.9769   49.8231 H   0  0  0  0  0  0  0  0  0  0  0  0
   47.4535   30.3219   49.6968 H   0  0  0  0  0  0  0  0  0  0  0  0
   48.2655   32.2798   48.0029 H   0  0  0  0  0  0  0  0  0  0  0  0
   45.8958   35.5836   43.3298 H   0  0  0  0  0  0  0  0  0  0  0  0
   41.4283   32.8606   40.6818 H   0  0  0  0  0  0  0  0  0  0  0  0
   39.9965   35.2505   38.4294 H   0  0  0  0  0  0  0  0  0  0  0  0
   39.6634   33.9934   39.6507 H   0  0  0  0  0  0  0  0  0  0  0  0
   47.5741   29.4654   47.1877 H   0  0  0  0  0  0  0  0  0  0  0  0
   48.8661   30.5701   46.5280 H   0  0  0  0  0  0  0  0  0  0  0  0
   48.8919   29.9542   49.4441 H   0  0  0  0  0  0  0  0  0  0  0  0
   49.4092   28.6716   48.2978 H   0  0  0  0  0  0  0  0  0  0  0  0
   50.2396   30.2644   48.2978 H   0  0  0  0  0  0  0  0  0  0  0  0
  1  6  2  0
  2  3  2  0
  2  1  1  0
  3  4  1  0
  4  5  2  0
  5  7  1  0
  6  5  1  0
  7  8  1  0
  7 12  1  0
  8  9  1  0
  9 10  1  0
 10 11  1  0
 12 11  1  0
 13 14  2  0
 13  3  1  0
 15 14  1  0
 16 15  1  0
 16 17  2  0
 17 13  1  0
 18 16  1  0
 19 18  1  0
 20 19  2  0
 21 19  1  0
 22 20  1  0
 23 12  1  0
 23 24  1  0
  1 25  1  0
  2 26  1  0
  8 27  1  0
  8 28  1  0
  9 29  1  0
  9 30  1  0
 11 31  1  0
 11 32  1  0
 12 33  1  1
 14 34  1  0
 18 35  1  0
 21 36  1  0
 21 37  1  0
 23 38  1  0
 23 39  1  0
 24 40  1  0
 24 41  1  0
 24 42  1  0
M  ISO  8  25  14  26  14  27  13  28  13  29  13  30  13  31  13  32  13
M  ISO  7  33  13  34  14  38   8  39   8  40   8  41   8  42   8
M  END
>  <minimizedAffinity>  (1) 
-5.43459654

>  <minimizedRMSD>  (1) 
0.541407883

$$$$
