
     RDKit          3D

 47 51  0  0  0  0  0  0  0  0999 V2000
   44.6830   35.5340   44.7550 C   0  0  0  0  0  0  0  0  0  0  0  0
   45.5690   35.3660   43.6600 C   0  0  0  0  0  0  0  0  0  0  0  0
   46.5020   34.3150   43.7670 C   0  0  0  0  0  0  0  0  0  0  0  0
   46.4580   33.5810   44.8950 N   0  0  0  0  0  0  0  0  0  0  0  0
   45.6160   33.7540   45.9190 C   0  0  0  0  0  0  0  0  0  0  0  0
   44.7290   34.7350   45.8410 N   0  0  0  0  0  0  0  0  0  0  0  0
   47.3970   34.1240   42.6860 N   0  0  0  0  0  0  0  0  0  0  0  0
   48.7340   34.2490   42.7580 C   0  0  0  0  0  0  0  0  0  0  0  0
   49.3040   33.9980   41.5340 N   0  0  0  0  0  0  0  0  0  0  0  0
   48.2480   33.7150   40.7100 C   0  0  0  0  0  0  0  0  0  0  0  0
   48.2300   33.3860   39.3630 C   0  0  0  0  0  0  0  0  0  0  0  0
   47.0210   33.1550   38.8030 N   0  0  0  0  0  0  0  0  0  0  0  0
   45.8870   33.2380   39.5220 C   0  0  0  0  0  0  0  0  0  0  0  0
   45.8890   33.5530   40.8220 N   0  0  0  0  0  0  0  0  0  0  0  0
   47.0650   33.7940   41.4270 C   0  0  0  0  0  0  0  0  0  0  0  0
   45.6450   32.9030   47.1080 C   0  0  0  0  0  0  0  0  0  0  0  0
   44.6890   32.9150   47.9220 O   0  0  0  0  0  0  0  0  0  0  0  0
   46.7090   31.9960   47.4770 C   0  0  0  0  0  0  0  0  0  0  0  0
   47.7250   32.3910   48.3180 C   0  0  0  0  0  0  0  0  0  0  0  0
   48.7460   31.5000   48.6530 C   0  0  0  0  0  0  0  0  0  0  0  0
   48.7820   30.2020   48.1630 C   0  0  0  0  0  0  0  0  0  0  0  0
   47.7530   29.8160   47.3170 C   0  0  0  0  0  0  0  0  0  0  0  0
   46.7520   30.7140   46.9980 C   0  0  0  0  0  0  0  0  0  0  0  0
   45.7660   30.1350   46.1600 N   0  0  0  0  0  0  0  0  0  0  0  0
   44.6750   29.4410   46.8410 C   0  0  0  0  0  0  0  0  0  0  0  0
   44.8840   27.9820   46.6130 C   0  0  0  0  0  0  0  0  0  0  0  0
   45.3630   27.6350   45.3290 N   0  0  0  0  0  0  0  0  0  0  0  0
   45.3200   28.6010   44.3000 C   0  0  0  0  0  0  0  0  0  0  0  0
   45.5230   30.0200   44.7470 C   0  0  0  0  0  0  0  0  0  0  0  0
   43.9357   36.3403   44.7175 H   0  0  0  0  0  0  0  0  0  0  0  0
   45.5300   36.0198   42.7763 H   0  0  0  0  0  0  0  0  0  0  0  0
   49.2919   34.5146   43.6681 H   0  0  0  0  0  0  0  0  0  0  0  0
   49.1578   33.3160   38.7762 H   0  0  0  0  0  0  0  0  0  0  0  0
   44.9262   33.0402   39.0243 H   0  0  0  0  0  0  0  0  0  0  0  0
   47.7322   33.4120   48.7273 H   0  0  0  0  0  0  0  0  0  0  0  0
   49.5474   31.8373   49.3267 H   0  0  0  0  0  0  0  0  0  0  0  0
   49.5921   29.5090   48.4340 H   0  0  0  0  0  0  0  0  0  0  0  0
   47.7336   28.7979   46.9010 H   0  0  0  0  0  0  0  0  0  0  0  0
   44.6986   29.6632   47.9181 H   0  0  0  0  0  0  0  0  0  0  0  0
   43.6979   29.7652   46.4534 H   0  0  0  0  0  0  0  0  0  0  0  0
   45.6112   27.6224   47.3559 H   0  0  0  0  0  0  0  0  0  0  0  0
   43.8928   27.5140   46.7053 H   0  0  0  0  0  0  0  0  0  0  0  0
   46.3480   27.3549   45.4395 H   0  0  0  0  0  0  0  0  0  0  0  0
   44.3363   28.5352   43.8122 H   0  0  0  0  0  0  0  0  0  0  0  0
   46.1596   28.3693   43.6282 H   0  0  0  0  0  0  0  0  0  0  0  0
   46.3862   30.4372   44.2078 H   0  0  0  0  0  0  0  0  0  0  0  0
   44.5962   30.5700   44.5268 H   0  0  0  0  0  0  0  0  0  0  0  0
  1  6  2  0
  2  3  2  0
  2  1  1  0
  3  4  1  0
  4  5  2  0
  5 16  1  0
  6  5  1  0
  7  8  1  0
  7  3  1  0
  9  8  2  0
 10 15  2  0
 10  9  1  0
 11 10  1  0
 12 11  2  0
 12 13  1  0
 13 14  2  0
 14 15  1  0
 15  7  1  0
 16 18  1  0
 16 17  2  0
 18 19  2  0
 19 20  1  0
 21 20  2  0
 22 21  1  0
 23 22  2  0
 23 18  1  0
 24 25  1  0
 24 23  1  0
 26 25  1  0
 27 26  1  0
 28 29  1  0
 28 27  1  0
 29 24  1  0
  1 30  1  0
  2 31  1  0
  8 32  1  0
 11 33  1  0
 13 34  1  0
 19 35  1  0
 20 36  1  0
 21 37  1  0
 22 38  1  0
 25 39  1  0
 25 40  1  0
 26 41  1  0
 26 42  1  0
 27 43  1  0
 28 44  1  0
 28 45  1  0
 29 46  1  0
 29 47  1  0
M  ISO  8  30  14  31  14  32  14  33  14  34  14  35  14  36  14  37  14
M  ISO  8  38  14  39  13  40  13  41  13  42  13  43   5  44  13  45  13
M  ISO  2  46  13  47  13
M  END
>  <minimizedAffinity>  (1) 
-6.17158842

>  <minimizedRMSD>  (1) 
1.51242006

$$$$
