
     RDKit          3D

 45 49  0  0  0  0  0  0  0  0999 V2000
   44.6960   35.5290   44.7580 C   0  0  0  0  0  0  0  0  0  0  0  0
   45.5780   35.3600   43.6710 C   0  0  0  0  0  0  0  0  0  0  0  0
   46.5150   34.3040   43.7710 C   0  0  0  0  0  0  0  0  0  0  0  0
   46.4560   33.5790   44.8930 N   0  0  0  0  0  0  0  0  0  0  0  0
   45.6190   33.7420   45.9230 C   0  0  0  0  0  0  0  0  0  0  0  0
   44.7320   34.7220   45.8580 N   0  0  0  0  0  0  0  0  0  0  0  0
   47.4020   34.1200   42.6930 N   0  0  0  0  0  0  0  0  0  0  0  0
   48.7380   34.2470   42.7620 C   0  0  0  0  0  0  0  0  0  0  0  0
   49.3040   34.0020   41.5380 N   0  0  0  0  0  0  0  0  0  0  0  0
   48.2470   33.7170   40.7110 C   0  0  0  0  0  0  0  0  0  0  0  0
   48.2240   33.3950   39.3670 C   0  0  0  0  0  0  0  0  0  0  0  0
   47.0210   33.1590   38.8010 N   0  0  0  0  0  0  0  0  0  0  0  0
   45.8850   33.2380   39.5290 C   0  0  0  0  0  0  0  0  0  0  0  0
   45.8840   33.5500   40.8330 N   0  0  0  0  0  0  0  0  0  0  0  0
   47.0630   33.7910   41.4310 C   0  0  0  0  0  0  0  0  0  0  0  0
   45.6480   32.8840   47.1010 C   0  0  0  0  0  0  0  0  0  0  0  0
   44.6830   32.8790   47.9100 O   0  0  0  0  0  0  0  0  0  0  0  0
   46.7140   31.9840   47.4750 C   0  0  0  0  0  0  0  0  0  0  0  0
   47.7270   32.3790   48.3170 C   0  0  0  0  0  0  0  0  0  0  0  0
   48.7460   31.4840   48.6550 C   0  0  0  0  0  0  0  0  0  0  0  0
   48.7880   30.2010   48.1790 C   0  0  0  0  0  0  0  0  0  0  0  0
   47.7630   29.8070   47.3300 C   0  0  0  0  0  0  0  0  0  0  0  0
   46.7680   30.6990   47.0080 C   0  0  0  0  0  0  0  0  0  0  0  0
   45.7880   30.1320   46.1510 N   0  0  0  0  0  0  0  0  0  0  0  0
   44.6860   29.3390   46.7190 C   0  0  0  0  0  0  0  0  0  0  0  0
   44.5780   28.1160   45.8360 C   0  0  0  0  0  0  0  0  0  0  0  0
   45.2320   28.5120   44.5240 C   0  0  0  0  0  0  0  0  0  0  0  0
   45.3880   29.9970   44.7640 C   0  0  0  0  0  0  0  0  0  0  0  0
   43.9532   36.3393   44.7180 H   0  0  0  0  0  0  0  0  0  0  0  0
   45.5397   36.0163   42.7891 H   0  0  0  0  0  0  0  0  0  0  0  0
   49.2978   34.5102   43.6716 H   0  0  0  0  0  0  0  0  0  0  0  0
   49.1521   33.3332   38.7798 H   0  0  0  0  0  0  0  0  0  0  0  0
   44.9239   33.0386   39.0324 H   0  0  0  0  0  0  0  0  0  0  0  0
   47.7353   33.4005   48.7250 H   0  0  0  0  0  0  0  0  0  0  0  0
   49.5455   31.8238   49.3298 H   0  0  0  0  0  0  0  0  0  0  0  0
   49.5991   29.5121   48.4574 H   0  0  0  0  0  0  0  0  0  0  0  0
   47.7471   28.7874   46.9175 H   0  0  0  0  0  0  0  0  0  0  0  0
   44.9150   29.0475   47.7546 H   0  0  0  0  0  0  0  0  0  0  0  0
   43.7448   29.9075   46.7491 H   0  0  0  0  0  0  0  0  0  0  0  0
   45.1075   27.2651   46.2894 H   0  0  0  0  0  0  0  0  0  0  0  0
   43.5333   27.8016   45.6957 H   0  0  0  0  0  0  0  0  0  0  0  0
   44.5828   28.3013   43.6614 H   0  0  0  0  0  0  0  0  0  0  0  0
   46.1615   27.9756   44.2824 H   0  0  0  0  0  0  0  0  0  0  0  0
   46.1600   30.4135   44.1002 H   0  0  0  0  0  0  0  0  0  0  0  0
   44.4549   30.5413   44.5564 H   0  0  0  0  0  0  0  0  0  0  0  0
  1  6  2  0
  2  3  2  0
  2  1  1  0
  3  4  1  0
  4  5  2  0
  5 16  1  0
  6  5  1  0
  7  8  1  0
  7  3  1  0
  9  8  2  0
 10 15  2  0
 10  9  1  0
 11 10  1  0
 12 11  2  0
 12 13  1  0
 13 14  2  0
 14 15  1  0
 15  7  1  0
 16 18  1  0
 16 17  2  0
 18 19  2  0
 19 20  1  0
 21 20  2  0
 22 21  1  0
 23 22  2  0
 23 18  1  0
 24 25  1  0
 24 23  1  0
 26 25  1  0
 27 28  1  0
 27 26  1  0
 28 24  1  0
  1 29  1  0
  2 30  1  0
  8 31  1  0
 11 32  1  0
 13 33  1  0
 19 34  1  0
 20 35  1  0
 21 36  1  0
 22 37  1  0
 25 38  1  0
 25 39  1  0
 26 40  1  0
 26 41  1  0
 27 42  1  0
 27 43  1  0
 28 44  1  0
 28 45  1  0
M  ISO  8  29  14  30  14  31  14  32  14  33  14  34  14  35  14  36  14
M  ISO  8  37  14  38  13  39  13  40  13  41  13  42  13  43  13  44  13
M  ISO  1  45  13
M  END
>  <minimizedAffinity>  (1) 
-6.10687733

>  <minimizedRMSD>  (1) 
1.41824269

$$$$
