
     RDKit          3D

 36 39  0  0  0  0  0  0  0  0999 V2000
   44.7050   35.5290   44.7430 C   0  0  0  0  0  0  0  0  0  0  0  0
   45.5990   35.3340   43.6570 C   0  0  0  0  0  0  0  0  0  0  0  0
   46.5090   34.2720   43.7910 C   0  0  0  0  0  0  0  0  0  0  0  0
   46.4340   33.5610   44.9290 N   0  0  0  0  0  0  0  0  0  0  0  0
   45.5970   33.7490   45.9410 C   0  0  0  0  0  0  0  0  0  0  0  0
   44.7250   34.7390   45.8490 N   0  0  0  0  0  0  0  0  0  0  0  0
   47.4000   34.0450   42.7180 N   0  0  0  0  0  0  0  0  0  0  0  0
   48.7370   34.0780   42.8000 C   0  0  0  0  0  0  0  0  0  0  0  0
   49.3060   33.8110   41.5840 N   0  0  0  0  0  0  0  0  0  0  0  0
   48.2530   33.6090   40.7400 C   0  0  0  0  0  0  0  0  0  0  0  0
   48.2480   33.3070   39.4020 C   0  0  0  0  0  0  0  0  0  0  0  0
   47.0420   33.1610   38.8100 N   0  0  0  0  0  0  0  0  0  0  0  0
   45.8990   33.3070   39.5130 C   0  0  0  0  0  0  0  0  0  0  0  0
   45.8760   33.6010   40.8210 N   0  0  0  0  0  0  0  0  0  0  0  0
   47.0570   33.7540   41.4450 C   0  0  0  0  0  0  0  0  0  0  0  0
   45.5970   32.9050   47.1260 C   0  0  0  0  0  0  0  0  0  0  0  0
   44.6340   32.9480   47.9390 O   0  0  0  0  0  0  0  0  0  0  0  0
   46.6410   31.9620   47.5120 C   0  0  0  0  0  0  0  0  0  0  0  0
   47.7160   32.4090   48.2800 C   0  0  0  0  0  0  0  0  0  0  0  0
   48.7140   31.4940   48.6330 C   0  0  0  0  0  0  0  0  0  0  0  0
   48.6640   30.1610   48.2430 C   0  0  0  0  0  0  0  0  0  0  0  0
   47.5670   29.7580   47.4770 C   0  0  0  0  0  0  0  0  0  0  0  0
   46.5740   30.6360   47.1190 C   0  0  0  0  0  0  0  0  0  0  0  0
   45.5740   29.9210   46.2940 C   0  0  0  0  0  0  0  0  0  0  0  0
   44.3470   29.7370   46.9930 F   0  0  0  0  0  0  0  0  0  0  0  0
   45.2880   30.4290   45.0940 F   0  0  0  0  0  0  0  0  0  0  0  0
   45.9880   28.5620   46.2710 F   0  0  0  0  0  0  0  0  0  0  0  0
   43.9716   36.3469   44.6873 H   0  0  0  0  0  0  0  0  0  0  0  0
   45.5801   35.9762   42.7641 H   0  0  0  0  0  0  0  0  0  0  0  0
   49.3011   34.2909   43.7201 H   0  0  0  0  0  0  0  0  0  0  0  0
   49.1839   33.1889   38.8361 H   0  0  0  0  0  0  0  0  0  0  0  0
   44.9410   33.1787   38.9879 H   0  0  0  0  0  0  0  0  0  0  0  0
   47.7780   33.4591   48.6015 H   0  0  0  0  0  0  0  0  0  0  0  0
   49.5647   31.8406   49.2381 H   0  0  0  0  0  0  0  0  0  0  0  0
   49.4559   29.4519   48.5259 H   0  0  0  0  0  0  0  0  0  0  0  0
   47.4971   28.7094   47.1522 H   0  0  0  0  0  0  0  0  0  0  0  0
  1  6  2  0
  2  3  2  0
  2  1  1  0
  3  4  1  0
  4  5  2  0
  5 16  1  0
  6  5  1  0
  7  8  1  0
  7  3  1  0
  9  8  2  0
 10 15  2  0
 10  9  1  0
 11 10  1  0
 12 11  2  0
 12 13  1  0
 13 14  2  0
 14 15  1  0
 15  7  1  0
 16 18  1  0
 16 17  2  0
 18 19  2  0
 19 20  1  0
 21 20  2  0
 22 21  1  0
 23 22  2  0
 23 18  1  0
 24 25  1  0
 24 23  1  0
 26 24  1  0
 27 24  1  0
  1 28  1  0
  2 29  1  0
  8 30  1  0
 11 31  1  0
 13 32  1  0
 19 33  1  0
 20 34  1  0
 21 35  1  0
 22 36  1  0
M  ISO  8  28  14  29  14  30  14  31  14  32  14  33  14  34  14  35  14
M  ISO  1  36  14
M  END
>  <minimizedAffinity>  (1) 
-6.0787282

>  <minimizedRMSD>  (1) 
1.47053695

$$$$
