
     RDKit          3D

 42 45  0  0  0  0  0  0  0  0999 V2000
   44.6730   35.5790   44.7110 C   0  0  0  0  0  0  0  0  0  0  0  0
   45.5640   35.4060   43.6180 C   0  0  0  0  0  0  0  0  0  0  0  0
   46.4890   34.3590   43.7440 C   0  0  0  0  0  0  0  0  0  0  0  0
   46.4420   33.6340   44.8690 N   0  0  0  0  0  0  0  0  0  0  0  0
   45.6020   33.8030   45.8880 C   0  0  0  0  0  0  0  0  0  0  0  0
   44.7130   34.7810   45.8100 N   0  0  0  0  0  0  0  0  0  0  0  0
   47.3850   34.1540   42.6640 N   0  0  0  0  0  0  0  0  0  0  0  0
   48.7230   34.2690   42.7200 C   0  0  0  0  0  0  0  0  0  0  0  0
   49.2870   34.0050   41.5020 N   0  0  0  0  0  0  0  0  0  0  0  0
   48.2400   33.7210   40.6840 C   0  0  0  0  0  0  0  0  0  0  0  0
   48.2300   33.3830   39.3480 C   0  0  0  0  0  0  0  0  0  0  0  0
   47.0220   33.1490   38.7830 N   0  0  0  0  0  0  0  0  0  0  0  0
   45.8870   33.2450   39.4990 C   0  0  0  0  0  0  0  0  0  0  0  0
   45.8660   33.5710   40.8000 N   0  0  0  0  0  0  0  0  0  0  0  0
   47.0580   33.8130   41.4050 C   0  0  0  0  0  0  0  0  0  0  0  0
   45.6240   32.9580   47.0700 C   0  0  0  0  0  0  0  0  0  0  0  0
   44.6850   33.0110   47.9080 O   0  0  0  0  0  0  0  0  0  0  0  0
   46.6670   32.0010   47.4240 C   0  0  0  0  0  0  0  0  0  0  0  0
   47.6830   32.3850   48.2920 C   0  0  0  0  0  0  0  0  0  0  0  0
   48.6750   31.4380   48.6070 C   0  0  0  0  0  0  0  0  0  0  0  0
   48.6660   30.1480   48.0850 C   0  0  0  0  0  0  0  0  0  0  0  0
   47.6280   29.8100   47.2210 C   0  0  0  0  0  0  0  0  0  0  0  0
   46.6600   30.7320   46.9120 C   0  0  0  0  0  0  0  0  0  0  0  0
   45.6960   30.0980   45.9770 C   0  0  0  0  0  0  0  0  0  0  0  0
   46.4760   29.0800   45.1510 C   0  0  0  0  0  0  0  0  0  0  0  0
   44.6680   29.2670   46.7580 C   0  0  0  0  0  0  0  0  0  0  0  0
   43.9263   36.3854   44.6661 H   0  0  0  0  0  0  0  0  0  0  0  0
   45.5306   36.0525   42.7287 H   0  0  0  0  0  0  0  0  0  0  0  0
   49.2886   34.5392   43.6239 H   0  0  0  0  0  0  0  0  0  0  0  0
   49.1610   33.3068   38.7671 H   0  0  0  0  0  0  0  0  0  0  0  0
   44.9305   33.0467   38.9933 H   0  0  0  0  0  0  0  0  0  0  0  0
   47.7105   33.3982   48.7194 H   0  0  0  0  0  0  0  0  0  0  0  0
   49.4868   31.7278   49.2904 H   0  0  0  0  0  0  0  0  0  0  0  0
   49.4503   29.4220   48.3455 H   0  0  0  0  0  0  0  0  0  0  0  0
   47.5838   28.8011   46.7849 H   0  0  0  0  0  0  0  0  0  0  0  0
   45.2047   30.8803   45.3798 H   0  0  0  0  0  0  0  0  0  0  0  0
   47.0050   28.3896   45.8244 H   0  0  0  0  0  0  0  0  0  0  0  0
   45.7798   28.5119   44.5165 H   0  0  0  0  0  0  0  0  0  0  0  0
   47.2056   29.6044   44.5165 H   0  0  0  0  0  0  0  0  0  0  0  0
   44.8328   29.4002   47.8374 H   0  0  0  0  0  0  0  0  0  0  0  0
   43.6527   29.6012   46.4981 H   0  0  0  0  0  0  0  0  0  0  0  0
   44.7820   28.2042   46.4981 H   0  0  0  0  0  0  0  0  0  0  0  0
  1  6  2  0
  2  3  2  0
  2  1  1  0
  3  4  1  0
  4  5  2  0
  5 16  1  0
  6  5  1  0
  7  8  1  0
  7  3  1  0
  9  8  2  0
 10 15  2  0
 10  9  1  0
 11 10  1  0
 12 11  2  0
 12 13  1  0
 13 14  2  0
 14 15  1  0
 15  7  1  0
 16 18  1  0
 16 17  2  0
 18 19  2  0
 19 20  1  0
 21 20  2  0
 22 21  1  0
 23 22  2  0
 23 18  1  0
 24 26  1  0
 24 23  1  0
 25 24  1  0
  1 27  1  0
  2 28  1  0
  8 29  1  0
 11 30  1  0
 13 31  1  0
 19 32  1  0
 20 33  1  0
 21 34  1  0
 22 35  1  0
 24 36  1  0
 25 37  1  0
 25 38  1  0
 25 39  1  0
 26 40  1  0
 26 41  1  0
 26 42  1  0
M  ISO  8  27  14  28  14  29  14  30  14  31  14  32  14  33  14  34  14
M  ISO  8  35  14  36   8  37   8  38   8  39   8  40   8  41   8  42   8
M  END
>  <minimizedAffinity>  (1) 
-6.00851393

>  <minimizedRMSD>  (1) 
1.25529444

$$$$
