
     RDKit          3D

 37 39  0  0  1  0  0  0  0  0999 V2000
   47.7790   31.4170   43.7870 C   0  0  0  0  0  0  0  0  0  0  0  0
   46.9230   32.1930   42.9980 C   0  0  0  0  0  0  0  0  0  0  0  0
   45.9150   32.9370   43.5920 C   0  0  0  0  0  0  0  0  0  0  0  0
   45.8510   32.8410   44.9260 N   0  0  0  0  0  0  0  0  0  0  0  0
   46.6470   32.1150   45.6950 C   0  0  0  0  0  0  0  0  0  0  0  0
   47.6100   31.4050   45.1230 N   0  0  0  0  0  0  0  0  0  0  0  0
   46.4370   32.1300   47.0870 N   0  0  0  0  0  0  0  0  0  0  0  0
   45.2500   32.6390   47.7410 C   0  0  0  0  0  0  0  0  0  0  0  0
   44.5590   31.4520   48.4020 C   0  0  0  0  0  0  0  0  0  0  0  0
   45.4930   30.5610   48.9210 O   0  0  0  0  0  0  0  0  0  0  0  0
   46.6800   31.1850   49.2740 C   0  0  0  0  0  0  0  0  0  0  0  0
   47.3980   31.6310   48.0200 C   0  0  2  0  0  0  0  0  0  0  0  0
   44.9600   33.7930   42.8020 C   0  0  0  0  0  0  0  0  0  0  0  0
   45.0540   35.1420   42.8430 C   0  0  0  0  0  0  0  0  0  0  0  0
   43.6930   35.6520   41.7350 S   0  0  0  0  0  0  0  0  0  0  0  0
   43.2290   33.8380   41.4090 C   0  0  0  0  0  0  0  0  0  0  0  0
   44.0220   33.2940   42.0600 N   0  0  0  0  0  0  0  0  0  0  0  0
   42.1220   33.6290   40.5240 N   0  0  0  0  0  0  0  0  0  0  0  0
   41.7730   34.4930   39.4830 C   0  0  0  0  0  0  0  0  0  0  0  0
   42.7130   35.2460   39.0160 N   0  0  0  0  0  0  0  0  0  0  0  0
   40.4080   34.4430   39.0530 N   0  0  0  0  0  0  0  0  0  0  0  0
   42.4630   35.8900   38.2240 H   0  0  0  0  0  0  0  0  0  0  0  0
   48.3290   32.6210   48.3430 O   0  0  0  0  0  0  0  0  0  0  0  0
   48.5802   30.8240   43.3218 H   0  0  0  0  0  0  0  0  0  0  0  0
   47.0498   32.2129   41.9055 H   0  0  0  0  0  0  0  0  0  0  0  0
   45.5279   33.3847   48.5004 H   0  0  0  0  0  0  0  0  0  0  0  0
   44.5821   33.1270   47.0159 H   0  0  0  0  0  0  0  0  0  0  0  0
   43.9173   31.8170   49.2175 H   0  0  0  0  0  0  0  0  0  0  0  0
   43.9567   30.9289   47.6446 H   0  0  0  0  0  0  0  0  0  0  0  0
   46.4627   32.0597   49.9046 H   0  0  0  0  0  0  0  0  0  0  0  0
   47.3149   30.4827   49.8341 H   0  0  0  0  0  0  0  0  0  0  0  0
   47.9322   30.7829   47.5668 H   0  0  0  0  0  0  0  0  0  0  0  0
   45.7657   35.7697   43.3994 H   0  0  0  0  0  0  0  0  0  0  0  0
   41.5458   32.7868   40.6643 H   0  0  0  0  0  0  0  0  0  0  0  0
   40.0858   35.0547   38.2895 H   0  0  0  0  0  0  0  0  0  0  0  0
   39.7483   33.7954   39.5072 H   0  0  0  0  0  0  0  0  0  0  0  0
   48.4011   32.6977   49.3274 H   0  0  0  0  0  0  0  0  0  0  0  0
  1  6  2  0
  2  3  2  0
  2  1  1  0
  3  4  1  0
  4  5  2  0
  5  7  1  0
  6  5  1  0
  7  8  1  0
  7 12  1  0
  8  9  1  0
  9 10  1  0
 10 11  1  0
 12 23  1  0
 12 11  1  0
 13 14  2  0
 13  3  1  0
 15 14  1  0
 16 15  1  0
 16 17  2  0
 17 13  1  0
 18 16  1  0
 19 18  1  0
 20 19  2  0
 21 19  1  0
 22 20  1  0
  1 24  1  0
  2 25  1  0
  8 26  1  0
  8 27  1  0
  9 28  1  0
  9 29  1  0
 11 30  1  0
 11 31  1  0
 12 32  1  6
 14 33  1  0
 18 34  1  0
 21 35  1  0
 21 36  1  0
 23 37  1  0
M  ISO  8  24  14  25  14  26  13  27  13  28  13  29  13  30  13  31  13
M  ISO  3  32  13  33  14  37   3
M  END
>  <minimizedAffinity>  (1) 
-5.41712141

>  <minimizedRMSD>  (1) 
0.221333906

$$$$
