
     RDKit          3D

 39 42  0  0  0  0  0  0  0  0999 V2000
   44.5980   35.6380   44.7820 C   0  0  0  0  0  0  0  0  0  0  0  0
   45.4570   35.4920   43.6640 C   0  0  0  0  0  0  0  0  0  0  0  0
   46.3920   34.4430   43.7330 C   0  0  0  0  0  0  0  0  0  0  0  0
   46.3870   33.6830   44.8410 N   0  0  0  0  0  0  0  0  0  0  0  0
   45.5620   33.8380   45.8900 C   0  0  0  0  0  0  0  0  0  0  0  0
   44.6640   34.8170   45.8650 N   0  0  0  0  0  0  0  0  0  0  0  0
   47.2460   34.2550   42.6250 N   0  0  0  0  0  0  0  0  0  0  0  0
   48.5760   34.4110   42.6450 C   0  0  0  0  0  0  0  0  0  0  0  0
   49.1140   34.1620   41.4150 N   0  0  0  0  0  0  0  0  0  0  0  0
   48.0590   33.8420   40.6190 C   0  0  0  0  0  0  0  0  0  0  0  0
   48.0270   33.5010   39.2870 C   0  0  0  0  0  0  0  0  0  0  0  0
   46.7970   33.2250   38.7580 N   0  0  0  0  0  0  0  0  0  0  0  0
   45.6880   33.2880   39.5070 C   0  0  0  0  0  0  0  0  0  0  0  0
   45.6900   33.6190   40.8110 N   0  0  0  0  0  0  0  0  0  0  0  0
   46.8930   33.8990   41.3710 C   0  0  0  0  0  0  0  0  0  0  0  0
   45.5930   32.9550   47.0520 C   0  0  0  0  0  0  0  0  0  0  0  0
   44.6750   32.9840   47.9110 O   0  0  0  0  0  0  0  0  0  0  0  0
   46.6330   31.9810   47.3510 C   0  0  0  0  0  0  0  0  0  0  0  0
   47.6390   32.3100   48.2620 C   0  0  0  0  0  0  0  0  0  0  0  0
   48.6550   31.3840   48.5260 C   0  0  0  0  0  0  0  0  0  0  0  0
   48.6970   30.1490   47.9080 C   0  0  0  0  0  0  0  0  0  0  0  0
   47.6790   29.8540   47.0070 C   0  0  0  0  0  0  0  0  0  0  0  0
   46.6610   30.7600   46.7390 C   0  0  0  0  0  0  0  0  0  0  0  0
   45.6270   30.1370   45.8720 C   0  0  0  0  0  0  0  0  0  0  0  0
   44.6840   29.2850   46.7630 C   0  0  0  0  0  0  0  0  0  0  0  0
   43.8504   36.4449   44.7738 H   0  0  0  0  0  0  0  0  0  0  0  0
   45.3961   36.1604   42.7925 H   0  0  0  0  0  0  0  0  0  0  0  0
   49.1569   34.7008   43.5330 H   0  0  0  0  0  0  0  0  0  0  0  0
   48.9427   33.4529   38.6794 H   0  0  0  0  0  0  0  0  0  0  0  0
   44.7241   33.0567   39.0302 H   0  0  0  0  0  0  0  0  0  0  0  0
   47.6331   33.2871   48.7671 H   0  0  0  0  0  0  0  0  0  0  0  0
   49.4432   31.6473   49.2467 H   0  0  0  0  0  0  0  0  0  0  0  0
   49.5015   29.4293   48.1195 H   0  0  0  0  0  0  0  0  0  0  0  0
   47.6803   28.8805   46.4949 H   0  0  0  0  0  0  0  0  0  0  0  0
   45.0478   30.9216   45.3632 H   0  0  0  0  0  0  0  0  0  0  0  0
   46.1056   29.5000   45.1135 H   0  0  0  0  0  0  0  0  0  0  0  0
   44.9030   29.4828   47.8227 H   0  0  0  0  0  0  0  0  0  0  0  0
   43.6382   29.5506   46.5489 H   0  0  0  0  0  0  0  0  0  0  0  0
   44.8425   28.2177   46.5489 H   0  0  0  0  0  0  0  0  0  0  0  0
  1  6  2  0
  2  3  2  0
  2  1  1  0
  3  4  1  0
  4  5  2  0
  5 16  1  0
  6  5  1  0
  7  8  1  0
  7  3  1  0
  9  8  2  0
 10 15  2  0
 10  9  1  0
 11 10  1  0
 12 11  2  0
 12 13  1  0
 13 14  2  0
 14 15  1  0
 15  7  1  0
 16 18  1  0
 16 17  2  0
 18 19  2  0
 19 20  1  0
 21 20  2  0
 22 21  1  0
 23 22  2  0
 23 18  1  0
 24 23  1  0
 24 25  1  0
  1 26  1  0
  2 27  1  0
  8 28  1  0
 11 29  1  0
 13 30  1  0
 19 31  1  0
 20 32  1  0
 21 33  1  0
 22 34  1  0
 24 35  1  0
 24 36  1  0
 25 37  1  0
 25 38  1  0
 25 39  1  0
M  ISO  8  26  14  27  14  28  14  29  14  30  14  31  14  32  14  33  14
M  ISO  6  34  14  35   8  36   8  37   8  38   8  39   8
M  END
>  <minimizedAffinity>  (1) 
-5.95429182

>  <minimizedRMSD>  (1) 
1.03112078

$$$$
