
     RDKit          3D

 36 39  0  0  0  0  0  0  0  0999 V2000
   44.6180   35.6210   44.8230 C   0  0  0  0  0  0  0  0  0  0  0  0
   45.4720   35.4740   43.7030 C   0  0  0  0  0  0  0  0  0  0  0  0
   46.3930   34.4060   43.7520 C   0  0  0  0  0  0  0  0  0  0  0  0
   46.3700   33.6350   44.8540 N   0  0  0  0  0  0  0  0  0  0  0  0
   45.5640   33.7800   45.9040 C   0  0  0  0  0  0  0  0  0  0  0  0
   44.6870   34.7760   45.8850 N   0  0  0  0  0  0  0  0  0  0  0  0
   47.2560   34.2390   42.6450 N   0  0  0  0  0  0  0  0  0  0  0  0
   48.5950   34.4050   42.6670 C   0  0  0  0  0  0  0  0  0  0  0  0
   49.1310   34.1710   41.4370 N   0  0  0  0  0  0  0  0  0  0  0  0
   48.0710   33.8500   40.6440 C   0  0  0  0  0  0  0  0  0  0  0  0
   48.0360   33.5190   39.3030 C   0  0  0  0  0  0  0  0  0  0  0  0
   46.8070   33.2430   38.7710 N   0  0  0  0  0  0  0  0  0  0  0  0
   45.6910   33.2930   39.5240 C   0  0  0  0  0  0  0  0  0  0  0  0
   45.6920   33.6110   40.8300 N   0  0  0  0  0  0  0  0  0  0  0  0
   46.8900   33.8920   41.3960 C   0  0  0  0  0  0  0  0  0  0  0  0
   45.6010   32.8990   47.0640 C   0  0  0  0  0  0  0  0  0  0  0  0
   44.6740   32.8910   47.9010 O   0  0  0  0  0  0  0  0  0  0  0  0
   46.6680   31.9710   47.3710 C   0  0  0  0  0  0  0  0  0  0  0  0
   47.6830   32.3190   48.2520 C   0  0  0  0  0  0  0  0  0  0  0  0
   48.6990   31.4050   48.5300 C   0  0  0  0  0  0  0  0  0  0  0  0
   48.7540   30.1480   47.9650 C   0  0  0  0  0  0  0  0  0  0  0  0
   47.7360   29.8180   47.0900 C   0  0  0  0  0  0  0  0  0  0  0  0
   46.7360   30.7150   46.8150 C   0  0  0  0  0  0  0  0  0  0  0  0
   45.6820   30.2530   45.8520 C   0  0  0  0  0  0  0  0  0  0  0  0
   43.8817   36.4382   44.8336 H   0  0  0  0  0  0  0  0  0  0  0  0
   45.4202   36.1556   42.8412 H   0  0  0  0  0  0  0  0  0  0  0  0
   49.1747   34.6905   43.5572 H   0  0  0  0  0  0  0  0  0  0  0  0
   48.9511   33.4795   38.6938 H   0  0  0  0  0  0  0  0  0  0  0  0
   44.7283   33.0614   39.0448 H   0  0  0  0  0  0  0  0  0  0  0  0
   47.6858   33.3105   48.7283 H   0  0  0  0  0  0  0  0  0  0  0  0
   49.4928   31.7001   49.2320 H   0  0  0  0  0  0  0  0  0  0  0  0
   49.5664   29.4441   48.1987 H   0  0  0  0  0  0  0  0  0  0  0  0
   47.7281   28.8280   46.6105 H   0  0  0  0  0  0  0  0  0  0  0  0
   44.8149   29.8729   46.4120 H   0  0  0  0  0  0  0  0  0  0  0  0
   45.3687   31.0963   45.2190 H   0  0  0  0  0  0  0  0  0  0  0  0
   46.0898   29.4511   45.2190 H   0  0  0  0  0  0  0  0  0  0  0  0
  1  6  2  0
  2  3  2  0
  2  1  1  0
  3  4  1  0
  4  5  2  0
  5 16  1  0
  6  5  1  0
  7  8  1  0
  7  3  1  0
  9  8  2  0
 10 15  2  0
 10  9  1  0
 11 10  1  0
 12 11  2  0
 12 13  1  0
 13 14  2  0
 14 15  1  0
 15  7  1  0
 16 18  1  0
 16 17  2  0
 18 19  2  0
 19 20  1  0
 21 20  2  0
 22 21  1  0
 23 22  2  0
 23 18  1  0
 24 23  1  0
  1 25  1  0
  2 26  1  0
  8 27  1  0
 11 28  1  0
 13 29  1  0
 19 30  1  0
 20 31  1  0
 21 32  1  0
 22 33  1  0
 24 34  1  0
 24 35  1  0
 24 36  1  0
M  ISO  8  25  14  26  14  27  14  28  14  29  14  30  14  31  14  32  14
M  ISO  4  33  14  34   8  35   8  36   8
M  END
>  <minimizedAffinity>  (1) 
-5.92261028

>  <minimizedRMSD>  (1) 
0.92676276

$$$$
