
     RDKit          3D

 40 44  0  0  0  0  0  0  0  0999 V2000
   44.9050   35.2510   44.6150 C   0  0  0  0  0  0  0  0  0  0  0  0
   45.8360   35.0300   43.5690 C   0  0  0  0  0  0  0  0  0  0  0  0
   46.7630   33.9990   43.7780 C   0  0  0  0  0  0  0  0  0  0  0  0
   46.6890   33.3140   44.9390 N   0  0  0  0  0  0  0  0  0  0  0  0
   45.8040   33.5390   45.9070 C   0  0  0  0  0  0  0  0  0  0  0  0
   44.9020   34.5120   45.7540 N   0  0  0  0  0  0  0  0  0  0  0  0
   47.7010   33.7580   42.7500 N   0  0  0  0  0  0  0  0  0  0  0  0
   49.0040   34.0870   42.7950 C   0  0  0  0  0  0  0  0  0  0  0  0
   49.6410   33.7210   41.6460 N   0  0  0  0  0  0  0  0  0  0  0  0
   48.6710   33.1440   40.8720 C   0  0  0  0  0  0  0  0  0  0  0  0
   48.7520   32.5950   39.6090 C   0  0  0  0  0  0  0  0  0  0  0  0
   47.6070   32.0930   39.0930 N   0  0  0  0  0  0  0  0  0  0  0  0
   46.4530   32.1270   39.7760 C   0  0  0  0  0  0  0  0  0  0  0  0
   46.3330   32.6520   41.0080 N   0  0  0  0  0  0  0  0  0  0  0  0
   47.4670   33.1690   41.5600 C   0  0  0  0  0  0  0  0  0  0  0  0
   45.7780   32.7510   47.1400 C   0  0  0  0  0  0  0  0  0  0  0  0
   44.7890   32.7920   47.9140 O   0  0  0  0  0  0  0  0  0  0  0  0
   46.8320   31.8710   47.6020 C   0  0  0  0  0  0  0  0  0  0  0  0
   47.8180   32.3580   48.4500 C   0  0  0  0  0  0  0  0  0  0  0  0
   48.8450   31.5030   48.8760 C   0  0  0  0  0  0  0  0  0  0  0  0
   48.9080   30.1740   48.4770 C   0  0  0  0  0  0  0  0  0  0  0  0
   47.9090   29.7140   47.6300 C   0  0  0  0  0  0  0  0  0  0  0  0
   46.9090   30.5600   47.2190 C   0  0  0  0  0  0  0  0  0  0  0  0
   45.9140   29.8900   46.3430 C   0  0  0  0  0  0  0  0  0  0  0  0
   45.7040   28.3710   46.6680 C   0  0  0  0  0  0  0  0  0  0  0  0
   44.6450   29.3680   46.8820 C   0  0  0  0  0  0  0  0  0  0  0  0
   44.1580   36.0502   44.4997 H   0  0  0  0  0  0  0  0  0  0  0  0
   45.8314   35.6316   42.6481 H   0  0  0  0  0  0  0  0  0  0  0  0
   49.4916   34.5853   43.6459 H   0  0  0  0  0  0  0  0  0  0  0  0
   49.6991   32.5670   39.0503 H   0  0  0  0  0  0  0  0  0  0  0  0
   45.5558   31.7021   39.3023 H   0  0  0  0  0  0  0  0  0  0  0  0
   47.7938   33.4055   48.7848 H   0  0  0  0  0  0  0  0  0  0  0  0
   49.6236   31.8966   49.5459 H   0  0  0  0  0  0  0  0  0  0  0  0
   49.7175   29.5122   48.8187 H   0  0  0  0  0  0  0  0  0  0  0  0
   47.9187   28.6688   47.2872 H   0  0  0  0  0  0  0  0  0  0  0  0
   46.1540   30.5341   45.4842 H   0  0  0  0  0  0  0  0  0  0  0  0
   45.6184   27.6355   45.8546 H   0  0  0  0  0  0  0  0  0  0  0  0
   46.2154   27.6175   47.2850 H   0  0  0  0  0  0  0  0  0  0  0  0
   44.3503   29.6272   47.9096 H   0  0  0  0  0  0  0  0  0  0  0  0
   43.6001   29.4384   46.5454 H   0  0  0  0  0  0  0  0  0  0  0  0
  1  6  2  0
  2  3  2  0
  2  1  1  0
  3  4  1  0
  4  5  2  0
  5 16  1  0
  6  5  1  0
  7  8  1  0
  7  3  1  0
  9  8  2  0
 10 15  2  0
 10  9  1  0
 11 10  1  0
 12 11  2  0
 12 13  1  0
 13 14  2  0
 14 15  1  0
 15  7  1  0
 16 18  1  0
 16 17  2  0
 18 19  2  0
 19 20  1  0
 21 20  2  0
 22 21  1  0
 23 18  1  0
 23 22  2  0
 24 25  1  0
 24 26  1  0
 24 23  1  0
 25 26  1  0
  1 27  1  0
  2 28  1  0
  8 29  1  0
 11 30  1  0
 13 31  1  0
 19 32  1  0
 20 33  1  0
 21 34  1  0
 22 35  1  0
 24 36  1  0
 25 37  1  0
 25 38  1  0
 26 39  1  0
 26 40  1  0
M  ISO  8  27  14  28  14  29  14  30  14  31  14  32  14  33  14  34  14
M  ISO  6  35  14  36  13  37  13  38  13  39  13  40  13
M  END
>  <minimizedAffinity>  (1) 
-5.89895868

>  <minimizedRMSD>  (1) 
1.76733565

$$$$
