
     RDKit          3D

 34 37  0  0  0  0  0  0  0  0999 V2000
   44.7040   35.5180   44.8070 C   0  0  0  0  0  0  0  0  0  0  0  0
   45.5800   35.3580   43.7090 C   0  0  0  0  0  0  0  0  0  0  0  0
   46.4990   34.3000   43.7870 C   0  0  0  0  0  0  0  0  0  0  0  0
   46.4670   33.5420   44.8860 N   0  0  0  0  0  0  0  0  0  0  0  0
   45.6360   33.6990   45.9220 C   0  0  0  0  0  0  0  0  0  0  0  0
   44.7520   34.6930   45.8800 N   0  0  0  0  0  0  0  0  0  0  0  0
   47.3860   34.1240   42.6930 N   0  0  0  0  0  0  0  0  0  0  0  0
   48.7350   34.2610   42.7590 C   0  0  0  0  0  0  0  0  0  0  0  0
   49.2990   34.0260   41.5370 N   0  0  0  0  0  0  0  0  0  0  0  0
   48.2470   33.7420   40.7240 C   0  0  0  0  0  0  0  0  0  0  0  0
   48.2510   33.4270   39.3760 C   0  0  0  0  0  0  0  0  0  0  0  0
   47.0410   33.1850   38.8050 N   0  0  0  0  0  0  0  0  0  0  0  0
   45.8950   33.2520   39.5310 C   0  0  0  0  0  0  0  0  0  0  0  0
   45.8630   33.5550   40.8420 N   0  0  0  0  0  0  0  0  0  0  0  0
   47.0510   33.7990   41.4320 C   0  0  0  0  0  0  0  0  0  0  0  0
   45.6450   32.8420   47.0970 C   0  0  0  0  0  0  0  0  0  0  0  0
   44.6900   32.7950   47.8940 O   0  0  0  0  0  0  0  0  0  0  0  0
   46.7500   31.9550   47.4740 C   0  0  0  0  0  0  0  0  0  0  0  0
   47.7180   32.3690   48.3630 C   0  0  0  0  0  0  0  0  0  0  0  0
   48.7530   31.5090   48.7020 C   0  0  0  0  0  0  0  0  0  0  0  0
   48.8650   30.2430   48.1890 C   0  0  0  0  0  0  0  0  0  0  0  0
   47.8980   29.8400   47.3060 C   0  0  0  0  0  0  0  0  0  0  0  0
   46.8780   30.6850   46.9710 C   0  0  0  0  0  0  0  0  0  0  0  0
   45.6650   30.0600   45.8070 S   0  0  0  0  0  0  0  0  0  0  0  0
   43.9651   36.3327   44.7894 H   0  0  0  0  0  0  0  0  0  0  0  0
   45.5432   36.0286   42.8378 H   0  0  0  0  0  0  0  0  0  0  0  0
   49.2952   34.5242   43.6684 H   0  0  0  0  0  0  0  0  0  0  0  0
   49.1847   33.3752   38.7968 H   0  0  0  0  0  0  0  0  0  0  0  0
   44.9424   33.0478   39.0203 H   0  0  0  0  0  0  0  0  0  0  0  0
   47.6705   33.3765   48.8019 H   0  0  0  0  0  0  0  0  0  0  0  0
   49.5162   31.8584   49.4129 H   0  0  0  0  0  0  0  0  0  0  0  0
   49.6949   29.5795   48.4737 H   0  0  0  0  0  0  0  0  0  0  0  0
   47.9430   28.8331   46.8655 H   0  0  0  0  0  0  0  0  0  0  0  0
   44.6110   29.5169   46.4933 H   0  0  0  0  0  0  0  0  0  0  0  0
  1  6  2  0
  2  3  2  0
  2  1  1  0
  3  4  1  0
  4  5  2  0
  5 16  1  0
  6  5  1  0
  7  8  1  0
  7  3  1  0
  9  8  2  0
 10 15  2  0
 10  9  1  0
 11 10  1  0
 12 11  2  0
 12 13  1  0
 13 14  2  0
 14 15  1  0
 15  7  1  0
 16 18  1  0
 16 17  2  0
 18 19  2  0
 19 20  1  0
 21 20  2  0
 22 21  1  0
 23 22  2  0
 23 18  1  0
 24 23  1  0
  1 25  1  0
  2 26  1  0
  8 27  1  0
 11 28  1  0
 13 29  1  0
 19 30  1  0
 20 31  1  0
 21 32  1  0
 22 33  1  0
 24 34  1  0
M  ISO  8  25  14  26  14  27  14  28  14  29  14  30  14  31  14  32  14
M  ISO  2  33  14  34  11
M  END
>  <minimizedAffinity>  (1) 
-5.85033321

>  <minimizedRMSD>  (1) 
1.09417498

$$$$
