
     RDKit          3D

 20 21  0  0  0  0  0  0  0  0999 V2000
   45.7740   34.6860   43.2730 C   0  0  0  0  0  0  0  0  0  0  0  0
   46.0430   33.7500   44.2840 C   0  0  0  0  0  0  0  0  0  0  0  0
   45.4830   33.9730   45.5550 C   0  0  0  0  0  0  0  0  0  0  0  0
   44.7160   35.0860   45.7200 N   0  0  0  0  0  0  0  0  0  0  0  0
   44.4770   35.9670   44.7250 C   0  0  0  0  0  0  0  0  0  0  0  0
   45.0040   35.7710   43.5000 N   0  0  0  0  0  0  0  0  0  0  0  0
   46.4550   34.4690   41.6210 S   0  0  0  0  0  0  0  0  0  0  0  0
   48.1260   33.8450   41.8250 C   0  0  0  0  0  0  0  0  0  0  0  0
   48.9910   34.8000   42.3250 C   0  0  0  0  0  0  0  0  0  0  0  0
   50.3240   34.5290   42.5590 C   0  0  0  0  0  0  0  0  0  0  0  0
   50.8060   33.2540   42.2800 C   0  0  0  0  0  0  0  0  0  0  0  0
   49.8770   32.3540   41.7810 C   0  0  0  0  0  0  0  0  0  0  0  0
   48.5720   32.6050   41.5480 N   0  0  0  0  0  0  0  0  0  0  0  0
   46.6723   32.8693   44.0883 H   0  0  0  0  0  0  0  0  0  0  0  0
   45.6584   33.2735   46.3857 H   0  0  0  0  0  0  0  0  0  0  0  0
   43.8487   36.8496   44.9152 H   0  0  0  0  0  0  0  0  0  0  0  0
   48.6053   35.8068   42.5431 H   0  0  0  0  0  0  0  0  0  0  0  0
   50.9924   35.3060   42.9584 H   0  0  0  0  0  0  0  0  0  0  0  0
   51.8578   32.9775   42.4449 H   0  0  0  0  0  0  0  0  0  0  0  0
   50.2378   31.3400   41.5537 H   0  0  0  0  0  0  0  0  0  0  0  0
  1  6  1  0
  1  2  2  0
  2  3  1  0
  3  4  2  0
  5  4  1  0
  6  5  2  0
  7  8  1  0
  7  1  1  0
  8  9  2  0
  9 10  1  0
 11 10  2  0
 12 11  1  0
 13 12  2  0
 13  8  1  0
  2 14  1  0
  3 15  1  0
  5 16  1  0
  9 17  1  0
 10 18  1  0
 11 19  1  0
 12 20  1  0
M  ISO  7  14  14  15  14  16  14  17  14  18  14  19  14  20  14
M  END
>  <minimizedAffinity>  (1) 
-4.38116932

>  <minimizedRMSD>  (1) 
3.46758103

$$$$
