
     RDKit          3D

 19 20  0  0  0  0  0  0  0  0999 V2000
   45.8730   34.7660   43.0680 C   0  0  0  0  0  0  0  0  0  0  0  0
   45.1300   35.9370   43.2990 C   0  0  0  0  0  0  0  0  0  0  0  0
   44.5640   36.0980   44.5740 C   0  0  0  0  0  0  0  0  0  0  0  0
   44.7650   35.1200   45.5010 N   0  0  0  0  0  0  0  0  0  0  0  0
   45.4800   34.0180   45.2400 C   0  0  0  0  0  0  0  0  0  0  0  0
   46.0290   33.8420   44.0340 N   0  0  0  0  0  0  0  0  0  0  0  0
   46.6380   34.4720   41.4610 S   0  0  0  0  0  0  0  0  0  0  0  0
   48.3390   33.9610   41.7250 C   0  0  0  0  0  0  0  0  0  0  0  0
   49.1670   34.8240   42.4150 C   0  0  0  0  0  0  0  0  0  0  0  0
   50.4730   34.4130   42.6080 C   0  0  0  0  0  0  0  0  0  0  0  0
   50.8540   33.2260   42.1260 N   0  0  0  0  0  0  0  0  0  0  0  0
   50.0500   32.3960   41.4590 C   0  0  0  0  0  0  0  0  0  0  0  0
   48.7770   32.7720   41.2590 N   0  0  0  0  0  0  0  0  0  0  0  0
   44.9975   36.6956   42.5135 H   0  0  0  0  0  0  0  0  0  0  0  0
   43.9724   36.9925   44.8185 H   0  0  0  0  0  0  0  0  0  0  0  0
   45.6159   33.2551   46.0207 H   0  0  0  0  0  0  0  0  0  0  0  0
   48.8052   35.7916   42.7929 H   0  0  0  0  0  0  0  0  0  0  0  0
   51.1863   35.0521   43.1490 H   0  0  0  0  0  0  0  0  0  0  0  0
   50.4200   31.4306   41.0835 H   0  0  0  0  0  0  0  0  0  0  0  0
  1  2  2  0
  1  6  1  0
  2  3  1  0
  3  4  2  0
  5  4  1  0
  6  5  2  0
  7  8  1  0
  7  1  1  0
  8  9  2  0
  9 10  1  0
 11 10  2  0
 12 11  1  0
 13 12  2  0
 13  8  1  0
  2 14  1  0
  3 15  1  0
  5 16  1  0
  9 17  1  0
 10 18  1  0
 12 19  1  0
M  ISO  6  14  14  15  14  16  14  17  14  18  14  19  14
M  END
>  <minimizedAffinity>  (1) 
-4.23162127

>  <minimizedRMSD>  (1) 
4.73022652

$$$$
