
     RDKit          3D

 18 19  0  0  0  0  0  0  0  0999 V2000
   45.6200   34.5440   44.4480 C   0  0  0  0  0  0  0  0  0  0  0  0
   46.6490   33.7220   43.9340 C   0  0  0  0  0  0  0  0  0  0  0  0
   47.1290   32.7100   44.7550 C   0  0  0  0  0  0  0  0  0  0  0  0
   46.5920   32.5680   45.9920 N   0  0  0  0  0  0  0  0  0  0  0  0
   45.6070   33.3690   46.4610 C   0  0  0  0  0  0  0  0  0  0  0  0
   45.1240   34.3520   45.6900 N   0  0  0  0  0  0  0  0  0  0  0  0
   44.9220   35.8860   43.4700 S   0  0  0  0  0  0  0  0  0  0  0  0
   44.4700   35.2260   41.8570 C   0  0  0  0  0  0  0  0  0  0  0  0
   43.1730   35.5420   41.4630 C   0  0  0  0  0  0  0  0  0  0  0  0
   42.9670   34.9700   40.2080 C   0  0  0  0  0  0  0  0  0  0  0  0
   44.1390   34.3520   39.9260 N   0  0  0  0  0  0  0  0  0  0  0  0
   45.0360   34.4920   40.8830 N   0  0  0  0  0  0  0  0  0  0  0  0
   47.0537   33.8780   42.9231 H   0  0  0  0  0  0  0  0  0  0  0  0
   47.9280   32.0377   44.4091 H   0  0  0  0  0  0  0  0  0  0  0  0
   45.2042   33.2131   47.4727 H   0  0  0  0  0  0  0  0  0  0  0  0
   42.4444   36.1341   42.0362 H   0  0  0  0  0  0  0  0  0  0  0  0
   42.0593   35.0113   39.5880 H   0  0  0  0  0  0  0  0  0  0  0  0
   44.3115   33.8281   39.0561 H   0  0  0  0  0  0  0  0  0  0  0  0
  1  6  1  0
  2  1  2  0
  2  3  1  0
  3  4  2  0
  4  5  1  0
  6  5  2  0
  7  1  1  0
  8  7  1  0
  9  8  1  0
 10  9  2  0
 11 10  1  0
 11 12  1  0
 12  8  2  0
  2 13  1  0
  3 14  1  0
  5 15  1  0
  9 16  1  0
 10 17  1  0
 11 18  1  0
M  ISO  6  13  14  14  14  15  14  16  14  17  14  18   9
M  END
>  <minimizedAffinity>  (1) 
-3.76507998

>  <minimizedRMSD>  (1) 
1.37666523

$$$$
