
     RDKit          3D

 26 27  0  0  0  0  0  0  0  0999 V2000
   45.5450   34.3150   44.9260 C   0  0  0  0  0  0  0  0  0  0  0  0
   46.5690   33.3770   44.6230 C   0  0  0  0  0  0  0  0  0  0  0  0
   46.9130   32.4620   45.6310 C   0  0  0  0  0  0  0  0  0  0  0  0
   46.2570   32.5240   46.8230 N   0  0  0  0  0  0  0  0  0  0  0  0
   45.2920   33.4250   47.0770 C   0  0  0  0  0  0  0  0  0  0  0  0
   44.9260   34.3280   46.1360 N   0  0  0  0  0  0  0  0  0  0  0  0
   45.0390   35.5300   43.7040 S   0  0  0  0  0  0  0  0  0  0  0  0
   43.9530   34.2890   39.4440 N   0  0  0  0  0  0  0  0  0  0  0  0
   42.9280   34.7630   40.3460 C   0  0  0  0  0  0  0  0  0  0  0  0
   43.5440   35.6810   41.3960 C   0  0  0  0  0  0  0  0  0  0  0  0
   44.5020   34.7720   42.1820 C   0  0  0  0  0  0  0  0  0  0  0  0
   45.6200   34.4540   41.2210 C   0  0  0  0  0  0  0  0  0  0  0  0
   44.9980   33.5790   40.1300 C   0  0  0  0  0  0  0  0  0  0  0  0
   47.0693   33.3683   43.6434 H   0  0  0  0  0  0  0  0  0  0  0  0
   47.6972   31.7096   45.4612 H   0  0  0  0  0  0  0  0  0  0  0  0
   44.7950   33.4289   48.0583 H   0  0  0  0  0  0  0  0  0  0  0  0
   44.3660   35.0976   38.9577 H   0  0  0  0  0  0  0  0  0  0  0  0
   42.1691   35.3188   39.7758 H   0  0  0  0  0  0  0  0  0  0  0  0
   42.4606   33.9025   40.8470 H   0  0  0  0  0  0  0  0  0  0  0  0
   44.0935   36.5055   40.9183 H   0  0  0  0  0  0  0  0  0  0  0  0
   42.7858   36.1493   42.0409 H   0  0  0  0  0  0  0  0  0  0  0  0
   44.0192   33.8439   42.5219 H   0  0  0  0  0  0  0  0  0  0  0  0
   46.0249   35.3793   40.7851 H   0  0  0  0  0  0  0  0  0  0  0  0
   46.4525   33.9411   41.7248 H   0  0  0  0  0  0  0  0  0  0  0  0
   44.5771   32.6728   40.5900 H   0  0  0  0  0  0  0  0  0  0  0  0
   45.7792   33.3105   39.4036 H   0  0  0  0  0  0  0  0  0  0  0  0
  1  6  1  0
  2  1  2  0
  2  3  1  0
  3  4  2  0
  4  5  1  0
  6  5  2  0
  7  1  1  0
  8 13  1  0
  8  9  1  0
  9 10  1  0
 10 11  1  0
 11  7  1  0
 12 11  1  0
 13 12  1  0
  2 14  1  0
  3 15  1  0
  5 16  1  0
  8 17  1  0
  9 18  1  0
  9 19  1  0
 10 20  1  0
 10 21  1  0
 11 22  1  0
 12 23  1  0
 12 24  1  0
 13 25  1  0
 13 26  1  0
M  ISO  8  14  14  15  14  16  14  17   5  18  13  19  13  20  13  21  13
M  ISO  5  22  13  23  13  24  13  25  13  26  13
M  END
>  <minimizedAffinity>  (1) 
-3.7649045

>  <minimizedRMSD>  (1) 
4.02377462

$$$$
