
     RDKit          3D

 24 25  0  0  0  0  0  0  0  0999 V2000
   46.2830   34.8970   41.7300 C   0  0  0  0  0  0  0  0  0  0  0  0
   45.3250   34.3170   40.8990 C   0  0  0  0  0  0  0  0  0  0  0  0
   43.9890   34.4670   41.2360 C   0  0  0  0  0  0  0  0  0  0  0  0
   43.6870   35.1790   42.3730 N   0  0  0  0  0  0  0  0  0  0  0  0
   44.6380   35.7280   43.1560 C   0  0  0  0  0  0  0  0  0  0  0  0
   45.9300   35.5900   42.8420 N   0  0  0  0  0  0  0  0  0  0  0  0
   48.0530   34.7470   41.3590 S   0  0  0  0  0  0  0  0  0  0  0  0
   48.9430   34.1380   42.8180 C   0  0  0  0  0  0  0  0  0  0  0  0
   50.4160   34.1750   42.4890 C   0  0  0  0  0  0  0  0  0  0  0  0
   50.7780   32.7960   41.9790 C   0  0  0  0  0  0  0  0  0  0  0  0
   49.4310   32.0960   41.7700 C   0  0  0  0  0  0  0  0  0  0  0  0
   48.6640   32.6700   42.9550 C   0  0  0  0  0  0  0  0  0  0  0  0
   45.6216   33.7558   40.0006 H   0  0  0  0  0  0  0  0  0  0  0  0
   43.1947   34.0299   40.6131 H   0  0  0  0  0  0  0  0  0  0  0  0
   44.3496   36.2911   44.0558 H   0  0  0  0  0  0  0  0  0  0  0  0
   48.6585   34.7258   43.7032 H   0  0  0  0  0  0  0  0  0  0  0  0
   50.6134   34.9305   41.7142 H   0  0  0  0  0  0  0  0  0  0  0  0
   51.0142   34.4417   43.3728 H   0  0  0  0  0  0  0  0  0  0  0  0
   51.3310   32.8654   41.0306 H   0  0  0  0  0  0  0  0  0  0  0  0
   51.4282   32.2498   42.6782 H   0  0  0  0  0  0  0  0  0  0  0  0
   48.9698   32.3715   40.8101 H   0  0  0  0  0  0  0  0  0  0  0  0
   49.4752   30.9977   41.7280 H   0  0  0  0  0  0  0  0  0  0  0  0
   49.0466   32.2767   43.9084 H   0  0  0  0  0  0  0  0  0  0  0  0
   47.5933   32.4180   42.9573 H   0  0  0  0  0  0  0  0  0  0  0  0
  1  6  2  0
  2  3  2  0
  2  1  1  0
  3  4  1  0
  4  5  2  0
  6  5  1  0
  7  1  1  0
  7  8  1  0
  8 12  1  0
  9  8  1  0
 10  9  1  0
 11 10  1  0
 11 12  1  0
  2 13  1  0
  3 14  1  0
  5 15  1  0
  8 16  1  0
  9 17  1  0
  9 18  1  0
 10 19  1  0
 10 20  1  0
 11 21  1  0
 11 22  1  0
 12 23  1  0
 12 24  1  0
M  ISO  8  13  14  14  14  15  14  16  13  17  13  18  13  19  13  20  13
M  ISO  4  21  13  22  13  23  13  24  13
M  END
>  <minimizedAffinity>  (1) 
-3.57022238

>  <minimizedRMSD>  (1) 
5.60252047

$$$$
