
     RDKit          3D

 18 19  0  0  0  0  0  0  0  0999 V2000
   45.5310   34.2780   44.8840 C   0  0  0  0  0  0  0  0  0  0  0  0
   46.5130   33.4480   44.3410 C   0  0  0  0  0  0  0  0  0  0  0  0
   47.0550   32.4390   45.1230 C   0  0  0  0  0  0  0  0  0  0  0  0
   46.5800   32.3210   46.4060 N   0  0  0  0  0  0  0  0  0  0  0  0
   45.6360   33.1290   46.9060 C   0  0  0  0  0  0  0  0  0  0  0  0
   45.0980   34.1140   46.1620 N   0  0  0  0  0  0  0  0  0  0  0  0
   44.7870   35.6080   43.9190 S   0  0  0  0  0  0  0  0  0  0  0  0
   43.9290   34.8330   42.5100 C   0  0  0  0  0  0  0  0  0  0  0  0
   43.5770   35.6240   41.3200 C   0  0  0  0  0  0  0  0  0  0  0  0
   44.7290   34.7150   41.2360 C   0  0  0  0  0  0  0  0  0  0  0  0
   46.8531   33.5925   43.3049 H   0  0  0  0  0  0  0  0  0  0  0  0
   47.8306   31.7635   44.7330 H   0  0  0  0  0  0  0  0  0  0  0  0
   45.2945   32.9855   47.9418 H   0  0  0  0  0  0  0  0  0  0  0  0
   43.3558   34.1674   43.1721 H   0  0  0  0  0  0  0  0  0  0  0  0
   42.6573   35.3914   40.7632 H   0  0  0  0  0  0  0  0  0  0  0  0
   43.4304   36.6971   41.1275 H   0  0  0  0  0  0  0  0  0  0  0  0
   44.6675   33.8003   40.6280 H   0  0  0  0  0  0  0  0  0  0  0  0
   45.7902   34.8195   40.9658 H   0  0  0  0  0  0  0  0  0  0  0  0
  1  6  1  0
  2  1  2  0
  2  3  1  0
  3  4  2  0
  4  5  1  0
  6  5  2  0
  7  1  1  0
  8  7  1  0
  9  8  1  0
 10  9  1  0
 10  8  1  0
  2 11  1  0
  3 12  1  0
  5 13  1  0
  8 14  1  0
  9 15  1  0
  9 16  1  0
 10 17  1  0
 10 18  1  0
M  ISO  8  11  14  12  14  13  14  14  13  15  13  16  13  17  13  18  13
M  END
>  <minimizedAffinity>  (1) 
-3.02970099

>  <minimizedRMSD>  (1) 
2.29459262

$$$$
