
     RDKit          3D

 23 23  0  0  0  0  0  0  0  0999 V2000
   45.9580   32.4970   44.7860 C   0  0  0  0  0  0  0  0  0  0  0  0
   46.6380   31.2770   44.7310 C   0  0  0  0  0  0  0  0  0  0  0  0
   47.3250   30.8580   45.8830 C   0  0  0  0  0  0  0  0  0  0  0  0
   47.2820   31.6770   46.9830 N   0  0  0  0  0  0  0  0  0  0  0  0
   46.6200   32.8390   47.0030 C   0  0  0  0  0  0  0  0  0  0  0  0
   45.9640   33.2420   45.9090 N   0  0  0  0  0  0  0  0  0  0  0  0
   45.0550   33.0940   43.3430 S   0  0  0  0  0  0  0  0  0  0  0  0
   45.9110   34.4700   42.5910 C   0  0  0  0  0  0  0  0  0  0  0  0
   45.6610   34.4170   41.0940 C   0  0  0  0  0  0  0  0  0  0  0  0
   47.3940   34.4940   42.8390 C   0  0  0  0  0  0  0  0  0  0  0  0
   45.3600   35.8140   43.0520 C   0  0  0  0  0  0  0  0  0  0  0  0
   46.6354   30.6655   43.8167 H   0  0  0  0  0  0  0  0  0  0  0  0
   47.8777   29.9071   45.9022 H   0  0  0  0  0  0  0  0  0  0  0  0
   46.6150   33.4585   47.9120 H   0  0  0  0  0  0  0  0  0  0  0  0
   44.6006   34.1922   40.9071 H   0  0  0  0  0  0  0  0  0  0  0  0
   45.9144   35.3888   40.6453 H   0  0  0  0  0  0  0  0  0  0  0  0
   46.2869   33.6316   40.6453 H   0  0  0  0  0  0  0  0  0  0  0  0
   47.5846   34.4971   43.9224 H   0  0  0  0  0  0  0  0  0  0  0  0
   47.8556   33.6032   42.3880 H   0  0  0  0  0  0  0  0  0  0  0  0
   47.8266   35.3993   42.3880 H   0  0  0  0  0  0  0  0  0  0  0  0
   45.3464   35.8471   44.1514 H   0  0  0  0  0  0  0  0  0  0  0  0
   45.9989   36.6232   42.6687 H   0  0  0  0  0  0  0  0  0  0  0  0
   44.3369   35.9418   42.6687 H   0  0  0  0  0  0  0  0  0  0  0  0
  1  6  2  0
  2  1  1  0
  2  3  2  0
  3  4  1  0
  4  5  2  0
  6  5  1  0
  7  1  1  0
  8 10  1  0
  8 11  1  0
  8  7  1  0
  9  8  1  0
  2 12  1  0
  3 13  1  0
  5 14  1  0
  9 15  1  0
  9 16  1  0
  9 17  1  0
 10 18  1  0
 10 19  1  0
 10 20  1  0
 11 21  1  0
 11 22  1  0
 11 23  1  0
M  ISO  8  12  14  13  14  14  14  15   8  16   8  17   8  18   8  19   8
M  ISO  4  20   8  21   8  22   8  23   8
M  END
>  <minimizedAffinity>  (1) 
-2.98245311

>  <minimizedRMSD>  (1) 
2.71831894

$$$$
