
     RDKit          3D

 14 14  0  0  0  0  0  0  0  0999 V2000
   45.6660   34.6540   44.0530 C   0  0  0  0  0  0  0  0  0  0  0  0
   46.7050   33.8820   43.5230 C   0  0  0  0  0  0  0  0  0  0  0  0
   47.2630   32.8830   44.3080 C   0  0  0  0  0  0  0  0  0  0  0  0
   46.7570   32.7150   45.5640 N   0  0  0  0  0  0  0  0  0  0  0  0
   45.7620   33.4660   46.0500 C   0  0  0  0  0  0  0  0  0  0  0  0
   45.2010   34.4410   45.3120 N   0  0  0  0  0  0  0  0  0  0  0  0
   44.8910   35.9670   43.0940 S   0  0  0  0  0  0  0  0  0  0  0  0
   43.6390   35.2790   41.9900 C   0  0  0  0  0  0  0  0  0  0  0  0
   47.0731   34.0635   42.5024 H   0  0  0  0  0  0  0  0  0  0  0  0
   48.0813   32.2512   43.9324 H   0  0  0  0  0  0  0  0  0  0  0  0
   45.3962   33.2830   47.0711 H   0  0  0  0  0  0  0  0  0  0  0  0
   42.8290   34.8339   42.5864 H   0  0  0  0  0  0  0  0  0  0  0  0
   43.2301   36.0791   41.3555 H   0  0  0  0  0  0  0  0  0  0  0  0
   44.0952   34.5049   41.3555 H   0  0  0  0  0  0  0  0  0  0  0  0
  1  6  2  0
  2  1  1  0
  2  3  2  0
  3  4  1  0
  4  5  2  0
  6  5  1  0
  7  1  1  0
  8  7  1  0
  2  9  1  0
  3 10  1  0
  5 11  1  0
  8 12  1  0
  8 13  1  0
  8 14  1  0
M  ISO  6   9  14  10  14  11  14  12   8  13   8  14   8
M  END
>  <minimizedAffinity>  (1) 
-2.61915326

>  <minimizedRMSD>  (1) 
0.086427778

$$$$
