
     RDKit          3D

 22 24  0  0  0  0  0  0  0  0999 V2000
   43.9130   33.9060   40.8090 S   0  0  0  0  0  0  0  0  0  0  0  0
   39.1230   32.9090   41.5250 N   0  0  0  0  0  0  0  0  0  0  0  0
   39.9170   31.9420   42.0110 C   0  0  0  0  0  0  0  0  0  0  0  0
   41.2030   32.3220   41.7580 N   0  0  0  0  0  0  0  0  0  0  0  0
   41.1410   33.4970   41.1340 C   0  0  0  0  0  0  0  0  0  0  0  0
   42.1650   34.2890   40.6720 C   0  0  0  0  0  0  0  0  0  0  0  0
   41.9140   35.4620   40.0550 N   0  0  0  0  0  0  0  0  0  0  0  0
   40.6070   35.8220   39.9130 C   0  0  0  0  0  0  0  0  0  0  0  0
   39.5970   35.0560   40.3620 N   0  0  0  0  0  0  0  0  0  0  0  0
   39.8460   33.9030   40.9670 C   0  0  0  0  0  0  0  0  0  0  0  0
   44.3980   34.2740   42.5130 C   0  0  0  0  0  0  0  0  0  0  0  0
   45.0420   33.2820   43.2760 C   0  0  0  0  0  0  0  0  0  0  0  0
   45.3920   33.6350   44.5920 C   0  0  0  0  0  0  0  0  0  0  0  0
   45.0880   34.8830   45.0240 N   0  0  0  0  0  0  0  0  0  0  0  0
   44.4720   35.8040   44.2640 C   0  0  0  0  0  0  0  0  0  0  0  0
   44.1290   35.4950   43.0080 N   0  0  0  0  0  0  0  0  0  0  0  0
   38.0942   32.8944   41.5718 H   0  0  0  0  0  0  0  0  0  0  0  0
   39.5932   31.0201   42.5163 H   0  0  0  0  0  0  0  0  0  0  0  0
   40.3700   36.7729   39.4134 H   0  0  0  0  0  0  0  0  0  0  0  0
   45.2598   32.2849   42.8656 H   0  0  0  0  0  0  0  0  0  0  0  0
   45.8992   32.9168   45.2531 H   0  0  0  0  0  0  0  0  0  0  0  0
   44.2518   36.8022   44.6703 H   0  0  0  0  0  0  0  0  0  0  0  0
  1 11  1  0
  2  3  1  0
  4  3  2  0
  5  4  1  0
  6  1  1  0
  6  5  2  0
  7  6  1  0
  8  7  2  0
  8  9  1  0
  9 10  2  0
 10  5  1  0
 10  2  1  0
 11 16  1  0
 11 12  2  0
 12 13  1  0
 13 14  2  0
 15 14  1  0
 16 15  2  0
  2 17  1  0
  3 18  1  0
  8 19  1  0
 12 20  1  0
 13 21  1  0
 15 22  1  0
M  ISO  6  17   9  18  14  19  14  20  14  21  14  22  14
M  END
>  <minimizedAffinity>  (1) 
-4.76958132

>  <minimizedRMSD>  (1) 
2.58992982

$$$$
