
     RDKit          3D

 29 32  0  0  0  0  0  0  0  0999 V2000
   47.8330   34.1950   41.9690 S   0  0  0  0  0  0  0  0  0  0  0  0
   47.1150   33.7770   37.0950 N   0  0  0  0  0  0  0  0  0  0  0  0
   48.2240   34.4740   37.3830 C   0  0  0  0  0  0  0  0  0  0  0  0
   48.3150   34.5220   38.7360 N   0  0  0  0  0  0  0  0  0  0  0  0
   47.2710   33.8610   39.2310 C   0  0  0  0  0  0  0  0  0  0  0  0
   46.9150   33.6270   40.5390 C   0  0  0  0  0  0  0  0  0  0  0  0
   45.8120   32.9300   40.8420 N   0  0  0  0  0  0  0  0  0  0  0  0
   45.0540   32.4600   39.8020 C   0  0  0  0  0  0  0  0  0  0  0  0
   45.3870   32.6780   38.5160 N   0  0  0  0  0  0  0  0  0  0  0  0
   46.4850   33.3710   38.2140 C   0  0  0  0  0  0  0  0  0  0  0  0
   46.6290   34.4560   43.2990 C   0  0  0  0  0  0  0  0  0  0  0  0
   45.6780   35.4830   43.1850 C   0  0  0  0  0  0  0  0  0  0  0  0
   44.7740   35.6410   44.2380 C   0  0  0  0  0  0  0  0  0  0  0  0
   44.8820   34.7950   45.2840 N   0  0  0  0  0  0  0  0  0  0  0  0
   45.7960   33.8280   45.3670 C   0  0  0  0  0  0  0  0  0  0  0  0
   46.6730   33.6550   44.3740 N   0  0  0  0  0  0  0  0  0  0  0  0
   45.9210   32.9120   46.4900 C   0  0  0  0  0  0  0  0  0  0  0  0
   45.2040   32.9030   47.7130 C   0  0  0  0  0  0  0  0  0  0  0  0
   45.4760   31.9550   48.6350 C   0  0  0  0  0  0  0  0  0  0  0  0
   46.5040   30.9900   48.3080 C   0  0  0  0  0  0  0  0  0  0  0  0
   47.0260   31.5690   46.5840 S   0  0  0  0  0  0  0  0  0  0  0  0
   46.7867   33.5775   36.1393 H   0  0  0  0  0  0  0  0  0  0  0  0
   48.9244   34.9205   36.6618 H   0  0  0  0  0  0  0  0  0  0  0  0
   44.1430   31.8854   40.0253 H   0  0  0  0  0  0  0  0  0  0  0  0
   45.6463   36.1372   42.3013 H   0  0  0  0  0  0  0  0  0  0  0  0
   44.0031   36.4254   44.2156 H   0  0  0  0  0  0  0  0  0  0  0  0
   44.4325   33.6621   47.9091 H   0  0  0  0  0  0  0  0  0  0  0  0
   44.9390   31.9176   49.5943 H   0  0  0  0  0  0  0  0  0  0  0  0
   46.8812   30.1453   48.9031 H   0  0  0  0  0  0  0  0  0  0  0  0
  1 11  1  0
  2  3  1  0
  2 10  1  0
  3  4  2  0
  4  5  1  0
  5  6  2  0
  6  7  1  0
  6  1  1  0
  8  7  2  0
  9  8  1  0
 10  9  2  0
 10  5  1  0
 11 16  1  0
 12 11  2  0
 12 13  1  0
 13 14  2  0
 14 15  1  0
 15 17  1  0
 16 15  2  0
 17 21  1  0
 17 18  2  0
 18 19  1  0
 20 19  2  0
 21 20  1  0
  2 22  1  0
  3 23  1  0
  8 24  1  0
 12 25  1  0
 13 26  1  0
 18 27  1  0
 19 28  1  0
 20 29  1  0
M  ISO  8  22   9  23  14  24  14  25  14  26  14  27  14  28  14  29  14
M  END
>  <minimizedAffinity>  (1) 
-5.6433835

>  <minimizedRMSD>  (1) 
6.08811331

$$$$
