
     RDKit          3D

 35 38  0  0  0  0  0  0  0  0999 V2000
   46.3890   34.3950   41.4500 C   0  0  0  0  0  0  0  0  0  0  0  0
   46.2820   34.2050   42.8470 C   0  0  0  0  0  0  0  0  0  0  0  0
   44.9950   34.0510   43.3690 C   0  0  0  0  0  0  0  0  0  0  0  0
   43.9550   34.0950   42.5100 N   0  0  0  0  0  0  0  0  0  0  0  0
   44.0840   34.2750   41.1930 C   0  0  0  0  0  0  0  0  0  0  0  0
   45.3080   34.4260   40.6640 N   0  0  0  0  0  0  0  0  0  0  0  0
   42.8710   34.2940   40.4430 N   0  0  0  0  0  0  0  0  0  0  0  0
   42.8260   35.1810   39.4060 C   0  0  0  0  0  0  0  0  0  0  0  0
   41.7270   35.3000   38.6070 C   0  0  0  0  0  0  0  0  0  0  0  0
   41.6740   36.2670   37.4750 C   0  0  0  0  0  0  0  0  0  0  0  0
   40.6270   34.4860   38.8710 C   0  0  0  0  0  0  0  0  0  0  0  0
   39.5690   34.5380   38.1740 O   0  0  0  0  0  0  0  0  0  0  0  0
   40.6920   33.6190   39.8980 N   0  0  0  0  0  0  0  0  0  0  0  0
   41.7810   33.5070   40.6800 C   0  0  0  0  0  0  0  0  0  0  0  0
   41.9380   32.7380   41.6520 O   0  0  0  0  0  0  0  0  0  0  0  0
   48.0100   34.6020   40.6930 S   0  0  0  0  0  0  0  0  0  0  0  0
   47.4410   30.5020   37.9820 N   0  0  0  0  0  0  0  0  0  0  0  0
   47.2630   30.2720   39.3010 C   0  0  0  0  0  0  0  0  0  0  0  0
   47.4440   31.4640   39.9290 N   0  0  0  0  0  0  0  0  0  0  0  0
   47.7230   32.3700   38.9900 C   0  0  0  0  0  0  0  0  0  0  0  0
   47.9820   33.7020   39.1360 C   0  0  0  0  0  0  0  0  0  0  0  0
   48.2490   34.4830   38.0650 N   0  0  0  0  0  0  0  0  0  0  0  0
   48.2480   33.8780   36.8440 C   0  0  0  0  0  0  0  0  0  0  0  0
   47.9920   32.5590   36.6950 N   0  0  0  0  0  0  0  0  0  0  0  0
   47.7320   31.8050   37.7440 C   0  0  0  0  0  0  0  0  0  0  0  0
   47.1715   34.1796   43.4936 H   0  0  0  0  0  0  0  0  0  0  0  0
   44.8345   33.8987   44.4465 H   0  0  0  0  0  0  0  0  0  0  0  0
   43.7011   35.8178   39.2093 H   0  0  0  0  0  0  0  0  0  0  0  0
   41.6178   37.2919   37.8706 H   0  0  0  0  0  0  0  0  0  0  0  0
   42.5793   36.1607   36.8593 H   0  0  0  0  0  0  0  0  0  0  0  0
   40.7857   36.0624   36.8593 H   0  0  0  0  0  0  0  0  0  0  0  0
   39.8779   33.0189   40.0926 H   0  0  0  0  0  0  0  0  0  0  0  0
   47.3654   29.7805   37.2509 H   0  0  0  0  0  0  0  0  0  0  0  0
   47.0194   29.3093   39.7741 H   0  0  0  0  0  0  0  0  0  0  0  0
   48.4625   34.4826   35.9505 H   0  0  0  0  0  0  0  0  0  0  0  0
  1  2  2  0
  2  3  1  0
  4  3  2  0
  5  4  1  0
  6  5  2  0
  6  1  1  0
  7 14  1  0
  7  5  1  0
  8  7  1  0
  9 11  1  0
  9  8  2  0
 10  9  1  0
 11 13  1  0
 12 11  2  0
 13 14  1  0
 14 15  2  0
 16  1  1  0
 17 18  1  0
 18 19  2  0
 20 21  2  0
 20 19  1  0
 21 16  1  0
 22 21  1  0
 23 22  2  0
 24 23  1  0
 24 25  2  0
 25 17  1  0
 25 20  1  0
  2 26  1  0
  3 27  1  0
  8 28  1  0
 10 29  1  0
 10 30  1  0
 10 31  1  0
 13 32  1  0
 17 33  1  0
 18 34  1  0
 23 35  1  0
M  ISO  8  26  14  27  14  28  14  29   8  30   8  31   8  32   9  33   9
M  ISO  2  34  14  35  14
M  END
>  <minimizedAffinity>  (1) 
-5.62577057

>  <minimizedRMSD>  (1) 
6.87433434

$$$$
