
     RDKit          3D

 34 36  0  0  0  0  0  0  0  0999 V2000
   43.7570   33.7870   40.4160 S   0  0  0  0  0  0  0  0  0  0  0  0
   38.9610   33.0840   41.4140 N   0  0  0  0  0  0  0  0  0  0  0  0
   39.7380   32.1110   41.9220 C   0  0  0  0  0  0  0  0  0  0  0  0
   41.0260   32.4130   41.5840 N   0  0  0  0  0  0  0  0  0  0  0  0
   40.9930   33.5490   40.8880 C   0  0  0  0  0  0  0  0  0  0  0  0
   42.0230   34.2650   40.3270 C   0  0  0  0  0  0  0  0  0  0  0  0
   41.7910   35.4020   39.6540 N   0  0  0  0  0  0  0  0  0  0  0  0
   40.5030   35.8220   39.5460 C   0  0  0  0  0  0  0  0  0  0  0  0
   39.4770   35.1300   40.0930 N   0  0  0  0  0  0  0  0  0  0  0  0
   39.7140   34.0030   40.7580 C   0  0  0  0  0  0  0  0  0  0  0  0
   44.3350   34.2260   42.0820 C   0  0  0  0  0  0  0  0  0  0  0  0
   43.9880   35.4740   42.6220 C   0  0  0  0  0  0  0  0  0  0  0  0
   44.4620   35.7550   43.9050 C   0  0  0  0  0  0  0  0  0  0  0  0
   45.2070   34.8180   44.5230 N   0  0  0  0  0  0  0  0  0  0  0  0
   45.5240   33.6370   43.9880 C   0  0  0  0  0  0  0  0  0  0  0  0
   45.0910   33.3320   42.7640 N   0  0  0  0  0  0  0  0  0  0  0  0
   46.3610   32.6230   44.7220 C   0  0  0  0  0  0  0  0  0  0  0  0
   47.7160   32.4750   44.0600 C   0  0  0  0  0  0  0  0  0  0  0  0
   45.7200   31.2340   44.6240 C   0  0  0  0  0  0  0  0  0  0  0  0
   46.5730   32.9930   46.1530 C   0  0  0  0  0  0  0  0  0  0  0  0
   37.9363   33.1260   41.5095 H   0  0  0  0  0  0  0  0  0  0  0  0
   39.4002   31.2380   42.4998 H   0  0  0  0  0  0  0  0  0  0  0  0
   40.2884   36.7514   38.9981 H   0  0  0  0  0  0  0  0  0  0  0  0
   43.3734   36.1947   42.0626 H   0  0  0  0  0  0  0  0  0  0  0  0
   44.2340   36.7124   44.3962 H   0  0  0  0  0  0  0  0  0  0  0  0
   48.4943   32.3900   44.8327 H   0  0  0  0  0  0  0  0  0  0  0  0
   47.7212   31.5710   43.4334 H   0  0  0  0  0  0  0  0  0  0  0  0
   47.9162   33.3566   43.4334 H   0  0  0  0  0  0  0  0  0  0  0  0
   45.5389   30.8416   45.6355 H   0  0  0  0  0  0  0  0  0  0  0  0
   44.7651   31.3082   44.0831 H   0  0  0  0  0  0  0  0  0  0  0  0
   46.3961   30.5555   44.0831 H   0  0  0  0  0  0  0  0  0  0  0  0
   46.1309   32.2215   46.8006 H   0  0  0  0  0  0  0  0  0  0  0  0
   47.6514   33.0685   46.3563 H   0  0  0  0  0  0  0  0  0  0  0  0
   46.0928   33.9616   46.3563 H   0  0  0  0  0  0  0  0  0  0  0  0
  1 11  1  0
  2  3  1  0
  4  3  2  0
  5  4  1  0
  6  1  1  0
  6  5  2  0
  7  6  1  0
  8  7  2  0
  8  9  1  0
  9 10  2  0
 10  5  1  0
 10  2  1  0
 11 12  2  0
 11 16  1  0
 12 13  1  0
 13 14  2  0
 15 14  1  0
 15 17  1  0
 16 15  2  0
 17 20  1  0
 18 17  1  0
 19 17  1  0
  2 21  1  0
  3 22  1  0
  8 23  1  0
 12 24  1  0
 13 25  1  0
 18 26  1  0
 18 27  1  0
 18 28  1  0
 19 29  1  0
 19 30  1  0
 19 31  1  0
 20 32  1  0
 20 33  1  0
 20 34  1  0
M  ISO  8  21   9  22  14  23  14  24  14  25  14  26   8  27   8  28   8
M  ISO  6  29   8  30   8  31   8  32   8  33   8  34   8
M  END
>  <minimizedAffinity>  (1) 
-5.26488256

>  <minimizedRMSD>  (1) 
2.95692992

$$$$
