
     RDKit          3D

 23 25  0  0  0  0  0  0  0  0999 V2000
   39.0020   32.9980   41.4170 N   0  0  0  0  0  0  0  0  0  0  0  0
   39.7380   32.0000   41.9530 C   0  0  0  0  0  0  0  0  0  0  0  0
   41.0340   32.3070   41.7240 N   0  0  0  0  0  0  0  0  0  0  0  0
   41.0620   33.4560   41.0680 C   0  0  0  0  0  0  0  0  0  0  0  0
   42.1340   34.1910   40.6040 C   0  0  0  0  0  0  0  0  0  0  0  0
   41.9550   35.3490   39.9530 N   0  0  0  0  0  0  0  0  0  0  0  0
   40.6840   35.7780   39.7620 C   0  0  0  0  0  0  0  0  0  0  0  0
   39.6280   35.0820   40.2030 N   0  0  0  0  0  0  0  0  0  0  0  0
   39.7870   33.9290   40.8530 C   0  0  0  0  0  0  0  0  0  0  0  0
   43.8530   33.7050   40.8080 S   0  0  0  0  0  0  0  0  0  0  0  0
   44.3740   34.2650   42.4430 C   0  0  0  0  0  0  0  0  0  0  0  0
   44.1530   35.5910   42.8230 C   0  0  0  0  0  0  0  0  0  0  0  0
   44.5800   35.9630   44.1060 C   0  0  0  0  0  0  0  0  0  0  0  0
   45.1760   35.0160   44.8870 N   0  0  0  0  0  0  0  0  0  0  0  0
   45.3670   33.7590   44.4790 C   0  0  0  0  0  0  0  0  0  0  0  0
   44.9700   33.3760   43.2630 N   0  0  0  0  0  0  0  0  0  0  0  0
   46.1700   32.6760   45.6660 S   0  0  0  0  0  0  0  0  0  0  0  0
   37.9730   33.0390   41.4384 H   0  0  0  0  0  0  0  0  0  0  0  0
   39.3564   31.1100   42.4747 H   0  0  0  0  0  0  0  0  0  0  0  0
   40.5145   36.7254   39.2293 H   0  0  0  0  0  0  0  0  0  0  0  0
   43.6667   36.3099   42.1473 H   0  0  0  0  0  0  0  0  0  0  0  0
   44.4383   36.9903   44.4728 H   0  0  0  0  0  0  0  0  0  0  0  0
   45.8658   33.0863   46.9372 H   0  0  0  0  0  0  0  0  0  0  0  0
  1  2  1  0
  3  2  2  0
  4  3  1  0
  5 10  1  0
  5  4  2  0
  6  5  1  0
  7  6  2  0
  7  8  1  0
  8  9  2  0
  9  4  1  0
  9  1  1  0
 10 11  1  0
 11 12  2  0
 11 16  1  0
 12 13  1  0
 13 14  2  0
 15 14  1  0
 15 17  1  0
 16 15  2  0
  1 18  1  0
  2 19  1  0
  7 20  1  0
 12 21  1  0
 13 22  1  0
 17 23  1  0
M  ISO  6  18   9  19  14  20  14  21  14  22  14  23  11
M  END
>  <minimizedAffinity>  (1) 
-5.06975937

>  <minimizedRMSD>  (1) 
1.71103799

$$$$
