
     RDKit          3D

 32 35  0  0  0  0  0  0  0  0999 V2000
   47.0000   34.5960   42.0390 C   0  0  0  0  0  0  0  0  0  0  0  0
   47.2320   34.1880   43.3670 C   0  0  0  0  0  0  0  0  0  0  0  0
   46.0960   33.8160   44.1040 C   0  0  0  0  0  0  0  0  0  0  0  0
   44.8800   33.8750   43.4980 N   0  0  0  0  0  0  0  0  0  0  0  0
   44.7100   34.2700   42.2350 C   0  0  0  0  0  0  0  0  0  0  0  0
   45.7620   34.6330   41.4930 N   0  0  0  0  0  0  0  0  0  0  0  0
   43.3630   34.2980   41.6750 C   0  0  0  0  0  0  0  0  0  0  0  0
   42.6830   33.1430   41.3480 C   0  0  0  0  0  0  0  0  0  0  0  0
   41.4060   33.2290   40.8180 C   0  0  0  0  0  0  0  0  0  0  0  0
   40.8380   34.4780   40.6280 C   0  0  0  0  0  0  0  0  0  0  0  0
   41.4630   35.6600   40.9330 C   0  0  0  0  0  0  0  0  0  0  0  0
   42.7270   35.5030   41.4550 C   0  0  0  0  0  0  0  0  0  0  0  0
   48.4070   35.0930   41.0150 S   0  0  0  0  0  0  0  0  0  0  0  0
   49.2370   30.6040   39.0880 N   0  0  0  0  0  0  0  0  0  0  0  0
   49.4330   30.6320   40.4190 C   0  0  0  0  0  0  0  0  0  0  0  0
   49.1780   31.9030   40.8360 N   0  0  0  0  0  0  0  0  0  0  0  0
   48.8390   32.6020   39.7570 C   0  0  0  0  0  0  0  0  0  0  0  0
   48.4920   33.9280   39.6560 C   0  0  0  0  0  0  0  0  0  0  0  0
   48.1730   34.4720   38.4650 N   0  0  0  0  0  0  0  0  0  0  0  0
   48.2130   33.6520   37.3790 C   0  0  0  0  0  0  0  0  0  0  0  0
   48.5510   32.3500   37.4630 N   0  0  0  0  0  0  0  0  0  0  0  0
   48.8620   31.8240   38.6330 C   0  0  0  0  0  0  0  0  0  0  0  0
   48.2425   34.1623   43.8008 H   0  0  0  0  0  0  0  0  0  0  0  0
   46.1878   33.4841   45.1487 H   0  0  0  0  0  0  0  0  0  0  0  0
   43.1516   32.1606   41.5070 H   0  0  0  0  0  0  0  0  0  0  0  0
   40.8505   32.3177   40.5516 H   0  0  0  0  0  0  0  0  0  0  0  0
   39.8230   34.5247   40.2065 H   0  0  0  0  0  0  0  0  0  0  0  0
   40.9968   36.6437   40.7749 H   0  0  0  0  0  0  0  0  0  0  0  0
   43.2781   36.4174   41.7198 H   0  0  0  0  0  0  0  0  0  0  0  0
   49.3558   29.7695   38.4961 H   0  0  0  0  0  0  0  0  0  0  0  0
   49.7414   29.7866   41.0516 H   0  0  0  0  0  0  0  0  0  0  0  0
   47.9592   34.0689   36.3932 H   0  0  0  0  0  0  0  0  0  0  0  0
  1  2  2  0
  2  3  1  0
  4  3  2  0
  5  4  1  0
  6  1  1  0
  6  5  2  0
  7  5  1  0
  8  7  2  0
  9  8  1  0
 10  9  2  0
 10 11  1  0
 11 12  2  0
 12  7  1  0
 13  1  1  0
 14 15  1  0
 15 16  2  0
 17 16  1  0
 18 17  2  0
 18 13  1  0
 19 18  1  0
 20 21  1  0
 20 19  2  0
 21 22  2  0
 22 14  1  0
 22 17  1  0
  2 23  1  0
  3 24  1  0
  8 25  1  0
  9 26  1  0
 10 27  1  0
 11 28  1  0
 12 29  1  0
 14 30  1  0
 15 31  1  0
 20 32  1  0
M  ISO  8  23  14  24  14  25  14  26  14  27  14  28  14  29  14  30   9
M  ISO  2  31  14  32  14
M  END
>  <minimizedAffinity>  (1) 
-4.81565142

>  <minimizedRMSD>  (1) 
6.61931086

$$$$
