
     RDKit          3D

 34 37  0  0  0  0  0  0  0  0999 V2000
   46.9850   34.5690   41.9770 C   0  0  0  0  0  0  0  0  0  0  0  0
   47.1130   34.2470   43.3460 C   0  0  0  0  0  0  0  0  0  0  0  0
   45.9320   33.9200   44.0150 C   0  0  0  0  0  0  0  0  0  0  0  0
   44.7810   33.9330   43.3230 N   0  0  0  0  0  0  0  0  0  0  0  0
   44.6830   34.2410   42.0250 C   0  0  0  0  0  0  0  0  0  0  0  0
   45.8010   34.5600   41.3540 N   0  0  0  0  0  0  0  0  0  0  0  0
   43.4470   34.2450   41.3200 N   0  0  0  0  0  0  0  0  0  0  0  0
   42.9210   35.2270   40.3900 C   0  0  0  0  0  0  0  0  0  0  0  0
   41.4050   35.1090   40.5250 C   0  0  0  0  0  0  0  0  0  0  0  0
   41.2480   33.6360   40.7080 C   0  0  0  0  0  0  0  0  0  0  0  0
   42.4610   33.1870   41.4400 C   0  0  0  0  0  0  0  0  0  0  0  0
   48.4670   35.0060   41.0350 S   0  0  0  0  0  0  0  0  0  0  0  0
   48.9100   30.6330   38.7880 N   0  0  0  0  0  0  0  0  0  0  0  0
   49.0540   30.5270   40.1240 C   0  0  0  0  0  0  0  0  0  0  0  0
   48.9110   31.7910   40.6150 N   0  0  0  0  0  0  0  0  0  0  0  0
   48.6910   32.6000   39.5900 C   0  0  0  0  0  0  0  0  0  0  0  0
   48.4850   33.9570   39.5750 C   0  0  0  0  0  0  0  0  0  0  0  0
   48.2730   34.6270   38.4270 N   0  0  0  0  0  0  0  0  0  0  0  0
   48.2750   33.8850   37.2780 C   0  0  0  0  0  0  0  0  0  0  0  0
   48.4760   32.5500   37.2750 N   0  0  0  0  0  0  0  0  0  0  0  0
   48.6830   31.9010   38.4100 C   0  0  0  0  0  0  0  0  0  0  0  0
   48.0875   34.2534   43.8561 H   0  0  0  0  0  0  0  0  0  0  0  0
   45.9439   33.6580   45.0833 H   0  0  0  0  0  0  0  0  0  0  0  0
   43.2387   34.9980   39.3621 H   0  0  0  0  0  0  0  0  0  0  0  0
   43.2820   36.2432   40.6067 H   0  0  0  0  0  0  0  0  0  0  0  0
   41.0327   35.6662   41.3973 H   0  0  0  0  0  0  0  0  0  0  0  0
   40.8410   35.5227   39.6760 H   0  0  0  0  0  0  0  0  0  0  0  0
   40.3437   33.4172   41.2948 H   0  0  0  0  0  0  0  0  0  0  0  0
   41.1421   33.1174   39.7437 H   0  0  0  0  0  0  0  0  0  0  0  0
   42.8480   32.2582   40.9954 H   0  0  0  0  0  0  0  0  0  0  0  0
   42.2291   32.9855   42.4962 H   0  0  0  0  0  0  0  0  0  0  0  0
   48.9672   29.8376   38.1361 H   0  0  0  0  0  0  0  0  0  0  0  0
   49.2471   29.6097   40.6996 H   0  0  0  0  0  0  0  0  0  0  0  0
   48.1062   34.3961   36.3187 H   0  0  0  0  0  0  0  0  0  0  0  0
  1  2  2  0
  2  3  1  0
  4  3  2  0
  5  4  1  0
  6  1  1  0
  6  5  2  0
  7 11  1  0
  7  5  1  0
  8  9  1  0
  8  7  1  0
  9 10  1  0
 10 11  1  0
 12  1  1  0
 13 14  1  0
 14 15  2  0
 16 15  1  0
 17 16  2  0
 17 12  1  0
 18 17  1  0
 19 18  2  0
 20 19  1  0
 20 21  2  0
 21 13  1  0
 21 16  1  0
  2 22  1  0
  3 23  1  0
  8 24  1  0
  8 25  1  0
  9 26  1  0
  9 27  1  0
 10 28  1  0
 10 29  1  0
 11 30  1  0
 11 31  1  0
 13 32  1  0
 14 33  1  0
 19 34  1  0
M  ISO  8  22  14  23  14  24  13  25  13  26  13  27  13  28  13  29  13
M  ISO  5  30  13  31  13  32   9  33  14  34  14
M  END
>  <minimizedAffinity>  (1) 
-4.61727285

>  <minimizedRMSD>  (1) 
6.58218241

$$$$
