
     RDKit          3D

 27 30  0  0  0  0  0  0  0  0999 V2000
   44.4330   34.6100   42.1630 C   0  0  0  0  0  0  0  0  0  0  0  0
   44.7070   33.6580   43.1600 C   0  0  0  0  0  0  0  0  0  0  0  0
   45.1350   34.1420   44.4000 C   0  0  0  0  0  0  0  0  0  0  0  0
   45.2560   35.4900   44.5570 N   0  0  0  0  0  0  0  0  0  0  0  0
   44.9870   36.3740   43.5870 C   0  0  0  0  0  0  0  0  0  0  0  0
   44.5770   35.9380   42.3930 N   0  0  0  0  0  0  0  0  0  0  0  0
   45.1420   37.8050   43.8390 C   0  0  0  0  0  0  0  0  0  0  0  0
   45.3380   38.8670   43.0270 N   0  0  0  0  0  0  0  0  0  0  0  0
   45.4150   39.9570   43.7380 O   0  0  0  0  0  0  0  0  0  0  0  0
   45.2760   39.6460   45.0080 C   0  0  0  0  0  0  0  0  0  0  0  0
   45.1030   38.3000   45.1100 N   0  0  0  0  0  0  0  0  0  0  0  0
   43.8760   34.0770   40.5310 S   0  0  0  0  0  0  0  0  0  0  0  0
   39.1460   32.9860   41.5110 N   0  0  0  0  0  0  0  0  0  0  0  0
   39.9900   32.0690   42.0100 C   0  0  0  0  0  0  0  0  0  0  0  0
   41.2500   32.4700   41.6830 N   0  0  0  0  0  0  0  0  0  0  0  0
   41.1340   33.6130   40.9980 C   0  0  0  0  0  0  0  0  0  0  0  0
   42.1140   34.4050   40.4500 C   0  0  0  0  0  0  0  0  0  0  0  0
   41.8000   35.5330   39.7890 N   0  0  0  0  0  0  0  0  0  0  0  0
   40.4770   35.8410   39.6890 C   0  0  0  0  0  0  0  0  0  0  0  0
   39.5120   35.0820   40.2150 N   0  0  0  0  0  0  0  0  0  0  0  0
   39.8150   33.9670   40.8710 C   0  0  0  0  0  0  0  0  0  0  0  0
   44.5900   32.5803   42.9731 H   0  0  0  0  0  0  0  0  0  0  0  0
   45.3676   33.4536   45.2258 H   0  0  0  0  0  0  0  0  0  0  0  0
   45.2962   40.3557   45.8482 H   0  0  0  0  0  0  0  0  0  0  0  0
   38.1211   32.9457   41.6046 H   0  0  0  0  0  0  0  0  0  0  0  0
   39.7162   31.1659   42.5752 H   0  0  0  0  0  0  0  0  0  0  0  0
   40.1903   36.7564   39.1506 H   0  0  0  0  0  0  0  0  0  0  0  0
  1  6  1  0
  1  2  2  0
  2  3  1  0
  3  4  2  0
  5  7  1  0
  5  4  1  0
  6  5  2  0
  7 11  1  0
  8  9  1  0
  8  7  2  0
  9 10  1  0
 10 11  2  0
 12  1  1  0
 13 14  1  0
 15 14  2  0
 16 15  1  0
 17 12  1  0
 17 16  2  0
 18 17  1  0
 19 18  2  0
 19 20  1  0
 20 21  2  0
 21 16  1  0
 21 13  1  0
  2 22  1  0
  3 23  1  0
 10 24  1  0
 13 25  1  0
 14 26  1  0
 19 27  1  0
M  ISO  6  22  14  23  14  24  14  25   9  26  14  27  14
M  END
>  <minimizedAffinity>  (1) 
-4.44445753

>  <minimizedRMSD>  (1) 
1.05357122

$$$$
