
     RDKit          3D

 25 27  0  0  0  0  0  0  0  0999 V2000
   44.0160   33.4190   39.9800 S   0  0  0  0  0  0  0  0  0  0  0  0
   39.6010   32.9960   42.1490 N   0  0  0  0  0  0  0  0  0  0  0  0
   40.3310   31.8690   42.2600 C   0  0  0  0  0  0  0  0  0  0  0  0
   41.5100   32.1110   41.6320 N   0  0  0  0  0  0  0  0  0  0  0  0
   41.4640   33.3480   41.1660 C   0  0  0  0  0  0  0  0  0  0  0  0
   42.4140   34.0450   40.4620 C   0  0  0  0  0  0  0  0  0  0  0  0
   42.1890   35.3220   40.0630 N   0  0  0  0  0  0  0  0  0  0  0  0
   40.9900   35.8690   40.3910 C   0  0  0  0  0  0  0  0  0  0  0  0
   40.0520   35.1940   41.0820 N   0  0  0  0  0  0  0  0  0  0  0  0
   40.2770   33.9370   41.4730 C   0  0  0  0  0  0  0  0  0  0  0  0
   45.2060   34.0210   41.2110 C   0  0  0  0  0  0  0  0  0  0  0  0
   44.8190   34.0440   42.5640 C   0  0  0  0  0  0  0  0  0  0  0  0
   45.7830   34.5200   43.4680 C   0  0  0  0  0  0  0  0  0  0  0  0
   46.9910   34.9120   42.9780 N   0  0  0  0  0  0  0  0  0  0  0  0
   47.3200   34.8740   41.6760 C   0  0  0  0  0  0  0  0  0  0  0  0
   46.4190   34.4260   40.8010 N   0  0  0  0  0  0  0  0  0  0  0  0
   48.6500   35.3140   41.2080 C   0  0  0  0  0  0  0  0  0  0  0  0
   48.6350   35.4120   39.8230 F   0  0  0  0  0  0  0  0  0  0  0  0
   49.5970   34.3400   41.5190 F   0  0  0  0  0  0  0  0  0  0  0  0
   49.0860   36.4810   41.8060 F   0  0  0  0  0  0  0  0  0  0  0  0
   38.6525   33.1184   42.5314 H   0  0  0  0  0  0  0  0  0  0  0  0
   40.0309   30.9367   42.7607 H   0  0  0  0  0  0  0  0  0  0  0  0
   40.7771   36.9025   40.0804 H   0  0  0  0  0  0  0  0  0  0  0  0
   43.8239   33.7101   42.8929 H   0  0  0  0  0  0  0  0  0  0  0  0
   45.5671   34.5746   44.5452 H   0  0  0  0  0  0  0  0  0  0  0  0
  1  6  1  0
  1 11  1  0
  2  3  1  0
  4  3  2  0
  5 10  2  0
  5  4  1  0
  6  5  1  0
  7  8  1  0
  7  6  2  0
  8  9  2  0
  9 10  1  0
 10  2  1  0
 11 12  2  0
 12 13  1  0
 14 13  2  0
 15 14  1  0
 16 11  1  0
 16 15  2  0
 17 19  1  0
 17 15  1  0
 17 20  1  0
 18 17  1  0
  2 21  1  0
  3 22  1  0
  8 23  1  0
 12 24  1  0
 13 25  1  0
M  ISO  5  21   9  22  14  23  14  24  14  25  14
M  END
>  <minimizedAffinity>  (1) 
-5.91477108

>  <minimizedRMSD>  (1) 
3.33172703

$$$$
