
     RDKit          3D

 39 43  0  0  0  0  0  0  0  0999 V2000
   45.1460   34.0390   41.1150 C   0  0  0  0  0  0  0  0  0  0  0  0
   44.7350   33.9340   42.4550 C   0  0  0  0  0  0  0  0  0  0  0  0
   45.6930   34.3130   43.4100 C   0  0  0  0  0  0  0  0  0  0  0  0
   46.9130   34.7410   42.9710 N   0  0  0  0  0  0  0  0  0  0  0  0
   47.2570   34.8240   41.6840 C   0  0  0  0  0  0  0  0  0  0  0  0
   46.3650   34.4690   40.7450 N   0  0  0  0  0  0  0  0  0  0  0  0
   45.3780   34.2440   44.8150 C   0  0  0  0  0  0  0  0  0  0  0  0
   44.6450   35.1500   45.5400 C   0  0  0  0  0  0  0  0  0  0  0  0
   44.5440   34.7770   46.8190 N   0  0  0  0  0  0  0  0  0  0  0  0
   45.2310   33.6060   46.9080 C   0  0  0  0  0  0  0  0  0  0  0  0
   45.4280   32.8170   48.0090 C   0  0  0  0  0  0  0  0  0  0  0  0
   46.1500   31.6500   47.9450 C   0  0  0  0  0  0  0  0  0  0  0  0
   46.6820   31.2920   46.7110 C   0  0  0  0  0  0  0  0  0  0  0  0
   46.4810   32.0900   45.5990 C   0  0  0  0  0  0  0  0  0  0  0  0
   45.7540   33.2580   45.6810 C   0  0  0  0  0  0  0  0  0  0  0  0
   48.5920   35.2940   41.2850 C   0  0  0  0  0  0  0  0  0  0  0  0
   48.6320   35.4560   39.9010 F   0  0  0  0  0  0  0  0  0  0  0  0
   49.5460   34.3300   41.5720 F   0  0  0  0  0  0  0  0  0  0  0  0
   48.9960   36.4540   41.9320 F   0  0  0  0  0  0  0  0  0  0  0  0
   43.9650   33.5680   39.8090 S   0  0  0  0  0  0  0  0  0  0  0  0
   39.6800   32.8950   42.1640 N   0  0  0  0  0  0  0  0  0  0  0  0
   40.4740   31.8150   42.2510 C   0  0  0  0  0  0  0  0  0  0  0  0
   41.6170   32.1210   41.5680 N   0  0  0  0  0  0  0  0  0  0  0  0
   41.4780   33.3510   41.1000 C   0  0  0  0  0  0  0  0  0  0  0  0
   42.3580   34.0960   40.3520 C   0  0  0  0  0  0  0  0  0  0  0  0
   42.0380   35.3580   39.9570 N   0  0  0  0  0  0  0  0  0  0  0  0
   40.8260   35.8350   40.3320 C   0  0  0  0  0  0  0  0  0  0  0  0
   39.9600   35.1120   41.0630 N   0  0  0  0  0  0  0  0  0  0  0  0
   40.2740   33.8660   41.4550 C   0  0  0  0  0  0  0  0  0  0  0  0
   43.7324   33.5795   42.7365 H   0  0  0  0  0  0  0  0  0  0  0  0
   44.1986   36.0645   45.1223 H   0  0  0  0  0  0  0  0  0  0  0  0
   44.0509   35.2709   47.5765 H   0  0  0  0  0  0  0  0  0  0  0  0
   44.9960   33.1261   48.9722 H   0  0  0  0  0  0  0  0  0  0  0  0
   46.3015   31.0227   48.8358 H   0  0  0  0  0  0  0  0  0  0  0  0
   47.2680   30.3657   46.6183 H   0  0  0  0  0  0  0  0  0  0  0  0
   46.9091   31.7869   44.6321 H   0  0  0  0  0  0  0  0  0  0  0  0
   38.7426   32.9675   42.5846 H   0  0  0  0  0  0  0  0  0  0  0  0
   40.2486   30.8713   42.7694 H   0  0  0  0  0  0  0  0  0  0  0  0
   40.5402   36.8524   40.0266 H   0  0  0  0  0  0  0  0  0  0  0  0
  1  2  2  0
  2  3  1  0
  3  7  1  0
  4  3  2  0
  5  4  1  0
  6  1  1  0
  6  5  2  0
  7  8  2  0
  7 15  1  0
  8  9  1  0
  9 10  1  0
 10 11  2  0
 12 11  1  0
 13 12  2  0
 14 15  2  0
 14 13  1  0
 15 10  1  0
 16 18  1  0
 16  5  1  0
 16 19  1  0
 17 16  1  0
 20 25  1  0
 20  1  1  0
 21 22  1  0
 23 22  2  0
 24 29  2  0
 24 23  1  0
 25 24  1  0
 26 27  1  0
 26 25  2  0
 27 28  2  0
 28 29  1  0
 29 21  1  0
  2 30  1  0
  8 31  1  0
  9 32  1  0
 11 33  1  0
 12 34  1  0
 13 35  1  0
 14 36  1  0
 21 37  1  0
 22 38  1  0
 27 39  1  0
M  ISO  8  30  14  31  14  32   9  33  14  34  14  35  14  36  14  37   9
M  ISO  2  38  14  39  14
M  END
>  <minimizedAffinity>  (1) 
-8.41286469

>  <minimizedRMSD>  (1) 
0.682208657

$$$$
