
     RDKit          3D

 28 30  0  0  0  0  0  0  0  0999 V2000
   44.9310   34.2160   41.0160 C   0  0  0  0  0  0  0  0  0  0  0  0
   44.3670   34.7270   42.2100 C   0  0  0  0  0  0  0  0  0  0  0  0
   45.2560   35.4120   43.0520 C   0  0  0  0  0  0  0  0  0  0  0  0
   46.5550   35.5340   42.6770 N   0  0  0  0  0  0  0  0  0  0  0  0
   47.0500   35.0360   41.5380 C   0  0  0  0  0  0  0  0  0  0  0  0
   46.2250   34.3770   40.7130 N   0  0  0  0  0  0  0  0  0  0  0  0
   48.4720   35.2000   41.1830 C   0  0  0  0  0  0  0  0  0  0  0  0
   48.5840   35.2550   39.7920 F   0  0  0  0  0  0  0  0  0  0  0  0
   49.1850   34.0630   41.5730 F   0  0  0  0  0  0  0  0  0  0  0  0
   49.0770   36.2810   41.7860 F   0  0  0  0  0  0  0  0  0  0  0  0
   44.6880   35.9460   44.2900 C   0  0  0  0  0  0  0  0  0  0  0  0
   45.0160   37.2710   44.4740 F   0  0  0  0  0  0  0  0  0  0  0  0
   43.2980   35.7810   44.2480 F   0  0  0  0  0  0  0  0  0  0  0  0
   45.1060   35.1670   45.3770 F   0  0  0  0  0  0  0  0  0  0  0  0
   43.8460   33.3190   39.8770 S   0  0  0  0  0  0  0  0  0  0  0  0
   39.2430   33.2230   41.6540 N   0  0  0  0  0  0  0  0  0  0  0  0
   39.9600   32.1460   42.0410 C   0  0  0  0  0  0  0  0  0  0  0  0
   41.1940   32.2840   41.4960 N   0  0  0  0  0  0  0  0  0  0  0  0
   41.1920   33.4220   40.8050 C   0  0  0  0  0  0  0  0  0  0  0  0
   42.1960   33.9970   40.0810 C   0  0  0  0  0  0  0  0  0  0  0  0
   42.0190   35.1650   39.4360 N   0  0  0  0  0  0  0  0  0  0  0  0
   40.7890   35.7440   39.5450 C   0  0  0  0  0  0  0  0  0  0  0  0
   39.7930   35.1870   40.2540 N   0  0  0  0  0  0  0  0  0  0  0  0
   39.9800   34.0290   40.8890 C   0  0  0  0  0  0  0  0  0  0  0  0
   43.3040   34.5958   42.4605 H   0  0  0  0  0  0  0  0  0  0  0  0
   38.2618   33.3978   41.9140 H   0  0  0  0  0  0  0  0  0  0  0  0
   39.6109   31.3177   42.6751 H   0  0  0  0  0  0  0  0  0  0  0  0
   40.6060   36.7009   39.0343 H   0  0  0  0  0  0  0  0  0  0  0  0
  1  2  2  0
  2  3  1  0
  3 11  1  0
  4  3  2  0
  5  4  1  0
  6  1  1  0
  6  5  2  0
  7  5  1  0
  7  9  1  0
  7 10  1  0
  8  7  1  0
 11 12  1  0
 11 14  1  0
 13 11  1  0
 15 20  1  0
 15  1  1  0
 16 17  1  0
 18 17  2  0
 19 24  2  0
 19 18  1  0
 20 19  1  0
 21 22  1  0
 21 20  2  0
 22 23  2  0
 23 24  1  0
 24 16  1  0
  2 25  1  0
 16 26  1  0
 17 27  1  0
 22 28  1  0
M  ISO  4  25  14  26   9  27  14  28  14
M  END
>  <minimizedAffinity>  (1) 
-6.98419762

>  <minimizedRMSD>  (1) 
0.930130541

$$$$
