
     RDKit          3D

 32 35  0  0  0  0  0  0  0  0999 V2000
   45.2280   33.9220   41.1490 C   0  0  0  0  0  0  0  0  0  0  0  0
   44.8640   33.7730   42.5100 C   0  0  0  0  0  0  0  0  0  0  0  0
   45.8340   34.1760   43.4380 C   0  0  0  0  0  0  0  0  0  0  0  0
   47.0190   34.6640   42.9860 N   0  0  0  0  0  0  0  0  0  0  0  0
   47.3240   34.7880   41.6830 C   0  0  0  0  0  0  0  0  0  0  0  0
   46.4170   34.4130   40.7870 N   0  0  0  0  0  0  0  0  0  0  0  0
   45.5260   34.0500   44.8200 N   0  0  0  0  0  0  0  0  0  0  0  0
   45.9500   33.0080   45.5320 N   0  0  0  0  0  0  0  0  0  0  0  0
   45.5320   33.1180   46.8030 C   0  0  0  0  0  0  0  0  0  0  0  0
   44.8140   34.2960   46.8600 C   0  0  0  0  0  0  0  0  0  0  0  0
   44.8040   34.8960   45.6060 C   0  0  0  0  0  0  0  0  0  0  0  0
   48.6260   35.3270   41.2530 C   0  0  0  0  0  0  0  0  0  0  0  0
   48.6220   35.4520   39.8600 F   0  0  0  0  0  0  0  0  0  0  0  0
   49.6310   34.4190   41.5440 F   0  0  0  0  0  0  0  0  0  0  0  0
   48.9660   36.5070   41.8600 F   0  0  0  0  0  0  0  0  0  0  0  0
   44.0270   33.4240   39.8850 S   0  0  0  0  0  0  0  0  0  0  0  0
   39.6630   32.9710   42.1600 N   0  0  0  0  0  0  0  0  0  0  0  0
   40.4020   31.8500   42.2380 C   0  0  0  0  0  0  0  0  0  0  0  0
   41.5690   32.1040   41.5780 N   0  0  0  0  0  0  0  0  0  0  0  0
   41.4960   33.3530   41.1310 C   0  0  0  0  0  0  0  0  0  0  0  0
   42.4270   34.0450   40.4150 C   0  0  0  0  0  0  0  0  0  0  0  0
   42.1880   35.3290   40.0340 N   0  0  0  0  0  0  0  0  0  0  0  0
   41.0030   35.8650   40.3980 C   0  0  0  0  0  0  0  0  0  0  0  0
   40.0800   35.1820   41.1060 N   0  0  0  0  0  0  0  0  0  0  0  0
   40.3220   33.9260   41.4750 C   0  0  0  0  0  0  0  0  0  0  0  0
   43.8880   33.3691   42.8171 H   0  0  0  0  0  0  0  0  0  0  0  0
   45.7221   32.4155   47.6278 H   0  0  0  0  0  0  0  0  0  0  0  0
   44.3250   34.6980   47.7596 H   0  0  0  0  0  0  0  0  0  0  0  0
   44.3218   35.8407   45.3144 H   0  0  0  0  0  0  0  0  0  0  0  0
   38.7237   33.0838   42.5673 H   0  0  0  0  0  0  0  0  0  0  0  0
   40.1204   30.9109   42.7369 H   0  0  0  0  0  0  0  0  0  0  0  0
   40.7812   36.9018   40.1049 H   0  0  0  0  0  0  0  0  0  0  0  0
  1  2  2  0
  2  3  1  0
  3  7  1  0
  4  3  2  0
  5  4  1  0
  6  1  1  0
  6  5  2  0
  7  8  1  0
  7 11  1  0
  8  9  2  0
  9 10  1  0
 11 10  2  0
 12 14  1  0
 12  5  1  0
 12 15  1  0
 13 12  1  0
 16 21  1  0
 16  1  1  0
 17 18  1  0
 19 18  2  0
 20 25  2  0
 20 19  1  0
 21 20  1  0
 22 23  1  0
 22 21  2  0
 23 24  2  0
 24 25  1  0
 25 17  1  0
  2 26  1  0
  9 27  1  0
 10 28  1  0
 11 29  1  0
 17 30  1  0
 18 31  1  0
 23 32  1  0
M  ISO  7  26  14  27  14  28  14  29  14  30   9  31  14  32  14
M  END
>  <minimizedAffinity>  (1) 
-6.97219515

>  <minimizedRMSD>  (1) 
0.329611897

$$$$
