
     RDKit          3D

 38 41  0  0  0  0  0  0  0  0999 V2000
   45.2470   33.8090   41.1510 C   0  0  0  0  0  0  0  0  0  0  0  0
   44.9490   33.5510   42.5080 C   0  0  0  0  0  0  0  0  0  0  0  0
   45.9380   33.9130   43.4220 C   0  0  0  0  0  0  0  0  0  0  0  0
   47.0770   34.4690   42.9570 N   0  0  0  0  0  0  0  0  0  0  0  0
   47.3380   34.7050   41.6650 C   0  0  0  0  0  0  0  0  0  0  0  0
   46.4050   34.3660   40.7680 N   0  0  0  0  0  0  0  0  0  0  0  0
   45.7550   33.7030   44.7980 N   0  0  0  0  0  0  0  0  0  0  0  0
   45.1650   34.6670   45.6670 C   0  0  0  0  0  0  0  0  0  0  0  0
   44.5730   34.0820   46.9160 C   0  0  0  0  0  0  0  0  0  0  0  0
   45.3060   33.1110   47.5320 O   0  0  0  0  0  0  0  0  0  0  0  0
   46.4440   32.7170   46.8740 C   0  0  0  0  0  0  0  0  0  0  0  0
   46.1680   32.4670   45.4080 C   0  0  0  0  0  0  0  0  0  0  0  0
   48.6030   35.3150   41.2270 C   0  0  0  0  0  0  0  0  0  0  0  0
   48.6010   35.4200   39.8340 F   0  0  0  0  0  0  0  0  0  0  0  0
   49.6590   34.4570   41.5380 F   0  0  0  0  0  0  0  0  0  0  0  0
   48.8810   36.5100   41.8460 F   0  0  0  0  0  0  0  0  0  0  0  0
   44.0110   33.3670   39.8970 S   0  0  0  0  0  0  0  0  0  0  0  0
   39.6570   33.0050   42.1740 N   0  0  0  0  0  0  0  0  0  0  0  0
   40.3420   31.8540   42.2260 C   0  0  0  0  0  0  0  0  0  0  0  0
   41.5100   32.0810   41.5710 N   0  0  0  0  0  0  0  0  0  0  0  0
   41.4930   33.3410   41.1510 C   0  0  0  0  0  0  0  0  0  0  0  0
   42.4510   34.0330   40.4420 C   0  0  0  0  0  0  0  0  0  0  0  0
   42.2590   35.3200   40.1000 N   0  0  0  0  0  0  0  0  0  0  0  0
   41.0920   35.8950   40.4820 C   0  0  0  0  0  0  0  0  0  0  0  0
   40.1520   35.2320   41.1720 N   0  0  0  0  0  0  0  0  0  0  0  0
   40.3410   33.9590   41.5110 C   0  0  0  0  0  0  0  0  0  0  0  0
   43.9990   33.0945   42.8228 H   0  0  0  0  0  0  0  0  0  0  0  0
   45.9405   35.3908   45.9580 H   0  0  0  0  0  0  0  0  0  0  0  0
   44.3380   35.1327   45.1109 H   0  0  0  0  0  0  0  0  0  0  0  0
   44.4299   34.9017   47.6354 H   0  0  0  0  0  0  0  0  0  0  0  0
   43.6415   33.5907   46.5982 H   0  0  0  0  0  0  0  0  0  0  0  0
   47.2040   33.5068   46.9666 H   0  0  0  0  0  0  0  0  0  0  0  0
   46.8018   31.7803   47.3263 H   0  0  0  0  0  0  0  0  0  0  0  0
   45.3689   31.7182   45.3044 H   0  0  0  0  0  0  0  0  0  0  0  0
   47.0766   32.0914   44.9147 H   0  0  0  0  0  0  0  0  0  0  0  0
   38.7244   33.1433   42.5888 H   0  0  0  0  0  0  0  0  0  0  0  0
   40.0228   30.9155   42.7027 H   0  0  0  0  0  0  0  0  0  0  0  0
   40.9089   36.9464   40.2156 H   0  0  0  0  0  0  0  0  0  0  0  0
  1  2  2  0
  2  3  1  0
  3  7  1  0
  4  3  2  0
  5  4  1  0
  6  1  1  0
  6  5  2  0
  7 12  1  0
  7  8  1  0
  8  9  1  0
  9 10  1  0
 11 10  1  0
 12 11  1  0
 13 15  1  0
 13  5  1  0
 13 16  1  0
 14 13  1  0
 17 22  1  0
 17  1  1  0
 18 19  1  0
 20 19  2  0
 21 26  2  0
 21 20  1  0
 22 21  1  0
 23 22  2  0
 23 24  1  0
 24 25  2  0
 25 26  1  0
 26 18  1  0
  2 27  1  0
  8 28  1  0
  8 29  1  0
  9 30  1  0
  9 31  1  0
 11 32  1  0
 11 33  1  0
 12 34  1  0
 12 35  1  0
 18 36  1  0
 19 37  1  0
 24 38  1  0
M  ISO  8  27  14  28  13  29  13  30  13  31  13  32  13  33  13  34  13
M  ISO  4  35  13  36   9  37  14  38  14
M  END
>  <minimizedAffinity>  (1) 
-6.90340853

>  <minimizedRMSD>  (1) 
0.626574755

$$$$
