
     RDKit          3D

 37 40  0  0  0  0  0  0  0  0999 V2000
   45.3940   33.7620   41.1800 C   0  0  0  0  0  0  0  0  0  0  0  0
   45.1470   33.3900   42.5110 C   0  0  0  0  0  0  0  0  0  0  0  0
   46.1490   33.7280   43.4210 C   0  0  0  0  0  0  0  0  0  0  0  0
   47.2540   34.3680   42.9790 N   0  0  0  0  0  0  0  0  0  0  0  0
   47.4580   34.7120   41.6950 C   0  0  0  0  0  0  0  0  0  0  0  0
   46.5140   34.4000   40.8010 N   0  0  0  0  0  0  0  0  0  0  0  0
   45.9790   33.3900   44.7670 N   0  0  0  0  0  0  0  0  0  0  0  0
   46.4070   32.1420   45.3770 C   0  0  0  0  0  0  0  0  0  0  0  0
   46.6350   32.6070   46.8180 C   0  0  0  0  0  0  0  0  0  0  0  0
   45.3210   33.3720   47.0150 C   0  0  0  0  0  0  0  0  0  0  0  0
   45.3380   34.2490   45.7740 C   0  0  0  0  0  0  0  0  0  0  0  0
   48.6870   35.4130   41.2730 C   0  0  0  0  0  0  0  0  0  0  0  0
   48.6820   35.5320   39.8860 F   0  0  0  0  0  0  0  0  0  0  0  0
   49.7960   34.6260   41.5970 F   0  0  0  0  0  0  0  0  0  0  0  0
   48.8730   36.6310   41.8950 F   0  0  0  0  0  0  0  0  0  0  0  0
   44.1500   33.3680   39.9150 S   0  0  0  0  0  0  0  0  0  0  0  0
   39.8150   32.8590   42.2320 N   0  0  0  0  0  0  0  0  0  0  0  0
   40.5160   31.7120   42.2010 C   0  0  0  0  0  0  0  0  0  0  0  0
   41.6810   31.9840   41.5390 N   0  0  0  0  0  0  0  0  0  0  0  0
   41.6430   33.2710   41.2000 C   0  0  0  0  0  0  0  0  0  0  0  0
   42.5890   34.0040   40.5220 C   0  0  0  0  0  0  0  0  0  0  0  0
   42.3830   35.3150   40.2580 N   0  0  0  0  0  0  0  0  0  0  0  0
   41.2130   35.8530   40.6950 C   0  0  0  0  0  0  0  0  0  0  0  0
   40.2860   35.1380   41.3600 N   0  0  0  0  0  0  0  0  0  0  0  0
   40.4900   33.8380   41.6190 C   0  0  0  0  0  0  0  0  0  0  0  0
   44.2275   32.8684   42.8152 H   0  0  0  0  0  0  0  0  0  0  0  0
   45.6253   31.3704   45.3170 H   0  0  0  0  0  0  0  0  0  0  0  0
   47.2802   31.6720   44.9009 H   0  0  0  0  0  0  0  0  0  0  0  0
   46.7327   31.7627   47.5163 H   0  0  0  0  0  0  0  0  0  0  0  0
   47.5559   33.1816   46.9965 H   0  0  0  0  0  0  0  0  0  0  0  0
   44.4529   32.6965   47.0257 H   0  0  0  0  0  0  0  0  0  0  0  0
   45.2405   33.9174   47.9669 H   0  0  0  0  0  0  0  0  0  0  0  0
   45.9254   35.1633   45.9446 H   0  0  0  0  0  0  0  0  0  0  0  0
   44.3372   34.5935   45.4744 H   0  0  0  0  0  0  0  0  0  0  0  0
   38.8878   32.9686   42.6670 H   0  0  0  0  0  0  0  0  0  0  0  0
   40.2116   30.7439   42.6254 H   0  0  0  0  0  0  0  0  0  0  0  0
   41.0157   36.9169   40.4969 H   0  0  0  0  0  0  0  0  0  0  0  0
  1  2  2  0
  2  3  1  0
  3  7  1  0
  4  3  2  0
  5  4  1  0
  6  1  1  0
  6  5  2  0
  7  8  1  0
  7 11  1  0
  8  9  1  0
  9 10  1  0
 11 10  1  0
 12 14  1  0
 12  5  1  0
 12 15  1  0
 13 12  1  0
 16 21  1  0
 16  1  1  0
 18 17  1  0
 19 18  2  0
 20 19  1  0
 20 25  2  0
 21 20  1  0
 22 21  2  0
 22 23  1  0
 23 24  2  0
 24 25  1  0
 25 17  1  0
  2 26  1  0
  8 27  1  0
  8 28  1  0
  9 29  1  0
  9 30  1  0
 10 31  1  0
 10 32  1  0
 11 33  1  0
 11 34  1  0
 17 35  1  0
 18 36  1  0
 23 37  1  0
M  ISO  8  26  14  27  13  28  13  29  13  30  13  31  13  32  13  33  13
M  ISO  4  34  13  35   9  36  14  37  14
M  END
>  <minimizedAffinity>  (1) 
-6.89749908

>  <minimizedRMSD>  (1) 
0.820912123

$$$$
