
     RDKit          3D

 28 30  0  0  0  0  0  0  0  0999 V2000
   45.0100   33.9770   41.1110 C   0  0  0  0  0  0  0  0  0  0  0  0
   44.5610   34.0640   42.4520 C   0  0  0  0  0  0  0  0  0  0  0  0
   45.4980   34.5590   43.3590 C   0  0  0  0  0  0  0  0  0  0  0  0
   46.7290   34.9140   42.9300 N   0  0  0  0  0  0  0  0  0  0  0  0
   47.1200   34.8160   41.6380 C   0  0  0  0  0  0  0  0  0  0  0  0
   46.2470   34.3430   40.7370 N   0  0  0  0  0  0  0  0  0  0  0  0
   48.4740   35.2130   41.2110 C   0  0  0  0  0  0  0  0  0  0  0  0
   48.5130   35.2950   39.8270 F   0  0  0  0  0  0  0  0  0  0  0  0
   49.3810   34.2000   41.5510 F   0  0  0  0  0  0  0  0  0  0  0  0
   48.9300   36.3560   41.8250 F   0  0  0  0  0  0  0  0  0  0  0  0
   45.0930   34.6720   44.7550 C   0  0  0  0  0  0  0  0  0  0  0  0
   45.7110   33.9470   45.5820 O   0  0  0  0  0  0  0  0  0  0  0  0
   44.0760   35.5390   45.1320 O   0  0  0  0  0  0  0  0  0  0  0  0
   43.8680   33.3450   39.8480 S   0  0  0  0  0  0  0  0  0  0  0  0
   39.3680   33.1740   41.8730 N   0  0  0  0  0  0  0  0  0  0  0  0
   40.0770   32.0430   42.1000 C   0  0  0  0  0  0  0  0  0  0  0  0
   41.2750   32.2120   41.5030 N   0  0  0  0  0  0  0  0  0  0  0  0
   41.2670   33.4120   40.9410 C   0  0  0  0  0  0  0  0  0  0  0  0
   42.2660   34.0230   40.2210 C   0  0  0  0  0  0  0  0  0  0  0  0
   42.0730   35.2740   39.7130 N   0  0  0  0  0  0  0  0  0  0  0  0
   40.8770   35.8670   39.9500 C   0  0  0  0  0  0  0  0  0  0  0  0
   39.9020   35.2620   40.6570 N   0  0  0  0  0  0  0  0  0  0  0  0
   40.0880   34.0350   41.1560 C   0  0  0  0  0  0  0  0  0  0  0  0
   43.5475   33.7631   42.7557 H   0  0  0  0  0  0  0  0  0  0  0  0
   43.8103   35.6065   46.0833 H   0  0  0  0  0  0  0  0  0  0  0  0
   38.4087   33.3442   42.2072 H   0  0  0  0  0  0  0  0  0  0  0  0
   39.7416   31.1587   42.6617 H   0  0  0  0  0  0  0  0  0  0  0  0
   40.6963   36.8763   39.5517 H   0  0  0  0  0  0  0  0  0  0  0  0
  1  2  2  0
  2  3  1  0
  3 11  1  0
  4  3  2  0
  5  4  1  0
  6  1  1  0
  6  5  2  0
  7  9  1  0
  7  5  1  0
  7 10  1  0
  8  7  1  0
 11 13  1  0
 11 12  2  0
 14 19  1  0
 14  1  1  0
 15 16  1  0
 17 16  2  0
 18 23  2  0
 18 17  1  0
 19 18  1  0
 20 21  1  0
 20 19  2  0
 21 22  2  0
 22 23  1  0
 23 15  1  0
  2 24  1  0
 13 25  1  0
 15 26  1  0
 16 27  1  0
 21 28  1  0
M  ISO  5  24  14  25   3  26   9  27  14  28  14
M  END
>  <minimizedAffinity>  (1) 
-6.89234352

>  <minimizedRMSD>  (1) 
0.488412321

$$$$
