
     RDKit          3D

 30 33  0  0  0  0  0  0  0  0999 V2000
   44.8490   33.8000   40.5850 C   0  0  0  0  0  0  0  0  0  0  0  0
   44.4420   33.9430   41.9250 C   0  0  0  0  0  0  0  0  0  0  0  0
   45.4230   34.4160   42.7970 C   0  0  0  0  0  0  0  0  0  0  0  0
   46.6630   34.6960   42.3030 N   0  0  0  0  0  0  0  0  0  0  0  0
   47.0120   34.5470   41.0240 C   0  0  0  0  0  0  0  0  0  0  0  0
   46.0960   34.0940   40.1530 N   0  0  0  0  0  0  0  0  0  0  0  0
   45.1320   34.6080   44.2140 C   0  0  0  0  0  0  0  0  0  0  0  0
   44.5140   35.6350   44.8270 N   0  0  0  0  0  0  0  0  0  0  0  0
   44.4570   35.4120   46.1150 O   0  0  0  0  0  0  0  0  0  0  0  0
   45.0130   34.2730   46.4040 C   0  0  0  0  0  0  0  0  0  0  0  0
   45.4270   33.7810   45.2340 N   0  0  0  0  0  0  0  0  0  0  0  0
   48.3760   34.8720   40.5650 C   0  0  0  0  0  0  0  0  0  0  0  0
   48.3790   34.8940   39.1660 F   0  0  0  0  0  0  0  0  0  0  0  0
   49.2430   33.8580   40.9310 F   0  0  0  0  0  0  0  0  0  0  0  0
   48.8810   36.0350   41.0900 F   0  0  0  0  0  0  0  0  0  0  0  0
   43.6450   33.1900   39.3670 S   0  0  0  0  0  0  0  0  0  0  0  0
   39.2990   33.2480   41.7120 N   0  0  0  0  0  0  0  0  0  0  0  0
   40.0210   32.1410   41.9870 C   0  0  0  0  0  0  0  0  0  0  0  0
   41.1760   32.2430   41.2920 N   0  0  0  0  0  0  0  0  0  0  0  0
   41.1450   33.3790   40.6220 C   0  0  0  0  0  0  0  0  0  0  0  0
   42.0760   33.9230   39.7830 C   0  0  0  0  0  0  0  0  0  0  0  0
   41.8620   35.1210   39.1760 N   0  0  0  0  0  0  0  0  0  0  0  0
   40.6860   35.7510   39.4410 C   0  0  0  0  0  0  0  0  0  0  0  0
   39.7520   35.2240   40.2700 N   0  0  0  0  0  0  0  0  0  0  0  0
   39.9790   34.0410   40.8600 C   0  0  0  0  0  0  0  0  0  0  0  0
   43.4232   33.6992   42.2606 H   0  0  0  0  0  0  0  0  0  0  0  0
   45.1194   33.8138   47.3979 H   0  0  0  0  0  0  0  0  0  0  0  0
   38.3663   33.4560   42.0964 H   0  0  0  0  0  0  0  0  0  0  0  0
   39.7259   31.3142   42.6498 H   0  0  0  0  0  0  0  0  0  0  0  0
   40.4858   36.7226   38.9657 H   0  0  0  0  0  0  0  0  0  0  0  0
  1  2  2  0
  2  3  1  0
  3  7  1  0
  4  3  2  0
  5  4  1  0
  6  1  1  0
  6  5  2  0
  7  8  2  0
  7 11  1  0
  8  9  1  0
  9 10  1  0
 11 10  2  0
 12 14  1  0
 12  5  1  0
 12 15  1  0
 13 12  1  0
 16 21  1  0
 16  1  1  0
 17 18  1  0
 19 18  2  0
 20 25  2  0
 20 19  1  0
 21 20  1  0
 22 23  1  0
 22 21  2  0
 23 24  2  0
 24 25  1  0
 25 17  1  0
  2 26  1  0
 10 27  1  0
 17 28  1  0
 18 29  1  0
 23 30  1  0
M  ISO  5  26  14  27  14  28   9  29  14  30  14
M  END
>  <minimizedAffinity>  (1) 
-6.88220835

>  <minimizedRMSD>  (1) 
0.817553937

$$$$
