
     RDKit          3D

 49 52  0  0  1  0  0  0  0  0999 V2000
   47.7430   30.9610   43.4870 C   0  0  0  0  0  0  0  0  0  0  0  0
   46.9290   31.8400   42.7780 C   0  0  0  0  0  0  0  0  0  0  0  0
   46.0470   32.6920   43.4500 C   0  0  0  0  0  0  0  0  0  0  0  0
   46.0770   32.5690   44.7900 N   0  0  0  0  0  0  0  0  0  0  0  0
   46.8430   31.7410   45.4890 C   0  0  0  0  0  0  0  0  0  0  0  0
   47.6610   30.9530   44.8290 N   0  0  0  0  0  0  0  0  0  0  0  0
   46.7500   31.7380   46.8830 N   0  0  0  0  0  0  0  0  0  0  0  0
   45.6810   32.3730   47.6310 C   0  0  0  0  0  0  0  0  0  0  0  0
   44.9040   31.2760   48.3410 C   0  0  0  0  0  0  0  0  0  0  0  0
   45.7520   30.2490   48.7680 O   0  0  0  0  0  0  0  0  0  0  0  0
   47.0250   30.7400   49.0350 C   0  0  0  0  0  0  0  0  0  0  0  0
   47.7000   31.1100   47.7370 C   0  0  1  0  0  0  0  0  0  0  0  0
   45.1430   33.6600   42.7510 C   0  0  0  0  0  0  0  0  0  0  0  0
   45.4350   34.9880   42.7470 C   0  0  0  0  0  0  0  0  0  0  0  0
   44.0360   35.6640   41.7790 S   0  0  0  0  0  0  0  0  0  0  0  0
   43.2950   33.9400   41.5590 C   0  0  0  0  0  0  0  0  0  0  0  0
   44.0700   33.2930   42.1330 N   0  0  0  0  0  0  0  0  0  0  0  0
   42.0700   33.8580   40.8060 N   0  0  0  0  0  0  0  0  0  0  0  0
   41.7320   34.7610   39.7900 C   0  0  0  0  0  0  0  0  0  0  0  0
   42.7220   35.3890   39.2040 N   0  0  0  0  0  0  0  0  0  0  0  0
   40.3200   34.8770   39.5240 N   0  0  0  0  0  0  0  0  0  0  0  0
   42.4500   36.0490   38.4360 H   0  0  0  0  0  0  0  0  0  0  0  0
   48.4500   30.0750   47.1440 N   0  0  0  0  0  0  0  0  0  0  0  0
   47.7940   28.8250   46.9450 C   0  0  0  0  0  0  0  0  0  0  0  0
   48.0980   27.8180   48.0370 C   0  0  0  0  0  0  0  0  0  0  0  0
   49.2470   28.0690   48.7390 O   0  0  0  0  0  0  0  0  0  0  0  0
   50.2590   28.6850   48.0420 C   0  0  0  0  0  0  0  0  0  0  0  0
   49.8330   30.0070   47.4470 C   0  0  0  0  0  0  0  0  0  0  0  0
   48.4371   30.2886   42.9615 H   0  0  0  0  0  0  0  0  0  0  0  0
   46.9801   31.8646   41.6795 H   0  0  0  0  0  0  0  0  0  0  0  0
   46.1027   33.0718   48.3685 H   0  0  0  0  0  0  0  0  0  0  0  0
   45.0217   32.9403   46.9576 H   0  0  0  0  0  0  0  0  0  0  0  0
   44.3937   31.7064   49.2153 H   0  0  0  0  0  0  0  0  0  0  0  0
   44.1746   30.8534   47.6344 H   0  0  0  0  0  0  0  0  0  0  0  0
   46.9482   31.6306   49.6760 H   0  0  0  0  0  0  0  0  0  0  0  0
   47.6163   29.9691   49.5508 H   0  0  0  0  0  0  0  0  0  0  0  0
   48.4916   31.8419   47.9554 H   0  0  0  0  0  0  0  0  0  0  0  0
   46.2853   35.5156   43.2037 H   0  0  0  0  0  0  0  0  0  0  0  0
   41.4102   33.0981   41.0254 H   0  0  0  0  0  0  0  0  0  0  0  0
   39.9849   35.5194   38.7919 H   0  0  0  0  0  0  0  0  0  0  0  0
   39.6462   34.3175   40.0661 H   0  0  0  0  0  0  0  0  0  0  0  0
   46.7081   28.9987   46.9203 H   0  0  0  0  0  0  0  0  0  0  0  0
   48.1635   28.4057   45.9975 H   0  0  0  0  0  0  0  0  0  0  0  0
   47.2565   27.8153   48.7455 H   0  0  0  0  0  0  0  0  0  0  0  0
   48.2432   26.8492   47.5367 H   0  0  0  0  0  0  0  0  0  0  0  0
   51.1016   28.8619   48.7267 H   0  0  0  0  0  0  0  0  0  0  0  0
   50.5436   28.0219   47.2117 H   0  0  0  0  0  0  0  0  0  0  0  0
   50.4005   30.1693   46.5188 H   0  0  0  0  0  0  0  0  0  0  0  0
   50.0355   30.7803   48.2026 H   0  0  0  0  0  0  0  0  0  0  0  0
  1  6  2  0
  2  3  2  0
  2  1  1  0
  3  4  1  0
  4  5  2  0
  5  7  1  0
  6  5  1  0
  7  8  1  0
  7 12  1  0
  8  9  1  0
  9 10  1  0
 10 11  1  0
 12 11  1  0
 13  3  1  0
 14 13  2  0
 15 14  1  0
 16 15  1  0
 16 17  2  0
 17 13  1  0
 18 16  1  0
 19 18  1  0
 20 19  2  0
 21 19  1  0
 22 20  1  0
 23 28  1  0
 23 12  1  0
 24 23  1  0
 24 25  1  0
 25 26  1  0
 27 26  1  0
 28 27  1  0
  1 29  1  0
  2 30  1  0
  8 31  1  0
  8 32  1  0
  9 33  1  0
  9 34  1  0
 11 35  1  0
 11 36  1  0
 12 37  1  1
 14 38  1  0
 18 39  1  0
 21 40  1  0
 21 41  1  0
 24 42  1  0
 24 43  1  0
 25 44  1  0
 25 45  1  0
 27 46  1  0
 27 47  1  0
 28 48  1  0
 28 49  1  0
M  ISO  8  29  14  30  14  31  13  32  13  33  13  34  13  35  13  36  13
M  ISO  8  37  13  38  14  42  13  43  13  44  13  45  13  46  13  47  13
M  ISO  2  48  13  49  13
M  END
>  <minimizedAffinity>  (1) 
-5.08326149

>  <minimizedRMSD>  (1) 
0.520510793

$$$$
