
     RDKit          3D

 33 36  0  0  0  0  0  0  0  0999 V2000
   45.2700   33.8610   41.1480 C   0  0  0  0  0  0  0  0  0  0  0  0
   44.9450   33.5910   42.5010 C   0  0  0  0  0  0  0  0  0  0  0  0
   45.9300   33.9380   43.4210 C   0  0  0  0  0  0  0  0  0  0  0  0
   47.0880   34.4870   42.9910 N   0  0  0  0  0  0  0  0  0  0  0  0
   47.3580   34.7280   41.6900 C   0  0  0  0  0  0  0  0  0  0  0  0
   46.4420   34.4120   40.7750 N   0  0  0  0  0  0  0  0  0  0  0  0
   45.6900   33.6990   44.8390 C   0  0  0  0  0  0  0  0  0  0  0  0
   46.2470   32.5900   45.4440 C   0  0  0  0  0  0  0  0  0  0  0  0
   45.9670   32.4430   46.7900 C   0  0  0  0  0  0  0  0  0  0  0  0
   45.2010   33.3260   47.4610 N   0  0  0  0  0  0  0  0  0  0  0  0
   44.6700   34.3980   46.8460 C   0  0  0  0  0  0  0  0  0  0  0  0
   44.9300   34.5700   45.5190 N   0  0  0  0  0  0  0  0  0  0  0  0
   48.6400   35.3310   41.2750 C   0  0  0  0  0  0  0  0  0  0  0  0
   48.6420   35.4780   39.8910 F   0  0  0  0  0  0  0  0  0  0  0  0
   49.6840   34.4670   41.5860 F   0  0  0  0  0  0  0  0  0  0  0  0
   48.9220   36.5210   41.9120 F   0  0  0  0  0  0  0  0  0  0  0  0
   44.0580   33.4490   39.8620 S   0  0  0  0  0  0  0  0  0  0  0  0
   39.7220   32.9480   42.1720 N   0  0  0  0  0  0  0  0  0  0  0  0
   40.4580   31.8230   42.2060 C   0  0  0  0  0  0  0  0  0  0  0  0
   41.6130   32.0900   41.5440 N   0  0  0  0  0  0  0  0  0  0  0  0
   41.5580   33.3380   41.1310 C   0  0  0  0  0  0  0  0  0  0  0  0
   42.4790   34.0570   40.4250 C   0  0  0  0  0  0  0  0  0  0  0  0
   42.2440   35.3530   40.0860 N   0  0  0  0  0  0  0  0  0  0  0  0
   41.0570   35.8890   40.4810 C   0  0  0  0  0  0  0  0  0  0  0  0
   40.1490   35.1940   41.1720 N   0  0  0  0  0  0  0  0  0  0  0  0
   40.3790   33.9210   41.5070 C   0  0  0  0  0  0  0  0  0  0  0  0
   43.9870   33.1413   42.8011 H   0  0  0  0  0  0  0  0  0  0  0  0
   46.8714   31.8718   44.8924 H   0  0  0  0  0  0  0  0  0  0  0  0
   46.3821   31.5790   47.3297 H   0  0  0  0  0  0  0  0  0  0  0  0
   44.0442   35.1149   47.3978 H   0  0  0  0  0  0  0  0  0  0  0  0
   38.7883   33.0522   42.5941 H   0  0  0  0  0  0  0  0  0  0  0  0
   40.1782   30.8701   42.6790 H   0  0  0  0  0  0  0  0  0  0  0  0
   40.8367   36.9349   40.2213 H   0  0  0  0  0  0  0  0  0  0  0  0
  1  2  2  0
  2  3  1  0
  3  7  1  0
  4  3  2  0
  5  4  1  0
  6  1  1  0
  6  5  2  0
  7  8  2  0
  7 12  1  0
  8  9  1  0
  9 10  2  0
 11 10  1  0
 12 11  2  0
 13 15  1  0
 13  5  1  0
 13 16  1  0
 14 13  1  0
 17 22  1  0
 17  1  1  0
 18 19  1  0
 20 19  2  0
 21 26  2  0
 21 20  1  0
 22 21  1  0
 23 22  2  0
 23 24  1  0
 24 25  2  0
 25 26  1  0
 26 18  1  0
  2 27  1  0
  8 28  1  0
  9 29  1  0
 11 30  1  0
 18 31  1  0
 19 32  1  0
 24 33  1  0
M  ISO  7  27  14  28  14  29  14  30  14  31   9  32  14  33  14
M  END
>  <minimizedAffinity>  (1) 
-6.75216627

>  <minimizedRMSD>  (1) 
0.658234894

$$$$
