
     RDKit          3D

 33 36  0  0  0  0  0  0  0  0999 V2000
   45.2400   33.8590   41.1210 C   0  0  0  0  0  0  0  0  0  0  0  0
   44.9070   33.5890   42.4600 C   0  0  0  0  0  0  0  0  0  0  0  0
   45.8810   33.9190   43.4020 C   0  0  0  0  0  0  0  0  0  0  0  0
   47.0490   34.4640   42.9730 N   0  0  0  0  0  0  0  0  0  0  0  0
   47.3310   34.7080   41.6780 C   0  0  0  0  0  0  0  0  0  0  0  0
   46.4200   34.4020   40.7630 N   0  0  0  0  0  0  0  0  0  0  0  0
   45.6580   33.6880   44.8180 C   0  0  0  0  0  0  0  0  0  0  0  0
   44.9610   34.5870   45.5580 C   0  0  0  0  0  0  0  0  0  0  0  0
   44.8100   34.2650   46.8910 C   0  0  0  0  0  0  0  0  0  0  0  0
   45.3160   33.1420   47.4280 N   0  0  0  0  0  0  0  0  0  0  0  0
   46.0050   32.2660   46.6730 C   0  0  0  0  0  0  0  0  0  0  0  0
   46.1540   32.5720   45.3810 N   0  0  0  0  0  0  0  0  0  0  0  0
   48.6170   35.3020   41.2670 C   0  0  0  0  0  0  0  0  0  0  0  0
   48.6280   35.4610   39.8860 F   0  0  0  0  0  0  0  0  0  0  0  0
   49.6560   34.4340   41.5760 F   0  0  0  0  0  0  0  0  0  0  0  0
   48.9120   36.4840   41.9240 F   0  0  0  0  0  0  0  0  0  0  0  0
   44.0320   33.4600   39.8290 S   0  0  0  0  0  0  0  0  0  0  0  0
   39.7050   32.9670   42.1630 N   0  0  0  0  0  0  0  0  0  0  0  0
   40.4410   31.8330   42.2150 C   0  0  0  0  0  0  0  0  0  0  0  0
   41.5920   32.0900   41.5470 N   0  0  0  0  0  0  0  0  0  0  0  0
   41.5340   33.3430   41.1140 C   0  0  0  0  0  0  0  0  0  0  0  0
   42.4510   34.0620   40.3940 C   0  0  0  0  0  0  0  0  0  0  0  0
   42.2030   35.3400   40.0470 N   0  0  0  0  0  0  0  0  0  0  0  0
   41.0220   35.8790   40.4370 C   0  0  0  0  0  0  0  0  0  0  0  0
   40.1140   35.1820   41.1450 N   0  0  0  0  0  0  0  0  0  0  0  0
   40.3560   33.9240   41.4880 C   0  0  0  0  0  0  0  0  0  0  0  0
   43.9414   33.1464   42.7459 H   0  0  0  0  0  0  0  0  0  0  0  0
   44.5452   35.5087   45.1249 H   0  0  0  0  0  0  0  0  0  0  0  0
   44.2526   34.9558   47.5407 H   0  0  0  0  0  0  0  0  0  0  0  0
   46.4250   31.3430   47.0991 H   0  0  0  0  0  0  0  0  0  0  0  0
   38.7720   33.0793   42.5846 H   0  0  0  0  0  0  0  0  0  0  0  0
   40.1604   30.8881   42.7034 H   0  0  0  0  0  0  0  0  0  0  0  0
   40.7981   36.9212   40.1657 H   0  0  0  0  0  0  0  0  0  0  0  0
  1  2  2  0
  2  3  1  0
  3  7  1  0
  4  3  2  0
  5  4  1  0
  6  1  1  0
  6  5  2  0
  7 12  1  0
  7  8  2  0
  8  9  1  0
  9 10  2  0
 11 10  1  0
 12 11  2  0
 13 15  1  0
 13  5  1  0
 13 16  1  0
 14 13  1  0
 17 22  1  0
 17  1  1  0
 18 19  1  0
 20 19  2  0
 21 26  2  0
 21 20  1  0
 22 21  1  0
 23 22  2  0
 23 24  1  0
 24 25  2  0
 25 26  1  0
 26 18  1  0
  2 27  1  0
  8 28  1  0
  9 29  1  0
 11 30  1  0
 18 31  1  0
 19 32  1  0
 24 33  1  0
M  ISO  7  27  14  28  14  29  14  30  14  31   9  32  14  33  14
M  END
>  <minimizedAffinity>  (1) 
-6.73971653

>  <minimizedRMSD>  (1) 
0.695250213

$$$$
