
     RDKit          3D

 41 44  0  0  0  0  0  0  0  0999 V2000
   45.1370   33.4910   40.8590 C   0  0  0  0  0  0  0  0  0  0  0  0
   44.9220   32.8950   42.1070 C   0  0  0  0  0  0  0  0  0  0  0  0
   45.9360   33.0530   43.0540 C   0  0  0  0  0  0  0  0  0  0  0  0
   47.0400   33.7570   42.7210 N   0  0  0  0  0  0  0  0  0  0  0  0
   47.2200   34.3240   41.5070 C   0  0  0  0  0  0  0  0  0  0  0  0
   46.2600   34.1830   40.5820 N   0  0  0  0  0  0  0  0  0  0  0  0
   45.8540   32.4790   44.4210 C   0  0  0  0  0  0  0  0  0  0  0  0
   46.9870   31.5130   44.7170 C   0  0  0  0  0  0  0  0  0  0  0  0
   46.5250   30.6860   45.9230 C   0  0  0  0  0  0  0  0  0  0  0  0
   46.2220   31.6040   47.0750 C   0  0  0  0  0  0  0  0  0  0  0  0
   46.5380   33.0550   46.7740 C   0  0  0  0  0  0  0  0  0  0  0  0
   45.8890   33.5350   45.5070 C   0  0  0  0  0  0  0  0  0  0  0  0
   48.4450   35.0830   41.1930 C   0  0  0  0  0  0  0  0  0  0  0  0
   48.4980   35.3050   39.8170 F   0  0  0  0  0  0  0  0  0  0  0  0
   49.5600   34.3280   41.5070 F   0  0  0  0  0  0  0  0  0  0  0  0
   48.5620   36.2670   41.8990 F   0  0  0  0  0  0  0  0  0  0  0  0
   43.8630   33.3250   39.5820 S   0  0  0  0  0  0  0  0  0  0  0  0
   39.6840   33.0390   42.2010 N   0  0  0  0  0  0  0  0  0  0  0  0
   40.3530   31.8640   42.1810 C   0  0  0  0  0  0  0  0  0  0  0  0
   41.4720   32.0780   41.4350 N   0  0  0  0  0  0  0  0  0  0  0  0
   41.4490   33.3440   41.0350 C   0  0  0  0  0  0  0  0  0  0  0  0
   42.3580   34.0210   40.2640 C   0  0  0  0  0  0  0  0  0  0  0  0
   42.1680   35.3210   39.9530 N   0  0  0  0  0  0  0  0  0  0  0  0
   41.0430   35.9110   40.4390 C   0  0  0  0  0  0  0  0  0  0  0  0
   40.1490   35.2600   41.1920 N   0  0  0  0  0  0  0  0  0  0  0  0
   40.3400   33.9640   41.5010 C   0  0  0  0  0  0  0  0  0  0  0  0
   44.0035   32.3323   42.3299 H   0  0  0  0  0  0  0  0  0  0  0  0
   44.8871   31.9547   44.4314 H   0  0  0  0  0  0  0  0  0  0  0  0
   47.1694   30.8593   43.8513 H   0  0  0  0  0  0  0  0  0  0  0  0
   47.9278   32.0434   44.9257 H   0  0  0  0  0  0  0  0  0  0  0  0
   45.6191   30.1223   45.6555 H   0  0  0  0  0  0  0  0  0  0  0  0
   47.3214   29.9848   46.2130 H   0  0  0  0  0  0  0  0  0  0  0  0
   45.1523   31.5211   47.3174 H   0  0  0  0  0  0  0  0  0  0  0  0
   46.8587   31.2963   47.9175 H   0  0  0  0  0  0  0  0  0  0  0  0
   46.1807   33.6744   47.6098 H   0  0  0  0  0  0  0  0  0  0  0  0
   47.6270   33.1396   46.6441 H   0  0  0  0  0  0  0  0  0  0  0  0
   46.4509   34.4035   45.1330 H   0  0  0  0  0  0  0  0  0  0  0  0
   44.8471   33.7920   45.7488 H   0  0  0  0  0  0  0  0  0  0  0  0
   38.7911   33.1971   42.6896 H   0  0  0  0  0  0  0  0  0  0  0  0
   40.0537   30.9247   42.6689 H   0  0  0  0  0  0  0  0  0  0  0  0
   40.8602   36.9696   40.2026 H   0  0  0  0  0  0  0  0  0  0  0  0
  1  2  2  0
  2  3  1  0
  3  7  1  0
  4  3  2  0
  5  4  1  0
  6  1  1  0
  6  5  2  0
  7  8  1  0
  7 12  1  0
  8  9  1  0
  9 10  1  0
 11 10  1  0
 12 11  1  0
 13 15  1  0
 13  5  1  0
 13 16  1  0
 14 13  1  0
 17 22  1  0
 17  1  1  0
 19 18  1  0
 20 19  2  0
 21 20  1  0
 21 26  2  0
 22 21  1  0
 23 22  2  0
 23 24  1  0
 24 25  2  0
 25 26  1  0
 26 18  1  0
  2 27  1  0
  7 28  1  0
  8 29  1  0
  8 30  1  0
  9 31  1  0
  9 32  1  0
 10 33  1  0
 10 34  1  0
 11 35  1  0
 11 36  1  0
 12 37  1  0
 12 38  1  0
 18 39  1  0
 19 40  1  0
 24 41  1  0
M  ISO  8  27  14  28  13  29  13  30  13  31  13  32  13  33  13  34  13
M  ISO  7  35  13  36  13  37  13  38  13  39   9  40  14  41  14
M  END
>  <minimizedAffinity>  (1) 
-6.50748634

>  <minimizedRMSD>  (1) 
1.74995542

$$$$
