
     RDKit          3D

 27 29  0  0  0  0  0  0  0  0999 V2000
   44.8630   34.2080   41.0800 C   0  0  0  0  0  0  0  0  0  0  0  0
   44.3050   34.6930   42.2690 C   0  0  0  0  0  0  0  0  0  0  0  0
   45.1790   35.3680   43.1260 C   0  0  0  0  0  0  0  0  0  0  0  0
   46.4740   35.5030   42.7580 N   0  0  0  0  0  0  0  0  0  0  0  0
   46.9770   35.0210   41.6020 C   0  0  0  0  0  0  0  0  0  0  0  0
   46.1640   34.3740   40.7650 N   0  0  0  0  0  0  0  0  0  0  0  0
   48.4010   35.2050   41.2620 C   0  0  0  0  0  0  0  0  0  0  0  0
   48.5280   35.2630   39.8710 F   0  0  0  0  0  0  0  0  0  0  0  0
   49.1320   34.0960   41.6740 F   0  0  0  0  0  0  0  0  0  0  0  0
   48.9880   36.2950   41.8670 F   0  0  0  0  0  0  0  0  0  0  0  0
   44.6870   35.8980   44.3720 C   0  0  0  0  0  0  0  0  0  0  0  0
   44.7040   35.2090   45.4160 O   0  0  0  0  0  0  0  0  0  0  0  0
   43.8010   33.3220   39.9110 S   0  0  0  0  0  0  0  0  0  0  0  0
   39.1880   33.1820   41.6580 N   0  0  0  0  0  0  0  0  0  0  0  0
   39.9070   32.1190   42.0400 C   0  0  0  0  0  0  0  0  0  0  0  0
   41.1400   32.2700   41.5040 N   0  0  0  0  0  0  0  0  0  0  0  0
   41.1420   33.4020   40.8210 C   0  0  0  0  0  0  0  0  0  0  0  0
   42.1570   33.9870   40.1030 C   0  0  0  0  0  0  0  0  0  0  0  0
   41.9660   35.1720   39.4570 N   0  0  0  0  0  0  0  0  0  0  0  0
   40.7330   35.7290   39.5660 C   0  0  0  0  0  0  0  0  0  0  0  0
   39.7320   35.1700   40.2650 N   0  0  0  0  0  0  0  0  0  0  0  0
   39.9280   34.0050   40.8950 C   0  0  0  0  0  0  0  0  0  0  0  0
   43.2421   34.5513   42.5142 H   0  0  0  0  0  0  0  0  0  0  0  0
   44.2906   36.9235   44.4059 H   0  0  0  0  0  0  0  0  0  0  0  0
   38.2038   33.3464   41.9135 H   0  0  0  0  0  0  0  0  0  0  0  0
   39.5620   31.2845   42.6681 H   0  0  0  0  0  0  0  0  0  0  0  0
   40.5445   36.6855   39.0566 H   0  0  0  0  0  0  0  0  0  0  0  0
  1  2  2  0
  2  3  1  0
  3 11  1  0
  4  3  2  0
  5  4  1  0
  6  1  1  0
  6  5  2  0
  7  5  1  0
  7  9  1  0
  7 10  1  0
  8  7  1  0
 11 12  2  0
 13 18  1  0
 13  1  1  0
 14 15  1  0
 16 15  2  0
 17 22  2  0
 17 16  1  0
 18 17  1  0
 19 20  1  0
 19 18  2  0
 20 21  2  0
 21 22  1  0
 22 14  1  0
  2 23  1  0
 11 24  1  0
 14 25  1  0
 15 26  1  0
 20 27  1  0
M  ISO  5  23  14  24   6  25   9  26  14  27  14
M  END
>  <minimizedAffinity>  (1) 
-6.50653934

>  <minimizedRMSD>  (1) 
0.72124362

$$$$
