
     RDKit          3D

 26 28  0  0  0  0  0  0  0  0999 V2000
   43.9870   33.4500   39.9310 S   0  0  0  0  0  0  0  0  0  0  0  0
   39.6090   32.9820   42.1520 N   0  0  0  0  0  0  0  0  0  0  0  0
   40.3430   31.8680   42.2630 C   0  0  0  0  0  0  0  0  0  0  0  0
   41.5070   32.1250   41.6190 N   0  0  0  0  0  0  0  0  0  0  0  0
   41.4510   33.3500   41.1480 C   0  0  0  0  0  0  0  0  0  0  0  0
   42.3830   34.0600   40.4270 C   0  0  0  0  0  0  0  0  0  0  0  0
   42.1420   35.3220   40.0260 N   0  0  0  0  0  0  0  0  0  0  0  0
   40.9360   35.8720   40.3620 C   0  0  0  0  0  0  0  0  0  0  0  0
   40.0240   35.1860   41.0650 N   0  0  0  0  0  0  0  0  0  0  0  0
   40.2570   33.9420   41.4610 C   0  0  0  0  0  0  0  0  0  0  0  0
   45.1710   34.0180   41.1790 C   0  0  0  0  0  0  0  0  0  0  0  0
   44.7810   34.0190   42.5390 C   0  0  0  0  0  0  0  0  0  0  0  0
   45.7450   34.4710   43.4580 C   0  0  0  0  0  0  0  0  0  0  0  0
   46.9550   34.8680   42.9850 N   0  0  0  0  0  0  0  0  0  0  0  0
   47.2940   34.8550   41.6780 C   0  0  0  0  0  0  0  0  0  0  0  0
   46.3860   34.4280   40.8080 N   0  0  0  0  0  0  0  0  0  0  0  0
   48.6240   35.3000   41.2370 C   0  0  0  0  0  0  0  0  0  0  0  0
   48.6180   35.4020   39.8450 F   0  0  0  0  0  0  0  0  0  0  0  0
   49.5720   34.3260   41.5430 F   0  0  0  0  0  0  0  0  0  0  0  0
   49.0500   36.4680   41.8430 F   0  0  0  0  0  0  0  0  0  0  0  0
   45.4450   34.5030   44.8100 O   0  0  0  0  0  0  0  0  0  0  0  0
   38.6640   33.0926   42.5465 H   0  0  0  0  0  0  0  0  0  0  0  0
   40.0593   30.9353   42.7725 H   0  0  0  0  0  0  0  0  0  0  0  0
   40.7090   36.9015   40.0480 H   0  0  0  0  0  0  0  0  0  0  0  0
   43.7826   33.6859   42.8588 H   0  0  0  0  0  0  0  0  0  0  0  0
   46.1211   34.8206   45.4597 H   0  0  0  0  0  0  0  0  0  0  0  0
  1  6  1  0
  1 11  1  0
  2  3  1  0
  4  3  2  0
  5 10  2  0
  5  4  1  0
  6  5  1  0
  7  8  1  0
  7  6  2  0
  8  9  2  0
  9 10  1  0
 10  2  1  0
 11 12  2  0
 12 13  1  0
 13 21  1  0
 14 13  2  0
 15 14  1  0
 16 11  1  0
 16 15  2  0
 17 19  1  0
 17 15  1  0
 17 20  1  0
 18 17  1  0
  2 22  1  0
  3 23  1  0
  8 24  1  0
 12 25  1  0
 21 26  1  0
M  ISO  5  22   9  23  14  24  14  25  14  26   3
M  END
>  <minimizedAffinity>  (1) 
-6.19593048

>  <minimizedRMSD>  (1) 
0.0462191664

$$$$
