
     RDKit          3D

 32 35  0  0  0  0  0  0  0  0999 V2000
   45.1100   33.7020   40.9790 C   0  0  0  0  0  0  0  0  0  0  0  0
   44.7950   33.3040   42.2810 C   0  0  0  0  0  0  0  0  0  0  0  0
   45.7840   33.5510   43.2420 C   0  0  0  0  0  0  0  0  0  0  0  0
   46.9370   34.1390   42.8490 N   0  0  0  0  0  0  0  0  0  0  0  0
   47.2020   34.5070   41.5900 C   0  0  0  0  0  0  0  0  0  0  0  0
   46.2790   34.2830   40.6570 N   0  0  0  0  0  0  0  0  0  0  0  0
   48.4850   35.1460   41.2330 C   0  0  0  0  0  0  0  0  0  0  0  0
   48.5290   35.3220   39.8460 F   0  0  0  0  0  0  0  0  0  0  0  0
   49.5350   34.2980   41.5540 F   0  0  0  0  0  0  0  0  0  0  0  0
   48.7110   36.3370   41.8900 F   0  0  0  0  0  0  0  0  0  0  0  0
   45.5190   33.1570   44.6330 C   0  0  0  0  0  0  0  0  0  0  0  0
   45.4490   34.0990   45.7500 C   0  0  0  0  0  0  0  0  0  0  0  0
   46.6710   33.2210   45.6380 C   0  0  0  0  0  0  0  0  0  0  0  0
   43.8810   33.4190   39.6600 S   0  0  0  0  0  0  0  0  0  0  0  0
   39.6390   33.0300   42.1540 N   0  0  0  0  0  0  0  0  0  0  0  0
   40.3630   31.9000   42.2050 C   0  0  0  0  0  0  0  0  0  0  0  0
   41.4930   32.1260   41.4920 N   0  0  0  0  0  0  0  0  0  0  0  0
   41.4290   33.3730   41.0300 C   0  0  0  0  0  0  0  0  0  0  0  0
   42.3340   34.0610   40.2570 C   0  0  0  0  0  0  0  0  0  0  0  0
   42.0880   35.3420   39.8810 N   0  0  0  0  0  0  0  0  0  0  0  0
   40.9230   35.8900   40.3060 C   0  0  0  0  0  0  0  0  0  0  0  0
   40.0330   35.2330   41.0580 N   0  0  0  0  0  0  0  0  0  0  0  0
   40.2780   33.9670   41.4270 C   0  0  0  0  0  0  0  0  0  0  0  0
   43.8357   32.8290   42.5341 H   0  0  0  0  0  0  0  0  0  0  0  0
   44.8159   32.3995   44.2565 H   0  0  0  0  0  0  0  0  0  0  0  0
   45.5348   35.1787   45.5579 H   0  0  0  0  0  0  0  0  0  0  0  0
   44.7138   34.2909   46.5454 H   0  0  0  0  0  0  0  0  0  0  0  0
   46.8336   32.3997   46.3514 H   0  0  0  0  0  0  0  0  0  0  0  0
   47.7583   33.3798   45.5873 H   0  0  0  0  0  0  0  0  0  0  0  0
   38.7235   33.1618   42.6072 H   0  0  0  0  0  0  0  0  0  0  0  0
   40.0910   30.9699   42.7255 H   0  0  0  0  0  0  0  0  0  0  0  0
   40.6983   36.9275   40.0178 H   0  0  0  0  0  0  0  0  0  0  0  0
  1  2  2  0
  2  3  1  0
  3 11  1  0
  4  3  2  0
  5  4  1  0
  6  1  1  0
  6  5  2  0
  7  9  1  0
  7  5  1  0
  7 10  1  0
  8  7  1  0
 11 13  1  0
 11 12  1  0
 13 12  1  0
 14 19  1  0
 14  1  1  0
 15 16  1  0
 17 16  2  0
 18 23  2  0
 18 17  1  0
 19 18  1  0
 20 19  2  0
 20 21  1  0
 21 22  2  0
 22 23  1  0
 23 15  1  0
  2 24  1  0
 11 25  1  0
 12 26  1  0
 12 27  1  0
 13 28  1  0
 13 29  1  0
 15 30  1  0
 16 31  1  0
 21 32  1  0
M  ISO  8  24  14  25  13  26  13  27  13  28  13  29  13  30   9  31  14
M  ISO  1  32  14
M  END
>  <minimizedAffinity>  (1) 
-6.14298296

>  <minimizedRMSD>  (1) 
0.724234819

$$$$
