
     RDKit          3D

 33 35  0  0  0  0  0  0  0  0999 V2000
   44.8560   34.1750   40.9830 C   0  0  0  0  0  0  0  0  0  0  0  0
   44.3130   34.6230   42.1910 C   0  0  0  0  0  0  0  0  0  0  0  0
   45.1930   35.2670   43.0590 C   0  0  0  0  0  0  0  0  0  0  0  0
   46.4970   35.4170   42.6880 N   0  0  0  0  0  0  0  0  0  0  0  0
   46.9750   34.9690   41.5160 C   0  0  0  0  0  0  0  0  0  0  0  0
   46.1470   34.3580   40.6880 N   0  0  0  0  0  0  0  0  0  0  0  0
   48.3980   35.1590   41.1660 C   0  0  0  0  0  0  0  0  0  0  0  0
   48.5240   35.2330   39.7890 F   0  0  0  0  0  0  0  0  0  0  0  0
   49.1300   34.0370   41.5630 F   0  0  0  0  0  0  0  0  0  0  0  0
   48.9870   36.2400   41.7960 F   0  0  0  0  0  0  0  0  0  0  0  0
   44.7610   35.7880   44.3580 C   0  0  0  0  0  0  0  0  0  0  0  0
   44.9970   34.7620   45.4490 C   0  0  0  0  0  0  0  0  0  0  0  0
   44.3510   35.3020   46.6480 N   0  0  0  0  0  0  0  0  0  0  0  0
   43.7740   33.3280   39.7990 S   0  0  0  0  0  0  0  0  0  0  0  0
   39.2160   33.1700   41.6610 N   0  0  0  0  0  0  0  0  0  0  0  0
   39.9490   32.1130   42.0290 C   0  0  0  0  0  0  0  0  0  0  0  0
   41.1660   32.2630   41.4660 N   0  0  0  0  0  0  0  0  0  0  0  0
   41.1370   33.4030   40.7750 C   0  0  0  0  0  0  0  0  0  0  0  0
   42.1360   33.9700   40.0380 C   0  0  0  0  0  0  0  0  0  0  0  0
   41.9390   35.1520   39.3870 N   0  0  0  0  0  0  0  0  0  0  0  0
   40.7010   35.7190   39.5170 C   0  0  0  0  0  0  0  0  0  0  0  0
   39.7170   35.1550   40.2450 N   0  0  0  0  0  0  0  0  0  0  0  0
   39.9270   33.9960   40.8780 C   0  0  0  0  0  0  0  0  0  0  0  0
   43.2522   34.4757   42.4419 H   0  0  0  0  0  0  0  0  0  0  0  0
   45.3310   36.6998   44.5896 H   0  0  0  0  0  0  0  0  0  0  0  0
   43.6855   36.0139   44.3099 H   0  0  0  0  0  0  0  0  0  0  0  0
   44.5466   33.7974   45.1722 H   0  0  0  0  0  0  0  0  0  0  0  0
   46.0699   34.5824   45.6120 H   0  0  0  0  0  0  0  0  0  0  0  0
   44.8094   34.9188   47.4870 H   0  0  0  0  0  0  0  0  0  0  0  0
   44.4341   36.3286   46.6499 H   0  0  0  0  0  0  0  0  0  0  0  0
   38.2375   33.3285   41.9410 H   0  0  0  0  0  0  0  0  0  0  0  0
   39.6218   31.2802   42.6688 H   0  0  0  0  0  0  0  0  0  0  0  0
   40.5007   36.6729   39.0072 H   0  0  0  0  0  0  0  0  0  0  0  0
  1  2  2  0
  2  3  1  0
  3 11  1  0
  4  3  2  0
  5  4  1  0
  6  1  1  0
  6  5  2  0
  7  5  1  0
  7  9  1  0
  7 10  1  0
  8  7  1  0
 11 12  1  0
 12 13  1  0
 14 19  1  0
 14  1  1  0
 15 16  1  0
 17 16  2  0
 18 23  2  0
 18 17  1  0
 19 18  1  0
 20 21  1  0
 20 19  2  0
 21 22  2  0
 22 23  1  0
 23 15  1  0
  2 24  1  0
 11 25  1  0
 11 26  1  0
 12 27  1  0
 12 28  1  0
 13 29  1  0
 13 30  1  0
 15 31  1  0
 16 32  1  0
 21 33  1  0
M  ISO  8  24  14  25   8  26   8  27   8  28   8  29   5  30   5  31   9
M  ISO  2  32  14  33  14
M  END
>  <minimizedAffinity>  (1) 
-6.99073172

>  <minimizedRMSD>  (1) 
0.154305682

$$$$
