
     RDKit          3D

 32 34  0  0  0  0  0  0  0  0999 V2000
   45.2030   33.9430   41.2120 C   0  0  0  0  0  0  0  0  0  0  0  0
   44.8400   33.8560   42.5550 C   0  0  0  0  0  0  0  0  0  0  0  0
   45.8120   34.2780   43.4880 C   0  0  0  0  0  0  0  0  0  0  0  0
   46.9930   34.7240   43.0220 N   0  0  0  0  0  0  0  0  0  0  0  0
   47.3040   34.7920   41.7200 C   0  0  0  0  0  0  0  0  0  0  0  0
   46.4050   34.4000   40.8140 N   0  0  0  0  0  0  0  0  0  0  0  0
   48.6260   35.2930   41.2700 C   0  0  0  0  0  0  0  0  0  0  0  0
   48.6120   35.4370   39.8780 F   0  0  0  0  0  0  0  0  0  0  0  0
   49.6030   34.3680   41.5840 F   0  0  0  0  0  0  0  0  0  0  0  0
   49.0110   36.4730   41.8920 F   0  0  0  0  0  0  0  0  0  0  0  0
   45.5520   34.2340   44.9190 C   0  0  0  0  0  0  0  0  0  0  0  0
   46.4390   33.1840   45.5860 C   0  0  0  0  0  0  0  0  0  0  0  0
   45.7520   32.6160   47.1450 S   0  0  0  0  0  0  0  0  0  0  0  0
   44.0050   33.4200   39.9580 S   0  0  0  0  0  0  0  0  0  0  0  0
   39.6200   32.9870   42.1580 N   0  0  0  0  0  0  0  0  0  0  0  0
   40.3560   31.8550   42.2550 C   0  0  0  0  0  0  0  0  0  0  0  0
   41.5210   32.1030   41.6190 N   0  0  0  0  0  0  0  0  0  0  0  0
   41.4670   33.3440   41.1640 C   0  0  0  0  0  0  0  0  0  0  0  0
   42.4240   34.0310   40.4540 C   0  0  0  0  0  0  0  0  0  0  0  0
   42.1930   35.3170   40.0620 N   0  0  0  0  0  0  0  0  0  0  0  0
   40.9970   35.8710   40.4010 C   0  0  0  0  0  0  0  0  0  0  0  0
   40.0670   35.1870   41.0990 N   0  0  0  0  0  0  0  0  0  0  0  0
   40.2940   33.9260   41.4820 C   0  0  0  0  0  0  0  0  0  0  0  0
   43.8548   33.4809   42.8692 H   0  0  0  0  0  0  0  0  0  0  0  0
   45.7647   35.2203   45.3571 H   0  0  0  0  0  0  0  0  0  0  0  0
   44.4972   33.9687   45.0835 H   0  0  0  0  0  0  0  0  0  0  0  0
   46.5417   32.3235   44.9085 H   0  0  0  0  0  0  0  0  0  0  0  0
   47.4157   33.6458   45.7930 H   0  0  0  0  0  0  0  0  0  0  0  0
   46.4415   33.1861   48.1826 H   0  0  0  0  0  0  0  0  0  0  0  0
   38.6749   33.1088   42.5490 H   0  0  0  0  0  0  0  0  0  0  0  0
   40.0631   30.9190   42.7531 H   0  0  0  0  0  0  0  0  0  0  0  0
   40.7825   36.9062   40.0971 H   0  0  0  0  0  0  0  0  0  0  0  0
  1  2  2  0
  2  3  1  0
  3 11  1  0
  4  3  2  0
  5  4  1  0
  6  1  1  0
  6  5  2  0
  7  9  1  0
  7  5  1  0
  7 10  1  0
  8  7  1  0
 11 12  1  0
 12 13  1  0
 14 19  1  0
 14  1  1  0
 15 16  1  0
 17 16  2  0
 18 23  2  0
 18 17  1  0
 19 18  1  0
 20 21  1  0
 20 19  2  0
 21 22  2  0
 22 23  1  0
 23 15  1  0
  2 24  1  0
 11 25  1  0
 11 26  1  0
 12 27  1  0
 12 28  1  0
 13 29  1  0
 15 30  1  0
 16 31  1  0
 21 32  1  0
M  ISO  8  24  14  25   8  26   8  27   8  28   8  29  11  30   9  31  14
M  ISO  1  32  14
M  END
>  <minimizedAffinity>  (1) 
-6.19476223

>  <minimizedRMSD>  (1) 
1.18635857

$$$$
