
     RDKit          3D

 27 29  0  0  0  0  0  0  0  0999 V2000
   45.9890   32.2290   45.3800 N   0  0  0  0  0  0  0  0  0  0  0  0
   46.0640   31.2140   44.5320 C   0  0  0  0  0  0  0  0  0  0  0  0
   45.9330   30.0470   45.1870 N   0  0  0  0  0  0  0  0  0  0  0  0
   45.7710   30.3130   46.4910 C   0  0  0  0  0  0  0  0  0  0  0  0
   45.6000   29.4290   47.5250 C   0  0  0  0  0  0  0  0  0  0  0  0
   45.5760   28.1790   47.3640 O   0  0  0  0  0  0  0  0  0  0  0  0
   45.4510   29.8960   48.7730 N   0  0  0  0  0  0  0  0  0  0  0  0
   45.4850   31.2330   48.8870 C   0  0  0  0  0  0  0  0  0  0  0  0
   45.3420   31.8680   50.1450 N   0  0  0  0  0  0  0  0  0  0  0  0
   45.6540   32.1330   47.8740 N   0  0  0  0  0  0  0  0  0  0  0  0
   45.8070   31.6850   46.5960 C   0  0  0  0  0  0  0  0  0  0  0  0
   46.0700   33.6640   45.1640 C   0  0  0  0  0  0  0  0  0  0  0  0
   45.8440   34.4760   41.5610 C   0  0  0  0  0  0  0  0  0  0  0  0
   47.1940   34.5540   41.2040 C   0  0  0  0  0  0  0  0  0  0  0  0
   48.1680   34.3320   42.1820 C   0  0  0  0  0  0  0  0  0  0  0  0
   47.7460   34.0480   43.4460 N   0  0  0  0  0  0  0  0  0  0  0  0
   46.4250   33.9800   43.7590 C   0  0  0  0  0  0  0  0  0  0  0  0
   45.4810   34.1940   42.8160 N   0  0  0  0  0  0  0  0  0  0  0  0
   46.2123   31.3119   43.4465 H   0  0  0  0  0  0  0  0  0  0  0  0
   45.3201   29.2748   49.5841 H   0  0  0  0  0  0  0  0  0  0  0  0
   45.3712   32.8956   50.2095 H   0  0  0  0  0  0  0  0  0  0  0  0
   45.2088   31.3022   50.9953 H   0  0  0  0  0  0  0  0  0  0  0  0
   45.0951   34.1168   45.3974 H   0  0  0  0  0  0  0  0  0  0  0  0
   46.8551   34.0692   45.8193 H   0  0  0  0  0  0  0  0  0  0  0  0
   45.0704   34.6491   40.7984 H   0  0  0  0  0  0  0  0  0  0  0  0
   47.4851   34.7866   40.1690 H   0  0  0  0  0  0  0  0  0  0  0  0
   49.2395   34.3849   41.9391 H   0  0  0  0  0  0  0  0  0  0  0  0
  1 11  1  0
  2  3  2  0
  2  1  1  0
  3  4  1  0
  4 11  2  0
  4  5  1  0
  5  7  1  0
  6  5  2  0
  7  8  1  0
  8  9  1  0
 10  8  2  0
 11 10  1  0
 12  1  1  0
 13 18  2  0
 14 13  1  0
 14 15  2  0
 15 16  1  0
 16 17  2  0
 17 12  1  0
 18 17  1  0
  2 19  1  0
  7 20  1  0
  9 21  1  0
  9 22  1  0
 12 23  1  0
 12 24  1  0
 13 25  1  0
 14 26  1  0
 15 27  1  0
M  ISO  7  19  14  20   9  23   8  24   8  25  14  26  14  27  14
M  END
>  <minimizedAffinity>  (1) 
-4.93917847

>  <minimizedRMSD>  (1) 
2.13492227

$$$$
