
     RDKit          3D

 29 31  0  0  0  0  0  0  0  0999 V2000
   46.0450   32.2900   44.9330 C   0  0  0  0  0  0  0  0  0  0  0  0
   47.2190   32.0780   44.0780 C   0  0  0  0  0  0  0  0  0  0  0  0
   47.9350   30.8890   44.0880 C   0  0  0  0  0  0  0  0  0  0  0  0
   49.0470   30.7400   43.2520 C   0  0  0  0  0  0  0  0  0  0  0  0
   49.4370   31.7850   42.4080 C   0  0  0  0  0  0  0  0  0  0  0  0
   48.7000   32.9710   42.4160 C   0  0  0  0  0  0  0  0  0  0  0  0
   49.1270   33.9780   41.5610 C   0  0  0  0  0  0  0  0  0  0  0  0
   48.3960   35.1530   41.5690 C   0  0  0  0  0  0  0  0  0  0  0  0
   47.3000   35.3380   42.3750 C   0  0  0  0  0  0  0  0  0  0  0  0
   46.8750   34.3310   43.2280 C   0  0  0  0  0  0  0  0  0  0  0  0
   47.5940   33.1310   43.2430 C   0  0  0  0  0  0  0  0  0  0  0  0
   45.7420   30.4140   48.1000 C   0  0  0  0  0  0  0  0  0  0  0  0
   46.6410   31.1230   48.9270 C   0  0  0  0  0  0  0  0  0  0  0  0
   47.3280   32.2110   48.4080 C   0  0  0  0  0  0  0  0  0  0  0  0
   47.1010   32.5500   47.1120 N   0  0  0  0  0  0  0  0  0  0  0  0
   46.2340   31.8540   46.3380 C   0  0  0  0  0  0  0  0  0  0  0  0
   45.5620   30.7950   46.8360 N   0  0  0  0  0  0  0  0  0  0  0  0
   45.2011   31.7276   44.5071 H   0  0  0  0  0  0  0  0  0  0  0  0
   45.8622   33.3744   44.9586 H   0  0  0  0  0  0  0  0  0  0  0  0
   47.6291   30.0664   44.7511 H   0  0  0  0  0  0  0  0  0  0  0  0
   49.6160   29.7986   43.2585 H   0  0  0  0  0  0  0  0  0  0  0  0
   50.3104   31.6743   41.7485 H   0  0  0  0  0  0  0  0  0  0  0  0
   50.0035   33.8482   40.9091 H   0  0  0  0  0  0  0  0  0  0  0  0
   48.7055   35.9718   40.9028 H   0  0  0  0  0  0  0  0  0  0  0  0
   46.7547   36.2928   42.3437 H   0  0  0  0  0  0  0  0  0  0  0  0
   45.9967   34.4717   43.8751 H   0  0  0  0  0  0  0  0  0  0  0  0
   45.1916   29.5491   48.4986 H   0  0  0  0  0  0  0  0  0  0  0  0
   46.7949   30.8157   49.9719 H   0  0  0  0  0  0  0  0  0  0  0  0
   48.0353   32.7821   49.0273 H   0  0  0  0  0  0  0  0  0  0  0  0
  1 16  1  0
  2  3  2  0
  2  1  1  0
  4  3  1  0
  5  6  1  0
  5  4  2  0
  6 11  2  0
  7  8  2  0
  7  6  1  0
  8  9  1  0
  9 10  2  0
 10 11  1  0
 11  2  1  0
 12 13  2  0
 14 13  1  0
 15 14  2  0
 16 17  2  0
 16 15  1  0
 17 12  1  0
  1 18  1  0
  1 19  1  0
  3 20  1  0
  4 21  1  0
  5 22  1  0
  7 23  1  0
  8 24  1  0
  9 25  1  0
 10 26  1  0
 12 27  1  0
 13 28  1  0
 14 29  1  0
M  ISO  8  18   8  19   8  20  14  21  14  22  14  23  14  24  14  25  14
M  ISO  4  26  14  27  14  28  14  29  14
M  END
>  <minimizedAffinity>  (1) 
-4.61771488

>  <minimizedRMSD>  (1) 
6.21314526

$$$$
