
     RDKit          3D

 29 30  0  0  0  0  0  0  0  0999 V2000
   44.5260   35.6420   44.5880 C   0  0  0  0  0  0  0  0  0  0  0  0
   45.0810   35.7010   43.3090 C   0  0  0  0  0  0  0  0  0  0  0  0
   46.1560   34.8850   42.9940 C   0  0  0  0  0  0  0  0  0  0  0  0
   46.6350   34.0550   43.9420 N   0  0  0  0  0  0  0  0  0  0  0  0
   46.0800   34.0070   45.1960 C   0  0  0  0  0  0  0  0  0  0  0  0
   45.0340   34.8030   45.4930 N   0  0  0  0  0  0  0  0  0  0  0  0
   46.6670   33.0670   46.1780 C   0  0  0  0  0  0  0  0  0  0  0  0
   45.5590   32.1420   46.6340 C   0  0  0  0  0  0  0  0  0  0  0  0
   45.9690   30.7090   46.5440 C   0  0  0  0  0  0  0  0  0  0  0  0
   46.6960   30.2030   47.7550 C   0  0  0  0  0  0  0  0  0  0  0  0
   46.1650   30.7390   49.0540 C   0  0  0  0  0  0  0  0  0  0  0  0
   46.0450   32.2640   49.0080 C   0  0  0  0  0  0  0  0  0  0  0  0
   44.9990   32.5400   47.9560 C   0  0  0  0  0  0  0  0  0  0  0  0
   43.6726   36.2849   44.8494 H   0  0  0  0  0  0  0  0  0  0  0  0
   44.6686   36.3896   42.5569 H   0  0  0  0  0  0  0  0  0  0  0  0
   46.6086   34.9140   41.9919 H   0  0  0  0  0  0  0  0  0  0  0  0
   47.4730   32.4852   45.7069 H   0  0  0  0  0  0  0  0  0  0  0  0
   47.0946   33.6128   47.0319 H   0  0  0  0  0  0  0  0  0  0  0  0
   44.7182   32.2506   45.9331 H   0  0  0  0  0  0  0  0  0  0  0  0
   45.0644   30.0989   46.4041 H   0  0  0  0  0  0  0  0  0  0  0  0
   46.6684   30.6315   45.6985 H   0  0  0  0  0  0  0  0  0  0  0  0
   46.6147   29.1062   47.7742 H   0  0  0  0  0  0  0  0  0  0  0  0
   47.7367   30.5488   47.6694 H   0  0  0  0  0  0  0  0  0  0  0  0
   45.1720   30.3053   49.2434 H   0  0  0  0  0  0  0  0  0  0  0  0
   46.8637   30.4658   49.8584 H   0  0  0  0  0  0  0  0  0  0  0  0
   45.7248   32.6566   49.9844 H   0  0  0  0  0  0  0  0  0  0  0  0
   47.0048   32.7479   48.7743 H   0  0  0  0  0  0  0  0  0  0  0  0
   44.7505   33.6115   47.9488 H   0  0  0  0  0  0  0  0  0  0  0  0
   44.0826   31.9704   48.1698 H   0  0  0  0  0  0  0  0  0  0  0  0
  1  6  2  0
  2  1  1  0
  3  2  2  0
  3  4  1  0
  4  5  2  0
  5  6  1  0
  5  7  1  0
  7  8  1  0
  8 13  1  0
  9  8  1  0
  9 10  1  0
 10 11  1  0
 12 11  1  0
 13 12  1  0
  1 14  1  0
  2 15  1  0
  3 16  1  0
  7 17  1  0
  7 18  1  0
  8 19  1  0
  9 20  1  0
  9 21  1  0
 10 22  1  0
 10 23  1  0
 11 24  1  0
 11 25  1  0
 12 26  1  0
 12 27  1  0
 13 28  1  0
 13 29  1  0
M  ISO  8  14  14  15  14  16  14  17   8  18   8  19  13  20  13  21  13
M  ISO  8  22  13  23  13  24  13  25  13  26  13  27  13  28  13  29  13
M  END
>  <minimizedAffinity>  (1) 
-4.18407965

>  <minimizedRMSD>  (1) 
1.55296421

$$$$
