
     RDKit          3D

 26 27  0  0  0  0  0  0  0  0999 V2000
   46.7100   32.8350   46.4660 C   0  0  0  0  0  0  0  0  0  0  0  0
   44.5400   35.4170   44.9500 C   0  0  0  0  0  0  0  0  0  0  0  0
   45.0960   35.5330   43.6610 C   0  0  0  0  0  0  0  0  0  0  0  0
   46.2000   34.7330   43.3240 C   0  0  0  0  0  0  0  0  0  0  0  0
   46.6760   33.8870   44.2620 N   0  0  0  0  0  0  0  0  0  0  0  0
   46.1110   33.8030   45.4950 C   0  0  0  0  0  0  0  0  0  0  0  0
   45.0620   34.5580   45.8280 N   0  0  0  0  0  0  0  0  0  0  0  0
   44.7790   29.0610   46.3390 C   0  0  0  0  0  0  0  0  0  0  0  0
   44.8940   29.7680   47.5400 C   0  0  0  0  0  0  0  0  0  0  0  0
   45.5330   30.9930   47.5230 C   0  0  0  0  0  0  0  0  0  0  0  0
   46.0450   31.4970   46.3300 C   0  0  0  0  0  0  0  0  0  0  0  0
   45.9360   30.8070   45.1380 C   0  0  0  0  0  0  0  0  0  0  0  0
   45.2980   29.5820   45.1500 C   0  0  0  0  0  0  0  0  0  0  0  0
   43.9600   27.5140   46.4170 S   0  0  0  0  0  0  0  0  0  0  0  0
   42.6450   27.5500   45.7000 O   0  0  0  0  0  0  0  0  0  0  0  0
   44.7990   26.4460   45.7920 O   0  0  0  0  0  0  0  0  0  0  0  0
   47.7855   32.7303   46.2600 H   0  0  0  0  0  0  0  0  0  0  0  0
   46.5619   33.2104   47.4893 H   0  0  0  0  0  0  0  0  0  0  0  0
   43.6750   36.0348   45.2331 H   0  0  0  0  0  0  0  0  0  0  0  0
   44.6726   36.2383   42.9307 H   0  0  0  0  0  0  0  0  0  0  0  0
   46.6620   34.7939   42.3276 H   0  0  0  0  0  0  0  0  0  0  0  0
   44.4856   29.3588   48.4758 H   0  0  0  0  0  0  0  0  0  0  0  0
   45.6374   31.5709   48.4531 H   0  0  0  0  0  0  0  0  0  0  0  0
   46.3459   31.2217   44.2053 H   0  0  0  0  0  0  0  0  0  0  0  0
   45.1973   29.0110   44.2152 H   0  0  0  0  0  0  0  0  0  0  0  0
   43.7474   27.2427   47.7429 H   0  0  0  0  0  0  0  0  0  0  0  0
  2  7  2  0
  3  2  1  0
  4  3  2  0
  4  5  1  0
  5  6  2  0
  6  7  1  0
  6  1  1  0
  8 14  1  0
  8  9  2  0
 10  9  1  0
 11  1  1  0
 11 10  2  0
 12 13  2  0
 12 11  1  0
 13  8  1  0
 15 14  2  0
 16 14  2  0
  1 17  1  0
  1 18  1  0
  2 19  1  0
  3 20  1  0
  4 21  1  0
  9 22  1  0
 10 23  1  0
 12 24  1  0
 13 25  1  0
 14 26  1  0
M  ISO  8  17   8  18   8  19  14  20  14  21  14  22  14  23  14  24  14
M  ISO  2  25  14  26  11
M  END
>  <minimizedAffinity>  (1) 
-4.06478071

>  <minimizedRMSD>  (1) 
1.50196636

$$$$
