
     RDKit          3D

 23 24  0  0  0  0  0  0  0  0999 V2000
   46.7990   32.9400   46.3190 C   0  0  0  0  0  0  0  0  0  0  0  0
   44.5070   35.4550   44.8440 C   0  0  0  0  0  0  0  0  0  0  0  0
   45.0150   35.5560   43.5380 C   0  0  0  0  0  0  0  0  0  0  0  0
   46.1170   34.7730   43.1870 C   0  0  0  0  0  0  0  0  0  0  0  0
   46.6430   33.9560   44.1230 N   0  0  0  0  0  0  0  0  0  0  0  0
   46.1320   33.8780   45.3790 C   0  0  0  0  0  0  0  0  0  0  0  0
   45.0770   34.6180   45.7350 N   0  0  0  0  0  0  0  0  0  0  0  0
   46.0930   31.6490   46.4400 C   0  0  0  0  0  0  0  0  0  0  0  0
   45.8810   30.7340   45.4310 C   0  0  0  0  0  0  0  0  0  0  0  0
   45.2000   29.5460   45.6560 C   0  0  0  0  0  0  0  0  0  0  0  0
   44.7060   29.2180   46.8790 C   0  0  0  0  0  0  0  0  0  0  0  0
   44.8920   30.1020   47.9280 C   0  0  0  0  0  0  0  0  0  0  0  0
   45.5670   31.2710   47.6820 C   0  0  0  0  0  0  0  0  0  0  0  0
   46.8428   33.4105   47.3123 H   0  0  0  0  0  0  0  0  0  0  0  0
   47.8027   32.7312   45.9203 H   0  0  0  0  0  0  0  0  0  0  0  0
   43.6393   36.0621   45.1416 H   0  0  0  0  0  0  0  0  0  0  0  0
   44.5546   36.2373   42.8074 H   0  0  0  0  0  0  0  0  0  0  0  0
   46.5446   34.8211   42.1746 H   0  0  0  0  0  0  0  0  0  0  0  0
   46.2613   30.9511   44.4219 H   0  0  0  0  0  0  0  0  0  0  0  0
   45.0555   28.8479   44.8183 H   0  0  0  0  0  0  0  0  0  0  0  0
   44.1696   28.2699   47.0321 H   0  0  0  0  0  0  0  0  0  0  0  0
   44.5084   29.8731   48.9332 H   0  0  0  0  0  0  0  0  0  0  0  0
   45.7057   31.9644   48.5246 H   0  0  0  0  0  0  0  0  0  0  0  0
  1  8  1  0
  2  7  2  0
  3  2  1  0
  4  3  2  0
  4  5  1  0
  5  6  2  0
  6  7  1  0
  6  1  1  0
  8 13  2  0
  9 10  2  0
  9  8  1  0
 10 11  1  0
 11 12  2  0
 13 12  1  0
  1 14  1  0
  1 15  1  0
  2 16  1  0
  3 17  1  0
  4 18  1  0
  9 19  1  0
 10 20  1  0
 11 21  1  0
 12 22  1  0
 13 23  1  0
M  ISO  8  14   8  15   8  16  14  17  14  18  14  19  14  20  14  21  14
M  ISO  2  22  14  23  14
M  END
>  <minimizedAffinity>  (1) 
-4.00946808

>  <minimizedRMSD>  (1) 
1.11640024

$$$$
