
     RDKit          3D

 18 19  0  0  0  0  0  0  0  0999 V2000
   44.5920   35.9700   44.8180 C   0  0  0  0  0  0  0  0  0  0  0  0
   45.0610   36.3430   43.5490 C   0  0  0  0  0  0  0  0  0  0  0  0
   45.8230   35.4170   42.8240 C   0  0  0  0  0  0  0  0  0  0  0  0
   46.0750   34.2040   43.3780 N   0  0  0  0  0  0  0  0  0  0  0  0
   45.6000   33.8780   44.6210 C   0  0  0  0  0  0  0  0  0  0  0  0
   44.8670   34.7550   45.3300 N   0  0  0  0  0  0  0  0  0  0  0  0
   45.9300   32.5270   45.1360 C   0  0  0  0  0  0  0  0  0  0  0  0
   46.0700   32.4990   46.6120 C   0  0  0  0  0  0  0  0  0  0  0  0
   45.2550   32.6600   47.6710 N   0  0  0  0  0  0  0  0  0  0  0  0
   45.9170   32.5280   48.7700 O   0  0  0  0  0  0  0  0  0  0  0  0
   47.1940   32.2730   48.4910 C   0  0  0  0  0  0  0  0  0  0  0  0
   47.2940   32.2540   47.1670 N   0  0  0  0  0  0  0  0  0  0  0  0
   43.9905   36.6809   45.4035 H   0  0  0  0  0  0  0  0  0  0  0  0
   44.8363   37.3367   43.1341 H   0  0  0  0  0  0  0  0  0  0  0  0
   46.2094   35.6684   41.8253 H   0  0  0  0  0  0  0  0  0  0  0  0
   45.1277   31.8331   44.8448 H   0  0  0  0  0  0  0  0  0  0  0  0
   46.8975   32.2322   44.7035 H   0  0  0  0  0  0  0  0  0  0  0  0
   48.0061   32.1102   49.2149 H   0  0  0  0  0  0  0  0  0  0  0  0
  1  6  2  0
  2  1  1  0
  3  4  1  0
  3  2  2  0
  4  5  2  0
  5  7  1  0
  5  6  1  0
  7  8  1  0
  8 12  1  0
  8  9  2  0
  9 10  1  0
 11 10  1  0
 12 11  2  0
  1 13  1  0
  2 14  1  0
  3 15  1  0
  7 16  1  0
  7 17  1  0
 11 18  1  0
M  ISO  6  13  14  14  14  15  14  16   8  17   8  18  14
M  END
>  <minimizedAffinity>  (1) 
-3.96953797

>  <minimizedRMSD>  (1) 
1.57386088

$$$$
