
     RDKit          3D

 19 20  0  0  0  0  0  0  0  0999 V2000
   44.5880   35.3560   45.4140 C   0  0  0  0  0  0  0  0  0  0  0  0
   44.7190   35.9710   44.1600 C   0  0  0  0  0  0  0  0  0  0  0  0
   45.6170   35.4170   43.2520 C   0  0  0  0  0  0  0  0  0  0  0  0
   46.3180   34.3240   43.6130 N   0  0  0  0  0  0  0  0  0  0  0  0
   46.1740   33.7420   44.8440 C   0  0  0  0  0  0  0  0  0  0  0  0
   45.3090   34.2660   45.7280 N   0  0  0  0  0  0  0  0  0  0  0  0
   46.9910   32.5410   45.1430 C   0  0  0  0  0  0  0  0  0  0  0  0
   46.6180   31.9330   46.4720 C   0  0  0  0  0  0  0  0  0  0  0  0
   47.2690   32.3620   47.6670 C   0  0  0  0  0  0  0  0  0  0  0  0
   46.4650   31.3450   48.9150 S   0  0  0  0  0  0  0  0  0  0  0  0
   45.3620   30.4860   47.6260 C   0  0  0  0  0  0  0  0  0  0  0  0
   45.6790   31.0070   46.4600 N   0  0  0  0  0  0  0  0  0  0  0  0
   43.8851   35.7718   46.1509 H   0  0  0  0  0  0  0  0  0  0  0  0
   44.1302   36.8636   43.9021 H   0  0  0  0  0  0  0  0  0  0  0  0
   45.7523   35.8640   42.2561 H   0  0  0  0  0  0  0  0  0  0  0  0
   46.8311   31.7943   44.3513 H   0  0  0  0  0  0  0  0  0  0  0  0
   48.0470   32.8456   45.1880 H   0  0  0  0  0  0  0  0  0  0  0  0
   48.0578   33.1183   47.7928 H   0  0  0  0  0  0  0  0  0  0  0  0
   44.6084   29.7079   47.8172 H   0  0  0  0  0  0  0  0  0  0  0  0
  1  6  2  0
  2  1  1  0
  3  4  1  0
  3  2  2  0
  4  5  2  0
  5  7  1  0
  5  6  1  0
  7  8  1  0
  8  9  2  0
  9 10  1  0
 11 10  1  0
 12  8  1  0
 12 11  2  0
  1 13  1  0
  2 14  1  0
  3 15  1  0
  7 16  1  0
  7 17  1  0
  9 18  1  0
 11 19  1  0
M  ISO  7  13  14  14  14  15  14  16   8  17   8  18  14  19  14
M  END
>  <minimizedAffinity>  (1) 
-3.89429855

>  <minimizedRMSD>  (1) 
2.25556731

$$$$
