
     RDKit          3D

 38 41  0  0  0  0  0  0  0  0999 V2000
   44.4260   35.5540   45.0340 C   0  0  0  0  0  0  0  0  0  0  0  0
   44.4250   35.2820   43.6870 C   0  0  0  0  0  0  0  0  0  0  0  0
   45.1730   34.1770   43.2320 C   0  0  0  0  0  0  0  0  0  0  0  0
   45.8410   33.4490   44.1430 N   0  0  0  0  0  0  0  0  0  0  0  0
   45.8320   33.7260   45.4590 C   0  0  0  0  0  0  0  0  0  0  0  0
   45.1200   34.7720   45.8430 N   0  0  0  0  0  0  0  0  0  0  0  0
   45.1610   33.6170   41.9240 C   0  0  0  0  0  0  0  0  0  0  0  0
   45.1520   33.1240   40.7730 N   0  0  0  0  0  0  0  0  0  0  0  0
   45.1560   32.6530   39.6490 C   0  0  0  0  0  0  0  0  0  0  0  0
   46.2710   33.2480   39.2390 N   0  0  0  0  0  0  0  0  0  0  0  0
   46.9390   34.0700   40.1100 C   0  0  0  0  0  0  0  0  0  0  0  0
   48.1430   34.5810   39.5630 C   0  0  0  0  0  0  0  0  0  0  0  0
   48.8830   35.3350   40.4120 C   0  0  0  0  0  0  0  0  0  0  0  0
   48.5720   35.6330   41.7160 C   0  0  0  0  0  0  0  0  0  0  0  0
   47.3700   35.0510   42.0640 C   0  0  0  0  0  0  0  0  0  0  0  0
   46.3820   34.2300   41.4070 C   0  0  0  0  0  0  0  0  0  0  0  0
   46.5930   32.8710   46.3840 C   0  0  0  0  0  0  0  0  0  0  0  0
   46.0430   31.5520   46.5310 N   0  0  0  0  0  0  0  0  0  0  0  0
   46.0980   30.5930   45.5670 C   0  0  0  0  0  0  0  0  0  0  0  0
   45.5370   29.3500   45.8100 C   0  0  0  0  0  0  0  0  0  0  0  0
   44.9100   29.0460   47.0230 C   0  0  0  0  0  0  0  0  0  0  0  0
   44.3820   27.7300   47.1290 N   0  0  0  0  0  0  0  0  0  0  0  0
   44.8570   30.0190   47.9950 N   0  0  0  0  0  0  0  0  0  0  0  0
   45.4270   31.2030   47.6780 C   0  0  0  0  0  0  0  0  0  0  0  0
   45.3600   32.0720   48.5910 O   0  0  0  0  0  0  0  0  0  0  0  0
   43.8588   36.4081   45.4324 H   0  0  0  0  0  0  0  0  0  0  0  0
   43.8568   35.9086   42.9838 H   0  0  0  0  0  0  0  0  0  0  0  0
   44.4651   31.9635   39.1418 H   0  0  0  0  0  0  0  0  0  0  0  0
   48.4534   34.3805   38.5269 H   0  0  0  0  0  0  0  0  0  0  0  0
   49.8235   35.7481   40.0186 H   0  0  0  0  0  0  0  0  0  0  0  0
   49.1915   36.2469   42.3863 H   0  0  0  0  0  0  0  0  0  0  0  0
   47.0955   35.2681   43.1068 H   0  0  0  0  0  0  0  0  0  0  0  0
   47.6218   32.7788   46.0059 H   0  0  0  0  0  0  0  0  0  0  0  0
   46.5528   33.3498   47.3735 H   0  0  0  0  0  0  0  0  0  0  0  0
   46.5839   30.8032   44.6028 H   0  0  0  0  0  0  0  0  0  0  0  0
   45.5860   28.5796   45.0264 H   0  0  0  0  0  0  0  0  0  0  0  0
   43.9062   27.4341   47.9932 H   0  0  0  0  0  0  0  0  0  0  0  0
   44.4754   27.0727   46.3415 H   0  0  0  0  0  0  0  0  0  0  0  0
  1  6  2  0
  2  1  1  0
  3  2  2  0
  3  4  1  0
  4  5  2  0
  5  6  1  0
  5 17  1  0
  7  3  1  0
  8  7  2  0
  9  8  1  0
 10  9  2  0
 10 11  1  0
 11 16  2  0
 12 11  1  0
 12 13  2  0
 13 14  1  0
 14 15  2  0
 16  7  1  0
 16 15  1  0
 17 18  1  0
 18 24  1  0
 19 20  2  0
 19 18  1  0
 20 21  1  0
 21 22  1  0
 21 23  2  0
 24 23  1  0
 24 25  2  0
  1 26  1  0
  2 27  1  0
  9 28  1  0
 12 29  1  0
 13 30  1  0
 14 31  1  0
 15 32  1  0
 17 33  1  0
 17 34  1  0
 19 35  1  0
 20 36  1  0
 22 37  1  0
 22 38  1  0
M  ISO  8  26  14  27  14  28  14  29  14  30  14  31  14  32  14  33   8
M  ISO  3  34   8  35  14  36  14
M  END
>  <minimizedAffinity>  (1) 
-6.48737907

>  <minimizedRMSD>  (1) 
1.6837182

$$$$
