
     RDKit          3D

 34 36  0  0  0  0  0  0  0  0999 V2000
   44.5290   35.4250   44.9450 C   0  0  0  0  0  0  0  0  0  0  0  0
   45.1160   35.4850   43.6690 C   0  0  0  0  0  0  0  0  0  0  0  0
   46.2100   34.6730   43.3960 C   0  0  0  0  0  0  0  0  0  0  0  0
   46.6690   33.8560   44.3640 N   0  0  0  0  0  0  0  0  0  0  0  0
   46.0720   33.8220   45.5970 C   0  0  0  0  0  0  0  0  0  0  0  0
   45.0200   34.6000   45.8690 N   0  0  0  0  0  0  0  0  0  0  0  0
   46.8980   34.6540   42.1090 C   0  0  0  0  0  0  0  0  0  0  0  0
   46.3300   33.9000   41.1040 C   0  0  0  0  0  0  0  0  0  0  0  0
   46.9850   33.8780   39.8660 C   0  0  0  0  0  0  0  0  0  0  0  0
   48.1660   34.5610   39.5850 C   0  0  0  0  0  0  0  0  0  0  0  0
   48.6770   35.2950   40.6370 C   0  0  0  0  0  0  0  0  0  0  0  0
   48.0660   35.3420   41.8610 C   0  0  0  0  0  0  0  0  0  0  0  0
   46.6700   32.8830   46.5740 C   0  0  0  0  0  0  0  0  0  0  0  0
   46.0390   31.6020   46.6100 N   0  0  0  0  0  0  0  0  0  0  0  0
   45.9810   30.7730   45.5410 C   0  0  0  0  0  0  0  0  0  0  0  0
   45.3510   29.5420   45.6490 C   0  0  0  0  0  0  0  0  0  0  0  0
   44.7650   29.1260   46.8520 C   0  0  0  0  0  0  0  0  0  0  0  0
   44.1650   27.8420   46.7840 N   0  0  0  0  0  0  0  0  0  0  0  0
   44.8200   29.9510   47.9270 N   0  0  0  0  0  0  0  0  0  0  0  0
   45.4570   31.1440   47.7380 C   0  0  0  0  0  0  0  0  0  0  0  0
   45.4960   31.8900   48.7430 O   0  0  0  0  0  0  0  0  0  0  0  0
   43.6626   36.0604   45.1811 H   0  0  0  0  0  0  0  0  0  0  0  0
   44.7163   36.1628   42.9003 H   0  0  0  0  0  0  0  0  0  0  0  0
   45.3989   33.3377   41.2680 H   0  0  0  0  0  0  0  0  0  0  0  0
   46.5355   33.2798   39.0597 H   0  0  0  0  0  0  0  0  0  0  0  0
   48.6543   34.5189   38.6002 H   0  0  0  0  0  0  0  0  0  0  0  0
   49.6076   35.8618   40.4862 H   0  0  0  0  0  0  0  0  0  0  0  0
   48.5174   35.9424   42.6646 H   0  0  0  0  0  0  0  0  0  0  0  0
   47.7288   32.7398   46.3126 H   0  0  0  0  0  0  0  0  0  0  0  0
   46.5363   33.3316   47.5694 H   0  0  0  0  0  0  0  0  0  0  0  0
   46.4341   31.0762   44.5856 H   0  0  0  0  0  0  0  0  0  0  0  0
   45.3106   28.8787   44.7724 H   0  0  0  0  0  0  0  0  0  0  0  0
   43.7061   27.4433   47.6155 H   0  0  0  0  0  0  0  0  0  0  0  0
   44.1883   27.3086   45.9032 H   0  0  0  0  0  0  0  0  0  0  0  0
  1  6  2  0
  2  1  1  0
  3  2  2  0
  3  4  1  0
  4  5  2  0
  5  6  1  0
  5 13  1  0
  7  3  1  0
  8  7  2  0
  9  8  1  0
 10  9  2  0
 10 11  1  0
 11 12  2  0
 12  7  1  0
 13 14  1  0
 14 20  1  0
 15 16  2  0
 15 14  1  0
 16 17  1  0
 17 19  2  0
 18 17  1  0
 20 19  1  0
 20 21  2  0
  1 22  1  0
  2 23  1  0
  8 24  1  0
  9 25  1  0
 10 26  1  0
 11 27  1  0
 12 28  1  0
 13 29  1  0
 13 30  1  0
 15 31  1  0
 16 32  1  0
 18 33  1  0
 18 34  1  0
M  ISO  8  22  14  23  14  24  14  25  14  26  14  27  14  28  14  29   8
M  ISO  3  30   8  31  14  32  14
M  END
>  <minimizedAffinity>  (1) 
-6.27670956

>  <minimizedRMSD>  (1) 
0.40271008

$$$$
