
     RDKit          3D

 34 36  0  0  0  0  0  0  0  0999 V2000
   44.5390   35.4460   44.9340 C   0  0  0  0  0  0  0  0  0  0  0  0
   45.1320   35.5130   43.6600 C   0  0  0  0  0  0  0  0  0  0  0  0
   46.2170   34.6910   43.3800 C   0  0  0  0  0  0  0  0  0  0  0  0
   46.6640   33.8560   44.3390 N   0  0  0  0  0  0  0  0  0  0  0  0
   46.0630   33.8170   45.5680 C   0  0  0  0  0  0  0  0  0  0  0  0
   45.0190   34.6030   45.8490 N   0  0  0  0  0  0  0  0  0  0  0  0
   46.9100   34.6730   42.1000 C   0  0  0  0  0  0  0  0  0  0  0  0
   46.3590   33.9220   41.0840 C   0  0  0  0  0  0  0  0  0  0  0  0
   46.9850   33.8700   39.8330 C   0  0  0  0  0  0  0  0  0  0  0  0
   48.1690   34.5660   39.5810 C   0  0  0  0  0  0  0  0  0  0  0  0
   48.6980   35.3100   40.6150 C   0  0  0  0  0  0  0  0  0  0  0  0
   48.0780   35.3560   41.8390 C   0  0  0  0  0  0  0  0  0  0  0  0
   46.6430   32.8580   46.5400 C   0  0  0  0  0  0  0  0  0  0  0  0
   46.0090   31.5750   46.5420 N   0  0  0  0  0  0  0  0  0  0  0  0
   45.9600   30.7660   45.4560 C   0  0  0  0  0  0  0  0  0  0  0  0
   45.3280   29.5410   45.5390 C   0  0  0  0  0  0  0  0  0  0  0  0
   44.7330   29.0980   46.7080 C   0  0  0  0  0  0  0  0  0  0  0  0
   44.1150   27.8070   46.6470 N   0  0  0  0  0  0  0  0  0  0  0  0
   44.7850   29.9110   47.7940 N   0  0  0  0  0  0  0  0  0  0  0  0
   45.4150   31.0920   47.6460 C   0  0  0  0  0  0  0  0  0  0  0  0
   45.4440   31.8190   48.6740 O   0  0  0  0  0  0  0  0  0  0  0  0
   43.6796   36.0888   45.1753 H   0  0  0  0  0  0  0  0  0  0  0  0
   44.7433   36.2046   42.8981 H   0  0  0  0  0  0  0  0  0  0  0  0
   45.4272   33.3634   41.2562 H   0  0  0  0  0  0  0  0  0  0  0  0
   46.5342   33.2675   39.0307 H   0  0  0  0  0  0  0  0  0  0  0  0
   48.6600   34.5227   38.5976 H   0  0  0  0  0  0  0  0  0  0  0  0
   49.6291   35.8740   40.4568 H   0  0  0  0  0  0  0  0  0  0  0  0
   48.5297   35.9596   42.6400 H   0  0  0  0  0  0  0  0  0  0  0  0
   47.7062   32.7179   46.2951 H   0  0  0  0  0  0  0  0  0  0  0  0
   46.4917   33.2889   47.5407 H   0  0  0  0  0  0  0  0  0  0  0  0
   46.4227   31.0844   44.5102 H   0  0  0  0  0  0  0  0  0  0  0  0
   45.2963   28.8967   44.6480 H   0  0  0  0  0  0  0  0  0  0  0  0
   43.6538   27.4169   47.4813 H   0  0  0  0  0  0  0  0  0  0  0  0
   44.1318   27.2689   45.7689 H   0  0  0  0  0  0  0  0  0  0  0  0
  1  6  2  0
  2  1  1  0
  3  2  2  0
  3  4  1  0
  4  5  2  0
  5  6  1  0
  5 13  1  0
  7  3  1  0
  8  7  2  0
  9  8  1  0
 10  9  2  0
 10 11  1  0
 11 12  2  0
 12  7  1  0
 13 14  1  0
 14 20  1  0
 15 16  2  0
 15 14  1  0
 16 17  1  0
 17 19  2  0
 18 17  1  0
 20 19  1  0
 20 21  2  0
  1 22  1  0
  2 23  1  0
  8 24  1  0
  9 25  1  0
 10 26  1  0
 11 27  1  0
 12 28  1  0
 13 29  1  0
 13 30  1  0
 15 31  1  0
 16 32  1  0
 18 33  1  0
 18 34  1  0
M  ISO  8  22  14  23  14  24  14  25  14  26  14  27  14  28  14  29   8
M  ISO  3  30   8  31  14  32  14
M  END
>  <minimizedAffinity>  (1) 
-6.27436066

>  <minimizedRMSD>  (1) 
0.305225313

$$$$
