
     RDKit          3D

 37 39  0  0  0  0  0  0  0  0999 V2000
   44.4840   35.5310   44.8250 C   0  0  0  0  0  0  0  0  0  0  0  0
   45.0010   35.4840   43.5380 C   0  0  0  0  0  0  0  0  0  0  0  0
   46.0500   34.6120   43.2660 C   0  0  0  0  0  0  0  0  0  0  0  0
   46.5270   33.8440   44.2650 N   0  0  0  0  0  0  0  0  0  0  0  0
   45.9970   33.9160   45.5150 C   0  0  0  0  0  0  0  0  0  0  0  0
   44.9790   34.7540   45.7960 N   0  0  0  0  0  0  0  0  0  0  0  0
   47.6950   34.1450   39.3690 C   0  0  0  0  0  0  0  0  0  0  0  0
   46.4870   33.5660   39.7190 C   0  0  0  0  0  0  0  0  0  0  0  0
   45.9980   33.7510   41.0010 C   0  0  0  0  0  0  0  0  0  0  0  0
   46.6540   34.4880   41.9650 C   0  0  0  0  0  0  0  0  0  0  0  0
   47.8530   35.0530   41.5920 C   0  0  0  0  0  0  0  0  0  0  0  0
   48.3760   34.8940   40.3240 C   0  0  0  0  0  0  0  0  0  0  0  0
   48.4400   34.0020   37.7920 S   0  0  0  0  0  0  0  0  0  0  0  0
   47.3880   33.7420   36.7570 O   0  0  0  0  0  0  0  0  0  0  0  0
   49.3700   32.8000   37.8330 O   0  0  0  0  0  0  0  0  0  0  0  0
   46.6060   33.0200   46.5340 C   0  0  0  0  0  0  0  0  0  0  0  0
   46.0120   31.7210   46.5890 N   0  0  0  0  0  0  0  0  0  0  0  0
   45.9930   30.8640   45.5430 C   0  0  0  0  0  0  0  0  0  0  0  0
   45.3960   29.6140   45.6700 C   0  0  0  0  0  0  0  0  0  0  0  0
   44.8120   29.2220   46.8650 C   0  0  0  0  0  0  0  0  0  0  0  0
   44.2330   27.9110   46.8610 N   0  0  0  0  0  0  0  0  0  0  0  0
   44.8200   30.0690   47.9300 N   0  0  0  0  0  0  0  0  0  0  0  0
   45.4270   31.2690   47.7130 C   0  0  0  0  0  0  0  0  0  0  0  0
   45.4270   32.0410   48.7060 O   0  0  0  0  0  0  0  0  0  0  0  0
   43.6546   36.2174   45.0506 H   0  0  0  0  0  0  0  0  0  0  0  0
   44.5880   36.1259   42.7459 H   0  0  0  0  0  0  0  0  0  0  0  0
   45.9234   32.9671   38.9884 H   0  0  0  0  0  0  0  0  0  0  0  0
   45.0365   33.2862   41.2645 H   0  0  0  0  0  0  0  0  0  0  0  0
   48.4120   35.6500   42.3276 H   0  0  0  0  0  0  0  0  0  0  0  0
   49.3375   35.3625   40.0670 H   0  0  0  0  0  0  0  0  0  0  0  0
   49.1137   35.1540   37.4820 H   0  0  0  0  0  0  0  0  0  0  0  0
   47.6742   32.9032   46.2990 H   0  0  0  0  0  0  0  0  0  0  0  0
   46.4395   33.4901   47.5144 H   0  0  0  0  0  0  0  0  0  0  0  0
   46.4519   31.1568   44.5871 H   0  0  0  0  0  0  0  0  0  0  0  0
   45.3871   28.9272   44.8108 H   0  0  0  0  0  0  0  0  0  0  0  0
   43.7795   27.5457   47.7106 H   0  0  0  0  0  0  0  0  0  0  0  0
   44.2704   27.3341   46.0085 H   0  0  0  0  0  0  0  0  0  0  0  0
  1  6  2  0
  2  1  1  0
  3  2  2  0
  3  4  1  0
  4  5  2  0
  5  6  1  0
  5 16  1  0
  7  8  2  0
  7 12  1  0
  8  9  1  0
  9 10  2  0
 10  3  1  0
 11 10  1  0
 12 11  2  0
 13 15  2  0
 13  7  1  0
 14 13  2  0
 16 17  1  0
 17 23  1  0
 18 19  2  0
 18 17  1  0
 19 20  1  0
 20 22  2  0
 21 20  1  0
 23 22  1  0
 23 24  2  0
  1 25  1  0
  2 26  1  0
  8 27  1  0
  9 28  1  0
 11 29  1  0
 12 30  1  0
 13 31  1  0
 16 32  1  0
 16 33  1  0
 18 34  1  0
 19 35  1  0
 21 36  1  0
 21 37  1  0
M  ISO  8  25  14  26  14  27  14  28  14  29  14  30  14  31  11  32   8
M  ISO  3  33   8  34  14  35  14
M  END
>  <minimizedAffinity>  (1) 
-6.269835

>  <minimizedRMSD>  (1) 
0.642275333

$$$$
