
     RDKit          3D

 40 42  0  0  0  0  0  0  0  0999 V2000
   46.8150   32.6300   47.0710 C   0  0  0  0  0  0  0  0  0  0  0  0
   46.2300   31.3250   47.1500 N   0  0  0  0  0  0  0  0  0  0  0  0
   46.2430   30.4350   46.1230 C   0  0  0  0  0  0  0  0  0  0  0  0
   45.6530   29.1960   46.2840 C   0  0  0  0  0  0  0  0  0  0  0  0
   45.0360   28.8200   47.4790 C   0  0  0  0  0  0  0  0  0  0  0  0
   44.4750   27.5090   47.4870 N   0  0  0  0  0  0  0  0  0  0  0  0
   45.0220   29.7160   48.5190 N   0  0  0  0  0  0  0  0  0  0  0  0
   45.6210   30.8990   48.2680 C   0  0  0  0  0  0  0  0  0  0  0  0
   45.5960   31.7070   49.2390 O   0  0  0  0  0  0  0  0  0  0  0  0
   44.8170   34.9160   44.9630 C   0  0  0  0  0  0  0  0  0  0  0  0
   45.5200   34.8850   43.7680 C   0  0  0  0  0  0  0  0  0  0  0  0
   46.6710   34.0830   43.6940 C   0  0  0  0  0  0  0  0  0  0  0  0
   47.0570   33.3750   44.7730 N   0  0  0  0  0  0  0  0  0  0  0  0
   46.3280   33.4380   45.9300 C   0  0  0  0  0  0  0  0  0  0  0  0
   45.2190   34.2050   46.0170 N   0  0  0  0  0  0  0  0  0  0  0  0
   47.4980   33.9780   42.4630 C   0  0  0  0  0  0  0  0  0  0  0  0
   46.6730   34.4660   41.3000 C   0  0  0  0  0  0  0  0  0  0  0  0
   47.5230   34.2900   40.0600 C   0  0  0  0  0  0  0  0  0  0  0  0
   48.6830   35.2270   40.1310 C   0  0  0  0  0  0  0  0  0  0  0  0
   48.9900   35.7470   41.5050 C   0  0  0  0  0  0  0  0  0  0  0  0
   48.7950   34.7280   42.6040 C   0  0  0  0  0  0  0  0  0  0  0  0
   46.5841   33.1699   48.0012 H   0  0  0  0  0  0  0  0  0  0  0  0
   47.8955   32.4869   46.9226 H   0  0  0  0  0  0  0  0  0  0  0  0
   46.7209   30.6997   45.1683 H   0  0  0  0  0  0  0  0  0  0  0  0
   45.6698   28.4842   45.4455 H   0  0  0  0  0  0  0  0  0  0  0  0
   44.0020   27.1564   48.3313 H   0  0  0  0  0  0  0  0  0  0  0  0
   44.5427   26.9147   46.6485 H   0  0  0  0  0  0  0  0  0  0  0  0
   43.9128   35.5374   45.0427 H   0  0  0  0  0  0  0  0  0  0  0  0
   45.1851   35.4730   42.9008 H   0  0  0  0  0  0  0  0  0  0  0  0
   47.7818   32.9299   42.2869 H   0  0  0  0  0  0  0  0  0  0  0  0
   45.7503   33.8733   41.2145 H   0  0  0  0  0  0  0  0  0  0  0  0
   46.3826   35.5184   41.4347 H   0  0  0  0  0  0  0  0  0  0  0  0
   46.9223   34.5133   39.1660 H   0  0  0  0  0  0  0  0  0  0  0  0
   47.8851   33.2530   40.0008 H   0  0  0  0  0  0  0  0  0  0  0  0
   49.5729   34.6984   39.7586 H   0  0  0  0  0  0  0  0  0  0  0  0
   48.4112   36.1023   39.5227 H   0  0  0  0  0  0  0  0  0  0  0  0
   50.0384   36.0794   41.5231 H   0  0  0  0  0  0  0  0  0  0  0  0
   48.2832   36.5668   41.7011 H   0  0  0  0  0  0  0  0  0  0  0  0
   48.7996   35.2478   43.5734 H   0  0  0  0  0  0  0  0  0  0  0  0
   49.6152   33.9982   42.5360 H   0  0  0  0  0  0  0  0  0  0  0  0
  1  2  1  0
  2  8  1  0
  3  4  2  0
  3  2  1  0
  4  5  1  0
  5  6  1  0
  5  7  2  0
  8  7  1  0
  8  9  2  0
 10 15  2  0
 11 10  1  0
 12 11  2  0
 12 13  1  0
 13 14  2  0
 14 15  1  0
 14  1  1  0
 16 21  1  0
 16 12  1  0
 17 16  1  0
 18 19  1  0
 18 17  1  0
 19 20  1  0
 20 21  1  0
  1 22  1  0
  1 23  1  0
  3 24  1  0
  4 25  1  0
  6 26  1  0
  6 27  1  0
 10 28  1  0
 11 29  1  0
 16 30  1  0
 17 31  1  0
 17 32  1  0
 18 33  1  0
 18 34  1  0
 19 35  1  0
 19 36  1  0
 20 37  1  0
 20 38  1  0
 21 39  1  0
 21 40  1  0
M  ISO  8  22   8  23   8  24  14  25  14  28  14  29  14  30  13  31  13
M  ISO  8  32  13  33  13  34  13  35  13  36  13  37  13  38  13  39  13
M  ISO  1  40  13
M  END
>  <minimizedAffinity>  (1) 
-6.22821045

>  <minimizedRMSD>  (1) 
1.02883661

$$$$
