
     RDKit          3D

 31 33  0  0  0  0  0  0  0  0999 V2000
   46.6690   32.9050   46.4650 C   0  0  0  0  0  0  0  0  0  0  0  0
   46.0270   31.6240   46.4750 N   0  0  0  0  0  0  0  0  0  0  0  0
   45.9560   30.8150   45.3840 C   0  0  0  0  0  0  0  0  0  0  0  0
   45.3210   29.5940   45.4760 C   0  0  0  0  0  0  0  0  0  0  0  0
   44.7360   29.1490   46.6700 C   0  0  0  0  0  0  0  0  0  0  0  0
   44.1160   27.8650   46.6040 N   0  0  0  0  0  0  0  0  0  0  0  0
   44.8080   29.9620   47.7680 N   0  0  0  0  0  0  0  0  0  0  0  0
   45.4470   31.1330   47.5840 C   0  0  0  0  0  0  0  0  0  0  0  0
   45.4990   31.8660   48.6150 O   0  0  0  0  0  0  0  0  0  0  0  0
   44.5780   35.4300   44.7460 C   0  0  0  0  0  0  0  0  0  0  0  0
   45.1980   35.5240   43.5060 C   0  0  0  0  0  0  0  0  0  0  0  0
   46.3170   34.7250   43.2810 C   0  0  0  0  0  0  0  0  0  0  0  0
   46.7570   33.8960   44.2600 N   0  0  0  0  0  0  0  0  0  0  0  0
   46.1120   33.8420   45.4580 C   0  0  0  0  0  0  0  0  0  0  0  0
   45.0250   34.6070   45.7000 N   0  0  0  0  0  0  0  0  0  0  0  0
   47.0540   34.7300   42.0320 C   0  0  0  0  0  0  0  0  0  0  0  0
   48.2370   35.4550   41.8620 C   0  0  0  0  0  0  0  0  0  0  0  0
   48.7230   35.2770   40.5730 C   0  0  0  0  0  0  0  0  0  0  0  0
   47.7830   34.4270   40.0090 C   0  0  0  0  0  0  0  0  0  0  0  0
   46.8620   34.1480   40.8720 O   0  0  0  0  0  0  0  0  0  0  0  0
   46.5563   33.3580   47.4610 H   0  0  0  0  0  0  0  0  0  0  0  0
   47.7227   32.7351   46.1988 H   0  0  0  0  0  0  0  0  0  0  0  0
   46.4037   31.1335   44.4310 H   0  0  0  0  0  0  0  0  0  0  0  0
   45.2721   28.9499   44.5857 H   0  0  0  0  0  0  0  0  0  0  0  0
   43.6638   27.4679   47.4399 H   0  0  0  0  0  0  0  0  0  0  0  0
   44.1208   27.3356   45.7205 H   0  0  0  0  0  0  0  0  0  0  0  0
   43.6931   36.0512   44.9487 H   0  0  0  0  0  0  0  0  0  0  0  0
   44.8189   36.2049   42.7297 H   0  0  0  0  0  0  0  0  0  0  0  0
   48.7132   36.0754   42.6355 H   0  0  0  0  0  0  0  0  0  0  0  0
   49.6272   35.7035   40.1142 H   0  0  0  0  0  0  0  0  0  0  0  0
   47.8165   34.0459   38.9777 H   0  0  0  0  0  0  0  0  0  0  0  0
  1  2  1  0
  2  8  1  0
  3  4  2  0
  3  2  1  0
  4  5  1  0
  5  7  2  0
  6  5  1  0
  8  7  1  0
  8  9  2  0
 10 15  2  0
 11 10  1  0
 12 11  2  0
 12 13  1  0
 13 14  2  0
 14 15  1  0
 14  1  1  0
 16 12  1  0
 17 16  2  0
 18 17  1  0
 19 18  2  0
 19 20  1  0
 20 16  1  0
  1 21  1  0
  1 22  1  0
  3 23  1  0
  4 24  1  0
  6 25  1  0
  6 26  1  0
 10 27  1  0
 11 28  1  0
 17 29  1  0
 18 30  1  0
 19 31  1  0
M  ISO  8  21   8  22   8  23  14  24  14  27  14  28  14  29  14  30  14
M  ISO  1  31  14
M  END
>  <minimizedAffinity>  (1) 
-5.76721716

>  <minimizedRMSD>  (1) 
0.241039217

$$$$
