
     RDKit          3D

 31 32  0  0  0  0  0  0  0  0999 V2000
   44.8580   35.1770   44.4480 C   0  0  0  0  0  0  0  0  0  0  0  0
   45.6110   35.1300   43.2810 C   0  0  0  0  0  0  0  0  0  0  0  0
   46.7340   34.3070   43.2290 C   0  0  0  0  0  0  0  0  0  0  0  0
   47.0560   33.5740   44.3300 N   0  0  0  0  0  0  0  0  0  0  0  0
   46.2980   33.6460   45.4520 C   0  0  0  0  0  0  0  0  0  0  0  0
   45.2050   34.4430   45.5100 N   0  0  0  0  0  0  0  0  0  0  0  0
   47.5800   34.1810   42.0830 N   0  0  0  0  0  0  0  0  0  0  0  0
   48.9990   34.1370   42.1990 C   0  0  0  0  0  0  0  0  0  0  0  0
   49.5320   34.7150   43.2400 N   0  0  0  0  0  0  0  0  0  0  0  0
   49.8020   33.4900   41.2150 N   0  0  0  0  0  0  0  0  0  0  0  0
   50.5520   34.7390   43.4160 H   0  0  0  0  0  0  0  0  0  0  0  0
   46.7310   32.8060   46.6040 C   0  0  0  0  0  0  0  0  0  0  0  0
   46.1010   31.5350   46.6600 N   0  0  0  0  0  0  0  0  0  0  0  0
   46.0340   30.6880   45.5940 C   0  0  0  0  0  0  0  0  0  0  0  0
   45.4050   29.4600   45.7090 C   0  0  0  0  0  0  0  0  0  0  0  0
   44.8240   29.0550   46.9130 C   0  0  0  0  0  0  0  0  0  0  0  0
   44.2070   27.7760   46.9150 N   0  0  0  0  0  0  0  0  0  0  0  0
   44.8820   29.8850   47.9810 N   0  0  0  0  0  0  0  0  0  0  0  0
   45.5190   31.0790   47.7880 C   0  0  0  0  0  0  0  0  0  0  0  0
   45.5650   31.8380   48.7870 O   0  0  0  0  0  0  0  0  0  0  0  0
   43.9693   35.8233   44.4983 H   0  0  0  0  0  0  0  0  0  0  0  0
   45.3238   35.7354   42.4086 H   0  0  0  0  0  0  0  0  0  0  0  0
   47.1516   34.1204   41.1483 H   0  0  0  0  0  0  0  0  0  0  0  0
   50.8266   33.4699   41.3184 H   0  0  0  0  0  0  0  0  0  0  0  0
   49.3577   33.0426   40.4006 H   0  0  0  0  0  0  0  0  0  0  0  0
   47.8175   32.6507   46.5300 H   0  0  0  0  0  0  0  0  0  0  0  0
   46.4419   33.3454   47.5180 H   0  0  0  0  0  0  0  0  0  0  0  0
   46.4835   30.9827   44.6343 H   0  0  0  0  0  0  0  0  0  0  0  0
   45.3620   28.7913   44.8366 H   0  0  0  0  0  0  0  0  0  0  0  0
   43.7609   27.4207   47.7727 H   0  0  0  0  0  0  0  0  0  0  0  0
   44.2055   27.2036   46.0587 H   0  0  0  0  0  0  0  0  0  0  0  0
  1  6  2  0
  2  1  1  0
  3  2  2  0
  3  4  1  0
  4  5  2  0
  5  6  1  0
  5 12  1  0
  7  8  1  0
  7  3  1  0
  8  9  2  0
  9 11  1  0
 10  8  1  0
 12 13  1  0
 13 19  1  0
 14 15  2  0
 14 13  1  0
 15 16  1  0
 16 17  1  0
 16 18  2  0
 19 18  1  0
 19 20  2  0
  1 21  1  0
  2 22  1  0
  7 23  1  0
 10 24  1  0
 10 25  1  0
 12 26  1  0
 12 27  1  0
 14 28  1  0
 15 29  1  0
 17 30  1  0
 17 31  1  0
M  ISO  6  21  14  22  14  26   8  27   8  28  14  29  14
M  END
>  <minimizedAffinity>  (1) 
-5.33919001

>  <minimizedRMSD>  (1) 
1.33716595

$$$$
