
     RDKit          3D

 33 34  0  0  0  0  0  0  0  0999 V2000
   46.7480   32.9860   46.2830 C   0  0  0  0  0  0  0  0  0  0  0  0
   46.0930   31.7210   46.3740 N   0  0  0  0  0  0  0  0  0  0  0  0
   46.0240   30.8400   45.3390 C   0  0  0  0  0  0  0  0  0  0  0  0
   45.3740   29.6300   45.4970 C   0  0  0  0  0  0  0  0  0  0  0  0
   44.7760   29.2850   46.7090 C   0  0  0  0  0  0  0  0  0  0  0  0
   44.1380   27.9980   46.7260 N   0  0  0  0  0  0  0  0  0  0  0  0
   44.8380   30.1560   47.7520 N   0  0  0  0  0  0  0  0  0  0  0  0
   45.4970   31.3160   47.5030 C   0  0  0  0  0  0  0  0  0  0  0  0
   45.5460   32.1160   48.4810 O   0  0  0  0  0  0  0  0  0  0  0  0
   44.5330   35.4880   44.7030 C   0  0  0  0  0  0  0  0  0  0  0  0
   45.0820   35.5850   43.4210 C   0  0  0  0  0  0  0  0  0  0  0  0
   46.1900   34.8010   43.1200 C   0  0  0  0  0  0  0  0  0  0  0  0
   46.7000   33.9730   44.0740 N   0  0  0  0  0  0  0  0  0  0  0  0
   46.1250   33.9170   45.3090 C   0  0  0  0  0  0  0  0  0  0  0  0
   45.0440   34.6710   45.6260 N   0  0  0  0  0  0  0  0  0  0  0  0
   46.9000   34.7780   41.8070 C   0  0  0  0  0  0  0  0  0  0  0  0
   48.2680   35.3970   41.8980 C   0  0  0  0  0  0  0  0  0  0  0  0
   47.0600   33.3230   41.4390 C   0  0  0  0  0  0  0  0  0  0  0  0
   46.7276   33.4589   47.2760 H   0  0  0  0  0  0  0  0  0  0  0  0
   47.7711   32.7912   45.9291 H   0  0  0  0  0  0  0  0  0  0  0  0
   46.4870   31.0915   44.3734 H   0  0  0  0  0  0  0  0  0  0  0  0
   45.3276   28.9271   44.6521 H   0  0  0  0  0  0  0  0  0  0  0  0
   43.6719   27.6655   47.5822 H   0  0  0  0  0  0  0  0  0  0  0  0
   44.1466   27.4077   45.8820 H   0  0  0  0  0  0  0  0  0  0  0  0
   43.6563   36.1016   44.9577 H   0  0  0  0  0  0  0  0  0  0  0  0
   44.6491   36.2631   42.6708 H   0  0  0  0  0  0  0  0  0  0  0  0
   46.3245   35.3506   41.0648 H   0  0  0  0  0  0  0  0  0  0  0  0
   48.5443   35.5220   42.9554 H   0  0  0  0  0  0  0  0  0  0  0  0
   49.0003   34.7425   41.4026 H   0  0  0  0  0  0  0  0  0  0  0  0
   48.2598   36.3791   41.4026 H   0  0  0  0  0  0  0  0  0  0  0  0
   47.1265   32.7182   42.3554 H   0  0  0  0  0  0  0  0  0  0  0  0
   46.1923   32.9970   40.8467 H   0  0  0  0  0  0  0  0  0  0  0  0
   47.9778   33.1934   40.8467 H   0  0  0  0  0  0  0  0  0  0  0  0
  1  2  1  0
  2  8  1  0
  3  4  2  0
  3  2  1  0
  4  5  1  0
  5  6  1  0
  5  7  2  0
  8  7  1  0
  8  9  2  0
 10 15  2  0
 11 10  1  0
 12 11  2  0
 12 13  1  0
 13 14  2  0
 14 15  1  0
 14  1  1  0
 16 17  1  0
 16 12  1  0
 18 16  1  0
  1 19  1  0
  1 20  1  0
  3 21  1  0
  4 22  1  0
  6 23  1  0
  6 24  1  0
 10 25  1  0
 11 26  1  0
 16 27  1  0
 17 28  1  0
 17 29  1  0
 17 30  1  0
 18 31  1  0
 18 32  1  0
 18 33  1  0
M  ISO  8  19   8  20   8  21  14  22  14  25  14  26  14  27   8  28   8
M  ISO  5  29   8  30   8  31   8  32   8  33   8
M  END
>  <minimizedAffinity>  (1) 
-5.00154638

>  <minimizedRMSD>  (1) 
0.291770935

$$$$
