
     RDKit          3D

 30 31  0  0  0  0  0  0  0  0999 V2000
   46.7440   32.9770   46.2820 C   0  0  0  0  0  0  0  0  0  0  0  0
   46.0880   31.7010   46.3770 N   0  0  0  0  0  0  0  0  0  0  0  0
   46.0230   30.8200   45.3520 C   0  0  0  0  0  0  0  0  0  0  0  0
   45.3740   29.6080   45.5130 C   0  0  0  0  0  0  0  0  0  0  0  0
   44.7740   29.2650   46.7290 C   0  0  0  0  0  0  0  0  0  0  0  0
   44.1460   27.9870   46.7430 N   0  0  0  0  0  0  0  0  0  0  0  0
   44.8390   30.1590   47.7700 N   0  0  0  0  0  0  0  0  0  0  0  0
   45.4930   31.3100   47.5110 C   0  0  0  0  0  0  0  0  0  0  0  0
   45.5400   32.1180   48.4860 O   0  0  0  0  0  0  0  0  0  0  0  0
   44.4980   35.5170   44.7790 C   0  0  0  0  0  0  0  0  0  0  0  0
   45.0090   35.5910   43.4710 C   0  0  0  0  0  0  0  0  0  0  0  0
   46.0920   34.7850   43.1370 C   0  0  0  0  0  0  0  0  0  0  0  0
   46.6030   33.9680   44.0830 N   0  0  0  0  0  0  0  0  0  0  0  0
   46.0910   33.9150   45.3390 C   0  0  0  0  0  0  0  0  0  0  0  0
   45.0460   34.6850   45.6850 N   0  0  0  0  0  0  0  0  0  0  0  0
   46.7350   34.7580   41.7940 C   0  0  0  0  0  0  0  0  0  0  0  0
   48.1420   35.2780   41.9530 C   0  0  0  0  0  0  0  0  0  0  0  0
   46.7521   33.4383   47.2806 H   0  0  0  0  0  0  0  0  0  0  0  0
   47.7574   32.7891   45.8976 H   0  0  0  0  0  0  0  0  0  0  0  0
   46.4880   31.0681   44.3865 H   0  0  0  0  0  0  0  0  0  0  0  0
   45.3294   28.9025   44.6702 H   0  0  0  0  0  0  0  0  0  0  0  0
   43.6786   27.6522   47.5976 H   0  0  0  0  0  0  0  0  0  0  0  0
   44.1592   27.3974   45.8985 H   0  0  0  0  0  0  0  0  0  0  0  0
   43.6416   36.1453   45.0651 H   0  0  0  0  0  0  0  0  0  0  0  0
   44.5628   36.2702   42.7297 H   0  0  0  0  0  0  0  0  0  0  0  0
   46.1748   35.3983   41.0967 H   0  0  0  0  0  0  0  0  0  0  0  0
   46.7440   33.7350   41.3898 H   0  0  0  0  0  0  0  0  0  0  0  0
   48.3815   35.3665   43.0230 H   0  0  0  0  0  0  0  0  0  0  0  0
   48.8466   34.5809   41.4760 H   0  0  0  0  0  0  0  0  0  0  0  0
   48.2239   36.2658   41.4760 H   0  0  0  0  0  0  0  0  0  0  0  0
  1  2  1  0
  2  8  1  0
  3  4  2  0
  3  2  1  0
  4  5  1  0
  5  6  1  0
  5  7  2  0
  8  7  1  0
  8  9  2  0
 10 15  2  0
 11 10  1  0
 12 11  2  0
 12 13  1  0
 13 14  2  0
 14 15  1  0
 14  1  1  0
 16 17  1  0
 16 12  1  0
  1 18  1  0
  1 19  1  0
  3 20  1  0
  4 21  1  0
  6 22  1  0
  6 23  1  0
 10 24  1  0
 11 25  1  0
 16 26  1  0
 16 27  1  0
 17 28  1  0
 17 29  1  0
 17 30  1  0
M  ISO  8  18   8  19   8  20  14  21  14  24  14  25  14  26   8  27   8
M  ISO  3  28   8  29   8  30   8
M  END
>  <minimizedAffinity>  (1) 
-4.80241919

>  <minimizedRMSD>  (1) 
0.0815012157

$$$$
