
     RDKit          3D

 45 49  0  0  1  0  0  0  0  0999 V2000
   44.6850   35.3040   44.2260 C   0  0  0  0  0  0  0  0  0  0  0  0
   45.4420   35.1830   43.0680 C   0  0  0  0  0  0  0  0  0  0  0  0
   46.5590   34.3710   43.0960 C   0  0  0  0  0  0  0  0  0  0  0  0
   46.9060   33.7090   44.2300 N   0  0  0  0  0  0  0  0  0  0  0  0
   46.1420   33.8510   45.3440 C   0  0  0  0  0  0  0  0  0  0  0  0
   45.0450   34.6400   45.3370 N   0  0  0  0  0  0  0  0  0  0  0  0
   47.3500   34.2280   41.8580 C   0  0  1  0  0  0  0  0  0  0  0  0
   48.4110   35.3090   41.5810 C   0  0  0  0  0  0  0  0  0  0  0  0
   48.7990   33.9240   41.9440 C   0  0  2  0  0  0  0  0  0  0  0  0
   49.2960   33.0100   40.9240 N   0  0  0  0  0  0  0  0  0  0  0  0
   50.2550   32.0680   40.9700 C   0  0  0  0  0  0  0  0  0  0  0  0
   50.3530   31.4730   39.7530 N   0  0  0  0  0  0  0  0  0  0  0  0
   49.4540   32.0500   38.9620 C   0  0  0  0  0  0  0  0  0  0  0  0
   49.1750   31.7800   37.6160 C   0  0  0  0  0  0  0  0  0  0  0  0
   49.7710   30.9070   36.9390 O   0  0  0  0  0  0  0  0  0  0  0  0
   48.2090   32.4860   36.9790 N   0  0  0  0  0  0  0  0  0  0  0  0
   47.5590   33.4320   37.6980 C   0  0  0  0  0  0  0  0  0  0  0  0
   46.5470   34.1610   37.0040 N   0  0  0  0  0  0  0  0  0  0  0  0
   47.8090   33.7090   38.9930 N   0  0  0  0  0  0  0  0  0  0  0  0
   48.7720   33.0200   39.6660 C   0  0  0  0  0  0  0  0  0  0  0  0
   46.5640   33.0960   46.5420 C   0  0  0  0  0  0  0  0  0  0  0  0
   46.0110   31.7790   46.6190 N   0  0  0  0  0  0  0  0  0  0  0  0
   45.9880   30.8970   45.5750 C   0  0  0  0  0  0  0  0  0  0  0  0
   45.4330   29.6420   45.7430 C   0  0  0  0  0  0  0  0  0  0  0  0
   44.8910   29.2420   46.9610 C   0  0  0  0  0  0  0  0  0  0  0  0
   44.3670   27.8970   46.9470 N   0  0  0  0  0  0  0  0  0  0  0  0
   44.9060   30.1130   48.0140 N   0  0  0  0  0  0  0  0  0  0  0  0
   45.4680   31.3150   47.7530 C   0  0  0  0  0  0  0  0  0  0  0  0
   45.4690   32.1000   48.7430 O   0  0  0  0  0  0  0  0  0  0  0  0
   43.7902   35.9438   44.2335 H   0  0  0  0  0  0  0  0  0  0  0  0
   45.1590   35.7206   42.1510 H   0  0  0  0  0  0  0  0  0  0  0  0
   46.5009   33.7818   41.3195 H   0  0  0  0  0  0  0  0  0  0  0  0
   48.5708   35.6783   40.5572 H   0  0  0  0  0  0  0  0  0  0  0  0
   48.6291   36.3137   41.9721 H   0  0  0  0  0  0  0  0  0  0  0  0
   49.4848   33.5333   42.7102 H   0  0  0  0  0  0  0  0  0  0  0  0
   50.8629   31.8192   41.8524 H   0  0  0  0  0  0  0  0  0  0  0  0
   47.9791   32.3105   35.9904 H   0  0  0  0  0  0  0  0  0  0  0  0
   46.0143   34.8949   37.4925 H   0  0  0  0  0  0  0  0  0  0  0  0
   46.3494   33.9532   36.0147 H   0  0  0  0  0  0  0  0  0  0  0  0
   47.6607   33.0115   46.5301 H   0  0  0  0  0  0  0  0  0  0  0  0
   46.1938   33.6505   47.4169 H   0  0  0  0  0  0  0  0  0  0  0  0
   46.4110   31.1857   44.6015 H   0  0  0  0  0  0  0  0  0  0  0  0
   45.4194   28.9429   44.8938 H   0  0  0  0  0  0  0  0  0  0  0  0
   43.9425   27.5008   47.7977 H   0  0  0  0  0  0  0  0  0  0  0  0
   44.4176   27.3335   46.0863 H   0  0  0  0  0  0  0  0  0  0  0  0
  1  6  2  0
  2  3  2  0
  2  1  1  0
  3  4  1  0
  4  5  2  0
  5 21  1  0
  6  5  1  0
  7  9  1  0
  7  3  1  0
  8  7  1  0
  8  9  1  0
 10 11  1  0
 10  9  1  0
 12 11  2  0
 13 20  2  0
 13 12  1  0
 14 13  1  0
 15 14  2  0
 16 14  1  0
 16 17  1  0
 17 19  2  0
 18 17  1  0
 19 20  1  0
 20 10  1  0
 21 22  1  0
 22 28  1  0
 23 24  2  0
 23 22  1  0
 24 25  1  0
 25 27  2  0
 26 25  1  0
 28 27  1  0
 28 29  2  0
  1 30  1  0
  2 31  1  0
  7 32  1  6
  8 33  1  0
  8 34  1  0
  9 35  1  1
 11 36  1  0
 16 37  1  0
 18 38  1  0
 18 39  1  0
 21 40  1  0
 21 41  1  0
 23 42  1  0
 24 43  1  0
 26 44  1  0
 26 45  1  0
M  ISO  8  30  14  31  14  32  13  33  13  34  13  35  13  36  14  37   9
M  ISO  4  40   8  41   8  42  14  43  14
M  END
>  <minimizedAffinity>  (1) 
-6.85018492

>  <minimizedRMSD>  (1) 
1.4544431

$$$$
