
     RDKit          3D

 37 40  0  0  0  0  0  0  0  0999 V2000
   44.4090   36.0090   44.7790 C   0  0  0  0  0  0  0  0  0  0  0  0
   45.0340   35.9810   43.5360 C   0  0  0  0  0  0  0  0  0  0  0  0
   45.9580   35.0080   43.1810 C   0  0  0  0  0  0  0  0  0  0  0  0
   46.1800   34.0970   44.1760 N   0  0  0  0  0  0  0  0  0  0  0  0
   45.5880   34.1080   45.3760 C   0  0  0  0  0  0  0  0  0  0  0  0
   44.7080   35.0670   45.6620 N   0  0  0  0  0  0  0  0  0  0  0  0
   45.9170   33.0900   46.3180 N   0  0  0  0  0  0  0  0  0  0  0  0
   45.2160   33.1790   47.4730 C   0  0  0  0  0  0  0  0  0  0  0  0
   45.4430   32.2440   48.4760 C   0  0  0  0  0  0  0  0  0  0  0  0
   46.3990   31.2580   48.2190 C   0  0  0  0  0  0  0  0  0  0  0  0
   46.7420   30.2460   49.1260 N   0  0  0  0  0  0  0  0  0  0  0  0
   47.0660   31.2220   47.0460 N   0  0  0  0  0  0  0  0  0  0  0  0
   46.8340   32.1320   46.0890 C   0  0  0  0  0  0  0  0  0  0  0  0
   47.4220   32.1620   44.9630 O   0  0  0  0  0  0  0  0  0  0  0  0
   46.6910   34.8130   41.9660 C   0  0  0  0  0  0  0  0  0  0  0  0
   47.9530   35.3760   41.8820 C   0  0  0  0  0  0  0  0  0  0  0  0
   48.7740   35.2630   40.7830 C   0  0  0  0  0  0  0  0  0  0  0  0
   48.3380   34.5580   39.6960 C   0  0  0  0  0  0  0  0  0  0  0  0
   47.0940   33.9710   39.7070 C   0  0  0  0  0  0  0  0  0  0  0  0
   46.6450   33.2640   38.6140 C   0  0  0  0  0  0  0  0  0  0  0  0
   45.3980   32.6690   38.5890 C   0  0  0  0  0  0  0  0  0  0  0  0
   44.6340   32.8300   39.7340 C   0  0  0  0  0  0  0  0  0  0  0  0
   45.1070   33.5320   40.7910 C   0  0  0  0  0  0  0  0  0  0  0  0
   46.3380   34.1280   40.8360 C   0  0  0  0  0  0  0  0  0  0  0  0
   43.6815   36.7970   45.0237 H   0  0  0  0  0  0  0  0  0  0  0  0
   44.7852   36.7632   42.8037 H   0  0  0  0  0  0  0  0  0  0  0  0
   44.4765   33.9808   47.6156 H   0  0  0  0  0  0  0  0  0  0  0  0
   44.8948   32.2787   49.4290 H   0  0  0  0  0  0  0  0  0  0  0  0
   47.4567   29.5486   48.8735 H   0  0  0  0  0  0  0  0  0  0  0  0
   46.2793   30.1997   50.0451 H   0  0  0  0  0  0  0  0  0  0  0  0
   48.3220   35.9483   42.7459 H   0  0  0  0  0  0  0  0  0  0  0  0
   49.7681   35.7339   40.7795 H   0  0  0  0  0  0  0  0  0  0  0  0
   48.9833   34.4599   38.8106 H   0  0  0  0  0  0  0  0  0  0  0  0
   47.2986   33.1700   37.7343 H   0  0  0  0  0  0  0  0  0  0  0  0
   45.0355   32.1045   37.7173 H   0  0  0  0  0  0  0  0  0  0  0  0
   43.6307   32.3819   39.7849 H   0  0  0  0  0  0  0  0  0  0  0  0
   44.4575   33.6298   41.6734 H   0  0  0  0  0  0  0  0  0  0  0  0
  1  6  2  0
  2  1  1  0
  3  2  2  0
  3  4  1  0
  4  5  2  0
  5  6  1  0
  5  7  1  0
  7  8  1  0
  8  9  2  0
 10  9  1  0
 10 11  1  0
 12 10  2  0
 13  7  1  0
 13 12  1  0
 14 13  2  0
 15  3  1  0
 16 15  2  0
 17 16  1  0
 18 19  1  0
 18 17  2  0
 19 24  2  0
 20 19  1  0
 21 20  2  0
 21 22  1  0
 22 23  2  0
 23 24  1  0
 24 15  1  0
  1 25  1  0
  2 26  1  0
  8 27  1  0
  9 28  1  0
 11 29  1  0
 11 30  1  0
 16 31  1  0
 17 32  1  0
 18 33  1  0
 20 34  1  0
 21 35  1  0
 22 36  1  0
 23 37  1  0
M  ISO  8  25  14  26  14  27  14  28  14  31  14  32  14  33  14  34  14
M  ISO  3  35  14  36  14  37  14
M  END
>  <minimizedAffinity>  (1) 
-7.97532177

>  <minimizedRMSD>  (1) 
0.125395924

$$$$
