
     RDKit          3D

 42 45  0  0  1  0  0  0  0  0999 V2000
   44.7020   35.2580   44.4910 C   0  0  0  0  0  0  0  0  0  0  0  0
   45.3920   35.4800   43.3030 C   0  0  0  0  0  0  0  0  0  0  0  0
   46.5530   34.7630   43.0790 C   0  0  0  0  0  0  0  0  0  0  0  0
   46.9970   33.8680   44.0000 N   0  0  0  0  0  0  0  0  0  0  0  0
   46.2980   33.6750   45.1480 C   0  0  0  0  0  0  0  0  0  0  0  0
   45.1620   34.3660   45.3860 N   0  0  0  0  0  0  0  0  0  0  0  0
   47.2750   34.9830   41.8150 C   0  0  1  0  0  0  0  0  0  0  0  0
   48.7700   35.3560   41.9270 C   0  0  0  0  0  0  0  0  0  0  0  0
   48.3320   34.0370   41.3890 C   0  0  2  0  0  0  0  0  0  0  0  0
   48.5380   33.6900   40.0100 N   0  0  0  0  0  0  0  0  0  0  0  0
   48.1830   34.4840   38.9970 C   0  0  0  0  0  0  0  0  0  0  0  0
   48.3620   34.1910   37.6650 C   0  0  0  0  0  0  0  0  0  0  0  0
   48.9640   32.9610   37.3880 C   0  0  0  0  0  0  0  0  0  0  0  0
   49.2510   32.4430   36.0810 N   0  0  0  0  0  0  0  0  0  0  0  0
   49.3430   32.1210   38.3680 N   0  0  0  0  0  0  0  0  0  0  0  0
   49.1200   32.5090   39.6490 C   0  0  0  0  0  0  0  0  0  0  0  0
   49.4630   31.7430   40.6070 O   0  0  0  0  0  0  0  0  0  0  0  0
   46.8330   32.6810   46.1010 C   0  0  0  0  0  0  0  0  0  0  0  0
   46.0890   31.4620   46.1430 N   0  0  0  0  0  0  0  0  0  0  0  0
   45.8960   30.6540   45.0610 C   0  0  0  0  0  0  0  0  0  0  0  0
   45.1610   29.4790   45.1750 C   0  0  0  0  0  0  0  0  0  0  0  0
   44.6040   29.0990   46.3950 C   0  0  0  0  0  0  0  0  0  0  0  0
   43.8770   27.8620   46.3460 N   0  0  0  0  0  0  0  0  0  0  0  0
   44.7870   29.8960   47.4880 N   0  0  0  0  0  0  0  0  0  0  0  0
   45.5170   31.0130   47.2680 C   0  0  0  0  0  0  0  0  0  0  0  0
   45.6720   31.7320   48.2930 O   0  0  0  0  0  0  0  0  0  0  0  0
   43.7763   35.8146   44.6988 H   0  0  0  0  0  0  0  0  0  0  0  0
   45.0241   36.2057   42.5627 H   0  0  0  0  0  0  0  0  0  0  0  0
   46.3776   35.3949   41.3302 H   0  0  0  0  0  0  0  0  0  0  0  0
   49.2046   36.1117   41.2562 H   0  0  0  0  0  0  0  0  0  0  0  0
   49.4386   35.6951   42.7320 H   0  0  0  0  0  0  0  0  0  0  0  0
   48.5575   32.9907   41.6429 H   0  0  0  0  0  0  0  0  0  0  0  0
   47.7114   35.4459   39.2467 H   0  0  0  0  0  0  0  0  0  0  0  0
   48.0506   34.8819   36.8677 H   0  0  0  0  0  0  0  0  0  0  0  0
   49.6992   31.5212   35.9793 H   0  0  0  0  0  0  0  0  0  0  0  0
   49.0088   32.9930   35.2445 H   0  0  0  0  0  0  0  0  0  0  0  0
   47.8679   32.4456   45.8118 H   0  0  0  0  0  0  0  0  0  0  0  0
   46.7670   33.1306   47.1027 H   0  0  0  0  0  0  0  0  0  0  0  0
   46.3262   30.9348   44.0883 H   0  0  0  0  0  0  0  0  0  0  0  0
   45.0172   28.8409   44.2906 H   0  0  0  0  0  0  0  0  0  0  0  0
   43.4274   27.4948   47.1969 H   0  0  0  0  0  0  0  0  0  0  0  0
   43.8050   27.3417   45.4600 H   0  0  0  0  0  0  0  0  0  0  0  0
  1  6  2  0
  2  1  1  0
  3  2  2  0
  3  4  1  0
  4  5  2  0
  5  6  1  0
  5 18  1  0
  7  8  1  0
  7  3  1  0
  9  7  1  0
  9  8  1  0
 10  9  1  0
 11 10  1  0
 12 11  2  0
 13 12  1  0
 13 15  2  0
 14 13  1  0
 15 16  1  0
 16 10  1  0
 16 17  2  0
 18 19  1  0
 19 25  1  0
 20 21  2  0
 20 19  1  0
 21 22  1  0
 22 24  2  0
 23 22  1  0
 25 24  1  0
 25 26  2  0
  1 27  1  0
  2 28  1  0
  7 29  1  6
  8 30  1  0
  8 31  1  0
  9 32  1  1
 11 33  1  0
 12 34  1  0
 14 35  1  0
 14 36  1  0
 18 37  1  0
 18 38  1  0
 20 39  1  0
 21 40  1  0
 23 41  1  0
 23 42  1  0
M  ISO  8  27  14  28  14  29  13  30  13  31  13  32  13  33  14  34  14
M  ISO  4  37   8  38   8  39  14  40  14
M  END
>  <minimizedAffinity>  (1) 
-6.35291624

>  <minimizedRMSD>  (1) 
2.51852655

$$$$
