
     RDKit          3D

 38 40  0  0  1  0  0  0  0  0999 V2000
   44.9070   34.0460   42.6470 C   0  0  0  0  0  0  0  0  0  0  0  0
   46.0950   34.2370   41.9470 C   0  0  0  0  0  0  0  0  0  0  0  0
   47.2810   34.1570   42.6490 C   0  0  0  0  0  0  0  0  0  0  0  0
   47.2870   33.8980   43.9840 N   0  0  0  0  0  0  0  0  0  0  0  0
   46.1060   33.7170   44.6340 C   0  0  0  0  0  0  0  0  0  0  0  0
   44.9320   33.7920   43.9660 N   0  0  0  0  0  0  0  0  0  0  0  0
   48.5410   34.3360   41.9020 C   0  0  1  0  0  0  0  0  0  0  0  0
   49.0820   35.7760   41.7870 C   0  0  0  0  0  0  0  0  0  0  0  0
   49.7660   34.7740   42.6140 C   0  0  2  0  0  0  0  0  0  0  0  0
   50.9790   34.1220   42.2460 N   0  0  0  0  0  0  0  0  0  0  0  0
   51.0230   32.7200   41.9720 C   0  0  0  0  0  0  0  0  0  0  0  0
   50.1940   31.9380   42.5830 N   0  0  0  0  0  0  0  0  0  0  0  0
   51.9820   32.2160   41.0280 N   0  0  0  0  0  0  0  0  0  0  0  0
   50.2390   30.9240   42.3720 H   0  0  0  0  0  0  0  0  0  0  0  0
   46.1800   33.4300   46.0820 C   0  0  0  0  0  0  0  0  0  0  0  0
   45.8660   32.0730   46.4150 N   0  0  0  0  0  0  0  0  0  0  0  0
   45.9120   31.0370   45.5240 C   0  0  0  0  0  0  0  0  0  0  0  0
   45.5890   29.7510   45.9300 C   0  0  0  0  0  0  0  0  0  0  0  0
   45.2120   29.4790   47.2410 C   0  0  0  0  0  0  0  0  0  0  0  0
   44.9070   28.1020   47.4980 N   0  0  0  0  0  0  0  0  0  0  0  0
   45.1630   30.5080   48.1410 N   0  0  0  0  0  0  0  0  0  0  0  0
   45.4940   31.7210   47.6550 C   0  0  0  0  0  0  0  0  0  0  0  0
   45.4400   32.6480   48.5050 O   0  0  0  0  0  0  0  0  0  0  0  0
   43.9442   34.1033   42.1182 H   0  0  0  0  0  0  0  0  0  0  0  0
   46.0889   34.4454   40.8669 H   0  0  0  0  0  0  0  0  0  0  0  0
   48.2995   33.5075   41.2199 H   0  0  0  0  0  0  0  0  0  0  0  0
   49.5379   36.1220   40.8476 H   0  0  0  0  0  0  0  0  0  0  0  0
   48.6722   36.7830   41.9543 H   0  0  0  0  0  0  0  0  0  0  0  0
   50.1185   34.8302   43.6545 H   0  0  0  0  0  0  0  0  0  0  0  0
   51.8452   34.6749   42.1758 H   0  0  0  0  0  0  0  0  0  0  0  0
   52.0221   31.2073   40.8233 H   0  0  0  0  0  0  0  0  0  0  0  0
   52.6293   32.8634   40.5560 H   0  0  0  0  0  0  0  0  0  0  0  0
   47.2020   33.6451   46.4272 H   0  0  0  0  0  0  0  0  0  0  0  0
   45.4291   34.0648   46.5751 H   0  0  0  0  0  0  0  0  0  0  0  0
   46.2064   31.2244   44.4808 H   0  0  0  0  0  0  0  0  0  0  0  0
   45.6318   28.9290   45.2003 H   0  0  0  0  0  0  0  0  0  0  0  0
   44.6182   27.8059   48.4413 H   0  0  0  0  0  0  0  0  0  0  0  0
   44.9767   27.4088   46.7394 H   0  0  0  0  0  0  0  0  0  0  0  0
  1  6  2  0
  2  1  1  0
  2  3  2  0
  3  4  1  0
  4  5  2  0
  5 15  1  0
  6  5  1  0
  7  9  1  0
  7  3  1  0
  8  7  1  0
  8  9  1  0
 10  9  1  0
 11 10  1  0
 11 12  2  0
 13 11  1  0
 14 12  1  0
 15 16  1  0
 16 22  1  0
 17 18  2  0
 17 16  1  0
 18 19  1  0
 19 20  1  0
 19 21  2  0
 22 21  1  0
 22 23  2  0
  1 24  1  0
  2 25  1  0
  7 26  1  6
  8 27  1  0
  8 28  1  0
  9 29  1  1
 10 30  1  0
 13 31  1  0
 13 32  1  0
 15 33  1  0
 15 34  1  0
 17 35  1  0
 18 36  1  0
 20 37  1  0
 20 38  1  0
M  ISO  8  24  14  25  14  26  13  27  13  28  13  29  13  33   8  34   8
M  ISO  2  35  14  36  14
M  END
>  <minimizedAffinity>  (1) 
-6.08845139

>  <minimizedRMSD>  (1) 
0.729280293

$$$$
