
     RDKit          3D

 39 42  0  0  1  0  0  0  0  0999 V2000
   44.7690   35.2180   44.3210 C   0  0  0  0  0  0  0  0  0  0  0  0
   45.6140   35.0990   43.2250 C   0  0  0  0  0  0  0  0  0  0  0  0
   46.7300   34.2920   43.3450 C   0  0  0  0  0  0  0  0  0  0  0  0
   46.9910   33.6340   44.5040 N   0  0  0  0  0  0  0  0  0  0  0  0
   46.1390   33.7750   45.5540 C   0  0  0  0  0  0  0  0  0  0  0  0
   45.0430   34.5600   45.4580 N   0  0  0  0  0  0  0  0  0  0  0  0
   47.6100   34.1530   42.1650 C   0  0  1  0  0  0  0  0  0  0  0  0
   48.5330   35.3460   41.8480 C   0  0  0  0  0  0  0  0  0  0  0  0
   49.0790   34.0820   42.3550 C   0  0  2  0  0  0  0  0  0  0  0  0
   49.7640   33.1110   41.4660 C   0  0  0  0  0  0  0  0  0  0  0  0
   51.0110   32.6290   41.8150 C   0  0  0  0  0  0  0  0  0  0  0  0
   51.5240   31.7360   40.8950 C   0  0  0  0  0  0  0  0  0  0  0  0
   50.9430   31.3210   39.7540 N   0  0  0  0  0  0  0  0  0  0  0  0
   49.7220   31.8360   39.4790 C   0  0  0  0  0  0  0  0  0  0  0  0
   49.1540   32.7160   40.3310 N   0  0  0  0  0  0  0  0  0  0  0  0
   46.4710   33.0260   46.7830 C   0  0  0  0  0  0  0  0  0  0  0  0
   45.9430   31.6900   46.8030 N   0  0  0  0  0  0  0  0  0  0  0  0
   45.9130   30.8680   45.7220 C   0  0  0  0  0  0  0  0  0  0  0  0
   45.3900   29.5970   45.8360 C   0  0  0  0  0  0  0  0  0  0  0  0
   44.8880   29.1300   47.0420 C   0  0  0  0  0  0  0  0  0  0  0  0
   44.3980   27.7700   46.9780 N   0  0  0  0  0  0  0  0  0  0  0  0
   44.9080   29.9400   48.1400 N   0  0  0  0  0  0  0  0  0  0  0  0
   45.4390   31.1670   47.9310 C   0  0  0  0  0  0  0  0  0  0  0  0
   45.4480   31.9030   48.9590 O   0  0  0  0  0  0  0  0  0  0  0  0
   43.8731   35.8531   44.2568 H   0  0  0  0  0  0  0  0  0  0  0  0
   45.4009   35.6325   42.2869 H   0  0  0  0  0  0  0  0  0  0  0  0
   46.8693   33.5420   41.6282 H   0  0  0  0  0  0  0  0  0  0  0  0
   48.7103   35.6457   40.8046 H   0  0  0  0  0  0  0  0  0  0  0  0
   48.5837   36.4009   42.1555 H   0  0  0  0  0  0  0  0  0  0  0  0
   49.7751   33.8850   43.1836 H   0  0  0  0  0  0  0  0  0  0  0  0
   51.5410   32.9262   42.7320 H   0  0  0  0  0  0  0  0  0  0  0  0
   52.5164   31.3179   41.1193 H   0  0  0  0  0  0  0  0  0  0  0  0
   49.1927   31.5378   38.5620 H   0  0  0  0  0  0  0  0  0  0  0  0
   47.5660   32.9684   46.8700 H   0  0  0  0  0  0  0  0  0  0  0  0
   46.0122   33.5667   47.6240 H   0  0  0  0  0  0  0  0  0  0  0  0
   46.3060   31.2162   44.7554 H   0  0  0  0  0  0  0  0  0  0  0  0
   45.3705   28.9407   44.9534 H   0  0  0  0  0  0  0  0  0  0  0  0
   44.0034   27.3247   47.8187 H   0  0  0  0  0  0  0  0  0  0  0  0
   44.4438   27.2472   46.0917 H   0  0  0  0  0  0  0  0  0  0  0  0
  1  6  2  0
  2  3  2  0
  2  1  1  0
  3  4  1  0
  4  5  2  0
  5 16  1  0
  6  5  1  0
  7  9  1  0
  7  3  1  0
  8  7  1  0
  8  9  1  0
 10 11  2  0
 10  9  1  0
 12 11  1  0
 13 12  2  0
 14 13  1  0
 14 15  2  0
 15 10  1  0
 16 17  1  0
 17 23  1  0
 18 19  2  0
 18 17  1  0
 19 20  1  0
 20 22  2  0
 21 20  1  0
 23 22  1  0
 23 24  2  0
  1 25  1  0
  2 26  1  0
  7 27  1  6
  8 28  1  0
  8 29  1  0
  9 30  1  1
 11 31  1  0
 12 32  1  0
 14 33  1  0
 16 34  1  0
 16 35  1  0
 18 36  1  0
 19 37  1  0
 21 38  1  0
 21 39  1  0
M  ISO  8  25  14  26  14  27  13  28  13  29  13  30  13  31  14  32  14
M  ISO  5  33  14  34   8  35   8  36  14  37  14
M  END
>  <minimizedAffinity>  (1) 
-5.98813295

>  <minimizedRMSD>  (1) 
0.956083357

$$$$
