
     RDKit          3D

 38 41  0  0  1  0  0  0  0  0999 V2000
   44.8180   34.9850   44.5900 C   0  0  0  0  0  0  0  0  0  0  0  0
   45.6870   34.8670   43.5060 C   0  0  0  0  0  0  0  0  0  0  0  0
   46.8080   34.0740   43.6580 C   0  0  0  0  0  0  0  0  0  0  0  0
   47.0520   33.4290   44.8280 N   0  0  0  0  0  0  0  0  0  0  0  0
   46.1830   33.5660   45.8630 C   0  0  0  0  0  0  0  0  0  0  0  0
   45.0790   34.3390   45.7380 N   0  0  0  0  0  0  0  0  0  0  0  0
   47.7150   33.9300   42.5010 C   0  0  1  0  0  0  0  0  0  0  0  0
   48.4070   35.2150   42.0010 C   0  0  0  0  0  0  0  0  0  0  0  0
   49.1700   34.1460   42.6810 C   0  0  2  0  0  0  0  0  0  0  0  0
   50.0700   33.2450   41.8840 C   0  0  0  0  0  0  0  0  0  0  0  0
   49.6550   32.3950   40.8790 C   0  0  0  0  0  0  0  0  0  0  0  0
   50.8320   31.7930   40.4640 C   0  0  0  0  0  0  0  0  0  0  0  0
   51.8900   32.2560   41.1800 N   0  0  0  0  0  0  0  0  0  0  0  0
   51.3920   33.1500   42.0500 N   0  0  0  0  0  0  0  0  0  0  0  0
   46.4980   32.8320   47.1050 C   0  0  0  0  0  0  0  0  0  0  0  0
   45.9860   31.4960   47.1260 N   0  0  0  0  0  0  0  0  0  0  0  0
   45.9150   30.6900   46.0240 C   0  0  0  0  0  0  0  0  0  0  0  0
   45.4060   29.4020   46.1260 C   0  0  0  0  0  0  0  0  0  0  0  0
   44.9550   28.8970   47.3440 C   0  0  0  0  0  0  0  0  0  0  0  0
   44.4570   27.5560   47.2830 N   0  0  0  0  0  0  0  0  0  0  0  0
   45.0210   29.6960   48.4520 N   0  0  0  0  0  0  0  0  0  0  0  0
   45.5310   30.9240   48.2460 C   0  0  0  0  0  0  0  0  0  0  0  0
   45.5780   31.6370   49.2910 O   0  0  0  0  0  0  0  0  0  0  0  0
   43.9161   35.6090   44.5046 H   0  0  0  0  0  0  0  0  0  0  0  0
   45.4862   35.3892   42.5589 H   0  0  0  0  0  0  0  0  0  0  0  0
   47.1042   33.1249   42.0666 H   0  0  0  0  0  0  0  0  0  0  0  0
   48.5388   35.3892   40.9229 H   0  0  0  0  0  0  0  0  0  0  0  0
   48.2624   36.2949   42.1526 H   0  0  0  0  0  0  0  0  0  0  0  0
   49.8614   34.1635   43.5364 H   0  0  0  0  0  0  0  0  0  0  0  0
   48.6353   32.2342   40.4989 H   0  0  0  0  0  0  0  0  0  0  0  0
   50.9006   31.0419   39.6633 H   0  0  0  0  0  0  0  0  0  0  0  0
   52.8761   31.9773   41.0764 H   0  0  0  0  0  0  0  0  0  0  0  0
   47.5916   32.7871   47.2147 H   0  0  0  0  0  0  0  0  0  0  0  0
   46.0167   33.3751   47.9317 H   0  0  0  0  0  0  0  0  0  0  0  0
   46.2634   31.0642   45.0501 H   0  0  0  0  0  0  0  0  0  0  0  0
   45.3579   28.7683   45.2282 H   0  0  0  0  0  0  0  0  0  0  0  0
   44.1020   27.0992   48.1352 H   0  0  0  0  0  0  0  0  0  0  0  0
   44.4537   27.0481   46.3869 H   0  0  0  0  0  0  0  0  0  0  0  0
  1  6  2  0
  2  3  2  0
  2  1  1  0
  3  4  1  0
  4  5  2  0
  5 15  1  0
  6  5  1  0
  7  9  1  0
  7  3  1  0
  8  7  1  0
  8  9  1  0
 10 14  2  0
 10  9  1  0
 11 10  1  0
 12 11  2  0
 12 13  1  0
 13 14  1  0
 15 16  1  0
 16 22  1  0
 17 18  2  0
 17 16  1  0
 18 19  1  0
 19 21  2  0
 20 19  1  0
 22 21  1  0
 22 23  2  0
  1 24  1  0
  2 25  1  0
  7 26  1  6
  8 27  1  0
  8 28  1  0
  9 29  1  1
 11 30  1  0
 12 31  1  0
 13 32  1  0
 15 33  1  0
 15 34  1  0
 17 35  1  0
 18 36  1  0
 20 37  1  0
 20 38  1  0
M  ISO  8  24  14  25  14  26  13  27  13  28  13  29  13  30  14  31  14
M  ISO  5  32   9  33   8  34   8  35  14  36  14
M  END
>  <minimizedAffinity>  (1) 
-5.93441343

>  <minimizedRMSD>  (1) 
1.00712323

$$$$
