
     RDKit          3D

 36 39  0  0  1  0  0  0  0  0999 V2000
   44.7390   35.0840   44.7360 C   0  0  0  0  0  0  0  0  0  0  0  0
   45.5070   34.9800   43.5940 C   0  0  0  0  0  0  0  0  0  0  0  0
   46.6210   34.1630   43.6240 C   0  0  0  0  0  0  0  0  0  0  0  0
   46.9420   33.4860   44.7490 N   0  0  0  0  0  0  0  0  0  0  0  0
   46.1690   33.6070   45.8580 C   0  0  0  0  0  0  0  0  0  0  0  0
   45.0740   34.4040   45.8440 N   0  0  0  0  0  0  0  0  0  0  0  0
   47.4500   34.0270   42.4100 C   0  0  1  0  0  0  0  0  0  0  0  0
   48.2580   35.2550   41.9770 C   0  0  0  0  0  0  0  0  0  0  0  0
   48.9300   34.0530   42.5340 C   0  0  2  0  0  0  0  0  0  0  0  0
   49.7720   33.1620   41.7220 C   0  0  0  0  0  0  0  0  0  0  0  0
   51.0870   32.8430   41.8880 N   0  0  0  0  0  0  0  0  0  0  0  0
   51.4490   32.0170   40.9480 O   0  0  0  0  0  0  0  0  0  0  0  0
   50.4560   31.7590   40.1560 C   0  0  0  0  0  0  0  0  0  0  0  0
   49.4200   32.4500   40.6110 N   0  0  0  0  0  0  0  0  0  0  0  0
   46.5730   32.8310   47.0510 C   0  0  0  0  0  0  0  0  0  0  0  0
   46.0300   31.5090   47.0800 N   0  0  0  0  0  0  0  0  0  0  0  0
   45.9530   30.6930   45.9910 C   0  0  0  0  0  0  0  0  0  0  0  0
   45.4120   29.4210   46.1030 C   0  0  0  0  0  0  0  0  0  0  0  0
   44.9360   28.9430   47.3230 C   0  0  0  0  0  0  0  0  0  0  0  0
   44.4180   27.6030   47.2660 N   0  0  0  0  0  0  0  0  0  0  0  0
   45.0110   29.7660   48.4290 N   0  0  0  0  0  0  0  0  0  0  0  0
   45.5490   30.9730   48.2130 C   0  0  0  0  0  0  0  0  0  0  0  0
   45.6010   31.6920   49.2430 O   0  0  0  0  0  0  0  0  0  0  0  0
   43.8471   35.7279   44.7383 H   0  0  0  0  0  0  0  0  0  0  0  0
   45.2389   35.5339   42.6823 H   0  0  0  0  0  0  0  0  0  0  0  0
   46.7272   33.3426   41.9418 H   0  0  0  0  0  0  0  0  0  0  0  0
   48.3606   35.5011   40.9098 H   0  0  0  0  0  0  0  0  0  0  0  0
   48.2438   36.3280   42.2189 H   0  0  0  0  0  0  0  0  0  0  0  0
   49.6437   33.9017   43.3573 H   0  0  0  0  0  0  0  0  0  0  0  0
   50.4700   31.0964   39.2781 H   0  0  0  0  0  0  0  0  0  0  0  0
   47.6705   32.7573   47.0636 H   0  0  0  0  0  0  0  0  0  0  0  0
   46.1813   33.3619   47.9312 H   0  0  0  0  0  0  0  0  0  0  0  0
   46.3224   31.0457   45.0168 H   0  0  0  0  0  0  0  0  0  0  0  0
   45.3575   28.7773   45.2127 H   0  0  0  0  0  0  0  0  0  0  0  0
   44.0424   27.1594   48.1164 H   0  0  0  0  0  0  0  0  0  0  0  0
   44.4225   27.0866   46.3748 H   0  0  0  0  0  0  0  0  0  0  0  0
  1  6  2  0
  2  3  2  0
  2  1  1  0
  3  4  1  0
  4  5  2  0
  5 15  1  0
  6  5  1  0
  7  9  1  0
  7  3  1  0
  8  7  1  0
  8  9  1  0
 10 11  2  0
 10  9  1  0
 12 11  1  0
 13 14  2  0
 13 12  1  0
 14 10  1  0
 15 16  1  0
 16 22  1  0
 17 18  2  0
 17 16  1  0
 18 19  1  0
 19 21  2  0
 20 19  1  0
 22 21  1  0
 22 23  2  0
  1 24  1  0
  2 25  1  0
  7 26  1  6
  8 27  1  0
  8 28  1  0
  9 29  1  1
 13 30  1  0
 15 31  1  0
 15 32  1  0
 17 33  1  0
 18 34  1  0
 20 35  1  0
 20 36  1  0
M  ISO  8  24  14  25  14  26  13  27  13  28  13  29  13  30  14  31   8
M  ISO  3  32   8  33  14  34  14
M  END
>  <minimizedAffinity>  (1) 
-5.77584839

>  <minimizedRMSD>  (1) 
1.08516133

$$$$
