
     RDKit          3D

 38 41  0  0  1  0  0  0  0  0999 V2000
   44.7050   35.2890   44.3720 C   0  0  0  0  0  0  0  0  0  0  0  0
   45.5040   35.2080   43.2520 C   0  0  0  0  0  0  0  0  0  0  0  0
   46.6270   34.4020   43.2980 C   0  0  0  0  0  0  0  0  0  0  0  0
   46.9410   33.7030   44.4190 N   0  0  0  0  0  0  0  0  0  0  0  0
   46.1220   33.8070   45.5140 C   0  0  0  0  0  0  0  0  0  0  0  0
   45.0200   34.5910   45.4860 N   0  0  0  0  0  0  0  0  0  0  0  0
   47.4760   34.2900   42.0920 C   0  0  1  0  0  0  0  0  0  0  0  0
   48.4280   35.4710   41.8180 C   0  0  0  0  0  0  0  0  0  0  0  0
   48.9440   34.1330   42.2310 C   0  0  2  0  0  0  0  0  0  0  0  0
   49.7810   33.3060   41.3250 C   0  0  0  0  0  0  0  0  0  0  0  0
   49.8520   31.8310   41.4340 C   0  0  0  0  0  0  0  0  0  0  0  0
   51.0010   32.6640   41.9370 C   0  0  0  0  0  0  0  0  0  0  0  0
   46.4960   33.0180   46.7050 C   0  0  0  0  0  0  0  0  0  0  0  0
   45.9540   31.6920   46.7110 N   0  0  0  0  0  0  0  0  0  0  0  0
   45.9310   30.8790   45.6240 C   0  0  0  0  0  0  0  0  0  0  0  0
   45.3830   29.6030   45.7030 C   0  0  0  0  0  0  0  0  0  0  0  0
   44.8430   29.1260   46.9040 C   0  0  0  0  0  0  0  0  0  0  0  0
   44.3110   27.8070   46.8220 N   0  0  0  0  0  0  0  0  0  0  0  0
   44.8610   29.9410   48.0080 N   0  0  0  0  0  0  0  0  0  0  0  0
   45.4170   31.1570   47.8180 C   0  0  0  0  0  0  0  0  0  0  0  0
   45.4180   31.8810   48.8490 O   0  0  0  0  0  0  0  0  0  0  0  0
   43.8071   35.9243   44.3594 H   0  0  0  0  0  0  0  0  0  0  0  0
   45.2540   35.7721   42.3413 H   0  0  0  0  0  0  0  0  0  0  0  0
   46.6997   33.7372   41.5427 H   0  0  0  0  0  0  0  0  0  0  0  0
   48.5824   35.8313   40.7902 H   0  0  0  0  0  0  0  0  0  0  0  0
   48.5295   36.5018   42.1884 H   0  0  0  0  0  0  0  0  0  0  0  0
   49.5849   33.7632   43.0449 H   0  0  0  0  0  0  0  0  0  0  0  0
   49.5542   33.9752   40.4820 H   0  0  0  0  0  0  0  0  0  0  0  0
   49.2041   31.3023   42.1487 H   0  0  0  0  0  0  0  0  0  0  0  0
   49.7535   30.9969   40.7237 H   0  0  0  0  0  0  0  0  0  0  0  0
   51.9589   32.6691   41.3962 H   0  0  0  0  0  0  0  0  0  0  0  0
   51.5432   32.7591   42.8893 H   0  0  0  0  0  0  0  0  0  0  0  0
   47.5929   32.9449   46.7427 H   0  0  0  0  0  0  0  0  0  0  0  0
   46.0797   33.5393   47.5796 H   0  0  0  0  0  0  0  0  0  0  0  0
   46.3502   31.2331   44.6707 H   0  0  0  0  0  0  0  0  0  0  0  0
   45.3736   28.9601   44.8105 H   0  0  0  0  0  0  0  0  0  0  0  0
   43.8913   27.3683   47.6541 H   0  0  0  0  0  0  0  0  0  0  0  0
   44.3460   27.2921   45.9307 H   0  0  0  0  0  0  0  0  0  0  0  0
  1  6  2  0
  2  3  2  0
  2  1  1  0
  3  4  1  0
  4  5  2  0
  5 13  1  0
  6  5  1  0
  7  9  1  0
  7  3  1  0
  8  7  1  0
  8  9  1  0
 10 11  1  0
 10 12  1  0
 10  9  1  0
 11 12  1  0
 13 14  1  0
 14 20  1  0
 15 16  2  0
 15 14  1  0
 16 17  1  0
 17 19  2  0
 18 17  1  0
 20 19  1  0
 20 21  2  0
  1 22  1  0
  2 23  1  0
  7 24  1  6
  8 25  1  0
  8 26  1  0
  9 27  1  1
 10 28  1  0
 11 29  1  0
 11 30  1  0
 12 31  1  0
 12 32  1  0
 13 33  1  0
 13 34  1  0
 15 35  1  0
 16 36  1  0
 18 37  1  0
 18 38  1  0
M  ISO  8  22  14  23  14  24  13  25  13  26  13  27  13  28  13  29  13
M  ISO  7  30  13  31  13  32  13  33   8  34   8  35  14  36  14
M  END
>  <minimizedAffinity>  (1) 
-5.41051674

>  <minimizedRMSD>  (1) 
0.75888449

$$$$
