
     RDKit          3D

 33 35  0  0  1  0  0  0  0  0999 V2000
   44.9780   34.8330   43.5240 C   0  0  0  0  0  0  0  0  0  0  0  0
   46.0420   34.8100   42.6300 C   0  0  0  0  0  0  0  0  0  0  0  0
   47.2250   34.2250   43.0390 C   0  0  0  0  0  0  0  0  0  0  0  0
   47.3390   33.6890   44.2820 N   0  0  0  0  0  0  0  0  0  0  0  0
   46.2790   33.7270   45.1310 C   0  0  0  0  0  0  0  0  0  0  0  0
   45.1080   34.2990   44.7460 N   0  0  0  0  0  0  0  0  0  0  0  0
   48.3550   34.1790   42.0950 C   0  0  1  0  0  0  0  0  0  0  0  0
   49.1250   35.4880   41.8680 C   0  0  0  0  0  0  0  0  0  0  0  0
   49.7460   34.3390   42.5840 C   0  0  2  0  0  0  0  0  0  0  0  0
   50.8490   33.6270   41.9950 N   0  0  0  0  0  0  0  0  0  0  0  0
   46.4610   33.1150   46.4630 C   0  0  0  0  0  0  0  0  0  0  0  0
   45.9530   31.7850   46.5570 N   0  0  0  0  0  0  0  0  0  0  0  0
   45.9400   30.8950   45.5200 C   0  0  0  0  0  0  0  0  0  0  0  0
   45.4270   29.6180   45.6860 C   0  0  0  0  0  0  0  0  0  0  0  0
   44.9070   29.2020   46.9160 C   0  0  0  0  0  0  0  0  0  0  0  0
   44.4110   27.8660   46.9220 N   0  0  0  0  0  0  0  0  0  0  0  0
   44.9130   30.0830   47.9660 N   0  0  0  0  0  0  0  0  0  0  0  0
   45.4350   31.2970   47.6940 C   0  0  0  0  0  0  0  0  0  0  0  0
   45.4270   32.0890   48.6820 O   0  0  0  0  0  0  0  0  0  0  0  0
   44.0237   35.2922   43.2266 H   0  0  0  0  0  0  0  0  0  0  0  0
   45.9449   35.2455   41.6246 H   0  0  0  0  0  0  0  0  0  0  0  0
   47.8461   33.4285   41.4723 H   0  0  0  0  0  0  0  0  0  0  0  0
   49.4667   35.7614   40.8588 H   0  0  0  0  0  0  0  0  0  0  0  0
   48.9503   36.5508   42.0913 H   0  0  0  0  0  0  0  0  0  0  0  0
   50.2202   34.2030   43.5672 H   0  0  0  0  0  0  0  0  0  0  0  0
   51.4461   33.2415   42.7405 H   0  0  0  0  0  0  0  0  0  0  0  0
   50.4891   32.8583   41.4115 H   0  0  0  0  0  0  0  0  0  0  0  0
   47.5369   33.0928   46.6910 H   0  0  0  0  0  0  0  0  0  0  0  0
   45.8931   33.7275   47.1787 H   0  0  0  0  0  0  0  0  0  0  0  0
   46.3417   31.1958   44.5412 H   0  0  0  0  0  0  0  0  0  0  0  0
   45.4289   28.9199   44.8359 H   0  0  0  0  0  0  0  0  0  0  0  0
   44.0082   27.4701   47.7833 H   0  0  0  0  0  0  0  0  0  0  0  0
   44.4554   27.2963   46.0650 H   0  0  0  0  0  0  0  0  0  0  0  0
  1  6  2  0
  2  3  2  0
  2  1  1  0
  3  4  1  0
  4  5  2  0
  5 11  1  0
  6  5  1  0
  7  9  1  0
  7  3  1  0
  8  7  1  0
  8  9  1  0
 10  9  1  0
 11 12  1  0
 12 18  1  0
 13 14  2  0
 13 12  1  0
 14 15  1  0
 15 16  1  0
 15 17  2  0
 18 17  1  0
 18 19  2  0
  1 20  1  0
  2 21  1  0
  7 22  1  6
  8 23  1  0
  8 24  1  0
  9 25  1  1
 10 26  1  0
 10 27  1  0
 11 28  1  0
 11 29  1  0
 13 30  1  0
 14 31  1  0
 16 32  1  0
 16 33  1  0
M  ISO  8  20  14  21  14  22  13  23  13  24  13  25  13  26   5  27   5
M  ISO  4  28   8  29   8  30  14  31  14
M  END
>  <minimizedAffinity>  (1) 
-5.30064631

>  <minimizedRMSD>  (1) 
0.308154374

$$$$
