
     RDKit          3D

 47 51  0  0  1  0  0  0  0  0999 V2000
   46.3750   33.1930   46.7970 C   0  0  0  0  0  0  0  0  0  0  0  0
   45.9550   31.8430   47.0560 N   0  0  0  0  0  0  0  0  0  0  0  0
   45.7310   30.9060   46.0770 C   0  0  0  0  0  0  0  0  0  0  0  0
   45.3310   29.6250   46.4250 C   0  0  0  0  0  0  0  0  0  0  0  0
   45.1480   29.2460   47.7460 C   0  0  0  0  0  0  0  0  0  0  0  0
   44.7450   27.8770   47.9080 N   0  0  0  0  0  0  0  0  0  0  0  0
   45.3650   30.1650   48.7330 N   0  0  0  0  0  0  0  0  0  0  0  0
   45.7500   31.3830   48.2940 C   0  0  0  0  0  0  0  0  0  0  0  0
   45.9450   32.2180   49.2320 O   0  0  0  0  0  0  0  0  0  0  0  0
   45.1150   28.6880   45.2970 C   0  0  0  0  0  0  0  0  0  0  0  0
   46.0300   28.0200   44.5070 C   0  0  0  0  0  0  0  0  0  0  0  0
   45.3710   27.2750   43.6030 N   0  0  0  0  0  0  0  0  0  0  0  0
   44.0460   27.4330   43.7740 C   0  0  0  0  0  0  0  0  0  0  0  0
   42.9400   26.9030   43.1220 C   0  0  0  0  0  0  0  0  0  0  0  0
   41.6590   27.2350   43.5040 C   0  0  0  0  0  0  0  0  0  0  0  0
   41.4530   28.1040   44.5450 C   0  0  0  0  0  0  0  0  0  0  0  0
   42.5570   28.6240   45.1840 C   0  0  0  0  0  0  0  0  0  0  0  0
   43.8550   28.3130   44.8290 C   0  0  0  0  0  0  0  0  0  0  0  0
   44.9170   34.4320   43.6090 C   0  0  0  0  0  0  0  0  0  0  0  0
   45.9980   34.2800   42.7430 C   0  0  0  0  0  0  0  0  0  0  0  0
   47.1770   33.7730   43.2560 C   0  0  0  0  0  0  0  0  0  0  0  0
   47.2810   33.4340   44.5640 N   0  0  0  0  0  0  0  0  0  0  0  0
   46.2090   33.5920   45.3840 C   0  0  0  0  0  0  0  0  0  0  0  0
   45.0450   34.0870   44.9040 N   0  0  0  0  0  0  0  0  0  0  0  0
   48.3260   33.5730   42.3550 C   0  0  1  0  0  0  0  0  0  0  0  0
   48.8290   34.7810   41.5770 C   0  0  0  0  0  0  0  0  0  0  0  0
   49.6420   34.0970   42.6680 C   0  0  2  0  0  0  0  0  0  0  0  0
   50.8900   33.3610   42.2460 C   0  0  0  0  0  0  0  0  0  0  0  0
   50.9470   32.1320   42.5130 O   0  0  0  0  0  0  0  0  0  0  0  0
   45.7784   33.8715   47.4245 H   0  0  0  0  0  0  0  0  0  0  0  0
   47.4484   33.2524   47.0301 H   0  0  0  0  0  0  0  0  0  0  0  0
   45.8688   31.1716   45.0185 H   0  0  0  0  0  0  0  0  0  0  0  0
   44.5826   27.4961   48.8511 H   0  0  0  0  0  0  0  0  0  0  0  0
   44.6184   27.2761   47.0811 H   0  0  0  0  0  0  0  0  0  0  0  0
   47.1238   28.0870   44.6024 H   0  0  0  0  0  0  0  0  0  0  0  0
   45.8119   26.6763   42.8902 H   0  0  0  0  0  0  0  0  0  0  0  0
   43.0899   26.2052   42.2850 H   0  0  0  0  0  0  0  0  0  0  0  0
   40.7987   26.8020   42.9727 H   0  0  0  0  0  0  0  0  0  0  0  0
   40.4354   28.3778   44.8605 H   0  0  0  0  0  0  0  0  0  0  0  0
   42.3968   29.3220   46.0189 H   0  0  0  0  0  0  0  0  0  0  0  0
   43.9628   34.8323   43.2360 H   0  0  0  0  0  0  0  0  0  0  0  0
   45.9154   34.5557   41.6813 H   0  0  0  0  0  0  0  0  0  0  0  0
   47.9675   32.5629   42.1076 H   0  0  0  0  0  0  0  0  0  0  0  0
   49.1189   34.6835   40.5204 H   0  0  0  0  0  0  0  0  0  0  0  0
   48.4712   35.8009   41.3725 H   0  0  0  0  0  0  0  0  0  0  0  0
   50.1190   34.4075   43.6093 H   0  0  0  0  0  0  0  0  0  0  0  0
   51.7131   33.8753   41.7283 H   0  0  0  0  0  0  0  0  0  0  0  0
  1  2  1  0
  2  8  1  0
  3  4  2  0
  3  2  1  0
  4  5  1  0
  5  6  1  0
  5  7  2  0
  8  7  1  0
  8  9  2  0
 10  4  1  0
 11 10  2  0
 12 13  1  0
 12 11  1  0
 13 18  2  0
 14 15  2  0
 14 13  1  0
 15 16  1  0
 16 17  2  0
 18 17  1  0
 18 10  1  0
 19 24  2  0
 20 21  2  0
 20 19  1  0
 21 22  1  0
 22 23  2  0
 23  1  1  0
 24 23  1  0
 25 27  1  0
 25 21  1  0
 26 25  1  0
 26 27  1  0
 28 29  2  0
 28 27  1  0
  1 30  1  0
  1 31  1  0
  3 32  1  0
  6 33  1  0
  6 34  1  0
 11 35  1  0
 12 36  1  0
 14 37  1  0
 15 38  1  0
 16 39  1  0
 17 40  1  0
 19 41  1  0
 20 42  1  0
 25 43  1  6
 26 44  1  0
 26 45  1  0
 27 46  1  1
 28 47  1  0
M  ISO  8  30   8  31   8  32  14  35  14  36   9  37  14  38  14  39  14
M  ISO  8  40  14  41  14  42  14  43  13  44  13  45  13  46  13  47   6
M  END
>  <minimizedAffinity>  (1) 
-5.47555494

>  <minimizedRMSD>  (1) 
0.882940829

$$$$
