
     RDKit          3D

 43 46  0  0  1  0  0  0  0  0999 V2000
   46.7560   32.7950   46.3190 C   0  0  0  0  0  0  0  0  0  0  0  0
   46.0450   31.5480   46.3410 N   0  0  0  0  0  0  0  0  0  0  0  0
   45.8350   30.7630   45.2350 C   0  0  0  0  0  0  0  0  0  0  0  0
   45.1420   29.5690   45.3480 C   0  0  0  0  0  0  0  0  0  0  0  0
   44.6430   29.1260   46.5660 C   0  0  0  0  0  0  0  0  0  0  0  0
   43.9610   27.8670   46.4980 N   0  0  0  0  0  0  0  0  0  0  0  0
   44.8410   29.8940   47.6800 N   0  0  0  0  0  0  0  0  0  0  0  0
   45.5280   31.0400   47.4650 C   0  0  0  0  0  0  0  0  0  0  0  0
   45.6980   31.7300   48.5120 O   0  0  0  0  0  0  0  0  0  0  0  0
   44.9740   28.8040   44.0930 C   0  0  0  0  0  0  0  0  0  0  0  0
   45.8360   27.7990   43.6950 C   0  0  0  0  0  0  0  0  0  0  0  0
   45.6090   27.1300   42.5060 C   0  0  0  0  0  0  0  0  0  0  0  0
   44.5030   27.5320   41.7860 C   0  0  0  0  0  0  0  0  0  0  0  0
   43.6140   28.5180   42.1250 C   0  0  0  0  0  0  0  0  0  0  0  0
   43.8670   29.1680   43.3190 C   0  0  0  0  0  0  0  0  0  0  0  0
   44.6250   35.4020   44.7240 C   0  0  0  0  0  0  0  0  0  0  0  0
   45.2440   35.5220   43.4860 C   0  0  0  0  0  0  0  0  0  0  0  0
   46.3530   34.7340   43.2280 C   0  0  0  0  0  0  0  0  0  0  0  0
   46.8300   33.8630   44.1540 N   0  0  0  0  0  0  0  0  0  0  0  0
   46.1990   33.7700   45.3550 C   0  0  0  0  0  0  0  0  0  0  0  0
   45.1150   34.5290   45.6320 N   0  0  0  0  0  0  0  0  0  0  0  0
   47.0050   34.8250   41.9060 C   0  0  1  0  0  0  0  0  0  0  0  0
   48.3730   35.4920   41.8440 C   0  0  0  0  0  0  0  0  0  0  0  0
   48.1580   34.0100   41.5690 C   0  0  2  0  0  0  0  0  0  0  0  0
   48.3720   33.5290   40.1530 C   0  0  0  0  0  0  0  0  0  0  0  0
   48.1110   34.3380   39.2260 O   0  0  0  0  0  0  0  0  0  0  0  0
   46.7161   33.2374   47.3253 H   0  0  0  0  0  0  0  0  0  0  0  0
   47.7866   32.5766   46.0025 H   0  0  0  0  0  0  0  0  0  0  0  0
   46.2185   31.0833   44.2550 H   0  0  0  0  0  0  0  0  0  0  0  0
   43.5552   27.4545   47.3501 H   0  0  0  0  0  0  0  0  0  0  0  0
   43.8768   27.3749   45.5971 H   0  0  0  0  0  0  0  0  0  0  0  0
   46.6996   27.5323   44.3220 H   0  0  0  0  0  0  0  0  0  0  0  0
   46.2713   26.3248   42.1551 H   0  0  0  0  0  0  0  0  0  0  0  0
   44.3148   27.0049   40.8390 H   0  0  0  0  0  0  0  0  0  0  0  0
   42.7547   28.7758   41.4885 H   0  0  0  0  0  0  0  0  0  0  0  0
   43.1977   29.9714   43.6603 H   0  0  0  0  0  0  0  0  0  0  0  0
   43.7423   36.0132   44.9635 H   0  0  0  0  0  0  0  0  0  0  0  0
   44.8630   36.2248   42.7304 H   0  0  0  0  0  0  0  0  0  0  0  0
   46.0287   34.9695   41.4203 H   0  0  0  0  0  0  0  0  0  0  0  0
   48.6212   36.1818   41.0239 H   0  0  0  0  0  0  0  0  0  0  0  0
   48.9965   36.0928   42.5225 H   0  0  0  0  0  0  0  0  0  0  0  0
   48.5542   33.0677   41.9753 H   0  0  0  0  0  0  0  0  0  0  0  0
   48.7404   32.5143   39.9417 H   0  0  0  0  0  0  0  0  0  0  0  0
  1  2  1  0
  2  8  1  0
  3  4  2  0
  3  2  1  0
  4  5  1  0
  5  7  2  0
  6  5  1  0
  8  7  1  0
  8  9  2  0
 10  4  1  0
 11 10  2  0
 12 11  1  0
 13 14  1  0
 13 12  2  0
 14 15  2  0
 15 10  1  0
 16 21  2  0
 17 16  1  0
 18 17  2  0
 18 19  1  0
 19 20  2  0
 20 21  1  0
 20  1  1  0
 22 18  1  0
 23 22  1  0
 24 23  1  0
 24 22  1  0
 25 24  1  0
 26 25  2  0
  1 27  1  0
  1 28  1  0
  3 29  1  0
  6 30  1  0
  6 31  1  0
 11 32  1  0
 12 33  1  0
 13 34  1  0
 14 35  1  0
 15 36  1  0
 16 37  1  0
 17 38  1  0
 22 39  1  6
 23 40  1  0
 23 41  1  0
 24 42  1  1
 25 43  1  0
M  ISO  8  27   8  28   8  29  14  32  14  33  14  34  14  35  14  36  14
M  ISO  7  37  14  38  14  39  13  40  13  41  13  42  13  43   6
M  END
>  <minimizedAffinity>  (1) 
-5.24334288

>  <minimizedRMSD>  (1) 
1.29367888

$$$$
