
     RDKit          3D

 48 51  0  0  1  0  0  0  0  0999 V2000
   46.5110   32.6500   47.2340 C   0  0  0  0  0  0  0  0  0  0  0  0
   45.9690   31.3220   47.1910 N   0  0  0  0  0  0  0  0  0  0  0  0
   45.8200   30.5870   46.0380 C   0  0  0  0  0  0  0  0  0  0  0  0
   45.2890   29.3100   46.0760 C   0  0  0  0  0  0  0  0  0  0  0  0
   44.8880   28.7300   47.2750 C   0  0  0  0  0  0  0  0  0  0  0  0
   44.3560   27.4070   47.1630 N   0  0  0  0  0  0  0  0  0  0  0  0
   45.0260   29.4420   48.4360 N   0  0  0  0  0  0  0  0  0  0  0  0
   45.5580   30.6850   48.2960 C   0  0  0  0  0  0  0  0  0  0  0  0
   45.6760   31.3230   49.3770 O   0  0  0  0  0  0  0  0  0  0  0  0
   45.2010   28.6830   44.7950 N   0  0  0  0  0  0  0  0  0  0  0  0
   46.3490   27.8900   44.3780 C   0  0  0  0  0  0  0  0  0  0  0  0
   46.4210   27.7430   42.8930 C   0  0  0  0  0  0  0  0  0  0  0  0
   45.0720   27.6400   42.2500 C   0  0  0  0  0  0  0  0  0  0  0  0
   44.1860   28.8190   42.5940 C   0  0  0  0  0  0  0  0  0  0  0  0
   43.9690   28.9210   44.0690 C   0  0  0  0  0  0  0  0  0  0  0  0
   44.7970   34.9890   44.8960 C   0  0  0  0  0  0  0  0  0  0  0  0
   45.6120   34.8860   43.7750 C   0  0  0  0  0  0  0  0  0  0  0  0
   46.7060   34.0490   43.8330 C   0  0  0  0  0  0  0  0  0  0  0  0
   46.9830   33.3370   44.9620 N   0  0  0  0  0  0  0  0  0  0  0  0
   46.1620   33.4610   46.0400 C   0  0  0  0  0  0  0  0  0  0  0  0
   45.0800   34.2810   46.0040 N   0  0  0  0  0  0  0  0  0  0  0  0
   47.5770   33.8970   42.6530 C   0  0  1  0  0  0  0  0  0  0  0  0
   47.9930   35.1630   41.9210 C   0  0  0  0  0  0  0  0  0  0  0  0
   48.9770   34.2820   42.6760 C   0  0  2  0  0  0  0  0  0  0  0  0
   49.9940   33.5180   41.8630 C   0  0  0  0  0  0  0  0  0  0  0  0
   51.1590   33.4300   42.3240 O   0  0  0  0  0  0  0  0  0  0  0  0
   46.1214   33.1582   48.1284 H   0  0  0  0  0  0  0  0  0  0  0  0
   47.6067   32.5562   47.2577 H   0  0  0  0  0  0  0  0  0  0  0  0
   46.1267   31.0196   45.0743 H   0  0  0  0  0  0  0  0  0  0  0  0
   44.0363   26.9075   48.0051 H   0  0  0  0  0  0  0  0  0  0  0  0
   44.2926   26.9538   46.2402 H   0  0  0  0  0  0  0  0  0  0  0  0
   47.2672   28.3825   44.7306 H   0  0  0  0  0  0  0  0  0  0  0  0
   46.2427   26.8853   44.8131 H   0  0  0  0  0  0  0  0  0  0  0  0
   46.9411   28.6193   42.4786 H   0  0  0  0  0  0  0  0  0  0  0  0
   46.9597   26.8079   42.6802 H   0  0  0  0  0  0  0  0  0  0  0  0
   44.5839   26.7167   42.5954 H   0  0  0  0  0  0  0  0  0  0  0  0
   45.2161   27.6311   41.1595 H   0  0  0  0  0  0  0  0  0  0  0  0
   44.6642   29.7431   42.2371 H   0  0  0  0  0  0  0  0  0  0  0  0
   43.2099   28.6741   42.1080 H   0  0  0  0  0  0  0  0  0  0  0  0
   43.5994   29.9289   44.3090 H   0  0  0  0  0  0  0  0  0  0  0  0
   43.2343   28.1588   44.3678 H   0  0  0  0  0  0  0  0  0  0  0  0
   43.9187   35.6509   44.8771 H   0  0  0  0  0  0  0  0  0  0  0  0
   45.3894   35.4589   42.8627 H   0  0  0  0  0  0  0  0  0  0  0  0
   47.0703   32.9565   42.3909 H   0  0  0  0  0  0  0  0  0  0  0  0
   48.0020   35.1945   40.8215 H   0  0  0  0  0  0  0  0  0  0  0  0
   47.7006   36.2233   41.9377 H   0  0  0  0  0  0  0  0  0  0  0  0
   49.7025   34.4307   43.4893 H   0  0  0  0  0  0  0  0  0  0  0  0
   49.7246   33.0553   40.9021 H   0  0  0  0  0  0  0  0  0  0  0  0
  2  1  1  0
  2  8  1  0
  3  4  2  0
  3  2  1  0
  4  5  1  0
  5  7  2  0
  6  5  1  0
  8  7  1  0
  8  9  2  0
 10  4  1  0
 11 10  1  0
 12 11  1  0
 13 14  1  0
 13 12  1  0
 14 15  1  0
 15 10  1  0
 16 21  2  0
 17 18  2  0
 17 16  1  0
 18 19  1  0
 19 20  2  0
 20  1  1  0
 21 20  1  0
 22 24  1  0
 22 18  1  0
 23 22  1  0
 23 24  1  0
 25 26  2  0
 25 24  1  0
  1 27  1  0
  1 28  1  0
  3 29  1  0
  6 30  1  0
  6 31  1  0
 11 32  1  0
 11 33  1  0
 12 34  1  0
 12 35  1  0
 13 36  1  0
 13 37  1  0
 14 38  1  0
 14 39  1  0
 15 40  1  0
 15 41  1  0
 16 42  1  0
 17 43  1  0
 22 44  1  6
 23 45  1  0
 23 46  1  0
 24 47  1  1
 25 48  1  0
M  ISO  8  27   8  28   8  29  14  32  13  33  13  34  13  35  13  36  13
M  ISO  8  37  13  38  13  39  13  40  13  41  13  42  14  43  14  44  13
M  ISO  4  45  13  46  13  47  13  48   6
M  END
>  <minimizedAffinity>  (1) 
-5.20848846

>  <minimizedRMSD>  (1) 
1.07648957

$$$$
