
     RDKit          3D

 36 38  0  0  1  0  0  0  0  0999 V2000
   44.9900   34.9280   44.2560 C   0  0  0  0  0  0  0  0  0  0  0  0
   45.9810   34.8050   43.2900 C   0  0  0  0  0  0  0  0  0  0  0  0
   47.0920   34.0440   43.5800 C   0  0  0  0  0  0  0  0  0  0  0  0
   47.2200   33.4240   44.7890 N   0  0  0  0  0  0  0  0  0  0  0  0
   46.2310   33.5640   45.7140 C   0  0  0  0  0  0  0  0  0  0  0  0
   45.1340   34.3070   45.4460 N   0  0  0  0  0  0  0  0  0  0  0  0
   48.1520   33.8680   42.5700 C   0  0  1  0  0  0  0  0  0  0  0  0
   48.6020   35.1050   41.8080 C   0  0  0  0  0  0  0  0  0  0  0  0
   49.5040   34.3580   42.7800 C   0  0  2  0  0  0  0  0  0  0  0  0
   50.6790   33.6080   42.1950 C   0  0  0  0  0  0  0  0  0  0  0  0
   50.7660   32.3780   42.4380 O   0  0  0  0  0  0  0  0  0  0  0  0
   46.4170   32.8590   47.0020 C   0  0  0  0  0  0  0  0  0  0  0  0
   45.9070   31.5160   46.9920 N   0  0  0  0  0  0  0  0  0  0  0  0
   45.8090   30.7370   45.8610 C   0  0  0  0  0  0  0  0  0  0  0  0
   45.3060   29.4490   45.9450 C   0  0  0  0  0  0  0  0  0  0  0  0
   44.8900   28.9050   47.1470 C   0  0  0  0  0  0  0  0  0  0  0  0
   44.4000   27.5600   47.0540 N   0  0  0  0  0  0  0  0  0  0  0  0
   44.9790   29.6630   48.2880 N   0  0  0  0  0  0  0  0  0  0  0  0
   45.4830   30.9100   48.1070 C   0  0  0  0  0  0  0  0  0  0  0  0
   45.5560   31.5900   49.1690 O   0  0  0  0  0  0  0  0  0  0  0  0
   45.2400   28.6850   44.6570 C   0  0  0  0  0  0  0  0  0  0  0  0
   44.0916   35.5290   44.0520 H   0  0  0  0  0  0  0  0  0  0  0  0
   45.8806   35.3043   42.3150 H   0  0  0  0  0  0  0  0  0  0  0  0
   47.7551   32.8748   42.3131 H   0  0  0  0  0  0  0  0  0  0  0  0
   48.7875   35.0564   40.7248 H   0  0  0  0  0  0  0  0  0  0  0  0
   48.2452   36.1387   41.6892 H   0  0  0  0  0  0  0  0  0  0  0  0
   50.0779   34.6216   43.6806 H   0  0  0  0  0  0  0  0  0  0  0  0
   51.4316   34.1209   41.5782 H   0  0  0  0  0  0  0  0  0  0  0  0
   47.4929   32.8225   47.2282 H   0  0  0  0  0  0  0  0  0  0  0  0
   45.8527   33.4168   47.7639 H   0  0  0  0  0  0  0  0  0  0  0  0
   46.1308   31.1382   44.8886 H   0  0  0  0  0  0  0  0  0  0  0  0
   44.0683   27.0732   47.8989 H   0  0  0  0  0  0  0  0  0  0  0  0
   44.3799   27.0811   46.1423 H   0  0  0  0  0  0  0  0  0  0  0  0
   45.1472   27.6103   44.8725 H   0  0  0  0  0  0  0  0  0  0  0  0
   44.3674   29.0193   44.0767 H   0  0  0  0  0  0  0  0  0  0  0  0
   46.1570   28.8647   44.0767 H   0  0  0  0  0  0  0  0  0  0  0  0
  1  6  2  0
  2  3  2  0
  2  1  1  0
  3  4  1  0
  4  5  2  0
  5 12  1  0
  6  5  1  0
  7  9  1  0
  7  3  1  0
  8  7  1  0
  8  9  1  0
 10 11  2  0
 10  9  1  0
 13 12  1  0
 13 19  1  0
 14 15  2  0
 14 13  1  0
 15 16  1  0
 16 18  2  0
 17 16  1  0
 19 18  1  0
 19 20  2  0
 21 15  1  0
  1 22  1  0
  2 23  1  0
  7 24  1  6
  8 25  1  0
  8 26  1  0
  9 27  1  1
 10 28  1  0
 12 29  1  0
 12 30  1  0
 14 31  1  0
 17 32  1  0
 17 33  1  0
 21 34  1  0
 21 35  1  0
 21 36  1  0
M  ISO  8  22  14  23  14  24  13  25  13  26  13  27  13  28   6  29   8
M  ISO  5  30   8  31  14  34   8  35   8  36   8
M  END
>  <minimizedAffinity>  (1) 
-5.20257235

>  <minimizedRMSD>  (1) 
0.523014724

$$$$
