
     RDKit          3D

 40 43  0  0  1  0  0  0  0  0999 V2000
   46.4810   32.6600   47.2400 C   0  0  0  0  0  0  0  0  0  0  0  0
   45.9430   31.3350   47.1990 N   0  0  0  0  0  0  0  0  0  0  0  0
   45.8220   30.5990   46.0600 C   0  0  0  0  0  0  0  0  0  0  0  0
   45.2900   29.3110   46.1070 C   0  0  0  0  0  0  0  0  0  0  0  0
   44.8700   28.7350   47.2880 C   0  0  0  0  0  0  0  0  0  0  0  0
   44.3820   27.3980   47.1700 N   0  0  0  0  0  0  0  0  0  0  0  0
   44.9820   29.4590   48.4380 N   0  0  0  0  0  0  0  0  0  0  0  0
   45.5110   30.7020   48.2950 C   0  0  0  0  0  0  0  0  0  0  0  0
   45.6030   31.3490   49.3760 O   0  0  0  0  0  0  0  0  0  0  0  0
   45.1980   28.6040   44.8570 C   0  0  0  0  0  0  0  0  0  0  0  0
   46.1300   27.7880   44.2340 C   0  0  0  0  0  0  0  0  0  0  0  0
   45.8440   27.2120   43.0490 C   0  0  0  0  0  0  0  0  0  0  0  0
   44.4910   27.5280   42.5050 C   0  0  0  0  0  0  0  0  0  0  0  0
   43.7910   28.6460   43.8110 S   0  0  0  0  0  0  0  0  0  0  0  0
   44.8000   35.0000   44.8840 C   0  0  0  0  0  0  0  0  0  0  0  0
   45.6180   34.8830   43.7640 C   0  0  0  0  0  0  0  0  0  0  0  0
   46.7030   34.0340   43.8310 C   0  0  0  0  0  0  0  0  0  0  0  0
   46.9710   33.3250   44.9650 N   0  0  0  0  0  0  0  0  0  0  0  0
   46.1510   33.4610   46.0430 C   0  0  0  0  0  0  0  0  0  0  0  0
   45.0730   34.2930   46.0020 N   0  0  0  0  0  0  0  0  0  0  0  0
   47.5760   33.8660   42.6560 C   0  0  1  0  0  0  0  0  0  0  0  0
   47.9510   35.1160   41.8770 C   0  0  0  0  0  0  0  0  0  0  0  0
   48.9650   34.2950   42.6600 C   0  0  2  0  0  0  0  0  0  0  0  0
   49.9990   33.5300   41.8710 C   0  0  0  0  0  0  0  0  0  0  0  0
   51.1630   33.4630   42.3440 O   0  0  0  0  0  0  0  0  0  0  0  0
   46.0784   33.1733   48.1257 H   0  0  0  0  0  0  0  0  0  0  0  0
   47.5763   32.5663   47.2781 H   0  0  0  0  0  0  0  0  0  0  0  0
   46.1456   31.0226   45.0978 H   0  0  0  0  0  0  0  0  0  0  0  0
   44.0489   26.8957   48.0053 H   0  0  0  0  0  0  0  0  0  0  0  0
   44.3632   26.9360   46.2496 H   0  0  0  0  0  0  0  0  0  0  0  0
   47.1064   27.6099   44.7083 H   0  0  0  0  0  0  0  0  0  0  0  0
   46.5549   26.5581   42.5227 H   0  0  0  0  0  0  0  0  0  0  0  0
   44.0266   27.1856   41.5685 H   0  0  0  0  0  0  0  0  0  0  0  0
   43.9283   35.6705   44.8586 H   0  0  0  0  0  0  0  0  0  0  0  0
   45.4045   35.4535   42.8481 H   0  0  0  0  0  0  0  0  0  0  0  0
   47.0983   32.9011   42.4306 H   0  0  0  0  0  0  0  0  0  0  0  0
   47.9562   35.1072   40.7770 H   0  0  0  0  0  0  0  0  0  0  0  0
   47.6256   36.1666   41.8562 H   0  0  0  0  0  0  0  0  0  0  0  0
   49.6884   34.4978   43.4635 H   0  0  0  0  0  0  0  0  0  0  0  0
   49.7441   33.0478   40.9158 H   0  0  0  0  0  0  0  0  0  0  0  0
  2  1  1  0
  2  8  1  0
  3  4  2  0
  3  2  1  0
  4  5  1  0
  5  7  2  0
  6  5  1  0
  8  7  1  0
  8  9  2  0
 10  4  1  0
 11 10  2  0
 12 11  1  0
 13 12  2  0
 13 14  1  0
 14 10  1  0
 15 20  2  0
 16 17  2  0
 16 15  1  0
 17 18  1  0
 18 19  2  0
 19  1  1  0
 20 19  1  0
 21 23  1  0
 21 17  1  0
 22 21  1  0
 22 23  1  0
 24 25  2  0
 24 23  1  0
  1 26  1  0
  1 27  1  0
  3 28  1  0
  6 29  1  0
  6 30  1  0
 11 31  1  0
 12 32  1  0
 13 33  1  0
 15 34  1  0
 16 35  1  0
 21 36  1  6
 22 37  1  0
 22 38  1  0
 23 39  1  1
 24 40  1  0
M  ISO  8  26   8  27   8  28  14  31  14  32  14  33  14  34  14  35  14
M  ISO  5  36  13  37  13  38  13  39  13  40   6
M  END
>  <minimizedAffinity>  (1) 
-5.20180511

>  <minimizedRMSD>  (1) 
1.01258004

$$$$
