
     RDKit          3D

 40 43  0  0  1  0  0  0  0  0999 V2000
   46.5090   32.6540   47.2200 C   0  0  0  0  0  0  0  0  0  0  0  0
   45.9650   31.3320   47.1890 N   0  0  0  0  0  0  0  0  0  0  0  0
   45.8420   30.5920   46.0580 C   0  0  0  0  0  0  0  0  0  0  0  0
   45.3010   29.3010   46.1010 C   0  0  0  0  0  0  0  0  0  0  0  0
   44.8760   28.7440   47.2960 C   0  0  0  0  0  0  0  0  0  0  0  0
   44.3680   27.4260   47.2090 N   0  0  0  0  0  0  0  0  0  0  0  0
   44.9910   29.4770   48.4530 N   0  0  0  0  0  0  0  0  0  0  0  0
   45.5300   30.7160   48.2960 C   0  0  0  0  0  0  0  0  0  0  0  0
   45.6260   31.3710   49.3720 O   0  0  0  0  0  0  0  0  0  0  0  0
   45.2440   28.6510   44.7970 C   0  0  0  0  0  0  0  0  0  0  0  0
   46.1660   27.8880   44.1470 C   0  0  0  0  0  0  0  0  0  0  0  0
   45.7040   27.4760   42.9410 N   0  0  0  0  0  0  0  0  0  0  0  0
   44.4590   27.9880   42.8200 C   0  0  0  0  0  0  0  0  0  0  0  0
   44.2180   28.6800   43.9400 N   0  0  0  0  0  0  0  0  0  0  0  0
   44.7920   34.9930   44.8860 C   0  0  0  0  0  0  0  0  0  0  0  0
   45.6100   34.8880   43.7740 C   0  0  0  0  0  0  0  0  0  0  0  0
   46.7020   34.0580   43.8210 C   0  0  0  0  0  0  0  0  0  0  0  0
   46.9830   33.3420   44.9500 N   0  0  0  0  0  0  0  0  0  0  0  0
   46.1610   33.4640   46.0290 C   0  0  0  0  0  0  0  0  0  0  0  0
   45.0770   34.2840   45.9930 N   0  0  0  0  0  0  0  0  0  0  0  0
   47.5750   33.9090   42.6430 C   0  0  1  0  0  0  0  0  0  0  0  0
   47.9990   35.1780   41.9210 C   0  0  0  0  0  0  0  0  0  0  0  0
   48.9790   34.2900   42.6720 C   0  0  2  0  0  0  0  0  0  0  0  0
   49.9840   33.5160   41.8490 C   0  0  0  0  0  0  0  0  0  0  0  0
   51.1460   33.3880   42.3100 O   0  0  0  0  0  0  0  0  0  0  0  0
   46.1260   33.1673   48.1143 H   0  0  0  0  0  0  0  0  0  0  0  0
   47.6043   32.5531   47.2341 H   0  0  0  0  0  0  0  0  0  0  0  0
   46.1712   31.0114   45.0958 H   0  0  0  0  0  0  0  0  0  0  0  0
   44.0329   26.9462   48.0566 H   0  0  0  0  0  0  0  0  0  0  0  0
   44.3333   26.9465   46.2981 H   0  0  0  0  0  0  0  0  0  0  0  0
   47.1588   27.6380   44.5492 H   0  0  0  0  0  0  0  0  0  0  0  0
   43.7765   27.8607   41.9668 H   0  0  0  0  0  0  0  0  0  0  0  0
   43.3368   29.1811   44.1222 H   0  0  0  0  0  0  0  0  0  0  0  0
   43.9126   35.6535   44.8643 H   0  0  0  0  0  0  0  0  0  0  0  0
   45.3873   35.4632   42.8632 H   0  0  0  0  0  0  0  0  0  0  0  0
   47.0654   32.9721   42.3736 H   0  0  0  0  0  0  0  0  0  0  0  0
   48.0110   35.2167   40.8217 H   0  0  0  0  0  0  0  0  0  0  0  0
   47.7103   36.2392   41.9445 H   0  0  0  0  0  0  0  0  0  0  0  0
   49.7051   34.4359   43.4853 H   0  0  0  0  0  0  0  0  0  0  0  0
   49.7069   33.0791   40.8782 H   0  0  0  0  0  0  0  0  0  0  0  0
  2  1  1  0
  2  8  1  0
  3  4  2  0
  3  2  1  0
  4  5  1  0
  5  7  2  0
  6  5  1  0
  8  7  1  0
  8  9  2  0
 10  4  1  0
 11 10  2  0
 12 11  1  0
 13 12  2  0
 13 14  1  0
 14 10  1  0
 15 20  2  0
 16 17  2  0
 16 15  1  0
 17 18  1  0
 18 19  2  0
 19  1  1  0
 20 19  1  0
 21 23  1  0
 21 17  1  0
 22 21  1  0
 22 23  1  0
 24 25  2  0
 24 23  1  0
  1 26  1  0
  1 27  1  0
  3 28  1  0
  6 29  1  0
  6 30  1  0
 11 31  1  0
 13 32  1  0
 14 33  1  0
 15 34  1  0
 16 35  1  0
 21 36  1  6
 22 37  1  0
 22 38  1  0
 23 39  1  1
 24 40  1  0
M  ISO  8  26   8  27   8  28  14  31  14  32  14  33   9  34  14  35  14
M  ISO  5  36  13  37  13  38  13  39  13  40   6
M  END
>  <minimizedAffinity>  (1) 
-5.18623018

>  <minimizedRMSD>  (1) 
0.957676828

$$$$
