
     RDKit          3D

 43 46  0  0  1  0  0  0  0  0999 V2000
   46.3120   32.9400   46.8870 C   0  0  0  0  0  0  0  0  0  0  0  0
   45.8630   31.5790   46.8510 N   0  0  0  0  0  0  0  0  0  0  0  0
   45.9440   30.7730   45.7410 C   0  0  0  0  0  0  0  0  0  0  0  0
   45.4880   29.4630   45.7790 C   0  0  0  0  0  0  0  0  0  0  0  0
   44.9370   28.9280   46.9400 C   0  0  0  0  0  0  0  0  0  0  0  0
   44.5090   27.5650   46.8250 N   0  0  0  0  0  0  0  0  0  0  0  0
   44.8450   29.7100   48.0550 N   0  0  0  0  0  0  0  0  0  0  0  0
   45.3190   30.9770   47.9160 C   0  0  0  0  0  0  0  0  0  0  0  0
   45.2260   31.6840   48.9600 O   0  0  0  0  0  0  0  0  0  0  0  0
   45.6120   28.7020   44.5800 N   0  0  0  0  0  0  0  0  0  0  0  0
   46.7340   28.0930   44.1540 C   0  0  0  0  0  0  0  0  0  0  0  0
   46.6740   27.3910   42.9600 C   0  0  0  0  0  0  0  0  0  0  0  0
   45.5130   27.3040   42.2120 C   0  0  0  0  0  0  0  0  0  0  0  0
   45.4610   26.6680   41.1320 O   0  0  0  0  0  0  0  0  0  0  0  0
   44.4160   27.9460   42.7060 N   0  0  0  0  0  0  0  0  0  0  0  0
   44.4700   28.6240   43.8570 C   0  0  0  0  0  0  0  0  0  0  0  0
   43.3890   29.1820   44.2220 O   0  0  0  0  0  0  0  0  0  0  0  0
   44.9520   34.9940   44.0940 C   0  0  0  0  0  0  0  0  0  0  0  0
   45.9750   34.8740   43.1570 C   0  0  0  0  0  0  0  0  0  0  0  0
   47.0830   34.1220   43.4830 C   0  0  0  0  0  0  0  0  0  0  0  0
   47.1730   33.5070   44.6980 N   0  0  0  0  0  0  0  0  0  0  0  0
   46.1550   33.6450   45.5890 C   0  0  0  0  0  0  0  0  0  0  0  0
   45.0550   34.3840   45.2860 N   0  0  0  0  0  0  0  0  0  0  0  0
   48.1670   33.9520   42.5030 C   0  0  1  0  0  0  0  0  0  0  0  0
   48.6920   35.2070   41.8210 C   0  0  0  0  0  0  0  0  0  0  0  0
   49.5260   34.3730   42.7860 C   0  0  2  0  0  0  0  0  0  0  0  0
   50.7060   33.6250   42.2200 C   0  0  0  0  0  0  0  0  0  0  0  0
   50.7430   32.3830   42.4190 O   0  0  0  0  0  0  0  0  0  0  0  0
   45.7311   33.4792   47.6497 H   0  0  0  0  0  0  0  0  0  0  0  0
   47.3868   32.9224   47.1203 H   0  0  0  0  0  0  0  0  0  0  0  0
   46.3756   31.1712   44.8109 H   0  0  0  0  0  0  0  0  0  0  0  0
   44.0889   27.0870   47.6349 H   0  0  0  0  0  0  0  0  0  0  0  0
   44.6215   27.0634   45.9324 H   0  0  0  0  0  0  0  0  0  0  0  0
   47.6672   28.1503   44.7336 H   0  0  0  0  0  0  0  0  0  0  0  0
   47.5803   26.8859   42.5947 H   0  0  0  0  0  0  0  0  0  0  0  0
   43.5296   27.9079   42.1828 H   0  0  0  0  0  0  0  0  0  0  0  0
   44.0579   35.5895   43.8574 H   0  0  0  0  0  0  0  0  0  0  0  0
   45.9004   35.3689   42.1774 H   0  0  0  0  0  0  0  0  0  0  0  0
   47.7411   32.9905   42.1802 H   0  0  0  0  0  0  0  0  0  0  0  0
   48.9159   35.2052   40.7440 H   0  0  0  0  0  0  0  0  0  0  0  0
   48.3811   36.2592   41.7426 H   0  0  0  0  0  0  0  0  0  0  0  0
   50.0717   34.5591   43.7228 H   0  0  0  0  0  0  0  0  0  0  0  0
   51.4986   34.1413   41.6586 H   0  0  0  0  0  0  0  0  0  0  0  0
  2  1  1  0
  2  8  1  0
  3  4  2  0
  3  2  1  0
  4  5  1  0
  5  7  2  0
  6  5  1  0
  8  7  1  0
  8  9  2  0
 10  4  1  0
 11 10  1  0
 12 11  2  0
 13 15  1  0
 13 12  1  0
 14 13  2  0
 15 16  1  0
 16 17  2  0
 16 10  1  0
 18 23  2  0
 19 20  2  0
 19 18  1  0
 20 21  1  0
 21 22  2  0
 22  1  1  0
 23 22  1  0
 24 26  1  0
 24 20  1  0
 25 24  1  0
 25 26  1  0
 27 28  2  0
 27 26  1  0
  1 29  1  0
  1 30  1  0
  3 31  1  0
  6 32  1  0
  6 33  1  0
 11 34  1  0
 12 35  1  0
 15 36  1  0
 18 37  1  0
 19 38  1  0
 24 39  1  6
 25 40  1  0
 25 41  1  0
 26 42  1  1
 27 43  1  0
M  ISO  8  29   8  30   8  31  14  34  14  35  14  36   9  37  14  38  14
M  ISO  5  39  13  40  13  41  13  42  13  43   6
M  END
>  <minimizedAffinity>  (1) 
-5.16618156

>  <minimizedRMSD>  (1) 
0.433978498

$$$$
