
     RDKit          3D

 40 43  0  0  1  0  0  0  0  0999 V2000
   46.4340   32.8480   47.0150 C   0  0  0  0  0  0  0  0  0  0  0  0
   45.9100   31.5100   47.0090 N   0  0  0  0  0  0  0  0  0  0  0  0
   45.7450   30.7550   45.8770 C   0  0  0  0  0  0  0  0  0  0  0  0
   45.2370   29.4690   45.9650 C   0  0  0  0  0  0  0  0  0  0  0  0
   44.8820   28.9030   47.1760 C   0  0  0  0  0  0  0  0  0  0  0  0
   44.3830   27.5640   47.0820 N   0  0  0  0  0  0  0  0  0  0  0  0
   45.0390   29.6440   48.3270 N   0  0  0  0  0  0  0  0  0  0  0  0
   45.5430   30.8890   48.1370 C   0  0  0  0  0  0  0  0  0  0  0  0
   45.6770   31.5480   49.2040 O   0  0  0  0  0  0  0  0  0  0  0  0
   45.0920   28.7290   44.7020 C   0  0  0  0  0  0  0  0  0  0  0  0
   46.0580   28.2740   43.8630 C   0  0  0  0  0  0  0  0  0  0  0  0
   45.4650   27.6340   42.7980 C   0  0  0  0  0  0  0  0  0  0  0  0
   44.1390   27.7060   42.9990 N   0  0  0  0  0  0  0  0  0  0  0  0
   43.9360   28.3590   44.1310 N   0  0  0  0  0  0  0  0  0  0  0  0
   44.9950   34.9260   44.2830 C   0  0  0  0  0  0  0  0  0  0  0  0
   45.9820   34.8030   43.3100 C   0  0  0  0  0  0  0  0  0  0  0  0
   47.0980   34.0330   43.6020 C   0  0  0  0  0  0  0  0  0  0  0  0
   47.2320   33.4130   44.8040 N   0  0  0  0  0  0  0  0  0  0  0  0
   46.2440   33.5560   45.7320 C   0  0  0  0  0  0  0  0  0  0  0  0
   45.1380   34.3050   45.4730 N   0  0  0  0  0  0  0  0  0  0  0  0
   48.1390   33.8640   42.5730 C   0  0  1  0  0  0  0  0  0  0  0  0
   48.6030   35.1140   41.8380 C   0  0  0  0  0  0  0  0  0  0  0  0
   49.4960   34.3170   42.7800 C   0  0  2  0  0  0  0  0  0  0  0  0
   50.6740   33.5970   42.1860 C   0  0  0  0  0  0  0  0  0  0  0  0
   50.7540   32.3630   42.4310 O   0  0  0  0  0  0  0  0  0  0  0  0
   45.9263   33.4182   47.8069 H   0  0  0  0  0  0  0  0  0  0  0  0
   47.5177   32.7727   47.1881 H   0  0  0  0  0  0  0  0  0  0  0  0
   46.0167   31.1713   44.8957 H   0  0  0  0  0  0  0  0  0  0  0  0
   44.0936   27.0613   47.9331 H   0  0  0  0  0  0  0  0  0  0  0  0
   44.3135   27.1036   46.1632 H   0  0  0  0  0  0  0  0  0  0  0  0
   47.1411   28.3971   44.0107 H   0  0  0  0  0  0  0  0  0  0  0  0
   45.9768   27.1572   41.9490 H   0  0  0  0  0  0  0  0  0  0  0  0
   43.4100   27.3212   42.3815 H   0  0  0  0  0  0  0  0  0  0  0  0
   44.0976   35.5297   44.0824 H   0  0  0  0  0  0  0  0  0  0  0  0
   45.8799   35.3030   42.3355 H   0  0  0  0  0  0  0  0  0  0  0  0
   47.7189   32.8869   42.2923 H   0  0  0  0  0  0  0  0  0  0  0  0
   48.7757   35.0921   40.7519 H   0  0  0  0  0  0  0  0  0  0  0  0
   48.2674   36.1579   41.7509 H   0  0  0  0  0  0  0  0  0  0  0  0
   50.0784   34.5285   43.6889 H   0  0  0  0  0  0  0  0  0  0  0  0
   51.4240   34.1174   41.5722 H   0  0  0  0  0  0  0  0  0  0  0  0
  2  1  1  0
  2  8  1  0
  3  4  2  0
  3  2  1  0
  4  5  1  0
  5  7  2  0
  6  5  1  0
  8  7  1  0
  8  9  2  0
 10  4  1  0
 11 10  1  0
 12 13  1  0
 12 11  2  0
 13 14  1  0
 14 10  2  0
 15 20  2  0
 16 17  2  0
 16 15  1  0
 17 18  1  0
 18 19  2  0
 19  1  1  0
 20 19  1  0
 21 23  1  0
 21 17  1  0
 22 21  1  0
 22 23  1  0
 24 25  2  0
 24 23  1  0
  1 26  1  0
  1 27  1  0
  3 28  1  0
  6 29  1  0
  6 30  1  0
 11 31  1  0
 12 32  1  0
 13 33  1  0
 15 34  1  0
 16 35  1  0
 21 36  1  6
 22 37  1  0
 22 38  1  0
 23 39  1  1
 24 40  1  0
M  ISO  8  26   8  27   8  28  14  31  14  32  14  33   9  34  14  35  14
M  ISO  5  36  13  37  13  38  13  39  13  40   6
M  END
>  <minimizedAffinity>  (1) 
-5.10055065

>  <minimizedRMSD>  (1) 
0.548622251

$$$$
