
     RDKit          3D

 45 47  0  0  1  0  0  0  0  0999 V2000
   45.0100   34.8100   43.7430 C   0  0  0  0  0  0  0  0  0  0  0  0
   46.0660   34.7230   42.8470 C   0  0  0  0  0  0  0  0  0  0  0  0
   47.2230   34.0920   43.2330 C   0  0  0  0  0  0  0  0  0  0  0  0
   47.3350   33.5570   44.4850 N   0  0  0  0  0  0  0  0  0  0  0  0
   46.2800   33.6570   45.3410 C   0  0  0  0  0  0  0  0  0  0  0  0
   45.1360   34.2740   44.9760 N   0  0  0  0  0  0  0  0  0  0  0  0
   48.3480   33.9660   42.2930 C   0  0  1  0  0  0  0  0  0  0  0  0
   49.1400   35.2270   41.9770 C   0  0  0  0  0  0  0  0  0  0  0  0
   49.7310   34.0470   42.7340 C   0  0  2  0  0  0  0  0  0  0  0  0
   50.8030   33.2430   42.0390 C   0  0  0  0  0  0  0  0  0  0  0  0
   50.4330   32.4010   41.1840 O   0  0  0  0  0  0  0  0  0  0  0  0
   46.4690   33.0400   46.6820 C   0  0  0  0  0  0  0  0  0  0  0  0
   45.9500   31.7070   46.7730 N   0  0  0  0  0  0  0  0  0  0  0  0
   45.8820   30.8540   45.7170 C   0  0  0  0  0  0  0  0  0  0  0  0
   45.3650   29.5630   45.8720 C   0  0  0  0  0  0  0  0  0  0  0  0
   44.9110   29.1160   47.1010 C   0  0  0  0  0  0  0  0  0  0  0  0
   44.4140   27.7730   47.1080 N   0  0  0  0  0  0  0  0  0  0  0  0
   44.9720   29.9620   48.1760 N   0  0  0  0  0  0  0  0  0  0  0  0
   45.4890   31.1850   47.9120 C   0  0  0  0  0  0  0  0  0  0  0  0
   45.5360   31.9520   48.9200 O   0  0  0  0  0  0  0  0  0  0  0  0
   45.3190   28.6680   44.6590 C   0  0  0  0  0  0  0  0  0  0  0  0
   45.9670   29.3490   43.4740 C   0  0  0  0  0  0  0  0  0  0  0  0
   46.1030   27.4180   44.9260 C   0  0  0  0  0  0  0  0  0  0  0  0
   43.8900   28.3200   44.4200 C   0  0  0  0  0  0  0  0  0  0  0  0
   44.0761   35.3124   43.4507 H   0  0  0  0  0  0  0  0  0  0  0  0
   45.9773   35.1545   41.8391 H   0  0  0  0  0  0  0  0  0  0  0  0
   47.7953   33.2079   41.7187 H   0  0  0  0  0  0  0  0  0  0  0  0
   49.4564   35.4434   40.9460 H   0  0  0  0  0  0  0  0  0  0  0  0
   49.0205   36.3059   42.1550 H   0  0  0  0  0  0  0  0  0  0  0  0
   50.2180   33.9022   43.7096 H   0  0  0  0  0  0  0  0  0  0  0  0
   51.8679   33.3891   42.2726 H   0  0  0  0  0  0  0  0  0  0  0  0
   47.5460   33.0109   46.9039 H   0  0  0  0  0  0  0  0  0  0  0  0
   45.9125   33.6554   47.4042 H   0  0  0  0  0  0  0  0  0  0  0  0
   46.2375   31.1823   44.7292 H   0  0  0  0  0  0  0  0  0  0  0  0
   44.0564   27.3607   47.9815 H   0  0  0  0  0  0  0  0  0  0  0  0
   44.4141   27.2193   46.2395 H   0  0  0  0  0  0  0  0  0  0  0  0
   46.6842   30.1027   43.8313 H   0  0  0  0  0  0  0  0  0  0  0  0
   46.4947   28.6007   42.8645 H   0  0  0  0  0  0  0  0  0  0  0  0
   45.1934   29.8389   42.8645 H   0  0  0  0  0  0  0  0  0  0  0  0
   46.1966   27.2688   46.0118 H   0  0  0  0  0  0  0  0  0  0  0  0
   45.5829   26.5569   44.4810 H   0  0  0  0  0  0  0  0  0  0  0  0
   47.1046   27.5113   44.4810 H   0  0  0  0  0  0  0  0  0  0  0  0
   43.3767   28.1950   45.3849 H   0  0  0  0  0  0  0  0  0  0  0  0
   43.4067   29.1267   43.8494 H   0  0  0  0  0  0  0  0  0  0  0  0
   43.8317   27.3814   43.8494 H   0  0  0  0  0  0  0  0  0  0  0  0
  1  6  2  0
  2  3  2  0
  2  1  1  0
  3  4  1  0
  4  5  2  0
  5 12  1  0
  6  5  1  0
  7  9  1  0
  7  3  1  0
  8  7  1  0
  8  9  1  0
 10  9  1  0
 11 10  2  0
 12 13  1  0
 13 19  1  0
 14 15  2  0
 14 13  1  0
 15 16  1  0
 16 17  1  0
 16 18  2  0
 19 18  1  0
 19 20  2  0
 21 23  1  0
 21 15  1  0
 22 21  1  0
 24 21  1  0
  1 25  1  0
  2 26  1  0
  7 27  1  6
  8 28  1  0
  8 29  1  0
  9 30  1  1
 10 31  1  0
 12 32  1  0
 12 33  1  0
 14 34  1  0
 17 35  1  0
 17 36  1  0
 22 37  1  0
 22 38  1  0
 22 39  1  0
 23 40  1  0
 23 41  1  0
 23 42  1  0
 24 43  1  0
 24 44  1  0
 24 45  1  0
M  ISO  8  25  14  26  14  27  13  28  13  29  13  30  13  31   6  32   8
M  ISO  8  33   8  34  14  37   8  38   8  39   8  40   8  41   8  42   8
M  ISO  3  43   8  44   8  45   8
M  END
>  <minimizedAffinity>  (1) 
-5.04826307

>  <minimizedRMSD>  (1) 
0.429306179

$$$$
