
     RDKit          3D

 46 49  0  0  1  0  0  0  0  0999 V2000
   46.6930   32.9260   46.3660 C   0  0  0  0  0  0  0  0  0  0  0  0
   46.0270   31.6610   46.3920 N   0  0  0  0  0  0  0  0  0  0  0  0
   45.8750   30.8550   45.2870 C   0  0  0  0  0  0  0  0  0  0  0  0
   45.2220   29.6340   45.3810 C   0  0  0  0  0  0  0  0  0  0  0  0
   44.7040   29.1860   46.5830 C   0  0  0  0  0  0  0  0  0  0  0  0
   44.0560   27.9100   46.5270 N   0  0  0  0  0  0  0  0  0  0  0  0
   44.8420   29.9720   47.7010 N   0  0  0  0  0  0  0  0  0  0  0  0
   45.4950   31.1440   47.5000 C   0  0  0  0  0  0  0  0  0  0  0  0
   45.6090   31.8500   48.5420 O   0  0  0  0  0  0  0  0  0  0  0  0
   44.7690   27.5400   41.6670 C   0  0  0  0  0  0  0  0  0  0  0  0
   45.8080   27.2450   42.5130 C   0  0  0  0  0  0  0  0  0  0  0  0
   45.9950   27.8920   43.7180 C   0  0  0  0  0  0  0  0  0  0  0  0
   45.1300   28.8750   44.1240 C   0  0  0  0  0  0  0  0  0  0  0  0
   44.0650   29.1930   43.2850 C   0  0  0  0  0  0  0  0  0  0  0  0
   43.8860   28.5350   42.0710 C   0  0  0  0  0  0  0  0  0  0  0  0
   44.5170   26.7280   40.1330 S   0  0  0  0  0  0  0  0  0  0  0  0
   44.8350   27.7330   39.0470 O   0  0  0  0  0  0  0  0  0  0  0  0
   45.3700   25.5130   40.0240 O   0  0  0  0  0  0  0  0  0  0  0  0
   44.5440   35.5030   44.7560 C   0  0  0  0  0  0  0  0  0  0  0  0
   45.1350   35.5880   43.4990 C   0  0  0  0  0  0  0  0  0  0  0  0
   46.2310   34.7870   43.2330 C   0  0  0  0  0  0  0  0  0  0  0  0
   46.7210   33.9370   44.1740 N   0  0  0  0  0  0  0  0  0  0  0  0
   46.1180   33.8800   45.3910 C   0  0  0  0  0  0  0  0  0  0  0  0
   45.0450   34.6530   45.6770 N   0  0  0  0  0  0  0  0  0  0  0  0
   46.8550   34.8400   41.8990 C   0  0  1  0  0  0  0  0  0  0  0  0
   48.2390   35.4640   41.7950 C   0  0  0  0  0  0  0  0  0  0  0  0
   47.9700   33.9870   41.5480 C   0  0  2  0  0  0  0  0  0  0  0  0
   48.1500   33.4690   40.1420 C   0  0  0  0  0  0  0  0  0  0  0  0
   48.0890   34.3190   39.2150 O   0  0  0  0  0  0  0  0  0  0  0  0
   46.6289   33.3732   47.3690 H   0  0  0  0  0  0  0  0  0  0  0  0
   47.7317   32.7368   46.0572 H   0  0  0  0  0  0  0  0  0  0  0  0
   46.2763   31.1827   44.3167 H   0  0  0  0  0  0  0  0  0  0  0  0
   43.6431   27.5042   47.3789 H   0  0  0  0  0  0  0  0  0  0  0  0
   44.0028   27.3981   45.6348 H   0  0  0  0  0  0  0  0  0  0  0  0
   46.5212   26.4608   42.2191 H   0  0  0  0  0  0  0  0  0  0  0  0
   46.8459   27.6163   44.3583 H   0  0  0  0  0  0  0  0  0  0  0  0
   43.3539   29.9764   43.5861 H   0  0  0  0  0  0  0  0  0  0  0  0
   43.0375   28.8051   41.4252 H   0  0  0  0  0  0  0  0  0  0  0  0
   43.2228   26.2941   40.0159 H   0  0  0  0  0  0  0  0  0  0  0  0
   43.6710   36.1268   44.9983 H   0  0  0  0  0  0  0  0  0  0  0  0
   44.7405   36.2750   42.7359 H   0  0  0  0  0  0  0  0  0  0  0  0
   45.8723   35.0084   41.4342 H   0  0  0  0  0  0  0  0  0  0  0  0
   48.4884   36.1339   40.9589 H   0  0  0  0  0  0  0  0  0  0  0  0
   48.8971   36.0550   42.4489 H   0  0  0  0  0  0  0  0  0  0  0  0
   48.3406   33.0365   41.9594 H   0  0  0  0  0  0  0  0  0  0  0  0
   48.3256   32.4026   39.9373 H   0  0  0  0  0  0  0  0  0  0  0  0
  1  2  1  0
  2  8  1  0
  3  4  2  0
  3  2  1  0
  4  5  1  0
  5  7  2  0
  6  5  1  0
  8  7  1  0
  8  9  2  0
 10 15  2  0
 10 11  1  0
 11 12  2  0
 12 13  1  0
 13  4  1  0
 14 13  2  0
 15 14  1  0
 16 10  1  0
 17 16  2  0
 18 16  2  0
 19 24  2  0
 20 19  1  0
 21 20  2  0
 21 22  1  0
 22 23  2  0
 23 24  1  0
 23  1  1  0
 25 21  1  0
 26 25  1  0
 27 26  1  0
 27 25  1  0
 28 27  1  0
 29 28  2  0
  1 30  1  0
  1 31  1  0
  3 32  1  0
  6 33  1  0
  6 34  1  0
 11 35  1  0
 12 36  1  0
 14 37  1  0
 15 38  1  0
 16 39  1  0
 19 40  1  0
 20 41  1  0
 25 42  1  6
 26 43  1  0
 26 44  1  0
 27 45  1  1
 28 46  1  0
M  ISO  8  30   8  31   8  32  14  35  14  36  14  37  14  38  14  39  11
M  ISO  7  40  14  41  14  42  13  43  13  44  13  45  13  46   6
M  END
>  <minimizedAffinity>  (1) 
-5.02534914

>  <minimizedRMSD>  (1) 
1.2953403

$$$$
