
     RDKit          3D

 35 37  0  0  1  0  0  0  0  0999 V2000
   44.9870   34.9340   44.2490 C   0  0  0  0  0  0  0  0  0  0  0  0
   45.9800   34.8080   43.2830 C   0  0  0  0  0  0  0  0  0  0  0  0
   47.0920   34.0410   43.5870 C   0  0  0  0  0  0  0  0  0  0  0  0
   47.2170   33.4270   44.7910 N   0  0  0  0  0  0  0  0  0  0  0  0
   46.2260   33.5710   45.7140 C   0  0  0  0  0  0  0  0  0  0  0  0
   45.1300   34.3150   45.4380 N   0  0  0  0  0  0  0  0  0  0  0  0
   48.1470   33.8680   42.5680 C   0  0  1  0  0  0  0  0  0  0  0  0
   48.6020   35.1070   41.8120 C   0  0  0  0  0  0  0  0  0  0  0  0
   49.5000   34.3450   42.7790 C   0  0  2  0  0  0  0  0  0  0  0  0
   50.6780   33.6020   42.2000 C   0  0  0  0  0  0  0  0  0  0  0  0
   50.7520   32.3690   42.4330 O   0  0  0  0  0  0  0  0  0  0  0  0
   46.4110   32.8680   47.0010 C   0  0  0  0  0  0  0  0  0  0  0  0
   45.9040   31.5220   46.9910 N   0  0  0  0  0  0  0  0  0  0  0  0
   45.8040   30.7450   45.8610 C   0  0  0  0  0  0  0  0  0  0  0  0
   45.3070   29.4550   45.9440 C   0  0  0  0  0  0  0  0  0  0  0  0
   44.8990   28.9060   47.1410 C   0  0  0  0  0  0  0  0  0  0  0  0
   44.4030   27.5700   47.0830 N   0  0  0  0  0  0  0  0  0  0  0  0
   44.9880   29.6630   48.2860 N   0  0  0  0  0  0  0  0  0  0  0  0
   45.4860   30.9130   48.1090 C   0  0  0  0  0  0  0  0  0  0  0  0
   45.5590   31.5900   49.1700 O   0  0  0  0  0  0  0  0  0  0  0  0
   45.2240   28.6760   44.7020 C   0  0  0  0  0  0  0  0  0  0  0  0
   44.1410   28.3980   44.1610 O   0  0  0  0  0  0  0  0  0  0  0  0
   44.0894   35.5358   44.0437 H   0  0  0  0  0  0  0  0  0  0  0  0
   45.8846   35.3035   42.3056 H   0  0  0  0  0  0  0  0  0  0  0  0
   47.7413   32.8805   42.3029 H   0  0  0  0  0  0  0  0  0  0  0  0
   48.7850   35.0641   40.7282 H   0  0  0  0  0  0  0  0  0  0  0  0
   48.2523   36.1439   41.6999 H   0  0  0  0  0  0  0  0  0  0  0  0
   50.0755   34.5946   43.6826 H   0  0  0  0  0  0  0  0  0  0  0  0
   51.4410   34.1179   41.5986 H   0  0  0  0  0  0  0  0  0  0  0  0
   47.4865   32.8345   47.2293 H   0  0  0  0  0  0  0  0  0  0  0  0
   45.8436   33.4247   47.7613 H   0  0  0  0  0  0  0  0  0  0  0  0
   46.1198   31.1493   44.8880 H   0  0  0  0  0  0  0  0  0  0  0  0
   44.0821   27.1020   47.9426 H   0  0  0  0  0  0  0  0  0  0  0  0
   44.3657   27.0732   46.1815 H   0  0  0  0  0  0  0  0  0  0  0  0
   46.1555   28.3257   44.2333 H   0  0  0  0  0  0  0  0  0  0  0  0
  1  6  2  0
  2  3  2  0
  2  1  1  0
  3  4  1  0
  4  5  2  0
  5 12  1  0
  6  5  1  0
  7  9  1  0
  7  3  1  0
  8  7  1  0
  8  9  1  0
 10 11  2  0
 10  9  1  0
 13 12  1  0
 13 19  1  0
 14 15  2  0
 14 13  1  0
 15 16  1  0
 16 18  2  0
 17 16  1  0
 19 18  1  0
 19 20  2  0
 21 15  1  0
 22 21  2  0
  1 23  1  0
  2 24  1  0
  7 25  1  6
  8 26  1  0
  8 27  1  0
  9 28  1  1
 10 29  1  0
 12 30  1  0
 12 31  1  0
 14 32  1  0
 17 33  1  0
 17 34  1  0
 21 35  1  0
M  ISO  8  23  14  24  14  25  13  26  13  27  13  28  13  29   6  30   8
M  ISO  3  31   8  32  14  35   6
M  END
>  <minimizedAffinity>  (1) 
-5.01810122

>  <minimizedRMSD>  (1) 
0.516234815

$$$$
