
     RDKit          3D

 42 44  0  0  1  0  0  0  0  0999 V2000
   45.0050   34.7570   43.7750 C   0  0  0  0  0  0  0  0  0  0  0  0
   46.0530   34.6730   42.8630 C   0  0  0  0  0  0  0  0  0  0  0  0
   47.2190   34.0480   43.2670 C   0  0  0  0  0  0  0  0  0  0  0  0
   47.3440   33.5270   44.5200 N   0  0  0  0  0  0  0  0  0  0  0  0
   46.2970   33.6290   45.3820 C   0  0  0  0  0  0  0  0  0  0  0  0
   45.1480   34.2350   45.0090 N   0  0  0  0  0  0  0  0  0  0  0  0
   48.3370   33.9130   42.3120 C   0  0  1  0  0  0  0  0  0  0  0  0
   49.1030   35.1800   41.9560 C   0  0  0  0  0  0  0  0  0  0  0  0
   49.7220   34.0300   42.7380 C   0  0  2  0  0  0  0  0  0  0  0  0
   50.8000   33.2230   42.0520 C   0  0  0  0  0  0  0  0  0  0  0  0
   50.4360   32.3950   41.1790 O   0  0  0  0  0  0  0  0  0  0  0  0
   46.4830   33.0340   46.7210 C   0  0  0  0  0  0  0  0  0  0  0  0
   45.9680   31.6990   46.8280 N   0  0  0  0  0  0  0  0  0  0  0  0
   45.8660   30.8250   45.7720 C   0  0  0  0  0  0  0  0  0  0  0  0
   45.3610   29.5490   45.9570 C   0  0  0  0  0  0  0  0  0  0  0  0
   44.9430   29.1220   47.2280 C   0  0  0  0  0  0  0  0  0  0  0  0
   44.4620   27.7640   47.2470 N   0  0  0  0  0  0  0  0  0  0  0  0
   45.0360   29.9780   48.2890 N   0  0  0  0  0  0  0  0  0  0  0  0
   45.5410   31.1910   47.9880 C   0  0  0  0  0  0  0  0  0  0  0  0
   45.6160   31.9600   48.9870 O   0  0  0  0  0  0  0  0  0  0  0  0
   45.2850   28.6620   44.7550 C   0  0  0  0  0  0  0  0  0  0  0  0
   43.8710   28.2870   44.3960 C   0  0  0  0  0  0  0  0  0  0  0  0
   46.2220   27.4950   44.8530 C   0  0  0  0  0  0  0  0  0  0  0  0
   44.0630   35.2479   43.4893 H   0  0  0  0  0  0  0  0  0  0  0  0
   45.9568   35.0915   41.8503 H   0  0  0  0  0  0  0  0  0  0  0  0
   47.7929   33.1310   41.7621 H   0  0  0  0  0  0  0  0  0  0  0  0
   49.4063   35.3753   40.9168 H   0  0  0  0  0  0  0  0  0  0  0  0
   48.9655   36.2609   42.1072 H   0  0  0  0  0  0  0  0  0  0  0  0
   50.2212   33.9210   43.7121 H   0  0  0  0  0  0  0  0  0  0  0  0
   51.8619   33.3550   42.3067 H   0  0  0  0  0  0  0  0  0  0  0  0
   47.5595   33.0115   46.9461 H   0  0  0  0  0  0  0  0  0  0  0  0
   45.9221   33.6565   47.4337 H   0  0  0  0  0  0  0  0  0  0  0  0
   46.1889   31.1425   44.7695 H   0  0  0  0  0  0  0  0  0  0  0  0
   44.1298   27.3476   48.1286 H   0  0  0  0  0  0  0  0  0  0  0  0
   44.4503   27.2096   46.3790 H   0  0  0  0  0  0  0  0  0  0  0  0
   45.6426   29.2518   43.8981 H   0  0  0  0  0  0  0  0  0  0  0  0
   43.2879   28.1324   45.3158 H   0  0  0  0  0  0  0  0  0  0  0  0
   43.4160   29.0955   43.8050 H   0  0  0  0  0  0  0  0  0  0  0  0
   43.8765   27.3593   43.8050 H   0  0  0  0  0  0  0  0  0  0  0  0
   46.4086   27.2625   45.9118 H   0  0  0  0  0  0  0  0  0  0  0  0
   45.7719   26.6210   44.3595 H   0  0  0  0  0  0  0  0  0  0  0  0
   47.1726   27.7456   44.3595 H   0  0  0  0  0  0  0  0  0  0  0  0
  1  6  2  0
  2  3  2  0
  2  1  1  0
  3  4  1  0
  4  5  2  0
  5 12  1  0
  6  5  1  0
  7  9  1  0
  7  3  1  0
  8  7  1  0
  8  9  1  0
 10  9  1  0
 11 10  2  0
 12 13  1  0
 13 19  1  0
 14 15  2  0
 14 13  1  0
 15 16  1  0
 16 17  1  0
 16 18  2  0
 19 18  1  0
 19 20  2  0
 21 23  1  0
 21 15  1  0
 22 21  1  0
  1 24  1  0
  2 25  1  0
  7 26  1  6
  8 27  1  0
  8 28  1  0
  9 29  1  1
 10 30  1  0
 12 31  1  0
 12 32  1  0
 14 33  1  0
 17 34  1  0
 17 35  1  0
 21 36  1  0
 22 37  1  0
 22 38  1  0
 22 39  1  0
 23 40  1  0
 23 41  1  0
 23 42  1  0
M  ISO  8  24  14  25  14  26  13  27  13  28  13  29  13  30   6  31   8
M  ISO  8  32   8  33  14  36   8  37   8  38   8  39   8  40   8  41   8
M  ISO  1  42   8
M  END
>  <minimizedAffinity>  (1) 
-5.00042677

>  <minimizedRMSD>  (1) 
0.249318525

$$$$
