
     RDKit          3D

 17 18  0  0  0  0  0  0  0  0999 V2000
   44.1890   35.6290   43.4650 C   0  0  0  0  0  0  0  0  0  0  0  0
   44.3460   34.4230   42.7300 C   0  0  0  0  0  0  0  0  0  0  0  0
   44.9740   33.3430   43.3490 C   0  0  0  0  0  0  0  0  0  0  0  0
   45.4070   33.5120   44.6360 N   0  0  0  0  0  0  0  0  0  0  0  0
   45.2410   34.6730   45.3080 C   0  0  0  0  0  0  0  0  0  0  0  0
   44.6340   35.7280   44.7210 N   0  0  0  0  0  0  0  0  0  0  0  0
   43.8370   34.4430   41.4220 N   0  0  0  0  0  0  0  0  0  0  0  0
   44.0630   33.6140   40.4140 C   0  0  0  0  0  0  0  0  0  0  0  0
   43.3370   34.0320   39.2990 C   0  0  0  0  0  0  0  0  0  0  0  0
   42.6740   35.1240   39.6590 N   0  0  0  0  0  0  0  0  0  0  0  0
   42.9770   35.3790   40.9530 C   0  0  0  0  0  0  0  0  0  0  0  0
   43.6950   36.4917   42.9941 H   0  0  0  0  0  0  0  0  0  0  0  0
   45.1164   32.3884   42.8212 H   0  0  0  0  0  0  0  0  0  0  0  0
   45.6036   34.7599   46.3429 H   0  0  0  0  0  0  0  0  0  0  0  0
   44.7208   32.7331   40.4506 H   0  0  0  0  0  0  0  0  0  0  0  0
   43.3176   33.5493   38.3108 H   0  0  0  0  0  0  0  0  0  0  0  0
   42.5828   36.2227   41.5384 H   0  0  0  0  0  0  0  0  0  0  0  0
  1  6  2  0
  2  3  2  0
  2  1  1  0
  3  4  1  0
  4  5  2  0
  6  5  1  0
  7  2  1  0
  8  7  1  0
  9 10  1  0
  9  8  2  0
 10 11  2  0
 11  7  1  0
  1 12  1  0
  3 13  1  0
  5 14  1  0
  8 15  1  0
  9 16  1  0
 11 17  1  0
M  ISO  6  12  14  13  14  14  14  15  14  16  14  17  14
M  END
>  <minimizedAffinity>  (1) 
-3.11581826

>  <minimizedRMSD>  (1) 
2.60109282

$$$$
