
     RDKit          3D

 24 25  0  0  0  0  0  0  0  0999 V2000
   45.6770   34.6120   41.7990 N   0  0  0  0  0  0  0  0  0  0  0  0
   44.9910   34.3320   40.6710 C   0  0  0  0  0  0  0  0  0  0  0  0
   43.7010   34.8700   40.8530 C   0  0  0  0  0  0  0  0  0  0  0  0
   43.6580   35.4330   42.0410 N   0  0  0  0  0  0  0  0  0  0  0  0
   44.8650   35.2930   42.6590 C   0  0  0  0  0  0  0  0  0  0  0  0
   44.9640   35.7770   43.9750 N   0  0  0  0  0  0  0  0  0  0  0  0
   44.8200   34.9510   45.1520 C   0  0  0  0  0  0  0  0  0  0  0  0
   45.0850   33.6690   45.0000 N   0  0  0  0  0  0  0  0  0  0  0  0
   44.4070   35.4680   46.4330 N   0  0  0  0  0  0  0  0  0  0  0  0
   44.9810   33.0810   45.8470 H   0  0  0  0  0  0  0  0  0  0  0  0
   47.9530   35.3600   41.8770 C   0  0  0  0  0  0  0  0  0  0  0  0
   47.0170   34.2980   42.0940 C   0  0  0  0  0  0  0  0  0  0  0  0
   47.4670   33.0440   42.5760 C   0  0  0  0  0  0  0  0  0  0  0  0
   48.8050   32.9140   42.8160 N   0  0  0  0  0  0  0  0  0  0  0  0
   49.6660   33.9550   42.5950 C   0  0  0  0  0  0  0  0  0  0  0  0
   49.2400   35.1720   42.1280 N   0  0  0  0  0  0  0  0  0  0  0  0
   45.3635   33.7926   39.7876 H   0  0  0  0  0  0  0  0  0  0  0  0
   42.8747   34.8266   40.1282 H   0  0  0  0  0  0  0  0  0  0  0  0
   45.1505   36.7812   44.1085 H   0  0  0  0  0  0  0  0  0  0  0  0
   44.3203   34.8344   47.2404 H   0  0  0  0  0  0  0  0  0  0  0  0
   44.1986   36.4709   46.5407 H   0  0  0  0  0  0  0  0  0  0  0  0
   47.6028   36.3328   41.5015 H   0  0  0  0  0  0  0  0  0  0  0  0
   46.7691   32.2116   42.7493 H   0  0  0  0  0  0  0  0  0  0  0  0
   50.7372   33.8103   42.7992 H   0  0  0  0  0  0  0  0  0  0  0  0
  1 12  1  0
  1  5  1  0
  2  3  2  0
  2  1  1  0
  3  4  1  0
  4  5  2  0
  5  6  1  0
  6  7  1  0
  7  9  1  0
  8  7  2  0
  8 10  1  0
 11 12  2  0
 11 16  1  0
 12 13  1  0
 13 14  2  0
 15 14  1  0
 16 15  2  0
  2 17  1  0
  3 18  1  0
  6 19  1  0
  9 20  1  0
  9 21  1  0
 11 22  1  0
 13 23  1  0
 15 24  1  0
M  ISO  5  17  14  18  14  22  14  23  14  24  14
M  END
>  <minimizedAffinity>  (1) 
-5.33137798

>  <minimizedRMSD>  (1) 
3.86427999

$$$$
