
     RDKit          3D

 27 29  0  0  0  0  0  0  0  0999 V2000
   45.1040   34.0000   41.2260 N   0  0  0  0  0  0  0  0  0  0  0  0
   46.1710   33.5070   40.5810 C   0  0  0  0  0  0  0  0  0  0  0  0
   45.7520   33.1710   39.2750 C   0  0  0  0  0  0  0  0  0  0  0  0
   44.4490   33.4700   39.1700 N   0  0  0  0  0  0  0  0  0  0  0  0
   44.0430   33.9790   40.3680 C   0  0  0  0  0  0  0  0  0  0  0  0
   44.7530   35.8520   42.6990 C   0  0  0  0  0  0  0  0  0  0  0  0
   45.0100   34.4660   42.5350 C   0  0  0  0  0  0  0  0  0  0  0  0
   45.1440   33.6620   43.6910 C   0  0  0  0  0  0  0  0  0  0  0  0
   45.0220   34.2560   44.9070 N   0  0  0  0  0  0  0  0  0  0  0  0
   44.7740   35.5950   45.0100 C   0  0  0  0  0  0  0  0  0  0  0  0
   44.6420   36.3800   43.9000 N   0  0  0  0  0  0  0  0  0  0  0  0
   42.6450   34.3200   40.3750 C   0  0  0  0  0  0  0  0  0  0  0  0
   41.7010   33.7510   41.2410 C   0  0  0  0  0  0  0  0  0  0  0  0
   40.3630   34.0880   41.2500 C   0  0  0  0  0  0  0  0  0  0  0  0
   39.9300   35.0430   40.3550 C   0  0  0  0  0  0  0  0  0  0  0  0
   40.7750   35.6640   39.4610 C   0  0  0  0  0  0  0  0  0  0  0  0
   42.0920   35.2680   39.5200 C   0  0  0  0  0  0  0  0  0  0  0  0
   47.1840   33.3867   40.9925 H   0  0  0  0  0  0  0  0  0  0  0  0
   46.3830   32.7401   38.4836 H   0  0  0  0  0  0  0  0  0  0  0  0
   44.6452   36.4932   41.8117 H   0  0  0  0  0  0  0  0  0  0  0  0
   45.3420   32.5832   43.6077 H   0  0  0  0  0  0  0  0  0  0  0  0
   44.6786   36.0504   46.0067 H   0  0  0  0  0  0  0  0  0  0  0  0
   42.0476   32.9904   41.9561 H   0  0  0  0  0  0  0  0  0  0  0  0
   39.6629   33.6090   41.9503 H   0  0  0  0  0  0  0  0  0  0  0  0
   38.8657   35.3209   40.3545 H   0  0  0  0  0  0  0  0  0  0  0  0
   40.4213   36.4242   38.7489 H   0  0  0  0  0  0  0  0  0  0  0  0
   42.7821   35.7538   38.8145 H   0  0  0  0  0  0  0  0  0  0  0  0
  1  7  1  0
  2  1  1  0
  3  2  2  0
  4  3  1  0
  4  5  2  0
  5 12  1  0
  5  1  1  0
  6 11  2  0
  7  6  1  0
  7  8  2  0
  8  9  1  0
  9 10  2  0
 11 10  1  0
 12 13  2  0
 13 14  1  0
 15 14  2  0
 16 17  2  0
 16 15  1  0
 17 12  1  0
  2 18  1  0
  3 19  1  0
  6 20  1  0
  8 21  1  0
 10 22  1  0
 13 23  1  0
 14 24  1  0
 15 25  1  0
 16 26  1  0
 17 27  1  0
M  ISO  8  18  14  19  14  20  14  21  14  22  14  23  14  24  14  25  14
M  ISO  2  26  14  27  14
M  END
>  <minimizedAffinity>  (1) 
-4.75786543

>  <minimizedRMSD>  (1) 
2.34644151

$$$$
