
     RDKit          3D

 33 35  0  0  0  0  0  0  0  0999 V2000
   44.8940   32.9220   40.4600 N   0  0  0  0  0  0  0  0  0  0  0  0
   44.9320   31.5970   40.2390 C   0  0  0  0  0  0  0  0  0  0  0  0
   46.2680   31.2070   40.4710 C   0  0  0  0  0  0  0  0  0  0  0  0
   46.9830   32.2840   40.8160 N   0  0  0  0  0  0  0  0  0  0  0  0
   46.1400   33.3600   40.8130 C   0  0  0  0  0  0  0  0  0  0  0  0
   43.2980   34.2500   41.6090 C   0  0  0  0  0  0  0  0  0  0  0  0
   43.7800   33.7730   40.3740 C   0  0  0  0  0  0  0  0  0  0  0  0
   43.1390   34.1680   39.1820 C   0  0  0  0  0  0  0  0  0  0  0  0
   42.0650   35.0110   39.2990 N   0  0  0  0  0  0  0  0  0  0  0  0
   41.6270   35.4550   40.5150 C   0  0  0  0  0  0  0  0  0  0  0  0
   42.2490   35.0700   41.6740 N   0  0  0  0  0  0  0  0  0  0  0  0
   46.8120   34.6280   41.1360 C   0  0  0  0  0  0  0  0  0  0  0  0
   48.2050   34.7280   40.4770 C   0  0  0  0  0  0  0  0  0  0  0  0
   48.9900   35.7810   41.1910 C   0  0  0  0  0  0  0  0  0  0  0  0
   49.4900   35.1820   42.4870 C   0  0  0  0  0  0  0  0  0  0  0  0
   48.5310   34.0730   42.8960 C   0  0  0  0  0  0  0  0  0  0  0  0
   47.1330   34.5640   42.6360 C   0  0  0  0  0  0  0  0  0  0  0  0
   44.0944   30.9500   39.9391 H   0  0  0  0  0  0  0  0  0  0  0  0
   46.6588   30.1826   40.3825 H   0  0  0  0  0  0  0  0  0  0  0  0
   43.7975   33.9394   42.5385 H   0  0  0  0  0  0  0  0  0  0  0  0
   43.4862   33.8145   38.1999 H   0  0  0  0  0  0  0  0  0  0  0  0
   40.7615   36.1321   40.5643 H   0  0  0  0  0  0  0  0  0  0  0  0
   46.1660   35.4563   40.8095 H   0  0  0  0  0  0  0  0  0  0  0  0
   48.7234   33.7610   40.5553 H   0  0  0  0  0  0  0  0  0  0  0  0
   48.1022   34.9891   39.4134 H   0  0  0  0  0  0  0  0  0  0  0  0
   49.8419   36.0980   40.5715 H   0  0  0  0  0  0  0  0  0  0  0  0
   48.3615   36.6614   41.3906 H   0  0  0  0  0  0  0  0  0  0  0  0
   50.4987   34.7680   42.3418 H   0  0  0  0  0  0  0  0  0  0  0  0
   49.5374   35.9531   43.2701 H   0  0  0  0  0  0  0  0  0  0  0  0
   48.7278   33.1685   42.3018 H   0  0  0  0  0  0  0  0  0  0  0  0
   48.6613   33.8211   43.9588 H   0  0  0  0  0  0  0  0  0  0  0  0
   47.0255   35.5712   43.0648 H   0  0  0  0  0  0  0  0  0  0  0  0
   46.4331   33.8546   43.1018 H   0  0  0  0  0  0  0  0  0  0  0  0
  1  5  1  0
  2  1  1  0
  2  3  2  0
  3  4  1  0
  5  4  2  0
  5 12  1  0
  6 11  2  0
  7  1  1  0
  7  6  1  0
  8  9  1  0
  8  7  2  0
  9 10  2  0
 10 11  1  0
 12 17  1  0
 13 12  1  0
 13 14  1  0
 14 15  1  0
 15 16  1  0
 17 16  1  0
  2 18  1  0
  3 19  1  0
  6 20  1  0
  8 21  1  0
 10 22  1  0
 12 23  1  0
 13 24  1  0
 13 25  1  0
 14 26  1  0
 14 27  1  0
 15 28  1  0
 15 29  1  0
 16 30  1  0
 16 31  1  0
 17 32  1  0
 17 33  1  0
M  ISO  8  18  14  19  14  20  14  21  14  22  14  23  13  24  13  25  13
M  ISO  8  26  13  27  13  28  13  29  13  30  13  31  13  32  13  33  13
M  END
>  <minimizedAffinity>  (1) 
-4.68914032

>  <minimizedRMSD>  (1) 
5.92513847

$$$$
