
     RDKit          3D

 26 28  0  0  0  0  0  0  0  0999 V2000
   45.1020   33.9200   41.2620 N   0  0  0  0  0  0  0  0  0  0  0  0
   46.2030   33.4040   40.6530 C   0  0  0  0  0  0  0  0  0  0  0  0
   45.8150   33.1450   39.3200 C   0  0  0  0  0  0  0  0  0  0  0  0
   44.5550   33.4980   39.1880 N   0  0  0  0  0  0  0  0  0  0  0  0
   44.0830   33.9830   40.3900 C   0  0  0  0  0  0  0  0  0  0  0  0
   44.7470   35.7810   42.7340 C   0  0  0  0  0  0  0  0  0  0  0  0
   45.0230   34.3810   42.5920 C   0  0  0  0  0  0  0  0  0  0  0  0
   45.1870   33.5620   43.7430 C   0  0  0  0  0  0  0  0  0  0  0  0
   45.0650   34.1800   44.9630 N   0  0  0  0  0  0  0  0  0  0  0  0
   44.7950   35.5230   45.0600 C   0  0  0  0  0  0  0  0  0  0  0  0
   44.6380   36.3180   43.9410 N   0  0  0  0  0  0  0  0  0  0  0  0
   42.6750   34.3320   40.4330 C   0  0  0  0  0  0  0  0  0  0  0  0
   41.7680   33.6330   41.1790 C   0  0  0  0  0  0  0  0  0  0  0  0
   40.4260   33.8760   41.2780 C   0  0  0  0  0  0  0  0  0  0  0  0
   39.9010   34.9240   40.5710 C   0  0  0  0  0  0  0  0  0  0  0  0
   40.7740   35.6540   39.8110 C   0  0  0  0  0  0  0  0  0  0  0  0
   42.0450   35.3140   39.8020 N   0  0  0  0  0  0  0  0  0  0  0  0
   47.1901   33.2255   41.1045 H   0  0  0  0  0  0  0  0  0  0  0  0
   46.4543   32.7223   38.5309 H   0  0  0  0  0  0  0  0  0  0  0  0
   44.6256   36.4102   41.8400 H   0  0  0  0  0  0  0  0  0  0  0  0
   45.4011   32.4862   43.6600 H   0  0  0  0  0  0  0  0  0  0  0  0
   44.7011   35.9786   46.0568 H   0  0  0  0  0  0  0  0  0  0  0  0
   42.1588   32.7855   41.7612 H   0  0  0  0  0  0  0  0  0  0  0  0
   39.7841   33.2449   41.9102 H   0  0  0  0  0  0  0  0  0  0  0  0
   38.8291   35.1676   40.6118 H   0  0  0  0  0  0  0  0  0  0  0  0
   40.4194   36.5100   39.2181 H   0  0  0  0  0  0  0  0  0  0  0  0
  1  7  1  0
  2  1  1  0
  3  2  2  0
  4  3  1  0
  4  5  2  0
  5 12  1  0
  5  1  1  0
  6 11  2  0
  7  6  1  0
  7  8  2  0
  8  9  1  0
  9 10  2  0
 11 10  1  0
 12 13  2  0
 13 14  1  0
 15 14  2  0
 16 15  1  0
 17 16  2  0
 17 12  1  0
  2 18  1  0
  3 19  1  0
  6 20  1  0
  8 21  1  0
 10 22  1  0
 13 23  1  0
 14 24  1  0
 15 25  1  0
 16 26  1  0
M  ISO  8  18  14  19  14  20  14  21  14  22  14  23  14  24  14  25  14
M  ISO  1  26  14
M  END
>  <minimizedAffinity>  (1) 
-4.48505449

>  <minimizedRMSD>  (1) 
2.22843266

$$$$
