
     RDKit          3D

 24 26  0  0  0  0  0  0  0  0999 V2000
   44.6620   33.9290   41.1740 N   0  0  0  0  0  0  0  0  0  0  0  0
   45.6220   33.5380   40.3280 C   0  0  0  0  0  0  0  0  0  0  0  0
   45.0020   33.2740   39.0880 C   0  0  0  0  0  0  0  0  0  0  0  0
   43.6930   33.5130   39.2250 N   0  0  0  0  0  0  0  0  0  0  0  0
   43.4800   33.9170   40.5090 C   0  0  0  0  0  0  0  0  0  0  0  0
   42.1150   34.1830   40.7740 N   0  0  0  0  0  0  0  0  0  0  0  0
   41.1300   33.4460   41.3080 N   0  0  0  0  0  0  0  0  0  0  0  0
   40.0240   34.1980   41.3400 C   0  0  0  0  0  0  0  0  0  0  0  0
   40.2820   35.4550   40.8210 C   0  0  0  0  0  0  0  0  0  0  0  0
   41.6110   35.4180   40.4700 C   0  0  0  0  0  0  0  0  0  0  0  0
   44.5190   35.6600   42.8250 C   0  0  0  0  0  0  0  0  0  0  0  0
   44.7720   34.3000   42.5180 C   0  0  0  0  0  0  0  0  0  0  0  0
   45.1080   33.4300   43.5770 C   0  0  0  0  0  0  0  0  0  0  0  0
   45.1750   33.9260   44.8360 N   0  0  0  0  0  0  0  0  0  0  0  0
   44.9220   35.2460   45.0790 C   0  0  0  0  0  0  0  0  0  0  0  0
   44.5950   36.1040   44.0680 N   0  0  0  0  0  0  0  0  0  0  0  0
   46.6936   33.4406   40.5562 H   0  0  0  0  0  0  0  0  0  0  0  0
   45.5057   32.9324   38.1717 H   0  0  0  0  0  0  0  0  0  0  0  0
   39.0485   33.8649   41.7240 H   0  0  0  0  0  0  0  0  0  0  0  0
   39.5807   36.2956   40.7134 H   0  0  0  0  0  0  0  0  0  0  0  0
   42.1767   36.2463   40.0184 H   0  0  0  0  0  0  0  0  0  0  0  0
   44.2552   36.3574   42.0163 H   0  0  0  0  0  0  0  0  0  0  0  0
   45.3122   32.3666   43.3835 H   0  0  0  0  0  0  0  0  0  0  0  0
   44.9828   35.6256   46.1096 H   0  0  0  0  0  0  0  0  0  0  0  0
  1 12  1  0
  2  1  1  0
  3  4  1  0
  3  2  2  0
  4  5  2  0
  5  6  1  0
  5  1  1  0
  6  7  1  0
  7  8  2  0
  9  8  1  0
 10  6  1  0
 10  9  2  0
 11 16  2  0
 12 11  1  0
 12 13  2  0
 13 14  1  0
 14 15  2  0
 16 15  1  0
  2 17  1  0
  3 18  1  0
  8 19  1  0
  9 20  1  0
 10 21  1  0
 11 22  1  0
 13 23  1  0
 15 24  1  0
M  ISO  8  17  14  18  14  19  14  20  14  21  14  22  14  23  14  24  14
M  END
>  <minimizedAffinity>  (1) 
-4.48127031

>  <minimizedRMSD>  (1) 
1.98603737

$$$$
