
     RDKit          3D

 24 26  0  0  0  0  0  0  0  0999 V2000
   43.9470   33.8540   40.3630 N   0  0  0  0  0  0  0  0  0  0  0  0
   44.6050   33.3440   39.3130 C   0  0  0  0  0  0  0  0  0  0  0  0
   45.9580   33.2270   39.6940 C   0  0  0  0  0  0  0  0  0  0  0  0
   46.0740   33.6680   40.9530 N   0  0  0  0  0  0  0  0  0  0  0  0
   44.8360   34.0550   41.3680 C   0  0  0  0  0  0  0  0  0  0  0  0
   44.8470   34.5610   42.6900 N   0  0  0  0  0  0  0  0  0  0  0  0
   45.1140   33.9580   43.8890 C   0  0  0  0  0  0  0  0  0  0  0  0
   44.9970   34.9220   44.8680 C   0  0  0  0  0  0  0  0  0  0  0  0
   44.6650   36.0920   44.2930 N   0  0  0  0  0  0  0  0  0  0  0  0
   44.5750   35.8720   42.9700 C   0  0  0  0  0  0  0  0  0  0  0  0
   42.1210   35.2660   39.7110 C   0  0  0  0  0  0  0  0  0  0  0  0
   42.5860   34.1560   40.4780 C   0  0  0  0  0  0  0  0  0  0  0  0
   41.6620   33.4500   41.2800 C   0  0  0  0  0  0  0  0  0  0  0  0
   40.3700   33.8600   41.2830 N   0  0  0  0  0  0  0  0  0  0  0  0
   39.9740   34.9290   40.5300 C   0  0  0  0  0  0  0  0  0  0  0  0
   40.8530   35.6250   39.7490 N   0  0  0  0  0  0  0  0  0  0  0  0
   44.1725   33.0691   38.3397 H   0  0  0  0  0  0  0  0  0  0  0  0
   46.7750   32.8410   39.0666 H   0  0  0  0  0  0  0  0  0  0  0  0
   45.3738   32.9003   44.0433 H   0  0  0  0  0  0  0  0  0  0  0  0
   45.1504   34.7604   45.9452 H   0  0  0  0  0  0  0  0  0  0  0  0
   44.3195   36.6358   42.2208 H   0  0  0  0  0  0  0  0  0  0  0  0
   42.8274   35.8275   39.0820 H   0  0  0  0  0  0  0  0  0  0  0  0
   41.9826   32.5900   41.8863 H   0  0  0  0  0  0  0  0  0  0  0  0
   38.9185   35.2379   40.5531 H   0  0  0  0  0  0  0  0  0  0  0  0
  1 12  1  0
  1  5  1  0
  2  3  2  0
  2  1  1  0
  3  4  1  0
  4  5  2  0
  5  6  1  0
  6 10  1  0
  6  7  1  0
  7  8  2  0
  9  8  1  0
 10  9  2  0
 11 16  2  0
 11 12  1  0
 12 13  2  0
 13 14  1  0
 15 14  2  0
 16 15  1  0
  2 17  1  0
  3 18  1  0
  7 19  1  0
  8 20  1  0
 10 21  1  0
 11 22  1  0
 13 23  1  0
 15 24  1  0
M  ISO  8  17  14  18  14  19  14  20  14  21  14  22  14  23  14  24  14
M  END
>  <minimizedAffinity>  (1) 
-4.32166052

>  <minimizedRMSD>  (1) 
4.39306211

$$$$
