
     RDKit          3D

 24 26  0  0  0  0  0  0  0  0999 V2000
   43.5130   33.4760   40.6060 N   0  0  0  0  0  0  0  0  0  0  0  0
   44.0170   32.4840   39.8080 C   0  0  0  0  0  0  0  0  0  0  0  0
   45.2010   32.0580   40.4430 C   0  0  0  0  0  0  0  0  0  0  0  0
   45.3490   32.7770   41.5360 N   0  0  0  0  0  0  0  0  0  0  0  0
   44.3130   33.6740   41.6600 C   0  0  0  0  0  0  0  0  0  0  0  0
   41.2050   33.7010   41.2330 C   0  0  0  0  0  0  0  0  0  0  0  0
   42.2990   34.1470   40.4140 C   0  0  0  0  0  0  0  0  0  0  0  0
   42.0800   35.2000   39.4830 C   0  0  0  0  0  0  0  0  0  0  0  0
   40.8170   35.7330   39.4270 N   0  0  0  0  0  0  0  0  0  0  0  0
   39.8080   35.2700   40.2370 C   0  0  0  0  0  0  0  0  0  0  0  0
   39.9970   34.2500   41.1460 N   0  0  0  0  0  0  0  0  0  0  0  0
   44.4560   34.5600   42.7900 C   0  0  0  0  0  0  0  0  0  0  0  0
   44.6590   35.8970   42.9740 C   0  0  0  0  0  0  0  0  0  0  0  0
   44.8560   36.2660   44.2240 N   0  0  0  0  0  0  0  0  0  0  0  0
   44.7930   35.1570   44.9530 C   0  0  0  0  0  0  0  0  0  0  0  0
   44.5560   34.1620   44.0860 N   0  0  0  0  0  0  0  0  0  0  0  0
   43.5886   32.1008   38.8701 H   0  0  0  0  0  0  0  0  0  0  0  0
   45.8791   31.2674   40.0892 H   0  0  0  0  0  0  0  0  0  0  0  0
   41.3715   32.8841   41.9506 H   0  0  0  0  0  0  0  0  0  0  0  0
   42.8884   35.5710   38.8358 H   0  0  0  0  0  0  0  0  0  0  0  0
   38.8121   35.7302   40.1574 H   0  0  0  0  0  0  0  0  0  0  0  0
   44.6583   36.6143   42.1400 H   0  0  0  0  0  0  0  0  0  0  0  0
   44.9110   35.0725   46.0434 H   0  0  0  0  0  0  0  0  0  0  0  0
   44.4580   33.1790   44.3774 H   0  0  0  0  0  0  0  0  0  0  0  0
  1  5  1  0
  2  3  2  0
  2  1  1  0
  3  4  1  0
  4  5  2  0
  5 12  1  0
  7  1  1  0
  7  6  2  0
  8  7  1  0
  9  8  2  0
  9 10  1  0
 10 11  2  0
 11  6  1  0
 12 13  2  0
 12 16  1  0
 13 14  1  0
 14 15  2  0
 16 15  1  0
  2 17  1  0
  3 18  1  0
  6 19  1  0
  8 20  1  0
 10 21  1  0
 13 22  1  0
 15 23  1  0
 16 24  1  0
M  ISO  8  17  14  18  14  19  14  20  14  21  14  22  14  23  14  24   9
M  END
>  <minimizedAffinity>  (1) 
-4.21970892

>  <minimizedRMSD>  (1) 
4.62879562

$$$$
