
     RDKit          3D

 22 24  0  0  0  0  0  0  0  0999 V2000
   44.7010   33.5860   41.3300 N   0  0  0  0  0  0  0  0  0  0  0  0
   45.4210   33.6310   40.1790 C   0  0  0  0  0  0  0  0  0  0  0  0
   46.6920   34.1290   40.5350 C   0  0  0  0  0  0  0  0  0  0  0  0
   46.6880   34.3560   41.8290 N   0  0  0  0  0  0  0  0  0  0  0  0
   45.4620   34.0330   42.3560 C   0  0  0  0  0  0  0  0  0  0  0  0
   42.3630   34.0530   41.0860 C   0  0  0  0  0  0  0  0  0  0  0  0
   43.3790   33.1130   41.4790 C   0  0  0  0  0  0  0  0  0  0  0  0
   43.0300   31.8250   41.9630 C   0  0  0  0  0  0  0  0  0  0  0  0
   41.6900   31.5460   42.0230 N   0  0  0  0  0  0  0  0  0  0  0  0
   40.7500   32.4670   41.6360 C   0  0  0  0  0  0  0  0  0  0  0  0
   41.0730   33.7210   41.1670 N   0  0  0  0  0  0  0  0  0  0  0  0
   45.2420   34.3050   43.7830 C   0  0  0  0  0  0  0  0  0  0  0  0
   45.5200   33.6700   44.9270 N   0  0  0  0  0  0  0  0  0  0  0  0
   45.1180   34.3300   45.9580 O   0  0  0  0  0  0  0  0  0  0  0  0
   44.5490   35.4460   45.5880 C   0  0  0  0  0  0  0  0  0  0  0  0
   44.6400   35.3990   44.2670 N   0  0  0  0  0  0  0  0  0  0  0  0
   45.0821   33.3387   39.1742 H   0  0  0  0  0  0  0  0  0  0  0  0
   47.5365   34.2974   39.8506 H   0  0  0  0  0  0  0  0  0  0  0  0
   42.6506   35.0487   40.7175 H   0  0  0  0  0  0  0  0  0  0  0  0
   43.7912   31.0934   42.2719 H   0  0  0  0  0  0  0  0  0  0  0  0
   39.6874   32.1908   41.7035 H   0  0  0  0  0  0  0  0  0  0  0  0
   44.1042   36.2308   46.2175 H   0  0  0  0  0  0  0  0  0  0  0  0
  1  7  1  0
  1  5  1  0
  2  3  2  0
  2  1  1  0
  3  4  1  0
  4  5  2  0
  5 12  1  0
  6 11  2  0
  6  7  1  0
  7  8  2  0
  8  9  1  0
 10  9  2  0
 11 10  1  0
 12 16  1  0
 12 13  2  0
 13 14  1  0
 15 14  1  0
 16 15  2  0
  2 17  1  0
  3 18  1  0
  6 19  1  0
  8 20  1  0
 10 21  1  0
 15 22  1  0
M  ISO  6  17  14  18  14  19  14  20  14  21  14  22  14
M  END
>  <minimizedAffinity>  (1) 
-4.0337677

>  <minimizedRMSD>  (1) 
4.39174128

$$$$
