
     RDKit          3D

 20 21  0  0  0  0  0  0  0  0999 V2000
   43.9010   34.0270   40.1960 N   0  0  0  0  0  0  0  0  0  0  0  0
   43.7810   33.2850   39.0930 C   0  0  0  0  0  0  0  0  0  0  0  0
   42.4600   33.2080   38.7010 C   0  0  0  0  0  0  0  0  0  0  0  0
   41.7910   33.9130   39.5840 N   0  0  0  0  0  0  0  0  0  0  0  0
   42.6520   34.4080   40.4870 C   0  0  0  0  0  0  0  0  0  0  0  0
   46.2790   33.9780   40.3270 C   0  0  0  0  0  0  0  0  0  0  0  0
   45.0420   34.3680   40.9280 C   0  0  0  0  0  0  0  0  0  0  0  0
   45.0280   35.0570   42.1690 C   0  0  0  0  0  0  0  0  0  0  0  0
   46.2360   35.3130   42.7280 N   0  0  0  0  0  0  0  0  0  0  0  0
   47.4000   34.9250   42.1250 C   0  0  0  0  0  0  0  0  0  0  0  0
   47.4240   34.2610   40.9290 N   0  0  0  0  0  0  0  0  0  0  0  0
   42.0280   35.1640   41.5280 C   0  0  0  0  0  0  0  0  0  0  0  0
   41.0130   35.9100   41.5010 O   0  0  0  0  0  0  0  0  0  0  0  0
   41.6820   35.7480   42.6910 O   0  0  0  0  0  0  0  0  0  0  0  0
   44.6189   32.8018   38.5691 H   0  0  0  0  0  0  0  0  0  0  0  0
   42.0533   32.6697   37.8322 H   0  0  0  0  0  0  0  0  0  0  0  0
   46.2797   33.4435   39.3656 H   0  0  0  0  0  0  0  0  0  0  0  0
   44.0885   35.3661   42.6505 H   0  0  0  0  0  0  0  0  0  0  0  0
   48.3545   35.1557   42.6207 H   0  0  0  0  0  0  0  0  0  0  0  0
   40.8929   36.3446   42.7298 H   0  0  0  0  0  0  0  0  0  0  0  0
  1  5  1  0
  1  7  1  0
  2  1  1  0
  3  2  2  0
  3  4  1  0
  4  5  2  0
  5 12  1  0
  6  7  2  0
  6 11  1  0
  7  8  1  0
  8  9  2  0
 10  9  1  0
 11 10  2  0
 12 14  1  0
 13 12  2  0
  2 15  1  0
  3 16  1  0
  6 17  1  0
  8 18  1  0
 10 19  1  0
 14 20  1  0
M  ISO  6  15  14  16  14  17  14  18  14  19  14  20   3
M  END
>  <minimizedAffinity>  (1) 
-3.94205213

>  <minimizedRMSD>  (1) 
2.51357627

$$$$
