
     RDKit          3D

 30 32  0  0  0  0  0  0  0  0999 V2000
   44.7130   33.9060   40.3920 N   0  0  0  0  0  0  0  0  0  0  0  0
   43.4800   34.4040   40.4440 C   0  0  0  0  0  0  0  0  0  0  0  0
   43.4130   35.3720   41.4220 C   0  0  0  0  0  0  0  0  0  0  0  0
   44.6360   35.4470   41.9600 N   0  0  0  0  0  0  0  0  0  0  0  0
   45.4320   34.5500   41.3300 C   0  0  0  0  0  0  0  0  0  0  0  0
   46.7390   34.6010   41.8600 N   0  0  0  0  0  0  0  0  0  0  0  0
   48.0280   34.9240   41.2300 C   0  0  0  0  0  0  0  0  0  0  0  0
   49.0670   34.8660   42.3250 C   0  0  0  0  0  0  0  0  0  0  0  0
   49.1350   33.6010   42.8710 O   0  0  0  0  0  0  0  0  0  0  0  0
   47.9510   33.1870   43.4470 C   0  0  0  0  0  0  0  0  0  0  0  0
   46.8700   34.2400   43.2860 C   0  0  0  0  0  0  0  0  0  0  0  0
   45.1880   33.0860   38.1940 C   0  0  0  0  0  0  0  0  0  0  0  0
   45.2490   32.9030   39.5820 C   0  0  0  0  0  0  0  0  0  0  0  0
   45.8640   31.7370   40.0560 C   0  0  0  0  0  0  0  0  0  0  0  0
   46.3700   30.8360   39.1750 N   0  0  0  0  0  0  0  0  0  0  0  0
   46.2810   31.0660   37.8360 C   0  0  0  0  0  0  0  0  0  0  0  0
   45.6940   32.1840   37.3660 N   0  0  0  0  0  0  0  0  0  0  0  0
   42.6422   34.0906   39.8038 H   0  0  0  0  0  0  0  0  0  0  0  0
   42.5305   35.9648   41.7043 H   0  0  0  0  0  0  0  0  0  0  0  0
   48.2619   34.1898   40.4450 H   0  0  0  0  0  0  0  0  0  0  0  0
   48.0023   35.9173   40.7582 H   0  0  0  0  0  0  0  0  0  0  0  0
   50.0486   35.1304   41.9048 H   0  0  0  0  0  0  0  0  0  0  0  0
   48.7846   35.5761   43.1162 H   0  0  0  0  0  0  0  0  0  0  0  0
   47.6214   32.2562   42.9623 H   0  0  0  0  0  0  0  0  0  0  0  0
   48.1227   33.0226   44.5210 H   0  0  0  0  0  0  0  0  0  0  0  0
   47.1405   35.1342   43.8667 H   0  0  0  0  0  0  0  0  0  0  0  0
   45.9127   33.8397   43.6511 H   0  0  0  0  0  0  0  0  0  0  0  0
   44.7135   33.9909   37.7864 H   0  0  0  0  0  0  0  0  0  0  0  0
   45.9368   31.5520   41.1379 H   0  0  0  0  0  0  0  0  0  0  0  0
   46.6932   30.3304   37.1296 H   0  0  0  0  0  0  0  0  0  0  0  0
  1  2  1  0
  1  5  1  0
  2  3  2  0
  3  4  1  0
  5  6  1  0
  5  4  2  0
  6 11  1  0
  7  6  1  0
  7  8  1  0
  8  9  1  0
  9 10  1  0
 11 10  1  0
 12 13  2  0
 13 14  1  0
 13  1  1  0
 15 14  2  0
 16 15  1  0
 17 16  2  0
 17 12  1  0
  2 18  1  0
  3 19  1  0
  7 20  1  0
  7 21  1  0
  8 22  1  0
  8 23  1  0
 10 24  1  0
 10 25  1  0
 11 26  1  0
 11 27  1  0
 12 28  1  0
 14 29  1  0
 16 30  1  0
M  ISO  8  18  14  19  14  20  13  21  13  22  13  23  13  24  13  25  13
M  ISO  5  26  13  27  13  28  14  29  14  30  14
M  END
>  <minimizedAffinity>  (1) 
-3.78259015

>  <minimizedRMSD>  (1) 
5.97471476

$$$$
