
     RDKit          3D

 19 20  0  0  0  0  0  0  0  0999 V2000
   44.5160   34.6330   41.7780 N   0  0  0  0  0  0  0  0  0  0  0  0
   45.5630   34.3340   41.0420 C   0  0  0  0  0  0  0  0  0  0  0  0
   46.7350   34.6880   41.6950 C   0  0  0  0  0  0  0  0  0  0  0  0
   46.3550   35.2200   42.8600 N   0  0  0  0  0  0  0  0  0  0  0  0
   45.0110   35.1790   42.8960 C   0  0  0  0  0  0  0  0  0  0  0  0
   42.6630   33.1390   41.5060 C   0  0  0  0  0  0  0  0  0  0  0  0
   43.1410   34.4660   41.5420 C   0  0  0  0  0  0  0  0  0  0  0  0
   42.2440   35.5430   41.3560 C   0  0  0  0  0  0  0  0  0  0  0  0
   40.9390   35.2200   41.1480 N   0  0  0  0  0  0  0  0  0  0  0  0
   40.5110   33.9250   41.1190 C   0  0  0  0  0  0  0  0  0  0  0  0
   41.3900   32.8920   41.3010 N   0  0  0  0  0  0  0  0  0  0  0  0
   44.5000   35.7450   44.1000 C   0  0  0  0  0  0  0  0  0  0  0  0
   44.5410   35.4770   45.3210 O   0  0  0  0  0  0  0  0  0  0  0  0
   45.5166   33.8679   40.0467 H   0  0  0  0  0  0  0  0  0  0  0  0
   47.7641   34.5576   41.3291 H   0  0  0  0  0  0  0  0  0  0  0  0
   43.3636   32.3035   41.6511 H   0  0  0  0  0  0  0  0  0  0  0  0
   42.5841   36.5889   41.3783 H   0  0  0  0  0  0  0  0  0  0  0  0
   39.4463   33.7085   40.9472 H   0  0  0  0  0  0  0  0  0  0  0  0
   43.9165   36.6567   43.9041 H   0  0  0  0  0  0  0  0  0  0  0  0
  1  5  1  0
  2  3  2  0
  2  1  1  0
  3  4  1  0
  4  5  2  0
  5 12  1  0
  6  7  2  0
  7  1  1  0
  8  7  1  0
  9  8  2  0
 10  9  1  0
 10 11  2  0
 11  6  1  0
 12 13  2  0
  2 14  1  0
  3 15  1  0
  6 16  1  0
  8 17  1  0
 10 18  1  0
 12 19  1  0
M  ISO  6  14  14  15  14  16  14  17  14  18  14  19   6
M  END
>  <minimizedAffinity>  (1) 
-3.76782823

>  <minimizedRMSD>  (1) 
4.16859388

$$$$
