
     RDKit          3D

 47 51  0  0  0  0  0  0  0  0999 V2000
   43.2810   32.9540   41.1950 N   0  0  0  0  0  0  0  0  0  0  0  0
   42.5930   33.2710   40.1020 C   0  0  0  0  0  0  0  0  0  0  0  0
   42.7550   34.6490   39.8660 C   0  0  0  0  0  0  0  0  0  0  0  0
   43.5480   35.1230   40.8370 N   0  0  0  0  0  0  0  0  0  0  0  0
   43.8660   34.0860   41.6450 C   0  0  0  0  0  0  0  0  0  0  0  0
   44.7120   34.5230   42.7050 N   0  0  0  0  0  0  0  0  0  0  0  0
   45.4460   35.7940   42.8130 C   0  0  0  0  0  0  0  0  0  0  0  0
   45.0070   36.5990   43.9800 C   0  0  0  0  0  0  0  0  0  0  0  0
   44.2880   35.7910   44.9560 N   0  0  0  0  0  0  0  0  0  0  0  0
   44.9460   34.5190   45.1490 C   0  0  0  0  0  0  0  0  0  0  0  0
   44.9570   33.6990   43.8680 C   0  0  0  0  0  0  0  0  0  0  0  0
   44.7070   31.1510   41.8200 C   0  0  0  0  0  0  0  0  0  0  0  0
   43.4310   31.7240   41.8270 C   0  0  0  0  0  0  0  0  0  0  0  0
   42.4130   31.0170   42.4820 C   0  0  0  0  0  0  0  0  0  0  0  0
   42.7240   29.8450   43.0600 N   0  0  0  0  0  0  0  0  0  0  0  0
   43.9380   29.3180   43.0440 C   0  0  0  0  0  0  0  0  0  0  0  0
   44.9240   29.9850   42.4160 N   0  0  0  0  0  0  0  0  0  0  0  0
   44.4240   28.0700   43.6210 C   0  0  0  0  0  0  0  0  0  0  0  0
   44.6500   26.9060   42.8800 C   0  0  0  0  0  0  0  0  0  0  0  0
   45.1060   25.7210   43.3940 C   0  0  0  0  0  0  0  0  0  0  0  0
   45.3750   25.6210   44.7370 C   0  0  0  0  0  0  0  0  0  0  0  0
   45.1790   26.7250   45.5340 C   0  0  0  0  0  0  0  0  0  0  0  0
   45.4620   26.5710   46.8560 C   0  0  0  0  0  0  0  0  0  0  0  0
   45.2950   27.6250   47.7280 C   0  0  0  0  0  0  0  0  0  0  0  0
   44.8330   28.8170   47.1960 C   0  0  0  0  0  0  0  0  0  0  0  0
   44.5660   28.9060   45.8480 C   0  0  0  0  0  0  0  0  0  0  0  0
   44.7200   27.8810   44.9490 C   0  0  0  0  0  0  0  0  0  0  0  0
   42.0001   32.5766   39.4887 H   0  0  0  0  0  0  0  0  0  0  0  0
   42.3142   35.2275   39.0408 H   0  0  0  0  0  0  0  0  0  0  0  0
   46.5190   35.5754   42.9173 H   0  0  0  0  0  0  0  0  0  0  0  0
   45.2424   36.3791   41.9041 H   0  0  0  0  0  0  0  0  0  0  0  0
   45.8926   37.0369   44.4637 H   0  0  0  0  0  0  0  0  0  0  0  0
   44.3258   37.3829   43.6174 H   0  0  0  0  0  0  0  0  0  0  0  0
   44.2554   36.2947   45.8539 H   0  0  0  0  0  0  0  0  0  0  0  0
   45.9834   34.6976   45.4683 H   0  0  0  0  0  0  0  0  0  0  0  0
   44.3927   33.9561   45.9152 H   0  0  0  0  0  0  0  0  0  0  0  0
   44.1743   32.9287   43.9308 H   0  0  0  0  0  0  0  0  0  0  0  0
   45.9516   33.2415   43.7615 H   0  0  0  0  0  0  0  0  0  0  0  0
   45.5362   31.6702   41.3172 H   0  0  0  0  0  0  0  0  0  0  0  0
   41.3869   31.4114   42.5216 H   0  0  0  0  0  0  0  0  0  0  0  0
   44.4456   26.9449   41.7999 H   0  0  0  0  0  0  0  0  0  0  0  0
   45.2560   24.8537   42.7342 H   0  0  0  0  0  0  0  0  0  0  0  0
   45.7400   24.6766   45.1670 H   0  0  0  0  0  0  0  0  0  0  0  0
   45.8252   25.6023   47.2298 H   0  0  0  0  0  0  0  0  0  0  0  0
   45.5190   27.5237   48.8002 H   0  0  0  0  0  0  0  0  0  0  0  0
   44.6798   29.6897   47.8478 H   0  0  0  0  0  0  0  0  0  0  0  0
   44.2023   29.8703   45.4635 H   0  0  0  0  0  0  0  0  0  0  0  0
  1  5  1  0
  1 13  1  0
  2  1  1  0
  3  2  2  0
  3  4  1  0
  4  5  2  0
  5  6  1  0
  6  7  1  0
  6 11  1  0
  7  8  1  0
  8  9  1  0
  9 10  1  0
 11 10  1  0
 12 13  2  0
 12 17  1  0
 13 14  1  0
 14 15  2  0
 16 15  1  0
 16 18  1  0
 17 16  2  0
 18 27  2  0
 19 20  2  0
 19 18  1  0
 20 21  1  0
 21 22  2  0
 22 23  1  0
 23 24  2  0
 25 24  1  0
 26 25  2  0
 27 22  1  0
 27 26  1  0
  2 28  1  0
  3 29  1  0
  7 30  1  0
  7 31  1  0
  8 32  1  0
  8 33  1  0
  9 34  1  0
 10 35  1  0
 10 36  1  0
 11 37  1  0
 11 38  1  0
 12 39  1  0
 14 40  1  0
 19 41  1  0
 20 42  1  0
 21 43  1  0
 23 44  1  0
 24 45  1  0
 25 46  1  0
 26 47  1  0
M  ISO  8  28  14  29  14  30  13  31  13  32  13  33  13  34   5  35  13
M  ISO  8  36  13  37  13  38  13  39  14  40  14  41  14  42  14  43  14
M  ISO  4  44  14  45  14  46  14  47  14
M  END
>  <minimizedAffinity>  (1) 
-4.75191164

>  <minimizedRMSD>  (1) 
1.85066569

$$$$
