
     RDKit          3D

 44 48  0  0  0  0  0  0  0  0999 V2000
   43.2870   33.2540   41.0920 N   0  0  0  0  0  0  0  0  0  0  0  0
   42.5400   33.6490   40.0640 C   0  0  0  0  0  0  0  0  0  0  0  0
   42.5960   35.0510   39.9830 C   0  0  0  0  0  0  0  0  0  0  0  0
   43.3880   35.4570   40.9810 N   0  0  0  0  0  0  0  0  0  0  0  0
   43.8040   34.3620   41.6500 C   0  0  0  0  0  0  0  0  0  0  0  0
   44.6560   34.7270   42.7290 N   0  0  0  0  0  0  0  0  0  0  0  0
   45.3110   36.0370   42.9690 C   0  0  0  0  0  0  0  0  0  0  0  0
   44.8730   36.6600   44.2360 C   0  0  0  0  0  0  0  0  0  0  0  0
   44.2520   35.6980   45.1130 N   0  0  0  0  0  0  0  0  0  0  0  0
   45.0160   34.4670   45.1440 C   0  0  0  0  0  0  0  0  0  0  0  0
   45.0060   33.7930   43.7850 C   0  0  0  0  0  0  0  0  0  0  0  0
   44.7860   31.4010   41.2220 C   0  0  0  0  0  0  0  0  0  0  0  0
   43.5410   31.9720   41.5710 C   0  0  0  0  0  0  0  0  0  0  0  0
   42.6590   31.2040   42.3780 C   0  0  0  0  0  0  0  0  0  0  0  0
   43.0920   29.9770   42.7480 N   0  0  0  0  0  0  0  0  0  0  0  0
   44.2850   29.4760   42.3930 C   0  0  0  0  0  0  0  0  0  0  0  0
   45.1350   30.1970   41.6240 N   0  0  0  0  0  0  0  0  0  0  0  0
   44.6760   28.1710   42.8230 N   0  0  0  0  0  0  0  0  0  0  0  0
   45.2600   27.2270   42.0800 C   0  0  0  0  0  0  0  0  0  0  0  0
   45.4990   26.1000   42.7990 N   0  0  0  0  0  0  0  0  0  0  0  0
   45.0310   26.3880   44.0350 C   0  0  0  0  0  0  0  0  0  0  0  0
   44.9760   25.6710   45.2110 C   0  0  0  0  0  0  0  0  0  0  0  0
   44.4440   26.1950   46.3480 N   0  0  0  0  0  0  0  0  0  0  0  0
   43.9680   27.4510   46.2860 C   0  0  0  0  0  0  0  0  0  0  0  0
   44.0000   28.1820   45.1640 N   0  0  0  0  0  0  0  0  0  0  0  0
   44.5190   27.6740   44.0550 C   0  0  0  0  0  0  0  0  0  0  0  0
   45.4930   24.3370   45.2430 N   0  0  0  0  0  0  0  0  0  0  0  0
   41.9737   32.9889   39.3906 H   0  0  0  0  0  0  0  0  0  0  0  0
   42.0884   35.6886   39.2443 H   0  0  0  0  0  0  0  0  0  0  0  0
   46.4000   35.8862   43.0070 H   0  0  0  0  0  0  0  0  0  0  0  0
   45.0269   36.7107   42.1471 H   0  0  0  0  0  0  0  0  0  0  0  0
   45.7484   37.0923   44.7427 H   0  0  0  0  0  0  0  0  0  0  0  0
   44.1326   37.4383   43.9991 H   0  0  0  0  0  0  0  0  0  0  0  0
   44.2028   36.0897   46.0643 H   0  0  0  0  0  0  0  0  0  0  0  0
   46.0546   34.6941   45.4264 H   0  0  0  0  0  0  0  0  0  0  0  0
   44.5597   33.7870   45.8784 H   0  0  0  0  0  0  0  0  0  0  0  0
   44.2702   32.9754   43.7971 H   0  0  0  0  0  0  0  0  0  0  0  0
   46.0166   33.4081   43.5837 H   0  0  0  0  0  0  0  0  0  0  0  0
   45.4828   31.9788   40.5970 H   0  0  0  0  0  0  0  0  0  0  0  0
   41.6750   31.5874   42.6859 H   0  0  0  0  0  0  0  0  0  0  0  0
   45.5158   27.3476   41.0170 H   0  0  0  0  0  0  0  0  0  0  0  0
   43.5346   27.8964   47.1937 H   0  0  0  0  0  0  0  0  0  0  0  0
   45.4573   23.7917   46.1161 H   0  0  0  0  0  0  0  0  0  0  0  0
   45.9008   23.9222   44.3930 H   0  0  0  0  0  0  0  0  0  0  0  0
  1 13  1  0
  1  5  1  0
  2  1  1  0
  3  2  2  0
  3  4  1  0
  4  5  2  0
  5  6  1  0
  6  7  1  0
  6 11  1  0
  7  8  1  0
  8  9  1  0
  9 10  1  0
 11 10  1  0
 12 13  2  0
 12 17  1  0
 13 14  1  0
 14 15  2  0
 16 15  1  0
 16 18  1  0
 17 16  2  0
 18 26  1  0
 19 20  2  0
 19 18  1  0
 20 21  1  0
 21 26  2  0
 21 22  1  0
 22 27  1  0
 22 23  2  0
 24 23  1  0
 25 24  2  0
 26 25  1  0
  2 28  1  0
  3 29  1  0
  7 30  1  0
  7 31  1  0
  8 32  1  0
  8 33  1  0
  9 34  1  0
 10 35  1  0
 10 36  1  0
 11 37  1  0
 11 38  1  0
 12 39  1  0
 14 40  1  0
 19 41  1  0
 24 42  1  0
 27 43  1  0
 27 44  1  0
M  ISO  8  28  14  29  14  30  13  31  13  32  13  33  13  34   5  35  13
M  ISO  7  36  13  37  13  38  13  39  14  40  14  41  14  42  14
M  END
>  <minimizedAffinity>  (1) 
-4.68682432

>  <minimizedRMSD>  (1) 
0.950027168

$$$$
