
     RDKit          3D

 42 45  0  0  0  0  0  0  0  0999 V2000
   43.2110   33.2920   41.1340 N   0  0  0  0  0  0  0  0  0  0  0  0
   42.3660   33.6960   40.1840 C   0  0  0  0  0  0  0  0  0  0  0  0
   42.3310   35.0980   40.1940 C   0  0  0  0  0  0  0  0  0  0  0  0
   43.1660   35.5040   41.1610 N   0  0  0  0  0  0  0  0  0  0  0  0
   43.6970   34.4050   41.7270 C   0  0  0  0  0  0  0  0  0  0  0  0
   44.6020   34.7470   42.7660 N   0  0  0  0  0  0  0  0  0  0  0  0
   45.2100   36.0730   43.0390 C   0  0  0  0  0  0  0  0  0  0  0  0
   44.8240   36.6050   44.3620 C   0  0  0  0  0  0  0  0  0  0  0  0
   44.3120   35.5700   45.2220 N   0  0  0  0  0  0  0  0  0  0  0  0
   45.1190   34.3780   45.1390 C   0  0  0  0  0  0  0  0  0  0  0  0
   45.0750   33.7850   43.7410 C   0  0  0  0  0  0  0  0  0  0  0  0
   44.7560   31.4900   40.9750 C   0  0  0  0  0  0  0  0  0  0  0  0
   43.5760   32.0040   41.5100 C   0  0  0  0  0  0  0  0  0  0  0  0
   42.8350   31.1800   42.4010 C   0  0  0  0  0  0  0  0  0  0  0  0
   43.3500   29.9500   42.6590 N   0  0  0  0  0  0  0  0  0  0  0  0
   44.4920   29.5040   42.1180 C   0  0  0  0  0  0  0  0  0  0  0  0
   45.2060   30.2920   41.2600 N   0  0  0  0  0  0  0  0  0  0  0  0
   44.7540   28.1730   42.5920 N   0  0  0  0  0  0  0  0  0  0  0  0
   45.6880   27.2970   42.1800 C   0  0  0  0  0  0  0  0  0  0  0  0
   45.7470   26.0640   42.7960 C   0  0  0  0  0  0  0  0  0  0  0  0
   44.8930   25.7100   43.8010 C   0  0  0  0  0  0  0  0  0  0  0  0
   44.9700   24.4420   44.4160 N   0  0  0  0  0  0  0  0  0  0  0  0
   43.9810   26.6110   44.1780 N   0  0  0  0  0  0  0  0  0  0  0  0
   43.9010   27.8330   43.5900 C   0  0  0  0  0  0  0  0  0  0  0  0
   42.9830   28.5480   44.0750 O   0  0  0  0  0  0  0  0  0  0  0  0
   41.7948   33.0419   39.5088 H   0  0  0  0  0  0  0  0  0  0  0  0
   41.7320   35.7423   39.5336 H   0  0  0  0  0  0  0  0  0  0  0  0
   46.3050   35.9742   43.0032 H   0  0  0  0  0  0  0  0  0  0  0  0
   44.8447   36.7745   42.2745 H   0  0  0  0  0  0  0  0  0  0  0  0
   45.7073   37.0580   44.8359 H   0  0  0  0  0  0  0  0  0  0  0  0
   44.0304   37.3521   44.2136 H   0  0  0  0  0  0  0  0  0  0  0  0
   44.3132   35.9097   46.1944 H   0  0  0  0  0  0  0  0  0  0  0  0
   46.1599   34.6305   45.3897 H   0  0  0  0  0  0  0  0  0  0  0  0
   44.7205   33.6359   45.8464 H   0  0  0  0  0  0  0  0  0  0  0  0
   44.3989   32.9173   43.7428 H   0  0  0  0  0  0  0  0  0  0  0  0
   46.0967   33.4877   43.4620 H   0  0  0  0  0  0  0  0  0  0  0  0
   45.3358   32.1178   40.2824 H   0  0  0  0  0  0  0  0  0  0  0  0
   41.8940   31.5209   42.8574 H   0  0  0  0  0  0  0  0  0  0  0  0
   46.3874   27.5573   41.3719 H   0  0  0  0  0  0  0  0  0  0  0  0
   46.5080   25.3413   42.4663 H   0  0  0  0  0  0  0  0  0  0  0  0
   44.3156   24.1959   45.1724 H   0  0  0  0  0  0  0  0  0  0  0  0
   45.6806   23.7627   44.1084 H   0  0  0  0  0  0  0  0  0  0  0  0
  1 13  1  0
  1  5  1  0
  2  3  2  0
  2  1  1  0
  3  4  1  0
  4  5  2  0
  5  6  1  0
  6  7  1  0
  6 11  1  0
  7  8  1  0
  8  9  1  0
 10  9  1  0
 11 10  1  0
 12 17  2  0
 12 13  1  0
 13 14  2  0
 14 15  1  0
 16 18  1  0
 16 15  2  0
 17 16  1  0
 18 24  1  0
 19 18  1  0
 19 20  2  0
 20 21  1  0
 21 23  2  0
 21 22  1  0
 24 25  2  0
 24 23  1  0
  2 26  1  0
  3 27  1  0
  7 28  1  0
  7 29  1  0
  8 30  1  0
  8 31  1  0
  9 32  1  0
 10 33  1  0
 10 34  1  0
 11 35  1  0
 11 36  1  0
 12 37  1  0
 14 38  1  0
 19 39  1  0
 20 40  1  0
 22 41  1  0
 22 42  1  0
M  ISO  8  26  14  27  14  28  13  29  13  30  13  31  13  32   5  33  13
M  ISO  7  34  13  35  13  36  13  37  14  38  14  39  14  40  14
M  END
>  <minimizedAffinity>  (1) 
-4.4669261

>  <minimizedRMSD>  (1) 
0.389851421

$$$$
