
     RDKit          3D

 41 44  0  0  0  0  0  0  0  0999 V2000
   43.2430   33.2630   41.1460 N   0  0  0  0  0  0  0  0  0  0  0  0
   42.4130   33.6700   40.1840 C   0  0  0  0  0  0  0  0  0  0  0  0
   42.3870   35.0750   40.1850 C   0  0  0  0  0  0  0  0  0  0  0  0
   43.2120   35.4730   41.1590 N   0  0  0  0  0  0  0  0  0  0  0  0
   43.7290   34.3700   41.7400 C   0  0  0  0  0  0  0  0  0  0  0  0
   44.6220   34.7210   42.7890 N   0  0  0  0  0  0  0  0  0  0  0  0
   45.2080   36.0540   43.0760 C   0  0  0  0  0  0  0  0  0  0  0  0
   44.7930   36.5810   44.3900 C   0  0  0  0  0  0  0  0  0  0  0  0
   44.3220   35.5180   45.2590 N   0  0  0  0  0  0  0  0  0  0  0  0
   45.1620   34.3470   45.1510 C   0  0  0  0  0  0  0  0  0  0  0  0
   45.0900   33.7460   43.7610 C   0  0  0  0  0  0  0  0  0  0  0  0
   44.8140   31.4700   41.0120 C   0  0  0  0  0  0  0  0  0  0  0  0
   43.5960   31.9690   41.5320 C   0  0  0  0  0  0  0  0  0  0  0  0
   42.8300   31.1430   42.3990 C   0  0  0  0  0  0  0  0  0  0  0  0
   43.3310   29.9180   42.6690 N   0  0  0  0  0  0  0  0  0  0  0  0
   44.4890   29.4740   42.1610 C   0  0  0  0  0  0  0  0  0  0  0  0
   45.2370   30.2590   41.3230 N   0  0  0  0  0  0  0  0  0  0  0  0
   44.9900   28.1810   42.4630 N   0  0  0  0  0  0  0  0  0  0  0  0
   45.7910   27.6110   41.5450 C   0  0  0  0  0  0  0  0  0  0  0  0
   46.2570   26.3440   41.8850 C   0  0  0  0  0  0  0  0  0  0  0  0
   45.9110   25.7410   43.0760 C   0  0  0  0  0  0  0  0  0  0  0  0
   46.3380   24.5940   43.3750 O   0  0  0  0  0  0  0  0  0  0  0  0
   45.1000   26.3790   43.9470 N   0  0  0  0  0  0  0  0  0  0  0  0
   44.6350   27.6070   43.6420 C   0  0  0  0  0  0  0  0  0  0  0  0
   43.8760   28.2450   44.4170 O   0  0  0  0  0  0  0  0  0  0  0  0
   41.8453   33.0166   39.5052 H   0  0  0  0  0  0  0  0  0  0  0  0
   41.8017   35.7217   39.5148 H   0  0  0  0  0  0  0  0  0  0  0  0
   46.3046   35.9684   43.0603 H   0  0  0  0  0  0  0  0  0  0  0  0
   44.8465   36.7515   42.3061 H   0  0  0  0  0  0  0  0  0  0  0  0
   45.6521   37.0778   44.8645 H   0  0  0  0  0  0  0  0  0  0  0  0
   43.9693   37.2932   44.2343 H   0  0  0  0  0  0  0  0  0  0  0  0
   44.3325   35.8508   46.2337 H   0  0  0  0  0  0  0  0  0  0  0  0
   46.2028   34.6312   45.3654 H   0  0  0  0  0  0  0  0  0  0  0  0
   44.8077   33.5968   45.8733 H   0  0  0  0  0  0  0  0  0  0  0  0
   44.3965   32.8922   43.7749 H   0  0  0  0  0  0  0  0  0  0  0  0
   46.0998   33.4215   43.4696 H   0  0  0  0  0  0  0  0  0  0  0  0
   45.4159   32.0995   40.3400 H   0  0  0  0  0  0  0  0  0  0  0  0
   41.8767   31.4844   42.8287 H   0  0  0  0  0  0  0  0  0  0  0  0
   46.0569   28.1070   40.5999 H   0  0  0  0  0  0  0  0  0  0  0  0
   46.9179   25.8104   41.1860 H   0  0  0  0  0  0  0  0  0  0  0  0
   44.8389   25.9311   44.8370 H   0  0  0  0  0  0  0  0  0  0  0  0
  1 13  1  0
  1  5  1  0
  2  3  2  0
  2  1  1  0
  3  4  1  0
  4  5  2  0
  5  6  1  0
  6  7  1  0
  6 11  1  0
  7  8  1  0
  8  9  1  0
 10  9  1  0
 11 10  1  0
 12 17  2  0
 12 13  1  0
 13 14  2  0
 14 15  1  0
 16 18  1  0
 16 15  2  0
 17 16  1  0
 18 24  1  0
 19 20  2  0
 19 18  1  0
 20 21  1  0
 21 22  2  0
 21 23  1  0
 24 23  1  0
 24 25  2  0
  2 26  1  0
  3 27  1  0
  7 28  1  0
  7 29  1  0
  8 30  1  0
  8 31  1  0
  9 32  1  0
 10 33  1  0
 10 34  1  0
 11 35  1  0
 11 36  1  0
 12 37  1  0
 14 38  1  0
 19 39  1  0
 20 40  1  0
 23 41  1  0
M  ISO  8  26  14  27  14  28  13  29  13  30  13  31  13  32   5  33  13
M  ISO  8  34  13  35  13  36  13  37  14  38  14  39  14  40  14  41   9
M  END
>  <minimizedAffinity>  (1) 
-4.37055159

>  <minimizedRMSD>  (1) 
0.428394616

$$$$
