
     RDKit          3D

 37 40  0  0  0  0  0  0  0  0999 V2000
   43.1490   33.3350   41.1620 N   0  0  0  0  0  0  0  0  0  0  0  0
   42.2660   33.7600   40.2580 C   0  0  0  0  0  0  0  0  0  0  0  0
   42.2030   35.1550   40.3250 C   0  0  0  0  0  0  0  0  0  0  0  0
   43.0580   35.5450   41.2780 N   0  0  0  0  0  0  0  0  0  0  0  0
   43.6340   34.4270   41.7860 C   0  0  0  0  0  0  0  0  0  0  0  0
   44.5630   34.7620   42.8080 N   0  0  0  0  0  0  0  0  0  0  0  0
   45.1240   36.0900   43.1270 C   0  0  0  0  0  0  0  0  0  0  0  0
   44.7700   36.5420   44.4930 C   0  0  0  0  0  0  0  0  0  0  0  0
   44.3380   35.4450   45.3220 N   0  0  0  0  0  0  0  0  0  0  0  0
   45.1900   34.2970   45.1340 C   0  0  0  0  0  0  0  0  0  0  0  0
   45.1010   33.7650   43.7120 C   0  0  0  0  0  0  0  0  0  0  0  0
   44.7480   31.5930   40.8740 C   0  0  0  0  0  0  0  0  0  0  0  0
   43.5550   32.0370   41.4750 C   0  0  0  0  0  0  0  0  0  0  0  0
   42.8590   31.1540   42.3460 C   0  0  0  0  0  0  0  0  0  0  0  0
   43.4210   29.9320   42.5250 N   0  0  0  0  0  0  0  0  0  0  0  0
   44.5600   29.5480   41.9340 C   0  0  0  0  0  0  0  0  0  0  0  0
   45.2200   30.3860   41.1060 N   0  0  0  0  0  0  0  0  0  0  0  0
   44.9870   28.2290   42.2490 N   0  0  0  0  0  0  0  0  0  0  0  0
   44.9580   27.8770   43.5510 C   0  0  0  0  0  0  0  0  0  0  0  0
   45.4060   26.5900   43.6000 N   0  0  0  0  0  0  0  0  0  0  0  0
   45.6930   26.1940   42.3480 C   0  0  0  0  0  0  0  0  0  0  0  0
   45.4280   27.2280   41.5080 N   0  0  0  0  0  0  0  0  0  0  0  0
   41.6857   33.1216   39.5755 H   0  0  0  0  0  0  0  0  0  0  0  0
   41.5690   35.8099   39.7093 H   0  0  0  0  0  0  0  0  0  0  0  0
   46.2198   36.0390   43.0451 H   0  0  0  0  0  0  0  0  0  0  0  0
   44.6985   36.8125   42.4150 H   0  0  0  0  0  0  0  0  0  0  0  0
   45.6523   37.0108   44.9533 H   0  0  0  0  0  0  0  0  0  0  0  0
   43.9396   37.2590   44.4127 H   0  0  0  0  0  0  0  0  0  0  0  0
   44.3731   35.7338   46.3101 H   0  0  0  0  0  0  0  0  0  0  0  0
   46.2306   34.5858   45.3433 H   0  0  0  0  0  0  0  0  0  0  0  0
   44.8584   33.5044   45.8209 H   0  0  0  0  0  0  0  0  0  0  0  0
   44.4464   32.8810   43.7007 H   0  0  0  0  0  0  0  0  0  0  0  0
   46.1152   33.5035   43.3757 H   0  0  0  0  0  0  0  0  0  0  0  0
   45.2957   32.2665   40.1984 H   0  0  0  0  0  0  0  0  0  0  0  0
   41.9222   31.4440   42.8442 H   0  0  0  0  0  0  0  0  0  0  0  0
   44.6385   28.5003   44.3992 H   0  0  0  0  0  0  0  0  0  0  0  0
   46.0756   25.2052   42.0549 H   0  0  0  0  0  0  0  0  0  0  0  0
  1 13  1  0
  1  5  1  0
  2  3  2  0
  2  1  1  0
  3  4  1  0
  4  5  2  0
  5  6  1  0
  6  7  1  0
  6 11  1  0
  7  8  1  0
  8  9  1  0
 10  9  1  0
 11 10  1  0
 12 17  2  0
 12 13  1  0
 13 14  2  0
 14 15  1  0
 16 18  1  0
 16 15  2  0
 17 16  1  0
 18 19  1  0
 19 20  2  0
 21 20  1  0
 22 18  1  0
 22 21  2  0
  2 23  1  0
  3 24  1  0
  7 25  1  0
  7 26  1  0
  8 27  1  0
  8 28  1  0
  9 29  1  0
 10 30  1  0
 10 31  1  0
 11 32  1  0
 11 33  1  0
 12 34  1  0
 14 35  1  0
 19 36  1  0
 21 37  1  0
M  ISO  8  23  14  24  14  25  13  26  13  27  13  28  13  29   5  30  13
M  ISO  7  31  13  32  13  33  13  34  14  35  14  36  14  37  14
M  END
>  <minimizedAffinity>  (1) 
-4.27948475

>  <minimizedRMSD>  (1) 
0.136133462

$$$$
