
     RDKit          3D

 38 41  0  0  0  0  0  0  0  0999 V2000
   46.6390   34.7740   42.0700 C   0  0  0  0  0  0  0  0  0  0  0  0
   47.9170   35.3000   41.9820 C   0  0  0  0  0  0  0  0  0  0  0  0
   48.7260   35.1800   40.8750 C   0  0  0  0  0  0  0  0  0  0  0  0
   48.2580   34.5040   39.7840 C   0  0  0  0  0  0  0  0  0  0  0  0
   46.9930   33.9540   39.8000 C   0  0  0  0  0  0  0  0  0  0  0  0
   46.5130   33.2730   38.6990 C   0  0  0  0  0  0  0  0  0  0  0  0
   45.2500   32.7140   38.6760 C   0  0  0  0  0  0  0  0  0  0  0  0
   44.5050   32.8830   39.8310 C   0  0  0  0  0  0  0  0  0  0  0  0
   45.0050   33.5570   40.8980 C   0  0  0  0  0  0  0  0  0  0  0  0
   46.2520   34.1150   40.9330 C   0  0  0  0  0  0  0  0  0  0  0  0
   44.3890   36.0030   44.8960 C   0  0  0  0  0  0  0  0  0  0  0  0
   45.0010   35.9610   43.6510 C   0  0  0  0  0  0  0  0  0  0  0  0
   45.9170   34.9770   43.2970 C   0  0  0  0  0  0  0  0  0  0  0  0
   46.1400   34.0760   44.2990 N   0  0  0  0  0  0  0  0  0  0  0  0
   45.5640   34.1010   45.4950 C   0  0  0  0  0  0  0  0  0  0  0  0
   44.6970   35.0610   45.7790 N   0  0  0  0  0  0  0  0  0  0  0  0
   45.8940   33.0920   46.4420 N   0  0  0  0  0  0  0  0  0  0  0  0
   47.0490   32.2220   46.2990 C   0  0  0  0  0  0  0  0  0  0  0  0
   46.9720   31.2470   47.4380 C   0  0  0  0  0  0  0  0  0  0  0  0
   46.2110   32.0260   48.4920 C   0  0  0  0  0  0  0  0  0  0  0  0
   45.1810   32.7620   47.6560 C   0  0  0  0  0  0  0  0  0  0  0  0
   48.3101   35.8479   42.8511 H   0  0  0  0  0  0  0  0  0  0  0  0
   49.7335   35.6214   40.8688 H   0  0  0  0  0  0  0  0  0  0  0  0
   48.8913   34.3980   38.8908 H   0  0  0  0  0  0  0  0  0  0  0  0
   47.1564   33.1725   37.8125 H   0  0  0  0  0  0  0  0  0  0  0  0
   44.8628   32.1720   37.8006 H   0  0  0  0  0  0  0  0  0  0  0  0
   43.4896   32.4635   39.8848 H   0  0  0  0  0  0  0  0  0  0  0  0
   44.3677   33.6603   41.7886 H   0  0  0  0  0  0  0  0  0  0  0  0
   43.6680   36.7958   45.1443 H   0  0  0  0  0  0  0  0  0  0  0  0
   44.7509   36.7384   42.9140 H   0  0  0  0  0  0  0  0  0  0  0  0
   47.0110   31.6903   45.3368 H   0  0  0  0  0  0  0  0  0  0  0  0
   47.9895   32.7922   46.3179 H   0  0  0  0  0  0  0  0  0  0  0  0
   46.4264   30.3377   47.1457 H   0  0  0  0  0  0  0  0  0  0  0  0
   47.9570   30.8966   47.7802 H   0  0  0  0  0  0  0  0  0  0  0  0
   45.7304   31.3531   49.2174 H   0  0  0  0  0  0  0  0  0  0  0  0
   46.8456   32.6884   49.0991 H   0  0  0  0  0  0  0  0  0  0  0  0
   44.8382   33.6727   48.1690 H   0  0  0  0  0  0  0  0  0  0  0  0
   44.2778   32.1626   47.4693 H   0  0  0  0  0  0  0  0  0  0  0  0
  1 13  1  0
  2  1  2  0
  3  2  1  0
  4  5  1  0
  4  3  2  0
  5 10  2  0
  6  5  1  0
  7  6  2  0
  7  8  1  0
  8  9  2  0
  9 10  1  0
 10  1  1  0
 11 16  2  0
 12 11  1  0
 13 12  2  0
 13 14  1  0
 14 15  2  0
 15 16  1  0
 15 17  1  0
 17 21  1  0
 18 17  1  0
 18 19  1  0
 19 20  1  0
 21 20  1  0
  2 22  1  0
  3 23  1  0
  4 24  1  0
  6 25  1  0
  7 26  1  0
  8 27  1  0
  9 28  1  0
 11 29  1  0
 12 30  1  0
 18 31  1  0
 18 32  1  0
 19 33  1  0
 19 34  1  0
 20 35  1  0
 20 36  1  0
 21 37  1  0
 21 38  1  0
M  ISO  8  22  14  23  14  24  14  25  14  26  14  27  14  28  14  29  14
M  ISO  8  30  14  31  13  32  13  33  13  34  13  35  13  36  13  37  13
M  ISO  1  38  13
M  END
>  <minimizedAffinity>  (1) 
-7.10541058

>  <minimizedRMSD>  (1) 
0.165070802

$$$$
