
     RDKit          3D

 34 36  0  0  0  0  0  0  0  0999 V2000
   43.1170   33.3320   41.1710 N   0  0  0  0  0  0  0  0  0  0  0  0
   42.1970   33.7410   40.3000 C   0  0  0  0  0  0  0  0  0  0  0  0
   42.0940   35.1320   40.3860 C   0  0  0  0  0  0  0  0  0  0  0  0
   42.9650   35.5320   41.3210 N   0  0  0  0  0  0  0  0  0  0  0  0
   43.5850   34.4350   41.7950 C   0  0  0  0  0  0  0  0  0  0  0  0
   44.5350   34.7740   42.7960 N   0  0  0  0  0  0  0  0  0  0  0  0
   45.0690   36.1130   43.1210 C   0  0  0  0  0  0  0  0  0  0  0  0
   44.7510   36.5320   44.4970 C   0  0  0  0  0  0  0  0  0  0  0  0
   44.3480   35.4180   45.3220 N   0  0  0  0  0  0  0  0  0  0  0  0
   45.2150   34.2780   45.1050 C   0  0  0  0  0  0  0  0  0  0  0  0
   45.1340   33.7870   43.6670 C   0  0  0  0  0  0  0  0  0  0  0  0
   44.7540   31.6310   40.8030 C   0  0  0  0  0  0  0  0  0  0  0  0
   43.5670   32.0450   41.4500 C   0  0  0  0  0  0  0  0  0  0  0  0
   42.9300   31.1320   42.3340 C   0  0  0  0  0  0  0  0  0  0  0  0
   43.5280   29.9240   42.4840 N   0  0  0  0  0  0  0  0  0  0  0  0
   44.6560   29.5750   41.8490 C   0  0  0  0  0  0  0  0  0  0  0  0
   45.2680   30.4370   41.0050 N   0  0  0  0  0  0  0  0  0  0  0  0
   45.2750   28.2250   42.0510 C   0  0  0  0  0  0  0  0  0  0  0  0
   41.6162   33.0936   39.6266 H   0  0  0  0  0  0  0  0  0  0  0  0
   41.4244   35.7762   39.7972 H   0  0  0  0  0  0  0  0  0  0  0  0
   46.1624   36.0943   43.0024 H   0  0  0  0  0  0  0  0  0  0  0  0
   44.5984   36.8341   42.4364 H   0  0  0  0  0  0  0  0  0  0  0  0
   45.6426   36.9986   44.9412 H   0  0  0  0  0  0  0  0  0  0  0  0
   43.9118   37.2416   44.4507 H   0  0  0  0  0  0  0  0  0  0  0  0
   44.3971   35.6960   46.3125 H   0  0  0  0  0  0  0  0  0  0  0  0
   46.2523   34.5696   45.3261 H   0  0  0  0  0  0  0  0  0  0  0  0
   44.8897   33.4633   45.7687 H   0  0  0  0  0  0  0  0  0  0  0  0
   44.5267   32.8703   43.6373 H   0  0  0  0  0  0  0  0  0  0  0  0
   46.1575   33.5944   43.3130 H   0  0  0  0  0  0  0  0  0  0  0  0
   45.2598   32.3238   40.1143 H   0  0  0  0  0  0  0  0  0  0  0  0
   42.0032   31.3910   42.8670 H   0  0  0  0  0  0  0  0  0  0  0  0
   45.3682   28.0218   43.1280 H   0  0  0  0  0  0  0  0  0  0  0  0
   44.6391   27.4569   41.5866 H   0  0  0  0  0  0  0  0  0  0  0  0
   46.2720   28.2056   41.5866 H   0  0  0  0  0  0  0  0  0  0  0  0
  1 13  1  0
  1  5  1  0
  2  3  2  0
  2  1  1  0
  3  4  1  0
  4  5  2  0
  5  6  1  0
  6  7  1  0
  6 11  1  0
  7  8  1  0
  8  9  1  0
 10  9  1  0
 11 10  1  0
 12 17  2  0
 12 13  1  0
 13 14  2  0
 14 15  1  0
 16 18  1  0
 16 15  2  0
 17 16  1  0
  2 19  1  0
  3 20  1  0
  7 21  1  0
  7 22  1  0
  8 23  1  0
  8 24  1  0
  9 25  1  0
 10 26  1  0
 10 27  1  0
 11 28  1  0
 11 29  1  0
 12 30  1  0
 14 31  1  0
 18 32  1  0
 18 33  1  0
 18 34  1  0
M  ISO  8  19  14  20  14  21  13  22  13  23  13  24  13  25   5  26  13
M  ISO  8  27  13  28  13  29  13  30  14  31  14  32   8  33   8  34   8
M  END
>  <minimizedAffinity>  (1) 
-4.17781448

>  <minimizedRMSD>  (1) 
0.0139514981

$$$$
