
     RDKit          3D

 44 47  0  0  0  0  0  0  0  0999 V2000
   43.1180   33.3410   41.1770 N   0  0  0  0  0  0  0  0  0  0  0  0
   42.2140   33.7560   40.2950 C   0  0  0  0  0  0  0  0  0  0  0  0
   42.1300   35.1470   40.3720 C   0  0  0  0  0  0  0  0  0  0  0  0
   42.9960   35.5430   41.3120 N   0  0  0  0  0  0  0  0  0  0  0  0
   43.5950   34.4360   41.7980 C   0  0  0  0  0  0  0  0  0  0  0  0
   44.5390   34.7740   42.8080 N   0  0  0  0  0  0  0  0  0  0  0  0
   45.0880   36.1080   43.1310 C   0  0  0  0  0  0  0  0  0  0  0  0
   44.7480   36.5480   44.4960 C   0  0  0  0  0  0  0  0  0  0  0  0
   44.3430   35.4330   45.3280 N   0  0  0  0  0  0  0  0  0  0  0  0
   45.2170   34.2960   45.1190 C   0  0  0  0  0  0  0  0  0  0  0  0
   45.1110   33.7770   43.6940 C   0  0  0  0  0  0  0  0  0  0  0  0
   44.7430   31.6190   40.8460 C   0  0  0  0  0  0  0  0  0  0  0  0
   43.5480   32.0470   41.4710 C   0  0  0  0  0  0  0  0  0  0  0  0
   42.8850   31.1450   42.3450 C   0  0  0  0  0  0  0  0  0  0  0  0
   43.4620   29.9310   42.5120 N   0  0  0  0  0  0  0  0  0  0  0  0
   44.5970   29.5650   41.9010 C   0  0  0  0  0  0  0  0  0  0  0  0
   45.2350   30.4150   41.0660 N   0  0  0  0  0  0  0  0  0  0  0  0
   45.2050   28.2240   42.1050 C   0  0  0  0  0  0  0  0  0  0  0  0
   46.1730   28.3570   43.2800 C   0  0  0  0  0  0  0  0  0  0  0  0
   46.4570   26.8720   43.5390 C   0  0  0  0  0  0  0  0  0  0  0  0
   45.0410   26.3300   43.5680 C   0  0  0  0  0  0  0  0  0  0  0  0
   44.2260   27.2050   42.6290 C   0  0  0  0  0  0  0  0  0  0  0  0
   41.6313   33.1125   39.6194 H   0  0  0  0  0  0  0  0  0  0  0  0
   41.4748   35.7960   39.7724 H   0  0  0  0  0  0  0  0  0  0  0  0
   46.1832   36.0702   43.0361 H   0  0  0  0  0  0  0  0  0  0  0  0
   44.6434   36.8290   42.4292 H   0  0  0  0  0  0  0  0  0  0  0  0
   45.6290   37.0286   44.9465 H   0  0  0  0  0  0  0  0  0  0  0  0
   43.9068   37.2539   44.4316 H   0  0  0  0  0  0  0  0  0  0  0  0
   44.3864   35.7158   46.3175 H   0  0  0  0  0  0  0  0  0  0  0  0
   46.2558   34.6011   45.3136 H   0  0  0  0  0  0  0  0  0  0  0  0
   44.9141   33.4923   45.8063 H   0  0  0  0  0  0  0  0  0  0  0  0
   44.4715   32.8820   43.6858 H   0  0  0  0  0  0  0  0  0  0  0  0
   46.1234   33.5370   43.3370 H   0  0  0  0  0  0  0  0  0  0  0  0
   45.2711   32.3023   40.1646 H   0  0  0  0  0  0  0  0  0  0  0  0
   41.9518   31.4180   42.8594 H   0  0  0  0  0  0  0  0  0  0  0  0
   45.6254   27.9145   41.1368 H   0  0  0  0  0  0  0  0  0  0  0  0
   47.0840   28.9071   43.0016 H   0  0  0  0  0  0  0  0  0  0  0  0
   45.7883   28.9190   44.1438 H   0  0  0  0  0  0  0  0  0  0  0  0
   47.0488   26.4227   42.7279 H   0  0  0  0  0  0  0  0  0  0  0  0
   47.0489   26.6659   44.4430 H   0  0  0  0  0  0  0  0  0  0  0  0
   45.0265   25.2856   43.2231 H   0  0  0  0  0  0  0  0  0  0  0  0
   44.6285   26.3478   44.5876 H   0  0  0  0  0  0  0  0  0  0  0  0
   43.4068   27.6985   43.1725 H   0  0  0  0  0  0  0  0  0  0  0  0
   43.7593   26.6236   41.8202 H   0  0  0  0  0  0  0  0  0  0  0  0
  1 13  1  0
  1  5  1  0
  2  3  2  0
  2  1  1  0
  3  4  1  0
  4  5  2  0
  5  6  1  0
  6  7  1  0
  6 11  1  0
  7  8  1  0
  8  9  1  0
 10  9  1  0
 11 10  1  0
 12 17  2  0
 12 13  1  0
 13 14  2  0
 14 15  1  0
 16 18  1  0
 16 15  2  0
 17 16  1  0
 18 22  1  0
 18 19  1  0
 19 20  1  0
 20 21  1  0
 22 21  1  0
  2 23  1  0
  3 24  1  0
  7 25  1  0
  7 26  1  0
  8 27  1  0
  8 28  1  0
  9 29  1  0
 10 30  1  0
 10 31  1  0
 11 32  1  0
 11 33  1  0
 12 34  1  0
 14 35  1  0
 18 36  1  0
 19 37  1  0
 19 38  1  0
 20 39  1  0
 20 40  1  0
 21 41  1  0
 21 42  1  0
 22 43  1  0
 22 44  1  0
M  ISO  8  23  14  24  14  25  13  26  13  27  13  28  13  29   5  30  13
M  ISO  8  31  13  32  13  33  13  34  14  35  14  36  13  37  13  38  13
M  ISO  6  39  13  40  13  41  13  42  13  43  13  44  13
M  END
>  <minimizedAffinity>  (1) 
-4.09623671

>  <minimizedRMSD>  (1) 
0.0793349966

$$$$
