
     RDKit          3D

 41 44  0  0  0  0  0  0  0  0999 V2000
   43.1250   33.3320   41.1750 N   0  0  0  0  0  0  0  0  0  0  0  0
   42.2170   33.7460   40.2920 C   0  0  0  0  0  0  0  0  0  0  0  0
   42.1240   35.1410   40.3760 C   0  0  0  0  0  0  0  0  0  0  0  0
   42.9890   35.5310   41.3180 N   0  0  0  0  0  0  0  0  0  0  0  0
   43.5980   34.4240   41.8030 C   0  0  0  0  0  0  0  0  0  0  0  0
   44.5410   34.7670   42.8130 N   0  0  0  0  0  0  0  0  0  0  0  0
   45.0900   36.0950   43.1300 C   0  0  0  0  0  0  0  0  0  0  0  0
   44.7480   36.5360   44.5000 C   0  0  0  0  0  0  0  0  0  0  0  0
   44.3520   35.4270   45.3310 N   0  0  0  0  0  0  0  0  0  0  0  0
   45.2250   34.2850   45.1220 C   0  0  0  0  0  0  0  0  0  0  0  0
   45.1050   33.7620   43.7020 C   0  0  0  0  0  0  0  0  0  0  0  0
   44.7460   31.6220   40.8320 C   0  0  0  0  0  0  0  0  0  0  0  0
   43.5650   32.0380   41.4630 C   0  0  0  0  0  0  0  0  0  0  0  0
   42.9110   31.1320   42.3420 C   0  0  0  0  0  0  0  0  0  0  0  0
   43.4880   29.9220   42.5050 N   0  0  0  0  0  0  0  0  0  0  0  0
   44.6180   29.5530   41.8870 C   0  0  0  0  0  0  0  0  0  0  0  0
   45.2420   30.4130   41.0500 N   0  0  0  0  0  0  0  0  0  0  0  0
   45.1820   28.2250   42.1140 C   0  0  0  0  0  0  0  0  0  0  0  0
   46.0560   27.6820   41.1950 C   0  0  0  0  0  0  0  0  0  0  0  0
   46.6010   26.4210   41.3940 C   0  0  0  0  0  0  0  0  0  0  0  0
   46.2050   25.7820   42.5540 C   0  0  0  0  0  0  0  0  0  0  0  0
   45.3340   26.2710   43.5140 C   0  0  0  0  0  0  0  0  0  0  0  0
   44.8290   27.5300   43.2520 C   0  0  0  0  0  0  0  0  0  0  0  0
   41.6390   33.1020   39.6129 H   0  0  0  0  0  0  0  0  0  0  0  0
   41.4656   35.7911   39.7811 H   0  0  0  0  0  0  0  0  0  0  0  0
   46.1852   36.0561   43.0348 H   0  0  0  0  0  0  0  0  0  0  0  0
   44.6488   36.8162   42.4263 H   0  0  0  0  0  0  0  0  0  0  0  0
   45.6270   37.0221   44.9484 H   0  0  0  0  0  0  0  0  0  0  0  0
   43.9023   37.2364   44.4349 H   0  0  0  0  0  0  0  0  0  0  0  0
   44.4006   35.7121   46.3196 H   0  0  0  0  0  0  0  0  0  0  0  0
   46.2658   34.5892   45.3067 H   0  0  0  0  0  0  0  0  0  0  0  0
   44.9286   33.4852   45.8166 H   0  0  0  0  0  0  0  0  0  0  0  0
   44.4529   32.8761   43.7006 H   0  0  0  0  0  0  0  0  0  0  0  0
   46.1118   33.5054   43.3408 H   0  0  0  0  0  0  0  0  0  0  0  0
   45.2670   32.3078   40.1477 H   0  0  0  0  0  0  0  0  0  0  0  0
   41.9812   31.4032   42.8634 H   0  0  0  0  0  0  0  0  0  0  0  0
   46.3239   28.2546   40.2948 H   0  0  0  0  0  0  0  0  0  0  0  0
   47.2993   25.9622   40.6785 H   0  0  0  0  0  0  0  0  0  0  0  0
   46.6251   24.7813   42.7335 H   0  0  0  0  0  0  0  0  0  0  0  0
   45.0652   25.7008   44.4154 H   0  0  0  0  0  0  0  0  0  0  0  0
   44.1298   27.9884   43.9669 H   0  0  0  0  0  0  0  0  0  0  0  0
  1 13  1  0
  1  5  1  0
  2  3  2  0
  2  1  1  0
  3  4  1  0
  4  5  2  0
  5  6  1  0
  6  7  1  0
  6 11  1  0
  7  8  1  0
  8  9  1  0
 10  9  1  0
 11 10  1  0
 12 17  2  0
 12 13  1  0
 13 14  2  0
 14 15  1  0
 16 18  1  0
 16 15  2  0
 17 16  1  0
 18 23  2  0
 19 20  2  0
 19 18  1  0
 20 21  1  0
 21 22  2  0
 23 22  1  0
  2 24  1  0
  3 25  1  0
  7 26  1  0
  7 27  1  0
  8 28  1  0
  8 29  1  0
  9 30  1  0
 10 31  1  0
 10 32  1  0
 11 33  1  0
 11 34  1  0
 12 35  1  0
 14 36  1  0
 19 37  1  0
 20 38  1  0
 21 39  1  0
 22 40  1  0
 23 41  1  0
M  ISO  8  24  14  25  14  26  13  27  13  28  13  29  13  30   5  31  13
M  ISO  8  32  13  33  13  34  13  35  14  36  14  37  14  38  14  39  14
M  ISO  2  40  14  41  14
M  END
>  <minimizedAffinity>  (1) 
-4.06001043

>  <minimizedRMSD>  (1) 
0.216660798

$$$$
