
     RDKit          3D

 38 41  0  0  0  0  0  0  0  0999 V2000
   43.1180   33.3330   41.1810 N   0  0  0  0  0  0  0  0  0  0  0  0
   42.2140   33.7560   40.3000 C   0  0  0  0  0  0  0  0  0  0  0  0
   42.1240   35.1500   40.3770 C   0  0  0  0  0  0  0  0  0  0  0  0
   42.9970   35.5380   41.3230 N   0  0  0  0  0  0  0  0  0  0  0  0
   43.5950   34.4330   41.8060 C   0  0  0  0  0  0  0  0  0  0  0  0
   44.5420   34.7660   42.8140 N   0  0  0  0  0  0  0  0  0  0  0  0
   45.0950   36.1040   43.1340 C   0  0  0  0  0  0  0  0  0  0  0  0
   44.7470   36.5440   44.4990 C   0  0  0  0  0  0  0  0  0  0  0  0
   44.3620   35.4270   45.3320 N   0  0  0  0  0  0  0  0  0  0  0  0
   45.2180   34.2790   45.1250 C   0  0  0  0  0  0  0  0  0  0  0  0
   45.1120   33.7670   43.6970 C   0  0  0  0  0  0  0  0  0  0  0  0
   44.7360   31.6190   40.8410 C   0  0  0  0  0  0  0  0  0  0  0  0
   43.5450   32.0500   41.4660 C   0  0  0  0  0  0  0  0  0  0  0  0
   42.8930   31.1380   42.3400 C   0  0  0  0  0  0  0  0  0  0  0  0
   43.4760   29.9210   42.5030 N   0  0  0  0  0  0  0  0  0  0  0  0
   44.6100   29.5650   41.8840 C   0  0  0  0  0  0  0  0  0  0  0  0
   45.2410   30.4210   41.0480 N   0  0  0  0  0  0  0  0  0  0  0  0
   45.2120   28.2260   42.0900 C   0  0  0  0  0  0  0  0  0  0  0  0
   44.7710   27.4990   43.3200 C   0  0  0  0  0  0  0  0  0  0  0  0
   46.1560   28.0200   43.2520 C   0  0  0  0  0  0  0  0  0  0  0  0
   41.6325   33.1140   39.6219 H   0  0  0  0  0  0  0  0  0  0  0  0
   41.4678   35.8009   39.7806 H   0  0  0  0  0  0  0  0  0  0  0  0
   46.1906   36.0643   43.0440 H   0  0  0  0  0  0  0  0  0  0  0  0
   44.6588   36.8253   42.4273 H   0  0  0  0  0  0  0  0  0  0  0  0
   45.6195   37.0411   44.9480 H   0  0  0  0  0  0  0  0  0  0  0  0
   43.8944   37.2359   44.4325 H   0  0  0  0  0  0  0  0  0  0  0  0
   44.4210   35.7125   46.3199 H   0  0  0  0  0  0  0  0  0  0  0  0
   46.2602   34.5670   45.3269 H   0  0  0  0  0  0  0  0  0  0  0  0
   44.8989   33.4778   45.8078 H   0  0  0  0  0  0  0  0  0  0  0  0
   44.4719   32.8725   43.6848 H   0  0  0  0  0  0  0  0  0  0  0  0
   46.1250   33.5293   43.3401 H   0  0  0  0  0  0  0  0  0  0  0  0
   45.2584   32.3064   40.1594 H   0  0  0  0  0  0  0  0  0  0  0  0
   41.9609   31.4045   42.8597 H   0  0  0  0  0  0  0  0  0  0  0  0
   45.2687   28.0176   41.0114 H   0  0  0  0  0  0  0  0  0  0  0  0
   44.0436   27.9659   44.0003 H   0  0  0  0  0  0  0  0  0  0  0  0
   44.3264   26.5120   43.5155 H   0  0  0  0  0  0  0  0  0  0  0  0
   47.0018   27.3232   43.1568 H   0  0  0  0  0  0  0  0  0  0  0  0
   46.7709   28.6801   43.8815 H   0  0  0  0  0  0  0  0  0  0  0  0
  1 13  1  0
  1  5  1  0
  2  3  2  0
  2  1  1  0
  3  4  1  0
  4  5  2  0
  5  6  1  0
  6  7  1  0
  6 11  1  0
  7  8  1  0
  8  9  1  0
 10  9  1  0
 11 10  1  0
 12 17  2  0
 12 13  1  0
 13 14  2  0
 14 15  1  0
 16 18  1  0
 16 15  2  0
 17 16  1  0
 18 20  1  0
 18 19  1  0
 20 19  1  0
  2 21  1  0
  3 22  1  0
  7 23  1  0
  7 24  1  0
  8 25  1  0
  8 26  1  0
  9 27  1  0
 10 28  1  0
 10 29  1  0
 11 30  1  0
 11 31  1  0
 12 32  1  0
 14 33  1  0
 18 34  1  0
 19 35  1  0
 19 36  1  0
 20 37  1  0
 20 38  1  0
M  ISO  8  21  14  22  14  23  13  24  13  25  13  26  13  27   5  28  13
M  ISO  8  29  13  30  13  31  13  32  14  33  14  34  13  35  13  36  13
M  ISO  2  37  13  38  13
M  END
>  <minimizedAffinity>  (1) 
-4.0355072

>  <minimizedRMSD>  (1) 
0.106441587

$$$$
