
     RDKit          3D

 36 39  0  0  0  0  0  0  0  0999 V2000
   43.1220   33.3270   41.1800 N   0  0  0  0  0  0  0  0  0  0  0  0
   42.2190   33.7420   40.2970 C   0  0  0  0  0  0  0  0  0  0  0  0
   42.1300   35.1360   40.3710 C   0  0  0  0  0  0  0  0  0  0  0  0
   42.9990   35.5280   41.3140 N   0  0  0  0  0  0  0  0  0  0  0  0
   43.5970   34.4220   41.8000 C   0  0  0  0  0  0  0  0  0  0  0  0
   44.5420   34.7660   42.8090 N   0  0  0  0  0  0  0  0  0  0  0  0
   45.0850   36.1060   43.1300 C   0  0  0  0  0  0  0  0  0  0  0  0
   44.7440   36.5410   44.5010 C   0  0  0  0  0  0  0  0  0  0  0  0
   44.3490   35.4260   45.3290 N   0  0  0  0  0  0  0  0  0  0  0  0
   45.2220   34.2900   45.1210 C   0  0  0  0  0  0  0  0  0  0  0  0
   45.1200   33.7740   43.6940 C   0  0  0  0  0  0  0  0  0  0  0  0
   44.7480   31.6090   40.8510 C   0  0  0  0  0  0  0  0  0  0  0  0
   43.5540   32.0400   41.4740 C   0  0  0  0  0  0  0  0  0  0  0  0
   42.9000   31.1310   42.3510 C   0  0  0  0  0  0  0  0  0  0  0  0
   43.4830   29.9210   42.5160 N   0  0  0  0  0  0  0  0  0  0  0  0
   44.6180   29.5570   41.9030 C   0  0  0  0  0  0  0  0  0  0  0  0
   45.2500   30.4110   41.0660 N   0  0  0  0  0  0  0  0  0  0  0  0
   45.2260   28.2440   42.0990 C   0  0  0  0  0  0  0  0  0  0  0  0
   45.8810   27.4010   41.2510 N   0  0  0  0  0  0  0  0  0  0  0  0
   46.2370   26.3320   41.9190 O   0  0  0  0  0  0  0  0  0  0  0  0
   45.8570   26.4170   43.1660 C   0  0  0  0  0  0  0  0  0  0  0  0
   45.2160   27.6110   43.3080 N   0  0  0  0  0  0  0  0  0  0  0  0
   41.6387   33.0968   39.6210 H   0  0  0  0  0  0  0  0  0  0  0  0
   41.4743   35.7848   39.7718 H   0  0  0  0  0  0  0  0  0  0  0  0
   46.1802   36.0758   43.0316 H   0  0  0  0  0  0  0  0  0  0  0  0
   44.6359   36.8254   42.4295 H   0  0  0  0  0  0  0  0  0  0  0  0
   45.6229   37.0260   44.9507 H   0  0  0  0  0  0  0  0  0  0  0  0
   43.8978   37.2411   44.4396 H   0  0  0  0  0  0  0  0  0  0  0  0
   44.3941   35.7087   46.3184 H   0  0  0  0  0  0  0  0  0  0  0  0
   46.2603   34.5940   45.3196 H   0  0  0  0  0  0  0  0  0  0  0  0
   44.9166   33.4852   45.8058 H   0  0  0  0  0  0  0  0  0  0  0  0
   44.4872   32.8743   43.6839 H   0  0  0  0  0  0  0  0  0  0  0  0
   46.1349   33.5438   43.3375 H   0  0  0  0  0  0  0  0  0  0  0  0
   45.2719   32.2936   40.1678 H   0  0  0  0  0  0  0  0  0  0  0  0
   41.9672   31.3982   42.8691 H   0  0  0  0  0  0  0  0  0  0  0  0
   46.0231   25.6664   43.9528 H   0  0  0  0  0  0  0  0  0  0  0  0
  1 13  1  0
  1  5  1  0
  2  3  2  0
  2  1  1  0
  3  4  1  0
  4  5  2  0
  5  6  1  0
  6  7  1  0
  6 11  1  0
  7  8  1  0
  8  9  1  0
 10  9  1  0
 11 10  1  0
 12 17  2  0
 12 13  1  0
 13 14  2  0
 14 15  1  0
 16 18  1  0
 16 15  2  0
 17 16  1  0
 18 22  1  0
 19 20  1  0
 19 18  2  0
 20 21  1  0
 21 22  2  0
  2 23  1  0
  3 24  1  0
  7 25  1  0
  7 26  1  0
  8 27  1  0
  8 28  1  0
  9 29  1  0
 10 30  1  0
 10 31  1  0
 11 32  1  0
 11 33  1  0
 12 34  1  0
 14 35  1  0
 21 36  1  0
M  ISO  8  23  14  24  14  25  13  26  13  27  13  28  13  29   5  30  13
M  ISO  6  31  13  32  13  33  13  34  14  35  14  36  14
M  END
>  <minimizedAffinity>  (1) 
-4.02910137

>  <minimizedRMSD>  (1) 
0.0970898494

$$$$
