
     RDKit          3D

 34 36  0  0  0  0  0  0  0  0999 V2000
   43.1140   33.3300   41.1720 N   0  0  0  0  0  0  0  0  0  0  0  0
   42.2030   33.7460   40.2870 C   0  0  0  0  0  0  0  0  0  0  0  0
   42.1080   35.1410   40.3710 C   0  0  0  0  0  0  0  0  0  0  0  0
   42.9730   35.5340   41.3150 N   0  0  0  0  0  0  0  0  0  0  0  0
   43.5830   34.4230   41.7990 C   0  0  0  0  0  0  0  0  0  0  0  0
   44.5210   34.7620   42.8080 N   0  0  0  0  0  0  0  0  0  0  0  0
   45.0810   36.0960   43.1200 C   0  0  0  0  0  0  0  0  0  0  0  0
   44.7570   36.5320   44.4920 C   0  0  0  0  0  0  0  0  0  0  0  0
   44.3450   35.4190   45.3240 N   0  0  0  0  0  0  0  0  0  0  0  0
   45.2360   34.2880   45.1100 C   0  0  0  0  0  0  0  0  0  0  0  0
   45.0700   33.7530   43.7080 C   0  0  0  0  0  0  0  0  0  0  0  0
   44.7480   31.6380   40.8170 C   0  0  0  0  0  0  0  0  0  0  0  0
   43.5510   32.0380   41.4560 C   0  0  0  0  0  0  0  0  0  0  0  0
   42.9000   31.1230   42.3290 C   0  0  0  0  0  0  0  0  0  0  0  0
   43.4830   29.9180   42.4910 N   0  0  0  0  0  0  0  0  0  0  0  0
   44.6180   29.5700   41.8710 C   0  0  0  0  0  0  0  0  0  0  0  0
   45.2530   30.4350   41.0290 N   0  0  0  0  0  0  0  0  0  0  0  0
   45.2020   28.2500   42.0840 C   0  0  0  0  0  0  0  0  0  0  0  0
   46.3630   27.9840   41.6820 O   0  0  0  0  0  0  0  0  0  0  0  0
   44.4660   27.2720   42.7410 O   0  0  0  0  0  0  0  0  0  0  0  0
   41.6255   33.1019   39.6076 H   0  0  0  0  0  0  0  0  0  0  0  0
   41.4489   35.7898   39.7754 H   0  0  0  0  0  0  0  0  0  0  0  0
   46.1748   36.0549   43.0108 H   0  0  0  0  0  0  0  0  0  0  0  0
   44.6348   36.8200   42.4224 H   0  0  0  0  0  0  0  0  0  0  0  0
   45.6475   36.9997   44.9373 H   0  0  0  0  0  0  0  0  0  0  0  0
   43.9227   37.2468   44.4371 H   0  0  0  0  0  0  0  0  0  0  0  0
   44.3811   35.7004   46.3142 H   0  0  0  0  0  0  0  0  0  0  0  0
   46.2770   34.6129   45.2543 H   0  0  0  0  0  0  0  0  0  0  0  0
   44.9879   33.4938   45.8295 H   0  0  0  0  0  0  0  0  0  0  0  0
   44.3888   32.8897   43.7340 H   0  0  0  0  0  0  0  0  0  0  0  0
   46.0617   33.4608   43.3323 H   0  0  0  0  0  0  0  0  0  0  0  0
   45.2628   32.3338   40.1381 H   0  0  0  0  0  0  0  0  0  0  0  0
   41.9659   31.3858   42.8471 H   0  0  0  0  0  0  0  0  0  0  0  0
   44.8564   26.3743   42.8887 H   0  0  0  0  0  0  0  0  0  0  0  0
  1 13  1  0
  1  5  1  0
  2  3  2  0
  2  1  1  0
  3  4  1  0
  4  5  2  0
  5  6  1  0
  6  7  1  0
  6 11  1  0
  7  8  1  0
  8  9  1  0
 10  9  1  0
 11 10  1  0
 12 17  2  0
 12 13  1  0
 13 14  2  0
 14 15  1  0
 16 18  1  0
 16 15  2  0
 17 16  1  0
 18 20  1  0
 19 18  2  0
  2 21  1  0
  3 22  1  0
  7 23  1  0
  7 24  1  0
  8 25  1  0
  8 26  1  0
  9 27  1  0
 10 28  1  0
 10 29  1  0
 11 30  1  0
 11 31  1  0
 12 32  1  0
 14 33  1  0
 20 34  1  0
M  ISO  8  21  14  22  14  23  13  24  13  25  13  26  13  27   5  28  13
M  ISO  6  29  13  30  13  31  13  32  14  33  14  34   3
M  END
>  <minimizedAffinity>  (1) 
-4.01235437

>  <minimizedRMSD>  (1) 
0.168814078

$$$$
