
     RDKit          3D

 33 35  0  0  0  0  0  0  0  0999 V2000
   43.1250   33.3250   41.1760 N   0  0  0  0  0  0  0  0  0  0  0  0
   42.2150   33.7410   40.2970 C   0  0  0  0  0  0  0  0  0  0  0  0
   42.1180   35.1370   40.3810 C   0  0  0  0  0  0  0  0  0  0  0  0
   42.9850   35.5300   41.3240 N   0  0  0  0  0  0  0  0  0  0  0  0
   43.5940   34.4190   41.8030 C   0  0  0  0  0  0  0  0  0  0  0  0
   44.5380   34.7550   42.8140 N   0  0  0  0  0  0  0  0  0  0  0  0
   45.0850   36.0940   43.1280 C   0  0  0  0  0  0  0  0  0  0  0  0
   44.7490   36.5290   44.5010 C   0  0  0  0  0  0  0  0  0  0  0  0
   44.3490   35.4130   45.3290 N   0  0  0  0  0  0  0  0  0  0  0  0
   45.2350   34.2830   45.1170 C   0  0  0  0  0  0  0  0  0  0  0  0
   45.1030   33.7530   43.7040 C   0  0  0  0  0  0  0  0  0  0  0  0
   44.7560   31.6220   40.8210 C   0  0  0  0  0  0  0  0  0  0  0  0
   43.5680   32.0300   41.4610 C   0  0  0  0  0  0  0  0  0  0  0  0
   42.9190   31.1230   42.3390 C   0  0  0  0  0  0  0  0  0  0  0  0
   43.5050   29.9140   42.4950 N   0  0  0  0  0  0  0  0  0  0  0  0
   44.6390   29.5550   41.8690 C   0  0  0  0  0  0  0  0  0  0  0  0
   45.2730   30.4250   41.0190 N   0  0  0  0  0  0  0  0  0  0  0  0
   45.2300   28.2380   42.0710 C   0  0  0  0  0  0  0  0  0  0  0  0
   45.0980   27.6190   43.1590 O   0  0  0  0  0  0  0  0  0  0  0  0
   41.6363   33.0969   39.6186 H   0  0  0  0  0  0  0  0  0  0  0  0
   41.4571   35.7852   39.7869 H   0  0  0  0  0  0  0  0  0  0  0  0
   46.1797   36.0622   43.0248 H   0  0  0  0  0  0  0  0  0  0  0  0
   44.6366   36.8138   42.4274 H   0  0  0  0  0  0  0  0  0  0  0  0
   45.6314   37.0085   44.9498 H   0  0  0  0  0  0  0  0  0  0  0  0
   43.9066   37.2340   44.4426 H   0  0  0  0  0  0  0  0  0  0  0  0
   44.3880   35.6938   46.3192 H   0  0  0  0  0  0  0  0  0  0  0  0
   46.2738   34.6025   45.2866 H   0  0  0  0  0  0  0  0  0  0  0  0
   44.9605   33.4831   45.8205 H   0  0  0  0  0  0  0  0  0  0  0  0
   44.4467   32.8703   43.7123 H   0  0  0  0  0  0  0  0  0  0  0  0
   46.1059   33.4890   43.3373 H   0  0  0  0  0  0  0  0  0  0  0  0
   45.2646   32.3196   40.1393 H   0  0  0  0  0  0  0  0  0  0  0  0
   41.9898   31.3890   42.8641 H   0  0  0  0  0  0  0  0  0  0  0  0
   45.8039   27.7749   41.2548 H   0  0  0  0  0  0  0  0  0  0  0  0
  1 13  1  0
  1  5  1  0
  2  3  2  0
  2  1  1  0
  3  4  1  0
  4  5  2  0
  5  6  1  0
  6  7  1  0
  6 11  1  0
  7  8  1  0
  8  9  1  0
 10  9  1  0
 11 10  1  0
 12 17  2  0
 12 13  1  0
 13 14  2  0
 14 15  1  0
 16 18  1  0
 16 15  2  0
 17 16  1  0
 18 19  2  0
  2 20  1  0
  3 21  1  0
  7 22  1  0
  7 23  1  0
  8 24  1  0
  8 25  1  0
  9 26  1  0
 10 27  1  0
 10 28  1  0
 11 29  1  0
 11 30  1  0
 12 31  1  0
 14 32  1  0
 18 33  1  0
M  ISO  8  20  14  21  14  22  13  23  13  24  13  25  13  26   5  27  13
M  ISO  6  28  13  29  13  30  13  31  14  32  14  33   6
M  END
>  <minimizedAffinity>  (1) 
-4.00396538

>  <minimizedRMSD>  (1) 
0.0223581139

$$$$
