
     RDKit          3D

 32 35  0  0  0  0  0  0  0  0999 V2000
   46.6440   34.8020   42.0600 C   0  0  0  0  0  0  0  0  0  0  0  0
   47.9240   35.3220   41.9740 C   0  0  0  0  0  0  0  0  0  0  0  0
   48.7380   35.1920   40.8700 C   0  0  0  0  0  0  0  0  0  0  0  0
   48.2750   34.5060   39.7730 C   0  0  0  0  0  0  0  0  0  0  0  0
   47.0130   33.9620   39.7890 C   0  0  0  0  0  0  0  0  0  0  0  0
   46.5410   33.2770   38.6930 C   0  0  0  0  0  0  0  0  0  0  0  0
   45.2780   32.7210   38.6680 C   0  0  0  0  0  0  0  0  0  0  0  0
   44.5170   32.8980   39.8230 C   0  0  0  0  0  0  0  0  0  0  0  0
   45.0160   33.5780   40.8820 C   0  0  0  0  0  0  0  0  0  0  0  0
   46.2680   34.1340   40.9200 C   0  0  0  0  0  0  0  0  0  0  0  0
   44.3820   36.0300   44.8660 C   0  0  0  0  0  0  0  0  0  0  0  0
   45.0030   35.9850   43.6310 C   0  0  0  0  0  0  0  0  0  0  0  0
   45.9150   35.0100   43.2810 C   0  0  0  0  0  0  0  0  0  0  0  0
   46.1360   34.1030   44.2800 N   0  0  0  0  0  0  0  0  0  0  0  0
   45.5510   34.1250   45.4760 C   0  0  0  0  0  0  0  0  0  0  0  0
   44.6770   35.0940   45.7530 N   0  0  0  0  0  0  0  0  0  0  0  0
   45.8730   33.1140   46.4280 N   0  0  0  0  0  0  0  0  0  0  0  0
   46.8070   32.1480   46.4680 C   0  0  0  0  0  0  0  0  0  0  0  0
   46.6770   31.4530   47.6130 N   0  0  0  0  0  0  0  0  0  0  0  0
   45.6390   31.9980   48.3010 C   0  0  0  0  0  0  0  0  0  0  0  0
   45.1570   33.0260   47.5460 N   0  0  0  0  0  0  0  0  0  0  0  0
   48.3158   35.8735   42.8414 H   0  0  0  0  0  0  0  0  0  0  0  0
   49.7462   35.6320   40.8668 H   0  0  0  0  0  0  0  0  0  0  0  0
   48.9130   34.3925   38.8841 H   0  0  0  0  0  0  0  0  0  0  0  0
   47.1893   33.1693   37.8109 H   0  0  0  0  0  0  0  0  0  0  0  0
   44.8964   32.1736   37.7935 H   0  0  0  0  0  0  0  0  0  0  0  0
   43.5005   32.4807   39.8742 H   0  0  0  0  0  0  0  0  0  0  0  0
   44.3753   33.6915   41.7689 H   0  0  0  0  0  0  0  0  0  0  0  0
   43.6602   36.8249   45.1049 H   0  0  0  0  0  0  0  0  0  0  0  0
   44.7585   36.7630   42.8929 H   0  0  0  0  0  0  0  0  0  0  0  0
   47.5586   31.9560   45.6881 H   0  0  0  0  0  0  0  0  0  0  0  0
   45.2599   31.6717   49.2807 H   0  0  0  0  0  0  0  0  0  0  0  0
  1 13  1  0
  2  1  2  0
  3  2  1  0
  4  5  1  0
  4  3  2  0
  5 10  2  0
  6  5  1  0
  7  6  2  0
  7  8  1  0
  8  9  2  0
  9 10  1  0
 10  1  1  0
 11 16  2  0
 12 11  1  0
 13 12  2  0
 13 14  1  0
 14 15  2  0
 15 16  1  0
 15 17  1  0
 17 18  1  0
 17 21  1  0
 18 19  2  0
 19 20  1  0
 21 20  2  0
  2 22  1  0
  3 23  1  0
  4 24  1  0
  6 25  1  0
  7 26  1  0
  8 27  1  0
  9 28  1  0
 11 29  1  0
 12 30  1  0
 18 31  1  0
 20 32  1  0
M  ISO  8  22  14  23  14  24  14  25  14  26  14  27  14  28  14  29  14
M  ISO  3  30  14  31  14  32  14
M  END
>  <minimizedAffinity>  (1) 
-7.07219744

>  <minimizedRMSD>  (1) 
0.156686693

$$$$
