
     RDKit          3D

 38 41  0  0  1  0  0  0  0  0999 V2000
   44.4890   35.8350   44.8200 C   0  0  0  0  0  0  0  0  0  0  0  0
   44.8430   35.5680   43.4790 C   0  0  0  0  0  0  0  0  0  0  0  0
   45.5390   34.3840   43.2150 C   0  0  0  0  0  0  0  0  0  0  0  0
   45.8260   33.5780   44.2600 N   0  0  0  0  0  0  0  0  0  0  0  0
   45.4800   33.8550   45.5170 C   0  0  0  0  0  0  0  0  0  0  0  0
   44.8070   34.9880   45.8130 N   0  0  0  0  0  0  0  0  0  0  0  0
   45.8250   32.9520   46.5370 N   0  0  0  0  0  0  0  0  0  0  0  0
   45.1210   32.6890   47.7610 C   0  0  0  0  0  0  0  0  0  0  0  0
   46.2890   32.3820   48.6930 C   0  0  0  0  0  0  0  0  0  0  0  0
   47.0140   31.3630   47.8170 C   0  0  0  0  0  0  0  0  0  0  0  0
   47.0270   32.0920   46.5020 C   0  0  1  0  0  0  0  0  0  0  0  0
   46.9700   31.1760   45.3440 C   0  0  0  0  0  0  0  0  0  0  0  0
   47.8090   31.3610   44.2610 C   0  0  0  0  0  0  0  0  0  0  0  0
   47.7780   30.5160   43.1570 C   0  0  0  0  0  0  0  0  0  0  0  0
   46.8970   29.4500   43.1070 C   0  0  0  0  0  0  0  0  0  0  0  0
   46.0510   29.2460   44.1780 C   0  0  0  0  0  0  0  0  0  0  0  0
   45.1660   28.1890   44.1450 C   0  0  0  0  0  0  0  0  0  0  0  0
   44.2970   27.9460   45.1970 C   0  0  0  0  0  0  0  0  0  0  0  0
   44.3500   28.7970   46.2730 C   0  0  0  0  0  0  0  0  0  0  0  0
   45.2460   29.8470   46.2790 C   0  0  0  0  0  0  0  0  0  0  0  0
   46.1080   30.1070   45.2590 C   0  0  0  0  0  0  0  0  0  0  0  0
   43.9400   36.7583   45.0569 H   0  0  0  0  0  0  0  0  0  0  0  0
   44.5806   36.2666   42.6708 H   0  0  0  0  0  0  0  0  0  0  0  0
   45.8422   34.1184   42.1915 H   0  0  0  0  0  0  0  0  0  0  0  0
   44.5518   33.5675   48.0990 H   0  0  0  0  0  0  0  0  0  0  0  0
   44.3665   31.8914   47.6936 H   0  0  0  0  0  0  0  0  0  0  0  0
   46.9055   33.2710   48.8919 H   0  0  0  0  0  0  0  0  0  0  0  0
   46.0179   32.0382   49.7021 H   0  0  0  0  0  0  0  0  0  0  0  0
   48.0327   31.1656   48.1820 H   0  0  0  0  0  0  0  0  0  0  0  0
   46.5440   30.3690   47.7854 H   0  0  0  0  0  0  0  0  0  0  0  0
   47.9609   32.6598   46.3777 H   0  0  0  0  0  0  0  0  0  0  0  0
   48.5207   32.1997   44.2728 H   0  0  0  0  0  0  0  0  0  0  0  0
   48.4613   30.6969   42.3142 H   0  0  0  0  0  0  0  0  0  0  0  0
   46.8717   28.7810   42.2342 H   0  0  0  0  0  0  0  0  0  0  0  0
   45.1494   27.5262   43.2672 H   0  0  0  0  0  0  0  0  0  0  0  0
   43.5912   27.1027   45.1708 H   0  0  0  0  0  0  0  0  0  0  0  0
   43.6785   28.6421   47.1303 H   0  0  0  0  0  0  0  0  0  0  0  0
   45.2641   30.5099   47.1566 H   0  0  0  0  0  0  0  0  0  0  0  0
  1  6  2  0
  2  1  1  0
  3  2  2  0
  3  4  1  0
  4  5  2  0
  5  6  1  0
  5  7  1  0
  7  8  1  0
  8  9  1  0
 10  9  1  0
 11  7  1  0
 11 10  1  0
 12 11  1  0
 13 12  2  0
 14 13  1  0
 15 14  2  0
 15 16  1  0
 16 21  2  0
 17 16  1  0
 17 18  2  0
 18 19  1  0
 19 20  2  0
 21 12  1  0
 21 20  1  0
  1 22  1  0
  2 23  1  0
  3 24  1  0
  8 25  1  0
  8 26  1  0
  9 27  1  0
  9 28  1  0
 10 29  1  0
 10 30  1  0
 11 31  1  6
 13 32  1  0
 14 33  1  0
 15 34  1  0
 17 35  1  0
 18 36  1  0
 19 37  1  0
 20 38  1  0
M  ISO  8  22  14  23  14  24  14  25  13  26  13  27  13  28  13  29  13
M  ISO  8  30  13  31  13  32  14  33  14  34  14  35  14  36  14  37  14
M  ISO  1  38  14
M  END
>  <minimizedAffinity>  (1) 
-5.21132612

>  <minimizedRMSD>  (1) 
1.53637278

$$$$
