
     RDKit          3D

 35 38  0  0  1  0  0  0  0  0999 V2000
   44.4110   35.9860   44.7810 C   0  0  0  0  0  0  0  0  0  0  0  0
   44.5670   35.7720   43.3890 C   0  0  0  0  0  0  0  0  0  0  0  0
   45.1910   34.6000   42.9540 C   0  0  0  0  0  0  0  0  0  0  0  0
   45.6110   33.7350   43.9080 N   0  0  0  0  0  0  0  0  0  0  0  0
   45.4540   33.9580   45.2130 C   0  0  0  0  0  0  0  0  0  0  0  0
   44.8560   35.0780   45.6750 N   0  0  0  0  0  0  0  0  0  0  0  0
   45.9300   32.9960   46.1210 N   0  0  0  0  0  0  0  0  0  0  0  0
   45.4040   32.6530   47.4180 C   0  0  0  0  0  0  0  0  0  0  0  0
   46.6950   32.3160   48.1580 C   0  0  0  0  0  0  0  0  0  0  0  0
   47.2510   31.3140   47.1260 C   0  0  0  0  0  0  0  0  0  0  0  0
   47.0920   32.1450   45.8910 C   0  0  1  0  0  0  0  0  0  0  0  0
   47.0600   31.4160   44.6610 N   0  0  0  0  0  0  0  0  0  0  0  0
   46.2490   30.3610   44.4080 C   0  0  0  0  0  0  0  0  0  0  0  0
   46.4500   29.8870   43.1650 N   0  0  0  0  0  0  0  0  0  0  0  0
   47.4030   30.6320   42.5750 C   0  0  0  0  0  0  0  0  0  0  0  0
   48.0010   30.6120   41.3400 C   0  0  0  0  0  0  0  0  0  0  0  0
   48.9480   31.5250   41.0640 N   0  0  0  0  0  0  0  0  0  0  0  0
   49.3140   32.4490   41.9730 C   0  0  0  0  0  0  0  0  0  0  0  0
   48.7130   32.4580   43.1930 N   0  0  0  0  0  0  0  0  0  0  0  0
   47.7640   31.5740   43.5270 C   0  0  0  0  0  0  0  0  0  0  0  0
   47.5880   29.6270   40.4150 N   0  0  0  0  0  0  0  0  0  0  0  0
   43.9209   36.9040   45.1376 H   0  0  0  0  0  0  0  0  0  0  0  0
   44.2034   36.5151   42.6640 H   0  0  0  0  0  0  0  0  0  0  0  0
   45.3348   34.3891   41.8840 H   0  0  0  0  0  0  0  0  0  0  0  0
   44.8794   33.5016   47.8814 H   0  0  0  0  0  0  0  0  0  0  0  0
   44.6544   31.8480   47.4117 H   0  0  0  0  0  0  0  0  0  0  0  0
   47.3470   33.1926   48.2863 H   0  0  0  0  0  0  0  0  0  0  0  0
   46.5885   31.9500   49.1898 H   0  0  0  0  0  0  0  0  0  0  0  0
   48.3036   31.0610   47.3212 H   0  0  0  0  0  0  0  0  0  0  0  0
   46.7570   30.3314   47.1042 H   0  0  0  0  0  0  0  0  0  0  0  0
   47.9945   32.7544   45.7358 H   0  0  0  0  0  0  0  0  0  0  0  0
   45.5230   29.9471   45.1233 H   0  0  0  0  0  0  0  0  0  0  0  0
   50.0912   33.1889   41.7311 H   0  0  0  0  0  0  0  0  0  0  0  0
   48.0179   29.5861   39.4799 H   0  0  0  0  0  0  0  0  0  0  0  0
   46.8570   28.9498   40.6758 H   0  0  0  0  0  0  0  0  0  0  0  0
  1  6  2  0
  2  1  1  0
  3  2  2  0
  3  4  1  0
  4  5  2  0
  5  6  1  0
  5  7  1  0
  7  8  1  0
  8  9  1  0
 10  9  1  0
 11  7  1  0
 11 10  1  0
 12 11  1  0
 13 12  1  0
 14 13  2  0
 15 14  1  0
 15 20  2  0
 16 15  1  0
 17 16  2  0
 17 18  1  0
 18 19  2  0
 19 20  1  0
 20 12  1  0
 21 16  1  0
  1 22  1  0
  2 23  1  0
  3 24  1  0
  8 25  1  0
  8 26  1  0
  9 27  1  0
  9 28  1  0
 10 29  1  0
 10 30  1  0
 11 31  1  6
 13 32  1  0
 18 33  1  0
 21 34  1  0
 21 35  1  0
M  ISO  8  22  14  23  14  24  14  25  13  26  13  27  13  28  13  29  13
M  ISO  4  30  13  31  13  32  14  33  14
M  END
>  <minimizedAffinity>  (1) 
-4.75586987

>  <minimizedRMSD>  (1) 
1.37072515

$$$$
