
     RDKit          3D

 32 34  0  0  1  0  0  0  0  0999 V2000
   44.4590   35.9460   44.7940 C   0  0  0  0  0  0  0  0  0  0  0  0
   44.7500   35.7060   43.4280 C   0  0  0  0  0  0  0  0  0  0  0  0
   45.4190   34.5210   43.1060 C   0  0  0  0  0  0  0  0  0  0  0  0
   45.7470   33.6720   44.1160 N   0  0  0  0  0  0  0  0  0  0  0  0
   45.4560   33.9290   45.4000 C   0  0  0  0  0  0  0  0  0  0  0  0
   44.8140   35.0600   45.7480 N   0  0  0  0  0  0  0  0  0  0  0  0
   45.8360   32.9930   46.3620 N   0  0  0  0  0  0  0  0  0  0  0  0
   45.1700   32.7090   47.6150 C   0  0  0  0  0  0  0  0  0  0  0  0
   46.3480   32.3660   48.4910 C   0  0  0  0  0  0  0  0  0  0  0  0
   47.0570   31.3680   47.5680 C   0  0  0  0  0  0  0  0  0  0  0  0
   47.0120   32.1100   46.2710 C   0  0  1  0  0  0  0  0  0  0  0  0
   46.9830   31.2810   45.0630 C   0  0  0  0  0  0  0  0  0  0  0  0
   45.9950   30.3220   44.8690 C   0  0  0  0  0  0  0  0  0  0  0  0
   45.9570   29.5310   43.7320 C   0  0  0  0  0  0  0  0  0  0  0  0
   46.9460   29.7180   42.7660 C   0  0  0  0  0  0  0  0  0  0  0  0
   47.9530   30.6630   42.9150 C   0  0  0  0  0  0  0  0  0  0  0  0
   47.9490   31.4270   44.0660 C   0  0  0  0  0  0  0  0  0  0  0  0
   43.9352   36.8696   45.0814 H   0  0  0  0  0  0  0  0  0  0  0  0
   44.4600   36.4262   42.6488 H   0  0  0  0  0  0  0  0  0  0  0  0
   45.6732   34.2820   42.0628 H   0  0  0  0  0  0  0  0  0  0  0  0
   44.6270   33.5878   47.9929 H   0  0  0  0  0  0  0  0  0  0  0  0
   44.4035   31.9223   47.5548 H   0  0  0  0  0  0  0  0  0  0  0  0
   46.9730   33.2459   48.7035 H   0  0  0  0  0  0  0  0  0  0  0  0
   46.0960   31.9854   49.4918 H   0  0  0  0  0  0  0  0  0  0  0  0
   48.0913   31.1805   47.8920 H   0  0  0  0  0  0  0  0  0  0  0  0
   46.5988   30.3684   47.5384 H   0  0  0  0  0  0  0  0  0  0  0  0
   47.9543   32.6635   46.1454 H   0  0  0  0  0  0  0  0  0  0  0  0
   45.2219   30.1875   45.6398 H   0  0  0  0  0  0  0  0  0  0  0  0
   45.1686   28.7763   43.5948 H   0  0  0  0  0  0  0  0  0  0  0  0
   46.9278   29.0976   41.8578 H   0  0  0  0  0  0  0  0  0  0  0  0
   48.7260   30.7982   42.1441 H   0  0  0  0  0  0  0  0  0  0  0  0
   48.7387   32.1806   44.2023 H   0  0  0  0  0  0  0  0  0  0  0  0
  1  6  2  0
  2  1  1  0
  3  2  2  0
  3  4  1  0
  4  5  2  0
  5  6  1  0
  5  7  1  0
  7  8  1  0
  8  9  1  0
 10  9  1  0
 11  7  1  0
 11 10  1  0
 12 11  1  0
 13 12  2  0
 14 13  1  0
 15 16  1  0
 15 14  2  0
 16 17  2  0
 17 12  1  0
  1 18  1  0
  2 19  1  0
  3 20  1  0
  8 21  1  0
  8 22  1  0
  9 23  1  0
  9 24  1  0
 10 25  1  0
 10 26  1  0
 11 27  1  6
 13 28  1  0
 14 29  1  0
 15 30  1  0
 16 31  1  0
 17 32  1  0
M  ISO  8  18  14  19  14  20  14  21  13  22  13  23  13  24  13  25  13
M  ISO  7  26  13  27  13  28  14  29  14  30  14  31  14  32  14
M  END
>  <minimizedAffinity>  (1) 
-4.47952938

>  <minimizedRMSD>  (1) 
0.956581235

$$$$
