
     RDKit          3D

 28 30  0  0  1  0  0  0  0  0999 V2000
   44.5120   35.8380   44.8670 C   0  0  0  0  0  0  0  0  0  0  0  0
   44.9550   35.5710   43.5550 C   0  0  0  0  0  0  0  0  0  0  0  0
   45.6900   34.3800   43.3230 C   0  0  0  0  0  0  0  0  0  0  0  0
   45.9160   33.5720   44.3930 N   0  0  0  0  0  0  0  0  0  0  0  0
   45.4690   33.8710   45.6350 C   0  0  0  0  0  0  0  0  0  0  0  0
   44.7800   34.9890   45.8550 N   0  0  0  0  0  0  0  0  0  0  0  0
   45.7630   32.9630   46.6560 N   0  0  0  0  0  0  0  0  0  0  0  0
   44.9570   32.6990   47.8210 C   0  0  0  0  0  0  0  0  0  0  0  0
   46.0320   32.3970   48.8550 C   0  0  0  0  0  0  0  0  0  0  0  0
   46.8770   31.4100   48.0590 C   0  0  0  0  0  0  0  0  0  0  0  0
   46.9600   32.1030   46.7310 C   0  0  1  0  0  0  0  0  0  0  0  0
   46.9690   31.1140   45.5950 C   0  0  0  0  0  0  0  0  0  0  0  0
   45.9480   30.1620   45.4290 C   0  0  0  0  0  0  0  0  0  0  0  0
   46.4470   29.2540   43.9440 S   0  0  0  0  0  0  0  0  0  0  0  0
   47.9980   30.3460   43.7900 C   0  0  0  0  0  0  0  0  0  0  0  0
   47.8940   31.0350   44.6680 N   0  0  0  0  0  0  0  0  0  0  0  0
   43.9408   36.7549   45.0746 H   0  0  0  0  0  0  0  0  0  0  0  0
   44.7363   36.2682   42.7328 H   0  0  0  0  0  0  0  0  0  0  0  0
   46.0612   34.1212   42.3204 H   0  0  0  0  0  0  0  0  0  0  0  0
   44.3581   33.5768   48.1053 H   0  0  0  0  0  0  0  0  0  0  0  0
   44.2170   31.8960   47.6882 H   0  0  0  0  0  0  0  0  0  0  0  0
   46.6018   33.2970   49.1293 H   0  0  0  0  0  0  0  0  0  0  0  0
   45.6608   32.0230   49.8206 H   0  0  0  0  0  0  0  0  0  0  0  0
   47.8726   31.2779   48.5078 H   0  0  0  0  0  0  0  0  0  0  0  0
   46.4600   30.3932   48.0126 H   0  0  0  0  0  0  0  0  0  0  0  0
   47.8908   32.6827   46.6443 H   0  0  0  0  0  0  0  0  0  0  0  0
   45.0563   30.0056   46.0538 H   0  0  0  0  0  0  0  0  0  0  0  0
   48.7943   30.3101   43.0319 H   0  0  0  0  0  0  0  0  0  0  0  0
  1  6  2  0
  2  1  1  0
  3  2  2  0
  3  4  1  0
  4  5  2  0
  5  6  1  0
  5  7  1  0
  7 11  1  0
  7  8  1  0
  8  9  1  0
 10  9  1  0
 11 10  1  0
 12 11  1  0
 13 12  2  0
 14 13  1  0
 15 14  1  0
 15 16  2  0
 16 12  1  0
  1 17  1  0
  2 18  1  0
  3 19  1  0
  8 20  1  0
  8 21  1  0
  9 22  1  0
  9 23  1  0
 10 24  1  0
 10 25  1  0
 11 26  1  1
 13 27  1  0
 15 28  1  0
M  ISO  8  17  14  18  14  19  14  20  13  21  13  22  13  23  13  24  13
M  ISO  4  25  13  26  13  27  14  28  14
M  END
>  <minimizedAffinity>  (1) 
-4.4568572

>  <minimizedRMSD>  (1) 
0.881925642

$$$$
