
     RDKit          3D

 37 39  0  0  1  0  0  0  0  0999 V2000
   44.4550   35.9280   44.7870 C   0  0  0  0  0  0  0  0  0  0  0  0
   44.6890   35.6960   43.4190 C   0  0  0  0  0  0  0  0  0  0  0  0
   45.3440   34.5000   43.0690 C   0  0  0  0  0  0  0  0  0  0  0  0
   45.7130   33.6400   44.0610 N   0  0  0  0  0  0  0  0  0  0  0  0
   45.4660   33.9070   45.3580 C   0  0  0  0  0  0  0  0  0  0  0  0
   44.8390   35.0500   45.7100 N   0  0  0  0  0  0  0  0  0  0  0  0
   45.8750   32.9730   46.3050 N   0  0  0  0  0  0  0  0  0  0  0  0
   45.2500   32.6970   47.5800 C   0  0  0  0  0  0  0  0  0  0  0  0
   46.4600   32.3430   48.4290 C   0  0  0  0  0  0  0  0  0  0  0  0
   47.1310   31.3340   47.4730 C   0  0  0  0  0  0  0  0  0  0  0  0
   47.0220   32.0890   46.1960 C   0  0  1  0  0  0  0  0  0  0  0  0
   47.0430   31.3130   44.9980 N   0  0  0  0  0  0  0  0  0  0  0  0
   45.6740   31.1980   44.5300 C   0  0  0  0  0  0  0  0  0  0  0  0
   45.5300   30.1520   43.4540 C   0  0  0  0  0  0  0  0  0  0  0  0
   46.5640   30.4940   42.3920 C   0  0  0  0  0  0  0  0  0  0  0  0
   47.2120   31.8370   42.6440 C   0  0  0  0  0  0  0  0  0  0  0  0
   47.9360   31.7860   43.9790 C   0  0  0  0  0  0  0  0  0  0  0  0
   43.9455   36.8517   45.0989 H   0  0  0  0  0  0  0  0  0  0  0  0
   44.3728   36.4201   42.6537 H   0  0  0  0  0  0  0  0  0  0  0  0
   45.5542   34.2637   42.0154 H   0  0  0  0  0  0  0  0  0  0  0  0
   44.7265   33.5812   47.9725 H   0  0  0  0  0  0  0  0  0  0  0  0
   44.4775   31.9147   47.5451 H   0  0  0  0  0  0  0  0  0  0  0  0
   47.0992   33.2170   48.6227 H   0  0  0  0  0  0  0  0  0  0  0  0
   46.2386   31.9664   49.4385 H   0  0  0  0  0  0  0  0  0  0  0  0
   48.1789   31.1436   47.7481 H   0  0  0  0  0  0  0  0  0  0  0  0
   46.6797   30.3309   47.4618 H   0  0  0  0  0  0  0  0  0  0  0  0
   47.9466   32.6719   46.0717 H   0  0  0  0  0  0  0  0  0  0  0  0
   45.0304   30.9247   45.3791 H   0  0  0  0  0  0  0  0  0  0  0  0
   45.3790   32.1676   44.1024 H   0  0  0  0  0  0  0  0  0  0  0  0
   45.7233   29.1508   43.8666 H   0  0  0  0  0  0  0  0  0  0  0  0
   44.5125   30.1429   43.0360 H   0  0  0  0  0  0  0  0  0  0  0  0
   46.0698   30.5169   41.4095 H   0  0  0  0  0  0  0  0  0  0  0  0
   47.3507   29.7258   42.4239 H   0  0  0  0  0  0  0  0  0  0  0  0
   47.9310   32.0575   41.8412 H   0  0  0  0  0  0  0  0  0  0  0  0
   46.4451   32.6253   42.6635 H   0  0  0  0  0  0  0  0  0  0  0  0
   48.7962   31.1048   43.9022 H   0  0  0  0  0  0  0  0  0  0  0  0
   48.2852   32.7954   44.2418 H   0  0  0  0  0  0  0  0  0  0  0  0
  1  6  2  0
  2  1  1  0
  3  2  2  0
  3  4  1  0
  4  5  2  0
  5  6  1  0
  5  7  1  0
  7  8  1  0
  8  9  1  0
 10  9  1  0
 11  7  1  0
 11 10  1  0
 12 11  1  0
 13 12  1  0
 14 13  1  0
 15 16  1  0
 15 14  1  0
 16 17  1  0
 17 12  1  0
  1 18  1  0
  2 19  1  0
  3 20  1  0
  8 21  1  0
  8 22  1  0
  9 23  1  0
  9 24  1  0
 10 25  1  0
 10 26  1  0
 11 27  1  6
 13 28  1  0
 13 29  1  0
 14 30  1  0
 14 31  1  0
 15 32  1  0
 15 33  1  0
 16 34  1  0
 16 35  1  0
 17 36  1  0
 17 37  1  0
M  ISO  8  18  14  19  14  20  14  21  13  22  13  23  13  24  13  25  13
M  ISO  8  26  13  27  13  28  13  29  13  30  13  31  13  32  13  33  13
M  ISO  4  34  13  35  13  36  13  37  13
M  END
>  <minimizedAffinity>  (1) 
-4.44992113

>  <minimizedRMSD>  (1) 
1.05384934

$$$$
