
     RDKit          3D

 30 32  0  0  1  0  0  0  0  0999 V2000
   44.5150   35.8900   44.7620 C   0  0  0  0  0  0  0  0  0  0  0  0
   44.7770   35.5840   43.4130 C   0  0  0  0  0  0  0  0  0  0  0  0
   45.3910   34.3550   43.1250 C   0  0  0  0  0  0  0  0  0  0  0  0
   45.6940   33.5400   44.1630 N   0  0  0  0  0  0  0  0  0  0  0  0
   45.4350   33.8530   45.4360 C   0  0  0  0  0  0  0  0  0  0  0  0
   44.8450   35.0280   45.7480 N   0  0  0  0  0  0  0  0  0  0  0  0
   45.7800   32.9540   46.4480 N   0  0  0  0  0  0  0  0  0  0  0  0
   45.1300   32.7360   47.7070 C   0  0  0  0  0  0  0  0  0  0  0  0
   46.3020   32.3780   48.5950 C   0  0  0  0  0  0  0  0  0  0  0  0
   46.9970   31.3520   47.6980 C   0  0  0  0  0  0  0  0  0  0  0  0
   46.9190   32.0490   46.3760 C   0  0  1  0  0  0  0  0  0  0  0  0
   46.8760   31.1330   45.2280 C   0  0  0  0  0  0  0  0  0  0  0  0
   47.8370   31.0460   44.2410 C   0  0  0  0  0  0  0  0  0  0  0  0
   47.6660   30.1300   43.2080 C   0  0  0  0  0  0  0  0  0  0  0  0
   46.5800   29.3130   43.1380 N   0  0  0  0  0  0  0  0  0  0  0  0
   45.6580   29.4280   44.1260 C   0  0  0  0  0  0  0  0  0  0  0  0
   45.8160   30.3080   45.1230 N   0  0  0  0  0  0  0  0  0  0  0  0
   44.0341   36.8459   45.0169 H   0  0  0  0  0  0  0  0  0  0  0  0
   44.5089   36.2861   42.6098 H   0  0  0  0  0  0  0  0  0  0  0  0
   45.6187   34.0633   42.0891 H   0  0  0  0  0  0  0  0  0  0  0  0
   44.6221   33.6458   48.0596 H   0  0  0  0  0  0  0  0  0  0  0  0
   44.3404   31.9707   47.6770 H   0  0  0  0  0  0  0  0  0  0  0  0
   46.9442   33.2479   48.7968 H   0  0  0  0  0  0  0  0  0  0  0  0
   46.0345   32.0162   49.5988 H   0  0  0  0  0  0  0  0  0  0  0  0
   48.0390   31.1822   48.0068 H   0  0  0  0  0  0  0  0  0  0  0  0
   46.5466   30.3486   47.7146 H   0  0  0  0  0  0  0  0  0  0  0  0
   47.8422   32.6180   46.1918 H   0  0  0  0  0  0  0  0  0  0  0  0
   48.7265   31.6925   44.2708 H   0  0  0  0  0  0  0  0  0  0  0  0
   48.4333   30.0640   42.4226 H   0  0  0  0  0  0  0  0  0  0  0  0
   44.7643   28.7869   44.1081 H   0  0  0  0  0  0  0  0  0  0  0  0
  1  6  2  0
  2  1  1  0
  3  2  2  0
  3  4  1  0
  4  5  2  0
  5  6  1  0
  5  7  1  0
  7  8  1  0
  8  9  1  0
 10  9  1  0
 11  7  1  0
 11 10  1  0
 12 11  1  0
 13 12  2  0
 14 13  1  0
 15 14  2  0
 15 16  1  0
 16 17  2  0
 17 12  1  0
  1 18  1  0
  2 19  1  0
  3 20  1  0
  8 21  1  0
  8 22  1  0
  9 23  1  0
  9 24  1  0
 10 25  1  0
 10 26  1  0
 11 27  1  6
 13 28  1  0
 14 29  1  0
 16 30  1  0
M  ISO  8  18  14  19  14  20  14  21  13  22  13  23  13  24  13  25  13
M  ISO  5  26  13  27  13  28  14  29  14  30  14
M  END
>  <minimizedAffinity>  (1) 
-4.43110514

>  <minimizedRMSD>  (1) 
0.95151931

$$$$
