
     RDKit          3D

 25 26  0  0  1  0  0  0  0  0999 V2000
   44.5120   35.8020   44.8510 C   0  0  0  0  0  0  0  0  0  0  0  0
   45.0130   35.5510   43.5610 C   0  0  0  0  0  0  0  0  0  0  0  0
   45.8060   34.3890   43.3540 C   0  0  0  0  0  0  0  0  0  0  0  0
   46.0230   33.5940   44.4340 N   0  0  0  0  0  0  0  0  0  0  0  0
   45.5200   33.8750   45.6590 C   0  0  0  0  0  0  0  0  0  0  0  0
   44.7760   34.9620   45.8620 N   0  0  0  0  0  0  0  0  0  0  0  0
   45.8240   32.9630   46.6890 N   0  0  0  0  0  0  0  0  0  0  0  0
   44.9480   32.6530   47.8090 C   0  0  0  0  0  0  0  0  0  0  0  0
   45.9440   32.3400   48.8800 C   0  0  0  0  0  0  0  0  0  0  0  0
   46.9320   31.4650   48.1290 C   0  0  0  0  0  0  0  0  0  0  0  0
   47.0460   32.1820   46.8130 C   0  0  1  0  0  0  0  0  0  0  0  0
   47.2760   31.2710   45.6420 C   0  0  0  0  0  0  0  0  0  0  0  0
   43.8976   36.6962   45.0322 H   0  0  0  0  0  0  0  0  0  0  0  0
   44.7961   36.2386   42.7303 H   0  0  0  0  0  0  0  0  0  0  0  0
   46.2240   34.1453   42.3661 H   0  0  0  0  0  0  0  0  0  0  0  0
   44.3213   33.5151   48.0810 H   0  0  0  0  0  0  0  0  0  0  0  0
   44.2303   31.8435   47.6098 H   0  0  0  0  0  0  0  0  0  0  0  0
   46.4248   33.2532   49.2608 H   0  0  0  0  0  0  0  0  0  0  0  0
   45.5094   31.8627   49.7707 H   0  0  0  0  0  0  0  0  0  0  0  0
   47.9018   31.4223   48.6463 H   0  0  0  0  0  0  0  0  0  0  0  0
   46.6146   30.4158   48.0367 H   0  0  0  0  0  0  0  0  0  0  0  0
   47.9395   32.8235   46.8008 H   0  0  0  0  0  0  0  0  0  0  0  0
   47.5302   30.2642   46.0051 H   0  0  0  0  0  0  0  0  0  0  0  0
   46.3623   31.2208   45.0315 H   0  0  0  0  0  0  0  0  0  0  0  0
   48.1040   31.6605   45.0315 H   0  0  0  0  0  0  0  0  0  0  0  0
  1  6  2  0
  2  1  1  0
  3  2  2  0
  3  4  1  0
  4  5  2  0
  5  6  1  0
  5  7  1  0
  7 11  1  0
  7  8  1  0
  8  9  1  0
 10  9  1  0
 11 10  1  0
 12 11  1  0
  1 13  1  0
  2 14  1  0
  3 15  1  0
  8 16  1  0
  8 17  1  0
  9 18  1  0
  9 19  1  0
 10 20  1  0
 10 21  1  0
 11 22  1  1
 12 23  1  0
 12 24  1  0
 12 25  1  0
M  ISO  8  13  14  14  14  15  14  16  13  17  13  18  13  19  13  20  13
M  ISO  5  21  13  22  13  23   8  24   8  25   8
M  END
>  <minimizedAffinity>  (1) 
-4.37686777

>  <minimizedRMSD>  (1) 
0.193423793

$$$$
