
     RDKit          3D

 25 26  0  0  1  0  0  0  0  0999 V2000
   46.0370   34.2350   44.8820 C   0  0  0  0  0  0  0  0  0  0  0  0
   46.8910   33.6220   43.9180 C   0  0  0  0  0  0  0  0  0  0  0  0
   47.3790   32.3150   44.1900 C   0  0  0  0  0  0  0  0  0  0  0  0
   46.9860   31.7510   45.3600 N   0  0  0  0  0  0  0  0  0  0  0  0
   46.1770   32.3660   46.2460 C   0  0  0  0  0  0  0  0  0  0  0  0
   45.7160   33.5890   45.9990 N   0  0  0  0  0  0  0  0  0  0  0  0
   45.8630   31.6500   47.4050 N   0  0  0  0  0  0  0  0  0  0  0  0
   44.6070   31.7750   48.1520 C   0  0  0  0  0  0  0  0  0  0  0  0
   45.0960   31.5300   49.5510 C   0  0  0  0  0  0  0  0  0  0  0  0
   45.9280   30.2680   49.3150 C   0  0  0  0  0  0  0  0  0  0  0  0
   46.6980   30.6650   48.0820 C   0  0  2  0  0  0  0  0  0  0  0  0
   48.0790   31.1590   48.3970 C   0  0  0  0  0  0  0  0  0  0  0  0
   48.4620   30.8450   49.6830 F   0  0  0  0  0  0  0  0  0  0  0  0
   48.1380   32.5360   48.3150 F   0  0  0  0  0  0  0  0  0  0  0  0
   49.0170   30.5630   47.5700 F   0  0  0  0  0  0  0  0  0  0  0  0
   45.6425   35.2457   44.7008 H   0  0  0  0  0  0  0  0  0  0  0  0
   47.1643   34.1459   42.9902 H   0  0  0  0  0  0  0  0  0  0  0  0
   48.0415   31.7876   43.4879 H   0  0  0  0  0  0  0  0  0  0  0  0
   44.1686   32.7782   48.0447 H   0  0  0  0  0  0  0  0  0  0  0  0
   43.8067   31.0970   47.8205 H   0  0  0  0  0  0  0  0  0  0  0  0
   45.7114   32.3630   49.9216 H   0  0  0  0  0  0  0  0  0  0  0  0
   44.3066   31.4331   50.3109 H   0  0  0  0  0  0  0  0  0  0  0  0
   46.5986   30.0608   50.1620 H   0  0  0  0  0  0  0  0  0  0  0  0
   45.3374   29.3464   49.2064 H   0  0  0  0  0  0  0  0  0  0  0  0
   46.8877   29.8026   47.4261 H   0  0  0  0  0  0  0  0  0  0  0  0
  1  6  2  0
  2  3  2  0
  2  1  1  0
  3  4  1  0
  4  5  2  0
  5  7  1  0
  6  5  1  0
  7 11  1  0
  7  8  1  0
  8  9  1  0
 10  9  1  0
 11 12  1  0
 11 10  1  0
 12 13  1  0
 14 12  1  0
 15 12  1  0
  1 16  1  0
  2 17  1  0
  3 18  1  0
  8 19  1  0
  8 20  1  0
  9 21  1  0
  9 22  1  0
 10 23  1  0
 10 24  1  0
 11 25  1  6
M  ISO  8  16  14  17  14  18  14  19  13  20  13  21  13  22  13  23  13
M  ISO  2  24  13  25  13
M  END
>  <minimizedAffinity>  (1) 
-4.05831814

>  <minimizedRMSD>  (1) 
2.25020695

$$$$
