
     RDKit          3D

 28 29  0  0  1  0  0  0  0  0999 V2000
   45.4640   34.5140   44.8900 C   0  0  0  0  0  0  0  0  0  0  0  0
   46.4680   34.1940   43.9540 C   0  0  0  0  0  0  0  0  0  0  0  0
   47.2830   33.0660   44.2260 C   0  0  0  0  0  0  0  0  0  0  0  0
   47.0290   32.3850   45.3740 N   0  0  0  0  0  0  0  0  0  0  0  0
   46.0590   32.7250   46.2430 C   0  0  0  0  0  0  0  0  0  0  0  0
   45.2810   33.7870   45.9980 N   0  0  0  0  0  0  0  0  0  0  0  0
   45.9130   31.9310   47.3820 N   0  0  0  0  0  0  0  0  0  0  0  0
   44.6840   31.7190   48.1190 C   0  0  0  0  0  0  0  0  0  0  0  0
   45.1770   31.5510   49.5110 C   0  0  0  0  0  0  0  0  0  0  0  0
   46.3630   30.6150   49.2910 C   0  0  0  0  0  0  0  0  0  0  0  0
   46.9580   31.1700   48.0430 C   0  0  2  0  0  0  0  0  0  0  0  0
   48.1830   32.0100   48.2630 C   0  0  0  0  0  0  0  0  0  0  0  0
   49.1450   31.4820   49.2710 C   0  0  0  0  0  0  0  0  0  0  0  0
   44.8151   35.3827   44.7049 H   0  0  0  0  0  0  0  0  0  0  0  0
   46.6140   34.7972   43.0458 H   0  0  0  0  0  0  0  0  0  0  0  0
   48.0843   32.7564   43.5390 H   0  0  0  0  0  0  0  0  0  0  0  0
   44.0140   32.5874   48.0354 H   0  0  0  0  0  0  0  0  0  0  0  0
   44.0923   30.8664   47.7545 H   0  0  0  0  0  0  0  0  0  0  0  0
   45.4950   32.5104   49.9452 H   0  0  0  0  0  0  0  0  0  0  0  0
   44.4233   31.1690   50.2152 H   0  0  0  0  0  0  0  0  0  0  0  0
   47.0730   30.6634   50.1298 H   0  0  0  0  0  0  0  0  0  0  0  0
   46.0864   29.5527   49.2199 H   0  0  0  0  0  0  0  0  0  0  0  0
   47.3142   30.3350   47.4218 H   0  0  0  0  0  0  0  0  0  0  0  0
   48.7116   32.0980   47.3024 H   0  0  0  0  0  0  0  0  0  0  0  0
   47.8250   32.9718   48.6591 H   0  0  0  0  0  0  0  0  0  0  0  0
   48.7667   31.6896   50.2828 H   0  0  0  0  0  0  0  0  0  0  0  0
   49.2571   30.3959   49.1372 H   0  0  0  0  0  0  0  0  0  0  0  0
   50.1214   31.9706   49.1372 H   0  0  0  0  0  0  0  0  0  0  0  0
  1  6  2  0
  2  3  2  0
  2  1  1  0
  3  4  1  0
  4  5  2  0
  5  7  1  0
  6  5  1  0
  7 11  1  0
  7  8  1  0
  8  9  1  0
 10  9  1  0
 11 12  1  0
 11 10  1  0
 12 13  1  0
  1 14  1  0
  2 15  1  0
  3 16  1  0
  8 17  1  0
  8 18  1  0
  9 19  1  0
  9 20  1  0
 10 21  1  0
 10 22  1  0
 11 23  1  6
 12 24  1  0
 12 25  1  0
 13 26  1  0
 13 27  1  0
 13 28  1  0
M  ISO  8  14  14  15  14  16  14  17  13  18  13  19  13  20  13  21  13
M  ISO  7  22  13  23  13  24   8  25   8  26   8  27   8  28   8
M  END
>  <minimizedAffinity>  (1) 
-3.91080856

>  <minimizedRMSD>  (1) 
1.7677753

$$$$
