
     RDKit          3D

 35 37  0  0  1  0  0  0  0  0999 V2000
   44.4540   35.9290   44.8130 C   0  0  0  0  0  0  0  0  0  0  0  0
   44.8490   35.7310   43.4560 C   0  0  0  0  0  0  0  0  0  0  0  0
   45.6130   34.5760   43.1450 C   0  0  0  0  0  0  0  0  0  0  0  0
   45.9110   33.7440   44.1730 N   0  0  0  0  0  0  0  0  0  0  0  0
   45.5170   33.9700   45.4450 C   0  0  0  0  0  0  0  0  0  0  0  0
   44.8010   35.0520   45.7440 N   0  0  0  0  0  0  0  0  0  0  0  0
   45.8970   33.0220   46.4110 N   0  0  0  0  0  0  0  0  0  0  0  0
   45.1350   32.7030   47.6120 C   0  0  0  0  0  0  0  0  0  0  0  0
   46.2650   32.3360   48.5460 C   0  0  0  0  0  0  0  0  0  0  0  0
   47.0380   31.3790   47.6420 C   0  0  0  0  0  0  0  0  0  0  0  0
   47.1070   32.1990   46.3760 C   0  0  1  0  0  0  0  0  0  0  0  0
   47.0350   31.4020   45.1880 N   0  0  0  0  0  0  0  0  0  0  0  0
   45.6960   31.1480   44.7280 C   0  0  0  0  0  0  0  0  0  0  0  0
   45.7920   30.0670   43.6670 C   0  0  0  0  0  0  0  0  0  0  0  0
   46.6390   30.3970   42.6380 O   0  0  0  0  0  0  0  0  0  0  0  0
   47.8780   30.8420   43.0430 C   0  0  0  0  0  0  0  0  0  0  0  0
   47.8020   31.9360   44.0880 C   0  0  0  0  0  0  0  0  0  0  0  0
   43.8593   36.8128   45.0872 H   0  0  0  0  0  0  0  0  0  0  0  0
   44.5695   36.4524   42.6740 H   0  0  0  0  0  0  0  0  0  0  0  0
   45.9475   34.3659   42.1184 H   0  0  0  0  0  0  0  0  0  0  0  0
   44.5673   33.5710   47.9785 H   0  0  0  0  0  0  0  0  0  0  0  0
   44.3680   31.9252   47.4826 H   0  0  0  0  0  0  0  0  0  0  0  0
   46.8673   33.2129   48.8258 H   0  0  0  0  0  0  0  0  0  0  0  0
   45.9546   31.9173   49.5147 H   0  0  0  0  0  0  0  0  0  0  0  0
   48.0397   31.1620   48.0413 H   0  0  0  0  0  0  0  0  0  0  0  0
   46.5788   30.3865   47.5229 H   0  0  0  0  0  0  0  0  0  0  0  0
   48.0571   32.7523   46.3420 H   0  0  0  0  0  0  0  0  0  0  0  0
   45.0681   30.8038   45.5630 H   0  0  0  0  0  0  0  0  0  0  0  0
   45.2402   32.0618   44.3190 H   0  0  0  0  0  0  0  0  0  0  0  0
   46.1583   29.1438   44.1398 H   0  0  0  0  0  0  0  0  0  0  0  0
   44.7876   29.9386   43.2372 H   0  0  0  0  0  0  0  0  0  0  0  0
   48.4348   29.9924   43.4650 H   0  0  0  0  0  0  0  0  0  0  0  0
   48.3802   31.2647   42.1604 H   0  0  0  0  0  0  0  0  0  0  0  0
   48.8125   32.2084   44.4266 H   0  0  0  0  0  0  0  0  0  0  0  0
   47.3322   32.8430   43.6798 H   0  0  0  0  0  0  0  0  0  0  0  0
  1  6  2  0
  2  1  1  0
  3  2  2  0
  3  4  1  0
  4  5  2  0
  5  6  1  0
  5  7  1  0
  7  8  1  0
  8  9  1  0
 10  9  1  0
 11  7  1  0
 11 10  1  0
 12 11  1  0
 13 12  1  0
 14 13  1  0
 15 16  1  0
 15 14  1  0
 16 17  1  0
 17 12  1  0
  1 18  1  0
  2 19  1  0
  3 20  1  0
  8 21  1  0
  8 22  1  0
  9 23  1  0
  9 24  1  0
 10 25  1  0
 10 26  1  0
 11 27  1  6
 13 28  1  0
 13 29  1  0
 14 30  1  0
 14 31  1  0
 16 32  1  0
 16 33  1  0
 17 34  1  0
 17 35  1  0
M  ISO  8  18  14  19  14  20  14  21  13  22  13  23  13  24  13  25  13
M  ISO  8  26  13  27  13  28  13  29  13  30  13  31  13  32  13  33  13
M  ISO  2  34  13  35  13
M  END
>  <minimizedAffinity>  (1) 
-4.4599824

>  <minimizedRMSD>  (1) 
0.638285816

$$$$
