
     RDKit          3D

 42 44  0  0  1  0  0  0  0  0999 V2000
   44.5750   35.4610   45.5970 C   0  0  0  0  0  0  0  0  0  0  0  0
   44.6660   36.1880   44.3840 C   0  0  0  0  0  0  0  0  0  0  0  0
   45.3610   35.5950   43.2920 C   0  0  0  0  0  0  0  0  0  0  0  0
   45.8660   34.3850   43.5370 N   0  0  0  0  0  0  0  0  0  0  0  0
   45.7780   33.7080   44.6750 C   0  0  0  0  0  0  0  0  0  0  0  0
   45.1290   34.2620   45.6920 N   0  0  0  0  0  0  0  0  0  0  0  0
   46.3760   32.4400   44.7670 N   0  0  0  0  0  0  0  0  0  0  0  0
   45.9140   31.3380   45.5890 C   0  0  0  0  0  0  0  0  0  0  0  0
   47.2560   30.6770   45.8710 C   0  0  0  0  0  0  0  0  0  0  0  0
   47.8180   30.6280   44.4470 C   0  0  0  0  0  0  0  0  0  0  0  0
   47.5870   32.0380   44.0290 C   0  0  1  0  0  0  0  0  0  0  0  0
   47.1970   32.2760   42.6590 N   0  0  0  0  0  0  0  0  0  0  0  0
   45.9170   31.9370   42.3410 C   0  0  0  0  0  0  0  0  0  0  0  0
   45.7490   31.8580   40.8220 C   0  0  0  0  0  0  0  0  0  0  0  0
   46.3350   32.8970   40.1370 O   0  0  0  0  0  0  0  0  0  0  0  0
   47.6340   33.0630   40.5100 C   0  0  0  0  0  0  0  0  0  0  0  0
   47.8410   33.2830   42.0180 C   0  0  2  0  0  0  0  0  0  0  0  0
   49.2820   32.8370   42.1700 N   0  0  0  0  0  0  0  0  0  0  0  0
   50.2920   33.7970   42.4320 C   0  0  0  0  0  0  0  0  0  0  0  0
   50.0370   34.9230   42.9840 N   0  0  0  0  0  0  0  0  0  0  0  0
   51.6860   33.6150   42.1160 N   0  0  0  0  0  0  0  0  0  0  0  0
   49.1660   35.3190   43.3110 H   0  0  0  0  0  0  0  0  0  0  0  0
   44.0447   35.8923   46.4588 H   0  0  0  0  0  0  0  0  0  0  0  0
   44.2113   37.1851   44.2885 H   0  0  0  0  0  0  0  0  0  0  0  0
   45.4730   36.0969   42.3196 H   0  0  0  0  0  0  0  0  0  0  0  0
   45.4238   31.6868   46.5099 H   0  0  0  0  0  0  0  0  0  0  0  0
   45.1532   30.6899   45.1295 H   0  0  0  0  0  0  0  0  0  0  0  0
   47.8819   31.2876   46.5384 H   0  0  0  0  0  0  0  0  0  0  0  0
   47.2009   29.7067   46.3862 H   0  0  0  0  0  0  0  0  0  0  0  0
   48.8872   30.3698   44.4388 H   0  0  0  0  0  0  0  0  0  0  0  0
   47.3601   29.8704   43.7941 H   0  0  0  0  0  0  0  0  0  0  0  0
   48.5415   32.5575   44.1994 H   0  0  0  0  0  0  0  0  0  0  0  0
   45.6805   30.9581   42.7834 H   0  0  0  0  0  0  0  0  0  0  0  0
   45.2354   32.7045   42.7364 H   0  0  0  0  0  0  0  0  0  0  0  0
   46.1992   30.9169   40.4732 H   0  0  0  0  0  0  0  0  0  0  0  0
   44.6693   31.9135   40.6191 H   0  0  0  0  0  0  0  0  0  0  0  0
   48.1942   32.1638   40.2138 H   0  0  0  0  0  0  0  0  0  0  0  0
   47.9894   33.9754   40.0089 H   0  0  0  0  0  0  0  0  0  0  0  0
   47.5510   34.2859   42.3646 H   0  0  0  0  0  0  0  0  0  0  0  0
   49.5264   31.8402   42.0832 H   0  0  0  0  0  0  0  0  0  0  0  0
   52.3651   34.3576   42.3358 H   0  0  0  0  0  0  0  0  0  0  0  0
   52.0034   32.7423   41.6703 H   0  0  0  0  0  0  0  0  0  0  0  0
  1  6  2  0
  2  1  1  0
  3  4  1  0
  3  2  2  0
  4  5  2  0
  5  7  1  0
  5  6  1  0
  7  8  1  0
  8  9  1  0
 10  9  1  0
 11 10  1  0
 11  7  1  0
 12 13  1  0
 12 11  1  0
 14 13  1  0
 15 16  1  0
 15 14  1  0
 16 17  1  0
 17 18  1  0
 17 12  1  0
 18 19  1  0
 19 20  2  0
 20 22  1  0
 21 19  1  0
  1 23  1  0
  2 24  1  0
  3 25  1  0
  8 26  1  0
  8 27  1  0
  9 28  1  0
  9 29  1  0
 10 30  1  0
 10 31  1  0
 11 32  1  1
 13 33  1  0
 13 34  1  0
 14 35  1  0
 14 36  1  0
 16 37  1  0
 16 38  1  0
 17 39  1  1
 18 40  1  0
 21 41  1  0
 21 42  1  0
M  ISO  8  23  14  24  14  25  14  26  13  27  13  28  13  29  13  30  13
M  ISO  8  31  13  32  13  33  13  34  13  35  13  36  13  37  13  38  13
M  ISO  1  39  13
M  END
>  <minimizedAffinity>  (1) 
-5.68422461

>  <minimizedRMSD>  (1) 
2.46852684

$$$$
