
     RDKit          3D

 42 45  0  0  1  0  0  0  0  0999 V2000
   44.5910   35.4820   45.3840 C   0  0  0  0  0  0  0  0  0  0  0  0
   44.6790   36.3420   44.2590 C   0  0  0  0  0  0  0  0  0  0  0  0
   45.4210   35.8870   43.1360 C   0  0  0  0  0  0  0  0  0  0  0  0
   45.9680   34.6800   43.2530 N   0  0  0  0  0  0  0  0  0  0  0  0
   45.8780   33.8840   44.3170 C   0  0  0  0  0  0  0  0  0  0  0  0
   45.1840   34.2990   45.3750 N   0  0  0  0  0  0  0  0  0  0  0  0
   46.5220   32.6340   44.2900 N   0  0  0  0  0  0  0  0  0  0  0  0
   46.0950   31.4360   44.9930 C   0  0  0  0  0  0  0  0  0  0  0  0
   47.4560   30.8010   45.2300 C   0  0  0  0  0  0  0  0  0  0  0  0
   48.0390   30.9140   43.8170 C   0  0  0  0  0  0  0  0  0  0  0  0
   47.7540   32.3460   43.5320 C   0  0  1  0  0  0  0  0  0  0  0  0
   47.3800   32.6990   42.1860 N   0  0  0  0  0  0  0  0  0  0  0  0
   46.1230   32.2960   41.8020 C   0  0  0  0  0  0  0  0  0  0  0  0
   45.9710   32.4140   40.2870 C   0  0  0  0  0  0  0  0  0  0  0  0
   46.4780   33.5550   39.7400 O   0  0  0  0  0  0  0  0  0  0  0  0
   47.7380   33.8460   40.1580 C   0  0  0  0  0  0  0  0  0  0  0  0
   47.9360   33.8220   41.6820 C   0  0  2  0  0  0  0  0  0  0  0  0
   49.4230   33.3740   41.7240 C   0  0  0  0  0  0  0  0  0  0  0  0
   49.9040   32.2980   40.9690 C   0  0  0  0  0  0  0  0  0  0  0  0
   51.2750   32.1010   41.1810 C   0  0  0  0  0  0  0  0  0  0  0  0
   51.5510   33.0710   42.0540 N   0  0  0  0  0  0  0  0  0  0  0  0
   50.5100   33.8100   42.3800 N   0  0  0  0  0  0  0  0  0  0  0  0
   44.0249   35.8014   46.2714 H   0  0  0  0  0  0  0  0  0  0  0  0
   44.1896   37.3271   44.2563 H   0  0  0  0  0  0  0  0  0  0  0  0
   45.5360   36.4949   42.2265 H   0  0  0  0  0  0  0  0  0  0  0  0
   45.5804   31.6725   45.9360 H   0  0  0  0  0  0  0  0  0  0  0  0
   45.3669   30.8082   44.4585 H   0  0  0  0  0  0  0  0  0  0  0  0
   48.0493   31.3650   45.9648 H   0  0  0  0  0  0  0  0  0  0  0  0
   47.4310   29.7828   45.6456 H   0  0  0  0  0  0  0  0  0  0  0  0
   49.1183   30.7022   43.8029 H   0  0  0  0  0  0  0  0  0  0  0  0
   47.6223   30.2050   43.0865 H   0  0  0  0  0  0  0  0  0  0  0  0
   48.6842   32.8839   43.7674 H   0  0  0  0  0  0  0  0  0  0  0  0
   45.9697   31.2489   42.1021 H   0  0  0  0  0  0  0  0  0  0  0  0
   45.3755   32.9396   42.2889 H   0  0  0  0  0  0  0  0  0  0  0  0
   46.4851   31.5579   39.8257 H   0  0  0  0  0  0  0  0  0  0  0  0
   44.8891   32.4353   40.0895 H   0  0  0  0  0  0  0  0  0  0  0  0
   48.4241   33.1106   39.7127 H   0  0  0  0  0  0  0  0  0  0  0  0
   47.9387   34.8788   39.8371 H   0  0  0  0  0  0  0  0  0  0  0  0
   47.5888   34.7421   42.1748 H   0  0  0  0  0  0  0  0  0  0  0  0
   49.2855   31.6860   40.2960 H   0  0  0  0  0  0  0  0  0  0  0  0
   51.9456   31.3467   40.7436 H   0  0  0  0  0  0  0  0  0  0  0  0
   52.4934   33.2282   42.4388 H   0  0  0  0  0  0  0  0  0  0  0  0
  2  1  2  0
  3  4  2  0
  3  2  1  0
  4  5  1  0
  5  6  2  0
  6  1  1  0
  7  5  1  0
  7  8  1  0
  8  9  1  0
 10  9  1  0
 11 10  1  0
 11  7  1  0
 12 13  1  0
 12 11  1  0
 14 13  1  0
 15 16  1  0
 15 14  1  0
 16 17  1  0
 17 18  1  0
 17 12  1  0
 18 22  2  0
 19 20  2  0
 19 18  1  0
 20 21  1  0
 21 22  1  0
  1 23  1  0
  2 24  1  0
  3 25  1  0
  8 26  1  0
  8 27  1  0
  9 28  1  0
  9 29  1  0
 10 30  1  0
 10 31  1  0
 11 32  1  1
 13 33  1  0
 13 34  1  0
 14 35  1  0
 14 36  1  0
 16 37  1  0
 16 38  1  0
 17 39  1  1
 19 40  1  0
 20 41  1  0
 21 42  1  0
M  ISO  8  23  14  24  14  25  14  26  13  27  13  28  13  29  13  30  13
M  ISO  8  31  13  32  13  33  13  34  13  35  13  36  13  37  13  38  13
M  ISO  4  39  13  40  14  41  14  42   9
M  END
>  <minimizedAffinity>  (1) 
-5.64107847

>  <minimizedRMSD>  (1) 
3.32033181

$$$$
