
     RDKit          3D

 45 48  0  0  1  0  0  0  0  0999 V2000
   44.6140   35.3970   45.6150 C   0  0  0  0  0  0  0  0  0  0  0  0
   44.6160   36.2700   44.4880 C   0  0  0  0  0  0  0  0  0  0  0  0
   45.2100   35.8080   43.2820 C   0  0  0  0  0  0  0  0  0  0  0  0
   45.7130   34.5770   43.3310 N   0  0  0  0  0  0  0  0  0  0  0  0
   45.7050   33.7690   44.3870 C   0  0  0  0  0  0  0  0  0  0  0  0
   45.1510   34.1990   45.5160 N   0  0  0  0  0  0  0  0  0  0  0  0
   46.2840   32.4930   44.2800 N   0  0  0  0  0  0  0  0  0  0  0  0
   45.8720   31.3060   45.0050 C   0  0  0  0  0  0  0  0  0  0  0  0
   47.2140   30.5950   45.0880 C   0  0  0  0  0  0  0  0  0  0  0  0
   47.6490   30.7060   43.6230 C   0  0  0  0  0  0  0  0  0  0  0  0
   47.4190   32.1660   43.3960 C   0  0  1  0  0  0  0  0  0  0  0  0
   46.9210   32.5670   42.1030 N   0  0  0  0  0  0  0  0  0  0  0  0
   45.6050   32.2870   41.8640 C   0  0  0  0  0  0  0  0  0  0  0  0
   45.3060   32.4010   40.3670 C   0  0  0  0  0  0  0  0  0  0  0  0
   45.8530   33.5060   39.7630 O   0  0  0  0  0  0  0  0  0  0  0  0
   47.1900   33.6120   40.0280 C   0  0  0  0  0  0  0  0  0  0  0  0
   47.5310   33.6300   41.5290 C   0  0  2  0  0  0  0  0  0  0  0  0
   48.9950   33.1160   41.4570 C   0  0  0  0  0  0  0  0  0  0  0  0
   50.0400   33.5370   42.2890 C   0  0  0  0  0  0  0  0  0  0  0  0
   51.2840   32.9860   42.0970 C   0  0  0  0  0  0  0  0  0  0  0  0
   51.5450   32.0490   41.1350 C   0  0  0  0  0  0  0  0  0  0  0  0
   50.5410   31.6110   40.2990 C   0  0  0  0  0  0  0  0  0  0  0  0
   49.2920   32.1640   40.4920 C   0  0  0  0  0  0  0  0  0  0  0  0
   44.1650   35.7234   46.5647 H   0  0  0  0  0  0  0  0  0  0  0  0
   44.1701   37.2737   44.5499 H   0  0  0  0  0  0  0  0  0  0  0  0
   45.2510   36.4248   42.3721 H   0  0  0  0  0  0  0  0  0  0  0  0
   45.4727   31.5495   46.0006 H   0  0  0  0  0  0  0  0  0  0  0  0
   45.0600   30.7277   44.5401 H   0  0  0  0  0  0  0  0  0  0  0  0
   47.9114   31.1120   45.7636 H   0  0  0  0  0  0  0  0  0  0  0  0
   47.1780   29.5716   45.4898 H   0  0  0  0  0  0  0  0  0  0  0  0
   48.7062   30.4332   43.4889 H   0  0  0  0  0  0  0  0  0  0  0  0
   47.1167   30.0389   42.9290 H   0  0  0  0  0  0  0  0  0  0  0  0
   48.3954   32.6505   43.5438 H   0  0  0  0  0  0  0  0  0  0  0  0
   45.3835   31.2640   42.2023 H   0  0  0  0  0  0  0  0  0  0  0  0
   44.9787   33.0065   42.4119 H   0  0  0  0  0  0  0  0  0  0  0  0
   45.7018   31.5044   39.8676 H   0  0  0  0  0  0  0  0  0  0  0  0
   44.2145   32.4980   40.2708 H   0  0  0  0  0  0  0  0  0  0  0  0
   47.7031   32.7552   39.5669 H   0  0  0  0  0  0  0  0  0  0  0  0
   47.5210   34.5762   39.6147 H   0  0  0  0  0  0  0  0  0  0  0  0
   47.3031   34.5810   42.0326 H   0  0  0  0  0  0  0  0  0  0  0  0
   49.8696   34.2880   43.0745 H   0  0  0  0  0  0  0  0  0  0  0  0
   52.1086   33.3136   42.7472 H   0  0  0  0  0  0  0  0  0  0  0  0
   52.5618   31.6431   41.0283 H   0  0  0  0  0  0  0  0  0  0  0  0
   50.7260   30.8590   39.5178 H   0  0  0  0  0  0  0  0  0  0  0  0
   48.4757   31.8273   39.8361 H   0  0  0  0  0  0  0  0  0  0  0  0
  2  1  2  0
  3  4  2  0
  3  2  1  0
  4  5  1  0
  5  6  2  0
  6  1  1  0
  7  5  1  0
  7  8  1  0
  8  9  1  0
 10  9  1  0
 11 10  1  0
 11  7  1  0
 12 13  1  0
 12 11  1  0
 14 13  1  0
 15 16  1  0
 15 14  1  0
 16 17  1  0
 17 12  1  0
 18 17  1  0
 18 19  2  0
 20 19  1  0
 21 20  2  0
 22 23  2  0
 22 21  1  0
 23 18  1  0
  1 24  1  0
  2 25  1  0
  3 26  1  0
  8 27  1  0
  8 28  1  0
  9 29  1  0
  9 30  1  0
 10 31  1  0
 10 32  1  0
 11 33  1  1
 13 34  1  0
 13 35  1  0
 14 36  1  0
 14 37  1  0
 16 38  1  0
 16 39  1  0
 17 40  1  1
 19 41  1  0
 20 42  1  0
 21 43  1  0
 22 44  1  0
 23 45  1  0
M  ISO  8  24  14  25  14  26  14  27  13  28  13  29  13  30  13  31  13
M  ISO  8  32  13  33  13  34  13  35  13  36  13  37  13  38  13  39  13
M  ISO  6  40  13  41  14  42  14  43  14  44  14  45  14
M  END
>  <minimizedAffinity>  (1) 
-5.26455927

>  <minimizedRMSD>  (1) 
3.52188659

$$$$
