
     RDKit          3D

 43 46  0  0  1  0  0  0  0  0999 V2000
   44.6120   35.3950   45.5600 C   0  0  0  0  0  0  0  0  0  0  0  0
   44.6500   36.2780   44.4450 C   0  0  0  0  0  0  0  0  0  0  0  0
   45.2710   35.8210   43.2520 C   0  0  0  0  0  0  0  0  0  0  0  0
   45.7650   34.5880   43.2950 N   0  0  0  0  0  0  0  0  0  0  0  0
   45.7240   33.7690   44.3460 C   0  0  0  0  0  0  0  0  0  0  0  0
   45.1450   34.1860   45.4690 N   0  0  0  0  0  0  0  0  0  0  0  0
   46.2940   32.4990   44.2390 N   0  0  0  0  0  0  0  0  0  0  0  0
   45.8770   31.2910   44.9450 C   0  0  0  0  0  0  0  0  0  0  0  0
   47.2210   30.5910   45.0530 C   0  0  0  0  0  0  0  0  0  0  0  0
   47.6950   30.7260   43.6080 C   0  0  0  0  0  0  0  0  0  0  0  0
   47.4420   32.1710   43.3730 C   0  0  1  0  0  0  0  0  0  0  0  0
   46.9760   32.5690   42.0710 N   0  0  0  0  0  0  0  0  0  0  0  0
   45.6690   32.2480   41.7900 C   0  0  0  0  0  0  0  0  0  0  0  0
   45.3930   32.4050   40.3020 C   0  0  0  0  0  0  0  0  0  0  0  0
   45.9120   33.5330   39.7300 O   0  0  0  0  0  0  0  0  0  0  0  0
   47.2220   33.7300   40.0340 C   0  0  0  0  0  0  0  0  0  0  0  0
   47.5540   33.6670   41.5340 C   0  0  2  0  0  0  0  0  0  0  0  0
   49.0050   33.1210   41.4330 C   0  0  0  0  0  0  0  0  0  0  0  0
   50.0710   33.4840   42.2190 C   0  0  0  0  0  0  0  0  0  0  0  0
   51.3220   32.9810   42.0810 C   0  0  0  0  0  0  0  0  0  0  0  0
   51.5460   32.0720   41.1230 N   0  0  0  0  0  0  0  0  0  0  0  0
   50.5260   31.6930   40.3350 C   0  0  0  0  0  0  0  0  0  0  0  0
   49.2870   32.1960   40.4760 N   0  0  0  0  0  0  0  0  0  0  0  0
   44.1390   35.7171   46.4994 H   0  0  0  0  0  0  0  0  0  0  0  0
   44.2114   37.2850   44.5051 H   0  0  0  0  0  0  0  0  0  0  0  0
   45.3387   36.4475   42.3504 H   0  0  0  0  0  0  0  0  0  0  0  0
   45.4519   31.5189   45.9336 H   0  0  0  0  0  0  0  0  0  0  0  0
   45.0833   30.7099   44.4526 H   0  0  0  0  0  0  0  0  0  0  0  0
   47.8950   31.1036   45.7551 H   0  0  0  0  0  0  0  0  0  0  0  0
   47.1819   29.5612   45.4377 H   0  0  0  0  0  0  0  0  0  0  0  0
   48.7620   30.4789   43.5060 H   0  0  0  0  0  0  0  0  0  0  0  0
   47.1949   30.0519   42.8970 H   0  0  0  0  0  0  0  0  0  0  0  0
   48.4114   32.6637   43.5389 H   0  0  0  0  0  0  0  0  0  0  0  0
   45.4801   31.2055   42.0858 H   0  0  0  0  0  0  0  0  0  0  0  0
   45.0068   32.9252   42.3494 H   0  0  0  0  0  0  0  0  0  0  0  0
   45.8186   31.5335   39.7830 H   0  0  0  0  0  0  0  0  0  0  0  0
   44.3007   32.4861   40.2008 H   0  0  0  0  0  0  0  0  0  0  0  0
   47.8122   32.9567   39.5204 H   0  0  0  0  0  0  0  0  0  0  0  0
   47.4649   34.7516   39.7064 H   0  0  0  0  0  0  0  0  0  0  0  0
   47.3130   34.5982   42.0677 H   0  0  0  0  0  0  0  0  0  0  0  0
   49.8989   34.2292   43.0096 H   0  0  0  0  0  0  0  0  0  0  0  0
   52.1364   33.3124   42.7420 H   0  0  0  0  0  0  0  0  0  0  0  0
   50.7106   30.9465   39.5484 H   0  0  0  0  0  0  0  0  0  0  0  0
  2  1  2  0
  3  4  2  0
  3  2  1  0
  4  5  1  0
  5  6  2  0
  6  1  1  0
  7  5  1  0
  7  8  1  0
  8  9  1  0
 10  9  1  0
 11 10  1  0
 11  7  1  0
 12 13  1  0
 12 11  1  0
 14 13  1  0
 15 16  1  0
 15 14  1  0
 16 17  1  0
 17 12  1  0
 18 17  1  0
 18 19  2  0
 20 19  1  0
 21 20  2  0
 22 23  2  0
 22 21  1  0
 23 18  1  0
  1 24  1  0
  2 25  1  0
  3 26  1  0
  8 27  1  0
  8 28  1  0
  9 29  1  0
  9 30  1  0
 10 31  1  0
 10 32  1  0
 11 33  1  1
 13 34  1  0
 13 35  1  0
 14 36  1  0
 14 37  1  0
 16 38  1  0
 16 39  1  0
 17 40  1  1
 19 41  1  0
 20 42  1  0
 22 43  1  0
M  ISO  8  24  14  25  14  26  14  27  13  28  13  29  13  30  13  31  13
M  ISO  8  32  13  33  13  34  13  35  13  36  13  37  13  38  13  39  13
M  ISO  4  40  13  41  14  42  14  43  14
M  END
>  <minimizedAffinity>  (1) 
-5.12776899

>  <minimizedRMSD>  (1) 
3.56882286

$$$$
