
     RDKit          3D

 44 47  0  0  1  0  0  0  0  0999 V2000
   44.5950   35.4110   45.6310 C   0  0  0  0  0  0  0  0  0  0  0  0
   44.5900   36.2360   44.4790 C   0  0  0  0  0  0  0  0  0  0  0  0
   45.2130   35.7490   43.2980 C   0  0  0  0  0  0  0  0  0  0  0  0
   45.7510   34.5360   43.3940 N   0  0  0  0  0  0  0  0  0  0  0  0
   45.7500   33.7680   44.4810 C   0  0  0  0  0  0  0  0  0  0  0  0
   45.1700   34.2140   45.5920 N   0  0  0  0  0  0  0  0  0  0  0  0
   46.3680   32.5030   44.4240 N   0  0  0  0  0  0  0  0  0  0  0  0
   45.9960   31.3310   45.1990 C   0  0  0  0  0  0  0  0  0  0  0  0
   47.3520   30.6620   45.3060 C   0  0  0  0  0  0  0  0  0  0  0  0
   47.7960   30.7360   43.8420 C   0  0  0  0  0  0  0  0  0  0  0  0
   47.5100   32.1700   43.5530 C   0  0  1  0  0  0  0  0  0  0  0  0
   47.0100   32.4950   42.2430 N   0  0  0  0  0  0  0  0  0  0  0  0
   45.7090   32.1210   42.0010 C   0  0  0  0  0  0  0  0  0  0  0  0
   45.4070   32.2050   40.5050 C   0  0  0  0  0  0  0  0  0  0  0  0
   45.8780   33.3160   39.8800 O   0  0  0  0  0  0  0  0  0  0  0  0
   47.1790   33.5990   40.1630 C   0  0  0  0  0  0  0  0  0  0  0  0
   47.5410   33.5900   41.6540 C   0  0  2  0  0  0  0  0  0  0  0  0
   49.0110   33.0920   41.5480 C   0  0  0  0  0  0  0  0  0  0  0  0
   49.2610   32.1440   40.5490 C   0  0  0  0  0  0  0  0  0  0  0  0
   50.5170   31.5760   40.2960 C   0  0  0  0  0  0  0  0  0  0  0  0
   51.5340   32.0100   41.1050 C   0  0  0  0  0  0  0  0  0  0  0  0
   51.2650   32.9420   42.0780 C   0  0  0  0  0  0  0  0  0  0  0  0
   50.0610   33.4610   42.2940 N   0  0  0  0  0  0  0  0  0  0  0  0
   44.1217   35.7624   46.5597 H   0  0  0  0  0  0  0  0  0  0  0  0
   44.1159   37.2284   44.4982 H   0  0  0  0  0  0  0  0  0  0  0  0
   45.2480   36.3352   42.3678 H   0  0  0  0  0  0  0  0  0  0  0  0
   45.5932   31.6024   46.1859 H   0  0  0  0  0  0  0  0  0  0  0  0
   45.2012   30.7111   44.7586 H   0  0  0  0  0  0  0  0  0  0  0  0
   48.0316   31.2186   45.9681 H   0  0  0  0  0  0  0  0  0  0  0  0
   47.3387   29.6502   45.7374 H   0  0  0  0  0  0  0  0  0  0  0  0
   48.8649   30.5025   43.7279 H   0  0  0  0  0  0  0  0  0  0  0  0
   47.2968   30.0212   43.1713 H   0  0  0  0  0  0  0  0  0  0  0  0
   48.4677   32.6955   43.6822 H   0  0  0  0  0  0  0  0  0  0  0  0
   45.5578   31.0872   42.3450 H   0  0  0  0  0  0  0  0  0  0  0  0
   45.0332   32.7989   42.5430 H   0  0  0  0  0  0  0  0  0  0  0  0
   45.8538   31.3257   40.0180 H   0  0  0  0  0  0  0  0  0  0  0  0
   44.3113   32.2474   40.4173 H   0  0  0  0  0  0  0  0  0  0  0  0
   47.8076   32.8523   39.6558 H   0  0  0  0  0  0  0  0  0  0  0  0
   47.3501   34.6280   39.8139 H   0  0  0  0  0  0  0  0  0  0  0  0
   47.2764   34.5305   42.1595 H   0  0  0  0  0  0  0  0  0  0  0  0
   48.4163   31.8238   39.9213 H   0  0  0  0  0  0  0  0  0  0  0  0
   50.6756   30.8319   39.5015 H   0  0  0  0  0  0  0  0  0  0  0  0
   52.5534   31.6171   40.9771 H   0  0  0  0  0  0  0  0  0  0  0  0
   52.0955   33.2785   42.7160 H   0  0  0  0  0  0  0  0  0  0  0  0
  2  1  2  0
  3  4  2  0
  3  2  1  0
  4  5  1  0
  5  6  2  0
  6  1  1  0
  7  5  1  0
  7  8  1  0
  8  9  1  0
 10  9  1  0
 11 10  1  0
 11  7  1  0
 12 13  1  0
 12 11  1  0
 14 13  1  0
 15 16  1  0
 15 14  1  0
 16 17  1  0
 17 12  1  0
 18 17  1  0
 18 23  1  0
 19 18  2  0
 20 19  1  0
 20 21  2  0
 21 22  1  0
 22 23  2  0
  1 24  1  0
  2 25  1  0
  3 26  1  0
  8 27  1  0
  8 28  1  0
  9 29  1  0
  9 30  1  0
 10 31  1  0
 10 32  1  0
 11 33  1  1
 13 34  1  0
 13 35  1  0
 14 36  1  0
 14 37  1  0
 16 38  1  0
 16 39  1  0
 17 40  1  1
 19 41  1  0
 20 42  1  0
 21 43  1  0
 22 44  1  0
M  ISO  8  24  14  25  14  26  14  27  13  28  13  29  13  30  13  31  13
M  ISO  8  32  13  33  13  34  13  35  13  36  13  37  13  38  13  39  13
M  ISO  5  40  13  41  14  42  14  43  14  44  14
M  END
>  <minimizedAffinity>  (1) 
-5.11737394

>  <minimizedRMSD>  (1) 
3.47948408

$$$$
