
     RDKit          3D

 49 52  0  0  1  0  0  0  0  0999 V2000
   44.3530   36.0420   44.8450 C   0  0  0  0  0  0  0  0  0  0  0  0
   44.4660   35.9940   43.4340 C   0  0  0  0  0  0  0  0  0  0  0  0
   45.1310   34.8770   42.8560 C   0  0  0  0  0  0  0  0  0  0  0  0
   45.5870   33.9770   43.7270 N   0  0  0  0  0  0  0  0  0  0  0  0
   45.4790   34.0270   45.0470 C   0  0  0  0  0  0  0  0  0  0  0  0
   44.8570   35.0710   45.5870 N   0  0  0  0  0  0  0  0  0  0  0  0
   46.0320   32.9920   45.8140 N   0  0  0  0  0  0  0  0  0  0  0  0
   45.5310   32.5440   47.0980 C   0  0  0  0  0  0  0  0  0  0  0  0
   46.8090   32.0770   47.7270 C   0  0  0  0  0  0  0  0  0  0  0  0
   47.3770   31.2410   46.5660 C   0  0  0  0  0  0  0  0  0  0  0  0
   47.2180   32.1990   45.4340 C   0  0  1  0  0  0  0  0  0  0  0  0
   46.8570   31.6740   44.1580 N   0  0  0  0  0  0  0  0  0  0  0  0
   45.7010   30.8860   44.1570 C   0  0  0  0  0  0  0  0  0  0  0  0
   45.5720   30.0980   42.8690 C   0  0  0  0  0  0  0  0  0  0  0  0
   45.8660   30.7810   41.7360 O   0  0  0  0  0  0  0  0  0  0  0  0
   47.0230   31.5070   41.8030 C   0  0  0  0  0  0  0  0  0  0  0  0
   47.1660   32.3720   43.0580 C   0  0  2  0  0  0  0  0  0  0  0  0
   48.6710   32.4350   43.1310 N   0  0  0  0  0  0  0  0  0  0  0  0
   49.1520   33.7590   43.1180 C   0  0  0  0  0  0  0  0  0  0  0  0
   50.0990   34.1400   42.0240 C   0  0  0  0  0  0  0  0  0  0  0  0
   51.1210   33.0870   42.0040 N   0  0  0  0  0  0  0  0  0  0  0  0
   50.4190   31.9410   41.4260 C   0  0  0  0  0  0  0  0  0  0  0  0
   49.3550   31.4670   42.3960 C   0  0  0  0  0  0  0  0  0  0  0  0
   43.8439   36.8906   45.3253 H   0  0  0  0  0  0  0  0  0  0  0  0
   44.0524   36.7956   42.8045 H   0  0  0  0  0  0  0  0  0  0  0  0
   45.2595   34.7643   41.7694 H   0  0  0  0  0  0  0  0  0  0  0  0
   45.0726   33.3663   47.6669 H   0  0  0  0  0  0  0  0  0  0  0  0
   44.7358   31.7858   47.0463 H   0  0  0  0  0  0  0  0  0  0  0  0
   47.4686   32.9178   47.9876 H   0  0  0  0  0  0  0  0  0  0  0  0
   46.6912   31.5364   48.6777 H   0  0  0  0  0  0  0  0  0  0  0  0
   48.4329   30.9810   46.7320 H   0  0  0  0  0  0  0  0  0  0  0  0
   46.8817   30.2703   46.4165 H   0  0  0  0  0  0  0  0  0  0  0  0
   48.1961   32.6864   45.3087 H   0  0  0  0  0  0  0  0  0  0  0  0
   45.7449   30.1845   45.0032 H   0  0  0  0  0  0  0  0  0  0  0  0
   44.8285   31.5499   44.2463 H   0  0  0  0  0  0  0  0  0  0  0  0
   46.2509   29.2347   42.9303 H   0  0  0  0  0  0  0  0  0  0  0  0
   44.5103   29.8218   42.7886 H   0  0  0  0  0  0  0  0  0  0  0  0
   47.8696   30.8053   41.7727 H   0  0  0  0  0  0  0  0  0  0  0  0
   47.0035   32.2005   40.9494 H   0  0  0  0  0  0  0  0  0  0  0  0
   46.5702   33.2956   43.0136 H   0  0  0  0  0  0  0  0  0  0  0  0
   48.2799   34.4255   43.0457 H   0  0  0  0  0  0  0  0  0  0  0  0
   49.7405   33.8521   44.0427 H   0  0  0  0  0  0  0  0  0  0  0  0
   49.5734   34.1836   41.0587 H   0  0  0  0  0  0  0  0  0  0  0  0
   50.5403   35.1331   42.1944 H   0  0  0  0  0  0  0  0  0  0  0  0
   51.9218   33.3622   41.4176 H   0  0  0  0  0  0  0  0  0  0  0  0
   49.9465   32.2388   40.4783 H   0  0  0  0  0  0  0  0  0  0  0  0
   51.1342   31.1273   41.2355 H   0  0  0  0  0  0  0  0  0  0  0  0
   48.6076   30.9061   41.8157 H   0  0  0  0  0  0  0  0  0  0  0  0
   49.9049   30.8831   43.1487 H   0  0  0  0  0  0  0  0  0  0  0  0
  1  6  2  0
  2  1  1  0
  3  2  2  0
  3  4  1  0
  4  5  2  0
  5  6  1  0
  5  7  1  0
  7  8  1  0
  8  9  1  0
 10  9  1  0
 11  7  1  0
 11 10  1  0
 12 13  1  0
 12 11  1  0
 14 13  1  0
 15 16  1  0
 15 14  1  0
 16 17  1  0
 17 18  1  0
 17 12  1  0
 19 18  1  0
 20 19  1  0
 21 20  1  0
 22 21  1  0
 22 23  1  0
 23 18  1  0
  1 24  1  0
  2 25  1  0
  3 26  1  0
  8 27  1  0
  8 28  1  0
  9 29  1  0
  9 30  1  0
 10 31  1  0
 10 32  1  0
 11 33  1  6
 13 34  1  0
 13 35  1  0
 14 36  1  0
 14 37  1  0
 16 38  1  0
 16 39  1  0
 17 40  1  6
 19 41  1  0
 19 42  1  0
 20 43  1  0
 20 44  1  0
 21 45  1  0
 22 46  1  0
 22 47  1  0
 23 48  1  0
 23 49  1  0
M  ISO  8  24  14  25  14  26  14  27  13  28  13  29  13  30  13  31  13
M  ISO  8  32  13  33  13  34  13  35  13  36  13  37  13  38  13  39  13
M  ISO  8  40  13  41  13  42  13  43  13  44  13  45   5  46  13  47  13
M  ISO  2  48  13  49  13
M  END
>  <minimizedAffinity>  (1) 
-5.00653982

>  <minimizedRMSD>  (1) 
2.26140618

$$$$
