
     RDKit          3D

 42 45  0  0  1  0  0  0  0  0999 V2000
   44.5730   35.3830   45.7030 C   0  0  0  0  0  0  0  0  0  0  0  0
   44.5190   36.0540   44.4560 C   0  0  0  0  0  0  0  0  0  0  0  0
   45.1210   35.4300   43.3290 C   0  0  0  0  0  0  0  0  0  0  0  0
   45.6890   34.2470   43.5720 N   0  0  0  0  0  0  0  0  0  0  0  0
   45.7360   33.6230   44.7440 C   0  0  0  0  0  0  0  0  0  0  0  0
   45.1740   34.2030   45.8000 N   0  0  0  0  0  0  0  0  0  0  0  0
   46.3810   32.3800   44.8290 N   0  0  0  0  0  0  0  0  0  0  0  0
   46.0500   31.3050   45.7540 C   0  0  0  0  0  0  0  0  0  0  0  0
   47.4390   30.7050   45.9190 C   0  0  0  0  0  0  0  0  0  0  0  0
   47.8150   30.5760   44.4400 C   0  0  0  0  0  0  0  0  0  0  0  0
   47.5130   31.9620   43.9810 C   0  0  1  0  0  0  0  0  0  0  0  0
   46.9690   32.1200   42.6530 N   0  0  0  0  0  0  0  0  0  0  0  0
   45.7260   31.5890   42.4570 C   0  0  0  0  0  0  0  0  0  0  0  0
   45.4380   31.4700   40.9570 C   0  0  0  0  0  0  0  0  0  0  0  0
   45.7870   32.5760   40.2260 O   0  0  0  0  0  0  0  0  0  0  0  0
   47.0750   32.9530   40.4690 C   0  0  0  0  0  0  0  0  0  0  0  0
   47.3900   33.2000   41.9550 C   0  0  2  0  0  0  0  0  0  0  0  0
   48.8940   32.9890   41.9120 N   0  0  0  0  0  0  0  0  0  0  0  0
   49.6730   32.0350   41.3620 N   0  0  0  0  0  0  0  0  0  0  0  0
   50.9470   32.3010   41.6030 C   0  0  0  0  0  0  0  0  0  0  0  0
   51.0580   33.4500   42.3270 C   0  0  0  0  0  0  0  0  0  0  0  0
   49.7500   33.8670   42.5100 C   0  0  0  0  0  0  0  0  0  0  0  0
   44.1160   35.8408   46.5927 H   0  0  0  0  0  0  0  0  0  0  0  0
   44.0243   37.0320   44.3623 H   0  0  0  0  0  0  0  0  0  0  0  0
   45.1187   35.8890   42.3294 H   0  0  0  0  0  0  0  0  0  0  0  0
   45.6488   31.6864   46.7046 H   0  0  0  0  0  0  0  0  0  0  0  0
   45.2689   30.6091   45.4140 H   0  0  0  0  0  0  0  0  0  0  0  0
   48.1187   31.3789   46.4611 H   0  0  0  0  0  0  0  0  0  0  0  0
   47.4886   29.7753   46.5048 H   0  0  0  0  0  0  0  0  0  0  0  0
   48.8775   30.3236   44.3083 H   0  0  0  0  0  0  0  0  0  0  0  0
   47.2891   29.7793   43.8935 H   0  0  0  0  0  0  0  0  0  0  0  0
   48.4681   32.5064   44.0185 H   0  0  0  0  0  0  0  0  0  0  0  0
   45.6794   30.5910   42.9172 H   0  0  0  0  0  0  0  0  0  0  0  0
   44.9751   32.2476   42.9179 H   0  0  0  0  0  0  0  0  0  0  0  0
   45.9982   30.6078   40.5660 H   0  0  0  0  0  0  0  0  0  0  0  0
   44.3489   31.3548   40.8535 H   0  0  0  0  0  0  0  0  0  0  0  0
   47.7420   32.1589   40.1023 H   0  0  0  0  0  0  0  0  0  0  0  0
   47.2274   33.9108   39.9500 H   0  0  0  0  0  0  0  0  0  0  0  0
   46.9850   34.1376   42.3634 H   0  0  0  0  0  0  0  0  0  0  0  0
   51.7935   31.6839   41.2674 H   0  0  0  0  0  0  0  0  0  0  0  0
   51.9776   33.9360   42.6849 H   0  0  0  0  0  0  0  0  0  0  0  0
   49.4463   34.7720   43.0565 H   0  0  0  0  0  0  0  0  0  0  0  0
  1  6  2  0
  2  1  1  0
  3  4  1  0
  3  2  2  0
  4  5  2  0
  5  7  1  0
  5  6  1  0
  7  8  1  0
  8  9  1  0
 10  9  1  0
 11 10  1  0
 11  7  1  0
 12 13  1  0
 12 11  1  0
 14 13  1  0
 15 16  1  0
 15 14  1  0
 16 17  1  0
 17 12  1  0
 18 17  1  0
 18 22  1  0
 19 20  2  0
 19 18  1  0
 20 21  1  0
 21 22  2  0
  1 23  1  0
  2 24  1  0
  3 25  1  0
  8 26  1  0
  8 27  1  0
  9 28  1  0
  9 29  1  0
 10 30  1  0
 10 31  1  0
 11 32  1  6
 13 33  1  0
 13 34  1  0
 14 35  1  0
 14 36  1  0
 16 37  1  0
 16 38  1  0
 17 39  1  1
 20 40  1  0
 21 41  1  0
 22 42  1  0
M  ISO  8  23  14  24  14  25  14  26  13  27  13  28  13  29  13  30  13
M  ISO  8  31  13  32  13  33  13  34  13  35  13  36  13  37  13  38  13
M  ISO  4  39  13  40  14  41  14  42  14
M  END
>  <minimizedAffinity>  (1) 
-4.98410177

>  <minimizedRMSD>  (1) 
2.73532534

$$$$
