
     RDKit          3D

 45 48  0  0  1  0  0  0  0  0999 V2000
   46.5890   31.0740   43.3780 N   0  0  0  0  0  0  0  0  0  0  0  0
   46.9300   30.4330   42.2050 C   0  0  0  0  0  0  0  0  0  0  0  0
   47.8600   29.2530   42.4850 C   0  0  0  0  0  0  0  0  0  0  0  0
   48.8130   29.4690   43.4130 O   0  0  0  0  0  0  0  0  0  0  0  0
   48.4250   30.1310   44.5360 C   0  0  0  0  0  0  0  0  0  0  0  0
   47.5280   31.3480   44.3130 C   0  0  2  0  0  0  0  0  0  0  0  0
   48.3700   35.4260   41.4560 C   0  0  0  0  0  0  0  0  0  0  0  0
   49.5140   34.9200   42.1230 C   0  0  0  0  0  0  0  0  0  0  0  0
   49.3990   33.6720   42.8020 C   0  0  0  0  0  0  0  0  0  0  0  0
   48.1990   33.1020   42.7370 N   0  0  0  0  0  0  0  0  0  0  0  0
   47.1320   33.5870   42.1080 C   0  0  0  0  0  0  0  0  0  0  0  0
   47.2310   34.7500   41.4710 N   0  0  0  0  0  0  0  0  0  0  0  0
   45.9200   32.8690   42.1460 N   0  0  0  0  0  0  0  0  0  0  0  0
   44.8970   32.8630   41.1250 C   0  0  0  0  0  0  0  0  0  0  0  0
   43.6760   32.6330   41.9880 C   0  0  0  0  0  0  0  0  0  0  0  0
   44.1780   31.4760   42.8560 C   0  0  0  0  0  0  0  0  0  0  0  0
   45.5090   32.0040   43.2680 C   0  0  1  0  0  0  0  0  0  0  0  0
   46.6500   31.2530   45.5390 N   0  0  0  0  0  0  0  0  0  0  0  0
   46.1320   30.1320   46.0550 C   0  0  0  0  0  0  0  0  0  0  0  0
   45.3350   30.0470   47.1680 C   0  0  0  0  0  0  0  0  0  0  0  0
   45.0490   31.2310   47.8030 C   0  0  0  0  0  0  0  0  0  0  0  0
   44.3220   31.1920   48.8250 O   0  0  0  0  0  0  0  0  0  0  0  0
   45.5480   32.3620   47.3140 N   0  0  0  0  0  0  0  0  0  0  0  0
   46.3230   32.3630   46.2160 C   0  0  0  0  0  0  0  0  0  0  0  0
   46.7050   33.5150   45.8990 O   0  0  0  0  0  0  0  0  0  0  0  0
   46.0162   30.0644   41.7161 H   0  0  0  0  0  0  0  0  0  0  0  0
   47.4516   31.1469   41.5505 H   0  0  0  0  0  0  0  0  0  0  0  0
   47.2422   28.4087   42.8248 H   0  0  0  0  0  0  0  0  0  0  0  0
   48.3954   29.0624   41.5432 H   0  0  0  0  0  0  0  0  0  0  0  0
   47.8786   29.4213   45.1746 H   0  0  0  0  0  0  0  0  0  0  0  0
   49.3492   30.5195   44.9887 H   0  0  0  0  0  0  0  0  0  0  0  0
   48.1134   32.2513   44.0864 H   0  0  0  0  0  0  0  0  0  0  0  0
   48.4286   36.3862   40.9225 H   0  0  0  0  0  0  0  0  0  0  0  0
   50.4638   35.4749   42.1167 H   0  0  0  0  0  0  0  0  0  0  0  0
   50.2415   33.2136   43.3406 H   0  0  0  0  0  0  0  0  0  0  0  0
   45.0460   32.0484   40.4010 H   0  0  0  0  0  0  0  0  0  0  0  0
   44.8604   33.7652   40.4967 H   0  0  0  0  0  0  0  0  0  0  0  0
   43.4298   33.5191   42.5915 H   0  0  0  0  0  0  0  0  0  0  0  0
   42.7486   32.4275   41.4333 H   0  0  0  0  0  0  0  0  0  0  0  0
   43.5229   31.3046   43.7229 H   0  0  0  0  0  0  0  0  0  0  0  0
   44.2088   30.5010   42.3476 H   0  0  0  0  0  0  0  0  0  0  0  0
   45.3624   32.4397   44.2674 H   0  0  0  0  0  0  0  0  0  0  0  0
   46.3676   29.1902   45.5378 H   0  0  0  0  0  0  0  0  0  0  0  0
   44.9465   29.0844   47.5318 H   0  0  0  0  0  0  0  0  0  0  0  0
   45.3369   33.2534   47.7850 H   0  0  0  0  0  0  0  0  0  0  0  0
  1  2  1  0
  1  6  1  0
  2  3  1  0
  3  4  1  0
  4  5  1  0
  6  5  1  0
  6 18  1  0
  7 12  2  0
  7  8  1  0
  8  9  2  0
 10  9  1  0
 11 13  1  0
 11 10  2  0
 12 11  1  0
 13 17  1  0
 14 15  1  0
 14 13  1  0
 15 16  1  0
 16 17  1  0
 17  1  1  0
 18 19  1  0
 18 24  1  0
 19 20  2  0
 20 21  1  0
 21 22  2  0
 23 21  1  0
 24 23  1  0
 25 24  2  0
  2 26  1  0
  2 27  1  0
  3 28  1  0
  3 29  1  0
  5 30  1  0
  5 31  1  0
  6 32  1  6
  7 33  1  0
  8 34  1  0
  9 35  1  0
 14 36  1  0
 14 37  1  0
 15 38  1  0
 15 39  1  0
 16 40  1  0
 16 41  1  0
 17 42  1  1
 19 43  1  0
 20 44  1  0
 23 45  1  0
M  ISO  8  26  13  27  13  28  13  29  13  30  13  31  13  32  13  33  14
M  ISO  8  34  14  35  14  36  13  37  13  38  13  39  13  40  13  41  13
M  ISO  4  42  13  43  14  44  14  45   9
M  END
>  <minimizedAffinity>  (1) 
-4.84995794

>  <minimizedRMSD>  (1) 
4.66576719

$$$$
