
     RDKit          3D

 46 50  0  0  1  0  0  0  0  0999 V2000
   46.6490   29.5740   46.7560 N   0  0  0  0  0  0  0  0  0  0  0  0
   47.1040   30.6660   46.0670 C   0  0  0  0  0  0  0  0  0  0  0  0
   47.2990   30.3160   44.5900 C   0  0  0  0  0  0  0  0  0  0  0  0
   47.8920   29.1090   44.3620 O   0  0  0  0  0  0  0  0  0  0  0  0
   47.3160   28.0960   45.0630 C   0  0  0  0  0  0  0  0  0  0  0  0
   47.1960   28.3500   46.5740 C   0  0  2  0  0  0  0  0  0  0  0  0
   50.4820   30.8730   49.8070 C   0  0  0  0  0  0  0  0  0  0  0  0
   51.1260   30.0060   48.8790 C   0  0  0  0  0  0  0  0  0  0  0  0
   50.3360   29.4250   47.8480 C   0  0  0  0  0  0  0  0  0  0  0  0
   49.0450   29.7630   47.8630 N   0  0  0  0  0  0  0  0  0  0  0  0
   48.4500   30.5730   48.7320 C   0  0  0  0  0  0  0  0  0  0  0  0
   49.1790   31.1210   49.6980 N   0  0  0  0  0  0  0  0  0  0  0  0
   47.0720   30.8170   48.6050 N   0  0  0  0  0  0  0  0  0  0  0  0
   46.3850   32.0400   48.9840 C   0  0  0  0  0  0  0  0  0  0  0  0
   45.0340   31.4510   49.3550 C   0  0  0  0  0  0  0  0  0  0  0  0
   44.7960   30.5700   48.1240 C   0  0  0  0  0  0  0  0  0  0  0  0
   46.0990   29.8520   48.0600 C   0  0  1  0  0  0  0  0  0  0  0  0
   45.9890   27.4800   46.8700 N   0  0  0  0  0  0  0  0  0  0  0  0
   46.0020   26.5130   47.8220 C   0  0  0  0  0  0  0  0  0  0  0  0
   44.7880   25.9010   47.8650 N   0  0  0  0  0  0  0  0  0  0  0  0
   44.0130   26.4810   46.9420 C   0  0  0  0  0  0  0  0  0  0  0  0
   42.7100   26.3490   46.4740 C   0  0  0  0  0  0  0  0  0  0  0  0
   42.2430   27.1500   45.4770 N   0  0  0  0  0  0  0  0  0  0  0  0
   43.0180   28.1020   44.9010 C   0  0  0  0  0  0  0  0  0  0  0  0
   44.2740   28.2170   45.3630 N   0  0  0  0  0  0  0  0  0  0  0  0
   44.7600   27.4390   46.3470 C   0  0  0  0  0  0  0  0  0  0  0  0
   46.3708   31.4814   46.1534 H   0  0  0  0  0  0  0  0  0  0  0  0
   48.0686   30.9815   46.4913 H   0  0  0  0  0  0  0  0  0  0  0  0
   46.3109   30.3086   44.1067 H   0  0  0  0  0  0  0  0  0  0  0  0
   47.9777   31.0774   44.1782 H   0  0  0  0  0  0  0  0  0  0  0  0
   46.3051   27.9325   44.6614 H   0  0  0  0  0  0  0  0  0  0  0  0
   47.9740   27.2224   44.9453 H   0  0  0  0  0  0  0  0  0  0  0  0
   48.1388   28.2106   47.1232 H   0  0  0  0  0  0  0  0  0  0  0  0
   51.0632   31.3391   50.6163 H   0  0  0  0  0  0  0  0  0  0  0  0
   52.2021   29.7918   48.9568 H   0  0  0  0  0  0  0  0  0  0  0  0
   50.7589   28.7461   47.0929 H   0  0  0  0  0  0  0  0  0  0  0  0
   46.8674   32.5356   49.8394 H   0  0  0  0  0  0  0  0  0  0  0  0
   46.3623   32.8266   48.2154 H   0  0  0  0  0  0  0  0  0  0  0  0
   45.0848   30.8583   50.2803 H   0  0  0  0  0  0  0  0  0  0  0  0
   44.2437   32.1870   49.5641 H   0  0  0  0  0  0  0  0  0  0  0  0
   43.9555   29.8767   48.2752 H   0  0  0  0  0  0  0  0  0  0  0  0
   44.5248   31.1176   47.2094 H   0  0  0  0  0  0  0  0  0  0  0  0
   45.9294   28.8881   48.5621 H   0  0  0  0  0  0  0  0  0  0  0  0
   46.8619   26.2626   48.4606 H   0  0  0  0  0  0  0  0  0  0  0  0
   42.0488   25.5883   46.9146 H   0  0  0  0  0  0  0  0  0  0  0  0
   42.6373   28.7476   44.0959 H   0  0  0  0  0  0  0  0  0  0  0  0
  1  2  1  0
  1 17  1  0
  3  2  1  0
  4  3  1  0
  4  5  1  0
  5  6  1  0
  6  1  1  0
  6 18  1  0
  8  7  2  0
  9 10  2  0
  9  8  1  0
 10 11  1  0
 11 12  2  0
 12  7  1  0
 13 11  1  0
 13 14  1  0
 14 15  1  0
 16 15  1  0
 17 16  1  0
 17 13  1  0
 18 19  1  0
 19 20  2  0
 21 20  1  0
 22 21  2  0
 23 22  1  0
 24 25  1  0
 24 23  2  0
 25 26  2  0
 26 18  1  0
 26 21  1  0
  2 27  1  0
  2 28  1  0
  3 29  1  0
  3 30  1  0
  5 31  1  0
  5 32  1  0
  6 33  1  1
  7 34  1  0
  8 35  1  0
  9 36  1  0
 14 37  1  0
 14 38  1  0
 15 39  1  0
 15 40  1  0
 16 41  1  0
 16 42  1  0
 17 43  1  1
 19 44  1  0
 22 45  1  0
 24 46  1  0
M  ISO  8  27  13  28  13  29  13  30  13  31  13  32  13  33  13  34  14
M  ISO  8  35  14  36  14  37  13  38  13  39  13  40  13  41  13  42  13
M  ISO  4  43  13  44  14  45  14  46  14
M  END
>  <minimizedAffinity>  (1) 
-4.79898882

>  <minimizedRMSD>  (1) 
6.68580723

$$$$
