
     RDKit          3D

 47 50  0  0  1  0  0  0  0  0999 V2000
   44.4100   35.9760   44.7000 C   0  0  0  0  0  0  0  0  0  0  0  0
   44.4220   35.8230   43.2850 C   0  0  0  0  0  0  0  0  0  0  0  0
   45.0140   34.6530   42.7460 C   0  0  0  0  0  0  0  0  0  0  0  0
   45.5100   33.7950   43.6370 N   0  0  0  0  0  0  0  0  0  0  0  0
   45.4950   33.9450   44.9590 C   0  0  0  0  0  0  0  0  0  0  0  0
   44.9400   35.0410   45.4730 N   0  0  0  0  0  0  0  0  0  0  0  0
   46.0670   32.9430   45.7630 N   0  0  0  0  0  0  0  0  0  0  0  0
   45.6480   32.6040   47.1110 C   0  0  0  0  0  0  0  0  0  0  0  0
   46.9660   32.1380   47.6720 C   0  0  0  0  0  0  0  0  0  0  0  0
   47.4160   31.2010   46.5350 C   0  0  0  0  0  0  0  0  0  0  0  0
   47.1900   32.0780   45.3520 C   0  0  1  0  0  0  0  0  0  0  0  0
   46.6950   31.4720   44.1560 N   0  0  0  0  0  0  0  0  0  0  0  0
   45.4520   30.8680   44.2660 C   0  0  0  0  0  0  0  0  0  0  0  0
   45.1780   29.9810   43.0570 C   0  0  0  0  0  0  0  0  0  0  0  0
   45.5220   30.5060   41.8550 O   0  0  0  0  0  0  0  0  0  0  0  0
   46.7660   31.0720   41.8230 C   0  0  0  0  0  0  0  0  0  0  0  0
   47.0790   32.0140   42.9820 C   0  0  2  0  0  0  0  0  0  0  0  0
   48.5730   31.7530   43.1000 N   0  0  0  0  0  0  0  0  0  0  0  0
   48.9840   30.6560   42.3140 C   0  0  0  0  0  0  0  0  0  0  0  0
   50.0980   31.1080   41.3770 C   0  0  0  0  0  0  0  0  0  0  0  0
   50.1320   32.5970   41.4990 C   0  0  0  0  0  0  0  0  0  0  0  0
   49.3120   32.9220   42.7000 C   0  0  0  0  0  0  0  0  0  0  0  0
   43.9598   36.8722   45.1518 H   0  0  0  0  0  0  0  0  0  0  0  0
   43.9848   36.5900   42.6289 H   0  0  0  0  0  0  0  0  0  0  0  0
   45.0609   34.4656   41.6631 H   0  0  0  0  0  0  0  0  0  0  0  0
   45.2584   33.4791   47.6518 H   0  0  0  0  0  0  0  0  0  0  0  0
   44.8274   31.8744   47.1764 H   0  0  0  0  0  0  0  0  0  0  0  0
   47.6676   32.9728   47.8164 H   0  0  0  0  0  0  0  0  0  0  0  0
   46.9102   31.6708   48.6663 H   0  0  0  0  0  0  0  0  0  0  0  0
   48.4748   30.9203   46.6356 H   0  0  0  0  0  0  0  0  0  0  0  0
   46.8855   30.2380   46.4987 H   0  0  0  0  0  0  0  0  0  0  0  0
   48.1699   32.5154   45.1103 H   0  0  0  0  0  0  0  0  0  0  0  0
   45.4280   30.2536   45.1781 H   0  0  0  0  0  0  0  0  0  0  0  0
   44.6804   31.6505   44.3141 H   0  0  0  0  0  0  0  0  0  0  0  0
   45.7393   29.0444   43.1903 H   0  0  0  0  0  0  0  0  0  0  0  0
   44.0869   29.8450   43.0247 H   0  0  0  0  0  0  0  0  0  0  0  0
   47.5095   30.2614   41.8325 H   0  0  0  0  0  0  0  0  0  0  0  0
   46.7994   31.6866   40.9113 H   0  0  0  0  0  0  0  0  0  0  0  0
   46.6631   33.0198   42.8228 H   0  0  0  0  0  0  0  0  0  0  0  0
   49.3547   29.8523   42.9672 H   0  0  0  0  0  0  0  0  0  0  0  0
   48.1335   30.2797   41.7266 H   0  0  0  0  0  0  0  0  0  0  0  0
   49.8756   30.8107   40.3416 H   0  0  0  0  0  0  0  0  0  0  0  0
   51.0646   30.6518   41.6371 H   0  0  0  0  0  0  0  0  0  0  0  0
   51.1659   32.9472   41.6343 H   0  0  0  0  0  0  0  0  0  0  0  0
   49.7408   33.0874   40.5954 H   0  0  0  0  0  0  0  0  0  0  0  0
   49.9719   33.2388   43.5211 H   0  0  0  0  0  0  0  0  0  0  0  0
   48.6129   33.7367   42.4603 H   0  0  0  0  0  0  0  0  0  0  0  0
  1  6  2  0
  2  1  1  0
  3  2  2  0
  3  4  1  0
  4  5  2  0
  5  6  1  0
  5  7  1  0
  7  8  1  0
  8  9  1  0
 10  9  1  0
 11  7  1  0
 11 10  1  0
 12 13  1  0
 12 11  1  0
 14 13  1  0
 15 14  1  0
 16 15  1  0
 16 17  1  0
 17 18  1  0
 17 12  1  0
 18 19  1  0
 20 21  1  0
 20 19  1  0
 21 22  1  0
 22 18  1  0
  1 23  1  0
  2 24  1  0
  3 25  1  0
  8 26  1  0
  8 27  1  0
  9 28  1  0
  9 29  1  0
 10 30  1  0
 10 31  1  0
 11 32  1  6
 13 33  1  0
 13 34  1  0
 14 35  1  0
 14 36  1  0
 16 37  1  0
 16 38  1  0
 17 39  1  6
 19 40  1  0
 19 41  1  0
 20 42  1  0
 20 43  1  0
 21 44  1  0
 21 45  1  0
 22 46  1  0
 22 47  1  0
M  ISO  8  23  14  24  14  25  14  26  13  27  13  28  13  29  13  30  13
M  ISO  8  31  13  32  13  33  13  34  13  35  13  36  13  37  13  38  13
M  ISO  8  39  13  40  13  41  13  42  13  43  13  44  13  45  13  46  13
M  ISO  1  47  13
M  END
>  <minimizedAffinity>  (1) 
-4.5925951

>  <minimizedRMSD>  (1) 
1.49790049

$$$$
