
     RDKit          3D

 48 51  0  0  1  0  0  0  0  0999 V2000
   46.7310   29.5350   46.8440 N   0  0  0  0  0  0  0  0  0  0  0  0
   45.4860   29.3860   46.2800 C   0  0  0  0  0  0  0  0  0  0  0  0
   45.3760   28.0160   45.6200 C   0  0  0  0  0  0  0  0  0  0  0  0
   46.4640   27.6540   44.8680 O   0  0  0  0  0  0  0  0  0  0  0  0
   47.6380   27.8010   45.5390 C   0  0  0  0  0  0  0  0  0  0  0  0
   47.8500   29.1880   46.1710 C   0  0  2  0  0  0  0  0  0  0  0  0
   46.7460   33.8880   44.2560 C   0  0  0  0  0  0  0  0  0  0  0  0
   47.3160   32.9920   43.3160 C   0  0  0  0  0  0  0  0  0  0  0  0
   47.4900   31.6250   43.6970 C   0  0  0  0  0  0  0  0  0  0  0  0
   47.0800   31.3380   44.9380 N   0  0  0  0  0  0  0  0  0  0  0  0
   46.5480   32.1890   45.8100 C   0  0  0  0  0  0  0  0  0  0  0  0
   46.3870   33.4590   45.4550 N   0  0  0  0  0  0  0  0  0  0  0  0
   46.1890   31.7230   47.0870 N   0  0  0  0  0  0  0  0  0  0  0  0
   45.1210   32.2450   47.9190 C   0  0  0  0  0  0  0  0  0  0  0  0
   45.7160   31.9510   49.2890 C   0  0  0  0  0  0  0  0  0  0  0  0
   46.1310   30.4930   49.0790 C   0  0  0  0  0  0  0  0  0  0  0  0
   46.8660   30.6150   47.7870 C   0  0  1  0  0  0  0  0  0  0  0  0
   50.4430   28.2720   49.5080 C   0  0  0  0  0  0  0  0  0  0  0  0
   49.5700   27.3320   49.0640 C   0  0  0  0  0  0  0  0  0  0  0  0
   48.7290   27.5440   48.0240 C   0  0  0  0  0  0  0  0  0  0  0  0
   48.7440   28.7660   47.3720 C   0  0  0  0  0  0  0  0  0  0  0  0
   49.6580   29.7060   47.8600 C   0  0  0  0  0  0  0  0  0  0  0  0
   50.5170   29.4970   48.9180 C   0  0  0  0  0  0  0  0  0  0  0  0
   51.4710   27.8740   50.8540 S   0  0  0  0  0  0  0  0  0  0  0  0
   52.3590   26.6920   50.5280 O   0  0  0  0  0  0  0  0  0  0  0  0
   52.3110   29.0140   51.3000 O   0  0  0  0  0  0  0  0  0  0  0  0
   44.7180   29.4768   47.0622 H   0  0  0  0  0  0  0  0  0  0  0  0
   45.3368   30.1672   45.5201 H   0  0  0  0  0  0  0  0  0  0  0  0
   45.2408   27.2641   46.4114 H   0  0  0  0  0  0  0  0  0  0  0  0
   44.5237   28.0722   44.9269 H   0  0  0  0  0  0  0  0  0  0  0  0
   47.6694   27.0503   46.3424 H   0  0  0  0  0  0  0  0  0  0  0  0
   48.4382   27.6738   44.7951 H   0  0  0  0  0  0  0  0  0  0  0  0
   48.1772   29.9538   45.4523 H   0  0  0  0  0  0  0  0  0  0  0  0
   46.6017   34.9448   43.9869 H   0  0  0  0  0  0  0  0  0  0  0  0
   47.6172   33.3406   42.3171 H   0  0  0  0  0  0  0  0  0  0  0  0
   47.9253   30.8708   43.0249 H   0  0  0  0  0  0  0  0  0  0  0  0
   44.9645   33.3222   47.7605 H   0  0  0  0  0  0  0  0  0  0  0  0
   44.1259   31.8141   47.7346 H   0  0  0  0  0  0  0  0  0  0  0  0
   46.5800   32.5958   49.5077 H   0  0  0  0  0  0  0  0  0  0  0  0
   45.0407   32.1269   50.1393 H   0  0  0  0  0  0  0  0  0  0  0  0
   46.7845   30.1343   49.8879 H   0  0  0  0  0  0  0  0  0  0  0  0
   45.3005   29.7718   49.0726 H   0  0  0  0  0  0  0  0  0  0  0  0
   47.9298   30.6970   48.0547 H   0  0  0  0  0  0  0  0  0  0  0  0
   49.5447   26.3561   49.5709 H   0  0  0  0  0  0  0  0  0  0  0  0
   48.0388   26.7514   47.6993 H   0  0  0  0  0  0  0  0  0  0  0  0
   49.6941   30.6861   47.3619 H   0  0  0  0  0  0  0  0  0  0  0  0
   51.2179   30.2711   49.2637 H   0  0  0  0  0  0  0  0  0  0  0  0
   50.6297   27.5505   51.8857 H   0  0  0  0  0  0  0  0  0  0  0  0
  1  2  1  0
  1 17  1  0
  3  2  1  0
  4  5  1  0
  4  3  1  0
  5  6  1  0
  6  1  1  0
  6 21  1  0
  7 12  2  0
  8  9  2  0
  8  7  1  0
  9 10  1  0
 10 11  2  0
 11 13  1  0
 12 11  1  0
 13 17  1  0
 13 14  1  0
 14 15  1  0
 16 15  1  0
 17 16  1  0
 18 24  1  0
 19 18  2  0
 20 19  1  0
 21 22  1  0
 21 20  2  0
 22 23  2  0
 23 18  1  0
 24 26  2  0
 25 24  2  0
  2 27  1  0
  2 28  1  0
  3 29  1  0
  3 30  1  0
  5 31  1  0
  5 32  1  0
  6 33  1  6
  7 34  1  0
  8 35  1  0
  9 36  1  0
 14 37  1  0
 14 38  1  0
 15 39  1  0
 15 40  1  0
 16 41  1  0
 16 42  1  0
 17 43  1  1
 19 44  1  0
 20 45  1  0
 22 46  1  0
 23 47  1  0
 24 48  1  0
M  ISO  8  27  13  28  13  29  13  30  13  31  13  32  13  33  13  34  14
M  ISO  8  35  14  36  14  37  13  38  13  39  13  40  13  41  13  42  13
M  ISO  6  43  13  44  14  45  14  46  14  47  14  48  11
M  END
>  <minimizedAffinity>  (1) 
-4.46984673

>  <minimizedRMSD>  (1) 
3.39824128

$$$$
