
     RDKit          3D

 38 40  0  0  1  0  0  0  0  0999 V2000
   44.4200   35.9740   44.7100 C   0  0  0  0  0  0  0  0  0  0  0  0
   44.3660   35.8030   43.2950 C   0  0  0  0  0  0  0  0  0  0  0  0
   44.9110   34.6120   42.7430 C   0  0  0  0  0  0  0  0  0  0  0  0
   45.4290   33.7580   43.6220 N   0  0  0  0  0  0  0  0  0  0  0  0
   45.4720   33.9310   44.9420 C   0  0  0  0  0  0  0  0  0  0  0  0
   44.9660   35.0400   45.4750 N   0  0  0  0  0  0  0  0  0  0  0  0
   46.0520   32.9410   45.7400 N   0  0  0  0  0  0  0  0  0  0  0  0
   45.7180   32.6100   47.1160 C   0  0  0  0  0  0  0  0  0  0  0  0
   47.0840   32.1470   47.6050 C   0  0  0  0  0  0  0  0  0  0  0  0
   47.4410   31.1830   46.4700 C   0  0  0  0  0  0  0  0  0  0  0  0
   47.1500   32.0530   45.2980 C   0  0  1  0  0  0  0  0  0  0  0  0
   46.6350   31.4520   44.1230 N   0  0  0  0  0  0  0  0  0  0  0  0
   45.4230   30.7680   44.3190 C   0  0  0  0  0  0  0  0  0  0  0  0
   45.1270   29.8460   43.1550 C   0  0  0  0  0  0  0  0  0  0  0  0
   45.3110   30.4110   41.9210 O   0  0  0  0  0  0  0  0  0  0  0  0
   46.5250   30.9880   41.8060 C   0  0  0  0  0  0  0  0  0  0  0  0
   46.9010   31.9880   42.9240 C   0  0  2  0  0  0  0  0  0  0  0  0
   48.4690   31.8090   42.7940 C   0  0  0  0  0  0  0  0  0  0  0  0
   49.0960   32.9880   43.2500 F   0  0  0  0  0  0  0  0  0  0  0  0
   48.8020   31.6660   41.4920 F   0  0  0  0  0  0  0  0  0  0  0  0
   48.9670   30.8620   43.6270 F   0  0  0  0  0  0  0  0  0  0  0  0
   44.0068   36.8848   45.1680 H   0  0  0  0  0  0  0  0  0  0  0  0
   43.9154   36.5711   42.6493 H   0  0  0  0  0  0  0  0  0  0  0  0
   44.9049   34.4099   41.6617 H   0  0  0  0  0  0  0  0  0  0  0  0
   45.3591   33.4879   47.6732 H   0  0  0  0  0  0  0  0  0  0  0  0
   44.9060   31.8778   47.2364 H   0  0  0  0  0  0  0  0  0  0  0  0
   47.7988   32.9800   47.6768 H   0  0  0  0  0  0  0  0  0  0  0  0
   47.0981   31.7099   48.6143 H   0  0  0  0  0  0  0  0  0  0  0  0
   48.4990   30.8839   46.5048 H   0  0  0  0  0  0  0  0  0  0  0  0
   46.8993   30.2257   46.4848 H   0  0  0  0  0  0  0  0  0  0  0  0
   48.1218   32.4894   45.0238 H   0  0  0  0  0  0  0  0  0  0  0  0
   45.4908   30.1727   45.2415 H   0  0  0  0  0  0  0  0  0  0  0  0
   44.6117   31.5068   44.3965 H   0  0  0  0  0  0  0  0  0  0  0  0
   45.7880   28.9703   43.2338 H   0  0  0  0  0  0  0  0  0  0  0  0
   44.0600   29.5876   43.2245 H   0  0  0  0  0  0  0  0  0  0  0  0
   47.2801   30.1881   41.8001 H   0  0  0  0  0  0  0  0  0  0  0  0
   46.4906   31.5760   40.8770 H   0  0  0  0  0  0  0  0  0  0  0  0
   46.4318   32.9800   42.8473 H   0  0  0  0  0  0  0  0  0  0  0  0
  1  6  2  0
  2  1  1  0
  3  2  2  0
  3  4  1  0
  4  5  2  0
  5  6  1  0
  5  7  1  0
  7  8  1  0
  8  9  1  0
 10  9  1  0
 11  7  1  0
 11 10  1  0
 12 13  1  0
 12 11  1  0
 14 13  1  0
 15 14  1  0
 16 15  1  0
 16 17  1  0
 17 12  1  0
 18 17  1  0
 18 19  1  0
 18 21  1  0
 20 18  1  0
  1 22  1  0
  2 23  1  0
  3 24  1  0
  8 25  1  0
  8 26  1  0
  9 27  1  0
  9 28  1  0
 10 29  1  0
 10 30  1  0
 11 31  1  6
 13 32  1  0
 13 33  1  0
 14 34  1  0
 14 35  1  0
 16 36  1  0
 16 37  1  0
 17 38  1  6
M  ISO  8  22  14  23  14  24  14  25  13  26  13  27  13  28  13  29  13
M  ISO  8  30  13  31  13  32  13  33  13  34  13  35  13  36  13  37  13
M  ISO  1  38  13
M  END
>  <minimizedAffinity>  (1) 
-4.41408777

>  <minimizedRMSD>  (1) 
1.41798329

$$$$
