
     RDKit          3D

 36 38  0  0  1  0  0  0  0  0999 V2000
   44.4740   35.8390   44.6630 C   0  0  0  0  0  0  0  0  0  0  0  0
   44.5310   35.5730   43.2710 C   0  0  0  0  0  0  0  0  0  0  0  0
   45.1140   34.3430   42.8450 C   0  0  0  0  0  0  0  0  0  0  0  0
   45.5560   33.5510   43.8160 N   0  0  0  0  0  0  0  0  0  0  0  0
   45.4960   33.8120   45.1220 C   0  0  0  0  0  0  0  0  0  0  0  0
   44.9530   34.9580   45.5200 N   0  0  0  0  0  0  0  0  0  0  0  0
   46.0090   32.8770   46.0330 N   0  0  0  0  0  0  0  0  0  0  0  0
   45.5450   32.6520   47.3860 C   0  0  0  0  0  0  0  0  0  0  0  0
   46.8550   32.2130   48.0260 C   0  0  0  0  0  0  0  0  0  0  0  0
   47.3020   31.1730   46.9940 C   0  0  0  0  0  0  0  0  0  0  0  0
   47.1270   31.9620   45.7370 C   0  0  1  0  0  0  0  0  0  0  0  0
   46.6550   31.2560   44.5770 N   0  0  0  0  0  0  0  0  0  0  0  0
   45.3420   30.8500   44.6200 C   0  0  0  0  0  0  0  0  0  0  0  0
   45.0710   29.8360   43.5070 C   0  0  0  0  0  0  0  0  0  0  0  0
   45.5910   30.1650   42.2900 O   0  0  0  0  0  0  0  0  0  0  0  0
   46.9150   30.5090   42.3540 C   0  0  0  0  0  0  0  0  0  0  0  0
   47.2400   31.5800   43.4030 C   0  0  2  0  0  0  0  0  0  0  0  0
   48.5960   31.1320   43.7520 O   0  0  0  0  0  0  0  0  0  0  0  0
   44.0313   36.7779   45.0271 H   0  0  0  0  0  0  0  0  0  0  0  0
   44.1367   36.2949   42.5406 H   0  0  0  0  0  0  0  0  0  0  0  0
   45.1925   34.0682   41.7828 H   0  0  0  0  0  0  0  0  0  0  0  0
   45.1515   33.5715   47.8440 H   0  0  0  0  0  0  0  0  0  0  0  0
   44.7119   31.9405   47.4850 H   0  0  0  0  0  0  0  0  0  0  0  0
   47.5708   33.0442   48.1080 H   0  0  0  0  0  0  0  0  0  0  0  0
   46.7717   31.8433   49.0587 H   0  0  0  0  0  0  0  0  0  0  0  0
   48.3494   30.8725   47.1447 H   0  0  0  0  0  0  0  0  0  0  0  0
   46.7490   30.2226   47.0249 H   0  0  0  0  0  0  0  0  0  0  0  0
   48.1197   32.3702   45.4963 H   0  0  0  0  0  0  0  0  0  0  0  0
   45.1365   30.3842   45.5951 H   0  0  0  0  0  0  0  0  0  0  0  0
   44.6891   31.7240   44.4790 H   0  0  0  0  0  0  0  0  0  0  0  0
   45.5010   28.8707   43.8124 H   0  0  0  0  0  0  0  0  0  0  0  0
   43.9791   29.8055   43.3773 H   0  0  0  0  0  0  0  0  0  0  0  0
   47.4944   29.6052   42.5938 H   0  0  0  0  0  0  0  0  0  0  0  0
   47.1762   30.9378   41.3753 H   0  0  0  0  0  0  0  0  0  0  0  0
   47.0124   32.5989   43.0566 H   0  0  0  0  0  0  0  0  0  0  0  0
   48.6900   31.1009   44.7370 H   0  0  0  0  0  0  0  0  0  0  0  0
  1  6  2  0
  2  1  1  0
  3  2  2  0
  3  4  1  0
  4  5  2  0
  5  6  1  0
  5  7  1  0
  7  8  1  0
  8  9  1  0
 10  9  1  0
 11  7  1  0
 11 10  1  0
 12 13  1  0
 12 11  1  0
 14 13  1  0
 15 16  1  0
 15 14  1  0
 16 17  1  0
 17 18  1  0
 17 12  1  0
  1 19  1  0
  2 20  1  0
  3 21  1  0
  8 22  1  0
  8 23  1  0
  9 24  1  0
  9 25  1  0
 10 26  1  0
 10 27  1  0
 11 28  1  6
 13 29  1  0
 13 30  1  0
 14 31  1  0
 14 32  1  0
 16 33  1  0
 16 34  1  0
 17 35  1  6
 18 36  1  0
M  ISO  8  19  14  20  14  21  14  22  13  23  13  24  13  25  13  26  13
M  ISO  8  27  13  28  13  29  13  30  13  31  13  32  13  33  13  34  13
M  ISO  2  35  13  36   3
M  END
>  <minimizedAffinity>  (1) 
-4.18135309

>  <minimizedRMSD>  (1) 
0.733004391

$$$$
