
     RDKit          3D

 31 34  0  0  0  0  0  0  0  0999 V2000
   46.6900   34.8010   42.0320 C   0  0  0  0  0  0  0  0  0  0  0  0
   47.9540   35.3600   41.9520 C   0  0  0  0  0  0  0  0  0  0  0  0
   48.7770   35.2580   40.8490 C   0  0  0  0  0  0  0  0  0  0  0  0
   48.3430   34.5670   39.7540 C   0  0  0  0  0  0  0  0  0  0  0  0
   47.0900   33.9840   39.7670 C   0  0  0  0  0  0  0  0  0  0  0  0
   46.6370   33.2850   38.6620 C   0  0  0  0  0  0  0  0  0  0  0  0
   45.3900   32.6930   38.6350 C   0  0  0  0  0  0  0  0  0  0  0  0
   44.6290   32.8440   39.7830 C   0  0  0  0  0  0  0  0  0  0  0  0
   45.0990   33.5360   40.8550 C   0  0  0  0  0  0  0  0  0  0  0  0
   46.3290   34.1270   40.8930 C   0  0  0  0  0  0  0  0  0  0  0  0
   44.4110   35.9590   44.8510 C   0  0  0  0  0  0  0  0  0  0  0  0
   45.0290   35.9360   43.6140 C   0  0  0  0  0  0  0  0  0  0  0  0
   45.9560   34.9870   43.2550 C   0  0  0  0  0  0  0  0  0  0  0  0
   46.1970   34.0770   44.2450 N   0  0  0  0  0  0  0  0  0  0  0  0
   45.6170   34.0740   45.4490 C   0  0  0  0  0  0  0  0  0  0  0  0
   44.7260   35.0190   45.7350 N   0  0  0  0  0  0  0  0  0  0  0  0
   45.9570   33.0460   46.4270 C   0  0  0  0  0  0  0  0  0  0  0  0
   46.8450   32.0780   46.5970 N   0  0  0  0  0  0  0  0  0  0  0  0
   46.6060   31.4800   47.7470 O   0  0  0  0  0  0  0  0  0  0  0  0
   45.5820   32.0280   48.3440 C   0  0  0  0  0  0  0  0  0  0  0  0
   45.1630   33.0180   47.5220 N   0  0  0  0  0  0  0  0  0  0  0  0
   48.3257   35.9207   42.8223 H   0  0  0  0  0  0  0  0  0  0  0  0
   49.7715   35.7281   40.8518 H   0  0  0  0  0  0  0  0  0  0  0  0
   48.9869   34.4750   38.8669 H   0  0  0  0  0  0  0  0  0  0  0  0
   47.2889   33.1986   37.7802 H   0  0  0  0  0  0  0  0  0  0  0  0
   45.0243   32.1374   37.7588 H   0  0  0  0  0  0  0  0  0  0  0  0
   43.6256   32.3956   39.8280 H   0  0  0  0  0  0  0  0  0  0  0  0
   44.4524   33.6245   41.7405 H   0  0  0  0  0  0  0  0  0  0  0  0
   43.6749   36.7384   45.0973 H   0  0  0  0  0  0  0  0  0  0  0  0
   44.7661   36.7144   42.8826 H   0  0  0  0  0  0  0  0  0  0  0  0
   45.1494   31.7436   49.3146 H   0  0  0  0  0  0  0  0  0  0  0  0
  1 13  1  0
  2  1  2  0
  3  2  1  0
  4  5  1  0
  4  3  2  0
  5 10  2  0
  6  5  1  0
  7  6  2  0
  7  8  1  0
  8  9  2  0
  9 10  1  0
 10  1  1  0
 11 16  2  0
 12 11  1  0
 13 12  2  0
 13 14  1  0
 14 15  2  0
 15 16  1  0
 15 17  1  0
 17 18  2  0
 17 21  1  0
 18 19  1  0
 19 20  1  0
 21 20  2  0
  2 22  1  0
  3 23  1  0
  4 24  1  0
  6 25  1  0
  7 26  1  0
  8 27  1  0
  9 28  1  0
 11 29  1  0
 12 30  1  0
 20 31  1  0
M  ISO  8  22  14  23  14  24  14  25  14  26  14  27  14  28  14  29  14
M  ISO  2  30  14  31  14
M  END
>  <minimizedAffinity>  (1) 
-6.7095356

>  <minimizedRMSD>  (1) 
0.228121877

$$$$
