
     RDKit          3D

 36 39  0  0  1  0  0  0  0  0999 V2000
   46.8080   34.3670   42.3240 N   0  0  0  0  0  0  0  0  0  0  0  0
   48.2140   34.6690   42.0600 C   0  0  0  0  0  0  0  0  0  0  0  0
   48.1450   35.0880   40.6250 C   0  0  0  0  0  0  0  0  0  0  0  0
   47.3160   33.9660   40.0330 C   0  0  0  0  0  0  0  0  0  0  0  0
   46.3140   33.7000   41.1420 C   0  0  2  0  0  0  0  0  0  0  0  0
   45.0100   34.1720   40.7340 N   0  0  0  0  0  0  0  0  0  0  0  0
   44.2170   35.1780   41.1270 C   0  0  0  0  0  0  0  0  0  0  0  0
   43.0720   35.1990   40.4190 N   0  0  0  0  0  0  0  0  0  0  0  0
   43.1350   34.1900   39.5600 C   0  0  0  0  0  0  0  0  0  0  0  0
   42.1770   33.8140   38.6180 C   0  0  0  0  0  0  0  0  0  0  0  0
   41.0920   34.4600   38.5040 O   0  0  0  0  0  0  0  0  0  0  0  0
   42.4380   32.7470   37.8310 N   0  0  0  0  0  0  0  0  0  0  0  0
   43.6230   32.1110   38.0180 C   0  0  0  0  0  0  0  0  0  0  0  0
   43.9820   30.9740   37.2310 N   0  0  0  0  0  0  0  0  0  0  0  0
   44.5490   32.4820   38.9360 N   0  0  0  0  0  0  0  0  0  0  0  0
   44.3380   33.5430   39.7470 C   0  0  0  0  0  0  0  0  0  0  0  0
   44.5850   36.0080   44.8040 C   0  0  0  0  0  0  0  0  0  0  0  0
   45.2980   35.8130   43.6200 C   0  0  0  0  0  0  0  0  0  0  0  0
   46.0630   34.6470   43.4690 C   0  0  0  0  0  0  0  0  0  0  0  0
   46.0610   33.7620   44.5100 N   0  0  0  0  0  0  0  0  0  0  0  0
   45.3610   33.9690   45.6540 C   0  0  0  0  0  0  0  0  0  0  0  0
   44.6250   35.0980   45.7910 N   0  0  0  0  0  0  0  0  0  0  0  0
   48.5809   35.4830   42.7024 H   0  0  0  0  0  0  0  0  0  0  0  0
   48.9043   33.8360   42.2590 H   0  0  0  0  0  0  0  0  0  0  0  0
   47.6454   36.0615   40.5124 H   0  0  0  0  0  0  0  0  0  0  0  0
   49.1257   35.2270   40.1466 H   0  0  0  0  0  0  0  0  0  0  0  0
   46.8138   34.2846   39.1077 H   0  0  0  0  0  0  0  0  0  0  0  0
   47.9045   33.0828   39.7438 H   0  0  0  0  0  0  0  0  0  0  0  0
   46.2027   32.6273   41.3584 H   0  0  0  0  0  0  0  0  0  0  0  0
   44.4686   35.8933   41.9239 H   0  0  0  0  0  0  0  0  0  0  0  0
   41.7656   32.4292   37.1184 H   0  0  0  0  0  0  0  0  0  0  0  0
   44.8853   30.5042   37.3869 H   0  0  0  0  0  0  0  0  0  0  0  0
   43.3376   30.6241   36.5077 H   0  0  0  0  0  0  0  0  0  0  0  0
   43.9821   36.9194   44.9304 H   0  0  0  0  0  0  0  0  0  0  0  0
   45.2605   36.5633   42.8165 H   0  0  0  0  0  0  0  0  0  0  0  0
   45.3910   33.2255   46.4641 H   0  0  0  0  0  0  0  0  0  0  0  0
  1 19  1  0
  2  1  1  0
  3  2  1  0
  4  3  1  0
  4  5  1  0
  5  1  1  0
  6  7  1  0
  6  5  1  0
  8  7  2  0
  9 16  2  0
  9  8  1  0
 10  9  1  0
 11 10  2  0
 12 13  1  0
 12 10  1  0
 13 15  2  0
 14 13  1  0
 15 16  1  0
 16  6  1  0
 17 22  2  0
 18 17  1  0
 19 18  2  0
 19 20  1  0
 20 21  2  0
 21 22  1  0
  2 23  1  0
  2 24  1  0
  3 25  1  0
  3 26  1  0
  4 27  1  0
  4 28  1  0
  5 29  1  1
  7 30  1  0
 12 31  1  0
 14 32  1  0
 14 33  1  0
 17 34  1  0
 18 35  1  0
 21 36  1  0
M  ISO  8  23  13  24  13  25  13  26  13  27  13  28  13  29  13  30  14
M  ISO  4  31   9  34  14  35  14  36  14
M  END
>  <minimizedAffinity>  (1) 
-5.97155333

>  <minimizedRMSD>  (1) 
1.35497105

$$$$
