
     RDKit          3D

 38 41  0  0  1  0  0  0  0  0999 V2000
   47.1910   34.4750   42.6600 N   0  0  0  0  0  0  0  0  0  0  0  0
   48.5800   34.0960   42.6700 C   0  0  0  0  0  0  0  0  0  0  0  0
   49.1090   35.0340   41.5990 C   0  0  0  0  0  0  0  0  0  0  0  0
   48.1100   34.7640   40.5010 C   0  0  0  0  0  0  0  0  0  0  0  0
   46.7970   34.7160   41.2630 C   0  0  1  0  0  0  0  0  0  0  0  0
   45.9260   33.6230   40.8060 C   0  0  0  0  0  0  0  0  0  0  0  0
   46.3850   32.3230   40.5820 C   0  0  0  0  0  0  0  0  0  0  0  0
   45.5960   31.2810   40.1570 C   0  0  0  0  0  0  0  0  0  0  0  0
   44.2560   31.4940   39.9260 C   0  0  0  0  0  0  0  0  0  0  0  0
   43.7400   32.7470   40.1260 C   0  0  0  0  0  0  0  0  0  0  0  0
   42.3970   32.9570   39.8910 C   0  0  0  0  0  0  0  0  0  0  0  0
   41.8270   34.2010   40.0770 C   0  0  0  0  0  0  0  0  0  0  0  0
   42.6400   35.2410   40.5060 C   0  0  0  0  0  0  0  0  0  0  0  0
   43.9810   34.9820   40.7280 C   0  0  0  0  0  0  0  0  0  0  0  0
   44.5670   33.7690   40.5540 C   0  0  0  0  0  0  0  0  0  0  0  0
   44.5020   35.7160   44.9300 C   0  0  0  0  0  0  0  0  0  0  0  0
   45.3450   35.6460   43.8090 C   0  0  0  0  0  0  0  0  0  0  0  0
   46.3160   34.6100   43.7420 C   0  0  0  0  0  0  0  0  0  0  0  0
   46.3480   33.7530   44.7960 N   0  0  0  0  0  0  0  0  0  0  0  0
   45.5220   33.8460   45.8600 C   0  0  0  0  0  0  0  0  0  0  0  0
   44.6110   34.8240   45.9140 N   0  0  0  0  0  0  0  0  0  0  0  0
   49.0488   34.2843   43.6471 H   0  0  0  0  0  0  0  0  0  0  0  0
   48.7731   33.0280   42.4911 H   0  0  0  0  0  0  0  0  0  0  0  0
   49.0828   36.0839   41.9261 H   0  0  0  0  0  0  0  0  0  0  0  0
   50.1607   34.8734   41.3195 H   0  0  0  0  0  0  0  0  0  0  0  0
   48.3161   33.8058   40.0016 H   0  0  0  0  0  0  0  0  0  0  0  0
   48.1255   35.5145   39.6969 H   0  0  0  0  0  0  0  0  0  0  0  0
   46.2247   35.6441   41.1178 H   0  0  0  0  0  0  0  0  0  0  0  0
   47.4515   32.1191   40.7579 H   0  0  0  0  0  0  0  0  0  0  0  0
   46.0326   30.2833   40.0025 H   0  0  0  0  0  0  0  0  0  0  0  0
   43.6098   30.6712   39.5862 H   0  0  0  0  0  0  0  0  0  0  0  0
   41.7700   32.1200   39.5499 H   0  0  0  0  0  0  0  0  0  0  0  0
   40.7553   34.3637   39.8898 H   0  0  0  0  0  0  0  0  0  0  0  0
   42.2276   36.2482   40.6659 H   0  0  0  0  0  0  0  0  0  0  0  0
   44.6149   35.8141   41.0682 H   0  0  0  0  0  0  0  0  0  0  0  0
   43.7464   36.5127   44.9963 H   0  0  0  0  0  0  0  0  0  0  0  0
   45.2553   36.3812   42.9957 H   0  0  0  0  0  0  0  0  0  0  0  0
   45.5981   33.1184   46.6815 H   0  0  0  0  0  0  0  0  0  0  0  0
  1  2  1  0
  1 18  1  0
  3  2  1  0
  4  5  1  0
  4  3  1  0
  5  1  1  0
  6  5  1  0
  7  6  2  0
  8  7  1  0
  9 10  1  0
  9  8  2  0
 10 15  2  0
 11 12  2  0
 11 10  1  0
 12 13  1  0
 13 14  2  0
 15 14  1  0
 15  6  1  0
 16 21  2  0
 17 16  1  0
 18 17  2  0
 18 19  1  0
 19 20  2  0
 20 21  1  0
  2 22  1  0
  2 23  1  0
  3 24  1  0
  3 25  1  0
  4 26  1  0
  4 27  1  0
  5 28  1  1
  7 29  1  0
  8 30  1  0
  9 31  1  0
 11 32  1  0
 12 33  1  0
 13 34  1  0
 14 35  1  0
 16 36  1  0
 17 37  1  0
 20 38  1  0
M  ISO  8  22  13  23  13  24  13  25  13  26  13  27  13  28  13  29  14
M  ISO  8  30  14  31  14  32  14  33  14  34  14  35  14  36  14  37  14
M  ISO  1  38  14
M  END
>  <minimizedAffinity>  (1) 
-5.57276964

>  <minimizedRMSD>  (1) 
1.46900201

$$$$
