
     RDKit          3D

 36 39  0  0  1  0  0  0  0  0999 V2000
   46.9630   34.4340   42.4470 N   0  0  0  0  0  0  0  0  0  0  0  0
   48.3590   34.0310   42.3860 C   0  0  0  0  0  0  0  0  0  0  0  0
   48.8060   34.8560   41.1990 C   0  0  0  0  0  0  0  0  0  0  0  0
   47.7350   34.4720   40.2060 C   0  0  0  0  0  0  0  0  0  0  0  0
   46.4860   34.5430   41.0590 C   0  0  1  0  0  0  0  0  0  0  0  0
   45.5800   33.4110   40.8480 C   0  0  0  0  0  0  0  0  0  0  0  0
   46.0150   32.1370   40.9200 N   0  0  0  0  0  0  0  0  0  0  0  0
   45.1780   31.0860   40.7250 C   0  0  0  0  0  0  0  0  0  0  0  0
   43.8560   31.2650   40.4480 N   0  0  0  0  0  0  0  0  0  0  0  0
   43.3740   32.5020   40.3650 C   0  0  0  0  0  0  0  0  0  0  0  0
   42.0410   32.6970   40.0850 C   0  0  0  0  0  0  0  0  0  0  0  0
   41.5110   33.9840   39.9940 C   0  0  0  0  0  0  0  0  0  0  0  0
   42.3520   35.0590   40.1900 C   0  0  0  0  0  0  0  0  0  0  0  0
   43.6890   34.8380   40.4710 C   0  0  0  0  0  0  0  0  0  0  0  0
   44.2340   33.5730   40.5660 C   0  0  0  0  0  0  0  0  0  0  0  0
   44.4910   35.9310   44.7890 C   0  0  0  0  0  0  0  0  0  0  0  0
   45.2620   35.7750   43.6260 C   0  0  0  0  0  0  0  0  0  0  0  0
   46.1460   34.6900   43.5520 C   0  0  0  0  0  0  0  0  0  0  0  0
   46.2090   33.8320   44.6300 N   0  0  0  0  0  0  0  0  0  0  0  0
   45.4380   34.0290   45.7360 C   0  0  0  0  0  0  0  0  0  0  0  0
   44.5930   35.0710   45.7990 N   0  0  0  0  0  0  0  0  0  0  0  0
   48.9044   34.3013   43.3022 H   0  0  0  0  0  0  0  0  0  0  0  0
   48.5300   32.9482   42.2944 H   0  0  0  0  0  0  0  0  0  0  0  0
   48.7921   35.9334   41.4204 H   0  0  0  0  0  0  0  0  0  0  0  0
   49.8383   34.6734   40.8659 H   0  0  0  0  0  0  0  0  0  0  0  0
   47.8963   33.4566   39.8149 H   0  0  0  0  0  0  0  0  0  0  0  0
   47.7031   35.1137   39.3131 H   0  0  0  0  0  0  0  0  0  0  0  0
   45.9382   35.4654   40.8156 H   0  0  0  0  0  0  0  0  0  0  0  0
   45.5775   30.0633   40.7924 H   0  0  0  0  0  0  0  0  0  0  0  0
   41.3853   31.8273   39.9310 H   0  0  0  0  0  0  0  0  0  0  0  0
   40.4450   34.1381   39.7707 H   0  0  0  0  0  0  0  0  0  0  0  0
   41.9627   36.0857   40.1234 H   0  0  0  0  0  0  0  0  0  0  0  0
   44.3454   35.7071   40.6252 H   0  0  0  0  0  0  0  0  0  0  0  0
   43.7921   36.7769   44.8663 H   0  0  0  0  0  0  0  0  0  0  0  0
   45.1743   36.4876   42.7926 H   0  0  0  0  0  0  0  0  0  0  0  0
   45.5081   33.3302   46.5826 H   0  0  0  0  0  0  0  0  0  0  0  0
  1 18  1  0
  2  1  1  0
  3  2  1  0
  4  5  1  0
  4  3  1  0
  5  1  1  0
  6  7  2  0
  6  5  1  0
  8  7  1  0
  9  8  2  0
 10  9  1  0
 10 15  2  0
 11 10  1  0
 12 11  2  0
 12 13  1  0
 13 14  2  0
 14 15  1  0
 15  6  1  0
 16 21  2  0
 17 16  1  0
 18 17  2  0
 18 19  1  0
 19 20  2  0
 20 21  1  0
  2 22  1  0
  2 23  1  0
  3 24  1  0
  3 25  1  0
  4 26  1  0
  4 27  1  0
  5 28  1  1
  8 29  1  0
 11 30  1  0
 12 31  1  0
 13 32  1  0
 14 33  1  0
 16 34  1  0
 17 35  1  0
 20 36  1  0
M  ISO  8  22  13  23  13  24  13  25  13  26  13  27  13  28  13  29  14
M  ISO  7  30  14  31  14  32  14  33  14  34  14  35  14  36  14
M  END
>  <minimizedAffinity>  (1) 
-5.46600103

>  <minimizedRMSD>  (1) 
3.1898396

$$$$
