
     RDKit          3D

 38 40  0  0  1  0  0  0  0  0999 V2000
   47.2200   34.6060   42.5500 N   0  0  0  0  0  0  0  0  0  0  0  0
   48.6580   34.3530   42.6040 C   0  0  0  0  0  0  0  0  0  0  0  0
   49.1380   35.2840   41.5160 C   0  0  0  0  0  0  0  0  0  0  0  0
   48.2220   34.8440   40.4090 C   0  0  0  0  0  0  0  0  0  0  0  0
   46.8990   34.6800   41.1450 C   0  0  1  0  0  0  0  0  0  0  0  0
   44.4740   35.8240   44.7230 C   0  0  0  0  0  0  0  0  0  0  0  0
   45.3370   35.7550   43.6280 C   0  0  0  0  0  0  0  0  0  0  0  0
   46.3210   34.7520   43.6010 C   0  0  0  0  0  0  0  0  0  0  0  0
   46.3580   33.9090   44.6640 N   0  0  0  0  0  0  0  0  0  0  0  0
   45.5220   33.9790   45.7200 C   0  0  0  0  0  0  0  0  0  0  0  0
   44.5830   34.9410   45.7400 N   0  0  0  0  0  0  0  0  0  0  0  0
   46.1390   33.4760   40.6300 C   0  0  0  0  0  0  0  0  0  0  0  0
   44.7300   33.8440   40.3960 C   0  0  0  0  0  0  0  0  0  0  0  0
   44.1240   33.2350   39.1520 C   0  0  0  0  0  0  0  0  0  0  0  0
   44.6460   31.8550   38.9840 C   0  0  0  0  0  0  0  0  0  0  0  0
   46.1020   31.9610   38.6090 C   0  0  0  0  0  0  0  0  0  0  0  0
   46.8760   32.9050   39.4730 C   0  0  0  0  0  0  0  0  0  0  0  0
   49.0814   34.6196   43.5836 H   0  0  0  0  0  0  0  0  0  0  0  0
   48.9452   33.2999   42.4681 H   0  0  0  0  0  0  0  0  0  0  0  0
   48.9867   36.3408   41.7810 H   0  0  0  0  0  0  0  0  0  0  0  0
   50.2131   35.2320   41.2892 H   0  0  0  0  0  0  0  0  0  0  0  0
   48.5552   33.8931   39.9677 H   0  0  0  0  0  0  0  0  0  0  0  0
   48.1768   35.5458   39.5631 H   0  0  0  0  0  0  0  0  0  0  0  0
   46.2216   35.5293   40.9724 H   0  0  0  0  0  0  0  0  0  0  0  0
   43.6988   36.6036   44.7583 H   0  0  0  0  0  0  0  0  0  0  0  0
   45.2483   36.4737   42.8000 H   0  0  0  0  0  0  0  0  0  0  0  0
   45.6069   33.2620   46.5499 H   0  0  0  0  0  0  0  0  0  0  0  0
   46.0864   32.6610   41.3669 H   0  0  0  0  0  0  0  0  0  0  0  0
   44.1395   33.5139   41.2634 H   0  0  0  0  0  0  0  0  0  0  0  0
   44.7098   34.9346   40.2536 H   0  0  0  0  0  0  0  0  0  0  0  0
   43.0290   33.2052   39.2522 H   0  0  0  0  0  0  0  0  0  0  0  0
   44.3905   33.8419   38.2742 H   0  0  0  0  0  0  0  0  0  0  0  0
   44.5410   31.2970   39.9261 H   0  0  0  0  0  0  0  0  0  0  0  0
   44.0838   31.3217   38.2033 H   0  0  0  0  0  0  0  0  0  0  0  0
   46.5559   30.9624   38.6916 H   0  0  0  0  0  0  0  0  0  0  0  0
   46.1428   32.3558   37.5831 H   0  0  0  0  0  0  0  0  0  0  0  0
   47.7508   32.3646   39.8637 H   0  0  0  0  0  0  0  0  0  0  0  0
   47.1288   33.7601   38.8288 H   0  0  0  0  0  0  0  0  0  0  0  0
  1  2  1  0
  1  8  1  0
  3  2  1  0
  4  5  1  0
  4  3  1  0
  5  1  1  0
  6 11  2  0
  7  6  1  0
  8  7  2  0
  8  9  1  0
  9 10  2  0
 10 11  1  0
 12  5  1  0
 13 12  1  0
 14 13  1  0
 15 14  1  0
 16 15  1  0
 16 17  1  0
 17 12  1  0
  2 18  1  0
  2 19  1  0
  3 20  1  0
  3 21  1  0
  4 22  1  0
  4 23  1  0
  5 24  1  1
  6 25  1  0
  7 26  1  0
 10 27  1  0
 12 28  1  0
 13 29  1  0
 13 30  1  0
 14 31  1  0
 14 32  1  0
 15 33  1  0
 15 34  1  0
 16 35  1  0
 16 36  1  0
 17 37  1  0
 17 38  1  0
M  ISO  8  18  13  19  13  20  13  21  13  22  13  23  13  24  13  25  14
M  ISO  8  26  14  27  14  28  13  29  13  30  13  31  13  32  13  33  13
M  ISO  5  34  13  35  13  36  13  37  13  38  13
M  END
>  <minimizedAffinity>  (1) 
-4.78497887

>  <minimizedRMSD>  (1) 
1.11551583

$$$$
