
     RDKit          3D

 36 38  0  0  1  0  0  0  0  0999 V2000
   47.2170   34.6940   42.3010 N   0  0  0  0  0  0  0  0  0  0  0  0
   48.6740   34.7990   42.3090 C   0  0  0  0  0  0  0  0  0  0  0  0
   48.8710   35.5310   40.9970 C   0  0  0  0  0  0  0  0  0  0  0  0
   48.0510   34.6240   40.0850 C   0  0  0  0  0  0  0  0  0  0  0  0
   46.8340   34.3850   40.9280 C   0  0  1  0  0  0  0  0  0  0  0  0
   44.5070   35.9630   44.5040 C   0  0  0  0  0  0  0  0  0  0  0  0
   45.3600   35.8930   43.3980 C   0  0  0  0  0  0  0  0  0  0  0  0
   46.3150   34.8510   43.3660 C   0  0  0  0  0  0  0  0  0  0  0  0
   46.3540   33.9650   44.4190 N   0  0  0  0  0  0  0  0  0  0  0  0
   45.4950   34.0930   45.4620 C   0  0  0  0  0  0  0  0  0  0  0  0
   44.5900   35.0720   45.5020 N   0  0  0  0  0  0  0  0  0  0  0  0
   46.3120   33.0920   40.7480 N   0  0  0  0  0  0  0  0  0  0  0  0
   44.9250   32.8920   40.8200 C   0  0  0  0  0  0  0  0  0  0  0  0
   44.6940   31.3950   40.7030 C   0  0  0  0  0  0  0  0  0  0  0  0
   45.5760   30.7420   39.7830 N   0  0  0  0  0  0  0  0  0  0  0  0
   46.9640   30.9090   40.0740 C   0  0  0  0  0  0  0  0  0  0  0  0
   47.1440   31.9990   41.1080 C   0  0  0  0  0  0  0  0  0  0  0  0
   49.0399   35.3839   43.1657 H   0  0  0  0  0  0  0  0  0  0  0  0
   49.2147   33.8456   42.4025 H   0  0  0  0  0  0  0  0  0  0  0  0
   48.4669   36.5535   41.0316 H   0  0  0  0  0  0  0  0  0  0  0  0
   49.9178   35.6808   40.6941 H   0  0  0  0  0  0  0  0  0  0  0  0
   48.5815   33.6851   39.8678 H   0  0  0  0  0  0  0  0  0  0  0  0
   47.8369   35.0540   39.0954 H   0  0  0  0  0  0  0  0  0  0  0  0
   45.9993   35.0363   40.6297 H   0  0  0  0  0  0  0  0  0  0  0  0
   43.7544   36.7636   44.5559 H   0  0  0  0  0  0  0  0  0  0  0  0
   45.2902   36.6248   42.5797 H   0  0  0  0  0  0  0  0  0  0  0  0
   45.5463   33.3736   46.2925 H   0  0  0  0  0  0  0  0  0  0  0  0
   44.5379   33.2615   41.7811 H   0  0  0  0  0  0  0  0  0  0  0  0
   44.4042   33.4369   40.0188 H   0  0  0  0  0  0  0  0  0  0  0  0
   44.8342   30.9442   41.6965 H   0  0  0  0  0  0  0  0  0  0  0  0
   43.6727   31.2586   40.3177 H   0  0  0  0  0  0  0  0  0  0  0  0
   45.3968   31.1202   38.8419 H   0  0  0  0  0  0  0  0  0  0  0  0
   47.3714   29.9647   40.4643 H   0  0  0  0  0  0  0  0  0  0  0  0
   47.4965   31.1904   39.1535 H   0  0  0  0  0  0  0  0  0  0  0  0
   48.1952   32.3222   41.1296 H   0  0  0  0  0  0  0  0  0  0  0  0
   46.8711   31.6256   42.1060 H   0  0  0  0  0  0  0  0  0  0  0  0
  1  2  1  0
  1  8  1  0
  3  2  1  0
  4  5  1  0
  4  3  1  0
  5  1  1  0
  6 11  2  0
  7  6  1  0
  8  7  2  0
  8  9  1  0
  9 10  2  0
 10 11  1  0
 12 13  1  0
 12  5  1  0
 12 17  1  0
 14 13  1  0
 15 16  1  0
 15 14  1  0
 16 17  1  0
  2 18  1  0
  2 19  1  0
  3 20  1  0
  3 21  1  0
  4 22  1  0
  4 23  1  0
  5 24  1  6
  6 25  1  0
  7 26  1  0
 10 27  1  0
 13 28  1  0
 13 29  1  0
 14 30  1  0
 14 31  1  0
 15 32  1  0
 16 33  1  0
 16 34  1  0
 17 35  1  0
 17 36  1  0
M  ISO  8  18  13  19  13  20  13  21  13  22  13  23  13  24  13  25  14
M  ISO  8  26  14  27  14  28  13  29  13  30  13  31  13  32   5  33  13
M  ISO  3  34  13  35  13  36  13
M  END
>  <minimizedAffinity>  (1) 
-4.69319344

>  <minimizedRMSD>  (1) 
0.367958426

$$$$
