
     RDKit          3D

 29 31  0  0  1  0  0  0  0  0999 V2000
   47.1890   34.6070   42.1410 N   0  0  0  0  0  0  0  0  0  0  0  0
   48.4840   35.1880   41.8650 C   0  0  0  0  0  0  0  0  0  0  0  0
   48.4440   35.2980   40.3820 C   0  0  0  0  0  0  0  0  0  0  0  0
   47.9250   33.9530   39.9750 C   0  0  0  0  0  0  0  0  0  0  0  0
   46.9410   33.6520   41.0800 C   0  0  2  0  0  0  0  0  0  0  0  0
   44.6870   36.1890   44.3770 C   0  0  0  0  0  0  0  0  0  0  0  0
   45.5300   36.0290   43.2760 C   0  0  0  0  0  0  0  0  0  0  0  0
   46.3100   34.8740   43.1970 C   0  0  0  0  0  0  0  0  0  0  0  0
   46.2030   33.9510   44.2130 N   0  0  0  0  0  0  0  0  0  0  0  0
   45.3660   34.1470   45.2710 C   0  0  0  0  0  0  0  0  0  0  0  0
   44.6180   35.2650   45.3400 N   0  0  0  0  0  0  0  0  0  0  0  0
   45.6020   33.7050   40.5340 N   0  0  0  0  0  0  0  0  0  0  0  0
   45.1090   32.8860   39.5830 C   0  0  0  0  0  0  0  0  0  0  0  0
   43.8080   33.2550   39.3360 C   0  0  0  0  0  0  0  0  0  0  0  0
   43.4970   34.2960   40.1290 N   0  0  0  0  0  0  0  0  0  0  0  0
   44.6110   34.5610   40.8590 C   0  0  0  0  0  0  0  0  0  0  0  0
   48.5920   36.1746   42.3392 H   0  0  0  0  0  0  0  0  0  0  0  0
   49.3318   34.6027   42.2506 H   0  0  0  0  0  0  0  0  0  0  0  0
   47.7644   36.1010   40.0605 H   0  0  0  0  0  0  0  0  0  0  0  0
   49.4163   35.5488   39.9329 H   0  0  0  0  0  0  0  0  0  0  0  0
   47.4260   33.9962   38.9956 H   0  0  0  0  0  0  0  0  0  0  0  0
   48.7092   33.1905   39.8580 H   0  0  0  0  0  0  0  0  0  0  0  0
   47.0565   32.6438   41.5045 H   0  0  0  0  0  0  0  0  0  0  0  0
   44.0668   37.0942   44.4535 H   0  0  0  0  0  0  0  0  0  0  0  0
   45.5786   36.7956   42.4886 H   0  0  0  0  0  0  0  0  0  0  0  0
   45.3015   33.3921   46.0684 H   0  0  0  0  0  0  0  0  0  0  0  0
   45.6527   32.0661   39.0909 H   0  0  0  0  0  0  0  0  0  0  0  0
   43.1331   32.7780   38.6101 H   0  0  0  0  0  0  0  0  0  0  0  0
   44.6938   35.3609   41.6096 H   0  0  0  0  0  0  0  0  0  0  0  0
  1  8  1  0
  2  1  1  0
  3  2  1  0
  4  3  1  0
  4  5  1  0
  5  1  1  0
  6 11  2  0
  7  6  1  0
  8  7  2  0
  8  9  1  0
  9 10  2  0
 10 11  1  0
 12 16  1  0
 12  5  1  0
 13 12  1  0
 14 13  2  0
 14 15  1  0
 15 16  2  0
  2 17  1  0
  2 18  1  0
  3 19  1  0
  3 20  1  0
  4 21  1  0
  4 22  1  0
  5 23  1  1
  6 24  1  0
  7 25  1  0
 10 26  1  0
 13 27  1  0
 14 28  1  0
 16 29  1  0
M  ISO  8  17  13  18  13  19  13  20  13  21  13  22  13  23  13  24  14
M  ISO  5  25  14  26  14  27  14  28  14  29  14
M  END
>  <minimizedAffinity>  (1) 
-4.67346334

>  <minimizedRMSD>  (1) 
1.11952889

$$$$
