
     RDKit          3D

 34 35  0  0  1  0  0  0  0  0999 V2000
   47.2040   34.6960   42.2850 N   0  0  0  0  0  0  0  0  0  0  0  0
   48.6490   34.7880   42.3130 C   0  0  0  0  0  0  0  0  0  0  0  0
   48.9190   35.5030   41.0260 C   0  0  0  0  0  0  0  0  0  0  0  0
   48.0400   34.7080   40.0780 C   0  0  0  0  0  0  0  0  0  0  0  0
   46.8240   34.4520   40.9210 C   0  0  1  0  0  0  0  0  0  0  0  0
   44.5030   35.9660   44.5070 C   0  0  0  0  0  0  0  0  0  0  0  0
   45.3750   35.8650   43.4000 C   0  0  0  0  0  0  0  0  0  0  0  0
   46.3310   34.8170   43.3660 C   0  0  0  0  0  0  0  0  0  0  0  0
   46.3570   33.9540   44.4150 N   0  0  0  0  0  0  0  0  0  0  0  0
   45.4940   34.0870   45.4660 C   0  0  0  0  0  0  0  0  0  0  0  0
   44.5930   35.0710   45.5040 N   0  0  0  0  0  0  0  0  0  0  0  0
   46.2560   33.1320   40.5930 C   0  0  0  0  0  0  0  0  0  0  0  0
   46.9510   31.9480   41.1580 C   0  0  0  0  0  0  0  0  0  0  0  0
   44.7630   33.0300   40.8750 C   0  0  0  0  0  0  0  0  0  0  0  0
   46.3430   33.0030   39.0720 C   0  0  0  0  0  0  0  0  0  0  0  0
   48.9993   35.3695   43.1785 H   0  0  0  0  0  0  0  0  0  0  0  0
   49.1616   33.8194   42.4078 H   0  0  0  0  0  0  0  0  0  0  0  0
   48.6123   36.5582   41.0756 H   0  0  0  0  0  0  0  0  0  0  0  0
   49.9802   35.5462   40.7396 H   0  0  0  0  0  0  0  0  0  0  0  0
   48.5241   33.7668   39.7785 H   0  0  0  0  0  0  0  0  0  0  0  0
   47.8233   35.2275   39.1329 H   0  0  0  0  0  0  0  0  0  0  0  0
   45.9821   35.1305   40.7189 H   0  0  0  0  0  0  0  0  0  0  0  0
   43.7557   36.7720   44.5519 H   0  0  0  0  0  0  0  0  0  0  0  0
   45.3136   36.5897   42.5748 H   0  0  0  0  0  0  0  0  0  0  0  0
   45.5428   33.3686   46.2976 H   0  0  0  0  0  0  0  0  0  0  0  0
   46.9228   31.9960   42.2566 H   0  0  0  0  0  0  0  0  0  0  0  0
   46.4480   31.0307   40.8180 H   0  0  0  0  0  0  0  0  0  0  0  0
   47.9971   31.9401   40.8180 H   0  0  0  0  0  0  0  0  0  0  0  0
   44.5951   33.0185   41.9621 H   0  0  0  0  0  0  0  0  0  0  0  0
   44.2465   33.8950   40.4333 H   0  0  0  0  0  0  0  0  0  0  0  0
   44.3689   32.1028   40.4333 H   0  0  0  0  0  0  0  0  0  0  0  0
   46.9407   32.1167   38.8128 H   0  0  0  0  0  0  0  0  0  0  0  0
   45.3308   32.8976   38.6545 H   0  0  0  0  0  0  0  0  0  0  0  0
   46.8201   33.9019   38.6545 H   0  0  0  0  0  0  0  0  0  0  0  0
  1  2  1  0
  1  8  1  0
  3  2  1  0
  4  5  1  0
  4  3  1  0
  5  1  1  0
  6 11  2  0
  7  6  1  0
  8  7  2  0
  8  9  1  0
  9 10  2  0
 10 11  1  0
 12 14  1  0
 12  5  1  0
 12 13  1  0
 15 12  1  0
  2 16  1  0
  2 17  1  0
  3 18  1  0
  3 19  1  0
  4 20  1  0
  4 21  1  0
  5 22  1  6
  6 23  1  0
  7 24  1  0
 10 25  1  0
 13 26  1  0
 13 27  1  0
 13 28  1  0
 14 29  1  0
 14 30  1  0
 14 31  1  0
 15 32  1  0
 15 33  1  0
 15 34  1  0
M  ISO  8  16  13  17  13  18  13  19  13  20  13  21  13  22  13  23  14
M  ISO  8  24  14  25  14  26   8  27   8  28   8  29   8  30   8  31   8
M  ISO  3  32   8  33   8  34   8
M  END
>  <minimizedAffinity>  (1) 
-4.66795778

>  <minimizedRMSD>  (1) 
0.364738792

$$$$
