
     RDKit          3D

 34 36  0  0  1  0  0  0  0  0999 V2000
   47.2470   34.5370   42.6190 N   0  0  0  0  0  0  0  0  0  0  0  0
   48.6570   34.2530   42.6640 C   0  0  0  0  0  0  0  0  0  0  0  0
   49.1580   35.1830   41.5880 C   0  0  0  0  0  0  0  0  0  0  0  0
   48.2070   34.8540   40.4740 C   0  0  0  0  0  0  0  0  0  0  0  0
   46.8940   34.6620   41.2230 C   0  0  1  0  0  0  0  0  0  0  0  0
   44.4930   35.7030   44.8430 C   0  0  0  0  0  0  0  0  0  0  0  0
   45.3380   35.6880   43.7050 C   0  0  0  0  0  0  0  0  0  0  0  0
   46.3390   34.6780   43.6820 C   0  0  0  0  0  0  0  0  0  0  0  0
   46.3950   33.8290   44.7430 N   0  0  0  0  0  0  0  0  0  0  0  0
   45.5660   33.8820   45.8080 C   0  0  0  0  0  0  0  0  0  0  0  0
   44.6170   34.8310   45.8400 N   0  0  0  0  0  0  0  0  0  0  0  0
   46.1690   33.5230   40.7000 N   0  0  0  0  0  0  0  0  0  0  0  0
   44.8050   33.8640   40.4590 C   0  0  0  0  0  0  0  0  0  0  0  0
   44.4230   33.2370   39.1270 C   0  0  0  0  0  0  0  0  0  0  0  0
   45.6530   32.5400   38.6080 C   0  0  0  0  0  0  0  0  0  0  0  0
   46.7600   33.2050   39.4150 C   0  0  0  0  0  0  0  0  0  0  0  0
   49.0895   34.4970   43.6456 H   0  0  0  0  0  0  0  0  0  0  0  0
   48.9169   33.1948   42.5134 H   0  0  0  0  0  0  0  0  0  0  0  0
   49.0770   36.2369   41.8926 H   0  0  0  0  0  0  0  0  0  0  0  0
   50.2209   35.0581   41.3339 H   0  0  0  0  0  0  0  0  0  0  0  0
   48.5070   33.9338   39.9513 H   0  0  0  0  0  0  0  0  0  0  0  0
   48.1609   35.6233   39.6891 H   0  0  0  0  0  0  0  0  0  0  0  0
   46.2064   35.5109   41.0945 H   0  0  0  0  0  0  0  0  0  0  0  0
   43.7032   36.4662   44.9042 H   0  0  0  0  0  0  0  0  0  0  0  0
   45.2260   36.4152   42.8873 H   0  0  0  0  0  0  0  0  0  0  0  0
   45.6665   33.1615   46.6331 H   0  0  0  0  0  0  0  0  0  0  0  0
   44.1676   33.4650   41.2618 H   0  0  0  0  0  0  0  0  0  0  0  0
   44.6699   34.9554   40.4342 H   0  0  0  0  0  0  0  0  0  0  0  0
   43.6080   32.5120   39.2691 H   0  0  0  0  0  0  0  0  0  0  0  0
   44.0714   34.0000   38.4169 H   0  0  0  0  0  0  0  0  0  0  0  0
   45.6113   31.4582   38.8030 H   0  0  0  0  0  0  0  0  0  0  0  0
   45.7852   32.6269   37.5194 H   0  0  0  0  0  0  0  0  0  0  0  0
   47.6086   32.5168   39.5425 H   0  0  0  0  0  0  0  0  0  0  0  0
   47.1470   34.1033   38.9117 H   0  0  0  0  0  0  0  0  0  0  0  0
  1  2  1  0
  1  8  1  0
  3  2  1  0
  4  5  1  0
  4  3  1  0
  5  1  1  0
  6 11  2  0
  7  6  1  0
  8  7  2  0
  8  9  1  0
  9 10  2  0
 10 11  1  0
 12 13  1  0
 12  5  1  0
 14 13  1  0
 15 14  1  0
 15 16  1  0
 16 12  1  0
  2 17  1  0
  2 18  1  0
  3 19  1  0
  3 20  1  0
  4 21  1  0
  4 22  1  0
  5 23  1  1
  6 24  1  0
  7 25  1  0
 10 26  1  0
 13 27  1  0
 13 28  1  0
 14 29  1  0
 14 30  1  0
 15 31  1  0
 15 32  1  0
 16 33  1  0
 16 34  1  0
M  ISO  8  17  13  18  13  19  13  20  13  21  13  22  13  23  13  24  14
M  ISO  8  25  14  26  14  27  13  28  13  29  13  30  13  31  13  32  13
M  ISO  2  33  13  34  13
M  END
>  <minimizedAffinity>  (1) 
-4.66190147

>  <minimizedRMSD>  (1) 
1.23939013

$$$$
