
     RDKit          3D

 30 32  0  0  1  0  0  0  0  0999 V2000
   47.2210   34.6840   42.3090 N   0  0  0  0  0  0  0  0  0  0  0  0
   48.6750   34.8130   42.2980 C   0  0  0  0  0  0  0  0  0  0  0  0
   48.8700   35.5210   40.9790 C   0  0  0  0  0  0  0  0  0  0  0  0
   48.0370   34.6290   40.0720 C   0  0  0  0  0  0  0  0  0  0  0  0
   46.8560   34.3290   40.9460 C   0  0  1  0  0  0  0  0  0  0  0  0
   44.4960   35.9250   44.4970 C   0  0  0  0  0  0  0  0  0  0  0  0
   45.3490   35.8640   43.3790 C   0  0  0  0  0  0  0  0  0  0  0  0
   46.3190   34.8500   43.3580 C   0  0  0  0  0  0  0  0  0  0  0  0
   46.3750   33.9830   44.4270 N   0  0  0  0  0  0  0  0  0  0  0  0
   45.5240   34.0880   45.4850 C   0  0  0  0  0  0  0  0  0  0  0  0
   44.5940   35.0600   45.5040 N   0  0  0  0  0  0  0  0  0  0  0  0
   46.6880   32.8410   40.9690 C   0  0  0  0  0  0  0  0  0  0  0  0
   45.5460   32.1580   41.3710 C   0  0  0  0  0  0  0  0  0  0  0  0
   45.5830   30.7990   41.3220 C   0  0  0  0  0  0  0  0  0  0  0  0
   46.6640   30.0970   40.9050 N   0  0  0  0  0  0  0  0  0  0  0  0
   47.7700   30.7690   40.5160 C   0  0  0  0  0  0  0  0  0  0  0  0
   47.7390   32.1140   40.5620 N   0  0  0  0  0  0  0  0  0  0  0  0
   49.0368   35.4179   43.1425 H   0  0  0  0  0  0  0  0  0  0  0  0
   49.2233   33.8647   42.3983 H   0  0  0  0  0  0  0  0  0  0  0  0
   48.4820   36.5499   41.0072 H   0  0  0  0  0  0  0  0  0  0  0  0
   49.9188   35.6434   40.6706 H   0  0  0  0  0  0  0  0  0  0  0  0
   48.5804   33.7113   39.8026 H   0  0  0  0  0  0  0  0  0  0  0  0
   47.7749   35.0906   39.1086 H   0  0  0  0  0  0  0  0  0  0  0  0
   45.9611   34.8599   40.5892 H   0  0  0  0  0  0  0  0  0  0  0  0
   43.7265   36.7099   44.5398 H   0  0  0  0  0  0  0  0  0  0  0  0
   45.2587   36.5843   42.5525 H   0  0  0  0  0  0  0  0  0  0  0  0
   45.5969   33.3791   46.3229 H   0  0  0  0  0  0  0  0  0  0  0  0
   44.6492   32.6944   41.7146 H   0  0  0  0  0  0  0  0  0  0  0  0
   44.6889   30.2412   41.6373 H   0  0  0  0  0  0  0  0  0  0  0  0
   48.6675   30.2337   40.1725 H   0  0  0  0  0  0  0  0  0  0  0  0
  1  8  1  0
  2  1  1  0
  3  2  1  0
  4  5  1  0
  4  3  1  0
  5 12  1  0
  5  1  1  0
  6 11  2  0
  7  6  1  0
  8  7  2  0
  8  9  1  0
  9 10  2  0
 10 11  1  0
 12 13  2  0
 14 13  1  0
 15 14  2  0
 16 17  2  0
 16 15  1  0
 17 12  1  0
  2 18  1  0
  2 19  1  0
  3 20  1  0
  3 21  1  0
  4 22  1  0
  4 23  1  0
  5 24  1  6
  6 25  1  0
  7 26  1  0
 10 27  1  0
 13 28  1  0
 14 29  1  0
 16 30  1  0
M  ISO  8  18  13  19  13  20  13  21  13  22  13  23  13  24  13  25  14
M  ISO  5  26  14  27  14  28  14  29  14  30  14
M  END
>  <minimizedAffinity>  (1) 
-4.66067028

>  <minimizedRMSD>  (1) 
0.868260562

$$$$
