
     RDKit          3D

 29 31  0  0  1  0  0  0  0  0999 V2000
   47.2010   34.6920   42.3010 N   0  0  0  0  0  0  0  0  0  0  0  0
   48.6490   34.7220   42.3040 C   0  0  0  0  0  0  0  0  0  0  0  0
   48.8830   35.4620   40.9990 C   0  0  0  0  0  0  0  0  0  0  0  0
   48.0150   34.6030   40.0820 C   0  0  0  0  0  0  0  0  0  0  0  0
   46.7740   34.4540   40.9140 C   0  0  1  0  0  0  0  0  0  0  0  0
   44.5000   35.9600   44.5210 C   0  0  0  0  0  0  0  0  0  0  0  0
   45.3590   35.8800   43.4030 C   0  0  0  0  0  0  0  0  0  0  0  0
   46.3090   34.8490   43.3650 C   0  0  0  0  0  0  0  0  0  0  0  0
   46.3310   33.9920   44.4210 N   0  0  0  0  0  0  0  0  0  0  0  0
   45.5040   34.0800   45.4830 C   0  0  0  0  0  0  0  0  0  0  0  0
   44.5880   35.0730   45.5200 N   0  0  0  0  0  0  0  0  0  0  0  0
   46.0260   33.2740   40.7190 C   0  0  0  0  0  0  0  0  0  0  0  0
   45.9980   31.9200   40.7390 C   0  0  0  0  0  0  0  0  0  0  0  0
   44.8990   31.1670   40.4360 C   0  0  0  0  0  0  0  0  0  0  0  0
   43.7240   31.9130   40.0790 C   0  0  0  0  0  0  0  0  0  0  0  0
   44.2470   33.6420   40.1960 S   0  0  0  0  0  0  0  0  0  0  0  0
   49.0468   35.2755   43.1674 H   0  0  0  0  0  0  0  0  0  0  0  0
   49.1390   33.7402   42.3816 H   0  0  0  0  0  0  0  0  0  0  0  0
   48.5303   36.5029   41.0455 H   0  0  0  0  0  0  0  0  0  0  0  0
   49.9350   35.5665   40.6951 H   0  0  0  0  0  0  0  0  0  0  0  0
   48.4839   33.6289   39.8788 H   0  0  0  0  0  0  0  0  0  0  0  0
   47.8424   35.0367   39.0860 H   0  0  0  0  0  0  0  0  0  0  0  0
   46.0229   35.1907   40.5929 H   0  0  0  0  0  0  0  0  0  0  0  0
   43.7486   36.7617   44.5718 H   0  0  0  0  0  0  0  0  0  0  0  0
   45.2848   36.6084   42.5821 H   0  0  0  0  0  0  0  0  0  0  0  0
   45.5741   33.3543   46.3067 H   0  0  0  0  0  0  0  0  0  0  0  0
   46.9215   31.3914   41.0177 H   0  0  0  0  0  0  0  0  0  0  0  0
   44.9127   30.0674   40.4634 H   0  0  0  0  0  0  0  0  0  0  0  0
   42.7343   31.5231   39.7990 H   0  0  0  0  0  0  0  0  0  0  0  0
  1  2  1  0
  1  8  1  0
  3  2  1  0
  4  5  1  0
  4  3  1  0
  5  1  1  0
  6 11  2  0
  7  6  1  0
  8  7  2  0
  8  9  1  0
  9 10  2  0
 10 11  1  0
 12 13  2  0
 12  5  1  0
 14 13  1  0
 15 16  1  0
 15 14  2  0
 16 12  1  0
  2 17  1  0
  2 18  1  0
  3 19  1  0
  3 20  1  0
  4 21  1  0
  4 22  1  0
  5 23  1  6
  6 24  1  0
  7 25  1  0
 10 26  1  0
 13 27  1  0
 14 28  1  0
 15 29  1  0
M  ISO  8  17  13  18  13  19  13  20  13  21  13  22  13  23  13  24  14
M  ISO  5  25  14  26  14  27  14  28  14  29  14
M  END
>  <minimizedAffinity>  (1) 
-4.64713669

>  <minimizedRMSD>  (1) 
0.245340198

$$$$
