
     RDKit          3D

 39 42  0  0  0  0  0  0  0  0999 V2000
   44.6890   35.1320   45.1210 C   0  0  0  0  0  0  0  0  0  0  0  0
   45.1970   35.2990   43.8340 C   0  0  0  0  0  0  0  0  0  0  0  0
   46.2560   34.5670   43.3420 C   0  0  0  0  0  0  0  0  0  0  0  0
   46.7560   33.6690   44.2380 N   0  0  0  0  0  0  0  0  0  0  0  0
   46.2830   33.4900   45.4840 C   0  0  0  0  0  0  0  0  0  0  0  0
   45.2600   34.2260   45.8970 N   0  0  0  0  0  0  0  0  0  0  0  0
   46.9010   34.5970   42.0580 C   0  0  0  0  0  0  0  0  0  0  0  0
   48.0520   35.3580   41.9320 C   0  0  0  0  0  0  0  0  0  0  0  0
   48.7750   35.4720   40.7650 C   0  0  0  0  0  0  0  0  0  0  0  0
   48.3490   34.8040   39.6520 C   0  0  0  0  0  0  0  0  0  0  0  0
   47.2180   34.0330   39.7030 C   0  0  0  0  0  0  0  0  0  0  0  0
   46.7840   33.3590   38.5770 C   0  0  0  0  0  0  0  0  0  0  0  0
   45.6470   32.5760   38.5870 C   0  0  0  0  0  0  0  0  0  0  0  0
   44.9700   32.5110   39.8100 C   0  0  0  0  0  0  0  0  0  0  0  0
   45.4260   33.1850   40.8910 C   0  0  0  0  0  0  0  0  0  0  0  0
   46.5560   33.9660   40.8870 C   0  0  0  0  0  0  0  0  0  0  0  0
   48.1110   30.5320   47.8630 C   0  0  0  0  0  0  0  0  0  0  0  0
   47.7440   31.7360   48.3750 C   0  0  0  0  0  0  0  0  0  0  0  0
   47.1420   32.7640   47.6760 C   0  0  0  0  0  0  0  0  0  0  0  0
   46.9150   32.4880   46.3420 C   0  0  0  0  0  0  0  0  0  0  0  0
   47.2610   31.2790   45.7400 C   0  0  0  0  0  0  0  0  0  0  0  0
   47.8630   30.3060   46.5260 C   0  0  0  0  0  0  0  0  0  0  0  0
   48.8710   29.2650   48.7880 S   0  0  0  0  0  0  0  0  0  0  0  0
   49.9780   28.6230   47.9710 O   0  0  0  0  0  0  0  0  0  0  0  0
   49.5180   29.8110   50.0330 O   0  0  0  0  0  0  0  0  0  0  0  0
   43.8410   35.7340   45.4796 H   0  0  0  0  0  0  0  0  0  0  0  0
   44.7307   36.0506   43.1800 H   0  0  0  0  0  0  0  0  0  0  0  0
   48.4100   35.9041   42.8172 H   0  0  0  0  0  0  0  0  0  0  0  0
   49.6827   36.0923   40.7298 H   0  0  0  0  0  0  0  0  0  0  0  0
   48.9156   34.8855   38.7127 H   0  0  0  0  0  0  0  0  0  0  0  0
   47.3617   33.4492   37.6453 H   0  0  0  0  0  0  0  0  0  0  0  0
   45.2966   32.0390   37.6932 H   0  0  0  0  0  0  0  0  0  0  0  0
   44.0560   31.9046   39.8935 H   0  0  0  0  0  0  0  0  0  0  0  0
   44.8578   33.1026   41.8293 H   0  0  0  0  0  0  0  0  0  0  0  0
   47.9445   31.9075   49.4429 H   0  0  0  0  0  0  0  0  0  0  0  0
   46.8667   33.7214   48.1424 H   0  0  0  0  0  0  0  0  0  0  0  0
   47.0626   31.1012   44.6727 H   0  0  0  0  0  0  0  0  0  0  0  0
   48.1456   29.3427   46.0764 H   0  0  0  0  0  0  0  0  0  0  0  0
   47.8930   28.3631   49.1152 H   0  0  0  0  0  0  0  0  0  0  0  0
  1  6  2  0
  2  1  1  0
  3  2  2  0
  3  4  1  0
  4  5  2  0
  5  6  1  0
  5 20  1  0
  7  3  1  0
  8  7  2  0
  9  8  1  0
 10 11  1  0
 10  9  2  0
 11 16  2  0
 12 13  2  0
 12 11  1  0
 13 14  1  0
 14 15  2  0
 16 15  1  0
 16  7  1  0
 17 18  2  0
 17 23  1  0
 19 18  1  0
 20 19  2  0
 21 20  1  0
 21 22  2  0
 22 17  1  0
 23 25  2  0
 24 23  2  0
  1 26  1  0
  2 27  1  0
  8 28  1  0
  9 29  1  0
 10 30  1  0
 12 31  1  0
 13 32  1  0
 14 33  1  0
 15 34  1  0
 18 35  1  0
 19 36  1  0
 21 37  1  0
 22 38  1  0
 23 39  1  0
M  ISO  8  26  14  27  14  28  14  29  14  30  14  31  14  32  14  33  14
M  ISO  6  34  14  35  14  36  14  37  14  38  14  39  11
M  END
>  <minimizedAffinity>  (1) 
-6.47350216

>  <minimizedRMSD>  (1) 
1.08039069

$$$$
