
     RDKit          3D

 27 29  0  0  1  0  0  0  0  0999 V2000
   47.2460   34.7060   42.2780 N   0  0  0  0  0  0  0  0  0  0  0  0
   48.6920   34.8510   42.2900 C   0  0  0  0  0  0  0  0  0  0  0  0
   48.8740   35.5390   40.9460 C   0  0  0  0  0  0  0  0  0  0  0  0
   48.0680   34.6050   40.0610 C   0  0  0  0  0  0  0  0  0  0  0  0
   46.8400   34.3780   40.9060 C   0  0  1  0  0  0  0  0  0  0  0  0
   44.5050   35.9340   44.4750 C   0  0  0  0  0  0  0  0  0  0  0  0
   45.3690   35.8760   43.3670 C   0  0  0  0  0  0  0  0  0  0  0  0
   46.3400   34.8400   43.3480 C   0  0  0  0  0  0  0  0  0  0  0  0
   46.3780   33.9740   44.3950 N   0  0  0  0  0  0  0  0  0  0  0  0
   45.5250   34.0660   45.4470 C   0  0  0  0  0  0  0  0  0  0  0  0
   44.6000   35.0400   45.4790 N   0  0  0  0  0  0  0  0  0  0  0  0
   46.4720   32.9490   40.8850 C   0  0  0  0  0  0  0  0  0  0  0  0
   47.2870   31.8830   40.9630 N   0  0  0  0  0  0  0  0  0  0  0  0
   46.5280   30.8190   40.9060 O   0  0  0  0  0  0  0  0  0  0  0  0
   45.2610   31.1430   40.7940 C   0  0  0  0  0  0  0  0  0  0  0  0
   45.1950   32.4930   40.7770 N   0  0  0  0  0  0  0  0  0  0  0  0
   49.0365   35.4791   43.1248 H   0  0  0  0  0  0  0  0  0  0  0  0
   49.2596   33.9184   42.4244 H   0  0  0  0  0  0  0  0  0  0  0  0
   48.4590   36.5577   40.9493 H   0  0  0  0  0  0  0  0  0  0  0  0
   49.9198   35.6829   40.6368 H   0  0  0  0  0  0  0  0  0  0  0  0
   48.6065   33.6644   39.8734 H   0  0  0  0  0  0  0  0  0  0  0  0
   47.8559   35.0071   39.0593 H   0  0  0  0  0  0  0  0  0  0  0  0
   45.9917   34.9770   40.5432 H   0  0  0  0  0  0  0  0  0  0  0  0
   43.7390   36.7220   44.5230 H   0  0  0  0  0  0  0  0  0  0  0  0
   45.2955   36.6051   42.5466 H   0  0  0  0  0  0  0  0  0  0  0  0
   45.5911   33.3430   46.2734 H   0  0  0  0  0  0  0  0  0  0  0  0
   44.4122   30.4466   40.7266 H   0  0  0  0  0  0  0  0  0  0  0  0
  1  2  1  0
  1  8  1  0
  3  2  1  0
  4  5  1  0
  4  3  1  0
  5  1  1  0
  6 11  2  0
  7  6  1  0
  8  7  2  0
  8  9  1  0
  9 10  2  0
 10 11  1  0
 12  5  1  0
 12 13  2  0
 14 13  1  0
 15 14  1  0
 16 15  2  0
 16 12  1  0
  2 17  1  0
  2 18  1  0
  3 19  1  0
  3 20  1  0
  4 21  1  0
  4 22  1  0
  5 23  1  6
  6 24  1  0
  7 25  1  0
 10 26  1  0
 15 27  1  0
M  ISO  8  17  13  18  13  19  13  20  13  21  13  22  13  23  13  24  14
M  ISO  3  25  14  26  14  27  14
M  END
>  <minimizedAffinity>  (1) 
-4.58624697

>  <minimizedRMSD>  (1) 
0.630082428

$$$$
