
     RDKit          3D

 24 25  0  0  1  0  0  0  0  0999 V2000
   47.2400   34.6800   42.2990 N   0  0  0  0  0  0  0  0  0  0  0  0
   48.6860   34.7950   42.2960 C   0  0  0  0  0  0  0  0  0  0  0  0
   48.8690   35.5250   40.9750 C   0  0  0  0  0  0  0  0  0  0  0  0
   48.0560   34.6150   40.0750 C   0  0  0  0  0  0  0  0  0  0  0  0
   46.8430   34.3460   40.9330 C   0  0  1  0  0  0  0  0  0  0  0  0
   44.5010   35.9460   44.4880 C   0  0  0  0  0  0  0  0  0  0  0  0
   45.3650   35.8750   43.3790 C   0  0  0  0  0  0  0  0  0  0  0  0
   46.3280   34.8400   43.3620 C   0  0  0  0  0  0  0  0  0  0  0  0
   46.3660   33.9660   44.4180 N   0  0  0  0  0  0  0  0  0  0  0  0
   45.5050   34.0820   45.4670 C   0  0  0  0  0  0  0  0  0  0  0  0
   44.5920   35.0590   45.4910 N   0  0  0  0  0  0  0  0  0  0  0  0
   46.3620   32.9590   40.8300 C   0  0  0  0  0  0  0  0  0  0  0  0
   45.6360   32.7720   39.8520 O   0  0  0  0  0  0  0  0  0  0  0  0
   49.0537   35.3864   43.1475 H   0  0  0  0  0  0  0  0  0  0  0  0
   49.2343   33.8460   42.3898 H   0  0  0  0  0  0  0  0  0  0  0  0
   48.4571   36.5444   41.0085 H   0  0  0  0  0  0  0  0  0  0  0  0
   49.9130   35.6805   40.6654 H   0  0  0  0  0  0  0  0  0  0  0  0
   48.5997   33.6866   39.8460 H   0  0  0  0  0  0  0  0  0  0  0  0
   47.8219   35.0499   39.0921 H   0  0  0  0  0  0  0  0  0  0  0  0
   45.9918   34.9555   40.5955 H   0  0  0  0  0  0  0  0  0  0  0  0
   43.7406   36.7396   44.5332 H   0  0  0  0  0  0  0  0  0  0  0  0
   45.2934   36.5995   42.5544 H   0  0  0  0  0  0  0  0  0  0  0  0
   45.5610   33.3667   46.3008 H   0  0  0  0  0  0  0  0  0  0  0  0
   46.6235   32.1708   41.5514 H   0  0  0  0  0  0  0  0  0  0  0  0
  1  8  1  0
  2  1  1  0
  3  2  1  0
  4  5  1  0
  4  3  1  0
  5  1  1  0
  6 11  2  0
  7  6  1  0
  8  7  2  0
  8  9  1  0
  9 10  2  0
 10 11  1  0
 12  5  1  0
 13 12  2  0
  2 14  1  0
  2 15  1  0
  3 16  1  0
  3 17  1  0
  4 18  1  0
  4 19  1  0
  5 20  1  6
  6 21  1  0
  7 22  1  0
 10 23  1  0
 12 24  1  0
M  ISO  8  14  13  15  13  16  13  17  13  18  13  19  13  20  13  21  14
M  ISO  3  22  14  23  14  24   6
M  END
>  <minimizedAffinity>  (1) 
-4.39061832

>  <minimizedRMSD>  (1) 
0.0693311393

$$$$
