
     RDKit          3D

 33 36  0  0  0  0  0  0  0  0999 V2000
   46.7970   34.7920   42.1260 C   0  0  0  0  0  0  0  0  0  0  0  0
   48.0200   35.4390   42.0630 C   0  0  0  0  0  0  0  0  0  0  0  0
   48.8430   35.4480   40.9600 C   0  0  0  0  0  0  0  0  0  0  0  0
   48.4440   34.7750   39.8340 C   0  0  0  0  0  0  0  0  0  0  0  0
   47.2380   34.1060   39.8190 C   0  0  0  0  0  0  0  0  0  0  0  0
   46.8320   33.4300   38.6860 C   0  0  0  0  0  0  0  0  0  0  0  0
   45.6300   32.7530   38.6380 C   0  0  0  0  0  0  0  0  0  0  0  0
   44.8660   32.7990   39.7930 C   0  0  0  0  0  0  0  0  0  0  0  0
   45.2930   33.4710   40.8870 C   0  0  0  0  0  0  0  0  0  0  0  0
   46.4790   34.1460   40.9550 C   0  0  0  0  0  0  0  0  0  0  0  0
   44.5240   35.7340   45.0350 C   0  0  0  0  0  0  0  0  0  0  0  0
   45.1610   35.8210   43.8040 C   0  0  0  0  0  0  0  0  0  0  0  0
   46.0550   34.8700   43.3550 C   0  0  0  0  0  0  0  0  0  0  0  0
   46.2480   33.8450   44.2370 N   0  0  0  0  0  0  0  0  0  0  0  0
   45.6430   33.7470   45.4220 C   0  0  0  0  0  0  0  0  0  0  0  0
   44.7890   34.6920   45.8060 N   0  0  0  0  0  0  0  0  0  0  0  0
   45.9380   32.5740   46.2960 C   0  0  0  0  0  0  0  0  0  0  0  0
   46.9160   32.7220   47.4140 C   0  0  0  0  0  0  0  0  0  0  0  0
   45.4580   32.7020   47.7580 C   0  0  0  0  0  0  0  0  0  0  0  0
   48.3571   35.9838   42.9572 H   0  0  0  0  0  0  0  0  0  0  0  0
   49.8028   35.9850   40.9813 H   0  0  0  0  0  0  0  0  0  0  0  0
   49.0867   34.7686   38.9413 H   0  0  0  0  0  0  0  0  0  0  0  0
   47.4827   33.4308   37.7991 H   0  0  0  0  0  0  0  0  0  0  0  0
   45.2995   32.2112   37.7395 H   0  0  0  0  0  0  0  0  0  0  0  0
   43.8962   32.2806   39.8210 H   0  0  0  0  0  0  0  0  0  0  0  0
   44.6456   33.4741   41.7763 H   0  0  0  0  0  0  0  0  0  0  0  0
   43.8173   36.5115   45.3607 H   0  0  0  0  0  0  0  0  0  0  0  0
   44.9437   36.6851   43.1589 H   0  0  0  0  0  0  0  0  0  0  0  0
   45.8290   31.8546   45.4710 H   0  0  0  0  0  0  0  0  0  0  0  0
   47.5530   31.8706   47.6957 H   0  0  0  0  0  0  0  0  0  0  0  0
   47.7412   33.4192   47.6211 H   0  0  0  0  0  0  0  0  0  0  0  0
   44.9568   33.6204   48.0976 H   0  0  0  0  0  0  0  0  0  0  0  0
   44.8176   32.1104   48.4287 H   0  0  0  0  0  0  0  0  0  0  0  0
  1 13  1  0
  2  1  2  0
  3  2  1  0
  4  3  2  0
  5  4  1  0
  5 10  2  0
  6  5  1  0
  7  6  2  0
  7  8  1  0
  8  9  2  0
  9 10  1  0
 10  1  1  0
 11 16  2  0
 12 11  1  0
 13 12  2  0
 13 14  1  0
 14 15  2  0
 15 16  1  0
 15 17  1  0
 17 18  1  0
 17 19  1  0
 18 19  1  0
  2 20  1  0
  3 21  1  0
  4 22  1  0
  6 23  1  0
  7 24  1  0
  8 25  1  0
  9 26  1  0
 11 27  1  0
 12 28  1  0
 17 29  1  0
 18 30  1  0
 18 31  1  0
 19 32  1  0
 19 33  1  0
M  ISO  8  20  14  21  14  22  14  23  14  24  14  25  14  26  14  27  14
M  ISO  6  28  14  29  13  30  13  31  13  32  13  33  13
M  END
>  <minimizedAffinity>  (1) 
-6.22855282

>  <minimizedRMSD>  (1) 
0.278241396

$$$$
