
     RDKit          3D

 28 29  0  0  1  0  0  0  0  0999 V2000
   47.1780   34.4990   42.4180 N   0  0  0  0  0  0  0  0  0  0  0  0
   48.5500   34.9680   42.2460 C   0  0  0  0  0  0  0  0  0  0  0  0
   48.5380   35.3450   40.7920 C   0  0  0  0  0  0  0  0  0  0  0  0
   47.9200   34.1110   40.1880 C   0  0  0  0  0  0  0  0  0  0  0  0
   46.8660   33.7530   41.2210 C   0  0  2  0  0  0  0  0  0  0  0  0
   44.5590   35.8740   44.6520 C   0  0  0  0  0  0  0  0  0  0  0  0
   45.3930   35.7490   43.5390 C   0  0  0  0  0  0  0  0  0  0  0  0
   46.3160   34.6970   43.4900 C   0  0  0  0  0  0  0  0  0  0  0  0
   46.3570   33.8280   44.5560 N   0  0  0  0  0  0  0  0  0  0  0  0
   45.5240   33.9780   45.6340 C   0  0  0  0  0  0  0  0  0  0  0  0
   44.6400   34.9950   45.6680 N   0  0  0  0  0  0  0  0  0  0  0  0
   45.5300   34.1480   40.6350 C   0  0  0  0  0  0  0  0  0  0  0  0
   45.3080   33.1730   39.4660 C   0  0  0  0  0  0  0  0  0  0  0  0
   48.7648   35.8354   42.8874 H   0  0  0  0  0  0  0  0  0  0  0  0
   49.3206   34.2322   42.5195 H   0  0  0  0  0  0  0  0  0  0  0  0
   47.9215   36.2376   40.6099 H   0  0  0  0  0  0  0  0  0  0  0  0
   49.5234   35.6097   40.3811 H   0  0  0  0  0  0  0  0  0  0  0  0
   47.4649   34.3286   39.2105 H   0  0  0  0  0  0  0  0  0  0  0  0
   48.6406   33.3040   39.9891 H   0  0  0  0  0  0  0  0  0  0  0  0
   46.8384   32.6828   41.4737 H   0  0  0  0  0  0  0  0  0  0  0  0
   43.8305   36.6969   44.6987 H   0  0  0  0  0  0  0  0  0  0  0  0
   45.3257   36.4689   42.7100 H   0  0  0  0  0  0  0  0  0  0  0  0
   45.5769   33.2677   46.4723 H   0  0  0  0  0  0  0  0  0  0  0  0
   44.7319   34.0420   41.3845 H   0  0  0  0  0  0  0  0  0  0  0  0
   45.5151   35.1980   40.3076 H   0  0  0  0  0  0  0  0  0  0  0  0
   45.0801   32.1722   39.8615 H   0  0  0  0  0  0  0  0  0  0  0  0
   44.4668   33.5242   38.8503 H   0  0  0  0  0  0  0  0  0  0  0  0
   46.2183   33.1254   38.8503 H   0  0  0  0  0  0  0  0  0  0  0  0
  1  8  1  0
  2  1  1  0
  3  2  1  0
  4  3  1  0
  4  5  1  0
  5  1  1  0
  6 11  2  0
  7  6  1  0
  8  7  2  0
  8  9  1  0
  9 10  2  0
 10 11  1  0
 12  5  1  0
 13 12  1  0
  2 14  1  0
  2 15  1  0
  3 16  1  0
  3 17  1  0
  4 18  1  0
  4 19  1  0
  5 20  1  1
  6 21  1  0
  7 22  1  0
 10 23  1  0
 12 24  1  0
 12 25  1  0
 13 26  1  0
 13 27  1  0
 13 28  1  0
M  ISO  8  14  13  15  13  16  13  17  13  18  13  19  13  20  13  21  14
M  ISO  7  22  14  23  14  24   8  25   8  26   8  27   8  28   8
M  END
>  <minimizedAffinity>  (1) 
-4.31944466

>  <minimizedRMSD>  (1) 
0.515381992

$$$$
