
     RDKit          3D

 35 37  0  0  0  0  0  0  0  0999 V2000
   46.7980   34.7830   42.1260 C   0  0  0  0  0  0  0  0  0  0  0  0
   48.0230   35.4220   42.0440 C   0  0  0  0  0  0  0  0  0  0  0  0
   48.8320   35.4110   40.9320 C   0  0  0  0  0  0  0  0  0  0  0  0
   48.4190   34.7330   39.8210 C   0  0  0  0  0  0  0  0  0  0  0  0
   47.2190   34.0730   39.8160 C   0  0  0  0  0  0  0  0  0  0  0  0
   46.7930   33.3870   38.6980 C   0  0  0  0  0  0  0  0  0  0  0  0
   45.5850   32.7170   38.6670 C   0  0  0  0  0  0  0  0  0  0  0  0
   44.8290   32.7790   39.8320 C   0  0  0  0  0  0  0  0  0  0  0  0
   45.2750   33.4590   40.9110 C   0  0  0  0  0  0  0  0  0  0  0  0
   46.4720   34.1300   40.9600 C   0  0  0  0  0  0  0  0  0  0  0  0
   44.4610   35.7160   44.9950 C   0  0  0  0  0  0  0  0  0  0  0  0
   45.0840   35.7670   43.7590 C   0  0  0  0  0  0  0  0  0  0  0  0
   46.0660   34.8780   43.3600 C   0  0  0  0  0  0  0  0  0  0  0  0
   46.3680   33.9390   44.3050 N   0  0  0  0  0  0  0  0  0  0  0  0
   45.7810   33.8660   45.5070 C   0  0  0  0  0  0  0  0  0  0  0  0
   44.8350   34.7600   45.8300 N   0  0  0  0  0  0  0  0  0  0  0  0
   46.1620   32.8140   46.4870 C   0  0  0  0  0  0  0  0  0  0  0  0
   45.2530   32.7730   47.6740 C   0  0  0  0  0  0  0  0  0  0  0  0
   46.2290   31.4870   45.7640 C   0  0  0  0  0  0  0  0  0  0  0  0
   48.3730   35.9758   42.9276 H   0  0  0  0  0  0  0  0  0  0  0  0
   49.7965   35.9400   40.9374 H   0  0  0  0  0  0  0  0  0  0  0  0
   49.0548   34.7168   38.9235 H   0  0  0  0  0  0  0  0  0  0  0  0
   47.4341   33.3728   37.8042 H   0  0  0  0  0  0  0  0  0  0  0  0
   45.2430   32.1691   37.7766 H   0  0  0  0  0  0  0  0  0  0  0  0
   43.8558   32.2682   39.8759 H   0  0  0  0  0  0  0  0  0  0  0  0
   44.6383   33.4762   41.8078 H   0  0  0  0  0  0  0  0  0  0  0  0
   43.6839   36.4435   45.2723 H   0  0  0  0  0  0  0  0  0  0  0  0
   44.7815   36.5574   43.0564 H   0  0  0  0  0  0  0  0  0  0  0  0
   47.1525   33.0525   46.9018 H   0  0  0  0  0  0  0  0  0  0  0  0
   45.8524   32.8000   48.5960 H   0  0  0  0  0  0  0  0  0  0  0  0
   44.5786   33.6416   47.6495 H   0  0  0  0  0  0  0  0  0  0  0  0
   44.6595   31.8472   47.6495 H   0  0  0  0  0  0  0  0  0  0  0  0
   46.2702   30.6703   46.4997 H   0  0  0  0  0  0  0  0  0  0  0  0
   45.3357   31.3676   45.1333 H   0  0  0  0  0  0  0  0  0  0  0  0
   47.1297   31.4582   45.1333 H   0  0  0  0  0  0  0  0  0  0  0  0
  1 13  1  0
  2  1  2  0
  3  2  1  0
  4  3  2  0
  5  4  1  0
  5 10  2  0
  6  5  1  0
  7  6  2  0
  7  8  1  0
  8  9  2  0
  9 10  1  0
 10  1  1  0
 11 16  2  0
 12 11  1  0
 13 12  2  0
 13 14  1  0
 14 15  2  0
 15 16  1  0
 15 17  1  0
 17 18  1  0
 19 17  1  0
  2 20  1  0
  3 21  1  0
  4 22  1  0
  6 23  1  0
  7 24  1  0
  8 25  1  0
  9 26  1  0
 11 27  1  0
 12 28  1  0
 17 29  1  0
 18 30  1  0
 18 31  1  0
 18 32  1  0
 19 33  1  0
 19 34  1  0
 19 35  1  0
M  ISO  8  20  14  21  14  22  14  23  14  24  14  25  14  26  14  27  14
M  ISO  8  28  14  29   8  30   8  31   8  32   8  33   8  34   8  35   8
M  END
>  <minimizedAffinity>  (1) 
-6.21656704

>  <minimizedRMSD>  (1) 
0.416632742

$$$$
