
     RDKit          3D

 34 37  0  0  1  0  0  0  0  0999 V2000
   46.9000   34.3450   42.4670 N   0  0  0  0  0  0  0  0  0  0  0  0
   48.2700   33.8260   42.4280 C   0  0  0  0  0  0  0  0  0  0  0  0
   48.8260   34.6800   41.3070 C   0  0  0  0  0  0  0  0  0  0  0  0
   47.7440   34.4910   40.2700 C   0  0  0  0  0  0  0  0  0  0  0  0
   46.4660   34.5570   41.1080 C   0  0  1  0  0  0  0  0  0  0  0  0
   44.4950   35.8720   44.8600 C   0  0  0  0  0  0  0  0  0  0  0  0
   45.2330   35.7010   43.6820 C   0  0  0  0  0  0  0  0  0  0  0  0
   46.1160   34.6030   43.6040 C   0  0  0  0  0  0  0  0  0  0  0  0
   46.1830   33.7840   44.6900 N   0  0  0  0  0  0  0  0  0  0  0  0
   45.4550   33.9750   45.8170 C   0  0  0  0  0  0  0  0  0  0  0  0
   44.6090   35.0280   45.8900 N   0  0  0  0  0  0  0  0  0  0  0  0
   45.5100   33.6840   40.6820 O   0  0  0  0  0  0  0  0  0  0  0  0
   42.0880   32.5710   37.7170 N   0  0  0  0  0  0  0  0  0  0  0  0
   43.1500   31.7550   37.6030 C   0  0  0  0  0  0  0  0  0  0  0  0
   44.1300   32.1050   38.4810 N   0  0  0  0  0  0  0  0  0  0  0  0
   43.6440   33.1690   39.1460 C   0  0  0  0  0  0  0  0  0  0  0  0
   44.2790   33.8680   40.1350 C   0  0  0  0  0  0  0  0  0  0  0  0
   43.5780   34.9160   40.6610 N   0  0  0  0  0  0  0  0  0  0  0  0
   42.3380   35.2230   40.2190 C   0  0  0  0  0  0  0  0  0  0  0  0
   41.7180   34.5190   39.2360 N   0  0  0  0  0  0  0  0  0  0  0  0
   42.3810   33.4720   38.6870 C   0  0  0  0  0  0  0  0  0  0  0  0
   48.8009   33.9962   43.3762 H   0  0  0  0  0  0  0  0  0  0  0  0
   48.3562   32.7398   42.2774 H   0  0  0  0  0  0  0  0  0  0  0  0
   48.9240   35.7338   41.6070 H   0  0  0  0  0  0  0  0  0  0  0  0
   49.8382   34.4060   40.9749 H   0  0  0  0  0  0  0  0  0  0  0  0
   47.8403   33.5169   39.7682 H   0  0  0  0  0  0  0  0  0  0  0  0
   47.7769   35.2362   39.4616 H   0  0  0  0  0  0  0  0  0  0  0  0
   45.9577   35.5278   41.0123 H   0  0  0  0  0  0  0  0  0  0  0  0
   43.8032   36.7235   44.9396 H   0  0  0  0  0  0  0  0  0  0  0  0
   45.1273   36.4027   42.8415 H   0  0  0  0  0  0  0  0  0  0  0  0
   45.5511   33.2803   46.6644 H   0  0  0  0  0  0  0  0  0  0  0  0
   41.2162   32.5213   37.1707 H   0  0  0  0  0  0  0  0  0  0  0  0
   43.2183   30.9162   36.8947 H   0  0  0  0  0  0  0  0  0  0  0  0
   41.8107   36.0753   40.6724 H   0  0  0  0  0  0  0  0  0  0  0  0
  1  8  1  0
  2  1  1  0
  3  2  1  0
  4  5  1  0
  4  3  1  0
  5  1  1  0
  6 11  2  0
  7  6  1  0
  8  7  2  0
  8  9  1  0
  9 10  2  0
 10 11  1  0
 12  5  1  0
 13 21  1  0
 14 13  1  0
 14 15  2  0
 15 16  1  0
 16 17  1  0
 17 18  2  0
 17 12  1  0
 19 18  1  0
 20 19  2  0
 21 16  2  0
 21 20  1  0
  2 22  1  0
  2 23  1  0
  3 24  1  0
  3 25  1  0
  4 26  1  0
  4 27  1  0
  5 28  1  1
  6 29  1  0
  7 30  1  0
 10 31  1  0
 13 32  1  0
 14 33  1  0
 19 34  1  0
M  ISO  8  22  13  23  13  24  13  25  13  26  13  27  13  28  13  29  14
M  ISO  5  30  14  31  14  32   9  33  14  34  14
M  END
>  <minimizedAffinity>  (1) 
-5.52956963

>  <minimizedRMSD>  (1) 
1.86205351

$$$$
