
     RDKit          3D

 33 35  0  0  1  0  0  0  0  0999 V2000
   47.1390   34.4300   42.6410 N   0  0  0  0  0  0  0  0  0  0  0  0
   48.5420   34.0110   42.6790 C   0  0  0  0  0  0  0  0  0  0  0  0
   49.0900   34.9560   41.6240 C   0  0  0  0  0  0  0  0  0  0  0  0
   48.1050   34.7150   40.5050 C   0  0  0  0  0  0  0  0  0  0  0  0
   46.7780   34.6340   41.2450 C   0  0  1  0  0  0  0  0  0  0  0  0
   44.5000   35.7300   44.9230 C   0  0  0  0  0  0  0  0  0  0  0  0
   45.3160   35.6440   43.7910 C   0  0  0  0  0  0  0  0  0  0  0  0
   46.2760   34.6100   43.7200 C   0  0  0  0  0  0  0  0  0  0  0  0
   46.3140   33.7730   44.7940 N   0  0  0  0  0  0  0  0  0  0  0  0
   45.5300   33.8630   45.8750 C   0  0  0  0  0  0  0  0  0  0  0  0
   44.6130   34.8560   45.9340 N   0  0  0  0  0  0  0  0  0  0  0  0
   45.9090   33.7040   40.7660 O   0  0  0  0  0  0  0  0  0  0  0  0
   44.7070   33.8240   40.1130 C   0  0  0  0  0  0  0  0  0  0  0  0
   43.9020   34.8040   40.7060 C   0  0  0  0  0  0  0  0  0  0  0  0
   42.6400   35.0990   40.2140 C   0  0  0  0  0  0  0  0  0  0  0  0
   42.1470   34.4110   39.1020 C   0  0  0  0  0  0  0  0  0  0  0  0
   42.9590   33.4600   38.5470 C   0  0  0  0  0  0  0  0  0  0  0  0
   44.2150   33.1490   39.0160 C   0  0  0  0  0  0  0  0  0  0  0  0
   48.9986   34.1816   43.6651 H   0  0  0  0  0  0  0  0  0  0  0  0
   48.7251   32.9409   42.5021 H   0  0  0  0  0  0  0  0  0  0  0  0
   49.0702   36.0016   41.9650 H   0  0  0  0  0  0  0  0  0  0  0  0
   50.1426   34.7838   41.3548 H   0  0  0  0  0  0  0  0  0  0  0  0
   48.3243   33.7746   39.9782 H   0  0  0  0  0  0  0  0  0  0  0  0
   48.1263   35.4927   39.7274 H   0  0  0  0  0  0  0  0  0  0  0  0
   46.2006   35.5591   41.1009 H   0  0  0  0  0  0  0  0  0  0  0  0
   43.7493   36.5316   44.9858 H   0  0  0  0  0  0  0  0  0  0  0  0
   45.2123   36.3687   42.9700 H   0  0  0  0  0  0  0  0  0  0  0  0
   45.6294   33.1427   46.7004 H   0  0  0  0  0  0  0  0  0  0  0  0
   44.2793   35.3521   41.5819 H   0  0  0  0  0  0  0  0  0  0  0  0
   42.0274   35.8737   40.6983 H   0  0  0  0  0  0  0  0  0  0  0  0
   41.1494   34.6248   38.6908 H   0  0  0  0  0  0  0  0  0  0  0  0
   42.5847   32.9096   37.6713 H   0  0  0  0  0  0  0  0  0  0  0  0
   44.8180   32.3726   38.5225 H   0  0  0  0  0  0  0  0  0  0  0  0
  1  2  1  0
  1  8  1  0
  3  2  1  0
  4  5  1  0
  4  3  1  0
  5  1  1  0
  6 11  2  0
  7  6  1  0
  8  7  2  0
  8  9  1  0
  9 10  2  0
 10 11  1  0
 12  5  1  0
 13 14  2  0
 13 12  1  0
 15 14  1  0
 16 15  2  0
 17 18  2  0
 17 16  1  0
 18 13  1  0
  2 19  1  0
  2 20  1  0
  3 21  1  0
  3 22  1  0
  4 23  1  0
  4 24  1  0
  5 25  1  1
  6 26  1  0
  7 27  1  0
 10 28  1  0
 14 29  1  0
 15 30  1  0
 16 31  1  0
 17 32  1  0
 18 33  1  0
M  ISO  8  19  13  20  13  21  13  22  13  23  13  24  13  25  13  26  14
M  ISO  7  27  14  28  14  29  14  30  14  31  14  32  14  33  14
M  END
>  <minimizedAffinity>  (1) 
-5.13522434

>  <minimizedRMSD>  (1) 
1.33860993

$$$$
