
     RDKit          3D

 28 30  0  0  0  0  0  0  0  0999 V2000
   46.6860   34.8330   41.9880 C   0  0  0  0  0  0  0  0  0  0  0  0
   47.9640   35.3590   41.9260 C   0  0  0  0  0  0  0  0  0  0  0  0
   48.7960   35.2270   40.8370 C   0  0  0  0  0  0  0  0  0  0  0  0
   48.3580   34.5400   39.7420 C   0  0  0  0  0  0  0  0  0  0  0  0
   47.1060   33.9950   39.7380 C   0  0  0  0  0  0  0  0  0  0  0  0
   46.6410   33.3060   38.6290 C   0  0  0  0  0  0  0  0  0  0  0  0
   45.3760   32.7520   38.5800 C   0  0  0  0  0  0  0  0  0  0  0  0
   44.5980   32.9300   39.7180 C   0  0  0  0  0  0  0  0  0  0  0  0
   45.0760   33.6100   40.7940 C   0  0  0  0  0  0  0  0  0  0  0  0
   46.3330   34.1640   40.8480 C   0  0  0  0  0  0  0  0  0  0  0  0
   44.4470   36.1340   44.7850 C   0  0  0  0  0  0  0  0  0  0  0  0
   45.1030   36.0900   43.5670 C   0  0  0  0  0  0  0  0  0  0  0  0
   45.9390   35.0480   43.1990 C   0  0  0  0  0  0  0  0  0  0  0  0
   46.0400   34.0840   44.1580 N   0  0  0  0  0  0  0  0  0  0  0  0
   45.4170   34.1050   45.3370 C   0  0  0  0  0  0  0  0  0  0  0  0
   44.6290   35.1250   45.6410 N   0  0  0  0  0  0  0  0  0  0  0  0
   45.6030   33.0380   46.2560 N   0  0  0  0  0  0  0  0  0  0  0  0
   48.3375   35.9155   42.7982 H   0  0  0  0  0  0  0  0  0  0  0  0
   49.8026   35.6703   40.8493 H   0  0  0  0  0  0  0  0  0  0  0  0
   49.0119   34.4256   38.8649 H   0  0  0  0  0  0  0  0  0  0  0  0
   47.3024   33.1963   37.7569 H   0  0  0  0  0  0  0  0  0  0  0  0
   45.0089   32.2061   37.6984 H   0  0  0  0  0  0  0  0  0  0  0  0
   43.5800   32.5144   39.7485 H   0  0  0  0  0  0  0  0  0  0  0  0
   44.4204   33.7231   41.6700 H   0  0  0  0  0  0  0  0  0  0  0  0
   43.7917   36.9794   45.0418 H   0  0  0  0  0  0  0  0  0  0  0  0
   44.9541   36.9191   42.8597 H   0  0  0  0  0  0  0  0  0  0  0  0
   45.1224   33.0531   47.1669 H   0  0  0  0  0  0  0  0  0  0  0  0
   46.2185   32.2491   46.0115 H   0  0  0  0  0  0  0  0  0  0  0  0
  1 13  1  0
  2  1  2  0
  3  2  1  0
  4  3  2  0
  5  4  1  0
  5 10  2  0
  6  5  1  0
  7  6  2  0
  7  8  1  0
  8  9  2  0
  9 10  1  0
 10  1  1  0
 11 16  2  0
 12 11  1  0
 13 12  2  0
 13 14  1  0
 14 15  2  0
 15 16  1  0
 15 17  1  0
  2 18  1  0
  3 19  1  0
  4 20  1  0
  6 21  1  0
  7 22  1  0
  8 23  1  0
  9 24  1  0
 11 25  1  0
 12 26  1  0
 17 27  1  0
 17 28  1  0
M  ISO  8  18  14  19  14  20  14  21  14  22  14  23  14  24  14  25  14
M  ISO  1  26  14
M  END
>  <minimizedAffinity>  (1) 
-6.02441406

>  <minimizedRMSD>  (1) 
0.122942954

$$$$
