
     RDKit          3D

 32 34  0  0  1  0  0  0  0  0999 V2000
   46.8950   34.3350   42.4800 N   0  0  0  0  0  0  0  0  0  0  0  0
   48.2650   33.8070   42.4330 C   0  0  0  0  0  0  0  0  0  0  0  0
   48.8250   34.6680   41.3160 C   0  0  0  0  0  0  0  0  0  0  0  0
   47.7430   34.5140   40.2860 C   0  0  0  0  0  0  0  0  0  0  0  0
   46.4710   34.5490   41.1240 C   0  0  1  0  0  0  0  0  0  0  0  0
   44.4990   35.8680   44.8750 C   0  0  0  0  0  0  0  0  0  0  0  0
   45.2360   35.6920   43.7000 C   0  0  0  0  0  0  0  0  0  0  0  0
   46.1140   34.5930   43.6170 C   0  0  0  0  0  0  0  0  0  0  0  0
   46.1790   33.7730   44.6980 N   0  0  0  0  0  0  0  0  0  0  0  0
   45.4690   33.9480   45.8220 C   0  0  0  0  0  0  0  0  0  0  0  0
   44.6250   35.0020   45.9070 N   0  0  0  0  0  0  0  0  0  0  0  0
   45.5200   33.6550   40.6840 O   0  0  0  0  0  0  0  0  0  0  0  0
   44.2790   33.9630   40.1770 C   0  0  0  0  0  0  0  0  0  0  0  0
   43.5040   35.0010   40.7030 C   0  0  0  0  0  0  0  0  0  0  0  0
   42.2570   35.2670   40.1510 C   0  0  0  0  0  0  0  0  0  0  0  0
   41.7290   34.5540   39.0910 C   0  0  0  0  0  0  0  0  0  0  0  0
   42.5450   33.5470   38.6210 C   0  0  0  0  0  0  0  0  0  0  0  0
   43.7670   33.2580   39.1360 N   0  0  0  0  0  0  0  0  0  0  0  0
   48.7992   33.9661   43.3813 H   0  0  0  0  0  0  0  0  0  0  0  0
   48.3440   32.7216   42.2729 H   0  0  0  0  0  0  0  0  0  0  0  0
   48.9413   35.7159   41.6298 H   0  0  0  0  0  0  0  0  0  0  0  0
   49.8296   34.3794   40.9734 H   0  0  0  0  0  0  0  0  0  0  0  0
   47.8387   33.5577   39.7509 H   0  0  0  0  0  0  0  0  0  0  0  0
   47.7715   35.2887   39.5056 H   0  0  0  0  0  0  0  0  0  0  0  0
   45.9535   35.5157   41.0365 H   0  0  0  0  0  0  0  0  0  0  0  0
   43.8089   36.7202   44.9615 H   0  0  0  0  0  0  0  0  0  0  0  0
   45.1329   36.3949   42.8602 H   0  0  0  0  0  0  0  0  0  0  0  0
   45.5712   33.2453   46.6621 H   0  0  0  0  0  0  0  0  0  0  0  0
   43.8778   35.6012   41.5456 H   0  0  0  0  0  0  0  0  0  0  0  0
   41.6601   36.0859   40.5789 H   0  0  0  0  0  0  0  0  0  0  0  0
   40.7411   34.7717   38.6589 H   0  0  0  0  0  0  0  0  0  0  0  0
   42.1836   32.9409   37.7772 H   0  0  0  0  0  0  0  0  0  0  0  0
  1  8  1  0
  2  1  1  0
  3  2  1  0
  4  5  1  0
  4  3  1  0
  5  1  1  0
  6 11  2  0
  7  6  1  0
  8  7  2  0
  8  9  1  0
  9 10  2  0
 10 11  1  0
 12  5  1  0
 13 12  1  0
 13 14  2  0
 15 14  1  0
 16 15  2  0
 17 16  1  0
 17 18  2  0
 18 13  1  0
  2 19  1  0
  2 20  1  0
  3 21  1  0
  3 22  1  0
  4 23  1  0
  4 24  1  0
  5 25  1  1
  6 26  1  0
  7 27  1  0
 10 28  1  0
 14 29  1  0
 15 30  1  0
 16 31  1  0
 17 32  1  0
M  ISO  8  19  13  20  13  21  13  22  13  23  13  24  13  25  13  26  14
M  ISO  6  27  14  28  14  29  14  30  14  31  14  32  14
M  END
>  <minimizedAffinity>  (1) 
-5.10364199

>  <minimizedRMSD>  (1) 
1.52343273

$$$$
