
     RDKit          3D

 31 33  0  0  1  0  0  0  0  0999 V2000
   47.1620   34.4820   42.6130 N   0  0  0  0  0  0  0  0  0  0  0  0
   48.5930   34.1860   42.6530 C   0  0  0  0  0  0  0  0  0  0  0  0
   49.0500   35.1090   41.5280 C   0  0  0  0  0  0  0  0  0  0  0  0
   48.0770   34.7040   40.4520 C   0  0  0  0  0  0  0  0  0  0  0  0
   46.7590   34.5940   41.2190 C   0  0  1  0  0  0  0  0  0  0  0  0
   44.4930   35.7470   44.8910 C   0  0  0  0  0  0  0  0  0  0  0  0
   45.3190   35.6600   43.7780 C   0  0  0  0  0  0  0  0  0  0  0  0
   46.2930   34.6360   43.6970 C   0  0  0  0  0  0  0  0  0  0  0  0
   46.3360   33.7960   44.7570 N   0  0  0  0  0  0  0  0  0  0  0  0
   45.5370   33.8720   45.8430 C   0  0  0  0  0  0  0  0  0  0  0  0
   44.6130   34.8610   45.8980 N   0  0  0  0  0  0  0  0  0  0  0  0
   45.9820   33.5550   40.7900 O   0  0  0  0  0  0  0  0  0  0  0  0
   44.7880   33.7120   40.1130 C   0  0  0  0  0  0  0  0  0  0  0  0
   44.2500   33.0840   39.0220 C   0  0  0  0  0  0  0  0  0  0  0  0
   43.0070   33.4680   38.5650 C   0  0  0  0  0  0  0  0  0  0  0  0
   42.3060   34.4580   39.1750 N   0  0  0  0  0  0  0  0  0  0  0  0
   42.8430   35.0630   40.2380 C   0  0  0  0  0  0  0  0  0  0  0  0
   44.0630   34.7030   40.7050 N   0  0  0  0  0  0  0  0  0  0  0  0
   49.0446   34.4559   43.6190 H   0  0  0  0  0  0  0  0  0  0  0  0
   48.8635   33.1259   42.5390 H   0  0  0  0  0  0  0  0  0  0  0  0
   48.9415   36.1694   41.7995 H   0  0  0  0  0  0  0  0  0  0  0  0
   50.1113   35.0175   41.2536 H   0  0  0  0  0  0  0  0  0  0  0  0
   48.3581   33.7390   40.0051 H   0  0  0  0  0  0  0  0  0  0  0  0
   48.0359   35.4111   39.6104 H   0  0  0  0  0  0  0  0  0  0  0  0
   46.1089   35.4664   41.0569 H   0  0  0  0  0  0  0  0  0  0  0  0
   43.7369   36.5437   44.9503 H   0  0  0  0  0  0  0  0  0  0  0  0
   45.2163   36.3871   42.9590 H   0  0  0  0  0  0  0  0  0  0  0  0
   45.6343   33.1470   46.6646 H   0  0  0  0  0  0  0  0  0  0  0  0
   44.8041   32.2805   38.5147 H   0  0  0  0  0  0  0  0  0  0  0  0
   42.5748   32.9623   37.6889 H   0  0  0  0  0  0  0  0  0  0  0  0
   42.2859   35.8663   40.7423 H   0  0  0  0  0  0  0  0  0  0  0  0
  1  2  1  0
  1  8  1  0
  3  2  1  0
  4  5  1  0
  4  3  1  0
  5  1  1  0
  6 11  2  0
  7  6  1  0
  8  7  2  0
  8  9  1  0
  9 10  2  0
 10 11  1  0
 12  5  1  0
 13 18  1  0
 13 12  1  0
 14 13  2  0
 15 14  1  0
 15 16  2  0
 16 17  1  0
 17 18  2  0
  2 19  1  0
  2 20  1  0
  3 21  1  0
  3 22  1  0
  4 23  1  0
  4 24  1  0
  5 25  1  1
  6 26  1  0
  7 27  1  0
 10 28  1  0
 14 29  1  0
 15 30  1  0
 17 31  1  0
M  ISO  8  19  13  20  13  21  13  22  13  23  13  24  13  25  13  26  14
M  ISO  5  27  14  28  14  29  14  30  14  31  14
M  END
>  <minimizedAffinity>  (1) 
-5.02905178

>  <minimizedRMSD>  (1) 
1.07270694

$$$$
