
     RDKit          3D

 30 32  0  0  1  0  0  0  0  0999 V2000
   46.9920   34.3590   42.4420 N   0  0  0  0  0  0  0  0  0  0  0  0
   48.3510   33.8300   42.4390 C   0  0  0  0  0  0  0  0  0  0  0  0
   48.9460   34.6930   41.3370 C   0  0  0  0  0  0  0  0  0  0  0  0
   47.8990   34.5040   40.2700 C   0  0  0  0  0  0  0  0  0  0  0  0
   46.6050   34.5740   41.0740 C   0  0  1  0  0  0  0  0  0  0  0  0
   44.4940   35.9000   44.7400 C   0  0  0  0  0  0  0  0  0  0  0  0
   45.2680   35.7110   43.5920 C   0  0  0  0  0  0  0  0  0  0  0  0
   46.1790   34.6220   43.5500 C   0  0  0  0  0  0  0  0  0  0  0  0
   46.2300   33.8300   44.6520 N   0  0  0  0  0  0  0  0  0  0  0  0
   45.4720   34.0230   45.7600 C   0  0  0  0  0  0  0  0  0  0  0  0
   44.6090   35.0600   45.7920 N   0  0  0  0  0  0  0  0  0  0  0  0
   45.6540   33.6860   40.6090 O   0  0  0  0  0  0  0  0  0  0  0  0
   44.3270   33.9560   40.3170 C   0  0  0  0  0  0  0  0  0  0  0  0
   43.3750   33.0130   40.0020 C   0  0  0  0  0  0  0  0  0  0  0  0
   42.2260   33.6940   39.7910 N   0  0  0  0  0  0  0  0  0  0  0  0
   42.4560   35.0070   39.9690 C   0  0  0  0  0  0  0  0  0  0  0  0
   43.7550   35.1840   40.2950 N   0  0  0  0  0  0  0  0  0  0  0  0
   48.8562   33.9878   43.4033 H   0  0  0  0  0  0  0  0  0  0  0  0
   48.4334   32.7442   42.2831 H   0  0  0  0  0  0  0  0  0  0  0  0
   49.0323   35.7459   41.6435 H   0  0  0  0  0  0  0  0  0  0  0  0
   49.9697   34.4244   41.0372 H   0  0  0  0  0  0  0  0  0  0  0  0
   48.0075   33.5288   39.7727 H   0  0  0  0  0  0  0  0  0  0  0  0
   47.9559   35.2447   39.4588 H   0  0  0  0  0  0  0  0  0  0  0  0
   46.1056   35.5488   40.9720 H   0  0  0  0  0  0  0  0  0  0  0  0
   43.7851   36.7398   44.7876 H   0  0  0  0  0  0  0  0  0  0  0  0
   45.1734   36.3942   42.7351 H   0  0  0  0  0  0  0  0  0  0  0  0
   45.5595   33.3436   46.6207 H   0  0  0  0  0  0  0  0  0  0  0  0
   43.5198   31.9246   39.9353 H   0  0  0  0  0  0  0  0  0  0  0  0
   41.7080   35.8069   39.8659 H   0  0  0  0  0  0  0  0  0  0  0  0
   44.2216   36.0814   40.4897 H   0  0  0  0  0  0  0  0  0  0  0  0
  1  8  1  0
  2  1  1  0
  3  2  1  0
  4  5  1  0
  4  3  1  0
  5  1  1  0
  6 11  2  0
  7  6  1  0
  8  7  2  0
  8  9  1  0
  9 10  2  0
 10 11  1  0
 12  5  1  0
 13 12  1  0
 14 13  2  0
 15 16  2  0
 15 14  1  0
 16 17  1  0
 17 13  1  0
  2 18  1  0
  2 19  1  0
  3 20  1  0
  3 21  1  0
  4 22  1  0
  4 23  1  0
  5 24  1  1
  6 25  1  0
  7 26  1  0
 10 27  1  0
 14 28  1  0
 16 29  1  0
 17 30  1  0
M  ISO  8  18  13  19  13  20  13  21  13  22  13  23  13  24  13  25  14
M  ISO  5  26  14  27  14  28  14  29  14  30   9
M  END
>  <minimizedAffinity>  (1) 
-4.97252655

>  <minimizedRMSD>  (1) 
1.32157516

$$$$
