
     RDKit          3D

 29 31  0  0  1  0  0  0  0  0999 V2000
   47.1290   34.5020   42.5200 N   0  0  0  0  0  0  0  0  0  0  0  0
   48.5510   34.1350   42.5960 C   0  0  0  0  0  0  0  0  0  0  0  0
   49.0840   35.0020   41.4740 C   0  0  0  0  0  0  0  0  0  0  0  0
   48.1070   34.6670   40.3840 C   0  0  0  0  0  0  0  0  0  0  0  0
   46.7760   34.6140   41.1320 C   0  0  1  0  0  0  0  0  0  0  0  0
   44.4850   35.8840   44.7470 C   0  0  0  0  0  0  0  0  0  0  0  0
   45.3140   35.7660   43.6240 C   0  0  0  0  0  0  0  0  0  0  0  0
   46.2510   34.7130   43.5980 C   0  0  0  0  0  0  0  0  0  0  0  0
   46.2830   33.8800   44.6750 N   0  0  0  0  0  0  0  0  0  0  0  0
   45.4760   34.0120   45.7480 C   0  0  0  0  0  0  0  0  0  0  0  0
   44.5760   35.0170   45.7800 N   0  0  0  0  0  0  0  0  0  0  0  0
   45.9510   33.6260   40.6730 O   0  0  0  0  0  0  0  0  0  0  0  0
   44.6980   33.7290   40.0950 C   0  0  0  0  0  0  0  0  0  0  0  0
   44.2890   32.8640   39.0090 C   0  0  0  0  0  0  0  0  0  0  0  0
   42.5450   33.5460   38.7430 S   0  0  0  0  0  0  0  0  0  0  0  0
   42.7380   34.8060   40.1080 C   0  0  0  0  0  0  0  0  0  0  0  0
   43.8720   34.6450   40.5630 N   0  0  0  0  0  0  0  0  0  0  0  0
   48.9935   34.4006   43.5674 H   0  0  0  0  0  0  0  0  0  0  0  0
   48.7661   33.0602   42.5043 H   0  0  0  0  0  0  0  0  0  0  0  0
   49.0512   36.0701   41.7350 H   0  0  0  0  0  0  0  0  0  0  0  0
   50.1383   34.8227   41.2165 H   0  0  0  0  0  0  0  0  0  0  0  0
   48.3428   33.6958   39.9244 H   0  0  0  0  0  0  0  0  0  0  0  0
   48.1135   35.3893   39.5544 H   0  0  0  0  0  0  0  0  0  0  0  0
   46.1708   35.5175   40.9661 H   0  0  0  0  0  0  0  0  0  0  0  0
   43.7459   36.6977   44.7890 H   0  0  0  0  0  0  0  0  0  0  0  0
   45.2361   36.4747   42.7864 H   0  0  0  0  0  0  0  0  0  0  0  0
   45.5509   33.3070   46.5890 H   0  0  0  0  0  0  0  0  0  0  0  0
   44.8287   32.0553   38.4945 H   0  0  0  0  0  0  0  0  0  0  0  0
   41.9909   35.5425   40.4388 H   0  0  0  0  0  0  0  0  0  0  0  0
  1  2  1  0
  1  8  1  0
  3  2  1  0
  4  5  1  0
  4  3  1  0
  5  1  1  0
  6 11  2  0
  7  6  1  0
  8  7  2  0
  8  9  1  0
  9 10  2  0
 10 11  1  0
 12  5  1  0
 13 17  1  0
 13 12  1  0
 14 13  2  0
 15 14  1  0
 15 16  1  0
 16 17  2  0
  2 18  1  0
  2 19  1  0
  3 20  1  0
  3 21  1  0
  4 22  1  0
  4 23  1  0
  5 24  1  1
  6 25  1  0
  7 26  1  0
 10 27  1  0
 14 28  1  0
 16 29  1  0
M  ISO  8  18  13  19  13  20  13  21  13  22  13  23  13  24  13  25  14
M  ISO  4  26  14  27  14  28  14  29  14
M  END
>  <minimizedAffinity>  (1) 
-4.77048016

>  <minimizedRMSD>  (1) 
1.07535458

$$$$
