
     RDKit          3D

 29 31  0  0  0  0  0  0  0  0999 V2000
   46.7350   34.8270   42.0220 C   0  0  0  0  0  0  0  0  0  0  0  0
   47.9900   35.4120   41.9570 C   0  0  0  0  0  0  0  0  0  0  0  0
   48.8160   35.3290   40.8560 C   0  0  0  0  0  0  0  0  0  0  0  0
   48.3950   34.6350   39.7510 C   0  0  0  0  0  0  0  0  0  0  0  0
   47.1630   34.0320   39.7500 C   0  0  0  0  0  0  0  0  0  0  0  0
   46.7310   33.3370   38.6440 C   0  0  0  0  0  0  0  0  0  0  0  0
   45.4950   32.7210   38.6030 C   0  0  0  0  0  0  0  0  0  0  0  0
   44.7200   32.8500   39.7490 C   0  0  0  0  0  0  0  0  0  0  0  0
   45.1760   33.5420   40.8240 C   0  0  0  0  0  0  0  0  0  0  0  0
   46.3980   34.1570   40.8770 C   0  0  0  0  0  0  0  0  0  0  0  0
   44.4310   35.9540   44.8400 C   0  0  0  0  0  0  0  0  0  0  0  0
   45.0610   35.9550   43.6090 C   0  0  0  0  0  0  0  0  0  0  0  0
   45.9910   34.9910   43.2410 C   0  0  0  0  0  0  0  0  0  0  0  0
   46.2100   34.0580   44.2130 N   0  0  0  0  0  0  0  0  0  0  0  0
   45.6110   34.0440   45.4030 C   0  0  0  0  0  0  0  0  0  0  0  0
   44.7300   34.9880   45.7060 N   0  0  0  0  0  0  0  0  0  0  0  0
   45.9460   32.9610   46.3730 C   0  0  0  0  0  0  0  0  0  0  0  0
   48.3469   35.9739   42.8327 H   0  0  0  0  0  0  0  0  0  0  0  0
   49.8029   35.8148   40.8641 H   0  0  0  0  0  0  0  0  0  0  0  0
   49.0445   34.5619   38.8663 H   0  0  0  0  0  0  0  0  0  0  0  0
   47.3897   33.2697   37.7656 H   0  0  0  0  0  0  0  0  0  0  0  0
   45.1470   32.1645   37.7203 H   0  0  0  0  0  0  0  0  0  0  0  0
   43.7237   32.3852   39.7856 H   0  0  0  0  0  0  0  0  0  0  0  0
   44.5236   33.6130   41.7068 H   0  0  0  0  0  0  0  0  0  0  0  0
   43.6993   36.7338   45.0979 H   0  0  0  0  0  0  0  0  0  0  0  0
   44.8156   36.7520   42.8917 H   0  0  0  0  0  0  0  0  0  0  0  0
   45.8291   33.3390   47.3994 H   0  0  0  0  0  0  0  0  0  0  0  0
   45.2699   32.1074   46.2174 H   0  0  0  0  0  0  0  0  0  0  0  0
   46.9860   32.6382   46.2174 H   0  0  0  0  0  0  0  0  0  0  0  0
  1 13  1  0
  2  1  2  0
  3  2  1  0
  4  3  2  0
  5  4  1  0
  5 10  2  0
  6  5  1  0
  7  6  2  0
  7  8  1  0
  8  9  2  0
  9 10  1  0
 10  1  1  0
 11 16  2  0
 12 11  1  0
 13 12  2  0
 13 14  1  0
 14 15  2  0
 15 16  1  0
 15 17  1  0
  2 18  1  0
  3 19  1  0
  4 20  1  0
  6 21  1  0
  7 22  1  0
  8 23  1  0
  9 24  1  0
 11 25  1  0
 12 26  1  0
 17 27  1  0
 17 28  1  0
 17 29  1  0
M  ISO  8  18  14  19  14  20  14  21  14  22  14  23  14  24  14  25  14
M  ISO  4  26  14  27   8  28   8  29   8
M  END
>  <minimizedAffinity>  (1) 
-5.9534421

>  <minimizedRMSD>  (1) 
0.0650545359

$$$$
