
     RDKit          3D

 50 54  0  0  1  0  0  0  0  0999 V2000
   45.5490   33.7150   41.8950 N   0  0  0  0  0  0  0  0  0  0  0  0
   46.6090   32.7480   41.5540 C   0  0  0  0  0  0  0  0  0  0  0  0
   47.0410   33.3420   40.2320 C   0  0  0  0  0  0  0  0  0  0  0  0
   45.6950   33.4670   39.5760 C   0  0  0  0  0  0  0  0  0  0  0  0
   44.8010   33.9940   40.7080 C   0  0  1  0  0  0  0  0  0  0  0  0
   44.4350   35.9660   44.6250 C   0  0  0  0  0  0  0  0  0  0  0  0
   44.6660   35.5590   43.2860 C   0  0  0  0  0  0  0  0  0  0  0  0
   45.2780   34.2870   43.1500 C   0  0  0  0  0  0  0  0  0  0  0  0
   45.5950   33.5540   44.2820 N   0  0  0  0  0  0  0  0  0  0  0  0
   45.3460   34.0030   45.5320 C   0  0  0  0  0  0  0  0  0  0  0  0
   44.7670   35.2080   45.6900 N   0  0  0  0  0  0  0  0  0  0  0  0
   43.5100   33.4280   40.6950 O   0  0  0  0  0  0  0  0  0  0  0  0
   42.4830   34.0570   40.0040 C   0  0  0  0  0  0  0  0  0  0  0  0
   42.4870   35.1440   39.0950 C   0  0  0  0  0  0  0  0  0  0  0  0
   41.2510   35.4930   38.6980 N   0  0  0  0  0  0  0  0  0  0  0  0
   40.3930   34.6550   39.3200 C   0  0  0  0  0  0  0  0  0  0  0  0
   39.0190   34.5620   39.4320 C   0  0  0  0  0  0  0  0  0  0  0  0
   38.4340   33.6490   40.2380 C   0  0  0  0  0  0  0  0  0  0  0  0
   39.1530   32.7430   40.9850 C   0  0  0  0  0  0  0  0  0  0  0  0
   40.5080   32.8340   40.8710 C   0  0  0  0  0  0  0  0  0  0  0  0
   41.1610   33.7500   40.1120 C   0  0  0  0  0  0  0  0  0  0  0  0
   41.1350   31.4720   41.2070 C   0  0  0  0  0  0  0  0  0  0  0  0
   40.4290   31.2280   42.6560 C   0  0  0  0  0  0  0  0  0  0  0  0
   40.7430   29.8770   43.0670 C   0  0  0  0  0  0  0  0  0  0  0  0
   41.0580   29.2000   41.8040 C   0  0  0  0  0  0  0  0  0  0  0  0
   40.6620   30.2320   40.6830 C   0  0  0  0  0  0  0  0  0  0  0  0
   47.4231   32.7481   42.2937 H   0  0  0  0  0  0  0  0  0  0  0  0
   46.3000   31.6927   41.5242 H   0  0  0  0  0  0  0  0  0  0  0  0
   47.5295   34.3193   40.3595 H   0  0  0  0  0  0  0  0  0  0  0  0
   47.7861   32.7571   39.6728 H   0  0  0  0  0  0  0  0  0  0  0  0
   45.7294   34.1777   38.7371 H   0  0  0  0  0  0  0  0  0  0  0  0
   45.3347   32.5206   39.1466 H   0  0  0  0  0  0  0  0  0  0  0  0
   44.5847   35.0683   40.6126 H   0  0  0  0  0  0  0  0  0  0  0  0
   43.9638   36.9439   44.8028 H   0  0  0  0  0  0  0  0  0  0  0  0
   44.3920   36.1811   42.4212 H   0  0  0  0  0  0  0  0  0  0  0  0
   45.6125   33.3928   46.4076 H   0  0  0  0  0  0  0  0  0  0  0  0
   43.4025   35.6478   38.7514 H   0  0  0  0  0  0  0  0  0  0  0  0
   41.0057   36.2519   38.0462 H   0  0  0  0  0  0  0  0  0  0  0  0
   38.3858   35.2483   38.8506 H   0  0  0  0  0  0  0  0  0  0  0  0
   37.3359   33.6286   40.3001 H   0  0  0  0  0  0  0  0  0  0  0  0
   38.6667   31.9964   41.6300 H   0  0  0  0  0  0  0  0  0  0  0  0
   42.1937   31.5915   40.9335 H   0  0  0  0  0  0  0  0  0  0  0  0
   40.8216   31.9457   43.3913 H   0  0  0  0  0  0  0  0  0  0  0  0
   39.3404   31.3704   42.5871 H   0  0  0  0  0  0  0  0  0  0  0  0
   41.6077   29.8636   43.7467 H   0  0  0  0  0  0  0  0  0  0  0  0
   39.9224   29.3951   43.6187 H   0  0  0  0  0  0  0  0  0  0  0  0
   42.1305   28.9616   41.7495 H   0  0  0  0  0  0  0  0  0  0  0  0
   40.5193   28.2467   41.6990 H   0  0  0  0  0  0  0  0  0  0  0  0
   39.5724   30.2555   40.5343 H   0  0  0  0  0  0  0  0  0  0  0  0
   41.0870   29.9870   39.6984 H   0  0  0  0  0  0  0  0  0  0  0  0
  1  8  1  0
  2  1  1  0
  3  2  1  0
  4  3  1  0
  4  5  1  0
  5  1  1  0
  6 11  2  0
  7  6  1  0
  8  7  2  0
  8  9  1  0
  9 10  2  0
 10 11  1  0
 12  5  1  0
 13 21  1  0
 13 12  1  0
 14 13  2  0
 15 14  1  0
 15 16  1  0
 16 17  2  0
 16 21  1  0
 17 18  1  0
 18 19  2  0
 20 19  1  0
 20 22  1  0
 21 20  2  0
 22 23  1  0
 23 24  1  0
 25 24  1  0
 26 22  1  0
 26 25  1  0
  2 27  1  0
  2 28  1  0
  3 29  1  0
  3 30  1  0
  4 31  1  0
  4 32  1  0
  5 33  1  6
  6 34  1  0
  7 35  1  0
 10 36  1  0
 14 37  1  0
 15 38  1  0
 17 39  1  0
 18 40  1  0
 19 41  1  0
 22 42  1  0
 23 43  1  0
 23 44  1  0
 24 45  1  0
 24 46  1  0
 25 47  1  0
 25 48  1  0
 26 49  1  0
 26 50  1  0
M  ISO  8  27  13  28  13  29  13  30  13  31  13  32  13  33  13  34  14
M  ISO  8  35  14  36  14  37  14  38   9  39  14  40  14  41  14  42  13
M  ISO  8  43  13  44  13  45  13  46  13  47  13  48  13  49  13  50  13
M  END
>  <minimizedAffinity>  (1) 
-6.24245691

>  <minimizedRMSD>  (1) 
2.24087191

$$$$
