
     RDKit          3D

 49 52  0  0  1  0  0  0  0  0999 V2000
   45.7880   33.8150   41.7930 N   0  0  0  0  0  0  0  0  0  0  0  0
   46.9630   32.9680   41.4920 C   0  0  0  0  0  0  0  0  0  0  0  0
   47.3610   33.6120   40.1740 C   0  0  0  0  0  0  0  0  0  0  0  0
   46.0250   33.5480   39.4860 C   0  0  0  0  0  0  0  0  0  0  0  0
   45.0420   33.9730   40.5860 C   0  0  1  0  0  0  0  0  0  0  0  0
   44.4630   36.0290   44.4600 C   0  0  0  0  0  0  0  0  0  0  0  0
   44.7860   35.6450   43.1280 C   0  0  0  0  0  0  0  0  0  0  0  0
   45.4290   34.3750   43.0310 C   0  0  0  0  0  0  0  0  0  0  0  0
   45.6650   33.6710   44.1610 N   0  0  0  0  0  0  0  0  0  0  0  0
   45.3250   34.1000   45.3920 C   0  0  0  0  0  0  0  0  0  0  0  0
   44.7260   35.2830   45.5230 N   0  0  0  0  0  0  0  0  0  0  0  0
   43.8240   33.2580   40.5430 O   0  0  0  0  0  0  0  0  0  0  0  0
   42.8000   33.7550   39.7330 C   0  0  0  0  0  0  0  0  0  0  0  0
   42.8030   34.5080   38.5170 C   0  0  0  0  0  0  0  0  0  0  0  0
   41.5770   34.8460   38.1060 N   0  0  0  0  0  0  0  0  0  0  0  0
   40.7310   34.3320   39.0190 C   0  0  0  0  0  0  0  0  0  0  0  0
   39.3500   34.4130   39.2210 C   0  0  0  0  0  0  0  0  0  0  0  0
   38.7670   33.8320   40.3110 C   0  0  0  0  0  0  0  0  0  0  0  0
   39.4800   33.1320   41.2520 C   0  0  0  0  0  0  0  0  0  0  0  0
   40.8340   33.0570   41.0480 C   0  0  0  0  0  0  0  0  0  0  0  0
   41.4750   33.6410   40.0090 C   0  0  0  0  0  0  0  0  0  0  0  0
   41.3750   31.7970   41.6950 C   0  0  0  0  0  0  0  0  0  0  0  0
   40.3200   31.1970   42.5760 C   0  0  0  0  0  0  0  0  0  0  0  0
   42.6420   31.2460   41.7830 C   0  0  0  0  0  0  0  0  0  0  0  0
   40.9960   30.8120   40.3680 C   0  0  0  0  0  0  0  0  0  0  0  0
   47.7497   33.0616   42.2551 H   0  0  0  0  0  0  0  0  0  0  0  0
   46.7797   31.8838   41.4619 H   0  0  0  0  0  0  0  0  0  0  0  0
   47.7104   34.6466   40.3065 H   0  0  0  0  0  0  0  0  0  0  0  0
   48.1973   33.1355   39.6414 H   0  0  0  0  0  0  0  0  0  0  0  0
   45.9869   34.2421   38.6335 H   0  0  0  0  0  0  0  0  0  0  0  0
   45.8021   32.5548   39.0691 H   0  0  0  0  0  0  0  0  0  0  0  0
   44.6929   35.0099   40.4717 H   0  0  0  0  0  0  0  0  0  0  0  0
   43.9676   36.9988   44.6155 H   0  0  0  0  0  0  0  0  0  0  0  0
   44.5602   36.2711   42.2522 H   0  0  0  0  0  0  0  0  0  0  0  0
   45.5389   33.4823   46.2767 H   0  0  0  0  0  0  0  0  0  0  0  0
   43.7207   34.7810   37.9754 H   0  0  0  0  0  0  0  0  0  0  0  0
   41.3304   35.3874   37.2652 H   0  0  0  0  0  0  0  0  0  0  0  0
   38.7252   34.9513   38.4931 H   0  0  0  0  0  0  0  0  0  0  0  0
   37.6790   33.9293   40.4403 H   0  0  0  0  0  0  0  0  0  0  0  0
   38.9942   32.6592   42.1183 H   0  0  0  0  0  0  0  0  0  0  0  0
   40.5916   31.3515   43.6307 H   0  0  0  0  0  0  0  0  0  0  0  0
   39.3533   31.6804   42.3718 H   0  0  0  0  0  0  0  0  0  0  0  0
   40.2413   30.1190   42.3718 H   0  0  0  0  0  0  0  0  0  0  0  0
   42.9171   31.1264   42.8413 H   0  0  0  0  0  0  0  0  0  0  0  0
   42.6496   30.2633   41.2888 H   0  0  0  0  0  0  0  0  0  0  0  0
   43.3660   31.9106   41.2888 H   0  0  0  0  0  0  0  0  0  0  0  0
   40.6226   29.8415   40.7266 H   0  0  0  0  0  0  0  0  0  0  0  0
   40.2215   31.3003   39.7583 H   0  0  0  0  0  0  0  0  0  0  0  0
   41.8980   30.6552   39.7583 H   0  0  0  0  0  0  0  0  0  0  0  0
  1  8  1  0
  2  1  1  0
  3  2  1  0
  4  3  1  0
  4  5  1  0
  5  1  1  0
  6 11  2  0
  7  6  1  0
  8  7  2  0
  8  9  1  0
  9 10  2  0
 10 11  1  0
 12  5  1  0
 13 21  1  0
 13 12  1  0
 14 13  2  0
 15 14  1  0
 15 16  1  0
 16 17  2  0
 16 21  1  0
 17 18  1  0
 18 19  2  0
 20 19  1  0
 20 22  1  0
 21 20  2  0
 22 24  1  0
 22 23  1  0
 25 22  1  0
  2 26  1  0
  2 27  1  0
  3 28  1  0
  3 29  1  0
  4 30  1  0
  4 31  1  0
  5 32  1  6
  6 33  1  0
  7 34  1  0
 10 35  1  0
 14 36  1  0
 15 37  1  0
 17 38  1  0
 18 39  1  0
 19 40  1  0
 23 41  1  0
 23 42  1  0
 23 43  1  0
 24 44  1  0
 24 45  1  0
 24 46  1  0
 25 47  1  0
 25 48  1  0
 25 49  1  0
M  ISO  8  26  13  27  13  28  13  29  13  30  13  31  13  32  13  33  14
M  ISO  8  34  14  35  14  36  14  37   9  38  14  39  14  40  14  41   8
M  ISO  8  42   8  43   8  44   8  45   8  46   8  47   8  48   8  49   8
M  END
>  <minimizedAffinity>  (1) 
-6.14055014

>  <minimizedRMSD>  (1) 
1.77715206

$$$$
