
     RDKit          3D

 46 49  0  0  1  0  0  0  0  0999 V2000
   45.7590   33.7300   41.7740 N   0  0  0  0  0  0  0  0  0  0  0  0
   46.9170   32.8560   41.4940 C   0  0  0  0  0  0  0  0  0  0  0  0
   47.3390   33.4520   40.1740 C   0  0  0  0  0  0  0  0  0  0  0  0
   46.0120   33.4610   39.4660 C   0  0  0  0  0  0  0  0  0  0  0  0
   45.0340   33.9090   40.5560 C   0  0  1  0  0  0  0  0  0  0  0  0
   44.4460   36.0080   44.3860 C   0  0  0  0  0  0  0  0  0  0  0  0
   44.7500   35.5920   43.0640 C   0  0  0  0  0  0  0  0  0  0  0  0
   45.3980   34.3030   43.0160 C   0  0  0  0  0  0  0  0  0  0  0  0
   45.6650   33.5990   44.1630 N   0  0  0  0  0  0  0  0  0  0  0  0
   45.3330   34.0840   45.3860 C   0  0  0  0  0  0  0  0  0  0  0  0
   44.7270   35.2840   45.4820 N   0  0  0  0  0  0  0  0  0  0  0  0
   43.8020   33.2330   40.5060 O   0  0  0  0  0  0  0  0  0  0  0  0
   42.7630   33.8040   39.7440 C   0  0  0  0  0  0  0  0  0  0  0  0
   42.8050   34.6340   38.5950 C   0  0  0  0  0  0  0  0  0  0  0  0
   41.5920   35.0110   38.1790 N   0  0  0  0  0  0  0  0  0  0  0  0
   40.7090   34.4420   39.0320 C   0  0  0  0  0  0  0  0  0  0  0  0
   39.3240   34.4630   39.1680 C   0  0  0  0  0  0  0  0  0  0  0  0
   38.6720   33.7910   40.1510 C   0  0  0  0  0  0  0  0  0  0  0  0
   39.3880   33.0250   41.0840 C   0  0  0  0  0  0  0  0  0  0  0  0
   40.7470   33.0160   40.9360 C   0  0  0  0  0  0  0  0  0  0  0  0
   41.4380   33.6940   39.9780 C   0  0  0  0  0  0  0  0  0  0  0  0
   41.2970   31.7780   41.6280 C   0  0  0  0  0  0  0  0  0  0  0  0
   40.3870   31.2290   42.6670 C   0  0  0  0  0  0  0  0  0  0  0  0
   41.0950   30.6250   40.5090 C   0  0  0  0  0  0  0  0  0  0  0  0
   47.7010   32.9500   42.2599 H   0  0  0  0  0  0  0  0  0  0  0  0
   46.7068   31.7763   41.4832 H   0  0  0  0  0  0  0  0  0  0  0  0
   47.7462   34.4668   40.2941 H   0  0  0  0  0  0  0  0  0  0  0  0
   48.1425   32.9107   39.6530 H   0  0  0  0  0  0  0  0  0  0  0  0
   46.0183   34.1713   38.6261 H   0  0  0  0  0  0  0  0  0  0  0  0
   45.7513   32.4862   39.0280 H   0  0  0  0  0  0  0  0  0  0  0  0
   44.7195   34.9559   40.4334 H   0  0  0  0  0  0  0  0  0  0  0  0
   43.9509   36.9809   44.5214 H   0  0  0  0  0  0  0  0  0  0  0  0
   44.5165   36.1888   42.1700 H   0  0  0  0  0  0  0  0  0  0  0  0
   45.5568   33.5021   46.2923 H   0  0  0  0  0  0  0  0  0  0  0  0
   43.7386   34.9361   38.0979 H   0  0  0  0  0  0  0  0  0  0  0  0
   41.3735   35.6129   37.3722 H   0  0  0  0  0  0  0  0  0  0  0  0
   38.7328   35.0488   38.4487 H   0  0  0  0  0  0  0  0  0  0  0  0
   37.5754   33.8472   40.2167 H   0  0  0  0  0  0  0  0  0  0  0  0
   38.8855   32.4652   41.8866 H   0  0  0  0  0  0  0  0  0  0  0  0
   42.2910   32.0201   42.0323 H   0  0  0  0  0  0  0  0  0  0  0  0
   40.7833   31.4681   43.6649 H   0  0  0  0  0  0  0  0  0  0  0  0
   39.3882   31.6753   42.5525 H   0  0  0  0  0  0  0  0  0  0  0  0
   40.3161   30.1373   42.5525 H   0  0  0  0  0  0  0  0  0  0  0  0
   40.9256   29.6580   41.0053 H   0  0  0  0  0  0  0  0  0  0  0  0
   40.2264   30.8719   39.8808 H   0  0  0  0  0  0  0  0  0  0  0  0
   41.9958   30.5619   39.8808 H   0  0  0  0  0  0  0  0  0  0  0  0
  1  8  1  0
  2  1  1  0
  3  2  1  0
  4  3  1  0
  4  5  1  0
  5  1  1  0
  6 11  2  0
  7  6  1  0
  8  7  2  0
  8  9  1  0
  9 10  2  0
 10 11  1  0
 12  5  1  0
 13 21  1  0
 13 12  1  0
 14 13  2  0
 15 14  1  0
 15 16  1  0
 16 17  2  0
 16 21  1  0
 17 18  1  0
 18 19  2  0
 20 19  1  0
 20 22  1  0
 21 20  2  0
 22 23  1  0
 24 22  1  0
  2 25  1  0
  2 26  1  0
  3 27  1  0
  3 28  1  0
  4 29  1  0
  4 30  1  0
  5 31  1  6
  6 32  1  0
  7 33  1  0
 10 34  1  0
 14 35  1  0
 15 36  1  0
 17 37  1  0
 18 38  1  0
 19 39  1  0
 22 40  1  0
 23 41  1  0
 23 42  1  0
 23 43  1  0
 24 44  1  0
 24 45  1  0
 24 46  1  0
M  ISO  8  25  13  26  13  27  13  28  13  29  13  30  13  31  13  32  14
M  ISO  8  33  14  34  14  35  14  36   9  37  14  38  14  39  14  40   8
M  ISO  6  41   8  42   8  43   8  44   8  45   8  46   8
M  END
>  <minimizedAffinity>  (1) 
-5.9477458

>  <minimizedRMSD>  (1) 
1.77989006

$$$$
