
     RDKit          3D

 38 41  0  0  1  0  0  0  0  0999 V2000
   46.5280   34.2810   42.3420 N   0  0  0  0  0  0  0  0  0  0  0  0
   47.9010   33.7500   42.2140 C   0  0  0  0  0  0  0  0  0  0  0  0
   48.3230   34.4920   40.9740 C   0  0  0  0  0  0  0  0  0  0  0  0
   47.1500   34.1920   40.0870 C   0  0  0  0  0  0  0  0  0  0  0  0
   45.9500   34.3520   41.0320 C   0  0  1  0  0  0  0  0  0  0  0  0
   44.5220   36.1240   44.8630 C   0  0  0  0  0  0  0  0  0  0  0  0
   45.1570   35.8790   43.6220 C   0  0  0  0  0  0  0  0  0  0  0  0
   45.8750   34.6490   43.5270 C   0  0  0  0  0  0  0  0  0  0  0  0
   45.9110   33.7980   44.6130 N   0  0  0  0  0  0  0  0  0  0  0  0
   45.2790   34.0940   45.7830 C   0  0  0  0  0  0  0  0  0  0  0  0
   44.5910   35.2560   45.8930 N   0  0  0  0  0  0  0  0  0  0  0  0
   44.9670   33.3840   40.7910 O   0  0  0  0  0  0  0  0  0  0  0  0
   43.9910   33.6100   39.8140 C   0  0  0  0  0  0  0  0  0  0  0  0
   44.0450   33.3110   38.4330 C   0  0  0  0  0  0  0  0  0  0  0  0
   42.9200   33.6970   37.7910 N   0  0  0  0  0  0  0  0  0  0  0  0
   42.1010   34.2510   38.7140 C   0  0  0  0  0  0  0  0  0  0  0  0
   40.8620   34.8380   38.7040 C   0  0  0  0  0  0  0  0  0  0  0  0
   40.2600   35.3410   39.8200 C   0  0  0  0  0  0  0  0  0  0  0  0
   40.9010   35.2710   41.0510 C   0  0  0  0  0  0  0  0  0  0  0  0
   42.1390   34.6830   41.0510 C   0  0  0  0  0  0  0  0  0  0  0  0
   42.7670   34.1850   39.9520 C   0  0  0  0  0  0  0  0  0  0  0  0
   42.5660   34.6900   42.3310 O   0  0  0  0  0  0  0  0  0  0  0  0
   48.5258   34.0074   43.0819 H   0  0  0  0  0  0  0  0  0  0  0  0
   47.9825   32.6543   42.1616 H   0  0  0  0  0  0  0  0  0  0  0  0
   48.4307   35.5709   41.1593 H   0  0  0  0  0  0  0  0  0  0  0  0
   49.3020   34.1994   40.5666 H   0  0  0  0  0  0  0  0  0  0  0  0
   47.0933   34.9059   39.2521 H   0  0  0  0  0  0  0  0  0  0  0  0
   47.2036   33.1974   39.6202 H   0  0  0  0  0  0  0  0  0  0  0  0
   45.4089   35.2992   40.8903 H   0  0  0  0  0  0  0  0  0  0  0  0
   43.9518   37.0558   44.9921 H   0  0  0  0  0  0  0  0  0  0  0  0
   45.1008   36.5904   42.7849 H   0  0  0  0  0  0  0  0  0  0  0  0
   45.3269   33.3954   46.6313 H   0  0  0  0  0  0  0  0  0  0  0  0
   44.8993   32.8232   37.9407 H   0  0  0  0  0  0  0  0  0  0  0  0
   42.7230   33.5893   36.7858 H   0  0  0  0  0  0  0  0  0  0  0  0
   40.3255   34.9069   37.7462 H   0  0  0  0  0  0  0  0  0  0  0  0
   39.2646   35.8032   39.7453 H   0  0  0  0  0  0  0  0  0  0  0  0
   40.4423   35.6640   41.9703 H   0  0  0  0  0  0  0  0  0  0  0  0
   43.4500   34.3077   42.5600 H   0  0  0  0  0  0  0  0  0  0  0  0
  1  8  1  0
  2  1  1  0
  3  2  1  0
  4  3  1  0
  4  5  1  0
  5  1  1  0
  6 11  2  0
  7  6  1  0
  8  7  2  0
  8  9  1  0
  9 10  2  0
 10 11  1  0
 12  5  1  0
 13 21  1  0
 13 12  1  0
 14 13  2  0
 15 14  1  0
 15 16  1  0
 16 21  2  0
 17 16  1  0
 17 18  2  0
 18 19  1  0
 20 19  2  0
 20 22  1  0
 21 20  1  0
  2 23  1  0
  2 24  1  0
  3 25  1  0
  3 26  1  0
  4 27  1  0
  4 28  1  0
  5 29  1  6
  6 30  1  0
  7 31  1  0
 10 32  1  0
 14 33  1  0
 15 34  1  0
 17 35  1  0
 18 36  1  0
 19 37  1  0
 22 38  1  0
M  ISO  8  23  13  24  13  25  13  26  13  27  13  28  13  29  13  30  14
M  ISO  8  31  14  32  14  33  14  34   9  35  14  36  14  37  14  38   3
M  END
>  <minimizedAffinity>  (1) 
-6.43074512

>  <minimizedRMSD>  (1) 
0.332053691

$$$$
