
     RDKit          3D

 45 49  0  0  1  0  0  0  0  0999 V2000
   43.3920   33.3820   40.6790 O   0  0  0  0  0  0  0  0  0  0  0  0
   42.4080   33.8100   39.7710 C   0  0  0  0  0  0  0  0  0  0  0  0
   42.6240   34.4250   38.5000 C   0  0  0  0  0  0  0  0  0  0  0  0
   41.4510   34.7190   37.8880 N   0  0  0  0  0  0  0  0  0  0  0  0
   40.4620   34.3200   38.7110 C   0  0  0  0  0  0  0  0  0  0  0  0
   39.1000   34.3580   38.6740 C   0  0  0  0  0  0  0  0  0  0  0  0
   38.3080   33.8870   39.6880 C   0  0  0  0  0  0  0  0  0  0  0  0
   38.9040   33.3290   40.8310 C   0  0  0  0  0  0  0  0  0  0  0  0
   40.2800   33.2970   40.8490 C   0  0  0  0  0  0  0  0  0  0  0  0
   41.0630   33.7650   39.8540 C   0  0  0  0  0  0  0  0  0  0  0  0
   40.6210   32.7190   42.0190 O   0  0  0  0  0  0  0  0  0  0  0  0
   40.8680   31.3290   41.9940 C   0  0  0  0  0  0  0  0  0  0  0  0
   40.6450   30.0000   41.7460 C   0  0  0  0  0  0  0  0  0  0  0  0
   41.6590   29.2220   42.1590 N   0  0  0  0  0  0  0  0  0  0  0  0
   42.5860   30.0570   42.7000 C   0  0  0  0  0  0  0  0  0  0  0  0
   42.1020   31.3350   42.5980 N   0  0  0  0  0  0  0  0  0  0  0  0
   45.4480   33.7980   41.8110 N   0  0  0  0  0  0  0  0  0  0  0  0
   46.5530   32.8810   41.4480 C   0  0  0  0  0  0  0  0  0  0  0  0
   46.8860   33.4460   40.0990 C   0  0  0  0  0  0  0  0  0  0  0  0
   45.5080   33.4830   39.5060 C   0  0  0  0  0  0  0  0  0  0  0  0
   44.6430   34.0320   40.6700 C   0  0  1  0  0  0  0  0  0  0  0  0
   44.4330   36.0700   44.5590 C   0  0  0  0  0  0  0  0  0  0  0  0
   44.6480   35.6330   43.2340 C   0  0  0  0  0  0  0  0  0  0  0  0
   45.2100   34.3450   43.0760 C   0  0  0  0  0  0  0  0  0  0  0  0
   45.5090   33.6120   44.2110 N   0  0  0  0  0  0  0  0  0  0  0  0
   45.2810   34.0820   45.4650 C   0  0  0  0  0  0  0  0  0  0  0  0
   44.7450   35.3050   45.6260 N   0  0  0  0  0  0  0  0  0  0  0  0
   43.6159   34.6334   38.0725 H   0  0  0  0  0  0  0  0  0  0  0  0
   41.3371   35.1642   36.9662 H   0  0  0  0  0  0  0  0  0  0  0  0
   38.6127   34.7879   37.7865 H   0  0  0  0  0  0  0  0  0  0  0  0
   37.2125   33.9455   39.6075 H   0  0  0  0  0  0  0  0  0  0  0  0
   38.3038   32.9389   41.6662 H   0  0  0  0  0  0  0  0  0  0  0  0
   39.7361   29.6130   41.2622 H   0  0  0  0  0  0  0  0  0  0  0  0
   43.5496   29.7604   43.1398 H   0  0  0  0  0  0  0  0  0  0  0  0
   42.5928   32.1787   42.9269 H   0  0  0  0  0  0  0  0  0  0  0  0
   47.3986   32.9555   42.1475 H   0  0  0  0  0  0  0  0  0  0  0  0
   46.3064   31.8092   41.4665 H   0  0  0  0  0  0  0  0  0  0  0  0
   47.3297   34.4499   40.1716 H   0  0  0  0  0  0  0  0  0  0  0  0
   47.6314   32.8789   39.5222 H   0  0  0  0  0  0  0  0  0  0  0  0
   45.4702   34.1535   38.6348 H   0  0  0  0  0  0  0  0  0  0  0  0
   45.1680   32.5041   39.1371 H   0  0  0  0  0  0  0  0  0  0  0  0
   44.3829   35.0987   40.6030 H   0  0  0  0  0  0  0  0  0  0  0  0
   43.9972   37.0659   44.7271 H   0  0  0  0  0  0  0  0  0  0  0  0
   44.3915   36.2621   42.3689 H   0  0  0  0  0  0  0  0  0  0  0  0
   45.5327   33.4672   46.3418 H   0  0  0  0  0  0  0  0  0  0  0  0
  2 10  1  0
  2  1  1  0
  3  2  2  0
  4  3  1  0
  4  5  1  0
  5 10  2  0
  6  5  1  0
  6  7  2  0
  7  8  1  0
  8  9  2  0
  9 11  1  0
 10  9  1  0
 12 11  1  0
 12 16  1  0
 13 12  2  0
 13 14  1  0
 14 15  2  0
 16 15  1  0
 17 24  1  0
 18 17  1  0
 19 18  1  0
 20 19  1  0
 20 21  1  0
 21  1  1  0
 21 17  1  0
 22 27  2  0
 23 22  1  0
 24 23  2  0
 24 25  1  0
 25 26  2  0
 26 27  1  0
  3 28  1  0
  4 29  1  0
  6 30  1  0
  7 31  1  0
  8 32  1  0
 13 33  1  0
 15 34  1  0
 16 35  1  0
 18 36  1  0
 18 37  1  0
 19 38  1  0
 19 39  1  0
 20 40  1  0
 20 41  1  0
 21 42  1  6
 22 43  1  0
 23 44  1  0
 26 45  1  0
M  ISO  8  28  14  29   9  30  14  31  14  32  14  33  14  34  14  35   9
M  ISO  8  36  13  37  13  38  13  39  13  40  13  41  13  42  13  43  14
M  ISO  2  44  14  45  14
M  END
>  <minimizedAffinity>  (1) 
-6.39984703

>  <minimizedRMSD>  (1) 
2.06744599

$$$$
