
     RDKit          3D

 48 52  0  0  1  0  0  0  0  0999 V2000
   42.8020   33.2550   39.8680 C   0  0  0  0  0  0  0  0  0  0  0  0
   43.3800   33.7360   38.6540 C   0  0  0  0  0  0  0  0  0  0  0  0
   42.4620   34.3470   37.8750 N   0  0  0  0  0  0  0  0  0  0  0  0
   41.2900   34.2880   38.5290 C   0  0  0  0  0  0  0  0  0  0  0  0
   40.0150   34.7560   38.2920 C   0  0  0  0  0  0  0  0  0  0  0  0
   38.9840   34.5920   39.1780 C   0  0  0  0  0  0  0  0  0  0  0  0
   39.2080   33.9140   40.3900 C   0  0  0  0  0  0  0  0  0  0  0  0
   40.4820   33.4540   40.6020 C   0  0  0  0  0  0  0  0  0  0  0  0
   41.5040   33.6180   39.7400 C   0  0  0  0  0  0  0  0  0  0  0  0
   43.4560   32.5850   40.9090 O   0  0  0  0  0  0  0  0  0  0  0  0
   45.3040   32.8060   42.4040 N   0  0  0  0  0  0  0  0  0  0  0  0
   45.9890   31.5380   42.7240 C   0  0  0  0  0  0  0  0  0  0  0  0
   46.7310   31.3420   41.4440 C   0  0  0  0  0  0  0  0  0  0  0  0
   45.5930   31.5380   40.4730 C   0  0  0  0  0  0  0  0  0  0  0  0
   44.8500   32.7610   41.0620 C   0  0  1  0  0  0  0  0  0  0  0  0
   44.5830   36.1770   43.7710 C   0  0  0  0  0  0  0  0  0  0  0  0
   44.7830   35.1770   42.7920 C   0  0  0  0  0  0  0  0  0  0  0  0
   45.1070   33.8880   43.2700 C   0  0  0  0  0  0  0  0  0  0  0  0
   45.2060   33.6890   44.6420 N   0  0  0  0  0  0  0  0  0  0  0  0
   45.0020   34.6940   45.5340 C   0  0  0  0  0  0  0  0  0  0  0  0
   44.6930   35.9250   45.0920 N   0  0  0  0  0  0  0  0  0  0  0  0
   40.4320   32.8400   41.7960 O   0  0  0  0  0  0  0  0  0  0  0  0
   39.8540   31.5660   41.8780 C   0  0  0  0  0  0  0  0  0  0  0  0
   40.7750   30.9590   42.7760 C   0  0  0  0  0  0  0  0  0  0  0  0
   40.6730   29.6270   43.2230 C   0  0  0  0  0  0  0  0  0  0  0  0
   39.6330   28.8270   42.7880 C   0  0  0  0  0  0  0  0  0  0  0  0
   38.7350   29.3930   41.9220 C   0  0  0  0  0  0  0  0  0  0  0  0
   38.8740   30.6840   41.5180 C   0  0  0  0  0  0  0  0  0  0  0  0
   44.4410   33.6228   38.3868 H   0  0  0  0  0  0  0  0  0  0  0  0
   42.6286   34.7769   36.9539 H   0  0  0  0  0  0  0  0  0  0  0  0
   39.8170   35.2852   37.3482 H   0  0  0  0  0  0  0  0  0  0  0  0
   37.9852   34.9886   38.9431 H   0  0  0  0  0  0  0  0  0  0  0  0
   38.4056   33.7614   41.1267 H   0  0  0  0  0  0  0  0  0  0  0  0
   46.6686   31.6420   43.5826 H   0  0  0  0  0  0  0  0  0  0  0  0
   45.3314   30.7076   43.0208 H   0  0  0  0  0  0  0  0  0  0  0  0
   47.5224   32.0937   41.3078 H   0  0  0  0  0  0  0  0  0  0  0  0
   47.2689   30.3868   41.3528 H   0  0  0  0  0  0  0  0  0  0  0  0
   44.9398   30.6534   40.4437 H   0  0  0  0  0  0  0  0  0  0  0  0
   45.9256   31.6876   39.4352 H   0  0  0  0  0  0  0  0  0  0  0  0
   45.0520   33.7209   40.5643 H   0  0  0  0  0  0  0  0  0  0  0  0
   44.3288   37.1962   43.4444 H   0  0  0  0  0  0  0  0  0  0  0  0
   44.6913   35.3910   41.7169 H   0  0  0  0  0  0  0  0  0  0  0  0
   45.0895   34.5006   46.6133 H   0  0  0  0  0  0  0  0  0  0  0  0
   41.6163   31.5653   43.1430 H   0  0  0  0  0  0  0  0  0  0  0  0
   41.4223   29.2228   43.9195 H   0  0  0  0  0  0  0  0  0  0  0  0
   39.5311   27.7839   43.1219 H   0  0  0  0  0  0  0  0  0  0  0  0
   37.8904   28.7953   41.5485 H   0  0  0  0  0  0  0  0  0  0  0  0
   38.1105   31.0616   40.8220 H   0  0  0  0  0  0  0  0  0  0  0  0
  1 10  1  0
  2  1  2  0
  3  4  1  0
  3  2  1  0
  4  9  2  0
  5  4  1  0
  5  6  2  0
  6  7  1  0
  7  8  2  0
  8 22  1  0
  9  1  1  0
  9  8  1  0
 10 15  1  0
 11 12  1  0
 11 18  1  0
 13 12  1  0
 14 15  1  0
 14 13  1  0
 15 11  1  0
 16 21  2  0
 17 18  2  0
 17 16  1  0
 18 19  1  0
 19 20  2  0
 21 20  1  0
 22 23  1  0
 23 24  2  0
 24 25  1  0
 26 25  2  0
 27 26  1  0
 28 23  1  0
 28 27  2  0
  2 29  1  0
  3 30  1  0
  5 31  1  0
  6 32  1  0
  7 33  1  0
 12 34  1  0
 12 35  1  0
 13 36  1  0
 13 37  1  0
 14 38  1  0
 14 39  1  0
 15 40  1  6
 16 41  1  0
 17 42  1  0
 20 43  1  0
 24 44  1  0
 25 45  1  0
 26 46  1  0
 27 47  1  0
 28 48  1  0
M  ISO  8  29  14  30   9  31  14  32  14  33  14  34  13  35  13  36  13
M  ISO  8  37  13  38  13  39  13  40  13  41  14  42  14  43  14  44  14
M  ISO  4  45  14  46  14  47  14  48  14
M  END
>  <minimizedAffinity>  (1) 
-6.09173298

>  <minimizedRMSD>  (1) 
2.63394046

$$$$
