
     RDKit          3D

 31 32  0  0  1  0  0  0  0  0999 V2000
   44.5070   35.5720   43.2680 C   0  0  1  0  0  0  0  0  0  0  0  0
   45.3300   34.6290   44.0770 C   0  0  0  0  0  0  0  0  0  0  0  0
   46.4090   34.0260   43.3990 C   0  0  0  0  0  0  0  0  0  0  0  0
   47.2250   33.1280   44.1040 C   0  0  0  0  0  0  0  0  0  0  0  0
   46.9230   32.8920   45.4180 N   0  0  0  0  0  0  0  0  0  0  0  0
   45.8790   33.4880   46.0360 C   0  0  0  0  0  0  0  0  0  0  0  0
   45.0900   34.3500   45.3660 N   0  0  0  0  0  0  0  0  0  0  0  0
   45.1120   36.9610   43.2320 C   0  0  0  0  0  0  0  0  0  0  0  0
   44.2640   35.0290   41.8790 C   0  0  0  0  0  0  0  0  0  0  0  0
   43.1340   35.5890   41.2070 N   0  0  0  0  0  0  0  0  0  0  0  0
   41.8680   35.3420   41.8150 C   0  0  0  0  0  0  0  0  0  0  0  0
   40.9260   35.8040   40.7070 C   0  0  0  0  0  0  0  0  0  0  0  0
   41.6480   35.3210   39.4660 C   0  0  0  0  0  0  0  0  0  0  0  0
   42.9930   34.8390   39.9620 C   0  0  0  0  0  0  0  0  0  0  0  0
   43.5291   35.6655   43.7629 H   0  0  0  0  0  0  0  0  0  0  0  0
   46.6068   34.2543   42.3413 H   0  0  0  0  0  0  0  0  0  0  0  0
   48.0774   32.6312   43.6177 H   0  0  0  0  0  0  0  0  0  0  0  0
   45.6722   33.2675   47.0937 H   0  0  0  0  0  0  0  0  0  0  0  0
   45.2682   37.3197   44.2601 H   0  0  0  0  0  0  0  0  0  0  0  0
   46.0769   36.9271   42.7049 H   0  0  0  0  0  0  0  0  0  0  0  0
   44.4300   37.6444   42.7049 H   0  0  0  0  0  0  0  0  0  0  0  0
   45.1584   35.2306   41.2712 H   0  0  0  0  0  0  0  0  0  0  0  0
   44.0537   33.9559   41.9979 H   0  0  0  0  0  0  0  0  0  0  0  0
   41.7303   34.2752   42.0452 H   0  0  0  0  0  0  0  0  0  0  0  0
   41.7192   35.8475   42.7806 H   0  0  0  0  0  0  0  0  0  0  0  0
   39.9354   35.3354   40.8021 H   0  0  0  0  0  0  0  0  0  0  0  0
   40.7263   36.8857   40.7139 H   0  0  0  0  0  0  0  0  0  0  0  0
   41.7728   36.1432   38.7461 H   0  0  0  0  0  0  0  0  0  0  0  0
   41.0907   34.5291   38.9441 H   0  0  0  0  0  0  0  0  0  0  0  0
   42.9878   33.7544   40.1454 H   0  0  0  0  0  0  0  0  0  0  0  0
   43.8155   34.9975   39.2490 H   0  0  0  0  0  0  0  0  0  0  0  0
  1  2  1  0
  2  7  1  0
  3  2  2  0
  3  4  1  0
  4  5  2  0
  5  6  1  0
  7  6  2  0
  8  1  1  0
  9  1  1  0
 10 11  1  0
 10  9  1  0
 12 11  1  0
 13 14  1  0
 13 12  1  0
 14 10  1  0
  1 15  1  1
  3 16  1  0
  4 17  1  0
  6 18  1  0
  8 19  1  0
  8 20  1  0
  8 21  1  0
  9 22  1  0
  9 23  1  0
 11 24  1  0
 11 25  1  0
 12 26  1  0
 12 27  1  0
 13 28  1  0
 13 29  1  0
 14 30  1  0
 14 31  1  0
M  ISO  8  15   8  16  14  17  14  18  14  19   8  20   8  21   8  22   8
M  ISO  8  23   8  24  13  25  13  26  13  27  13  28  13  29  13  30  13
M  ISO  1  31  13
M  END
>  <minimizedAffinity>  (1) 
-4.09654713

>  <minimizedRMSD>  (1) 
0.749611795

$$$$
