
     RDKit          3D

 26 27  0  0  1  0  0  0  0  0999 V2000
   44.5500   35.5860   43.1950 C   0  0  1  0  0  0  0  0  0  0  0  0
   45.3370   34.6440   44.0380 C   0  0  0  0  0  0  0  0  0  0  0  0
   46.4330   34.0130   43.3790 C   0  0  0  0  0  0  0  0  0  0  0  0
   47.2300   33.1190   44.1000 C   0  0  0  0  0  0  0  0  0  0  0  0
   46.8950   32.9100   45.4160 N   0  0  0  0  0  0  0  0  0  0  0  0
   45.8440   33.5300   46.0070 C   0  0  0  0  0  0  0  0  0  0  0  0
   45.0860   34.3790   45.3220 N   0  0  0  0  0  0  0  0  0  0  0  0
   45.1090   36.9900   43.2410 C   0  0  0  0  0  0  0  0  0  0  0  0
   44.4270   35.0920   41.7660 C   0  0  0  0  0  0  0  0  0  0  0  0
   43.0830   35.2370   41.2890 N   0  0  0  0  0  0  0  0  0  0  0  0
   41.9820   35.4860   41.9690 N   0  0  0  0  0  0  0  0  0  0  0  0
   40.9130   35.5490   41.1540 C   0  0  0  0  0  0  0  0  0  0  0  0
   41.3540   35.3260   39.8620 C   0  0  0  0  0  0  0  0  0  0  0  0
   42.7330   35.1300   39.9730 C   0  0  0  0  0  0  0  0  0  0  0  0
   43.5374   35.6227   43.6231 H   0  0  0  0  0  0  0  0  0  0  0  0
   46.6476   34.2261   42.3214 H   0  0  0  0  0  0  0  0  0  0  0  0
   48.0854   32.6068   43.6354 H   0  0  0  0  0  0  0  0  0  0  0  0
   45.6168   33.3280   47.0641 H   0  0  0  0  0  0  0  0  0  0  0  0
   45.2329   37.3012   44.2888 H   0  0  0  0  0  0  0  0  0  0  0  0
   46.0848   37.0129   42.7339 H   0  0  0  0  0  0  0  0  0  0  0  0
   44.4160   37.6774   42.7339 H   0  0  0  0  0  0  0  0  0  0  0  0
   45.1023   35.6762   41.1235 H   0  0  0  0  0  0  0  0  0  0  0  0
   44.6970   34.0260   41.7380 H   0  0  0  0  0  0  0  0  0  0  0  0
   39.8745   35.7431   41.4604 H   0  0  0  0  0  0  0  0  0  0  0  0
   40.7486   35.3070   38.9437 H   0  0  0  0  0  0  0  0  0  0  0  0
   43.4214   34.9240   39.1401 H   0  0  0  0  0  0  0  0  0  0  0  0
  1  8  1  0
  1  2  1  0
  2  7  1  0
  3  2  2  0
  3  4  1  0
  4  5  2  0
  5  6  1  0
  7  6  2  0
  9  1  1  0
 10  9  1  0
 10 11  1  0
 12 11  2  0
 13 14  2  0
 13 12  1  0
 14 10  1  0
  1 15  1  1
  3 16  1  0
  4 17  1  0
  6 18  1  0
  8 19  1  0
  8 20  1  0
  8 21  1  0
  9 22  1  0
  9 23  1  0
 12 24  1  0
 13 25  1  0
 14 26  1  0
M  ISO  8  15   8  16  14  17  14  18  14  19   8  20   8  21   8  22   8
M  ISO  4  23   8  24  14  25  14  26  14
M  END
>  <minimizedAffinity>  (1) 
-3.9940331

>  <minimizedRMSD>  (1) 
1.73626459

$$$$
