
     RDKit          3D

 42 44  0  0  1  0  0  0  0  0999 V2000
   42.5960   34.4620   40.7510 N   0  0  0  0  0  0  0  0  0  0  0  0
   42.6850   34.9550   39.4370 C   0  0  0  0  0  0  0  0  0  0  0  0
   41.3890   35.1340   38.7320 C   0  0  0  0  0  0  0  0  0  0  0  0
   40.4700   36.0360   39.4900 C   0  0  0  0  0  0  0  0  0  0  0  0
   40.5010   35.7510   40.9320 C   0  0  0  0  0  0  0  0  0  0  0  0
   41.3000   34.5590   41.3440 C   0  0  1  0  0  0  0  0  0  0  0  0
   40.5430   33.2810   41.3840 C   0  0  0  0  0  0  0  0  0  0  0  0
   39.1940   33.1960   41.0120 C   0  0  0  0  0  0  0  0  0  0  0  0
   38.4490   32.0360   41.0320 C   0  0  0  0  0  0  0  0  0  0  0  0
   39.0460   30.8980   41.4340 N   0  0  0  0  0  0  0  0  0  0  0  0
   40.3390   30.9500   41.7960 C   0  0  0  0  0  0  0  0  0  0  0  0
   41.0240   32.0820   41.7650 N   0  0  0  0  0  0  0  0  0  0  0  0
   43.6690   34.8070   41.6460 C   0  0  0  0  0  0  0  0  0  0  0  0
   44.6500   33.6300   41.6420 C   0  0  1  0  0  0  0  0  0  0  0  0
   46.0090   34.0930   41.2470 C   0  0  0  0  0  0  0  0  0  0  0  0
   46.7040   34.8680   42.2180 C   0  0  0  0  0  0  0  0  0  0  0  0
   47.9830   35.3440   41.9080 C   0  0  0  0  0  0  0  0  0  0  0  0
   48.4740   35.0180   40.6610 N   0  0  0  0  0  0  0  0  0  0  0  0
   47.7860   34.2840   39.7750 C   0  0  0  0  0  0  0  0  0  0  0  0
   46.5520   33.8170   40.0550 N   0  0  0  0  0  0  0  0  0  0  0  0
   44.6310   32.8970   42.9440 C   0  0  0  0  0  0  0  0  0  0  0  0
   43.1880   35.9325   39.4751 H   0  0  0  0  0  0  0  0  0  0  0  0
   43.2372   34.1943   38.8657 H   0  0  0  0  0  0  0  0  0  0  0  0
   41.5794   35.5702   37.7403 H   0  0  0  0  0  0  0  0  0  0  0  0
   40.9074   34.1491   38.6423 H   0  0  0  0  0  0  0  0  0  0  0  0
   40.7775   37.0792   39.3255 H   0  0  0  0  0  0  0  0  0  0  0  0
   39.4453   35.8671   39.1275 H   0  0  0  0  0  0  0  0  0  0  0  0
   40.9218   36.6310   41.4405 H   0  0  0  0  0  0  0  0  0  0  0  0
   39.4619   35.5245   41.2131 H   0  0  0  0  0  0  0  0  0  0  0  0
   41.5189   34.7654   42.4021 H   0  0  0  0  0  0  0  0  0  0  0  0
   38.6952   34.1189   40.6812 H   0  0  0  0  0  0  0  0  0  0  0  0
   37.3922   32.0401   40.7268 H   0  0  0  0  0  0  0  0  0  0  0  0
   40.8408   30.0286   42.1264 H   0  0  0  0  0  0  0  0  0  0  0  0
   44.1731   35.7204   41.2973 H   0  0  0  0  0  0  0  0  0  0  0  0
   43.2887   34.9982   42.6603 H   0  0  0  0  0  0  0  0  0  0  0  0
   44.3274   32.8990   40.8860 H   0  0  0  0  0  0  0  0  0  0  0  0
   46.2447   35.0884   43.1929 H   0  0  0  0  0  0  0  0  0  0  0  0
   48.5656   35.9460   42.6208 H   0  0  0  0  0  0  0  0  0  0  0  0
   48.2379   34.0576   38.7980 H   0  0  0  0  0  0  0  0  0  0  0  0
   44.6498   33.6205   43.7724 H   0  0  0  0  0  0  0  0  0  0  0  0
   43.7168   32.2887   43.0090 H   0  0  0  0  0  0  0  0  0  0  0  0
   45.5125   32.2422   43.0090 H   0  0  0  0  0  0  0  0  0  0  0  0
  1  6  1  0
  1 13  1  0
  2  1  1  0
  3  2  1  0
  3  4  1  0
  4  5  1  0
  5  6  1  0
  6  7  1  0
  7 12  2  0
  8  9  2  0
  8  7  1  0
  9 10  1  0
 10 11  2  0
 12 11  1  0
 14 13  1  0
 14 21  1  0
 15 14  1  0
 15 16  2  0
 17 16  1  0
 18 17  2  0
 19 20  2  0
 19 18  1  0
 20 15  1  0
  2 22  1  0
  2 23  1  0
  3 24  1  0
  3 25  1  0
  4 26  1  0
  4 27  1  0
  5 28  1  0
  5 29  1  0
  6 30  1  1
  8 31  1  0
  9 32  1  0
 11 33  1  0
 13 34  1  0
 13 35  1  0
 14 36  1  6
 16 37  1  0
 17 38  1  0
 19 39  1  0
 21 40  1  0
 21 41  1  0
 21 42  1  0
M  ISO  8  22  13  23  13  24  13  25  13  26  13  27  13  28  13  29  13
M  ISO  8  30  13  31  14  32  14  33  14  34   8  35   8  36   8  37  14
M  ISO  5  38  14  39  14  40   8  41   8  42   8
M  END
>  <minimizedAffinity>  (1) 
-5.471241

>  <minimizedRMSD>  (1) 
1.9141382

$$$$
