
     RDKit          3D

 47 49  0  0  1  0  0  0  0  0999 V2000
   42.6150   34.8520   40.7750 N   0  0  0  0  0  0  0  0  0  0  0  0
   42.8330   34.7840   39.3720 C   0  0  0  0  0  0  0  0  0  0  0  0
   41.6020   34.5900   38.5560 C   0  0  0  0  0  0  0  0  0  0  0  0
   40.6250   35.6990   38.7830 C   0  0  0  0  0  0  0  0  0  0  0  0
   40.5260   36.0650   40.2120 C   0  0  0  0  0  0  0  0  0  0  0  0
   41.2820   35.1470   41.1380 C   0  0  1  0  0  0  0  0  0  0  0  0
   40.5410   33.9270   41.5230 C   0  0  0  0  0  0  0  0  0  0  0  0
   39.3160   33.6220   40.6900 C   0  0  0  0  0  0  0  0  0  0  0  0
   38.9270   32.2740   41.3160 C   0  0  0  0  0  0  0  0  0  0  0  0
   40.2520   31.5980   41.5670 C   0  0  0  0  0  0  0  0  0  0  0  0
   41.3200   32.6440   41.3120 C   0  0  0  0  0  0  0  0  0  0  0  0
   43.6140   35.6410   41.4880 C   0  0  0  0  0  0  0  0  0  0  0  0
   44.5040   34.6210   42.2110 C   0  0  1  0  0  0  0  0  0  0  0  0
   45.8530   34.5740   41.5680 C   0  0  0  0  0  0  0  0  0  0  0  0
   46.9010   35.2470   42.2550 C   0  0  0  0  0  0  0  0  0  0  0  0
   48.1770   35.2560   41.7160 C   0  0  0  0  0  0  0  0  0  0  0  0
   48.3430   34.5940   40.5200 N   0  0  0  0  0  0  0  0  0  0  0  0
   47.3320   33.9640   39.8900 C   0  0  0  0  0  0  0  0  0  0  0  0
   46.0830   33.9490   40.4070 N   0  0  0  0  0  0  0  0  0  0  0  0
   44.5700   34.9290   43.6740 C   0  0  0  0  0  0  0  0  0  0  0  0
   43.3095   35.7231   39.0541 H   0  0  0  0  0  0  0  0  0  0  0  0
   43.4611   33.8976   39.1994 H   0  0  0  0  0  0  0  0  0  0  0  0
   41.1327   33.6351   38.8352 H   0  0  0  0  0  0  0  0  0  0  0  0
   41.8847   34.5858   37.4930 H   0  0  0  0  0  0  0  0  0  0  0  0
   40.9500   36.5812   38.2120 H   0  0  0  0  0  0  0  0  0  0  0  0
   39.6349   35.3533   38.4511 H   0  0  0  0  0  0  0  0  0  0  0  0
   40.9230   37.0834   40.3357 H   0  0  0  0  0  0  0  0  0  0  0  0
   39.4636   35.9859   40.4860 H   0  0  0  0  0  0  0  0  0  0  0  0
   41.3692   35.7732   42.0382 H   0  0  0  0  0  0  0  0  0  0  0  0
   40.3147   34.1728   42.5710 H   0  0  0  0  0  0  0  0  0  0  0  0
   39.5578   33.5256   39.6213 H   0  0  0  0  0  0  0  0  0  0  0  0
   38.5316   34.3930   40.7035 H   0  0  0  0  0  0  0  0  0  0  0  0
   38.3785   32.4230   42.2578 H   0  0  0  0  0  0  0  0  0  0  0  0
   38.2626   31.6811   40.6703 H   0  0  0  0  0  0  0  0  0  0  0  0
   40.3073   31.2431   42.6067 H   0  0  0  0  0  0  0  0  0  0  0  0
   40.3847   30.7240   40.9124 H   0  0  0  0  0  0  0  0  0  0  0  0
   41.7126   32.5760   40.2867 H   0  0  0  0  0  0  0  0  0  0  0  0
   42.2069   32.5462   41.9553 H   0  0  0  0  0  0  0  0  0  0  0  0
   44.2092   36.2371   40.7807 H   0  0  0  0  0  0  0  0  0  0  0  0
   43.1493   36.3475   42.1915 H   0  0  0  0  0  0  0  0  0  0  0  0
   44.0653   33.6164   42.1195 H   0  0  0  0  0  0  0  0  0  0  0  0
   46.6994   35.7572   43.2085 H   0  0  0  0  0  0  0  0  0  0  0  0
   49.0136   35.7651   42.2169 H   0  0  0  0  0  0  0  0  0  0  0  0
   47.5269   33.4518   38.9362 H   0  0  0  0  0  0  0  0  0  0  0  0
   44.3737   34.0131   44.2507 H   0  0  0  0  0  0  0  0  0  0  0  0
   45.5706   35.3120   43.9233 H   0  0  0  0  0  0  0  0  0  0  0  0
   43.8142   35.6883   43.9233 H   0  0  0  0  0  0  0  0  0  0  0  0
  1  6  1  0
  1 12  1  0
  2  1  1  0
  3  4  1  0
  3  2  1  0
  4  5  1  0
  5  6  1  0
  6  7  1  0
  8  9  1  0
  8  7  1  0
  9 10  1  0
 11  7  1  0
 11 10  1  0
 12 13  1  0
 13 20  1  0
 14 13  1  0
 14 15  2  0
 16 15  1  0
 17 16  2  0
 18 19  2  0
 18 17  1  0
 19 14  1  0
  2 21  1  0
  2 22  1  0
  3 23  1  0
  3 24  1  0
  4 25  1  0
  4 26  1  0
  5 27  1  0
  5 28  1  0
  6 29  1  1
  7 30  1  0
  8 31  1  0
  8 32  1  0
  9 33  1  0
  9 34  1  0
 10 35  1  0
 10 36  1  0
 11 37  1  0
 11 38  1  0
 12 39  1  0
 12 40  1  0
 13 41  1  1
 15 42  1  0
 16 43  1  0
 18 44  1  0
 20 45  1  0
 20 46  1  0
 20 47  1  0
M  ISO  8  21  13  22  13  23  13  24  13  25  13  26  13  27  13  28  13
M  ISO  8  29  13  30  13  31  13  32  13  33  13  34  13  35  13  36  13
M  ISO  8  37  13  38  13  39   8  40   8  41   8  42  14  43  14  44  14
M  ISO  3  45   8  46   8  47   8
M  END
>  <minimizedAffinity>  (1) 
-5.45974159

>  <minimizedRMSD>  (1) 
1.0236938

$$$$
