
     RDKit          3D

 37 38  0  0  1  0  0  0  0  0999 V2000
   42.2910   33.9590   39.9740 N   0  0  0  0  0  0  0  0  0  0  0  0
   42.2950   33.2450   38.7370 C   0  0  0  0  0  0  0  0  0  0  0  0
   40.9510   33.0840   38.1000 C   0  0  0  0  0  0  0  0  0  0  0  0
   40.3490   34.4360   37.8340 C   0  0  0  0  0  0  0  0  0  0  0  0
   40.5310   35.3510   39.0150 C   0  0  0  0  0  0  0  0  0  0  0  0
   41.0650   34.5620   40.2130 C   0  0  2  0  0  0  0  0  0  0  0  0
   40.7820   35.3410   41.4230 C   0  0  0  0  0  0  0  0  0  0  0  0
   42.0500   35.5790   41.9950 F   0  0  0  0  0  0  0  0  0  0  0  0
   40.3540   36.6480   41.1550 F   0  0  0  0  0  0  0  0  0  0  0  0
   40.0940   34.7310   42.4240 F   0  0  0  0  0  0  0  0  0  0  0  0
   43.5200   34.5860   40.3140 C   0  0  0  0  0  0  0  0  0  0  0  0
   44.4930   33.4910   40.7650 C   0  0  1  0  0  0  0  0  0  0  0  0
   45.8920   33.9980   40.7990 C   0  0  0  0  0  0  0  0  0  0  0  0
   46.2810   34.7000   41.9780 C   0  0  0  0  0  0  0  0  0  0  0  0
   47.5670   35.2010   42.0520 C   0  0  0  0  0  0  0  0  0  0  0  0
   48.3900   34.9860   40.9750 N   0  0  0  0  0  0  0  0  0  0  0  0
   48.0050   34.3260   39.8830 C   0  0  0  0  0  0  0  0  0  0  0  0
   46.7570   33.8270   39.7820 N   0  0  0  0  0  0  0  0  0  0  0  0
   44.0450   32.9690   42.0940 C   0  0  0  0  0  0  0  0  0  0  0  0
   42.9448   33.7849   38.0326 H   0  0  0  0  0  0  0  0  0  0  0  0
   42.6517   32.2302   38.9669 H   0  0  0  0  0  0  0  0  0  0  0  0
   41.0596   32.5393   37.1505 H   0  0  0  0  0  0  0  0  0  0  0  0
   40.2929   32.5199   38.7773 H   0  0  0  0  0  0  0  0  0  0  0  0
   40.8391   34.8811   36.9556 H   0  0  0  0  0  0  0  0  0  0  0  0
   39.2715   34.3095   37.6523 H   0  0  0  0  0  0  0  0  0  0  0  0
   41.2464   36.1447   38.7537 H   0  0  0  0  0  0  0  0  0  0  0  0
   39.5602   35.7953   39.2798 H   0  0  0  0  0  0  0  0  0  0  0  0
   40.5372   33.6180   40.4135 H   0  0  0  0  0  0  0  0  0  0  0  0
   43.9275   35.1115   39.4377 H   0  0  0  0  0  0  0  0  0  0  0  0
   43.3678   35.3211   41.1181 H   0  0  0  0  0  0  0  0  0  0  0  0
   44.4863   32.6624   40.0415 H   0  0  0  0  0  0  0  0  0  0  0  0
   45.5740   34.8394   42.8091 H   0  0  0  0  0  0  0  0  0  0  0  0
   47.9168   35.7501   42.9386 H   0  0  0  0  0  0  0  0  0  0  0  0
   48.7145   34.1868   39.0540 H   0  0  0  0  0  0  0  0  0  0  0  0
   44.5351   33.5400   42.8964 H   0  0  0  0  0  0  0  0  0  0  0  0
   42.9538   33.0766   42.1813 H   0  0  0  0  0  0  0  0  0  0  0  0
   44.3169   31.9067   42.1813 H   0  0  0  0  0  0  0  0  0  0  0  0
  1  6  1  0
  1 11  1  0
  2  1  1  0
  3  2  1  0
  4  3  1  0
  4  5  1  0
  5  6  1  0
  6  7  1  0
  7  8  1  0
  7 10  1  0
  9  7  1  0
 11 12  1  0
 12 13  1  0
 12 19  1  0
 13 14  2  0
 14 15  1  0
 16 15  2  0
 17 16  1  0
 18 17  2  0
 18 13  1  0
  2 20  1  0
  2 21  1  0
  3 22  1  0
  3 23  1  0
  4 24  1  0
  4 25  1  0
  5 26  1  0
  5 27  1  0
  6 28  1  1
 11 29  1  0
 11 30  1  0
 12 31  1  6
 14 32  1  0
 15 33  1  0
 17 34  1  0
 19 35  1  0
 19 36  1  0
 19 37  1  0
M  ISO  8  20  13  21  13  22  13  23  13  24  13  25  13  26  13  27  13
M  ISO  8  28  13  29   8  30   8  31   8  32  14  33  14  34  14  35   8
M  ISO  2  36   8  37   8
M  END
>  <minimizedAffinity>  (1) 
-5.14865446

>  <minimizedRMSD>  (1) 
1.64524078

$$$$
