
     RDKit          3D

 40 42  0  0  1  0  0  0  0  0999 V2000
   42.1050   33.8030   39.9400 N   0  0  0  0  0  0  0  0  0  0  0  0
   42.1930   35.1170   39.4390 C   0  0  0  0  0  0  0  0  0  0  0  0
   40.8630   35.7610   39.1470 C   0  0  0  0  0  0  0  0  0  0  0  0
   40.0830   35.8580   40.4290 C   0  0  0  0  0  0  0  0  0  0  0  0
   40.1480   34.5670   41.1970 C   0  0  0  0  0  0  0  0  0  0  0  0
   40.8020   33.4690   40.3730 C   0  0  2  0  0  0  0  0  0  0  0  0
   40.6100   32.1890   40.9600 N   0  0  0  0  0  0  0  0  0  0  0  0
   40.6290   30.9640   40.3560 C   0  0  0  0  0  0  0  0  0  0  0  0
   40.4060   29.9520   41.2230 N   0  0  0  0  0  0  0  0  0  0  0  0
   40.2410   30.5600   42.4070 C   0  0  0  0  0  0  0  0  0  0  0  0
   40.3620   31.8780   42.2410 N   0  0  0  0  0  0  0  0  0  0  0  0
   43.2210   33.3290   40.6940 C   0  0  0  0  0  0  0  0  0  0  0  0
   44.4710   33.5050   39.8270 C   0  0  1  0  0  0  0  0  0  0  0  0
   45.5940   34.0800   40.6210 C   0  0  0  0  0  0  0  0  0  0  0  0
   45.2450   34.6870   41.8650 C   0  0  0  0  0  0  0  0  0  0  0  0
   46.2560   35.2470   42.6310 C   0  0  0  0  0  0  0  0  0  0  0  0
   47.5360   35.1740   42.1280 N   0  0  0  0  0  0  0  0  0  0  0  0
   47.8310   34.5990   40.9620 C   0  0  0  0  0  0  0  0  0  0  0  0
   46.8720   34.0480   40.1990 N   0  0  0  0  0  0  0  0  0  0  0  0
   44.8280   32.1940   39.1970 C   0  0  0  0  0  0  0  0  0  0  0  0
   42.7185   35.7344   40.1824 H   0  0  0  0  0  0  0  0  0  0  0  0
   42.7283   35.0527   38.4802 H   0  0  0  0  0  0  0  0  0  0  0  0
   41.0220   36.7678   38.7333 H   0  0  0  0  0  0  0  0  0  0  0  0
   40.3069   35.1575   38.4145 H   0  0  0  0  0  0  0  0  0  0  0  0
   40.5038   36.6655   41.0461 H   0  0  0  0  0  0  0  0  0  0  0  0
   39.0313   36.0685   40.1848 H   0  0  0  0  0  0  0  0  0  0  0  0
   40.7341   34.7245   42.1144 H   0  0  0  0  0  0  0  0  0  0  0  0
   39.1218   34.2549   41.4410 H   0  0  0  0  0  0  0  0  0  0  0  0
   40.2732   33.3834   39.4122 H   0  0  0  0  0  0  0  0  0  0  0  0
   40.8066   30.8173   39.2804 H   0  0  0  0  0  0  0  0  0  0  0  0
   40.0384   30.0530   43.3619 H   0  0  0  0  0  0  0  0  0  0  0  0
   43.3222   33.9117   41.6215 H   0  0  0  0  0  0  0  0  0  0  0  0
   43.0839   32.2719   40.9657 H   0  0  0  0  0  0  0  0  0  0  0  0
   44.2624   34.2237   39.0208 H   0  0  0  0  0  0  0  0  0  0  0  0
   44.1999   34.7099   42.2074 H   0  0  0  0  0  0  0  0  0  0  0  0
   46.0451   35.7282   43.5974 H   0  0  0  0  0  0  0  0  0  0  0  0
   48.8759   34.5753   40.6191 H   0  0  0  0  0  0  0  0  0  0  0  0
   45.0300   31.4521   39.9836 H   0  0  0  0  0  0  0  0  0  0  0  0
   43.9915   31.8475   38.5723 H   0  0  0  0  0  0  0  0  0  0  0  0
   45.7247   32.3195   38.5723 H   0  0  0  0  0  0  0  0  0  0  0  0
  1  6  1  0
  1 12  1  0
  2  1  1  0
  3  2  1  0
  3  4  1  0
  4  5  1  0
  6  7  1  0
  6  5  1  0
  7 11  1  0
  8  7  1  0
  8  9  2  0
  9 10  1  0
 11 10  2  0
 13 14  1  0
 13 12  1  0
 14 15  2  0
 15 16  1  0
 17 16  2  0
 18 17  1  0
 19 14  1  0
 19 18  2  0
 20 13  1  0
  2 21  1  0
  2 22  1  0
  3 23  1  0
  3 24  1  0
  4 25  1  0
  4 26  1  0
  5 27  1  0
  5 28  1  0
  6 29  1  6
  8 30  1  0
 10 31  1  0
 12 32  1  0
 12 33  1  0
 13 34  1  6
 15 35  1  0
 16 36  1  0
 18 37  1  0
 20 38  1  0
 20 39  1  0
 20 40  1  0
M  ISO  8  21  13  22  13  23  13  24  13  25  13  26  13  27  13  28  13
M  ISO  8  29  13  30  14  31  14  32   8  33   8  34   8  35  14  36  14
M  ISO  4  37  14  38   8  39   8  40   8
M  END
>  <minimizedAffinity>  (1) 
-4.74359083

>  <minimizedRMSD>  (1) 
3.71242905

$$$$
