
     RDKit          3D

 37 38  0  0  1  0  0  0  0  0999 V2000
   43.4910   35.7280   41.3220 C   0  0  0  0  0  0  0  0  0  0  0  0
   42.4260   34.8890   40.8370 N   0  0  0  0  0  0  0  0  0  0  0  0
   42.5430   34.4190   39.5140 C   0  0  0  0  0  0  0  0  0  0  0  0
   41.2400   34.0860   38.8530 C   0  0  0  0  0  0  0  0  0  0  0  0
   40.3760   35.3000   38.7850 C   0  0  0  0  0  0  0  0  0  0  0  0
   40.3550   36.0060   40.1020 C   0  0  0  0  0  0  0  0  0  0  0  0
   41.1190   35.3190   41.2020 C   0  0  1  0  0  0  0  0  0  0  0  0
   40.2930   34.2810   41.9300 C   0  0  0  0  0  0  0  0  0  0  0  0
   44.3570   34.8630   42.2470 C   0  0  1  0  0  0  0  0  0  0  0  0
   45.7080   34.6830   41.6670 C   0  0  0  0  0  0  0  0  0  0  0  0
   46.7770   35.2330   42.4270 C   0  0  0  0  0  0  0  0  0  0  0  0
   48.0920   35.1210   41.9640 C   0  0  0  0  0  0  0  0  0  0  0  0
   48.2540   34.4580   40.7560 N   0  0  0  0  0  0  0  0  0  0  0  0
   47.2150   33.9530   40.0680 C   0  0  0  0  0  0  0  0  0  0  0  0
   45.9410   34.0590   40.5150 N   0  0  0  0  0  0  0  0  0  0  0  0
   44.3580   35.3940   43.6420 C   0  0  0  0  0  0  0  0  0  0  0  0
   43.0763   36.5801   41.8804 H   0  0  0  0  0  0  0  0  0  0  0  0
   44.0861   36.1287   40.4881 H   0  0  0  0  0  0  0  0  0  0  0  0
   43.0421   35.1962   38.9166 H   0  0  0  0  0  0  0  0  0  0  0  0
   43.1151   33.4809   39.5658 H   0  0  0  0  0  0  0  0  0  0  0  0
   41.4321   33.7184   37.8342 H   0  0  0  0  0  0  0  0  0  0  0  0
   40.7261   33.3102   39.4395 H   0  0  0  0  0  0  0  0  0  0  0  0
   40.7696   35.9811   38.0161 H   0  0  0  0  0  0  0  0  0  0  0  0
   39.3509   34.9916   38.5319 H   0  0  0  0  0  0  0  0  0  0  0  0
   40.7873   37.0074   39.9597 H   0  0  0  0  0  0  0  0  0  0  0  0
   39.3033   36.0272   40.4238 H   0  0  0  0  0  0  0  0  0  0  0  0
   41.3184   36.1025   41.9479 H   0  0  0  0  0  0  0  0  0  0  0  0
   40.4035   34.4199   43.0156 H   0  0  0  0  0  0  0  0  0  0  0  0
   39.2347   34.3935   41.6518 H   0  0  0  0  0  0  0  0  0  0  0  0
   40.6403   33.2750   41.6518 H   0  0  0  0  0  0  0  0  0  0  0  0
   43.9180   33.8572   42.3225 H   0  0  0  0  0  0  0  0  0  0  0  0
   46.5698   35.7459   43.3778 H   0  0  0  0  0  0  0  0  0  0  0  0
   48.9451   35.5331   42.5230 H   0  0  0  0  0  0  0  0  0  0  0  0
   47.4053   33.4388   39.1144 H   0  0  0  0  0  0  0  0  0  0  0  0
   44.3564   34.5552   44.3536 H   0  0  0  0  0  0  0  0  0  0  0  0
   45.2573   36.0074   43.8002 H   0  0  0  0  0  0  0  0  0  0  0  0
   43.4610   36.0108   43.8002 H   0  0  0  0  0  0  0  0  0  0  0  0
  1  9  1  0
  2  7  1  0
  2  1  1  0
  3  2  1  0
  4  3  1  0
  5  4  1  0
  5  6  1  0
  6  7  1  0
  7  8  1  0
  9 16  1  0
 10  9  1  0
 10 11  2  0
 12 11  1  0
 13 12  2  0
 14 15  2  0
 14 13  1  0
 15 10  1  0
  1 17  1  0
  1 18  1  0
  3 19  1  0
  3 20  1  0
  4 21  1  0
  4 22  1  0
  5 23  1  0
  5 24  1  0
  6 25  1  0
  6 26  1  0
  7 27  1  1
  8 28  1  0
  8 29  1  0
  8 30  1  0
  9 31  1  1
 11 32  1  0
 12 33  1  0
 14 34  1  0
 16 35  1  0
 16 36  1  0
 16 37  1  0
M  ISO  8  17   8  18   8  19  13  20  13  21  13  22  13  23  13  24  13
M  ISO  8  25  13  26  13  27  13  28   8  29   8  30   8  31   8  32  14
M  ISO  5  33  14  34  14  35   8  36   8  37   8
M  END
>  <minimizedAffinity>  (1) 
-4.69196939

>  <minimizedRMSD>  (1) 
0.397736937

$$$$
