
     RDKit          3D

 46 48  0  0  1  0  0  0  0  0999 V2000
   45.0260   34.6100   41.8640 C   0  0  2  0  0  0  0  0  0  0  0  0
   45.9700   34.1450   40.8060 C   0  0  0  0  0  0  0  0  0  0  0  0
   47.2900   34.7130   40.8400 C   0  0  0  0  0  0  0  0  0  0  0  0
   48.1770   34.2850   39.8640 C   0  0  0  0  0  0  0  0  0  0  0  0
   47.7330   33.3490   38.9230 N   0  0  0  0  0  0  0  0  0  0  0  0
   46.4630   32.8580   38.9520 C   0  0  0  0  0  0  0  0  0  0  0  0
   45.5930   33.2380   39.8670 N   0  0  0  0  0  0  0  0  0  0  0  0
   44.0160   35.5980   41.1930 C   0  0  0  0  0  0  0  0  0  0  0  0
   42.8770   34.8100   40.8050 N   0  0  0  0  0  0  0  0  0  0  0  0
   42.6620   34.5990   39.4270 C   0  0  0  0  0  0  0  0  0  0  0  0
   41.2400   34.2180   39.0850 C   0  0  0  0  0  0  0  0  0  0  0  0
   40.3440   35.3410   39.4730 C   0  0  0  0  0  0  0  0  0  0  0  0
   40.6570   35.8130   40.8630 C   0  0  0  0  0  0  0  0  0  0  0  0
   41.6950   35.0070   41.5670 C   0  0  2  0  0  0  0  0  0  0  0  0
   41.9220   35.6700   42.8230 N   0  0  0  0  0  0  0  0  0  0  0  0
   45.6640   35.2100   43.0410 C   0  0  0  0  0  0  0  0  0  0  0  0
   45.4850   34.6120   44.3220 N   0  0  0  0  0  0  0  0  0  0  0  0
   46.2830   33.4650   44.2720 C   0  0  0  0  0  0  0  0  0  0  0  0
   46.5220   32.5660   45.3240 C   0  0  0  0  0  0  0  0  0  0  0  0
   45.9230   32.8190   46.5320 C   0  0  0  0  0  0  0  0  0  0  0  0
   45.9850   32.1730   47.5990 O   0  0  0  0  0  0  0  0  0  0  0  0
   45.1550   33.9150   46.5910 N   0  0  0  0  0  0  0  0  0  0  0  0
   44.9950   34.6960   45.5350 C   0  0  0  0  0  0  0  0  0  0  0  0
   44.2840   35.7080   45.5500 O   0  0  0  0  0  0  0  0  0  0  0  0
   44.5143   33.7255   42.2713 H   0  0  0  0  0  0  0  0  0  0  0  0
   47.5819   35.4504   41.6023 H   0  0  0  0  0  0  0  0  0  0  0  0
   49.2060   34.6722   39.8301 H   0  0  0  0  0  0  0  0  0  0  0  0
   46.1549   32.1250   38.1919 H   0  0  0  0  0  0  0  0  0  0  0  0
   43.7140   36.3776   41.9079 H   0  0  0  0  0  0  0  0  0  0  0  0
   44.4669   36.1026   40.3258 H   0  0  0  0  0  0  0  0  0  0  0  0
   42.9116   35.5264   38.8906 H   0  0  0  0  0  0  0  0  0  0  0  0
   43.3015   33.7556   39.1274 H   0  0  0  0  0  0  0  0  0  0  0  0
   41.1554   34.0322   38.0041 H   0  0  0  0  0  0  0  0  0  0  0  0
   40.9543   33.3037   39.6258 H   0  0  0  0  0  0  0  0  0  0  0  0
   40.4836   36.1743   38.7686 H   0  0  0  0  0  0  0  0  0  0  0  0
   39.3024   34.9884   39.4452 H   0  0  0  0  0  0  0  0  0  0  0  0
   41.0113   36.8526   40.8019 H   0  0  0  0  0  0  0  0  0  0  0  0
   39.7300   35.7100   41.4462 H   0  0  0  0  0  0  0  0  0  0  0  0
   41.3441   33.9771   41.7288 H   0  0  0  0  0  0  0  0  0  0  0  0
   41.7015   35.0260   43.5960 H   0  0  0  0  0  0  0  0  0  0  0  0
   42.9092   35.9570   42.8862 H   0  0  0  0  0  0  0  0  0  0  0  0
   46.7462   35.2254   42.8444 H   0  0  0  0  0  0  0  0  0  0  0  0
   45.1588   36.1822   43.1389 H   0  0  0  0  0  0  0  0  0  0  0  0
   46.7729   33.2447   43.3121 H   0  0  0  0  0  0  0  0  0  0  0  0
   47.1687   31.6872   45.1840 H   0  0  0  0  0  0  0  0  0  0  0  0
   44.6809   34.1539   47.4736 H   0  0  0  0  0  0  0  0  0  0  0  0
  1 16  1  0
  2  3  2  0
  2  1  1  0
  4  3  1  0
  5  6  1  0
  5  4  2  0
  6  7  2  0
  7  2  1  0
  8  1  1  0
  9  8  1  0
  9 14  1  0
 10  9  1  0
 11 10  1  0
 11 12  1  0
 12 13  1  0
 13 14  1  0
 14 15  1  0
 16 17  1  0
 17 23  1  0
 18 17  1  0
 18 19  2  0
 19 20  1  0
 20 22  1  0
 20 21  2  0
 23 24  2  0
 23 22  1  0
  1 25  1  1
  3 26  1  0
  4 27  1  0
  6 28  1  0
  8 29  1  0
  8 30  1  0
 10 31  1  0
 10 32  1  0
 11 33  1  0
 11 34  1  0
 12 35  1  0
 12 36  1  0
 13 37  1  0
 13 38  1  0
 14 39  1  1
 15 40  1  0
 15 41  1  0
 16 42  1  0
 16 43  1  0
 18 44  1  0
 19 45  1  0
 22 46  1  0
M  ISO  8  25   8  26  14  27  14  28  14  29   8  30   8  31  13  32  13
M  ISO  8  33  13  34  13  35  13  36  13  37  13  38  13  39  13  40   5
M  ISO  6  41   5  42   8  43   8  44  14  45  14  46   9
M  END
>  <minimizedAffinity>  (1) 
-6.49877214

>  <minimizedRMSD>  (1) 
1.37339914

$$$$
