
     RDKit          3D

 43 45  0  0  1  0  0  0  0  0999 V2000
   43.7410   35.7730   41.2810 C   0  0  0  0  0  0  0  0  0  0  0  0
   42.7460   34.8410   40.8750 N   0  0  0  0  0  0  0  0  0  0  0  0
   42.6490   34.4960   39.5150 C   0  0  0  0  0  0  0  0  0  0  0  0
   41.3090   33.9000   39.1440 C   0  0  0  0  0  0  0  0  0  0  0  0
   40.2480   34.9230   39.3790 C   0  0  0  0  0  0  0  0  0  0  0  0
   40.4240   35.5820   40.7170 C   0  0  0  0  0  0  0  0  0  0  0  0
   41.4960   34.9380   41.5590 C   0  0  2  0  0  0  0  0  0  0  0  0
   41.5760   35.7100   42.7840 N   0  0  0  0  0  0  0  0  0  0  0  0
   44.7330   35.0260   42.2150 C   0  0  1  0  0  0  0  0  0  0  0  0
   45.9160   34.5950   41.4150 C   0  0  0  0  0  0  0  0  0  0  0  0
   47.1690   35.1850   41.7880 C   0  0  0  0  0  0  0  0  0  0  0  0
   48.2930   34.8160   41.0470 C   0  0  0  0  0  0  0  0  0  0  0  0
   48.1120   33.9010   40.0020 N   0  0  0  0  0  0  0  0  0  0  0  0
   46.9160   33.3860   39.7050 C   0  0  0  0  0  0  0  0  0  0  0  0
   45.8310   33.7160   40.3870 N   0  0  0  0  0  0  0  0  0  0  0  0
   45.0790   35.8450   43.3860 C   0  0  0  0  0  0  0  0  0  0  0  0
   45.1130   35.0280   44.6280 C   0  0  0  0  0  0  0  0  0  0  0  0
   45.6700   33.8330   45.0390 C   0  0  0  0  0  0  0  0  0  0  0  0
   45.2850   33.6710   46.3760 C   0  0  0  0  0  0  0  0  0  0  0  0
   44.5250   34.7530   46.7190 N   0  0  0  0  0  0  0  0  0  0  0  0
   44.4360   35.5430   45.6710 N   0  0  0  0  0  0  0  0  0  0  0  0
   43.2733   36.6086   41.8223 H   0  0  0  0  0  0  0  0  0  0  0  0
   44.2678   36.1807   40.4057 H   0  0  0  0  0  0  0  0  0  0  0  0
   42.8069   35.4027   38.9125 H   0  0  0  0  0  0  0  0  0  0  0  0
   43.4129   33.7295   39.3176 H   0  0  0  0  0  0  0  0  0  0  0  0
   41.1131   33.0141   39.7659 H   0  0  0  0  0  0  0  0  0  0  0  0
   41.3125   33.6004   38.0856 H   0  0  0  0  0  0  0  0  0  0  0  0
   40.3049   35.6881   38.5907 H   0  0  0  0  0  0  0  0  0  0  0  0
   39.2683   34.4231   39.3602 H   0  0  0  0  0  0  0  0  0  0  0  0
   40.6928   36.6363   40.5550 H   0  0  0  0  0  0  0  0  0  0  0  0
   39.4736   35.4772   41.2609 H   0  0  0  0  0  0  0  0  0  0  0  0
   41.2388   33.8926   41.7849 H   0  0  0  0  0  0  0  0  0  0  0  0
   41.5104   35.0768   43.5937 H   0  0  0  0  0  0  0  0  0  0  0  0
   42.4737   36.2141   42.8142 H   0  0  0  0  0  0  0  0  0  0  0  0
   44.2619   34.1213   42.6269 H   0  0  0  0  0  0  0  0  0  0  0  0
   47.2412   35.8980   42.6225 H   0  0  0  0  0  0  0  0  0  0  0  0
   49.2863   35.2294   41.2758 H   0  0  0  0  0  0  0  0  0  0  0  0
   46.8308   32.6706   38.8738 H   0  0  0  0  0  0  0  0  0  0  0  0
   46.0695   36.2963   43.2272 H   0  0  0  0  0  0  0  0  0  0  0  0
   44.3103   36.6229   43.5040 H   0  0  0  0  0  0  0  0  0  0  0  0
   46.2888   33.1490   44.4396 H   0  0  0  0  0  0  0  0  0  0  0  0
   45.5469   32.8265   47.0304 H   0  0  0  0  0  0  0  0  0  0  0  0
   44.0955   34.9213   47.6399 H   0  0  0  0  0  0  0  0  0  0  0  0
  1  9  1  0
  2  1  1  0
  2  7  1  0
  3  2  1  0
  4  5  1  0
  4  3  1  0
  5  6  1  0
  6  7  1  0
  7  8  1  0
  9 16  1  0
 10 11  2  0
 10  9  1  0
 12 11  1  0
 13 12  2  0
 14 13  1  0
 14 15  2  0
 15 10  1  0
 16 17  1  0
 17 18  1  0
 17 21  2  0
 18 19  2  0
 19 20  1  0
 21 20  1  0
  1 22  1  0
  1 23  1  0
  3 24  1  0
  3 25  1  0
  4 26  1  0
  4 27  1  0
  5 28  1  0
  5 29  1  0
  6 30  1  0
  6 31  1  0
  7 32  1  1
  8 33  1  0
  8 34  1  0
  9 35  1  1
 11 36  1  0
 12 37  1  0
 14 38  1  0
 16 39  1  0
 16 40  1  0
 18 41  1  0
 19 42  1  0
 20 43  1  0
M  ISO  8  22   8  23   8  24  13  25  13  26  13  27  13  28  13  29  13
M  ISO  8  30  13  31  13  32  13  33   5  34   5  35   8  36  14  37  14
M  ISO  6  38  14  39   8  40   8  41  14  42  14  43   9
M  END
>  <minimizedAffinity>  (1) 
-6.28499508

>  <minimizedRMSD>  (1) 
1.21909332

$$$$
