
     RDKit          3D

 50 53  0  0  1  0  0  0  0  0999 V2000
   44.8690   34.1360   41.9060 C   0  0  2  0  0  0  0  0  0  0  0  0
   46.2280   34.4000   41.3470 C   0  0  0  0  0  0  0  0  0  0  0  0
   47.1140   35.1610   42.1840 C   0  0  0  0  0  0  0  0  0  0  0  0
   48.3960   35.4430   41.6920 C   0  0  0  0  0  0  0  0  0  0  0  0
   48.7180   34.9660   40.4320 N   0  0  0  0  0  0  0  0  0  0  0  0
   47.8380   34.2510   39.6870 C   0  0  0  0  0  0  0  0  0  0  0  0
   46.6060   33.9620   40.1220 N   0  0  0  0  0  0  0  0  0  0  0  0
   43.9150   35.2790   41.4670 C   0  0  0  0  0  0  0  0  0  0  0  0
   42.7710   34.6820   40.8740 N   0  0  0  0  0  0  0  0  0  0  0  0
   42.7420   34.4970   39.4790 C   0  0  0  0  0  0  0  0  0  0  0  0
   41.3440   34.3380   38.9210 C   0  0  0  0  0  0  0  0  0  0  0  0
   40.5840   35.6040   39.1820 C   0  0  0  0  0  0  0  0  0  0  0  0
   40.7330   36.0080   40.6200 C   0  0  0  0  0  0  0  0  0  0  0  0
   41.5130   35.0420   41.4460 C   0  0  2  0  0  0  0  0  0  0  0  0
   41.6540   35.6680   42.7620 N   0  0  0  0  0  0  0  0  0  0  0  0
   44.8690   33.9780   43.3730 C   0  0  0  0  0  0  0  0  0  0  0  0
   45.2270   32.5820   43.8010 C   0  0  0  0  0  0  0  0  0  0  0  0
   44.9810   31.3940   43.1440 C   0  0  0  0  0  0  0  0  0  0  0  0
   45.5020   30.4500   43.9520 N   0  0  0  0  0  0  0  0  0  0  0  0
   46.0500   30.9820   45.0580 C   0  0  0  0  0  0  0  0  0  0  0  0
   46.6920   30.4520   46.1590 C   0  0  0  0  0  0  0  0  0  0  0  0
   47.1670   31.2550   47.1770 C   0  0  0  0  0  0  0  0  0  0  0  0
   47.0030   32.6380   47.1050 C   0  0  0  0  0  0  0  0  0  0  0  0
   46.3560   33.1770   45.9970 C   0  0  0  0  0  0  0  0  0  0  0  0
   45.8850   32.3700   44.9850 C   0  0  0  0  0  0  0  0  0  0  0  0
   44.5164   33.1747   41.5041 H   0  0  0  0  0  0  0  0  0  0  0  0
   46.7969   35.5106   43.1776 H   0  0  0  0  0  0  0  0  0  0  0  0
   49.1197   36.0218   42.2847 H   0  0  0  0  0  0  0  0  0  0  0  0
   48.1475   33.8972   38.6925 H   0  0  0  0  0  0  0  0  0  0  0  0
   43.6158   35.8744   42.3422 H   0  0  0  0  0  0  0  0  0  0  0  0
   44.4167   35.9461   40.7506 H   0  0  0  0  0  0  0  0  0  0  0  0
   43.2102   35.3706   39.0019 H   0  0  0  0  0  0  0  0  0  0  0  0
   43.2845   33.5644   39.2645 H   0  0  0  0  0  0  0  0  0  0  0  0
   40.8406   33.4938   39.4149 H   0  0  0  0  0  0  0  0  0  0  0  0
   41.3886   34.1397   37.8399 H   0  0  0  0  0  0  0  0  0  0  0  0
   40.9768   36.4037   38.5369 H   0  0  0  0  0  0  0  0  0  0  0  0
   39.5190   35.4361   38.9637 H   0  0  0  0  0  0  0  0  0  0  0  0
   41.2428   36.9821   40.6541 H   0  0  0  0  0  0  0  0  0  0  0  0
   39.7195   36.0438   41.0461 H   0  0  0  0  0  0  0  0  0  0  0  0
   40.9826   34.0805   41.5109 H   0  0  0  0  0  0  0  0  0  0  0  0
   41.4953   34.9633   43.4962 H   0  0  0  0  0  0  0  0  0  0  0  0
   42.6034   36.0558   42.8578 H   0  0  0  0  0  0  0  0  0  0  0  0
   45.6007   34.6776   43.8033 H   0  0  0  0  0  0  0  0  0  0  0  0
   43.8505   34.1871   43.7320 H   0  0  0  0  0  0  0  0  0  0  0  0
   44.4740   31.2500   42.1785 H   0  0  0  0  0  0  0  0  0  0  0  0
   45.4826   29.4409   43.7466 H   0  0  0  0  0  0  0  0  0  0  0  0
   46.8287   29.3627   46.2272 H   0  0  0  0  0  0  0  0  0  0  0  0
   47.6738   30.8046   48.0432 H   0  0  0  0  0  0  0  0  0  0  0  0
   47.3776   33.2899   47.9080 H   0  0  0  0  0  0  0  0  0  0  0  0
   46.2184   34.2662   45.9282 H   0  0  0  0  0  0  0  0  0  0  0  0
  1 16  1  0
  2  1  1  0
  2  3  2  0
  4  3  1  0
  5  4  2  0
  6  7  2  0
  6  5  1  0
  7  2  1  0
  8  1  1  0
  9 14  1  0
  9  8  1  0
 10  9  1  0
 11 12  1  0
 11 10  1  0
 12 13  1  0
 13 14  1  0
 14 15  1  0
 16 17  1  0
 17 25  1  0
 18 17  2  0
 18 19  1  0
 19 20  1  0
 20 21  2  0
 21 22  1  0
 23 22  2  0
 24 23  1  0
 25 20  1  0
 25 24  2  0
  1 26  1  6
  3 27  1  0
  4 28  1  0
  6 29  1  0
  8 30  1  0
  8 31  1  0
 10 32  1  0
 10 33  1  0
 11 34  1  0
 11 35  1  0
 12 36  1  0
 12 37  1  0
 13 38  1  0
 13 39  1  0
 14 40  1  1
 15 41  1  0
 15 42  1  0
 16 43  1  0
 16 44  1  0
 18 45  1  0
 19 46  1  0
 21 47  1  0
 22 48  1  0
 23 49  1  0
 24 50  1  0
M  ISO  8  26   8  27  14  28  14  29  14  30   8  31   8  32  13  33  13
M  ISO  8  34  13  35  13  36  13  37  13  38  13  39  13  40  13  41   5
M  ISO  8  42   5  43   8  44   8  45  14  46   9  47  14  48  14  49  14
M  ISO  1  50  14
M  END
>  <minimizedAffinity>  (1) 
-6.19590378

>  <minimizedRMSD>  (1) 
1.41480386

$$$$
