
     RDKit          3D

 45 47  0  0  1  0  0  0  0  0999 V2000
   43.8200   35.5740   41.6100 C   0  0  0  0  0  0  0  0  0  0  0  0
   42.7560   34.8520   41.0050 N   0  0  0  0  0  0  0  0  0  0  0  0
   42.7740   34.6620   39.6070 C   0  0  0  0  0  0  0  0  0  0  0  0
   41.4210   34.3060   39.0320 C   0  0  0  0  0  0  0  0  0  0  0  0
   40.4730   35.4280   39.2930 C   0  0  0  0  0  0  0  0  0  0  0  0
   40.5940   35.9470   40.6950 C   0  0  0  0  0  0  0  0  0  0  0  0
   41.4600   35.0850   41.5610 C   0  0  2  0  0  0  0  0  0  0  0  0
   41.5080   35.7230   42.8670 N   0  0  0  0  0  0  0  0  0  0  0  0
   44.7780   34.5390   42.2630 C   0  0  1  0  0  0  0  0  0  0  0  0
   46.0450   34.4980   41.4700 C   0  0  0  0  0  0  0  0  0  0  0  0
   47.1480   35.2360   42.0190 C   0  0  0  0  0  0  0  0  0  0  0  0
   48.3480   35.2310   41.2940 C   0  0  0  0  0  0  0  0  0  0  0  0
   48.3760   34.5100   40.0960 N   0  0  0  0  0  0  0  0  0  0  0  0
   47.3080   33.8410   39.6380 C   0  0  0  0  0  0  0  0  0  0  0  0
   46.1560   33.8240   40.2990 N   0  0  0  0  0  0  0  0  0  0  0  0
   44.9970   34.8310   43.6890 C   0  0  0  0  0  0  0  0  0  0  0  0
   45.3860   33.6070   44.4780 C   0  0  0  0  0  0  0  0  0  0  0  0
   45.6760   33.8380   45.8050 C   0  0  0  0  0  0  0  0  0  0  0  0
   46.0430   32.7270   46.5740 C   0  0  0  0  0  0  0  0  0  0  0  0
   46.0720   31.5170   45.9140 C   0  0  0  0  0  0  0  0  0  0  0  0
   45.7870   31.2830   44.6020 C   0  0  0  0  0  0  0  0  0  0  0  0
   45.4370   32.3970   43.9010 N   0  0  0  0  0  0  0  0  0  0  0  0
   43.4229   36.2542   42.3778 H   0  0  0  0  0  0  0  0  0  0  0  0
   44.3543   36.1758   40.8601 H   0  0  0  0  0  0  0  0  0  0  0  0
   43.1205   35.5922   39.1331 H   0  0  0  0  0  0  0  0  0  0  0  0
   43.4466   33.8159   39.4028 H   0  0  0  0  0  0  0  0  0  0  0  0
   41.0470   33.3883   39.5095 H   0  0  0  0  0  0  0  0  0  0  0  0
   41.5097   34.1382   37.9485 H   0  0  0  0  0  0  0  0  0  0  0  0
   40.6888   36.2467   38.5907 H   0  0  0  0  0  0  0  0  0  0  0  0
   39.4495   35.0486   39.1568 H   0  0  0  0  0  0  0  0  0  0  0  0
   41.0276   36.9573   40.6594 H   0  0  0  0  0  0  0  0  0  0  0  0
   39.5857   35.9506   41.1347 H   0  0  0  0  0  0  0  0  0  0  0  0
   41.0313   34.0753   41.6431 H   0  0  0  0  0  0  0  0  0  0  0  0
   41.4539   35.0040   43.6025 H   0  0  0  0  0  0  0  0  0  0  0  0
   42.3907   36.2453   42.9617 H   0  0  0  0  0  0  0  0  0  0  0  0
   44.3236   33.5375   42.2411 H   0  0  0  0  0  0  0  0  0  0  0  0
   47.0551   35.7826   42.9691 H   0  0  0  0  0  0  0  0  0  0  0  0
   49.2344   35.7739   41.6540 H   0  0  0  0  0  0  0  0  0  0  0  0
   47.3881   33.2911   38.6887 H   0  0  0  0  0  0  0  0  0  0  0  0
   45.8008   35.5768   43.7765 H   0  0  0  0  0  0  0  0  0  0  0  0
   44.0489   35.2062   44.1018 H   0  0  0  0  0  0  0  0  0  0  0  0
   45.6218   34.8471   46.2395 H   0  0  0  0  0  0  0  0  0  0  0  0
   46.2934   32.8144   47.6416 H   0  0  0  0  0  0  0  0  0  0  0  0
   46.3576   30.6408   46.5146 H   0  0  0  0  0  0  0  0  0  0  0  0
   45.8354   30.2819   44.1488 H   0  0  0  0  0  0  0  0  0  0  0  0
  1  9  1  0
  2  7  1  0
  2  1  1  0
  3  2  1  0
  4  5  1  0
  4  3  1  0
  5  6  1  0
  6  7  1  0
  7  8  1  0
  9 16  1  0
 10 11  2  0
 10  9  1  0
 12 11  1  0
 13 12  2  0
 14 13  1  0
 14 15  2  0
 15 10  1  0
 16 17  1  0
 17 18  2  0
 18 19  1  0
 20 19  2  0
 21 20  1  0
 22 17  1  0
 22 21  2  0
  1 23  1  0
  1 24  1  0
  3 25  1  0
  3 26  1  0
  4 27  1  0
  4 28  1  0
  5 29  1  0
  5 30  1  0
  6 31  1  0
  6 32  1  0
  7 33  1  1
  8 34  1  0
  8 35  1  0
  9 36  1  1
 11 37  1  0
 12 38  1  0
 14 39  1  0
 16 40  1  0
 16 41  1  0
 18 42  1  0
 19 43  1  0
 20 44  1  0
 21 45  1  0
M  ISO  8  23   8  24   8  25  13  26  13  27  13  28  13  29  13  30  13
M  ISO  8  31  13  32  13  33  13  34   5  35   5  36   8  37  14  38  14
M  ISO  7  39  14  40   8  41   8  42  14  43  14  44  14  45  14
M  END
>  <minimizedAffinity>  (1) 
-5.91531467

>  <minimizedRMSD>  (1) 
0.558623016

$$$$
