
     RDKit          3D

 44 46  0  0  1  0  0  0  0  0999 V2000
   43.8160   35.7590   41.5420 C   0  0  0  0  0  0  0  0  0  0  0  0
   42.7950   34.9210   41.0070 N   0  0  0  0  0  0  0  0  0  0  0  0
   42.7720   34.6880   39.6190 C   0  0  0  0  0  0  0  0  0  0  0  0
   41.4330   34.2000   39.1130 C   0  0  0  0  0  0  0  0  0  0  0  0
   40.4090   35.2600   39.3720 C   0  0  0  0  0  0  0  0  0  0  0  0
   40.5330   35.8150   40.7620 C   0  0  0  0  0  0  0  0  0  0  0  0
   41.5110   35.0550   41.6010 C   0  0  2  0  0  0  0  0  0  0  0  0
   41.5510   35.7350   42.8930 N   0  0  0  0  0  0  0  0  0  0  0  0
   44.7900   34.8450   42.3440 C   0  0  1  0  0  0  0  0  0  0  0  0
   46.0080   34.6050   41.5060 C   0  0  0  0  0  0  0  0  0  0  0  0
   47.2050   35.2810   41.9220 C   0  0  0  0  0  0  0  0  0  0  0  0
   48.3450   35.0790   41.1420 C   0  0  0  0  0  0  0  0  0  0  0  0
   48.2460   34.2500   40.0290 N   0  0  0  0  0  0  0  0  0  0  0  0
   47.1000   33.6480   39.6950 C   0  0  0  0  0  0  0  0  0  0  0  0
   45.9940   33.8110   40.4060 N   0  0  0  0  0  0  0  0  0  0  0  0
   45.0980   35.4400   43.6540 C   0  0  0  0  0  0  0  0  0  0  0  0
   45.3110   34.4640   44.7540 C   0  0  0  0  0  0  0  0  0  0  0  0
   45.9970   33.2680   44.7910 C   0  0  0  0  0  0  0  0  0  0  0  0
   46.0250   32.5520   45.9700 C   0  0  0  0  0  0  0  0  0  0  0  0
   45.3990   32.9960   47.0740 N   0  0  0  0  0  0  0  0  0  0  0  0
   44.7310   34.1610   47.0300 C   0  0  0  0  0  0  0  0  0  0  0  0
   44.6880   34.8790   45.8940 N   0  0  0  0  0  0  0  0  0  0  0  0
   43.3731   36.5139   42.2083 H   0  0  0  0  0  0  0  0  0  0  0  0
   44.3493   36.2864   40.7374 H   0  0  0  0  0  0  0  0  0  0  0  0
   43.0176   35.6283   39.1037 H   0  0  0  0  0  0  0  0  0  0  0  0
   43.5057   33.8953   39.4110 H   0  0  0  0  0  0  0  0  0  0  0  0
   41.1518   33.2765   39.6404 H   0  0  0  0  0  0  0  0  0  0  0  0
   41.4925   33.9908   38.0347 H   0  0  0  0  0  0  0  0  0  0  0  0
   40.5476   36.0759   38.6474 H   0  0  0  0  0  0  0  0  0  0  0  0
   39.4109   34.8096   39.2673 H   0  0  0  0  0  0  0  0  0  0  0  0
   40.8652   36.8615   40.6949 H   0  0  0  0  0  0  0  0  0  0  0  0
   39.5471   35.7317   41.2426 H   0  0  0  0  0  0  0  0  0  0  0  0
   41.1820   34.0113   41.7129 H   0  0  0  0  0  0  0  0  0  0  0  0
   41.5100   35.0373   43.6496 H   0  0  0  0  0  0  0  0  0  0  0  0
   42.4252   36.2742   42.9703 H   0  0  0  0  0  0  0  0  0  0  0  0
   44.3246   33.8719   42.5595 H   0  0  0  0  0  0  0  0  0  0  0  0
   47.2226   35.9268   42.8123 H   0  0  0  0  0  0  0  0  0  0  0  0
   49.2981   35.5633   41.4010 H   0  0  0  0  0  0  0  0  0  0  0  0
   47.0747   33.0002   38.8063 H   0  0  0  0  0  0  0  0  0  0  0  0
   46.0136   36.0405   43.5489 H   0  0  0  0  0  0  0  0  0  0  0  0
   44.2158   36.0331   43.9366 H   0  0  0  0  0  0  0  0  0  0  0  0
   46.5131   32.8914   43.8956 H   0  0  0  0  0  0  0  0  0  0  0  0
   46.5710   31.5978   46.0076 H   0  0  0  0  0  0  0  0  0  0  0  0
   44.2159   34.5298   47.9293 H   0  0  0  0  0  0  0  0  0  0  0  0
  1  9  1  0
  2  1  1  0
  2  7  1  0
  3  2  1  0
  4  5  1  0
  4  3  1  0
  5  6  1  0
  6  7  1  0
  7  8  1  0
  9 16  1  0
 10 11  2  0
 10  9  1  0
 12 11  1  0
 13 12  2  0
 14 13  1  0
 14 15  2  0
 15 10  1  0
 16 17  1  0
 17 18  2  0
 17 22  1  0
 18 19  1  0
 19 20  2  0
 21 20  1  0
 22 21  2  0
  1 23  1  0
  1 24  1  0
  3 25  1  0
  3 26  1  0
  4 27  1  0
  4 28  1  0
  5 29  1  0
  5 30  1  0
  6 31  1  0
  6 32  1  0
  7 33  1  1
  8 34  1  0
  8 35  1  0
  9 36  1  1
 11 37  1  0
 12 38  1  0
 14 39  1  0
 16 40  1  0
 16 41  1  0
 18 42  1  0
 19 43  1  0
 21 44  1  0
M  ISO  8  23   8  24   8  25  13  26  13  27  13  28  13  29  13  30  13
M  ISO  8  31  13  32  13  33  13  34   5  35   5  36   8  37  14  38  14
M  ISO  6  39  14  40   8  41   8  42  14  43  14  44  14
M  END
>  <minimizedAffinity>  (1) 
-5.85683918

>  <minimizedRMSD>  (1) 
0.851726174

$$$$
