
     RDKit          3D

 43 44  0  0  1  0  0  0  0  0999 V2000
   44.5260   34.2140   41.4100 C   0  0  2  0  0  0  0  0  0  0  0  0
   45.6260   33.9400   40.4680 C   0  0  0  0  0  0  0  0  0  0  0  0
   46.8790   34.4470   40.8590 C   0  0  0  0  0  0  0  0  0  0  0  0
   47.9900   34.2530   40.0190 C   0  0  0  0  0  0  0  0  0  0  0  0
   47.7530   33.5510   38.8300 N   0  0  0  0  0  0  0  0  0  0  0  0
   46.5370   33.0930   38.5150 C   0  0  0  0  0  0  0  0  0  0  0  0
   45.5020   33.2830   39.3140 N   0  0  0  0  0  0  0  0  0  0  0  0
   43.4690   35.1200   40.7690 C   0  0  0  0  0  0  0  0  0  0  0  0
   42.2560   34.3910   40.6350 N   0  0  0  0  0  0  0  0  0  0  0  0
   41.8990   33.9570   39.3360 C   0  0  0  0  0  0  0  0  0  0  0  0
   40.4270   33.6480   39.2020 C   0  0  0  0  0  0  0  0  0  0  0  0
   39.6520   34.9160   39.4310 C   0  0  0  0  0  0  0  0  0  0  0  0
   40.1670   35.6650   40.6160 C   0  0  0  0  0  0  0  0  0  0  0  0
   41.1670   34.8600   41.4070 C   0  0  2  0  0  0  0  0  0  0  0  0
   41.5920   35.7400   42.5020 N   0  0  0  0  0  0  0  0  0  0  0  0
   44.9340   34.6690   42.7530 C   0  0  0  0  0  0  0  0  0  0  0  0
   44.7300   36.0460   43.0660 N   0  0  0  0  0  0  0  0  0  0  0  0
   44.6250   36.3210   44.4760 C   0  0  0  0  0  0  0  0  0  0  0  0
   44.3960   35.3660   45.3430 N   0  0  0  0  0  0  0  0  0  0  0  0
   44.7690   37.6590   44.9910 N   0  0  0  0  0  0  0  0  0  0  0  0
   44.3200   35.5720   46.3740 H   0  0  0  0  0  0  0  0  0  0  0  0
   44.0686   33.2342   41.6120 H   0  0  0  0  0  0  0  0  0  0  0  0
   46.9882   34.9885   41.8102 H   0  0  0  0  0  0  0  0  0  0  0  0
   48.9892   34.6313   40.2808 H   0  0  0  0  0  0  0  0  0  0  0  0
   46.3953   32.5466   37.5709 H   0  0  0  0  0  0  0  0  0  0  0  0
   43.3018   36.0005   41.4068 H   0  0  0  0  0  0  0  0  0  0  0  0
   43.8147   35.4525   39.7791 H   0  0  0  0  0  0  0  0  0  0  0  0
   42.1578   34.7492   38.6181 H   0  0  0  0  0  0  0  0  0  0  0  0
   42.4505   33.0264   39.1364 H   0  0  0  0  0  0  0  0  0  0  0  0
   40.2188   33.2627   38.1929 H   0  0  0  0  0  0  0  0  0  0  0  0
   40.1323   32.8870   39.9397 H   0  0  0  0  0  0  0  0  0  0  0  0
   39.7389   35.5542   38.5393 H   0  0  0  0  0  0  0  0  0  0  0  0
   38.6017   34.6495   39.6206 H   0  0  0  0  0  0  0  0  0  0  0  0
   40.6518   36.5890   40.2679 H   0  0  0  0  0  0  0  0  0  0  0  0
   39.3134   35.8847   41.2742 H   0  0  0  0  0  0  0  0  0  0  0  0
   40.7090   33.9327   41.7818 H   0  0  0  0  0  0  0  0  0  0  0  0
   41.3763   35.2934   43.4048 H   0  0  0  0  0  0  0  0  0  0  0  0
   42.6063   35.9063   42.4349 H   0  0  0  0  0  0  0  0  0  0  0  0
   44.3708   34.0758   43.4884 H   0  0  0  0  0  0  0  0  0  0  0  0
   46.0251   34.5315   42.7791 H   0  0  0  0  0  0  0  0  0  0  0  0
   44.6636   36.7797   42.3462 H   0  0  0  0  0  0  0  0  0  0  0  0
   44.6901   37.8325   46.0032 H   0  0  0  0  0  0  0  0  0  0  0  0
   44.9508   38.4419   44.3469 H   0  0  0  0  0  0  0  0  0  0  0  0
  1 16  1  0
  2  3  2  0
  2  1  1  0
  4  3  1  0
  5  4  2  0
  6  5  1  0
  6  7  2  0
  7  2  1  0
  8  1  1  0
  9  8  1  0
  9 14  1  0
 10  9  1  0
 11 10  1  0
 11 12  1  0
 12 13  1  0
 13 14  1  0
 14 15  1  0
 16 17  1  0
 17 18  1  0
 18 20  1  0
 18 19  2  0
 19 21  1  0
  1 22  1  1
  3 23  1  0
  4 24  1  0
  6 25  1  0
  8 26  1  0
  8 27  1  0
 10 28  1  0
 10 29  1  0
 11 30  1  0
 11 31  1  0
 12 32  1  0
 12 33  1  0
 13 34  1  0
 13 35  1  0
 14 36  1  1
 15 37  1  0
 15 38  1  0
 16 39  1  0
 16 40  1  0
 17 41  1  0
 20 42  1  0
 20 43  1  0
M  ISO  8  22   8  23  14  24  14  25  14  26   8  27   8  28  13  29  13
M  ISO  8  30  13  31  13  32  13  33  13  34  13  35  13  36  13  37   5
M  ISO  3  38   5  39   8  40   8
M  END
>  <minimizedAffinity>  (1) 
-5.83796263

>  <minimizedRMSD>  (1) 
1.21446753

$$$$
