
     RDKit          3D

 42 44  0  0  1  0  0  0  0  0999 V2000
   43.8220   35.6130   41.6410 C   0  0  0  0  0  0  0  0  0  0  0  0
   42.7470   34.8830   41.0320 N   0  0  0  0  0  0  0  0  0  0  0  0
   42.7780   34.6960   39.6380 C   0  0  0  0  0  0  0  0  0  0  0  0
   41.4300   34.3650   39.0410 C   0  0  0  0  0  0  0  0  0  0  0  0
   40.5080   35.5120   39.2800 C   0  0  0  0  0  0  0  0  0  0  0  0
   40.5970   35.9850   40.6970 C   0  0  0  0  0  0  0  0  0  0  0  0
   41.4520   35.1130   41.5640 C   0  0  2  0  0  0  0  0  0  0  0  0
   41.4820   35.7280   42.8810 N   0  0  0  0  0  0  0  0  0  0  0  0
   44.7530   34.5410   42.3000 C   0  0  1  0  0  0  0  0  0  0  0  0
   46.0230   34.5000   41.5120 C   0  0  0  0  0  0  0  0  0  0  0  0
   47.1390   35.2290   42.0590 C   0  0  0  0  0  0  0  0  0  0  0  0
   48.3210   35.1940   41.3320 C   0  0  0  0  0  0  0  0  0  0  0  0
   48.3380   34.4650   40.1370 N   0  0  0  0  0  0  0  0  0  0  0  0
   47.2630   33.8090   39.6810 C   0  0  0  0  0  0  0  0  0  0  0  0
   46.1180   33.8150   40.3430 N   0  0  0  0  0  0  0  0  0  0  0  0
   44.9570   34.8460   43.7270 C   0  0  0  0  0  0  0  0  0  0  0  0
   45.4030   33.7340   44.5490 N   0  0  0  0  0  0  0  0  0  0  0  0
   45.8010   32.4700   44.5320 C   0  0  0  0  0  0  0  0  0  0  0  0
   46.0240   32.0230   45.7690 N   0  0  0  0  0  0  0  0  0  0  0  0
   45.7700   33.0090   46.6390 C   0  0  0  0  0  0  0  0  0  0  0  0
   45.3960   34.0300   45.8640 N   0  0  0  0  0  0  0  0  0  0  0  0
   43.4318   36.3017   42.4048 H   0  0  0  0  0  0  0  0  0  0  0  0
   44.3662   36.2197   40.9022 H   0  0  0  0  0  0  0  0  0  0  0  0
   43.1471   35.6212   39.1713 H   0  0  0  0  0  0  0  0  0  0  0  0
   43.4365   33.8368   39.4428 H   0  0  0  0  0  0  0  0  0  0  0  0
   41.0261   33.4596   39.5176 H   0  0  0  0  0  0  0  0  0  0  0  0
   41.5321   34.1844   37.9607 H   0  0  0  0  0  0  0  0  0  0  0  0
   40.7800   36.3385   38.6071 H   0  0  0  0  0  0  0  0  0  0  0  0
   39.4775   35.1799   39.0853 H   0  0  0  0  0  0  0  0  0  0  0  0
   41.0199   37.0005   40.6994 H   0  0  0  0  0  0  0  0  0  0  0  0
   39.5790   35.9568   41.1127 H   0  0  0  0  0  0  0  0  0  0  0  0
   41.0181   34.1038   41.6214 H   0  0  0  0  0  0  0  0  0  0  0  0
   41.4462   34.9946   43.6033 H   0  0  0  0  0  0  0  0  0  0  0  0
   42.3505   36.2716   42.9864 H   0  0  0  0  0  0  0  0  0  0  0  0
   44.2978   33.5399   42.2763 H   0  0  0  0  0  0  0  0  0  0  0  0
   47.0584   35.7850   43.0047 H   0  0  0  0  0  0  0  0  0  0  0  0
   49.2182   35.7237   41.6846 H   0  0  0  0  0  0  0  0  0  0  0  0
   47.3340   33.2528   38.7347 H   0  0  0  0  0  0  0  0  0  0  0  0
   45.7114   35.6434   43.7982 H   0  0  0  0  0  0  0  0  0  0  0  0
   43.9694   35.1320   44.1178 H   0  0  0  0  0  0  0  0  0  0  0  0
   45.9302   31.8695   43.6195 H   0  0  0  0  0  0  0  0  0  0  0  0
   45.8506   32.9837   47.7357 H   0  0  0  0  0  0  0  0  0  0  0  0
  1  9  1  0
  2  7  1  0
  2  1  1  0
  3  2  1  0
  4  5  1  0
  4  3  1  0
  5  6  1  0
  6  7  1  0
  7  8  1  0
  9 16  1  0
 10 11  2  0
 10  9  1  0
 12 11  1  0
 13 12  2  0
 14 13  1  0
 14 15  2  0
 15 10  1  0
 16 17  1  0
 17 21  1  0
 18 17  1  0
 18 19  2  0
 19 20  1  0
 21 20  2  0
  1 22  1  0
  1 23  1  0
  3 24  1  0
  3 25  1  0
  4 26  1  0
  4 27  1  0
  5 28  1  0
  5 29  1  0
  6 30  1  0
  6 31  1  0
  7 32  1  1
  8 33  1  0
  8 34  1  0
  9 35  1  1
 11 36  1  0
 12 37  1  0
 14 38  1  0
 16 39  1  0
 16 40  1  0
 18 41  1  0
 20 42  1  0
M  ISO  8  22   8  23   8  24  13  25  13  26  13  27  13  28  13  29  13
M  ISO  8  30  13  31  13  32  13  33   5  34   5  35   8  36  14  37  14
M  ISO  5  38  14  39   8  40   8  41  14  42  14
M  END
>  <minimizedAffinity>  (1) 
-5.70076036

>  <minimizedRMSD>  (1) 
0.549717844

$$$$
