
     RDKit          3D

 43 45  0  0  1  0  0  0  0  0999 V2000
   43.8920   35.4210   40.8690 C   0  0  0  0  0  0  0  0  0  0  0  0
   42.7060   34.6600   40.6550 N   0  0  0  0  0  0  0  0  0  0  0  0
   42.2970   34.4340   39.3230 C   0  0  0  0  0  0  0  0  0  0  0  0
   40.8340   34.0610   39.2020 C   0  0  0  0  0  0  0  0  0  0  0  0
   40.0340   35.2400   39.6610 C   0  0  0  0  0  0  0  0  0  0  0  0
   40.5480   35.7690   40.9690 C   0  0  0  0  0  0  0  0  0  0  0  0
   41.6410   34.9150   41.5620 C   0  0  2  0  0  0  0  0  0  0  0  0
   42.0780   35.6360   42.7480 N   0  0  0  0  0  0  0  0  0  0  0  0
   44.9460   34.5270   41.4980 C   0  0  1  0  0  0  0  0  0  0  0  0
   45.8450   33.9710   40.4360 C   0  0  0  0  0  0  0  0  0  0  0  0
   47.1910   34.3920   40.4860 C   0  0  0  0  0  0  0  0  0  0  0  0
   48.1040   33.9370   39.5320 C   0  0  0  0  0  0  0  0  0  0  0  0
   47.6010   33.0700   38.5680 N   0  0  0  0  0  0  0  0  0  0  0  0
   46.3120   32.6930   38.5560 C   0  0  0  0  0  0  0  0  0  0  0  0
   45.4350   33.1210   39.4600 N   0  0  0  0  0  0  0  0  0  0  0  0
   45.6690   35.1150   42.6110 C   0  0  0  0  0  0  0  0  0  0  0  0
   45.5010   34.7790   43.9590 N   0  0  0  0  0  0  0  0  0  0  0  0
   44.6840   35.5740   44.6690 N   0  0  0  0  0  0  0  0  0  0  0  0
   44.5320   35.1580   45.9170 C   0  0  0  0  0  0  0  0  0  0  0  0
   45.2850   34.0280   46.0540 C   0  0  0  0  0  0  0  0  0  0  0  0
   45.8670   33.8130   44.8510 C   0  0  0  0  0  0  0  0  0  0  0  0
   43.6734   36.2632   41.5419 H   0  0  0  0  0  0  0  0  0  0  0  0
   44.2609   35.8121   39.9094 H   0  0  0  0  0  0  0  0  0  0  0  0
   42.4726   35.3520   38.7430 H   0  0  0  0  0  0  0  0  0  0  0  0
   42.8830   33.5849   38.9413 H   0  0  0  0  0  0  0  0  0  0  0  0
   40.5909   33.8258   38.1553 H   0  0  0  0  0  0  0  0  0  0  0  0
   40.6065   33.1748   39.8126 H   0  0  0  0  0  0  0  0  0  0  0  0
   40.0981   36.0343   38.9027 H   0  0  0  0  0  0  0  0  0  0  0  0
   38.9908   34.9201   39.8004 H   0  0  0  0  0  0  0  0  0  0  0  0
   40.9444   36.7821   40.8059 H   0  0  0  0  0  0  0  0  0  0  0  0
   39.7071   35.7661   41.6782 H   0  0  0  0  0  0  0  0  0  0  0  0
   41.2707   33.9089   41.8082 H   0  0  0  0  0  0  0  0  0  0  0  0
   41.7709   35.1292   43.5905 H   0  0  0  0  0  0  0  0  0  0  0  0
   43.1054   35.7086   42.7465 H   0  0  0  0  0  0  0  0  0  0  0  0
   44.4064   33.6950   41.9740 H   0  0  0  0  0  0  0  0  0  0  0  0
   47.5218   35.0800   41.2780 H   0  0  0  0  0  0  0  0  0  0  0  0
   49.1595   34.2464   39.5425 H   0  0  0  0  0  0  0  0  0  0  0  0
   45.9688   32.0048   37.7695 H   0  0  0  0  0  0  0  0  0  0  0  0
   46.7321   34.9316   42.3962 H   0  0  0  0  0  0  0  0  0  0  0  0
   45.2353   36.1259   42.6094 H   0  0  0  0  0  0  0  0  0  0  0  0
   43.9162   35.6328   46.6950 H   0  0  0  0  0  0  0  0  0  0  0  0
   45.3966   33.4148   46.9604 H   0  0  0  0  0  0  0  0  0  0  0  0
   46.5422   32.9749   44.6235 H   0  0  0  0  0  0  0  0  0  0  0  0
  1  9  1  0
  2  1  1  0
  2  7  1  0
  3  2  1  0
  4  3  1  0
  4  5  1  0
  5  6  1  0
  6  7  1  0
  7  8  1  0
  9 16  1  0
 10 11  2  0
 10  9  1  0
 12 11  1  0
 13 12  2  0
 14 13  1  0
 14 15  2  0
 15 10  1  0
 16 17  1  0
 17 18  1  0
 17 21  1  0
 18 19  2  0
 19 20  1  0
 21 20  2  0
  1 22  1  0
  1 23  1  0
  3 24  1  0
  3 25  1  0
  4 26  1  0
  4 27  1  0
  5 28  1  0
  5 29  1  0
  6 30  1  0
  6 31  1  0
  7 32  1  1
  8 33  1  0
  8 34  1  0
  9 35  1  1
 11 36  1  0
 12 37  1  0
 14 38  1  0
 16 39  1  0
 16 40  1  0
 19 41  1  0
 20 42  1  0
 21 43  1  0
M  ISO  8  22   8  23   8  24  13  25  13  26  13  27  13  28  13  29  13
M  ISO  8  30  13  31  13  32  13  33   5  34   5  35   8  36  14  37  14
M  ISO  6  38  14  39   8  40   8  41  14  42  14  43  14
M  END
>  <minimizedAffinity>  (1) 
-5.48919821

>  <minimizedRMSD>  (1) 
1.68392575

$$$$
