
     RDKit          3D

 50 52  0  0  1  0  0  0  0  0999 V2000
   43.9240   35.0360   41.4290 C   0  0  0  0  0  0  0  0  0  0  0  0
   42.7020   34.5120   40.9150 N   0  0  0  0  0  0  0  0  0  0  0  0
   42.6070   34.3120   39.5230 C   0  0  0  0  0  0  0  0  0  0  0  0
   41.1770   34.2160   39.0270 C   0  0  0  0  0  0  0  0  0  0  0  0
   40.5120   35.5360   39.2820 C   0  0  0  0  0  0  0  0  0  0  0  0
   40.7900   36.0180   40.6580 C   0  0  0  0  0  0  0  0  0  0  0  0
   41.5160   35.0140   41.5160 C   0  0  2  0  0  0  0  0  0  0  0  0
   41.7610   35.6660   42.7910 N   0  0  0  0  0  0  0  0  0  0  0  0
   44.8610   33.8340   41.7130 C   0  0  1  0  0  0  0  0  0  0  0  0
   46.0810   33.9880   40.8560 C   0  0  0  0  0  0  0  0  0  0  0  0
   47.1220   34.8280   41.3750 C   0  0  0  0  0  0  0  0  0  0  0  0
   48.2660   35.0090   40.6050 C   0  0  0  0  0  0  0  0  0  0  0  0
   48.3230   34.3550   39.3680 N   0  0  0  0  0  0  0  0  0  0  0  0
   47.3090   33.5760   38.9310 C   0  0  0  0  0  0  0  0  0  0  0  0
   46.2120   33.3900   39.6500 N   0  0  0  0  0  0  0  0  0  0  0  0
   45.1880   33.7560   43.1520 C   0  0  0  0  0  0  0  0  0  0  0  0
   46.3190   32.9470   43.5010 N   0  0  0  0  0  0  0  0  0  0  0  0
   46.0590   31.5290   43.4330 C   0  0  0  0  0  0  0  0  0  0  0  0
   45.2100   31.0520   44.5950 C   0  0  0  0  0  0  0  0  0  0  0  0
   45.8310   31.4140   45.8520 N   0  0  0  0  0  0  0  0  0  0  0  0
   45.9050   32.8470   45.9170 C   0  0  0  0  0  0  0  0  0  0  0  0
   46.8280   33.2940   44.7890 C   0  0  0  0  0  0  0  0  0  0  0  0
   43.7331   35.5918   42.3589 H   0  0  0  0  0  0  0  0  0  0  0  0
   44.3851   35.7256   40.7066 H   0  0  0  0  0  0  0  0  0  0  0  0
   43.0969   35.1556   39.0148 H   0  0  0  0  0  0  0  0  0  0  0  0
   43.0951   33.3523   39.2976 H   0  0  0  0  0  0  0  0  0  0  0  0
   40.6461   33.4191   39.5684 H   0  0  0  0  0  0  0  0  0  0  0  0
   41.1586   33.9784   37.9531 H   0  0  0  0  0  0  0  0  0  0  0  0
   40.8903   36.2742   38.5596 H   0  0  0  0  0  0  0  0  0  0  0  0
   39.4253   35.4069   39.1702 H   0  0  0  0  0  0  0  0  0  0  0  0
   41.4061   36.9267   40.5899 H   0  0  0  0  0  0  0  0  0  0  0  0
   39.8171   36.2057   41.1358 H   0  0  0  0  0  0  0  0  0  0  0  0
   40.8994   34.1132   41.6515 H   0  0  0  0  0  0  0  0  0  0  0  0
   41.5191   35.0223   43.5579 H   0  0  0  0  0  0  0  0  0  0  0  0
   42.7560   35.9231   42.8595 H   0  0  0  0  0  0  0  0  0  0  0  0
   44.3655   32.8847   41.4613 H   0  0  0  0  0  0  0  0  0  0  0  0
   47.0181   35.3157   42.3555 H   0  0  0  0  0  0  0  0  0  0  0  0
   49.0949   35.6421   40.9545 H   0  0  0  0  0  0  0  0  0  0  0  0
   47.3968   33.0829   37.9516 H   0  0  0  0  0  0  0  0  0  0  0  0
   45.3841   34.7783   43.5075 H   0  0  0  0  0  0  0  0  0  0  0  0
   44.3216   33.2706   43.6249 H   0  0  0  0  0  0  0  0  0  0  0  0
   45.5310   31.3092   42.4934 H   0  0  0  0  0  0  0  0  0  0  0  0
   47.0243   31.0035   43.4786 H   0  0  0  0  0  0  0  0  0  0  0  0
   44.2157   31.5185   44.5337 H   0  0  0  0  0  0  0  0  0  0  0  0
   45.1159   29.9572   44.5442 H   0  0  0  0  0  0  0  0  0  0  0  0
   45.2659   31.0577   46.6359 H   0  0  0  0  0  0  0  0  0  0  0  0
   44.9045   33.2840   45.7828 H   0  0  0  0  0  0  0  0  0  0  0  0
   46.2879   33.1777   46.8937 H   0  0  0  0  0  0  0  0  0  0  0  0
   47.8083   32.8133   44.9229 H   0  0  0  0  0  0  0  0  0  0  0  0
   46.9077   34.3902   44.8346 H   0  0  0  0  0  0  0  0  0  0  0  0
  1  9  1  0
  2  1  1  0
  2  7  1  0
  3  2  1  0
  4  5  1  0
  4  3  1  0
  5  6  1  0
  6  7  1  0
  7  8  1  0
  9 16  1  0
 10 11  2  0
 10  9  1  0
 12 11  1  0
 13 12  2  0
 14 13  1  0
 14 15  2  0
 15 10  1  0
 16 17  1  0
 17 22  1  0
 18 17  1  0
 18 19  1  0
 19 20  1  0
 20 21  1  0
 22 21  1  0
  1 23  1  0
  1 24  1  0
  3 25  1  0
  3 26  1  0
  4 27  1  0
  4 28  1  0
  5 29  1  0
  5 30  1  0
  6 31  1  0
  6 32  1  0
  7 33  1  1
  8 34  1  0
  8 35  1  0
  9 36  1  6
 11 37  1  0
 12 38  1  0
 14 39  1  0
 16 40  1  0
 16 41  1  0
 18 42  1  0
 18 43  1  0
 19 44  1  0
 19 45  1  0
 20 46  1  0
 21 47  1  0
 21 48  1  0
 22 49  1  0
 22 50  1  0
M  ISO  8  23   8  24   8  25  13  26  13  27  13  28  13  29  13  30  13
M  ISO  8  31  13  32  13  33  13  34   5  35   5  36   8  37  14  38  14
M  ISO  8  39  14  40   8  41   8  42  13  43  13  44  13  45  13  46   5
M  ISO  4  47  13  48  13  49  13  50  13
M  END
>  <minimizedAffinity>  (1) 
-5.09578991

>  <minimizedRMSD>  (1) 
1.39785635

$$$$
