
     RDKit          3D

 42 45  0  0  1  0  0  0  0  0999 V2000
   44.5910   35.7420   44.8020 C   0  0  0  0  0  0  0  0  0  0  0  0
   45.1260   35.4680   43.5190 C   0  0  0  0  0  0  0  0  0  0  0  0
   45.9010   34.2870   43.3670 C   0  0  0  0  0  0  0  0  0  0  0  0
   46.0730   33.5050   44.4570 N   0  0  0  0  0  0  0  0  0  0  0  0
   45.5430   33.8100   45.6490 C   0  0  0  0  0  0  0  0  0  0  0  0
   44.8060   34.9220   45.8190 N   0  0  0  0  0  0  0  0  0  0  0  0
   45.7610   32.8910   46.6870 N   0  0  0  0  0  0  0  0  0  0  0  0
   44.9450   32.7630   47.8840 C   0  0  0  0  0  0  0  0  0  0  0  0
   46.0100   32.4000   48.9000 C   0  0  0  0  0  0  0  0  0  0  0  0
   46.6790   31.2880   48.1310 C   0  0  0  0  0  0  0  0  0  0  0  0
   46.8370   31.8980   46.7380 C   0  0  1  0  0  0  0  0  0  0  0  0
   46.6860   30.8610   45.7140 C   0  0  0  0  0  0  0  0  0  0  0  0
   47.9220   30.6860   45.2530 O   0  0  0  0  0  0  0  0  0  0  0  0
   45.6470   30.0370   45.1280 C   0  0  0  0  0  0  0  0  0  0  0  0
   45.0520   30.3250   43.9160 C   0  0  0  0  0  0  0  0  0  0  0  0
   43.9800   29.6890   43.3370 C   0  0  0  0  0  0  0  0  0  0  0  0
   43.4360   28.6450   44.0460 C   0  0  0  0  0  0  0  0  0  0  0  0
   43.9890   28.3110   45.2610 C   0  0  0  0  0  0  0  0  0  0  0  0
   43.4160   27.2480   45.9210 C   0  0  0  0  0  0  0  0  0  0  0  0
   43.8660   26.7820   47.1370 C   0  0  0  0  0  0  0  0  0  0  0  0
   44.9610   27.4670   47.6750 C   0  0  0  0  0  0  0  0  0  0  0  0
   45.5030   28.5230   46.9840 C   0  0  0  0  0  0  0  0  0  0  0  0
   45.0610   28.9900   45.7800 C   0  0  0  0  0  0  0  0  0  0  0  0
   43.9882   36.6493   44.9554 H   0  0  0  0  0  0  0  0  0  0  0  0
   44.9477   36.1454   42.6709 H   0  0  0  0  0  0  0  0  0  0  0  0
   46.3453   34.0182   42.3973 H   0  0  0  0  0  0  0  0  0  0  0  0
   44.4450   33.7091   48.1388 H   0  0  0  0  0  0  0  0  0  0  0  0
   44.1197   32.0402   47.8036 H   0  0  0  0  0  0  0  0  0  0  0  0
   46.6953   33.2369   49.0998 H   0  0  0  0  0  0  0  0  0  0  0  0
   45.6443   32.1356   49.9032 H   0  0  0  0  0  0  0  0  0  0  0  0
   47.6565   31.0349   48.5674 H   0  0  0  0  0  0  0  0  0  0  0  0
   46.1094   30.3470   48.1358 H   0  0  0  0  0  0  0  0  0  0  0  0
   47.8235   32.3478   46.5520 H   0  0  0  0  0  0  0  0  0  0  0  0
   46.8597   30.0851   46.4741 H   0  0  0  0  0  0  0  0  0  0  0  0
   48.5487   30.5973   46.0143 H   0  0  0  0  0  0  0  0  0  0  0  0
   45.4864   31.1606   43.3476 H   0  0  0  0  0  0  0  0  0  0  0  0
   43.5797   29.9985   42.3603 H   0  0  0  0  0  0  0  0  0  0  0  0
   42.5749   28.0869   43.6498 H   0  0  0  0  0  0  0  0  0  0  0  0
   42.5559   26.7454   45.4545 H   0  0  0  0  0  0  0  0  0  0  0  0
   43.3965   25.9296   47.6498 H   0  0  0  0  0  0  0  0  0  0  0  0
   45.3843   27.1623   48.6435 H   0  0  0  0  0  0  0  0  0  0  0  0
   46.3643   29.0346   47.4383 H   0  0  0  0  0  0  0  0  0  0  0  0
  1  6  2  0
  2  1  1  0
  3  2  2  0
  3  4  1  0
  4  5  2  0
  5  6  1  0
  5  7  1  0
  7 11  1  0
  7  8  1  0
  8  9  1  0
 10  9  1  0
 11 10  1  0
 12 13  1  0
 12 11  1  0
 14 12  1  0
 14 23  1  0
 15 14  2  0
 16 15  1  0
 16 17  2  0
 17 18  1  0
 18 23  2  0
 18 19  1  0
 19 20  2  0
 20 21  1  0
 22 21  2  0
 23 22  1  0
  1 24  1  0
  2 25  1  0
  3 26  1  0
  8 27  1  0
  8 28  1  0
  9 29  1  0
  9 30  1  0
 10 31  1  0
 10 32  1  0
 11 33  1  1
 12 34  1  0
 13 35  1  0
 15 36  1  0
 16 37  1  0
 17 38  1  0
 19 39  1  0
 20 40  1  0
 21 41  1  0
 22 42  1  0
M  ISO  8  24  14  25  14  26  14  27  13  28  13  29  13  30  13  31  13
M  ISO  8  32  13  33  13  34   8  35   3  36  14  37  14  38  14  39  14
M  ISO  3  40  14  41  14  42  14
M  END
>  <minimizedAffinity>  (1) 
-5.60069084

>  <minimizedRMSD>  (1) 
1.86708212

$$$$
