
     RDKit          3D

 37 39  0  0  1  0  0  0  0  0999 V2000
   44.5070   35.8080   44.8340 C   0  0  0  0  0  0  0  0  0  0  0  0
   45.1910   35.6900   43.5900 C   0  0  0  0  0  0  0  0  0  0  0  0
   46.1120   34.6250   43.4370 C   0  0  0  0  0  0  0  0  0  0  0  0
   46.2740   33.7950   44.4880 N   0  0  0  0  0  0  0  0  0  0  0  0
   45.6050   33.9400   45.6540 C   0  0  0  0  0  0  0  0  0  0  0  0
   44.7290   34.9440   45.8150 N   0  0  0  0  0  0  0  0  0  0  0  0
   45.8670   32.9950   46.6650 N   0  0  0  0  0  0  0  0  0  0  0  0
   44.9780   32.6790   47.7490 C   0  0  0  0  0  0  0  0  0  0  0  0
   45.9900   32.3910   48.8470 C   0  0  0  0  0  0  0  0  0  0  0  0
   46.8620   31.4150   48.0840 C   0  0  0  0  0  0  0  0  0  0  0  0
   47.0730   32.1790   46.7860 C   0  0  1  0  0  0  0  0  0  0  0  0
   47.2550   31.2650   45.6430 C   0  0  0  0  0  0  0  0  0  0  0  0
   46.4510   30.3140   45.6600 O   0  0  0  0  0  0  0  0  0  0  0  0
   47.7210   30.6450   44.4540 N   0  0  0  0  0  0  0  0  0  0  0  0
   47.0250   30.6660   43.1920 C   0  0  0  0  0  0  0  0  0  0  0  0
   47.8600   31.3440   42.1010 C   0  0  0  0  0  0  0  0  0  0  0  0
   48.8950   30.4260   41.8390 O   0  0  0  0  0  0  0  0  0  0  0  0
   49.6690   30.3770   42.9680 C   0  0  0  0  0  0  0  0  0  0  0  0
   48.9520   29.8810   44.2020 C   0  0  0  0  0  0  0  0  0  0  0  0
   43.7862   36.6255   44.9825 H   0  0  0  0  0  0  0  0  0  0  0  0
   45.0094   36.4041   42.7733 H   0  0  0  0  0  0  0  0  0  0  0  0
   46.6714   34.4808   42.5009 H   0  0  0  0  0  0  0  0  0  0  0  0
   44.3288   33.5292   48.0053 H   0  0  0  0  0  0  0  0  0  0  0  0
   44.2715   31.8610   47.5446 H   0  0  0  0  0  0  0  0  0  0  0  0
   46.5421   33.2926   49.1509 H   0  0  0  0  0  0  0  0  0  0  0  0
   45.5769   32.0254   49.7987 H   0  0  0  0  0  0  0  0  0  0  0  0
   47.8133   31.2295   48.6041 H   0  0  0  0  0  0  0  0  0  0  0  0
   46.4239   30.4139   47.9580 H   0  0  0  0  0  0  0  0  0  0  0  0
   47.9867   32.7915   46.7908 H   0  0  0  0  0  0  0  0  0  0  0  0
   46.8090   29.6318   42.8858 H   0  0  0  0  0  0  0  0  0  0  0  0
   46.0948   31.2390   43.3206 H   0  0  0  0  0  0  0  0  0  0  0  0
   47.2555   31.5186   41.1987 H   0  0  0  0  0  0  0  0  0  0  0  0
   48.2385   32.3293   42.4108 H   0  0  0  0  0  0  0  0  0  0  0  0
   50.5188   29.7065   42.7724 H   0  0  0  0  0  0  0  0  0  0  0  0
   49.9754   31.4118   43.1807 H   0  0  0  0  0  0  0  0  0  0  0  0
   48.6927   28.8211   44.0629 H   0  0  0  0  0  0  0  0  0  0  0  0
   49.6212   30.0105   45.0653 H   0  0  0  0  0  0  0  0  0  0  0  0
  1  6  2  0
  2  1  1  0
  3  2  2  0
  3  4  1  0
  4  5  2  0
  5  6  1  0
  5  7  1  0
  7 11  1  0
  7  8  1  0
  8  9  1  0
 10  9  1  0
 11 10  1  0
 12 13  2  0
 12 11  1  0
 14 12  1  0
 15 14  1  0
 16 15  1  0
 17 16  1  0
 17 18  1  0
 18 19  1  0
 19 14  1  0
  1 20  1  0
  2 21  1  0
  3 22  1  0
  8 23  1  0
  8 24  1  0
  9 25  1  0
  9 26  1  0
 10 27  1  0
 10 28  1  0
 11 29  1  1
 15 30  1  0
 15 31  1  0
 16 32  1  0
 16 33  1  0
 18 34  1  0
 18 35  1  0
 19 36  1  0
 19 37  1  0
M  ISO  8  20  14  21  14  22  14  23  13  24  13  25  13  26  13  27  13
M  ISO  8  28  13  29  13  30  13  31  13  32  13  33  13  34  13  35  13
M  ISO  2  36  13  37  13
M  END
>  <minimizedAffinity>  (1) 
-4.98547125

>  <minimizedRMSD>  (1) 
1.70950365

$$$$
