
     RDKit          3D

 40 43  0  0  1  0  0  0  0  0999 V2000
   44.4990   35.8660   44.8760 C   0  0  0  0  0  0  0  0  0  0  0  0
   45.0360   35.6640   43.5800 C   0  0  0  0  0  0  0  0  0  0  0  0
   45.8480   34.5310   43.3500 C   0  0  0  0  0  0  0  0  0  0  0  0
   46.0550   33.7070   44.4140 N   0  0  0  0  0  0  0  0  0  0  0  0
   45.5290   33.9290   45.6300 C   0  0  0  0  0  0  0  0  0  0  0  0
   44.7610   35.0040   45.8430 N   0  0  0  0  0  0  0  0  0  0  0  0
   45.8210   32.9920   46.6210 N   0  0  0  0  0  0  0  0  0  0  0  0
   44.9800   32.7110   47.7500 C   0  0  0  0  0  0  0  0  0  0  0  0
   46.0130   32.3520   48.8020 C   0  0  0  0  0  0  0  0  0  0  0  0
   46.8870   31.4030   48.0160 C   0  0  0  0  0  0  0  0  0  0  0  0
   46.9920   32.1350   46.7140 C   0  0  1  0  0  0  0  0  0  0  0  0
   47.2360   31.2940   45.5550 C   0  0  0  0  0  0  0  0  0  0  0  0
   46.4790   30.4540   45.1550 O   0  0  0  0  0  0  0  0  0  0  0  0
   47.7550   30.5920   44.3480 C   0  0  0  0  0  0  0  0  0  0  0  0
   48.4270   31.5470   43.3790 C   0  0  0  0  0  0  0  0  0  0  0  0
   48.6720   30.7840   42.0840 C   0  0  0  0  0  0  0  0  0  0  0  0
   49.6980   29.7310   42.3630 C   0  0  0  0  0  0  0  0  0  0  0  0
   50.0320   29.6290   43.8340 C   0  0  0  0  0  0  0  0  0  0  0  0
   48.8160   29.5500   44.6990 C   0  0  0  0  0  0  0  0  0  0  0  0
   43.8636   36.7411   45.0772 H   0  0  0  0  0  0  0  0  0  0  0  0
   44.8245   36.3759   42.7686 H   0  0  0  0  0  0  0  0  0  0  0  0
   46.2896   34.3254   42.3637 H   0  0  0  0  0  0  0  0  0  0  0  0
   44.3930   33.5932   48.0454 H   0  0  0  0  0  0  0  0  0  0  0  0
   44.2273   31.9294   47.5699 H   0  0  0  0  0  0  0  0  0  0  0  0
   46.5739   33.2362   49.1389 H   0  0  0  0  0  0  0  0  0  0  0  0
   45.5965   31.9308   49.7289 H   0  0  0  0  0  0  0  0  0  0  0  0
   47.8718   31.2735   48.4886 H   0  0  0  0  0  0  0  0  0  0  0  0
   46.4910   30.3801   47.9337 H   0  0  0  0  0  0  0  0  0  0  0  0
   47.9032   32.7512   46.7041 H   0  0  0  0  0  0  0  0  0  0  0  0
   46.7482   32.0403   44.9107 H   0  0  0  0  0  0  0  0  0  0  0  0
   47.7734   32.4110   43.1885 H   0  0  0  0  0  0  0  0  0  0  0  0
   49.3744   31.9200   43.7953 H   0  0  0  0  0  0  0  0  0  0  0  0
   49.0417   31.4711   41.3086 H   0  0  0  0  0  0  0  0  0  0  0  0
   47.7386   30.3265   41.7241 H   0  0  0  0  0  0  0  0  0  0  0  0
   49.3105   28.7602   42.0204 H   0  0  0  0  0  0  0  0  0  0  0  0
   50.6182   30.0084   41.8280 H   0  0  0  0  0  0  0  0  0  0  0  0
   50.6375   28.7249   43.9952 H   0  0  0  0  0  0  0  0  0  0  0  0
   50.5792   30.5413   44.1138 H   0  0  0  0  0  0  0  0  0  0  0  0
   49.1213   29.7014   45.7449 H   0  0  0  0  0  0  0  0  0  0  0  0
   48.3655   28.5596   44.5375 H   0  0  0  0  0  0  0  0  0  0  0  0
  1  6  2  0
  2  1  1  0
  3  2  2  0
  3  4  1  0
  4  5  2  0
  5  6  1  0
  5  7  1  0
  7 11  1  0
  7  8  1  0
  8  9  1  0
 10  9  1  0
 11 10  1  0
 12 13  1  0
 12 11  1  0
 14 19  1  0
 14 13  1  0
 14 12  1  0
 15 14  1  0
 16 17  1  0
 16 15  1  0
 17 18  1  0
 18 19  1  0
  1 20  1  0
  2 21  1  0
  3 22  1  0
  8 23  1  0
  8 24  1  0
  9 25  1  0
  9 26  1  0
 10 27  1  0
 10 28  1  0
 11 29  1  1
 12 30  1  0
 15 31  1  0
 15 32  1  0
 16 33  1  0
 16 34  1  0
 17 35  1  0
 17 36  1  0
 18 37  1  0
 18 38  1  0
 19 39  1  0
 19 40  1  0
M  ISO  8  20  14  21  14  22  14  23  13  24  13  25  13  26  13  27  13
M  ISO  8  28  13  29  13  30  13  31  13  32  13  33  13  34  13  35  13
M  ISO  5  36  13  37  13  38  13  39  13  40  13
M  END
>  <minimizedAffinity>  (1) 
-4.82327414

>  <minimizedRMSD>  (1) 
0.681352258

$$$$
