
     RDKit          3D

 37 40  0  0  1  0  0  0  0  0999 V2000
   44.4460   35.9180   44.8690 C   0  0  0  0  0  0  0  0  0  0  0  0
   44.8810   35.7520   43.5350 C   0  0  0  0  0  0  0  0  0  0  0  0
   45.6580   34.6130   43.2500 C   0  0  0  0  0  0  0  0  0  0  0  0
   45.9330   33.7630   44.2780 N   0  0  0  0  0  0  0  0  0  0  0  0
   45.4970   33.9650   45.5300 C   0  0  0  0  0  0  0  0  0  0  0  0
   44.7530   35.0480   45.8180 N   0  0  0  0  0  0  0  0  0  0  0  0
   45.8450   33.0140   46.4890 N   0  0  0  0  0  0  0  0  0  0  0  0
   45.0820   32.6820   47.6530 C   0  0  0  0  0  0  0  0  0  0  0  0
   46.1880   32.3570   48.6410 C   0  0  0  0  0  0  0  0  0  0  0  0
   47.0480   31.4440   47.7910 C   0  0  0  0  0  0  0  0  0  0  0  0
   47.0440   32.1850   46.4920 C   0  0  1  0  0  0  0  0  0  0  0  0
   47.2580   31.3810   45.3080 C   0  0  0  0  0  0  0  0  0  0  0  0
   46.5240   30.5200   44.9470 O   0  0  0  0  0  0  0  0  0  0  0  0
   47.7590   30.7530   44.0710 C   0  0  0  0  0  0  0  0  0  0  0  0
   48.4900   31.8170   43.2270 C   0  0  0  0  0  0  0  0  0  0  0  0
   49.1630   30.9510   42.1520 C   0  0  0  0  0  0  0  0  0  0  0  0
   49.2210   29.5620   42.7330 C   0  0  0  0  0  0  0  0  0  0  0  0
   48.9160   29.8030   44.2190 C   0  0  0  0  0  0  0  0  0  0  0  0
   43.8346   36.7955   45.1262 H   0  0  0  0  0  0  0  0  0  0  0  0
   44.6237   36.4813   42.7527 H   0  0  0  0  0  0  0  0  0  0  0  0
   46.0296   34.4167   42.2335 H   0  0  0  0  0  0  0  0  0  0  0  0
   44.4734   33.5327   47.9933 H   0  0  0  0  0  0  0  0  0  0  0  0
   44.3552   31.8701   47.5026 H   0  0  0  0  0  0  0  0  0  0  0  0
   46.7351   33.2594   48.9513 H   0  0  0  0  0  0  0  0  0  0  0  0
   45.8449   31.9167   49.5889 H   0  0  0  0  0  0  0  0  0  0  0  0
   48.0648   31.3492   48.1999 H   0  0  0  0  0  0  0  0  0  0  0  0
   46.6854   30.4076   47.7253 H   0  0  0  0  0  0  0  0  0  0  0  0
   47.9361   32.8254   46.4278 H   0  0  0  0  0  0  0  0  0  0  0  0
   46.6946   32.1122   44.7097 H   0  0  0  0  0  0  0  0  0  0  0  0
   47.7822   32.5315   42.7815 H   0  0  0  0  0  0  0  0  0  0  0  0
   49.1905   32.4402   43.8023 H   0  0  0  0  0  0  0  0  0  0  0  0
   50.1766   31.3213   41.9389 H   0  0  0  0  0  0  0  0  0  0  0  0
   48.6077   30.9737   41.2027 H   0  0  0  0  0  0  0  0  0  0  0  0
   48.4646   28.9084   42.2740 H   0  0  0  0  0  0  0  0  0  0  0  0
   50.1834   29.0576   42.5617 H   0  0  0  0  0  0  0  0  0  0  0  0
   49.7646   30.2653   44.7445 H   0  0  0  0  0  0  0  0  0  0  0  0
   48.7131   28.8995   44.8128 H   0  0  0  0  0  0  0  0  0  0  0  0
  1  6  2  0
  2  1  1  0
  3  2  2  0
  3  4  1  0
  4  5  2  0
  5  6  1  0
  5  7  1  0
  7 11  1  0
  7  8  1  0
  8  9  1  0
 10  9  1  0
 11 10  1  0
 12 13  1  0
 12 11  1  0
 14 18  1  0
 14 13  1  0
 14 12  1  0
 15 14  1  0
 16 17  1  0
 16 15  1  0
 17 18  1  0
  1 19  1  0
  2 20  1  0
  3 21  1  0
  8 22  1  0
  8 23  1  0
  9 24  1  0
  9 25  1  0
 10 26  1  0
 10 27  1  0
 11 28  1  1
 12 29  1  0
 15 30  1  0
 15 31  1  0
 16 32  1  0
 16 33  1  0
 17 34  1  0
 17 35  1  0
 18 36  1  0
 18 37  1  0
M  ISO  8  19  14  20  14  21  14  22  13  23  13  24  13  25  13  26  13
M  ISO  8  27  13  28  13  29  13  30  13  31  13  32  13  33  13  34  13
M  ISO  3  35  13  36  13  37  13
M  END
>  <minimizedAffinity>  (1) 
-4.63474989

>  <minimizedRMSD>  (1) 
0.7972911

$$$$
