
     RDKit          3D

 31 33  0  0  1  0  0  0  0  0999 V2000
   44.5700   35.6920   44.8450 C   0  0  0  0  0  0  0  0  0  0  0  0
   45.1030   35.4720   43.5350 C   0  0  0  0  0  0  0  0  0  0  0  0
   45.9140   34.3290   43.3360 C   0  0  0  0  0  0  0  0  0  0  0  0
   46.1210   33.5310   44.4100 N   0  0  0  0  0  0  0  0  0  0  0  0
   45.5990   33.7740   45.6310 C   0  0  0  0  0  0  0  0  0  0  0  0
   44.8300   34.8510   45.8400 N   0  0  0  0  0  0  0  0  0  0  0  0
   45.8980   32.8430   46.6260 N   0  0  0  0  0  0  0  0  0  0  0  0
   45.0910   32.6340   47.8250 C   0  0  0  0  0  0  0  0  0  0  0  0
   46.1860   32.2740   48.8180 C   0  0  0  0  0  0  0  0  0  0  0  0
   46.8840   31.2110   47.9940 C   0  0  0  0  0  0  0  0  0  0  0  0
   47.0380   31.9150   46.6490 C   0  0  1  0  0  0  0  0  0  0  0  0
   46.8910   30.9110   45.5580 C   0  0  0  0  0  0  0  0  0  0  0  0
   47.9670   30.9050   44.8610 O   0  0  0  0  0  0  0  0  0  0  0  0
   45.9450   29.9060   44.9930 C   0  0  0  0  0  0  0  0  0  0  0  0
   44.8190   29.4000   45.8070 C   0  0  0  0  0  0  0  0  0  0  0  0
   45.9720   28.5010   45.5810 C   0  0  0  0  0  0  0  0  0  0  0  0
   43.9353   36.5710   45.0308 H   0  0  0  0  0  0  0  0  0  0  0  0
   44.8895   36.1679   42.7103 H   0  0  0  0  0  0  0  0  0  0  0  0
   46.3553   34.0999   42.3548 H   0  0  0  0  0  0  0  0  0  0  0  0
   44.5550   33.5478   48.1212 H   0  0  0  0  0  0  0  0  0  0  0  0
   44.2926   31.8843   47.7224 H   0  0  0  0  0  0  0  0  0  0  0  0
   46.8439   33.1274   49.0390 H   0  0  0  0  0  0  0  0  0  0  0  0
   45.8460   31.9621   49.8166 H   0  0  0  0  0  0  0  0  0  0  0  0
   47.8620   30.9484   48.4236 H   0  0  0  0  0  0  0  0  0  0  0  0
   46.3379   30.2577   47.9395 H   0  0  0  0  0  0  0  0  0  0  0  0
   48.0080   32.4164   46.5161 H   0  0  0  0  0  0  0  0  0  0  0  0
   46.0283   30.3553   43.9924 H   0  0  0  0  0  0  0  0  0  0  0  0
   44.6417   29.8165   46.8096 H   0  0  0  0  0  0  0  0  0  0  0  0
   43.7349   29.3111   45.6434 H   0  0  0  0  0  0  0  0  0  0  0  0
   45.8693   27.6247   44.9240 H   0  0  0  0  0  0  0  0  0  0  0  0
   46.6611   27.9335   46.2237 H   0  0  0  0  0  0  0  0  0  0  0  0
  1  6  2  0
  2  1  1  0
  3  2  2  0
  3  4  1  0
  4  5  2  0
  5  6  1  0
  5  7  1  0
  7 11  1  0
  7  8  1  0
  8  9  1  0
 10  9  1  0
 11 10  1  0
 12 11  1  0
 13 12  2  0
 14 12  1  0
 14 16  1  0
 14 15  1  0
 16 15  1  0
  1 17  1  0
  2 18  1  0
  3 19  1  0
  8 20  1  0
  8 21  1  0
  9 22  1  0
  9 23  1  0
 10 24  1  0
 10 25  1  0
 11 26  1  1
 14 27  1  0
 15 28  1  0
 15 29  1  0
 16 30  1  0
 16 31  1  0
M  ISO  8  17  14  18  14  19  14  20  13  21  13  22  13  23  13  24  13
M  ISO  7  25  13  26  13  27  13  28  13  29  13  30  13  31  13
M  END
>  <minimizedAffinity>  (1) 
-4.33820581

>  <minimizedRMSD>  (1) 
1.10379291

$$$$
