
     RDKit          3D

 27 28  0  0  0  0  0  0  0  0999 V2000
   46.6630   34.7580   41.9730 C   0  0  0  0  0  0  0  0  0  0  0  0
   47.8890   35.3500   41.8470 C   0  0  0  0  0  0  0  0  0  0  0  0
   48.6450   35.2070   40.6890 C   0  0  0  0  0  0  0  0  0  0  0  0
   48.1510   34.4510   39.6330 C   0  0  0  0  0  0  0  0  0  0  0  0
   46.9120   33.8590   39.7700 C   0  0  0  0  0  0  0  0  0  0  0  0
   46.1470   33.9970   40.9300 C   0  0  0  0  0  0  0  0  0  0  0  0
   44.5150   36.1280   44.7470 C   0  0  0  0  0  0  0  0  0  0  0  0
   45.1520   36.0630   43.5080 C   0  0  0  0  0  0  0  0  0  0  0  0
   45.9350   34.9600   43.2290 C   0  0  0  0  0  0  0  0  0  0  0  0
   46.0500   33.9830   44.1790 N   0  0  0  0  0  0  0  0  0  0  0  0
   45.4120   34.0810   45.3790 C   0  0  0  0  0  0  0  0  0  0  0  0
   44.6540   35.1440   45.6540 N   0  0  0  0  0  0  0  0  0  0  0  0
   44.8660   33.3910   41.0610 N   0  0  0  0  0  0  0  0  0  0  0  0
   43.6410   34.0450   40.8690 C   0  0  0  0  0  0  0  0  0  0  0  0
   43.5960   34.8050   39.7990 N   0  0  0  0  0  0  0  0  0  0  0  0
   42.5800   33.8330   41.8250 N   0  0  0  0  0  0  0  0  0  0  0  0
   42.6790   35.2850   39.6700 H   0  0  0  0  0  0  0  0  0  0  0  0
   48.2851   35.9515   42.6785 H   0  0  0  0  0  0  0  0  0  0  0  0
   49.6299   35.6902   40.6091 H   0  0  0  0  0  0  0  0  0  0  0  0
   48.7344   34.3272   38.7087 H   0  0  0  0  0  0  0  0  0  0  0  0
   46.5141   33.2589   38.9384 H   0  0  0  0  0  0  0  0  0  0  0  0
   43.8878   36.9992   44.9869 H   0  0  0  0  0  0  0  0  0  0  0  0
   45.0336   36.8708   42.7708 H   0  0  0  0  0  0  0  0  0  0  0  0
   45.5224   33.2798   46.1246 H   0  0  0  0  0  0  0  0  0  0  0  0
   44.8366   32.3937   41.3169 H   0  0  0  0  0  0  0  0  0  0  0  0
   41.6729   34.3049   41.7007 H   0  0  0  0  0  0  0  0  0  0  0  0
   42.7302   33.2099   42.6313 H   0  0  0  0  0  0  0  0  0  0  0  0
  1  9  1  0
  2  1  2  0
  3  2  1  0
  4  5  1  0
  4  3  2  0
  5  6  2  0
  6 13  1  0
  6  1  1  0
  7 12  2  0
  8  7  1  0
  9  8  2  0
  9 10  1  0
 10 11  2  0
 11 12  1  0
 14 13  1  0
 14 16  1  0
 15 14  2  0
 17 15  1  0
  2 18  1  0
  3 19  1  0
  4 20  1  0
  5 21  1  0
  7 22  1  0
  8 23  1  0
 11 24  1  0
 13 25  1  0
 16 26  1  0
 16 27  1  0
M  ISO  7  18  14  19  14  20  14  21  14  22  14  23  14  24  14
M  END
>  <minimizedAffinity>  (1) 
-5.8310504

>  <minimizedRMSD>  (1) 
0.96841073

$$$$
