
     RDKit          3D

 28 30  0  0  0  0  0  0  0  0999 V2000
   46.6500   34.7930   42.0660 C   0  0  0  0  0  0  0  0  0  0  0  0
   47.9330   35.2790   42.0070 C   0  0  0  0  0  0  0  0  0  0  0  0
   48.7130   35.1490   40.8500 C   0  0  0  0  0  0  0  0  0  0  0  0
   48.1770   34.5120   39.7320 C   0  0  0  0  0  0  0  0  0  0  0  0
   46.8720   34.0160   39.7890 C   0  0  0  0  0  0  0  0  0  0  0  0
   46.1380   34.1680   40.9560 C   0  0  0  0  0  0  0  0  0  0  0  0
   44.4490   36.1030   44.8180 C   0  0  0  0  0  0  0  0  0  0  0  0
   45.0860   36.0520   43.5690 C   0  0  0  0  0  0  0  0  0  0  0  0
   45.9220   34.9780   43.3170 C   0  0  0  0  0  0  0  0  0  0  0  0
   46.0870   34.0290   44.2790 N   0  0  0  0  0  0  0  0  0  0  0  0
   45.4600   34.0990   45.4820 C   0  0  0  0  0  0  0  0  0  0  0  0
   44.6480   35.1400   45.7310 N   0  0  0  0  0  0  0  0  0  0  0  0
   44.7670   33.6710   41.0810 C   0  0  0  0  0  0  0  0  0  0  0  0
   43.7010   34.4280   40.5970 C   0  0  0  0  0  0  0  0  0  0  0  0
   42.4080   33.9750   40.7070 C   0  0  0  0  0  0  0  0  0  0  0  0
   42.1930   32.7660   41.3020 N   0  0  0  0  0  0  0  0  0  0  0  0
   43.2290   32.0240   41.7770 C   0  0  0  0  0  0  0  0  0  0  0  0
   44.4970   32.4730   41.6660 N   0  0  0  0  0  0  0  0  0  0  0  0
   48.3582   35.7819   42.8881 H   0  0  0  0  0  0  0  0  0  0  0  0
   49.7386   35.5459   40.8243 H   0  0  0  0  0  0  0  0  0  0  0  0
   48.7747   34.4010   38.8152 H   0  0  0  0  0  0  0  0  0  0  0  0
   46.4313   33.5102   38.9173 H   0  0  0  0  0  0  0  0  0  0  0  0
   43.7781   36.9428   45.0517 H   0  0  0  0  0  0  0  0  0  0  0  0
   44.9266   36.8381   42.8163 H   0  0  0  0  0  0  0  0  0  0  0  0
   45.6145   33.3165   46.2395 H   0  0  0  0  0  0  0  0  0  0  0  0
   43.8972   35.4001   40.1211 H   0  0  0  0  0  0  0  0  0  0  0  0
   41.5672   34.5724   40.3248 H   0  0  0  0  0  0  0  0  0  0  0  0
   43.0325   31.0526   42.2543 H   0  0  0  0  0  0  0  0  0  0  0  0
  1  9  1  0
  2  1  2  0
  3  2  1  0
  4  5  1  0
  4  3  2  0
  5  6  2  0
  6 13  1  0
  6  1  1  0
  7 12  2  0
  8  7  1  0
  9  8  2  0
  9 10  1  0
 10 11  2  0
 11 12  1  0
 13 18  2  0
 14 15  2  0
 14 13  1  0
 15 16  1  0
 16 17  2  0
 18 17  1  0
  2 19  1  0
  3 20  1  0
  4 21  1  0
  5 22  1  0
  7 23  1  0
  8 24  1  0
 11 25  1  0
 14 26  1  0
 15 27  1  0
 17 28  1  0
M  ISO  8  19  14  20  14  21  14  22  14  23  14  24  14  25  14  26  14
M  ISO  2  27  14  28  14
M  END
>  <minimizedAffinity>  (1) 
-5.79557753

>  <minimizedRMSD>  (1) 
0.880716205

$$$$
