
     RDKit          3D

 28 30  0  0  0  0  0  0  0  0999 V2000
   46.6430   34.7940   42.0800 C   0  0  0  0  0  0  0  0  0  0  0  0
   47.9340   35.2670   42.0170 C   0  0  0  0  0  0  0  0  0  0  0  0
   48.7030   35.1320   40.8550 C   0  0  0  0  0  0  0  0  0  0  0  0
   48.1510   34.5000   39.7290 C   0  0  0  0  0  0  0  0  0  0  0  0
   46.8570   34.0250   39.7930 C   0  0  0  0  0  0  0  0  0  0  0  0
   46.1360   34.1830   40.9640 C   0  0  0  0  0  0  0  0  0  0  0  0
   44.4540   36.0920   44.8430 C   0  0  0  0  0  0  0  0  0  0  0  0
   45.0870   36.0530   43.5890 C   0  0  0  0  0  0  0  0  0  0  0  0
   45.9180   34.9790   43.3270 C   0  0  0  0  0  0  0  0  0  0  0  0
   46.0870   34.0240   44.2760 N   0  0  0  0  0  0  0  0  0  0  0  0
   45.4570   34.0940   45.4840 C   0  0  0  0  0  0  0  0  0  0  0  0
   44.6500   35.1220   45.7580 N   0  0  0  0  0  0  0  0  0  0  0  0
   44.7680   33.6730   41.0100 C   0  0  0  0  0  0  0  0  0  0  0  0
   43.7150   34.4220   40.5100 C   0  0  0  0  0  0  0  0  0  0  0  0
   42.3990   34.0000   40.5220 C   0  0  0  0  0  0  0  0  0  0  0  0
   42.1360   32.7730   41.0600 N   0  0  0  0  0  0  0  0  0  0  0  0
   43.1630   32.0260   41.5560 C   0  0  0  0  0  0  0  0  0  0  0  0
   44.4190   32.4700   41.5250 N   0  0  0  0  0  0  0  0  0  0  0  0
   48.3704   35.7611   42.8976 H   0  0  0  0  0  0  0  0  0  0  0  0
   49.7325   35.5183   40.8242 H   0  0  0  0  0  0  0  0  0  0  0  0
   48.7421   34.3851   38.8085 H   0  0  0  0  0  0  0  0  0  0  0  0
   46.4037   33.5265   38.9235 H   0  0  0  0  0  0  0  0  0  0  0  0
   43.7848   36.9314   45.0828 H   0  0  0  0  0  0  0  0  0  0  0  0
   44.9276   36.8465   42.8441 H   0  0  0  0  0  0  0  0  0  0  0  0
   45.6138   33.3034   46.2325 H   0  0  0  0  0  0  0  0  0  0  0  0
   43.9393   35.4088   40.0789 H   0  0  0  0  0  0  0  0  0  0  0  0
   41.5941   34.6288   40.1136 H   0  0  0  0  0  0  0  0  0  0  0  0
   42.9507   31.0378   41.9901 H   0  0  0  0  0  0  0  0  0  0  0  0
  1  9  1  0
  2  1  2  0
  3  2  1  0
  4  5  1  0
  4  3  2  0
  5  6  2  0
  6 13  1  0
  6  1  1  0
  7 12  2  0
  8  7  1  0
  9  8  2  0
  9 10  1  0
 10 11  2  0
 11 12  1  0
 13 18  2  0
 14 15  2  0
 14 13  1  0
 15 16  1  0
 16 17  2  0
 18 17  1  0
  2 19  1  0
  3 20  1  0
  4 21  1  0
  5 22  1  0
  7 23  1  0
  8 24  1  0
 11 25  1  0
 14 26  1  0
 15 27  1  0
 17 28  1  0
M  ISO  8  19  14  20  14  21  14  22  14  23  14  24  14  25  14  26  14
M  ISO  2  27  14  28  14
M  END
>  <minimizedAffinity>  (1) 
-5.7377224

>  <minimizedRMSD>  (1) 
0.758149862

$$$$
