
     RDKit          3D

 29 31  0  0  0  0  0  0  0  0999 V2000
   46.6310   34.7870   42.0770 C   0  0  0  0  0  0  0  0  0  0  0  0
   47.9350   35.2100   42.0240 C   0  0  0  0  0  0  0  0  0  0  0  0
   48.7120   35.0580   40.8650 C   0  0  0  0  0  0  0  0  0  0  0  0
   48.1460   34.4640   39.7430 C   0  0  0  0  0  0  0  0  0  0  0  0
   46.8230   34.0340   39.7960 C   0  0  0  0  0  0  0  0  0  0  0  0
   46.0970   34.2050   40.9600 C   0  0  0  0  0  0  0  0  0  0  0  0
   44.4470   36.1400   44.8230 C   0  0  0  0  0  0  0  0  0  0  0  0
   45.0860   36.0620   43.5890 C   0  0  0  0  0  0  0  0  0  0  0  0
   45.9090   34.9850   43.3190 C   0  0  0  0  0  0  0  0  0  0  0  0
   46.0490   34.0470   44.2890 N   0  0  0  0  0  0  0  0  0  0  0  0
   45.4200   34.1360   45.4860 C   0  0  0  0  0  0  0  0  0  0  0  0
   44.6280   35.1700   45.7510 N   0  0  0  0  0  0  0  0  0  0  0  0
   44.7130   33.7420   40.9770 C   0  0  0  0  0  0  0  0  0  0  0  0
   43.6270   34.4650   40.5300 C   0  0  0  0  0  0  0  0  0  0  0  0
   42.3310   34.0010   40.5620 C   0  0  0  0  0  0  0  0  0  0  0  0
   42.1330   32.7330   41.0760 C   0  0  0  0  0  0  0  0  0  0  0  0
   43.2110   31.9910   41.5310 C   0  0  0  0  0  0  0  0  0  0  0  0
   44.4560   32.5000   41.4740 N   0  0  0  0  0  0  0  0  0  0  0  0
   48.3828   35.6800   42.9120 H   0  0  0  0  0  0  0  0  0  0  0  0
   49.7558   35.4046   40.8449 H   0  0  0  0  0  0  0  0  0  0  0  0
   48.7366   34.3352   38.8239 H   0  0  0  0  0  0  0  0  0  0  0  0
   46.3586   33.5615   38.9179 H   0  0  0  0  0  0  0  0  0  0  0  0
   43.7911   36.9944   45.0460 H   0  0  0  0  0  0  0  0  0  0  0  0
   44.9374   36.8499   42.8359 H   0  0  0  0  0  0  0  0  0  0  0  0
   45.5654   33.3495   46.2412 H   0  0  0  0  0  0  0  0  0  0  0  0
   43.8067   35.4714   40.1241 H   0  0  0  0  0  0  0  0  0  0  0  0
   41.4921   34.6109   40.1956 H   0  0  0  0  0  0  0  0  0  0  0  0
   41.1177   32.3124   41.1238 H   0  0  0  0  0  0  0  0  0  0  0  0
   43.0491   30.9828   41.9401 H   0  0  0  0  0  0  0  0  0  0  0  0
  1  9  1  0
  2  1  2  0
  3  2  1  0
  4  5  1  0
  4  3  2  0
  5  6  2  0
  6 13  1  0
  6  1  1  0
  7 12  2  0
  8  7  1  0
  9  8  2  0
  9 10  1  0
 10 11  2  0
 11 12  1  0
 13 18  2  0
 14 15  2  0
 14 13  1  0
 15 16  1  0
 16 17  2  0
 18 17  1  0
  2 19  1  0
  3 20  1  0
  4 21  1  0
  5 22  1  0
  7 23  1  0
  8 24  1  0
 11 25  1  0
 14 26  1  0
 15 27  1  0
 16 28  1  0
 17 29  1  0
M  ISO  8  19  14  20  14  21  14  22  14  23  14  24  14  25  14  26  14
M  ISO  3  27  14  28  14  29  14
M  END
>  <minimizedAffinity>  (1) 
-5.71204758

>  <minimizedRMSD>  (1) 
0.566684484

$$$$
