
     RDKit          3D

 36 38  0  0  0  0  0  0  0  0999 V2000
   46.6490   34.7800   42.0740 C   0  0  0  0  0  0  0  0  0  0  0  0
   47.9450   35.2780   42.0130 C   0  0  0  0  0  0  0  0  0  0  0  0
   48.7240   35.1750   40.8640 C   0  0  0  0  0  0  0  0  0  0  0  0
   48.1760   34.5460   39.7350 C   0  0  0  0  0  0  0  0  0  0  0  0
   46.8860   34.0470   39.7910 C   0  0  0  0  0  0  0  0  0  0  0  0
   46.1400   34.1720   40.9600 C   0  0  0  0  0  0  0  0  0  0  0  0
   44.4580   36.0720   44.8350 C   0  0  0  0  0  0  0  0  0  0  0  0
   45.0920   36.0280   43.5870 C   0  0  0  0  0  0  0  0  0  0  0  0
   45.9330   34.9460   43.3260 C   0  0  0  0  0  0  0  0  0  0  0  0
   46.1040   33.9850   44.2780 N   0  0  0  0  0  0  0  0  0  0  0  0
   45.4660   34.0700   45.4800 C   0  0  0  0  0  0  0  0  0  0  0  0
   44.6560   35.0970   45.7540 N   0  0  0  0  0  0  0  0  0  0  0  0
   44.7560   33.6340   41.0080 C   0  0  0  0  0  0  0  0  0  0  0  0
   43.7530   34.5970   40.4460 C   0  0  0  0  0  0  0  0  0  0  0  0
   42.3880   33.9880   40.5390 C   0  0  0  0  0  0  0  0  0  0  0  0
   42.3220   32.6770   39.8020 C   0  0  0  0  0  0  0  0  0  0  0  0
   43.3050   31.7210   40.4560 C   0  0  0  0  0  0  0  0  0  0  0  0
   44.6760   32.3630   40.1960 C   0  0  0  0  0  0  0  0  0  0  0  0
   48.3688   35.7694   42.9012 H   0  0  0  0  0  0  0  0  0  0  0  0
   49.7473   35.5779   40.8412 H   0  0  0  0  0  0  0  0  0  0  0  0
   48.7674   34.4503   38.8125 H   0  0  0  0  0  0  0  0  0  0  0  0
   46.4499   33.5513   38.9112 H   0  0  0  0  0  0  0  0  0  0  0  0
   43.7885   36.9118   45.0726 H   0  0  0  0  0  0  0  0  0  0  0  0
   44.9325   36.8186   42.8390 H   0  0  0  0  0  0  0  0  0  0  0  0
   45.6199   33.2835   46.2335 H   0  0  0  0  0  0  0  0  0  0  0  0
   44.5208   33.4516   42.0670 H   0  0  0  0  0  0  0  0  0  0  0  0
   43.9925   34.8065   39.3930 H   0  0  0  0  0  0  0  0  0  0  0  0
   43.7803   35.5373   41.0161 H   0  0  0  0  0  0  0  0  0  0  0  0
   42.1436   33.8165   41.5977 H   0  0  0  0  0  0  0  0  0  0  0  0
   41.6671   34.6806   40.0802 H   0  0  0  0  0  0  0  0  0  0  0  0
   42.5937   32.8278   38.7468 H   0  0  0  0  0  0  0  0  0  0  0  0
   41.3028   32.2655   39.8446 H   0  0  0  0  0  0  0  0  0  0  0  0
   43.1105   31.6380   41.5355 H   0  0  0  0  0  0  0  0  0  0  0  0
   43.2328   30.6993   40.0548 H   0  0  0  0  0  0  0  0  0  0  0  0
   45.4758   31.6729   40.5026 H   0  0  0  0  0  0  0  0  0  0  0  0
   44.7982   32.5844   39.1255 H   0  0  0  0  0  0  0  0  0  0  0  0
  1  9  1  0
  2  1  2  0
  3  2  1  0
  4  5  1  0
  4  3  2  0
  5  6  2  0
  6 13  1  0
  6  1  1  0
  7 12  2  0
  8  7  1  0
  9  8  2  0
  9 10  1  0
 10 11  2  0
 11 12  1  0
 14 15  1  0
 14 13  1  0
 16 17  1  0
 16 15  1  0
 18 17  1  0
 18 13  1  0
  2 19  1  0
  3 20  1  0
  4 21  1  0
  5 22  1  0
  7 23  1  0
  8 24  1  0
 11 25  1  0
 13 26  1  0
 14 27  1  0
 14 28  1  0
 15 29  1  0
 15 30  1  0
 16 31  1  0
 16 32  1  0
 17 33  1  0
 17 34  1  0
 18 35  1  0
 18 36  1  0
M  ISO  8  19  14  20  14  21  14  22  14  23  14  24  14  25  14  26  13
M  ISO  8  27  13  28  13  29  13  30  13  31  13  32  13  33  13  34  13
M  ISO  2  35  13  36  13
M  END
>  <minimizedAffinity>  (1) 
-5.67216635

>  <minimizedRMSD>  (1) 
1.30506003

$$$$
