
     RDKit          3D

 33 35  0  0  0  0  0  0  0  0999 V2000
   46.7090   34.8080   42.0070 C   0  0  0  0  0  0  0  0  0  0  0  0
   48.0020   35.3090   41.9780 C   0  0  0  0  0  0  0  0  0  0  0  0
   48.7870   35.1770   40.8120 C   0  0  0  0  0  0  0  0  0  0  0  0
   48.2590   34.5400   39.6930 C   0  0  0  0  0  0  0  0  0  0  0  0
   46.9680   34.0440   39.7330 C   0  0  0  0  0  0  0  0  0  0  0  0
   46.2190   34.1880   40.8910 C   0  0  0  0  0  0  0  0  0  0  0  0
   44.4630   36.1280   44.7200 C   0  0  0  0  0  0  0  0  0  0  0  0
   45.1320   36.0620   43.4890 C   0  0  0  0  0  0  0  0  0  0  0  0
   45.9680   34.9830   43.2400 C   0  0  0  0  0  0  0  0  0  0  0  0
   46.0950   34.0470   44.2000 N   0  0  0  0  0  0  0  0  0  0  0  0
   45.4470   34.1130   45.3910 C   0  0  0  0  0  0  0  0  0  0  0  0
   44.6340   35.1590   45.6390 N   0  0  0  0  0  0  0  0  0  0  0  0
   44.8730   33.6660   40.9240 N   0  0  0  0  0  0  0  0  0  0  0  0
   43.7080   34.4230   40.5090 C   0  0  0  0  0  0  0  0  0  0  0  0
   42.5970   34.1040   41.5020 C   0  0  0  0  0  0  0  0  0  0  0  0
   42.4290   32.7280   41.4860 O   0  0  0  0  0  0  0  0  0  0  0  0
   43.4960   32.1040   42.1290 C   0  0  0  0  0  0  0  0  0  0  0  0
   44.8030   32.3230   41.4090 C   0  0  0  0  0  0  0  0  0  0  0  0
   48.4166   35.8101   42.8651 H   0  0  0  0  0  0  0  0  0  0  0  0
   49.8118   35.5760   40.7881 H   0  0  0  0  0  0  0  0  0  0  0  0
   48.8649   34.4314   38.7814 H   0  0  0  0  0  0  0  0  0  0  0  0
   46.5397   33.5400   38.8541 H   0  0  0  0  0  0  0  0  0  0  0  0
   43.7955   36.9754   44.9356 H   0  0  0  0  0  0  0  0  0  0  0  0
   44.9964   36.8512   42.7348 H   0  0  0  0  0  0  0  0  0  0  0  0
   45.5837   33.3229   46.1441 H   0  0  0  0  0  0  0  0  0  0  0  0
   43.9314   35.5000   40.5242 H   0  0  0  0  0  0  0  0  0  0  0  0
   43.4093   34.1564   39.4845 H   0  0  0  0  0  0  0  0  0  0  0  0
   42.8823   34.4390   42.5101 H   0  0  0  0  0  0  0  0  0  0  0  0
   41.6640   34.6189   41.2295 H   0  0  0  0  0  0  0  0  0  0  0  0
   43.5810   32.5090   43.1482 H   0  0  0  0  0  0  0  0  0  0  0  0
   43.2956   31.0225   42.1429 H   0  0  0  0  0  0  0  0  0  0  0  0
   44.8739   31.6252   40.5616 H   0  0  0  0  0  0  0  0  0  0  0  0
   45.6346   32.1465   42.1070 H   0  0  0  0  0  0  0  0  0  0  0  0
  1  9  1  0
  2  1  2  0
  3  2  1  0
  4  5  1  0
  4  3  2  0
  5  6  2  0
  6 13  1  0
  6  1  1  0
  7 12  2  0
  8  7  1  0
  9  8  2  0
  9 10  1  0
 10 11  2  0
 11 12  1  0
 13 18  1  0
 14 13  1  0
 14 15  1  0
 16 15  1  0
 16 17  1  0
 18 17  1  0
  2 19  1  0
  3 20  1  0
  4 21  1  0
  5 22  1  0
  7 23  1  0
  8 24  1  0
 11 25  1  0
 14 26  1  0
 14 27  1  0
 15 28  1  0
 15 29  1  0
 17 30  1  0
 17 31  1  0
 18 32  1  0
 18 33  1  0
M  ISO  8  19  14  20  14  21  14  22  14  23  14  24  14  25  14  26  13
M  ISO  7  27  13  28  13  29  13  30  13  31  13  32  13  33  13
M  END
>  <minimizedAffinity>  (1) 
-5.62264538

>  <minimizedRMSD>  (1) 
0.34186554

$$$$
