
     RDKit          3D

 27 29  0  0  0  0  0  0  0  0999 V2000
   46.6530   34.7510   42.0870 C   0  0  0  0  0  0  0  0  0  0  0  0
   47.9930   35.0540   42.0950 C   0  0  0  0  0  0  0  0  0  0  0  0
   48.7690   34.8720   40.9450 C   0  0  0  0  0  0  0  0  0  0  0  0
   48.1790   34.3810   39.7850 C   0  0  0  0  0  0  0  0  0  0  0  0
   46.8120   34.0740   39.7850 C   0  0  0  0  0  0  0  0  0  0  0  0
   46.0690   34.2640   40.9360 C   0  0  0  0  0  0  0  0  0  0  0  0
   44.4520   36.1850   44.7860 C   0  0  0  0  0  0  0  0  0  0  0  0
   45.1050   36.0940   43.5530 C   0  0  0  0  0  0  0  0  0  0  0  0
   45.9150   34.9710   43.3310 C   0  0  0  0  0  0  0  0  0  0  0  0
   46.0230   34.0470   44.3010 N   0  0  0  0  0  0  0  0  0  0  0  0
   45.3750   34.1640   45.4920 C   0  0  0  0  0  0  0  0  0  0  0  0
   44.5940   35.2350   45.7250 N   0  0  0  0  0  0  0  0  0  0  0  0
   44.6420   33.9430   40.9460 C   0  0  0  0  0  0  0  0  0  0  0  0
   43.8380   32.9380   41.4270 C   0  0  0  0  0  0  0  0  0  0  0  0
   42.5530   33.2150   41.1120 N   0  0  0  0  0  0  0  0  0  0  0  0
   42.5250   34.3930   40.4300 C   0  0  0  0  0  0  0  0  0  0  0  0
   43.7810   34.8080   40.3420 N   0  0  0  0  0  0  0  0  0  0  0  0
   48.4593   35.4426   43.0124 H   0  0  0  0  0  0  0  0  0  0  0  0
   49.8415   35.1163   40.9582 H   0  0  0  0  0  0  0  0  0  0  0  0
   48.7804   34.2350   38.8756 H   0  0  0  0  0  0  0  0  0  0  0  0
   46.3325   33.6842   38.8750 H   0  0  0  0  0  0  0  0  0  0  0  0
   43.8083   37.0530   44.9915 H   0  0  0  0  0  0  0  0  0  0  0  0
   44.9878   36.8738   42.7861 H   0  0  0  0  0  0  0  0  0  0  0  0
   45.4891   33.3861   46.2613 H   0  0  0  0  0  0  0  0  0  0  0  0
   44.1839   32.0516   41.9790 H   0  0  0  0  0  0  0  0  0  0  0  0
   41.6348   34.9008   40.0304 H   0  0  0  0  0  0  0  0  0  0  0  0
   44.0703   35.6786   39.8738 H   0  0  0  0  0  0  0  0  0  0  0  0
  1  2  2  0
  1  9  1  0
  3  2  1  0
  4  5  1  0
  4  3  2  0
  5  6  2  0
  6 13  1  0
  6  1  1  0
  7 12  2  0
  8  7  1  0
  9  8  2  0
  9 10  1  0
 10 11  2  0
 11 12  1  0
 13 14  2  0
 15 14  1  0
 16 15  2  0
 17 16  1  0
 17 13  1  0
  2 18  1  0
  3 19  1  0
  4 20  1  0
  5 21  1  0
  7 22  1  0
  8 23  1  0
 11 24  1  0
 14 25  1  0
 16 26  1  0
 17 27  1  0
M  ISO  8  18  14  19  14  20  14  21  14  22  14  23  14  24  14  25  14
M  ISO  2  26  14  27   9
M  END
>  <minimizedAffinity>  (1) 
-5.60030127

>  <minimizedRMSD>  (1) 
0.789697886

$$$$
