
     RDKit          3D

 27 29  0  0  0  0  0  0  0  0999 V2000
   46.6260   34.7530   42.0920 C   0  0  0  0  0  0  0  0  0  0  0  0
   47.8990   35.2480   41.9940 C   0  0  0  0  0  0  0  0  0  0  0  0
   48.6670   35.1260   40.8390 C   0  0  0  0  0  0  0  0  0  0  0  0
   48.1010   34.4660   39.7290 C   0  0  0  0  0  0  0  0  0  0  0  0
   46.8000   33.9540   39.8110 C   0  0  0  0  0  0  0  0  0  0  0  0
   46.0970   34.1100   40.9880 C   0  0  0  0  0  0  0  0  0  0  0  0
   44.4530   36.0820   44.8530 C   0  0  0  0  0  0  0  0  0  0  0  0
   45.0780   36.0310   43.5950 C   0  0  0  0  0  0  0  0  0  0  0  0
   45.9170   34.9380   43.3440 C   0  0  0  0  0  0  0  0  0  0  0  0
   46.0860   34.0020   44.2970 N   0  0  0  0  0  0  0  0  0  0  0  0
   45.4680   34.0760   45.5090 C   0  0  0  0  0  0  0  0  0  0  0  0
   44.6570   35.1110   45.7820 N   0  0  0  0  0  0  0  0  0  0  0  0
   44.7750   33.5900   41.0700 N   0  0  0  0  0  0  0  0  0  0  0  0
   43.8110   34.3760   40.5090 C   0  0  0  0  0  0  0  0  0  0  0  0
   42.6040   33.7240   40.6790 C   0  0  0  0  0  0  0  0  0  0  0  0
   42.8430   32.5700   41.3290 N   0  0  0  0  0  0  0  0  0  0  0  0
   44.1670   32.4980   41.5620 C   0  0  0  0  0  0  0  0  0  0  0  0
   48.3328   35.7633   42.8637 H   0  0  0  0  0  0  0  0  0  0  0  0
   49.6877   35.5335   40.7937 H   0  0  0  0  0  0  0  0  0  0  0  0
   48.6801   34.3535   38.8006 H   0  0  0  0  0  0  0  0  0  0  0  0
   46.3467   33.4368   38.9525 H   0  0  0  0  0  0  0  0  0  0  0  0
   43.7860   36.9239   45.0902 H   0  0  0  0  0  0  0  0  0  0  0  0
   44.9153   36.8151   42.8408 H   0  0  0  0  0  0  0  0  0  0  0  0
   45.6328   33.2906   46.2614 H   0  0  0  0  0  0  0  0  0  0  0  0
   43.9654   35.3463   40.0143 H   0  0  0  0  0  0  0  0  0  0  0  0
   41.6210   34.0849   40.3422 H   0  0  0  0  0  0  0  0  0  0  0  0
   44.6746   31.6695   42.0777 H   0  0  0  0  0  0  0  0  0  0  0  0
  1  9  1  0
  2  1  2  0
  3  2  1  0
  4  5  1  0
  4  3  2  0
  5  6  2  0
  6 13  1  0
  6  1  1  0
  7 12  2  0
  8  7  1  0
  9  8  2  0
  9 10  1  0
 10 11  2  0
 11 12  1  0
 13 17  1  0
 14 15  2  0
 14 13  1  0
 15 16  1  0
 16 17  2  0
  2 18  1  0
  3 19  1  0
  4 20  1  0
  5 21  1  0
  7 22  1  0
  8 23  1  0
 11 24  1  0
 14 25  1  0
 15 26  1  0
 17 27  1  0
M  ISO  8  18  14  19  14  20  14  21  14  22  14  23  14  24  14  25  14
M  ISO  2  26  14  27  14
M  END
>  <minimizedAffinity>  (1) 
-5.44292259

>  <minimizedRMSD>  (1) 
0.349414498

$$$$
