
     RDKit          3D

 27 29  0  0  0  0  0  0  0  0999 V2000
   46.6580   34.7910   42.0610 C   0  0  0  0  0  0  0  0  0  0  0  0
   47.9440   35.2800   41.9970 C   0  0  0  0  0  0  0  0  0  0  0  0
   48.7210   35.1560   40.8420 C   0  0  0  0  0  0  0  0  0  0  0  0
   48.1700   34.5170   39.7190 C   0  0  0  0  0  0  0  0  0  0  0  0
   46.8710   34.0220   39.7790 C   0  0  0  0  0  0  0  0  0  0  0  0
   46.1500   34.1720   40.9510 C   0  0  0  0  0  0  0  0  0  0  0  0
   44.4530   36.1020   44.8080 C   0  0  0  0  0  0  0  0  0  0  0  0
   45.0970   36.0440   43.5630 C   0  0  0  0  0  0  0  0  0  0  0  0
   45.9340   34.9680   43.3070 C   0  0  0  0  0  0  0  0  0  0  0  0
   46.0950   34.0180   44.2690 N   0  0  0  0  0  0  0  0  0  0  0  0
   45.4510   34.1070   45.4700 C   0  0  0  0  0  0  0  0  0  0  0  0
   44.6390   35.1410   45.7330 N   0  0  0  0  0  0  0  0  0  0  0  0
   44.8220   33.6620   40.9970 N   0  0  0  0  0  0  0  0  0  0  0  0
   43.8490   34.4370   40.5330 N   0  0  0  0  0  0  0  0  0  0  0  0
   42.6590   33.8060   40.6500 C   0  0  0  0  0  0  0  0  0  0  0  0
   42.8960   32.5560   41.2230 C   0  0  0  0  0  0  0  0  0  0  0  0
   44.2800   32.5220   41.4210 C   0  0  0  0  0  0  0  0  0  0  0  0
   48.3707   35.7814   42.8782 H   0  0  0  0  0  0  0  0  0  0  0  0
   49.7468   35.5521   40.8128 H   0  0  0  0  0  0  0  0  0  0  0  0
   48.7617   34.4086   38.7980 H   0  0  0  0  0  0  0  0  0  0  0  0
   46.4240   33.5193   38.9086 H   0  0  0  0  0  0  0  0  0  0  0  0
   43.7849   36.9466   45.0324 H   0  0  0  0  0  0  0  0  0  0  0  0
   44.9423   36.8308   42.8100 H   0  0  0  0  0  0  0  0  0  0  0  0
   45.5997   33.3238   46.2279 H   0  0  0  0  0  0  0  0  0  0  0  0
   41.6799   34.2061   40.3478 H   0  0  0  0  0  0  0  0  0  0  0  0
   42.1607   31.7743   41.4643 H   0  0  0  0  0  0  0  0  0  0  0  0
   44.8365   31.6810   41.8604 H   0  0  0  0  0  0  0  0  0  0  0  0
  1  9  1  0
  2  1  2  0
  3  2  1  0
  4  5  1  0
  4  3  2  0
  5  6  2  0
  6 13  1  0
  6  1  1  0
  7 12  2  0
  8  7  1  0
  9  8  2  0
  9 10  1  0
 10 11  2  0
 11 12  1  0
 13 17  1  0
 14 15  2  0
 14 13  1  0
 15 16  1  0
 16 17  2  0
  2 18  1  0
  3 19  1  0
  4 20  1  0
  5 21  1  0
  7 22  1  0
  8 23  1  0
 11 24  1  0
 15 25  1  0
 16 26  1  0
 17 27  1  0
M  ISO  8  18  14  19  14  20  14  21  14  22  14  23  14  24  14  25  14
M  ISO  2  26  14  27  14
M  END
>  <minimizedAffinity>  (1) 
-5.42767763

>  <minimizedRMSD>  (1) 
0.48517549

$$$$
