
     RDKit          3D

 23 24  0  0  0  0  0  0  0  0999 V2000
   46.6900   34.7860   42.0800 C   0  0  0  0  0  0  0  0  0  0  0  0
   47.9630   35.2920   42.0200 C   0  0  0  0  0  0  0  0  0  0  0  0
   48.7390   35.1870   40.8650 C   0  0  0  0  0  0  0  0  0  0  0  0
   48.1990   34.5450   39.7350 C   0  0  0  0  0  0  0  0  0  0  0  0
   46.9100   34.0320   39.7920 C   0  0  0  0  0  0  0  0  0  0  0  0
   46.1740   34.1600   40.9630 C   0  0  0  0  0  0  0  0  0  0  0  0
   44.4420   36.0670   44.8050 C   0  0  0  0  0  0  0  0  0  0  0  0
   45.0910   36.0160   43.5710 C   0  0  0  0  0  0  0  0  0  0  0  0
   45.9570   34.9450   43.3310 C   0  0  0  0  0  0  0  0  0  0  0  0
   46.1340   34.0120   44.2860 N   0  0  0  0  0  0  0  0  0  0  0  0
   45.4840   34.0900   45.4840 C   0  0  0  0  0  0  0  0  0  0  0  0
   44.6540   35.0970   45.7400 N   0  0  0  0  0  0  0  0  0  0  0  0
   44.7820   33.6210   41.0670 C   0  0  0  0  0  0  0  0  0  0  0  0
   44.5270   32.8720   39.9140 F   0  0  0  0  0  0  0  0  0  0  0  0
   43.8940   34.7000   41.0500 F   0  0  0  0  0  0  0  0  0  0  0  0
   44.5810   32.8520   42.1740 F   0  0  0  0  0  0  0  0  0  0  0  0
   48.3830   35.7932   42.9045 H   0  0  0  0  0  0  0  0  0  0  0  0
   49.7581   35.6001   40.8381 H   0  0  0  0  0  0  0  0  0  0  0  0
   48.7932   34.4504   38.8142 H   0  0  0  0  0  0  0  0  0  0  0  0
   46.4750   33.5280   38.9164 H   0  0  0  0  0  0  0  0  0  0  0  0
   43.7538   36.8963   45.0256 H   0  0  0  0  0  0  0  0  0  0  0  0
   44.9265   36.7939   42.8109 H   0  0  0  0  0  0  0  0  0  0  0  0
   45.6484   33.3126   46.2447 H   0  0  0  0  0  0  0  0  0  0  0  0
  1  9  1  0
  2  1  2  0
  3  2  1  0
  4  5  1  0
  4  3  2  0
  5  6  2  0
  6 13  1  0
  6  1  1  0
  7 12  2  0
  8  7  1  0
  9  8  2  0
  9 10  1  0
 10 11  2  0
 11 12  1  0
 13 16  1  0
 14 13  1  0
 15 13  1  0
  2 17  1  0
  3 18  1  0
  4 19  1  0
  5 20  1  0
  7 21  1  0
  8 22  1  0
 11 23  1  0
M  ISO  7  17  14  18  14  19  14  20  14  21  14  22  14  23  14
M  END
>  <minimizedAffinity>  (1) 
-5.27799416

>  <minimizedRMSD>  (1) 
0.455764204

$$$$
