
     RDKit          3D

 26 27  0  0  0  0  0  0  0  0999 V2000
   46.6520   34.7370   42.0330 C   0  0  0  0  0  0  0  0  0  0  0  0
   47.9070   35.3170   41.9210 C   0  0  0  0  0  0  0  0  0  0  0  0
   48.6460   35.1850   40.7420 C   0  0  0  0  0  0  0  0  0  0  0  0
   48.1300   34.4680   39.6670 C   0  0  0  0  0  0  0  0  0  0  0  0
   46.8790   33.8920   39.7800 C   0  0  0  0  0  0  0  0  0  0  0  0
   46.1700   34.0400   40.9620 C   0  0  0  0  0  0  0  0  0  0  0  0
   44.4650   36.0120   44.8180 C   0  0  0  0  0  0  0  0  0  0  0  0
   45.0840   35.9700   43.5600 C   0  0  0  0  0  0  0  0  0  0  0  0
   45.9410   34.9090   43.2860 C   0  0  0  0  0  0  0  0  0  0  0  0
   46.1400   33.9600   44.2520 N   0  0  0  0  0  0  0  0  0  0  0  0
   45.5240   34.0320   45.4560 C   0  0  0  0  0  0  0  0  0  0  0  0
   44.7050   35.0350   45.7370 N   0  0  0  0  0  0  0  0  0  0  0  0
   44.8290   33.4030   41.0110 C   0  0  0  0  0  0  0  0  0  0  0  0
   43.7930   34.3030   40.3400 C   0  0  0  0  0  0  0  0  0  0  0  0
   48.3236   35.8848   42.7660 H   0  0  0  0  0  0  0  0  0  0  0  0
   49.6398   35.6500   40.6637 H   0  0  0  0  0  0  0  0  0  0  0  0
   48.7106   34.3610   38.7388 H   0  0  0  0  0  0  0  0  0  0  0  0
   46.4508   33.3227   38.9418 H   0  0  0  0  0  0  0  0  0  0  0  0
   43.7819   36.8384   45.0641 H   0  0  0  0  0  0  0  0  0  0  0  0
   44.8971   36.7539   42.8113 H   0  0  0  0  0  0  0  0  0  0  0  0
   45.7054   33.2500   46.2081 H   0  0  0  0  0  0  0  0  0  0  0  0
   44.8660   32.4372   40.4858 H   0  0  0  0  0  0  0  0  0  0  0  0
   44.5432   33.2481   42.0619 H   0  0  0  0  0  0  0  0  0  0  0  0
   43.2004   34.8178   41.1106 H   0  0  0  0  0  0  0  0  0  0  0  0
   44.3053   35.0477   39.7131 H   0  0  0  0  0  0  0  0  0  0  0  0
   43.1273   33.6916   39.7131 H   0  0  0  0  0  0  0  0  0  0  0  0
  1  9  1  0
  2  1  2  0
  3  2  1  0
  4  5  1  0
  4  3  2  0
  5  6  2  0
  6 13  1  0
  6  1  1  0
  7 12  2  0
  8  7  1  0
  9  8  2  0
  9 10  1  0
 10 11  2  0
 11 12  1  0
 14 13  1  0
  2 15  1  0
  3 16  1  0
  4 17  1  0
  5 18  1  0
  7 19  1  0
  8 20  1  0
 11 21  1  0
 13 22  1  0
 13 23  1  0
 14 24  1  0
 14 25  1  0
 14 26  1  0
M  ISO  8  15  14  16  14  17  14  18  14  19  14  20  14  21  14  22   8
M  ISO  4  23   8  24   8  25   8  26   8
M  END
>  <minimizedAffinity>  (1) 
-5.12091589

>  <minimizedRMSD>  (1) 
0.072787568

$$$$
