
     RDKit          3D

 22 23  0  0  0  0  0  0  0  0999 V2000
   46.6790   34.7250   42.0110 C   0  0  0  0  0  0  0  0  0  0  0  0
   47.8880   35.3890   41.8690 C   0  0  0  0  0  0  0  0  0  0  0  0
   48.6330   35.2570   40.6880 C   0  0  0  0  0  0  0  0  0  0  0  0
   48.1560   34.4530   39.6460 C   0  0  0  0  0  0  0  0  0  0  0  0
   46.9500   33.7940   39.7940 C   0  0  0  0  0  0  0  0  0  0  0  0
   46.2410   33.9470   40.9760 C   0  0  0  0  0  0  0  0  0  0  0  0
   44.5050   36.0420   44.7770 C   0  0  0  0  0  0  0  0  0  0  0  0
   45.1380   35.9880   43.5330 C   0  0  0  0  0  0  0  0  0  0  0  0
   45.9600   34.9070   43.2610 C   0  0  0  0  0  0  0  0  0  0  0  0
   46.1080   33.9590   44.2110 N   0  0  0  0  0  0  0  0  0  0  0  0
   45.4820   34.0310   45.4140 C   0  0  0  0  0  0  0  0  0  0  0  0
   44.6860   35.0700   45.6880 N   0  0  0  0  0  0  0  0  0  0  0  0
   44.9900   33.2790   41.1620 N   0  0  0  0  0  0  0  0  0  0  0  0
   48.2644   36.0220   42.6861 H   0  0  0  0  0  0  0  0  0  0  0  0
   49.5919   35.7851   40.5806 H   0  0  0  0  0  0  0  0  0  0  0  0
   48.7360   34.3466   38.7174 H   0  0  0  0  0  0  0  0  0  0  0  0
   46.5586   33.1579   38.9865 H   0  0  0  0  0  0  0  0  0  0  0  0
   43.8488   36.8922   45.0147 H   0  0  0  0  0  0  0  0  0  0  0  0
   44.9875   36.7836   42.7885 H   0  0  0  0  0  0  0  0  0  0  0  0
   45.6293   33.2370   46.1609 H   0  0  0  0  0  0  0  0  0  0  0  0
   44.4689   33.3973   42.0426 H   0  0  0  0  0  0  0  0  0  0  0  0
   44.6102   32.6797   40.4154 H   0  0  0  0  0  0  0  0  0  0  0  0
  1  9  1  0
  2  1  2  0
  3  2  1  0
  4  5  1  0
  4  3  2  0
  5  6  2  0
  6 13  1  0
  6  1  1  0
  7 12  2  0
  8  7  1  0
  9  8  2  0
  9 10  1  0
 10 11  2  0
 11 12  1  0
  2 14  1  0
  3 15  1  0
  4 16  1  0
  5 17  1  0
  7 18  1  0
  8 19  1  0
 11 20  1  0
 13 21  1  0
 13 22  1  0
M  ISO  7  14  14  15  14  16  14  17  14  18  14  19  14  20  14
M  END
>  <minimizedAffinity>  (1) 
-5.04239607

>  <minimizedRMSD>  (1) 
0.0521253645

$$$$
