
     RDKit          3D

 21 22  0  0  0  0  0  0  0  0999 V2000
   46.6950   34.7250   42.0070 C   0  0  0  0  0  0  0  0  0  0  0  0
   47.8930   35.3850   41.8670 C   0  0  0  0  0  0  0  0  0  0  0  0
   48.6250   35.2480   40.6780 C   0  0  0  0  0  0  0  0  0  0  0  0
   48.1510   34.4530   39.6410 C   0  0  0  0  0  0  0  0  0  0  0  0
   46.9380   33.7910   39.7940 C   0  0  0  0  0  0  0  0  0  0  0  0
   46.2210   33.9300   40.9730 C   0  0  0  0  0  0  0  0  0  0  0  0
   44.5030   36.0500   44.7740 C   0  0  0  0  0  0  0  0  0  0  0  0
   45.1480   35.9920   43.5270 C   0  0  0  0  0  0  0  0  0  0  0  0
   45.9700   34.9010   43.2690 C   0  0  0  0  0  0  0  0  0  0  0  0
   46.1170   33.9480   44.2160 N   0  0  0  0  0  0  0  0  0  0  0  0
   45.4820   34.0320   45.4100 C   0  0  0  0  0  0  0  0  0  0  0  0
   44.6890   35.0620   45.6880 N   0  0  0  0  0  0  0  0  0  0  0  0
   45.0010   33.3200   41.2410 O   0  0  0  0  0  0  0  0  0  0  0  0
   48.2753   36.0167   42.6824 H   0  0  0  0  0  0  0  0  0  0  0  0
   49.5839   35.7751   40.5653 H   0  0  0  0  0  0  0  0  0  0  0  0
   48.7286   34.3489   38.7106 H   0  0  0  0  0  0  0  0  0  0  0  0
   46.5482   33.1590   38.9825 H   0  0  0  0  0  0  0  0  0  0  0  0
   43.8448   36.8988   45.0112 H   0  0  0  0  0  0  0  0  0  0  0  0
   45.0069   36.7853   42.7782 H   0  0  0  0  0  0  0  0  0  0  0  0
   45.6244   33.2384   46.1582 H   0  0  0  0  0  0  0  0  0  0  0  0
   44.5524   33.4712   42.1105 H   0  0  0  0  0  0  0  0  0  0  0  0
  1  9  1  0
  2  1  2  0
  3  2  1  0
  4  5  1  0
  4  3  2  0
  5  6  2  0
  6 13  1  0
  6  1  1  0
  7 12  2  0
  8  7  1  0
  9  8  2  0
  9 10  1  0
 10 11  2  0
 11 12  1  0
  2 14  1  0
  3 15  1  0
  4 16  1  0
  5 17  1  0
  7 18  1  0
  8 19  1  0
 11 20  1  0
 13 21  1  0
M  ISO  8  14  14  15  14  16  14  17  14  18  14  19  14  20  14  21   3
M  END
>  <minimizedAffinity>  (1) 
-5.03003883

>  <minimizedRMSD>  (1) 
0.0460178517

$$$$
