
     RDKit          3D

 23 24  0  0  0  0  0  0  0  0999 V2000
   46.7000   34.8070   42.0450 C   0  0  0  0  0  0  0  0  0  0  0  0
   47.9740   35.3240   41.9770 C   0  0  0  0  0  0  0  0  0  0  0  0
   48.7690   35.2250   40.8370 C   0  0  0  0  0  0  0  0  0  0  0  0
   48.2420   34.5670   39.7090 C   0  0  0  0  0  0  0  0  0  0  0  0
   46.9510   34.0380   39.7640 C   0  0  0  0  0  0  0  0  0  0  0  0
   46.2260   34.1760   40.9280 C   0  0  0  0  0  0  0  0  0  0  0  0
   44.4560   36.0900   44.7630 C   0  0  0  0  0  0  0  0  0  0  0  0
   45.1120   36.0470   43.5270 C   0  0  0  0  0  0  0  0  0  0  0  0
   45.9630   34.9690   43.2830 C   0  0  0  0  0  0  0  0  0  0  0  0
   46.1180   34.0240   44.2340 N   0  0  0  0  0  0  0  0  0  0  0  0
   45.4630   34.1000   45.4250 C   0  0  0  0  0  0  0  0  0  0  0  0
   44.6460   35.1190   45.6820 N   0  0  0  0  0  0  0  0  0  0  0  0
   44.8770   33.6270   40.9950 C   0  0  0  0  0  0  0  0  0  0  0  0
   44.6820   32.4420   41.3730 O   0  0  0  0  0  0  0  0  0  0  0  0
   43.7260   34.3350   40.6620 O   0  0  0  0  0  0  0  0  0  0  0  0
   48.3818   35.8372   42.8604 H   0  0  0  0  0  0  0  0  0  0  0  0
   49.7833   35.6503   40.8186 H   0  0  0  0  0  0  0  0  0  0  0  0
   48.8423   34.4706   38.7923 H   0  0  0  0  0  0  0  0  0  0  0  0
   46.5204   33.5205   38.8941 H   0  0  0  0  0  0  0  0  0  0  0  0
   43.7770   36.9255   44.9885 H   0  0  0  0  0  0  0  0  0  0  0  0
   44.9617   36.8354   42.7748 H   0  0  0  0  0  0  0  0  0  0  0  0
   45.6099   33.3139   46.1802 H   0  0  0  0  0  0  0  0  0  0  0  0
   42.8396   33.8994   40.7308 H   0  0  0  0  0  0  0  0  0  0  0  0
  1  9  1  0
  2  1  2  0
  3  2  1  0
  4  5  1  0
  4  3  2  0
  5  6  2  0
  6 13  1  0
  6  1  1  0
  7 12  2  0
  8  7  1  0
  9  8  2  0
  9 10  1  0
 10 11  2  0
 11 12  1  0
 13 14  2  0
 15 13  1  0
  2 16  1  0
  3 17  1  0
  4 18  1  0
  5 19  1  0
  7 20  1  0
  8 21  1  0
 11 22  1  0
 15 23  1  0
M  ISO  8  16  14  17  14  18  14  19  14  20  14  21  14  22  14  23   3
M  END
>  <minimizedAffinity>  (1) 
-5.12314796

>  <minimizedRMSD>  (1) 
0.321951896

$$$$
