
     RDKit          3D

 39 42  0  0  0  0  0  0  0  0999 V2000
   46.6110   34.7430   41.9520 C   0  0  0  0  0  0  0  0  0  0  0  0
   47.8860   35.2290   41.8520 C   0  0  0  0  0  0  0  0  0  0  0  0
   48.6560   35.0890   40.7020 C   0  0  0  0  0  0  0  0  0  0  0  0
   48.0960   34.4190   39.6040 C   0  0  0  0  0  0  0  0  0  0  0  0
   46.8040   33.9200   39.6920 C   0  0  0  0  0  0  0  0  0  0  0  0
   46.0880   34.0910   40.8620 C   0  0  0  0  0  0  0  0  0  0  0  0
   44.4330   36.1260   44.6800 C   0  0  0  0  0  0  0  0  0  0  0  0
   45.0670   36.0290   43.4450 C   0  0  0  0  0  0  0  0  0  0  0  0
   45.9010   34.9470   43.2010 C   0  0  0  0  0  0  0  0  0  0  0  0
   46.0590   34.0340   44.1850 N   0  0  0  0  0  0  0  0  0  0  0  0
   45.4260   34.1540   45.3840 C   0  0  0  0  0  0  0  0  0  0  0  0
   44.6260   35.1900   45.6210 N   0  0  0  0  0  0  0  0  0  0  0  0
   44.7310   33.5740   40.9680 C   0  0  0  0  0  0  0  0  0  0  0  0
   44.3830   32.8910   41.9570 O   0  0  0  0  0  0  0  0  0  0  0  0
   43.7410   33.7850   40.0190 O   0  0  0  0  0  0  0  0  0  0  0  0
   42.5720   34.4800   40.2990 C   0  0  0  0  0  0  0  0  0  0  0  0
   42.4660   35.4990   41.2440 C   0  0  0  0  0  0  0  0  0  0  0  0
   41.2740   36.1520   41.4760 C   0  0  0  0  0  0  0  0  0  0  0  0
   40.1660   35.7730   40.7430 C   0  0  0  0  0  0  0  0  0  0  0  0
   40.2070   34.7720   39.7950 C   0  0  0  0  0  0  0  0  0  0  0  0
   39.1050   34.3860   39.0590 C   0  0  0  0  0  0  0  0  0  0  0  0
   39.1520   33.3840   38.1110 C   0  0  0  0  0  0  0  0  0  0  0  0
   40.3670   32.7340   37.8900 C   0  0  0  0  0  0  0  0  0  0  0  0
   41.4530   33.1290   38.6290 C   0  0  0  0  0  0  0  0  0  0  0  0
   41.4250   34.1340   39.5860 C   0  0  0  0  0  0  0  0  0  0  0  0
   48.3202   35.7521   42.7168 H   0  0  0  0  0  0  0  0  0  0  0  0
   49.6779   35.4933   40.6548 H   0  0  0  0  0  0  0  0  0  0  0  0
   48.6773   34.2900   38.6791 H   0  0  0  0  0  0  0  0  0  0  0  0
   46.3536   33.3929   38.8380 H   0  0  0  0  0  0  0  0  0  0  0  0
   43.7679   36.9776   44.8862 H   0  0  0  0  0  0  0  0  0  0  0  0
   44.9095   36.7979   42.6743 H   0  0  0  0  0  0  0  0  0  0  0  0
   45.5768   33.3902   46.1611 H   0  0  0  0  0  0  0  0  0  0  0  0
   43.3569   35.7899   41.8199 H   0  0  0  0  0  0  0  0  0  0  0  0
   41.2070   36.9543   42.2256 H   0  0  0  0  0  0  0  0  0  0  0  0
   39.2122   36.2907   40.9227 H   0  0  0  0  0  0  0  0  0  0  0  0
   38.1481   34.8990   39.2356 H   0  0  0  0  0  0  0  0  0  0  0  0
   38.2526   33.1042   37.5428 H   0  0  0  0  0  0  0  0  0  0  0  0
   40.4513   31.9288   37.1453 H   0  0  0  0  0  0  0  0  0  0  0  0
   42.4094   32.6153   38.4515 H   0  0  0  0  0  0  0  0  0  0  0  0
  1  9  1  0
  2  1  2  0
  3  2  1  0
  4  5  1  0
  4  3  2  0
  5  6  2  0
  6 13  1  0
  6  1  1  0
  7 12  2  0
  8  7  1  0
  9  8  2  0
  9 10  1  0
 10 11  2  0
 11 12  1  0
 13 14  2  0
 15 16  1  0
 15 13  1  0
 16 17  2  0
 17 18  1  0
 19 18  2  0
 20 19  1  0
 21 20  2  0
 22 21  1  0
 23 22  2  0
 23 24  1  0
 24 25  2  0
 25 20  1  0
 25 16  1  0
  2 26  1  0
  3 27  1  0
  4 28  1  0
  5 29  1  0
  7 30  1  0
  8 31  1  0
 11 32  1  0
 17 33  1  0
 18 34  1  0
 19 35  1  0
 21 36  1  0
 22 37  1  0
 23 38  1  0
 24 39  1  0
M  ISO  8  26  14  27  14  28  14  29  14  30  14  31  14  32  14  33  14
M  ISO  6  34  14  35  14  36  14  37  14  38  14  39  14
M  END
>  <minimizedAffinity>  (1) 
-7.54672813

>  <minimizedRMSD>  (1) 
1.59686017

$$$$
