
     RDKit          3D

 37 40  0  0  0  0  0  0  0  0999 V2000
   46.6920   34.8100   42.0670 C   0  0  0  0  0  0  0  0  0  0  0  0
   47.9640   35.3150   41.9940 C   0  0  0  0  0  0  0  0  0  0  0  0
   48.7600   35.2080   40.8520 C   0  0  0  0  0  0  0  0  0  0  0  0
   48.2260   34.5520   39.7310 C   0  0  0  0  0  0  0  0  0  0  0  0
   46.9390   34.0350   39.7910 C   0  0  0  0  0  0  0  0  0  0  0  0
   46.2070   34.1790   40.9580 C   0  0  0  0  0  0  0  0  0  0  0  0
   44.4460   36.1060   44.7840 C   0  0  0  0  0  0  0  0  0  0  0  0
   45.1050   36.0540   43.5450 C   0  0  0  0  0  0  0  0  0  0  0  0
   45.9590   34.9770   43.2980 C   0  0  0  0  0  0  0  0  0  0  0  0
   46.1090   34.0430   44.2570 N   0  0  0  0  0  0  0  0  0  0  0  0
   45.4560   34.1230   45.4460 C   0  0  0  0  0  0  0  0  0  0  0  0
   44.6380   35.1380   45.7070 N   0  0  0  0  0  0  0  0  0  0  0  0
   44.8500   33.6350   41.0240 C   0  0  0  0  0  0  0  0  0  0  0  0
   44.6590   32.4650   41.4580 O   0  0  0  0  0  0  0  0  0  0  0  0
   43.7210   34.3290   40.6340 O   0  0  0  0  0  0  0  0  0  0  0  0
   42.8920   33.9370   39.6120 C   0  0  0  0  0  0  0  0  0  0  0  0
   43.2030   33.2250   38.4740 C   0  0  0  0  0  0  0  0  0  0  0  0
   42.1260   33.0210   37.6870 N   0  0  0  0  0  0  0  0  0  0  0  0
   41.0800   33.6090   38.3170 C   0  0  0  0  0  0  0  0  0  0  0  0
   39.7290   33.7530   38.0410 C   0  0  0  0  0  0  0  0  0  0  0  0
   38.8600   34.4170   38.8730 C   0  0  0  0  0  0  0  0  0  0  0  0
   39.3150   34.9810   40.0520 C   0  0  0  0  0  0  0  0  0  0  0  0
   40.6550   34.8340   40.3190 C   0  0  0  0  0  0  0  0  0  0  0  0
   41.5380   34.1710   39.4920 C   0  0  0  0  0  0  0  0  0  0  0  0
   48.3765   35.8280   42.8753 H   0  0  0  0  0  0  0  0  0  0  0  0
   49.7773   35.6260   40.8309 H   0  0  0  0  0  0  0  0  0  0  0  0
   48.8227   34.4486   38.8127 H   0  0  0  0  0  0  0  0  0  0  0  0
   46.5059   33.5173   38.9224 H   0  0  0  0  0  0  0  0  0  0  0  0
   43.7670   36.9427   45.0052 H   0  0  0  0  0  0  0  0  0  0  0  0
   44.9528   36.8396   42.7902 H   0  0  0  0  0  0  0  0  0  0  0  0
   45.6061   33.3382   46.2020 H   0  0  0  0  0  0  0  0  0  0  0  0
   44.2141   32.8640   38.2344 H   0  0  0  0  0  0  0  0  0  0  0  0
   42.1034   32.5191   36.7878 H   0  0  0  0  0  0  0  0  0  0  0  0
   39.3342   33.3151   37.1124 H   0  0  0  0  0  0  0  0  0  0  0  0
   37.7976   34.5006   38.6006 H   0  0  0  0  0  0  0  0  0  0  0  0
   38.6417   35.5170   40.7371 H   0  0  0  0  0  0  0  0  0  0  0  0
   41.0474   35.2716   41.2488 H   0  0  0  0  0  0  0  0  0  0  0  0
  1  9  1  0
  2  1  2  0
  3  2  1  0
  4  5  1  0
  4  3  2  0
  5  6  2  0
  6 13  1  0
  6  1  1  0
  7 12  2  0
  8  7  1  0
  9  8  2  0
  9 10  1  0
 10 11  2  0
 11 12  1  0
 13 14  2  0
 15 13  1  0
 16 15  1  0
 17 16  2  0
 18 19  1  0
 18 17  1  0
 19 24  2  0
 20 19  1  0
 20 21  2  0
 21 22  1  0
 22 23  2  0
 24 16  1  0
 24 23  1  0
  2 25  1  0
  3 26  1  0
  4 27  1  0
  5 28  1  0
  7 29  1  0
  8 30  1  0
 11 31  1  0
 17 32  1  0
 18 33  1  0
 20 34  1  0
 21 35  1  0
 22 36  1  0
 23 37  1  0
M  ISO  8  25  14  26  14  27  14  28  14  29  14  30  14  31  14  32  14
M  ISO  5  33   9  34  14  35  14  36  14  37  14
M  END
>  <minimizedAffinity>  (1) 
-7.28653288

>  <minimizedRMSD>  (1) 
1.49218285

$$$$
