
     RDKit          3D

 34 37  0  0  0  0  0  0  0  0999 V2000
   46.6260   34.7000   42.0460 C   0  0  0  0  0  0  0  0  0  0  0  0
   47.8530   35.3050   41.9010 C   0  0  0  0  0  0  0  0  0  0  0  0
   48.6060   35.2030   40.7350 C   0  0  0  0  0  0  0  0  0  0  0  0
   48.0860   34.4530   39.6680 C   0  0  0  0  0  0  0  0  0  0  0  0
   46.8420   33.8330   39.8010 C   0  0  0  0  0  0  0  0  0  0  0  0
   46.1520   33.9760   40.9850 C   0  0  0  0  0  0  0  0  0  0  0  0
   44.4650   35.9960   44.8270 C   0  0  0  0  0  0  0  0  0  0  0  0
   45.0810   35.9400   43.5670 C   0  0  0  0  0  0  0  0  0  0  0  0
   45.9320   34.8730   43.3020 C   0  0  0  0  0  0  0  0  0  0  0  0
   46.1130   33.9550   44.2670 N   0  0  0  0  0  0  0  0  0  0  0  0
   45.5060   34.0300   45.4780 C   0  0  0  0  0  0  0  0  0  0  0  0
   44.6900   35.0460   45.7460 N   0  0  0  0  0  0  0  0  0  0  0  0
   44.8480   33.3330   41.1400 C   0  0  0  0  0  0  0  0  0  0  0  0
   44.7760   32.1210   41.4560 O   0  0  0  0  0  0  0  0  0  0  0  0
   43.6380   33.9900   40.9550 O   0  0  0  0  0  0  0  0  0  0  0  0
   39.0000   33.9810   40.3950 N   0  0  0  0  0  0  0  0  0  0  0  0
   39.6020   35.0730   39.8630 C   0  0  0  0  0  0  0  0  0  0  0  0
   40.9290   35.0260   40.0520 N   0  0  0  0  0  0  0  0  0  0  0  0
   41.2430   33.8820   40.7230 C   0  0  0  0  0  0  0  0  0  0  0  0
   42.4190   33.3550   41.1580 C   0  0  0  0  0  0  0  0  0  0  0  0
   42.3510   32.1810   41.7990 N   0  0  0  0  0  0  0  0  0  0  0  0
   41.1700   31.5550   42.0020 C   0  0  0  0  0  0  0  0  0  0  0  0
   39.9920   32.0770   41.5690 N   0  0  0  0  0  0  0  0  0  0  0  0
   40.0230   33.2690   40.9130 C   0  0  0  0  0  0  0  0  0  0  0  0
   48.2548   35.8925   42.7397 H   0  0  0  0  0  0  0  0  0  0  0  0
   49.5848   35.6980   40.6514 H   0  0  0  0  0  0  0  0  0  0  0  0
   48.6557   34.3544   38.7322 H   0  0  0  0  0  0  0  0  0  0  0  0
   46.4204   33.2410   38.9753 H   0  0  0  0  0  0  0  0  0  0  0  0
   43.7886   36.8305   45.0637 H   0  0  0  0  0  0  0  0  0  0  0  0
   44.8958   36.7176   42.8113 H   0  0  0  0  0  0  0  0  0  0  0  0
   45.6879   33.2535   46.2356 H   0  0  0  0  0  0  0  0  0  0  0  0
   37.9965   33.7489   40.4022 H   0  0  0  0  0  0  0  0  0  0  0  0
   39.0735   35.8876   39.3461 H   0  0  0  0  0  0  0  0  0  0  0  0
   41.1622   30.5925   42.5346 H   0  0  0  0  0  0  0  0  0  0  0  0
  1  9  1  0
  2  1  2  0
  3  2  1  0
  4  5  1  0
  4  3  2  0
  5  6  2  0
  6 13  1  0
  6  1  1  0
  7 12  2  0
  8  7  1  0
  9  8  2  0
  9 10  1  0
 10 11  2  0
 11 12  1  0
 13 14  2  0
 15 13  1  0
 15 20  1  0
 16 24  1  0
 17 18  2  0
 17 16  1  0
 18 19  1  0
 19 24  2  0
 19 20  1  0
 20 21  2  0
 21 22  1  0
 23 22  2  0
 24 23  1  0
  2 25  1  0
  3 26  1  0
  4 27  1  0
  5 28  1  0
  7 29  1  0
  8 30  1  0
 11 31  1  0
 16 32  1  0
 17 33  1  0
 22 34  1  0
M  ISO  8  25  14  26  14  27  14  28  14  29  14  30  14  31  14  32   9
M  ISO  2  33  14  34  14
M  END
>  <minimizedAffinity>  (1) 
-6.66240025

>  <minimizedRMSD>  (1) 
0.540267169

$$$$
