
     RDKit          3D

 36 38  0  0  0  0  0  0  0  0999 V2000
   46.8240   34.7250   42.2840 C   0  0  0  0  0  0  0  0  0  0  0  0
   48.1870   34.9410   42.3630 C   0  0  0  0  0  0  0  0  0  0  0  0
   49.0400   34.8010   41.2760 C   0  0  0  0  0  0  0  0  0  0  0  0
   48.4870   34.4210   40.0400 C   0  0  0  0  0  0  0  0  0  0  0  0
   47.1180   34.1990   39.9430 C   0  0  0  0  0  0  0  0  0  0  0  0
   46.3340   34.3560   41.0550 C   0  0  0  0  0  0  0  0  0  0  0  0
   44.4590   36.0550   44.8650 C   0  0  0  0  0  0  0  0  0  0  0  0
   45.1740   35.9890   43.6670 C   0  0  0  0  0  0  0  0  0  0  0  0
   46.0310   34.9000   43.4850 C   0  0  0  0  0  0  0  0  0  0  0  0
   46.1350   33.9740   44.4490 N   0  0  0  0  0  0  0  0  0  0  0  0
   45.4200   34.0740   45.6050 C   0  0  0  0  0  0  0  0  0  0  0  0
   44.5970   35.1000   45.8030 N   0  0  0  0  0  0  0  0  0  0  0  0
   44.8990   34.1270   40.9690 C   0  0  0  0  0  0  0  0  0  0  0  0
   44.3990   33.0180   41.2620 O   0  0  0  0  0  0  0  0  0  0  0  0
   43.9830   35.0990   40.5590 O   0  0  0  0  0  0  0  0  0  0  0  0
   39.9900   34.0650   40.0930 C   0  0  0  0  0  0  0  0  0  0  0  0
   40.9370   33.8400   39.1080 C   0  0  0  0  0  0  0  0  0  0  0  0
   42.2650   34.2120   39.3300 C   0  0  0  0  0  0  0  0  0  0  0  0
   42.6260   34.8090   40.5440 C   0  0  0  0  0  0  0  0  0  0  0  0
   41.6720   35.0280   41.5190 C   0  0  0  0  0  0  0  0  0  0  0  0
   40.3760   34.6550   41.2780 C   0  0  0  0  0  0  0  0  0  0  0  0
   38.3350   33.6050   39.8290 S   0  0  0  0  0  0  0  0  0  0  0  0
   38.0250   33.3620   38.3730 O   0  0  0  0  0  0  0  0  0  0  0  0
   38.0730   32.3400   40.6260 O   0  0  0  0  0  0  0  0  0  0  0  0
   48.6159   35.2375   43.3316 H   0  0  0  0  0  0  0  0  0  0  0  0
   50.1200   34.9826   41.3791 H   0  0  0  0  0  0  0  0  0  0  0  0
   49.1323   34.3004   39.1573 H   0  0  0  0  0  0  0  0  0  0  0  0
   46.6695   33.9006   38.9839 H   0  0  0  0  0  0  0  0  0  0  0  0
   43.7749   36.8976   45.0439 H   0  0  0  0  0  0  0  0  0  0  0  0
   45.0666   36.7654   42.8952 H   0  0  0  0  0  0  0  0  0  0  0  0
   45.5243   33.3004   46.3800 H   0  0  0  0  0  0  0  0  0  0  0  0
   40.6453   33.3712   38.1566 H   0  0  0  0  0  0  0  0  0  0  0  0
   43.0245   34.0366   38.5538 H   0  0  0  0  0  0  0  0  0  0  0  0
   41.9492   35.4953   42.4754 H   0  0  0  0  0  0  0  0  0  0  0  0
   39.6183   34.8320   42.0555 H   0  0  0  0  0  0  0  0  0  0  0  0
   37.5260   34.6333   40.2353 H   0  0  0  0  0  0  0  0  0  0  0  0
  1  2  2  0
  1  9  1  0
  3  2  1  0
  4  3  2  0
  5  4  1  0
  5  6  2  0
  6  1  1  0
  7 12  2  0
  8  7  1  0
  9  8  2  0
  9 10  1  0
 10 11  2  0
 11 12  1  0
 13  6  1  0
 13 14  2  0
 15 13  1  0
 16 21  2  0
 17 18  2  0
 17 16  1  0
 18 19  1  0
 19 15  1  0
 19 20  2  0
 21 20  1  0
 22 16  1  0
 22 24  2  0
 23 22  2  0
  2 25  1  0
  3 26  1  0
  4 27  1  0
  5 28  1  0
  7 29  1  0
  8 30  1  0
 11 31  1  0
 17 32  1  0
 18 33  1  0
 20 34  1  0
 21 35  1  0
 22 36  1  0
M  ISO  8  25  14  26  14  27  14  28  14  29  14  30  14  31  14  32  14
M  ISO  4  33  14  34  14  35  14  36  11
M  END
>  <minimizedAffinity>  (1) 
-6.38063383

>  <minimizedRMSD>  (1) 
1.18388653

$$$$
