
     RDKit          3D

 33 35  0  0  0  0  0  0  0  0999 V2000
   46.6270   34.5880   42.2550 C   0  0  0  0  0  0  0  0  0  0  0  0
   48.0050   34.6160   42.3000 C   0  0  0  0  0  0  0  0  0  0  0  0
   48.7910   34.3950   41.1720 C   0  0  0  0  0  0  0  0  0  0  0  0
   48.1600   34.1370   39.9510 C   0  0  0  0  0  0  0  0  0  0  0  0
   46.7650   34.1060   39.8930 C   0  0  0  0  0  0  0  0  0  0  0  0
   46.0480   34.3320   41.0470 C   0  0  0  0  0  0  0  0  0  0  0  0
   44.4710   36.1120   44.9310 C   0  0  0  0  0  0  0  0  0  0  0  0
   45.1300   35.9710   43.7080 C   0  0  0  0  0  0  0  0  0  0  0  0
   45.9020   34.8320   43.4890 C   0  0  0  0  0  0  0  0  0  0  0  0
   45.9810   33.9170   44.4630 N   0  0  0  0  0  0  0  0  0  0  0  0
   45.3360   34.0660   45.6460 C   0  0  0  0  0  0  0  0  0  0  0  0
   44.5940   35.1440   45.8790 N   0  0  0  0  0  0  0  0  0  0  0  0
   44.5990   34.3030   40.9980 C   0  0  0  0  0  0  0  0  0  0  0  0
   43.9580   33.2350   41.1170 O   0  0  0  0  0  0  0  0  0  0  0  0
   43.7850   35.4280   40.8180 O   0  0  0  0  0  0  0  0  0  0  0  0
   42.4310   35.2540   40.4960 C   0  0  0  0  0  0  0  0  0  0  0  0
   42.1050   35.1410   39.1410 C   0  0  0  0  0  0  0  0  0  0  0  0
   40.7840   34.9700   38.7950 C   0  0  0  0  0  0  0  0  0  0  0  0
   39.7820   34.9080   39.7520 C   0  0  0  0  0  0  0  0  0  0  0  0
   40.1280   35.0220   41.0950 C   0  0  0  0  0  0  0  0  0  0  0  0
   41.4520   35.1960   41.4900 C   0  0  0  0  0  0  0  0  0  0  0  0
   48.5006   34.8201   43.2606 H   0  0  0  0  0  0  0  0  0  0  0  0
   49.8885   34.4229   41.2402 H   0  0  0  0  0  0  0  0  0  0  0  0
   48.7571   33.9600   39.0443 H   0  0  0  0  0  0  0  0  0  0  0  0
   46.2483   33.9048   38.9430 H   0  0  0  0  0  0  0  0  0  0  0  0
   43.8550   37.0020   45.1271 H   0  0  0  0  0  0  0  0  0  0  0  0
   45.0412   36.7451   42.9316 H   0  0  0  0  0  0  0  0  0  0  0  0
   45.4274   33.2888   46.4191 H   0  0  0  0  0  0  0  0  0  0  0  0
   42.8870   35.1877   38.3688 H   0  0  0  0  0  0  0  0  0  0  0  0
   40.5159   34.8802   37.7320 H   0  0  0  0  0  0  0  0  0  0  0  0
   38.7319   34.7711   39.4545 H   0  0  0  0  0  0  0  0  0  0  0  0
   39.3394   34.9737   41.8604 H   0  0  0  0  0  0  0  0  0  0  0  0
   41.7187   35.2851   42.5535 H   0  0  0  0  0  0  0  0  0  0  0  0
  1  2  2  0
  1  9  1  0
  3  2  1  0
  4  3  2  0
  5  4  1  0
  5  6  2  0
  6  1  1  0
  7 12  2  0
  8  7  1  0
  9  8  2  0
  9 10  1  0
 10 11  2  0
 11 12  1  0
 13  6  1  0
 13 14  2  0
 15 13  1  0
 16 15  1  0
 16 21  1  0
 17 16  2  0
 18 17  1  0
 18 19  2  0
 19 20  1  0
 20 21  2  0
  2 22  1  0
  3 23  1  0
  4 24  1  0
  5 25  1  0
  7 26  1  0
  8 27  1  0
 11 28  1  0
 17 29  1  0
 18 30  1  0
 19 31  1  0
 20 32  1  0
 21 33  1  0
M  ISO  8  22  14  23  14  24  14  25  14  26  14  27  14  28  14  29  14
M  ISO  4  30  14  31  14  32  14  33  14
M  END
>  <minimizedAffinity>  (1) 
-6.31238508

>  <minimizedRMSD>  (1) 
1.33946812

$$$$
