
     RDKit          3D

 32 34  0  0  0  0  0  0  0  0999 V2000
   46.8350   34.8430   42.0530 C   0  0  0  0  0  0  0  0  0  0  0  0
   48.0570   35.4750   41.9990 C   0  0  0  0  0  0  0  0  0  0  0  0
   48.8820   35.4270   40.8690 C   0  0  0  0  0  0  0  0  0  0  0  0
   48.4390   34.7050   39.7520 C   0  0  0  0  0  0  0  0  0  0  0  0
   47.2100   34.0650   39.7960 C   0  0  0  0  0  0  0  0  0  0  0  0
   46.4460   34.1490   40.9360 C   0  0  0  0  0  0  0  0  0  0  0  0
   44.4430   35.9550   44.7060 C   0  0  0  0  0  0  0  0  0  0  0  0
   45.1220   35.9610   43.4870 C   0  0  0  0  0  0  0  0  0  0  0  0
   46.0580   34.9550   43.2750 C   0  0  0  0  0  0  0  0  0  0  0  0
   46.2720   34.0260   44.2370 N   0  0  0  0  0  0  0  0  0  0  0  0
   45.5910   34.0520   45.4130 C   0  0  0  0  0  0  0  0  0  0  0  0
   44.6840   35.0110   45.6410 N   0  0  0  0  0  0  0  0  0  0  0  0
   45.1610   33.4820   40.9890 C   0  0  0  0  0  0  0  0  0  0  0  0
   44.9460   32.5510   41.8020 O   0  0  0  0  0  0  0  0  0  0  0  0
   44.0710   33.7930   40.1710 O   0  0  0  0  0  0  0  0  0  0  0  0
   42.8310   34.1290   40.6890 C   0  0  0  0  0  0  0  0  0  0  0  0
   42.4460   35.3410   41.2260 C   0  0  0  0  0  0  0  0  0  0  0  0
   41.1630   35.5040   41.6980 C   0  0  0  0  0  0  0  0  0  0  0  0
   40.2490   34.4750   41.6460 C   0  0  0  0  0  0  0  0  0  0  0  0
   40.6600   33.2750   41.1060 C   0  0  0  0  0  0  0  0  0  0  0  0
   41.9130   33.1260   40.6470 N   0  0  0  0  0  0  0  0  0  0  0  0
   48.3987   36.0401   42.8787 H   0  0  0  0  0  0  0  0  0  0  0  0
   49.8535   35.9429   40.8579 H   0  0  0  0  0  0  0  0  0  0  0  0
   49.0620   34.6467   38.8473 H   0  0  0  0  0  0  0  0  0  0  0  0
   46.8494   33.4953   38.9269 H   0  0  0  0  0  0  0  0  0  0  0  0
   43.6955   36.7359   44.9096 H   0  0  0  0  0  0  0  0  0  0  0  0
   44.9249   36.7298   42.7253 H   0  0  0  0  0  0  0  0  0  0  0  0
   45.7847   33.2854   46.1777 H   0  0  0  0  0  0  0  0  0  0  0  0
   43.1623   36.1743   41.2767 H   0  0  0  0  0  0  0  0  0  0  0  0
   40.8627   36.4727   42.1240 H   0  0  0  0  0  0  0  0  0  0  0  0
   39.2241   34.6064   42.0232 H   0  0  0  0  0  0  0  0  0  0  0  0
   39.9553   32.4322   41.0507 H   0  0  0  0  0  0  0  0  0  0  0  0
  1  9  1  0
  2  1  2  0
  3  2  1  0
  4  5  1  0
  4  3  2  0
  5  6  2  0
  6 13  1  0
  6  1  1  0
  7 12  2  0
  8  7  1  0
  9  8  2  0
  9 10  1  0
 10 11  2  0
 11 12  1  0
 13 14  2  0
 15 16  1  0
 15 13  1  0
 16 17  2  0
 17 18  1  0
 19 18  2  0
 20 19  1  0
 21 16  1  0
 21 20  2  0
  2 22  1  0
  3 23  1  0
  4 24  1  0
  5 25  1  0
  7 26  1  0
  8 27  1  0
 11 28  1  0
 17 29  1  0
 18 30  1  0
 19 31  1  0
 20 32  1  0
M  ISO  8  22  14  23  14  24  14  25  14  26  14  27  14  28  14  29  14
M  ISO  3  30  14  31  14  32  14
M  END
>  <minimizedAffinity>  (1) 
-6.20238352

>  <minimizedRMSD>  (1) 
0.939238667

$$$$
