
     RDKit          3D

 30 32  0  0  0  0  0  0  0  0999 V2000
   46.7560   34.8250   42.0080 C   0  0  0  0  0  0  0  0  0  0  0  0
   48.0230   35.3370   41.9580 C   0  0  0  0  0  0  0  0  0  0  0  0
   48.8320   35.2350   40.8330 C   0  0  0  0  0  0  0  0  0  0  0  0
   48.3200   34.5760   39.6980 C   0  0  0  0  0  0  0  0  0  0  0  0
   47.0330   34.0500   39.7350 C   0  0  0  0  0  0  0  0  0  0  0  0
   46.2810   34.1840   40.8830 C   0  0  0  0  0  0  0  0  0  0  0  0
   44.4460   36.0900   44.6860 C   0  0  0  0  0  0  0  0  0  0  0  0
   45.1250   36.0430   43.4580 C   0  0  0  0  0  0  0  0  0  0  0  0
   45.9940   34.9860   43.2350 C   0  0  0  0  0  0  0  0  0  0  0  0
   46.1510   34.0550   44.1990 N   0  0  0  0  0  0  0  0  0  0  0  0
   45.4800   34.1240   45.3790 C   0  0  0  0  0  0  0  0  0  0  0  0
   44.6370   35.1340   45.6160 N   0  0  0  0  0  0  0  0  0  0  0  0
   44.9310   33.6370   40.9330 C   0  0  0  0  0  0  0  0  0  0  0  0
   44.6910   32.6110   41.6290 O   0  0  0  0  0  0  0  0  0  0  0  0
   43.8600   34.1770   40.2500 O   0  0  0  0  0  0  0  0  0  0  0  0
   42.6260   34.4740   40.8030 C   0  0  0  0  0  0  0  0  0  0  0  0
   41.4980   33.6790   40.8330 C   0  0  0  0  0  0  0  0  0  0  0  0
   40.4870   34.3150   41.4620 N   0  0  0  0  0  0  0  0  0  0  0  0
   40.9820   35.5250   41.8340 C   0  0  0  0  0  0  0  0  0  0  0  0
   42.2810   35.6170   41.4320 N   0  0  0  0  0  0  0  0  0  0  0  0
   48.4185   35.8515   42.8462 H   0  0  0  0  0  0  0  0  0  0  0  0
   49.8472   35.6584   40.8287 H   0  0  0  0  0  0  0  0  0  0  0  0
   48.9331   34.4782   38.7899 H   0  0  0  0  0  0  0  0  0  0  0  0
   46.6191   33.5322   38.8572 H   0  0  0  0  0  0  0  0  0  0  0  0
   43.7501   36.9168   44.8912 H   0  0  0  0  0  0  0  0  0  0  0  0
   44.9721   36.8213   42.6959 H   0  0  0  0  0  0  0  0  0  0  0  0
   45.6312   33.3459   46.1417 H   0  0  0  0  0  0  0  0  0  0  0  0
   41.4321   32.6682   40.4042 H   0  0  0  0  0  0  0  0  0  0  0  0
   40.4238   36.3047   42.3729 H   0  0  0  0  0  0  0  0  0  0  0  0
   42.8988   36.4271   41.5836 H   0  0  0  0  0  0  0  0  0  0  0  0
  1  9  1  0
  2  1  2  0
  3  2  1  0
  4  5  1  0
  4  3  2  0
  5  6  2  0
  6 13  1  0
  6  1  1  0
  7 12  2  0
  8  7  1  0
  9  8  2  0
  9 10  1  0
 10 11  2  0
 11 12  1  0
 13 14  2  0
 15 16  1  0
 15 13  1  0
 16 17  2  0
 16 20  1  0
 17 18  1  0
 18 19  2  0
 20 19  1  0
  2 21  1  0
  3 22  1  0
  4 23  1  0
  5 24  1  0
  7 25  1  0
  8 26  1  0
 11 27  1  0
 17 28  1  0
 19 29  1  0
 20 30  1  0
M  ISO  8  21  14  22  14  23  14  24  14  25  14  26  14  27  14  28  14
M  ISO  2  29  14  30   9
M  END
>  <minimizedAffinity>  (1) 
-5.90550995

>  <minimizedRMSD>  (1) 
0.829154551

$$$$
