
     RDKit          3D

 30 32  0  0  0  0  0  0  0  0999 V2000
   46.7250   34.8050   41.9750 C   0  0  0  0  0  0  0  0  0  0  0  0
   48.0140   35.3000   41.9300 C   0  0  0  0  0  0  0  0  0  0  0  0
   48.8230   35.1850   40.8070 C   0  0  0  0  0  0  0  0  0  0  0  0
   48.3020   34.5370   39.6760 C   0  0  0  0  0  0  0  0  0  0  0  0
   47.0040   34.0360   39.7110 C   0  0  0  0  0  0  0  0  0  0  0  0
   46.2620   34.1870   40.8570 C   0  0  0  0  0  0  0  0  0  0  0  0
   44.4400   36.1240   44.6450 C   0  0  0  0  0  0  0  0  0  0  0  0
   45.1150   36.0480   43.4220 C   0  0  0  0  0  0  0  0  0  0  0  0
   45.9750   34.9840   43.2020 C   0  0  0  0  0  0  0  0  0  0  0  0
   46.1230   34.0640   44.1770 N   0  0  0  0  0  0  0  0  0  0  0  0
   45.4530   34.1610   45.3610 C   0  0  0  0  0  0  0  0  0  0  0  0
   44.6290   35.1760   45.5800 N   0  0  0  0  0  0  0  0  0  0  0  0
   44.9050   33.6640   40.9010 C   0  0  0  0  0  0  0  0  0  0  0  0
   44.6130   32.6740   41.6360 O   0  0  0  0  0  0  0  0  0  0  0  0
   43.8370   34.1860   40.1650 O   0  0  0  0  0  0  0  0  0  0  0  0
   42.5920   34.4280   40.7330 C   0  0  0  0  0  0  0  0  0  0  0  0
   42.0300   35.3630   41.5810 C   0  0  0  0  0  0  0  0  0  0  0  0
   40.7060   34.9590   41.7100 C   0  0  0  0  0  0  0  0  0  0  0  0
   40.5370   33.8050   40.9360 C   0  0  0  0  0  0  0  0  0  0  0  0
   41.6840   33.5460   40.3880 O   0  0  0  0  0  0  0  0  0  0  0  0
   48.4161   35.8060   42.8201 H   0  0  0  0  0  0  0  0  0  0  0  0
   49.8453   35.5911   40.8039 H   0  0  0  0  0  0  0  0  0  0  0  0
   48.9148   34.4261   38.7692 H   0  0  0  0  0  0  0  0  0  0  0  0
   46.5786   33.5266   38.8338 H   0  0  0  0  0  0  0  0  0  0  0  0
   43.7535   36.9606   44.8422 H   0  0  0  0  0  0  0  0  0  0  0  0
   44.9660   36.8176   42.6503 H   0  0  0  0  0  0  0  0  0  0  0  0
   45.5969   33.3945   46.1367 H   0  0  0  0  0  0  0  0  0  0  0  0
   42.5193   36.2304   42.0481 H   0  0  0  0  0  0  0  0  0  0  0  0
   39.9311   35.4564   42.3117 H   0  0  0  0  0  0  0  0  0  0  0  0
   39.6085   33.2277   40.8154 H   0  0  0  0  0  0  0  0  0  0  0  0
  1  9  1  0
  2  1  2  0
  3  2  1  0
  4  5  1  0
  4  3  2  0
  5  6  2  0
  6 13  1  0
  6  1  1  0
  7 12  2  0
  8  7  1  0
  9  8  2  0
  9 10  1  0
 10 11  2  0
 11 12  1  0
 13 14  2  0
 15 16  1  0
 15 13  1  0
 16 17  2  0
 17 18  1  0
 19 18  2  0
 20 16  1  0
 20 19  1  0
  2 21  1  0
  3 22  1  0
  4 23  1  0
  5 24  1  0
  7 25  1  0
  8 26  1  0
 11 27  1  0
 17 28  1  0
 18 29  1  0
 19 30  1  0
M  ISO  8  21  14  22  14  23  14  24  14  25  14  26  14  27  14  28  14
M  ISO  2  29  14  30  14
M  END
>  <minimizedAffinity>  (1) 
-5.84488678

>  <minimizedRMSD>  (1) 
0.79190731

$$$$
