
     RDKit          3D

 35 36  0  0  0  0  0  0  0  0999 V2000
   46.6690   34.7120   42.1100 C   0  0  0  0  0  0  0  0  0  0  0  0
   47.9100   35.2980   42.0010 C   0  0  0  0  0  0  0  0  0  0  0  0
   48.6790   35.2200   40.8350 C   0  0  0  0  0  0  0  0  0  0  0  0
   48.1570   34.5160   39.7390 C   0  0  0  0  0  0  0  0  0  0  0  0
   46.8940   33.9140   39.8340 C   0  0  0  0  0  0  0  0  0  0  0  0
   46.2000   34.0370   41.0210 C   0  0  0  0  0  0  0  0  0  0  0  0
   44.4560   35.9390   44.8850 C   0  0  0  0  0  0  0  0  0  0  0  0
   45.0780   35.9040   43.6350 C   0  0  0  0  0  0  0  0  0  0  0  0
   45.9660   34.8570   43.3620 C   0  0  0  0  0  0  0  0  0  0  0  0
   46.1750   33.9400   44.3180 N   0  0  0  0  0  0  0  0  0  0  0  0
   45.5540   34.0010   45.5270 C   0  0  0  0  0  0  0  0  0  0  0  0
   44.7110   34.9830   45.8030 N   0  0  0  0  0  0  0  0  0  0  0  0
   44.8780   33.4160   41.1420 C   0  0  0  0  0  0  0  0  0  0  0  0
   44.6050   32.7120   42.1580 O   0  0  0  0  0  0  0  0  0  0  0  0
   43.8750   33.5390   40.2070 O   0  0  0  0  0  0  0  0  0  0  0  0
   42.7310   34.3570   40.4210 C   0  0  0  0  0  0  0  0  0  0  0  0
   42.2210   34.6580   39.0250 C   0  0  0  0  0  0  0  0  0  0  0  0
   43.0850   35.6490   41.1160 C   0  0  0  0  0  0  0  0  0  0  0  0
   41.6250   33.6260   41.1410 C   0  0  0  0  0  0  0  0  0  0  0  0
   48.3124   35.8488   42.8640 H   0  0  0  0  0  0  0  0  0  0  0  0
   49.6679   35.6984   40.7787 H   0  0  0  0  0  0  0  0  0  0  0  0
   48.7370   34.4366   38.8077 H   0  0  0  0  0  0  0  0  0  0  0  0
   46.4678   33.3587   38.9855 H   0  0  0  0  0  0  0  0  0  0  0  0
   43.7535   36.7513   45.1230 H   0  0  0  0  0  0  0  0  0  0  0  0
   44.8749   36.6807   42.8830 H   0  0  0  0  0  0  0  0  0  0  0  0
   45.7545   33.2267   46.2822 H   0  0  0  0  0  0  0  0  0  0  0  0
   41.2755   35.2160   39.0925 H   0  0  0  0  0  0  0  0  0  0  0  0
   42.9653   35.2616   38.4849 H   0  0  0  0  0  0  0  0  0  0  0  0
   42.0523   33.7147   38.4849 H   0  0  0  0  0  0  0  0  0  0  0  0
   43.0448   35.5023   42.2054 H   0  0  0  0  0  0  0  0  0  0  0  0
   44.1003   35.9559   40.8246 H   0  0  0  0  0  0  0  0  0  0  0  0
   42.3679   36.4306   40.8246 H   0  0  0  0  0  0  0  0  0  0  0  0
   41.7691   33.7212   42.2274 H   0  0  0  0  0  0  0  0  0  0  0  0
   40.6545   34.0612   40.8603 H   0  0  0  0  0  0  0  0  0  0  0  0
   41.6450   32.5626   40.8603 H   0  0  0  0  0  0  0  0  0  0  0  0
  1  9  1  0
  2  1  2  0
  3  2  1  0
  4  5  1  0
  4  3  2  0
  5  6  2  0
  6 13  1  0
  6  1  1  0
  7 12  2  0
  8  7  1  0
  9  8  2  0
  9 10  1  0
 10 11  2  0
 11 12  1  0
 13 14  2  0
 15 16  1  0
 15 13  1  0
 16 18  1  0
 16 19  1  0
 17 16  1  0
  2 20  1  0
  3 21  1  0
  4 22  1  0
  5 23  1  0
  7 24  1  0
  8 25  1  0
 11 26  1  0
 17 27  1  0
 17 28  1  0
 17 29  1  0
 18 30  1  0
 18 31  1  0
 18 32  1  0
 19 33  1  0
 19 34  1  0
 19 35  1  0
M  ISO  8  20  14  21  14  22  14  23  14  24  14  25  14  26  14  27   8
M  ISO  8  28   8  29   8  30   8  31   8  32   8  33   8  34   8  35   8
M  END
>  <minimizedAffinity>  (1) 
-5.63535213

>  <minimizedRMSD>  (1) 
0.714912474

$$$$
