
     RDKit          3D

 30 32  0  0  0  0  0  0  0  0999 V2000
   46.6580   34.7960   42.0430 C   0  0  0  0  0  0  0  0  0  0  0  0
   47.9460   35.2560   41.9640 C   0  0  0  0  0  0  0  0  0  0  0  0
   48.7290   35.1400   40.8160 C   0  0  0  0  0  0  0  0  0  0  0  0
   48.1680   34.5250   39.6930 C   0  0  0  0  0  0  0  0  0  0  0  0
   46.8550   34.0450   39.7410 C   0  0  0  0  0  0  0  0  0  0  0  0
   46.1520   34.2030   40.9280 C   0  0  0  0  0  0  0  0  0  0  0  0
   44.4630   36.1280   44.7860 C   0  0  0  0  0  0  0  0  0  0  0  0
   45.1120   36.0680   43.5420 C   0  0  0  0  0  0  0  0  0  0  0  0
   45.9390   34.9680   43.2800 C   0  0  0  0  0  0  0  0  0  0  0  0
   46.0710   34.0230   44.2280 N   0  0  0  0  0  0  0  0  0  0  0  0
   45.4230   34.1140   45.4230 C   0  0  0  0  0  0  0  0  0  0  0  0
   44.6370   35.1480   45.6890 N   0  0  0  0  0  0  0  0  0  0  0  0
   44.7830   33.7060   40.9850 C   0  0  0  0  0  0  0  0  0  0  0  0
   44.5360   32.4960   41.2090 O   0  0  0  0  0  0  0  0  0  0  0  0
   43.6520   34.5090   40.8020 O   0  0  0  0  0  0  0  0  0  0  0  0
   42.6640   34.2260   39.8450 C   0  0  0  0  0  0  0  0  0  0  0  0
   41.3770   35.0320   40.0150 C   0  0  0  0  0  0  0  0  0  0  0  0
   42.2610   35.2170   38.8250 C   0  0  0  0  0  0  0  0  0  0  0  0
   48.3838   35.7404   42.8492 H   0  0  0  0  0  0  0  0  0  0  0  0
   49.7603   35.5221   40.7947 H   0  0  0  0  0  0  0  0  0  0  0  0
   48.7591   34.4185   38.7715 H   0  0  0  0  0  0  0  0  0  0  0  0
   46.3950   33.5589   38.8680 H   0  0  0  0  0  0  0  0  0  0  0  0
   43.8095   36.9807   45.0222 H   0  0  0  0  0  0  0  0  0  0  0  0
   44.9748   36.8628   42.7940 H   0  0  0  0  0  0  0  0  0  0  0  0
   45.5533   33.3216   46.1747 H   0  0  0  0  0  0  0  0  0  0  0  0
   42.9734   33.1733   39.7678 H   0  0  0  0  0  0  0  0  0  0  0  0
   40.3981   34.5419   39.9071 H   0  0  0  0  0  0  0  0  0  0  0  0
   40.9568   35.6877   40.7918 H   0  0  0  0  0  0  0  0  0  0  0  0
   42.8360   36.1481   38.7130 H   0  0  0  0  0  0  0  0  0  0  0  0
   42.1011   35.1761   37.7375 H   0  0  0  0  0  0  0  0  0  0  0  0
  1  9  1  0
  2  1  2  0
  3  2  1  0
  4  5  1  0
  4  3  2  0
  5  6  2  0
  6 13  1  0
  6  1  1  0
  7 12  2  0
  8  7  1  0
  9  8  2  0
  9 10  1  0
 10 11  2  0
 11 12  1  0
 13 14  2  0
 15 13  1  0
 16 17  1  0
 16 15  1  0
 18 16  1  0
 18 17  1  0
  2 19  1  0
  3 20  1  0
  4 21  1  0
  5 22  1  0
  7 23  1  0
  8 24  1  0
 11 25  1  0
 16 26  1  0
 17 27  1  0
 17 28  1  0
 18 29  1  0
 18 30  1  0
M  ISO  8  19  14  20  14  21  14  22  14  23  14  24  14  25  14  26  13
M  ISO  4  27  13  28  13  29  13  30  13
M  END
>  <minimizedAffinity>  (1) 
-5.42056561

>  <minimizedRMSD>  (1) 
1.06599462

$$$$
