
     RDKit          3D

 32 33  0  0  0  0  0  0  0  0999 V2000
   46.7030   34.8090   42.0230 C   0  0  0  0  0  0  0  0  0  0  0  0
   47.9770   35.3270   41.9580 C   0  0  0  0  0  0  0  0  0  0  0  0
   48.7810   35.2300   40.8220 C   0  0  0  0  0  0  0  0  0  0  0  0
   48.2590   34.5690   39.6930 C   0  0  0  0  0  0  0  0  0  0  0  0
   46.9630   34.0350   39.7400 C   0  0  0  0  0  0  0  0  0  0  0  0
   46.2380   34.1790   40.9130 C   0  0  0  0  0  0  0  0  0  0  0  0
   44.4450   36.0930   44.7330 C   0  0  0  0  0  0  0  0  0  0  0  0
   45.1030   36.0520   43.4930 C   0  0  0  0  0  0  0  0  0  0  0  0
   45.9670   34.9710   43.2520 C   0  0  0  0  0  0  0  0  0  0  0  0
   46.1210   34.0350   44.2140 N   0  0  0  0  0  0  0  0  0  0  0  0
   45.4680   34.1070   45.4030 C   0  0  0  0  0  0  0  0  0  0  0  0
   44.6410   35.1320   45.6460 N   0  0  0  0  0  0  0  0  0  0  0  0
   44.8820   33.6250   40.9730 C   0  0  0  0  0  0  0  0  0  0  0  0
   44.7010   32.4420   41.3810 O   0  0  0  0  0  0  0  0  0  0  0  0
   43.7470   34.3210   40.6090 O   0  0  0  0  0  0  0  0  0  0  0  0
   42.4450   34.1140   41.0180 C   0  0  0  0  0  0  0  0  0  0  0  0
   41.5290   33.5610   39.9600 C   0  0  0  0  0  0  0  0  0  0  0  0
   41.8470   35.3830   41.5880 C   0  0  0  0  0  0  0  0  0  0  0  0
   48.3797   35.8413   42.8430 H   0  0  0  0  0  0  0  0  0  0  0  0
   49.7943   35.6578   40.8084 H   0  0  0  0  0  0  0  0  0  0  0  0
   48.8644   34.4722   38.7797 H   0  0  0  0  0  0  0  0  0  0  0  0
   46.5336   33.5162   38.8702 H   0  0  0  0  0  0  0  0  0  0  0  0
   43.7603   36.9242   44.9575 H   0  0  0  0  0  0  0  0  0  0  0  0
   44.9476   36.8372   42.7385 H   0  0  0  0  0  0  0  0  0  0  0  0
   45.6179   33.3264   46.1633 H   0  0  0  0  0  0  0  0  0  0  0  0
   42.5204   33.3396   41.7955 H   0  0  0  0  0  0  0  0  0  0  0  0
   40.6815   33.0494   40.4396 H   0  0  0  0  0  0  0  0  0  0  0  0
   41.1537   34.3836   39.3335 H   0  0  0  0  0  0  0  0  0  0  0  0
   42.0821   32.8458   39.3335 H   0  0  0  0  0  0  0  0  0  0  0  0
   41.8686   35.3371   42.6868 H   0  0  0  0  0  0  0  0  0  0  0  0
   42.4314   36.2497   41.2456 H   0  0  0  0  0  0  0  0  0  0  0  0
   40.8065   35.4840   41.2456 H   0  0  0  0  0  0  0  0  0  0  0  0
  1  9  1  0
  2  1  2  0
  3  2  1  0
  4  5  1  0
  4  3  2  0
  5  6  2  0
  6 13  1  0
  6  1  1  0
  7 12  2  0
  8  7  1  0
  9  8  2  0
  9 10  1  0
 10 11  2  0
 11 12  1  0
 13 14  2  0
 15 13  1  0
 15 16  1  0
 16 18  1  0
 17 16  1  0
  2 19  1  0
  3 20  1  0
  4 21  1  0
  5 22  1  0
  7 23  1  0
  8 24  1  0
 11 25  1  0
 16 26  1  0
 17 27  1  0
 17 28  1  0
 17 29  1  0
 18 30  1  0
 18 31  1  0
 18 32  1  0
M  ISO  8  19  14  20  14  21  14  22  14  23  14  24  14  25  14  26   8
M  ISO  6  27   8  28   8  29   8  30   8  31   8  32   8
M  END
>  <minimizedAffinity>  (1) 
-5.36714029

>  <minimizedRMSD>  (1) 
0.25909248

$$$$
