
     RDKit          3D

 29 30  0  0  0  0  0  0  0  0999 V2000
   46.6950   34.8070   42.0360 C   0  0  0  0  0  0  0  0  0  0  0  0
   47.9670   35.3170   41.9630 C   0  0  0  0  0  0  0  0  0  0  0  0
   48.7600   35.2110   40.8120 C   0  0  0  0  0  0  0  0  0  0  0  0
   48.2280   34.5580   39.6890 C   0  0  0  0  0  0  0  0  0  0  0  0
   46.9440   34.0400   39.7560 C   0  0  0  0  0  0  0  0  0  0  0  0
   46.2230   34.1800   40.9180 C   0  0  0  0  0  0  0  0  0  0  0  0
   44.4560   36.0940   44.7550 C   0  0  0  0  0  0  0  0  0  0  0  0
   45.1110   36.0500   43.5180 C   0  0  0  0  0  0  0  0  0  0  0  0
   45.9570   34.9710   43.2790 C   0  0  0  0  0  0  0  0  0  0  0  0
   46.1200   34.0180   44.2250 N   0  0  0  0  0  0  0  0  0  0  0  0
   45.4610   34.1050   45.4130 C   0  0  0  0  0  0  0  0  0  0  0  0
   44.6470   35.1250   45.6660 N   0  0  0  0  0  0  0  0  0  0  0  0
   44.8720   33.6350   40.9860 C   0  0  0  0  0  0  0  0  0  0  0  0
   44.6600   32.4580   41.3720 O   0  0  0  0  0  0  0  0  0  0  0  0
   43.7170   34.3390   40.6400 O   0  0  0  0  0  0  0  0  0  0  0  0
   42.9840   33.9870   39.4920 C   0  0  0  0  0  0  0  0  0  0  0  0
   42.3040   35.1910   38.8950 C   0  0  0  0  0  0  0  0  0  0  0  0
   48.3811   35.8299   42.8436 H   0  0  0  0  0  0  0  0  0  0  0  0
   49.7767   35.6303   40.7893 H   0  0  0  0  0  0  0  0  0  0  0  0
   48.8219   34.4587   38.7684 H   0  0  0  0  0  0  0  0  0  0  0  0
   46.5070   33.5228   38.8891 H   0  0  0  0  0  0  0  0  0  0  0  0
   43.7785   36.9300   44.9831 H   0  0  0  0  0  0  0  0  0  0  0  0
   44.9626   36.8376   42.7646 H   0  0  0  0  0  0  0  0  0  0  0  0
   45.6038   33.3221   46.1724 H   0  0  0  0  0  0  0  0  0  0  0  0
   43.6681   33.5542   38.7472 H   0  0  0  0  0  0  0  0  0  0  0  0
   42.2137   33.2560   39.7788 H   0  0  0  0  0  0  0  0  0  0  0  0
   41.9363   35.8420   39.7018 H   0  0  0  0  0  0  0  0  0  0  0  0
   43.0216   35.7468   38.2736 H   0  0  0  0  0  0  0  0  0  0  0  0
   41.4575   34.8635   38.2736 H   0  0  0  0  0  0  0  0  0  0  0  0
  1  9  1  0
  2  1  2  0
  3  2  1  0
  4  5  1  0
  4  3  2  0
  5  6  2  0
  6 13  1  0
  6  1  1  0
  7 12  2  0
  8  7  1  0
  9  8  2  0
  9 10  1  0
 10 11  2  0
 11 12  1  0
 13 14  2  0
 15 13  1  0
 16 15  1  0
 17 16  1  0
  2 18  1  0
  3 19  1  0
  4 20  1  0
  5 21  1  0
  7 22  1  0
  8 23  1  0
 11 24  1  0
 16 25  1  0
 16 26  1  0
 17 27  1  0
 17 28  1  0
 17 29  1  0
M  ISO  8  18  14  19  14  20  14  21  14  22  14  23  14  24  14  25   8
M  ISO  4  26   8  27   8  28   8  29   8
M  END
>  <minimizedAffinity>  (1) 
-5.15063906

>  <minimizedRMSD>  (1) 
0.833903849

$$$$
