
     RDKit          3D

 26 27  0  0  0  0  0  0  0  0999 V2000
   46.7150   34.8150   42.0170 C   0  0  0  0  0  0  0  0  0  0  0  0
   47.9940   35.3220   41.9640 C   0  0  0  0  0  0  0  0  0  0  0  0
   48.8020   35.2200   40.8340 C   0  0  0  0  0  0  0  0  0  0  0  0
   48.2820   34.5680   39.6990 C   0  0  0  0  0  0  0  0  0  0  0  0
   46.9820   34.0450   39.7350 C   0  0  0  0  0  0  0  0  0  0  0  0
   46.2570   34.1950   40.8990 C   0  0  0  0  0  0  0  0  0  0  0  0
   44.4580   36.1060   44.7260 C   0  0  0  0  0  0  0  0  0  0  0  0
   45.1250   36.0510   43.5000 C   0  0  0  0  0  0  0  0  0  0  0  0
   45.9690   34.9810   43.2510 C   0  0  0  0  0  0  0  0  0  0  0  0
   46.1190   34.0330   44.1980 N   0  0  0  0  0  0  0  0  0  0  0  0
   45.4580   34.1120   45.3850 C   0  0  0  0  0  0  0  0  0  0  0  0
   44.6420   35.1320   45.6400 N   0  0  0  0  0  0  0  0  0  0  0  0
   44.8960   33.6540   40.9530 C   0  0  0  0  0  0  0  0  0  0  0  0
   44.6820   32.4830   41.3630 O   0  0  0  0  0  0  0  0  0  0  0  0
   43.7640   34.3650   40.5680 O   0  0  0  0  0  0  0  0  0  0  0  0
   42.5780   34.2890   41.3720 C   0  0  0  0  0  0  0  0  0  0  0  0
   48.3954   35.8300   42.8533 H   0  0  0  0  0  0  0  0  0  0  0  0
   49.8196   35.6377   40.8282 H   0  0  0  0  0  0  0  0  0  0  0  0
   48.8927   34.4698   38.7894 H   0  0  0  0  0  0  0  0  0  0  0  0
   46.5532   33.5309   38.8622 H   0  0  0  0  0  0  0  0  0  0  0  0
   43.7817   36.9451   44.9461 H   0  0  0  0  0  0  0  0  0  0  0  0
   44.9831   36.8409   42.7478 H   0  0  0  0  0  0  0  0  0  0  0  0
   45.5995   33.3254   46.1408 H   0  0  0  0  0  0  0  0  0  0  0  0
   42.8549   34.3067   42.4364 H   0  0  0  0  0  0  0  0  0  0  0  0
   41.9275   35.1473   41.1480 H   0  0  0  0  0  0  0  0  0  0  0  0
   42.0424   33.3547   41.1480 H   0  0  0  0  0  0  0  0  0  0  0  0
  1  9  1  0
  2  1  2  0
  3  2  1  0
  4  5  1  0
  4  3  2  0
  5  6  2  0
  6 13  1  0
  6  1  1  0
  7 12  2  0
  8  7  1  0
  9  8  2  0
  9 10  1  0
 10 11  2  0
 11 12  1  0
 13 14  2  0
 15 13  1  0
 15 16  1  0
  2 17  1  0
  3 18  1  0
  4 19  1  0
  5 20  1  0
  7 21  1  0
  8 22  1  0
 11 23  1  0
 16 24  1  0
 16 25  1  0
 16 26  1  0
M  ISO  8  17  14  18  14  19  14  20  14  21  14  22  14  23  14  24   8
M  ISO  2  25   8  26   8
M  END
>  <minimizedAffinity>  (1) 
-5.08766699

>  <minimizedRMSD>  (1) 
0.218413249

$$$$
