
     RDKit          3D

 44 46  0  0  1  0  0  0  0  0999 V2000
   46.4650   34.6800   42.0600 C   0  0  0  0  0  0  0  0  0  0  0  0
   47.7680   35.0950   41.9050 C   0  0  0  0  0  0  0  0  0  0  0  0
   48.4750   34.9160   40.7150 C   0  0  0  0  0  0  0  0  0  0  0  0
   47.8370   34.2920   39.6440 C   0  0  0  0  0  0  0  0  0  0  0  0
   46.5090   33.8620   39.7830 C   0  0  0  0  0  0  0  0  0  0  0  0
   45.8980   34.0840   40.9920 C   0  0  0  0  0  0  0  0  0  0  0  0
   44.4720   36.2080   44.8390 C   0  0  0  0  0  0  0  0  0  0  0  0
   45.0680   36.0830   43.5620 C   0  0  0  0  0  0  0  0  0  0  0  0
   45.8190   34.9180   43.3410 C   0  0  0  0  0  0  0  0  0  0  0  0
   45.9530   33.9730   44.3100 N   0  0  0  0  0  0  0  0  0  0  0  0
   45.3400   34.1720   45.5220 C   0  0  0  0  0  0  0  0  0  0  0  0
   44.6150   35.2730   45.7690 N   0  0  0  0  0  0  0  0  0  0  0  0
   44.5310   33.6450   41.1430 C   0  0  0  0  0  0  0  0  0  0  0  0
   44.2660   32.3970   41.1850 O   0  0  0  0  0  0  0  0  0  0  0  0
   43.3610   34.1240   41.2620 O   0  0  0  0  0  0  0  0  0  0  0  0
   41.1400   33.1610   41.0560 N   0  0  0  0  0  0  0  0  0  0  0  0
   39.9700   33.9210   41.4560 C   0  0  0  0  0  0  0  0  0  0  0  0
   40.1120   35.0940   40.5380 C   0  0  0  0  0  0  0  0  0  0  0  0
   41.5450   35.4220   40.7680 C   0  0  0  0  0  0  0  0  0  0  0  0
   42.1490   34.0110   40.5900 C   0  0  1  0  0  0  0  0  0  0  0  0
   42.2680   34.1250   39.0610 C   0  0  0  0  0  0  0  0  0  0  0  0
   42.0830   35.4030   38.3970 C   0  0  0  0  0  0  0  0  0  0  0  0
   41.5640   33.0580   38.2890 C   0  0  0  0  0  0  0  0  0  0  0  0
   48.2712   35.5863   42.7508 H   0  0  0  0  0  0  0  0  0  0  0  0
   49.5156   35.2607   40.6239 H   0  0  0  0  0  0  0  0  0  0  0  0
   48.3719   34.1377   38.6953 H   0  0  0  0  0  0  0  0  0  0  0  0
   45.9785   33.3668   38.9563 H   0  0  0  0  0  0  0  0  0  0  0  0
   43.8748   37.1033   45.0665 H   0  0  0  0  0  0  0  0  0  0  0  0
   44.9496   36.8545   42.7869 H   0  0  0  0  0  0  0  0  0  0  0  0
   45.4459   33.4108   46.3090 H   0  0  0  0  0  0  0  0  0  0  0  0
   41.4920   32.6315   41.8663 H   0  0  0  0  0  0  0  0  0  0  0  0
   39.0379   33.3665   41.2722 H   0  0  0  0  0  0  0  0  0  0  0  0
   39.9156   34.1681   42.5265 H   0  0  0  0  0  0  0  0  0  0  0  0
   39.4505   35.9235   40.8285 H   0  0  0  0  0  0  0  0  0  0  0  0
   39.8410   34.9004   39.4896 H   0  0  0  0  0  0  0  0  0  0  0  0
   41.9302   36.1324   40.0217 H   0  0  0  0  0  0  0  0  0  0  0  0
   41.7692   35.9146   41.7256 H   0  0  0  0  0  0  0  0  0  0  0  0
   43.3576   33.9775   39.0288 H   0  0  0  0  0  0  0  0  0  0  0  0
   41.9683   36.1951   39.1516 H   0  0  0  0  0  0  0  0  0  0  0  0
   42.9591   35.6197   37.7682 H   0  0  0  0  0  0  0  0  0  0  0  0
   41.1814   35.3624   37.7682 H   0  0  0  0  0  0  0  0  0  0  0  0
   41.0959   32.3485   38.9872 H   0  0  0  0  0  0  0  0  0  0  0  0
   40.7891   33.5144   37.6556 H   0  0  0  0  0  0  0  0  0  0  0  0
   42.2884   32.5251   37.6556 H   0  0  0  0  0  0  0  0  0  0  0  0
  1  9  1  0
  2  1  2  0
  3  2  1  0
  4  5  1  0
  4  3  2  0
  5  6  2  0
  6 13  1  0
  6  1  1  0
  7 12  2  0
  8  7  1  0
  9  8  2  0
  9 10  1  0
 10 11  2  0
 11 12  1  0
 13 14  2  0
 13 15  1  0
 16 17  1  0
 18 19  1  0
 18 17  1  0
 20 21  1  0
 20 19  1  0
 20 16  1  0
 20 15  1  1
 22 21  1  0
 23 21  1  0
  2 24  1  0
  3 25  1  0
  4 26  1  0
  5 27  1  0
  7 28  1  0
  8 29  1  0
 11 30  1  0
 16 31  1  0
 17 32  1  0
 17 33  1  0
 18 34  1  0
 18 35  1  0
 19 36  1  0
 19 37  1  0
 21 38  1  0
 22 39  1  0
 22 40  1  0
 22 41  1  0
 23 42  1  0
 23 43  1  0
 23 44  1  0
M  ISO  8  24  14  25  14  26  14  27  14  28  14  29  14  30  14  31   5
M  ISO  8  32  13  33  13  34  13  35  13  36  13  37  13  38   8  39   8
M  ISO  5  40   8  41   8  42   8  43   8  44   8
M  END
>  <minimizedAffinity>  (1) 
-6.41058302

>  <minimizedRMSD>  (1) 
1.9583602

$$$$
