
     RDKit          3D

 42 45  0  0  1  0  0  0  0  0999 V2000
   46.5250   34.7150   42.0800 C   0  0  0  0  0  0  0  0  0  0  0  0
   47.8590   35.0230   41.9880 C   0  0  0  0  0  0  0  0  0  0  0  0
   48.5900   34.8230   40.8180 C   0  0  0  0  0  0  0  0  0  0  0  0
   47.9430   34.2910   39.7030 C   0  0  0  0  0  0  0  0  0  0  0  0
   46.5720   33.9660   39.7760 C   0  0  0  0  0  0  0  0  0  0  0  0
   45.9160   34.1890   40.9570 C   0  0  0  0  0  0  0  0  0  0  0  0
   44.4500   36.2110   44.8390 C   0  0  0  0  0  0  0  0  0  0  0  0
   45.0810   36.0970   43.5820 C   0  0  0  0  0  0  0  0  0  0  0  0
   45.8690   34.9690   43.3310 C   0  0  0  0  0  0  0  0  0  0  0  0
   45.9920   34.0310   44.3070 N   0  0  0  0  0  0  0  0  0  0  0  0
   45.3520   34.2000   45.5050 C   0  0  0  0  0  0  0  0  0  0  0  0
   44.6010   35.2670   45.7560 N   0  0  0  0  0  0  0  0  0  0  0  0
   44.4830   33.8380   41.0720 C   0  0  0  0  0  0  0  0  0  0  0  0
   44.1440   32.7610   41.5460 O   0  0  0  0  0  0  0  0  0  0  0  0
   43.4890   34.7370   40.6480 O   0  0  0  0  0  0  0  0  0  0  0  0
   41.5670   33.8480   41.5390 N   0  0  0  0  0  0  0  0  0  0  0  0
   40.3640   34.6270   41.6610 C   0  0  0  0  0  0  0  0  0  0  0  0
   40.0360   34.9330   40.2420 C   0  0  0  0  0  0  0  0  0  0  0  0
   41.3470   35.2450   39.6310 C   0  0  0  0  0  0  0  0  0  0  0  0
   42.2300   34.2390   40.2420 C   0  0  1  0  0  0  0  0  0  0  0  0
   42.1610   32.9580   39.4920 C   0  0  0  0  0  0  0  0  0  0  0  0
   41.5040   32.7310   38.1750 C   0  0  0  0  0  0  0  0  0  0  0  0
   42.9530   32.8030   38.2100 C   0  0  0  0  0  0  0  0  0  0  0  0
   48.3691   35.4422   42.8678 H   0  0  0  0  0  0  0  0  0  0  0  0
   49.6586   35.0803   40.7750 H   0  0  0  0  0  0  0  0  0  0  0  0
   48.5001   34.1252   38.7691 H   0  0  0  0  0  0  0  0  0  0  0  0
   46.0443   33.5448   38.9076 H   0  0  0  0  0  0  0  0  0  0  0  0
   43.8277   37.0909   45.0592 H   0  0  0  0  0  0  0  0  0  0  0  0
   44.9560   36.8775   42.8170 H   0  0  0  0  0  0  0  0  0  0  0  0
   45.4626   33.4300   46.2827 H   0  0  0  0  0  0  0  0  0  0  0  0
   42.1964   34.0467   42.3297 H   0  0  0  0  0  0  0  0  0  0  0  0
   39.5609   34.0467   42.1388 H   0  0  0  0  0  0  0  0  0  0  0  0
   40.4824   35.5232   42.2878 H   0  0  0  0  0  0  0  0  0  0  0  0
   39.5729   34.0641   39.7516 H   0  0  0  0  0  0  0  0  0  0  0  0
   39.3153   35.7581   40.1424 H   0  0  0  0  0  0  0  0  0  0  0  0
   41.6712   36.2651   39.8846 H   0  0  0  0  0  0  0  0  0  0  0  0
   41.3379   35.2109   38.5316 H   0  0  0  0  0  0  0  0  0  0  0  0
   42.0585   32.4719   40.4734 H   0  0  0  0  0  0  0  0  0  0  0  0
   40.9298   33.5435   37.7059 H   0  0  0  0  0  0  0  0  0  0  0  0
   40.7829   31.9917   37.7962 H   0  0  0  0  0  0  0  0  0  0  0  0
   43.5523   31.8963   38.0407 H   0  0  0  0  0  0  0  0  0  0  0  0
   43.7134   33.4038   37.6896 H   0  0  0  0  0  0  0  0  0  0  0  0
  1  9  1  0
  2  1  2  0
  3  2  1  0
  4  5  1  0
  4  3  2  0
  5  6  2  0
  6 13  1  0
  6  1  1  0
  7 12  2  0
  8  7  1  0
  9  8  2  0
  9 10  1  0
 10 11  2  0
 11 12  1  0
 13 14  2  0
 15 13  1  0
 16 17  1  0
 18 17  1  0
 19 20  1  0
 19 18  1  0
 20 15  1  1
 20 16  1  0
 21 20  1  0
 22 23  1  0
 22 21  1  0
 23 21  1  0
  2 24  1  0
  3 25  1  0
  4 26  1  0
  5 27  1  0
  7 28  1  0
  8 29  1  0
 11 30  1  0
 16 31  1  0
 17 32  1  0
 17 33  1  0
 18 34  1  0
 18 35  1  0
 19 36  1  0
 19 37  1  0
 21 38  1  0
 22 39  1  0
 22 40  1  0
 23 41  1  0
 23 42  1  0
M  ISO  8  24  14  25  14  26  14  27  14  28  14  29  14  30  14  31   5
M  ISO  8  32  13  33  13  34  13  35  13  36  13  37  13  38  13  39  13
M  ISO  3  40  13  41  13  42  13
M  END
>  <minimizedAffinity>  (1) 
-6.29622078

>  <minimizedRMSD>  (1) 
1.87369096

$$$$
