
     RDKit          3D

 47 49  0  0  1  0  0  0  0  0999 V2000
   46.7390   34.7930   41.9420 C   0  0  0  0  0  0  0  0  0  0  0  0
   48.0220   35.2850   41.8690 C   0  0  0  0  0  0  0  0  0  0  0  0
   48.8070   35.1670   40.7250 C   0  0  0  0  0  0  0  0  0  0  0  0
   48.2720   34.5250   39.6090 C   0  0  0  0  0  0  0  0  0  0  0  0
   46.9650   34.0170   39.6670 C   0  0  0  0  0  0  0  0  0  0  0  0
   46.2650   34.1750   40.8270 C   0  0  0  0  0  0  0  0  0  0  0  0
   44.4220   36.1360   44.5630 C   0  0  0  0  0  0  0  0  0  0  0  0
   45.1250   36.0620   43.3440 C   0  0  0  0  0  0  0  0  0  0  0  0
   46.0060   34.9890   43.1710 C   0  0  0  0  0  0  0  0  0  0  0  0
   46.1480   34.0880   44.1510 N   0  0  0  0  0  0  0  0  0  0  0  0
   45.4470   34.1940   45.3240 C   0  0  0  0  0  0  0  0  0  0  0  0
   44.5930   35.2230   45.5000 N   0  0  0  0  0  0  0  0  0  0  0  0
   44.9330   33.6340   40.9140 C   0  0  0  0  0  0  0  0  0  0  0  0
   44.6740   32.6900   41.6960 O   0  0  0  0  0  0  0  0  0  0  0  0
   43.7820   33.8240   40.3900 O   0  0  0  0  0  0  0  0  0  0  0  0
   42.2130   34.4880   42.0170 N   0  0  0  0  0  0  0  0  0  0  0  0
   41.4480   35.6980   41.9020 C   0  0  0  0  0  0  0  0  0  0  0  0
   40.7970   35.4120   40.5820 C   0  0  0  0  0  0  0  0  0  0  0  0
   41.9360   34.9450   39.8490 C   0  0  0  0  0  0  0  0  0  0  0  0
   42.4420   33.7990   40.7890 C   0  0  1  0  0  0  0  0  0  0  0  0
   41.4460   32.8290   40.2670 C   0  0  0  0  0  0  0  0  0  0  0  0
   42.1850   31.7800   39.4170 C   0  0  0  0  0  0  0  0  0  0  0  0
   40.6810   31.9900   41.2960 C   0  0  0  0  0  0  0  0  0  0  0  0
   40.2880   33.1480   39.4100 C   0  0  0  0  0  0  0  0  0  0  0  0
   48.4443   35.7916   42.7493 H   0  0  0  0  0  0  0  0  0  0  0  0
   49.8293   35.5724   40.7022 H   0  0  0  0  0  0  0  0  0  0  0  0
   48.8689   34.4176   38.6913 H   0  0  0  0  0  0  0  0  0  0  0  0
   46.5178   33.5060   38.8016 H   0  0  0  0  0  0  0  0  0  0  0  0
   43.7212   36.9661   44.7357 H   0  0  0  0  0  0  0  0  0  0  0  0
   44.9864   36.8192   42.5582 H   0  0  0  0  0  0  0  0  0  0  0  0
   45.5802   33.4440   46.1175 H   0  0  0  0  0  0  0  0  0  0  0  0
   43.1283   34.7265   42.4248 H   0  0  0  0  0  0  0  0  0  0  0  0
   40.7135   35.8048   42.7139 H   0  0  0  0  0  0  0  0  0  0  0  0
   42.0186   36.6364   41.9644 H   0  0  0  0  0  0  0  0  0  0  0  0
   40.0195   34.6386   40.6676 H   0  0  0  0  0  0  0  0  0  0  0  0
   40.2669   36.2627   40.1288 H   0  0  0  0  0  0  0  0  0  0  0  0
   41.6500   34.5597   38.8592 H   0  0  0  0  0  0  0  0  0  0  0  0
   42.6861   35.7197   39.6318 H   0  0  0  0  0  0  0  0  0  0  0  0
   42.6909   31.0619   40.0791 H   0  0  0  0  0  0  0  0  0  0  0  0
   41.4619   31.2469   38.7822 H   0  0  0  0  0  0  0  0  0  0  0  0
   42.9304   32.2815   38.7822 H   0  0  0  0  0  0  0  0  0  0  0  0
   40.9672   32.3039   42.3107 H   0  0  0  0  0  0  0  0  0  0  0  0
   39.5996   32.1371   41.1580 H   0  0  0  0  0  0  0  0  0  0  0  0
   40.9270   30.9268   41.1580 H   0  0  0  0  0  0  0  0  0  0  0  0
   39.4195   33.3872   40.0413 H   0  0  0  0  0  0  0  0  0  0  0  0
   40.5291   34.0132   38.7749 H   0  0  0  0  0  0  0  0  0  0  0  0
   40.0521   32.2814   38.7749 H   0  0  0  0  0  0  0  0  0  0  0  0
  1  9  1  0
  2  1  2  0
  3  2  1  0
  4  5  1  0
  4  3  2  0
  5  6  2  0
  6 13  1  0
  6  1  1  0
  7 12  2  0
  8  7  1  0
  9  8  2  0
  9 10  1  0
 10 11  2  0
 11 12  1  0
 13 14  2  0
 15 13  1  0
 17 16  1  0
 18 17  1  0
 19 18  1  0
 19 20  1  0
 20 15  1  6
 20 16  1  0
 21 20  1  0
 21 23  1  0
 22 21  1  0
 24 21  1  0
  2 25  1  0
  3 26  1  0
  4 27  1  0
  5 28  1  0
  7 29  1  0
  8 30  1  0
 11 31  1  0
 16 32  1  0
 17 33  1  0
 17 34  1  0
 18 35  1  0
 18 36  1  0
 19 37  1  0
 19 38  1  0
 22 39  1  0
 22 40  1  0
 22 41  1  0
 23 42  1  0
 23 43  1  0
 23 44  1  0
 24 45  1  0
 24 46  1  0
 24 47  1  0
M  ISO  8  25  14  26  14  27  14  28  14  29  14  30  14  31  14  32   5
M  ISO  8  33  13  34  13  35  13  36  13  37  13  38  13  39   8  40   8
M  ISO  7  41   8  42   8  43   8  44   8  45   8  46   8  47   8
M  END
>  <minimizedAffinity>  (1) 
-6.24308443

>  <minimizedRMSD>  (1) 
1.42684209

$$$$
