
     RDKit          3D

 36 38  0  0  1  0  0  0  0  0999 V2000
   46.6170   34.6250   42.1300 C   0  0  0  0  0  0  0  0  0  0  0  0
   47.7780   35.3320   41.9250 C   0  0  0  0  0  0  0  0  0  0  0  0
   48.5000   35.2460   40.7360 C   0  0  0  0  0  0  0  0  0  0  0  0
   48.0200   34.4110   39.7220 C   0  0  0  0  0  0  0  0  0  0  0  0
   46.8350   33.6820   39.9120 C   0  0  0  0  0  0  0  0  0  0  0  0
   46.1750   33.8130   41.1060 C   0  0  0  0  0  0  0  0  0  0  0  0
   44.4870   35.9120   44.9500 C   0  0  0  0  0  0  0  0  0  0  0  0
   45.0850   35.8570   43.6930 C   0  0  0  0  0  0  0  0  0  0  0  0
   45.9390   34.7940   43.4070 C   0  0  0  0  0  0  0  0  0  0  0  0
   46.1590   33.8610   44.3520 N   0  0  0  0  0  0  0  0  0  0  0  0
   45.5550   33.9490   45.5720 C   0  0  0  0  0  0  0  0  0  0  0  0
   44.7340   34.9590   45.8600 N   0  0  0  0  0  0  0  0  0  0  0  0
   44.9310   33.0510   41.3510 C   0  0  0  0  0  0  0  0  0  0  0  0
   44.8830   31.8470   41.0820 O   0  0  0  0  0  0  0  0  0  0  0  0
   43.8000   33.7140   41.9050 O   0  0  0  0  0  0  0  0  0  0  0  0
   41.7040   34.6800   41.8780 N   0  0  0  0  0  0  0  0  0  0  0  0
   41.4190   35.8330   41.0490 C   0  0  0  0  0  0  0  0  0  0  0  0
   41.4910   35.2320   39.6570 C   0  0  0  0  0  0  0  0  0  0  0  0
   42.8330   34.4870   39.7770 C   0  0  0  0  0  0  0  0  0  0  0  0
   42.6600   33.8180   41.0790 C   0  0  1  0  0  0  0  0  0  0  0  0
   41.7100   32.2990   40.8300 S   0  0  0  0  0  0  0  0  0  0  0  0
   48.1496   35.9876   42.7263 H   0  0  0  0  0  0  0  0  0  0  0  0
   49.4269   35.8221   40.5982 H   0  0  0  0  0  0  0  0  0  0  0  0
   48.5716   34.3252   38.7742 H   0  0  0  0  0  0  0  0  0  0  0  0
   46.4462   33.0223   39.1223 H   0  0  0  0  0  0  0  0  0  0  0  0
   43.8085   36.7418   45.1972 H   0  0  0  0  0  0  0  0  0  0  0  0
   44.8871   36.6362   42.9423 H   0  0  0  0  0  0  0  0  0  0  0  0
   45.7483   33.1750   46.3294 H   0  0  0  0  0  0  0  0  0  0  0  0
   42.1416   34.9745   42.7627 H   0  0  0  0  0  0  0  0  0  0  0  0
   40.4194   36.2413   41.2589 H   0  0  0  0  0  0  0  0  0  0  0  0
   42.1039   36.6790   41.2076 H   0  0  0  0  0  0  0  0  0  0  0  0
   41.5187   36.0060   38.8758 H   0  0  0  0  0  0  0  0  0  0  0  0
   40.6315   34.6090   39.3688 H   0  0  0  0  0  0  0  0  0  0  0  0
   42.9669   33.7599   38.9625 H   0  0  0  0  0  0  0  0  0  0  0  0
   43.7209   35.1330   39.7105 H   0  0  0  0  0  0  0  0  0  0  0  0
   41.3759   31.7648   42.0465 H   0  0  0  0  0  0  0  0  0  0  0  0
  1  9  1  0
  2  1  2  0
  3  2  1  0
  4  5  1  0
  4  3  2  0
  5  6  2  0
  6 13  1  0
  6  1  1  0
  7 12  2  0
  8  7  1  0
  9  8  2  0
  9 10  1  0
 10 11  2  0
 11 12  1  0
 13 15  1  0
 14 13  2  0
 17 16  1  0
 18 19  1  0
 18 17  1  0
 19 20  1  0
 20 21  1  0
 20 16  1  0
 20 15  1  1
  2 22  1  0
  3 23  1  0
  4 24  1  0
  5 25  1  0
  7 26  1  0
  8 27  1  0
 11 28  1  0
 16 29  1  0
 17 30  1  0
 17 31  1  0
 18 32  1  0
 18 33  1  0
 19 34  1  0
 19 35  1  0
 21 36  1  0
M  ISO  8  22  14  23  14  24  14  25  14  26  14  27  14  28  14  29   5
M  ISO  7  30  13  31  13  32  13  33  13  34  13  35  13  36  11
M  END
>  <minimizedAffinity>  (1) 
-6.09802532

>  <minimizedRMSD>  (1) 
1.05873096

$$$$
