
     RDKit          3D

 30 31  0  0  0  0  0  0  0  0999 V2000
   47.1800   30.9790   45.7360 C   0  0  0  0  0  0  0  0  0  0  0  0
   46.1830   31.6140   46.5040 C   0  0  0  0  0  0  0  0  0  0  0  0
   45.6790   32.7770   45.9150 C   0  0  0  0  0  0  0  0  0  0  0  0
   46.1380   33.2140   44.7150 N   0  0  0  0  0  0  0  0  0  0  0  0
   47.0930   32.5570   44.0350 C   0  0  0  0  0  0  0  0  0  0  0  0
   47.6060   31.4320   44.5680 N   0  0  0  0  0  0  0  0  0  0  0  0
   47.4070   33.2060   42.8080 N   0  0  0  0  0  0  0  0  0  0  0  0
   48.2000   34.3140   42.7910 C   0  0  0  0  0  0  0  0  0  0  0  0
   48.5150   34.9580   41.6010 C   0  0  0  0  0  0  0  0  0  0  0  0
   49.3890   36.1780   41.5840 C   0  0  0  0  0  0  0  0  0  0  0  0
   47.9780   34.4120   40.4310 C   0  0  0  0  0  0  0  0  0  0  0  0
   48.3000   35.0410   39.3910 O   0  0  0  0  0  0  0  0  0  0  0  0
   47.1990   33.3180   40.4940 N   0  0  0  0  0  0  0  0  0  0  0  0
   46.9090   32.7110   41.6590 C   0  0  0  0  0  0  0  0  0  0  0  0
   46.1660   31.6880   41.5980 O   0  0  0  0  0  0  0  0  0  0  0  0
   45.7270   31.1320   47.7490 N   0  0  0  0  0  0  0  0  0  0  0  0
   46.2410   31.5610   49.0020 C   0  0  0  0  0  0  0  0  0  0  0  0
   47.5450   31.7570   49.0480 N   0  0  0  0  0  0  0  0  0  0  0  0
   45.2650   31.7260   50.0590 N   0  0  0  0  0  0  0  0  0  0  0  0
   48.0060   32.0670   49.9160 H   0  0  0  0  0  0  0  0  0  0  0  0
   47.6290   30.0552   46.1297 H   0  0  0  0  0  0  0  0  0  0  0  0
   44.8956   33.3488   46.4339 H   0  0  0  0  0  0  0  0  0  0  0  0
   48.5986   34.7063   43.7382 H   0  0  0  0  0  0  0  0  0  0  0  0
   49.6094   36.4856   42.6169 H   0  0  0  0  0  0  0  0  0  0  0  0
   50.3292   35.9482   41.0613 H   0  0  0  0  0  0  0  0  0  0  0  0
   48.8690   36.9943   41.0613 H   0  0  0  0  0  0  0  0  0  0  0  0
   46.8114   32.9318   39.6213 H   0  0  0  0  0  0  0  0  0  0  0  0
   44.9763   30.4267   47.7496 H   0  0  0  0  0  0  0  0  0  0  0  0
   45.5661   32.0347   50.9944 H   0  0  0  0  0  0  0  0  0  0  0  0
   44.2697   31.5346   49.8754 H   0  0  0  0  0  0  0  0  0  0  0  0
  1  2  2  0
  2 16  1  0
  3  2  1  0
  4  3  2  0
  5  6  2  0
  5  4  1  0
  6  1  1  0
  7  5  1  0
  8  7  1  0
  9  8  2  0
 10  9  1  0
 11 13  1  0
 11  9  1  0
 12 11  2  0
 13 14  1  0
 14  7  1  0
 15 14  2  0
 16 17  1  0
 17 18  2  0
 17 19  1  0
 18 20  1  0
  1 21  1  0
  3 22  1  0
  8 23  1  0
 10 24  1  0
 10 25  1  0
 10 26  1  0
 13 27  1  0
 16 28  1  0
 19 29  1  0
 19 30  1  0
M  ISO  7  21  14  22  14  23  14  24   8  25   8  26   8  27   9
M  END
>  <minimizedAffinity>  (1) 
-5.52692127

>  <minimizedRMSD>  (1) 
8.24433231

$$$$
