
     RDKit          3D

 20 20  0  0  0  0  0  0  0  0999 V2000
   46.4670   32.8620   43.1240 C   0  0  0  0  0  0  0  0  0  0  0  0
   45.7690   33.8850   43.8100 C   0  0  0  0  0  0  0  0  0  0  0  0
   45.9320   35.1730   43.2910 C   0  0  0  0  0  0  0  0  0  0  0  0
   46.7180   35.3830   42.2010 N   0  0  0  0  0  0  0  0  0  0  0  0
   47.3550   34.3600   41.5970 C   0  0  0  0  0  0  0  0  0  0  0  0
   47.2240   33.1230   42.0630 N   0  0  0  0  0  0  0  0  0  0  0  0
   44.9510   33.6290   44.9520 N   0  0  0  0  0  0  0  0  0  0  0  0
   45.3760   33.8340   46.2930 C   0  0  0  0  0  0  0  0  0  0  0  0
   46.6230   33.5110   46.5520 N   0  0  0  0  0  0  0  0  0  0  0  0
   44.3860   34.3690   47.1940 N   0  0  0  0  0  0  0  0  0  0  0  0
   47.0270   33.6380   47.4920 H   0  0  0  0  0  0  0  0  0  0  0  0
   48.1770   34.7120   40.4270 C   0  0  0  0  0  0  0  0  0  0  0  0
   48.0890   34.0280   39.4000 O   0  0  0  0  0  0  0  0  0  0  0  0
   49.0520   35.8020   40.4520 O   0  0  0  0  0  0  0  0  0  0  0  0
   46.3806   31.8242   43.4782 H   0  0  0  0  0  0  0  0  0  0  0  0
   45.4209   36.0225   43.7676 H   0  0  0  0  0  0  0  0  0  0  0  0
   43.9966   33.2749   44.7949 H   0  0  0  0  0  0  0  0  0  0  0  0
   44.6272   34.5420   48.1803 H   0  0  0  0  0  0  0  0  0  0  0  0
   43.4374   34.5783   46.8515 H   0  0  0  0  0  0  0  0  0  0  0  0
   49.5947   36.0195   39.6531 H   0  0  0  0  0  0  0  0  0  0  0  0
  1  2  2  0
  2  7  1  0
  3  2  1  0
  4  3  2  0
  5  6  2  0
  5  4  1  0
  6  1  1  0
  7  8  1  0
  8  9  2  0
  8 10  1  0
  9 11  1  0
 12 14  1  0
 12  5  1  0
 13 12  2  0
  1 15  1  0
  3 16  1  0
  7 17  1  0
 10 18  1  0
 10 19  1  0
 14 20  1  0
M  ISO  3  15  14  16  14  20   3
M  END
>  <minimizedAffinity>  (1) 
-4.92129326

>  <minimizedRMSD>  (1) 
6.99352551

$$$$
