
     RDKit          3D

 22 23  0  0  0  0  0  0  0  0999 V2000
   45.7190   34.8230   43.6100 C   0  0  0  0  0  0  0  0  0  0  0  0
   46.7350   34.2480   42.8060 C   0  0  0  0  0  0  0  0  0  0  0  0
   47.4740   33.2450   43.4440 C   0  0  0  0  0  0  0  0  0  0  0  0
   47.1970   32.8940   44.7210 N   0  0  0  0  0  0  0  0  0  0  0  0
   46.2140   33.4780   45.4390 C   0  0  0  0  0  0  0  0  0  0  0  0
   45.4900   34.4360   44.8670 N   0  0  0  0  0  0  0  0  0  0  0  0
   46.9720   34.6630   41.4760 N   0  0  0  0  0  0  0  0  0  0  0  0
   48.2350   35.0720   40.9800 C   0  0  0  0  0  0  0  0  0  0  0  0
   48.9660   35.7960   41.8040 N   0  0  0  0  0  0  0  0  0  0  0  0
   48.5520   34.6390   39.6360 N   0  0  0  0  0  0  0  0  0  0  0  0
   49.9030   36.1310   41.5300 H   0  0  0  0  0  0  0  0  0  0  0  0
   46.0860   32.9510   46.7930 C   0  0  0  0  0  0  0  0  0  0  0  0
   47.2420   32.4930   47.3360 N   0  0  0  0  0  0  0  0  0  0  0  0
   47.0160   32.0470   48.5420 O   0  0  0  0  0  0  0  0  0  0  0  0
   45.7300   32.1980   48.8150 C   0  0  0  0  0  0  0  0  0  0  0  0
   45.1420   32.7630   47.7230 N   0  0  0  0  0  0  0  0  0  0  0  0
   45.0941   35.6201   43.1809 H   0  0  0  0  0  0  0  0  0  0  0  0
   48.2865   32.7380   42.9028 H   0  0  0  0  0  0  0  0  0  0  0  0
   46.1744   34.6686   40.8243 H   0  0  0  0  0  0  0  0  0  0  0  0
   49.4530   34.8992   39.2102 H   0  0  0  0  0  0  0  0  0  0  0  0
   47.8766   34.0706   39.1053 H   0  0  0  0  0  0  0  0  0  0  0  0
   45.2272   31.9184   49.7525 H   0  0  0  0  0  0  0  0  0  0  0  0
  1  6  2  0
  2  3  2  0
  2  1  1  0
  3  4  1  0
  4  5  2  0
  5 12  1  0
  6  5  1  0
  7  2  1  0
  8  7  1  0
  8  9  2  0
 10  8  1  0
 11  9  1  0
 12 13  2  0
 12 16  1  0
 13 14  1  0
 14 15  1  0
 16 15  2  0
  1 17  1  0
  3 18  1  0
  7 19  1  0
 10 20  1  0
 10 21  1  0
 15 22  1  0
M  ISO  3  17  14  18  14  22  14
M  END
>  <minimizedAffinity>  (1) 
-4.82598829

>  <minimizedRMSD>  (1) 
4.84167337

$$$$
