
     RDKit          3D

 19 19  0  0  0  0  0  0  0  0999 V2000
   45.1490   32.7790   47.6520 C   0  0  0  0  0  0  0  0  0  0  0  0
   45.7300   32.9290   46.3750 C   0  0  0  0  0  0  0  0  0  0  0  0
   46.9920   32.3380   46.2500 C   0  0  0  0  0  0  0  0  0  0  0  0
   47.5590   31.6910   47.2880 N   0  0  0  0  0  0  0  0  0  0  0  0
   46.9580   31.5760   48.4890 C   0  0  0  0  0  0  0  0  0  0  0  0
   45.7450   32.1350   48.6410 N   0  0  0  0  0  0  0  0  0  0  0  0
   47.5900   30.8890   49.5540 N   0  0  0  0  0  0  0  0  0  0  0  0
   45.0810   33.6190   45.3270 N   0  0  0  0  0  0  0  0  0  0  0  0
   44.7950   35.0130   45.3530 C   0  0  0  0  0  0  0  0  0  0  0  0
   44.3820   35.4830   46.5170 N   0  0  0  0  0  0  0  0  0  0  0  0
   44.9950   35.7240   44.1080 N   0  0  0  0  0  0  0  0  0  0  0  0
   44.1260   36.4720   46.6300 H   0  0  0  0  0  0  0  0  0  0  0  0
   44.1564   33.2172   47.8327 H   0  0  0  0  0  0  0  0  0  0  0  0
   47.5287   32.4021   45.2920 H   0  0  0  0  0  0  0  0  0  0  0  0
   47.1191   30.8088   50.4665 H   0  0  0  0  0  0  0  0  0  0  0  0
   48.5206   30.4696   49.4160 H   0  0  0  0  0  0  0  0  0  0  0  0
   44.7981   33.0816   44.4951 H   0  0  0  0  0  0  0  0  0  0  0  0
   44.8068   36.7354   44.0565 H   0  0  0  0  0  0  0  0  0  0  0  0
   45.3255   35.2185   43.2736 H   0  0  0  0  0  0  0  0  0  0  0  0
  1  6  2  0
  2  1  1  0
  3  2  2  0
  3  4  1  0
  4  5  2  0
  5  6  1  0
  5  7  1  0
  8  9  1  0
  8  2  1  0
  9 10  2  0
 10 12  1  0
 11  9  1  0
  1 13  1  0
  3 14  1  0
  7 15  1  0
  7 16  1  0
  8 17  1  0
 11 18  1  0
 11 19  1  0
M  ISO  2  13  14  14  14
M  END
>  <minimizedAffinity>  (1) 
-4.76384115

>  <minimizedRMSD>  (1) 
0.678295791

$$$$
