
     RDKit          3D

 20 20  0  0  0  0  0  0  0  0999 V2000
   45.3110   33.1390   47.2540 C   0  0  0  0  0  0  0  0  0  0  0  0
   45.6620   33.2970   45.8970 C   0  0  0  0  0  0  0  0  0  0  0  0
   46.8420   32.6540   45.5230 C   0  0  0  0  0  0  0  0  0  0  0  0
   47.5750   31.9390   46.4260 N   0  0  0  0  0  0  0  0  0  0  0  0
   47.1730   31.8310   47.7210 C   0  0  0  0  0  0  0  0  0  0  0  0
   46.0430   32.4380   48.1070 N   0  0  0  0  0  0  0  0  0  0  0  0
   44.8980   34.0410   44.9590 N   0  0  0  0  0  0  0  0  0  0  0  0
   44.6030   35.4170   45.0890 C   0  0  0  0  0  0  0  0  0  0  0  0
   44.3410   35.8430   46.3100 N   0  0  0  0  0  0  0  0  0  0  0  0
   44.6240   36.1970   43.8700 N   0  0  0  0  0  0  0  0  0  0  0  0
   44.1570   36.8390   46.5030 H   0  0  0  0  0  0  0  0  0  0  0  0
   47.9990   31.0430   48.6730 C   0  0  0  0  0  0  0  0  0  0  0  0
   47.1420   30.6350   49.6810 F   0  0  0  0  0  0  0  0  0  0  0  0
   48.5270   29.9550   48.0200 F   0  0  0  0  0  0  0  0  0  0  0  0
   48.9710   31.8370   49.2500 F   0  0  0  0  0  0  0  0  0  0  0  0
   44.3907   33.6181   47.6193 H   0  0  0  0  0  0  0  0  0  0  0  0
   47.1883   32.7243   44.4813 H   0  0  0  0  0  0  0  0  0  0  0  0
   44.5359   33.5463   44.1313 H   0  0  0  0  0  0  0  0  0  0  0  0
   44.4172   37.2056   43.9003 H   0  0  0  0  0  0  0  0  0  0  0  0
   44.8457   35.7435   42.9722 H   0  0  0  0  0  0  0  0  0  0  0  0
  1  6  2  0
  2  1  1  0
  3  2  2  0
  3  4  1  0
  4  5  2  0
  5  6  1  0
  5 12  1  0
  7  8  1  0
  7  2  1  0
  8  9  2  0
  9 11  1  0
 10  8  1  0
 12 15  1  0
 12 13  1  0
 14 12  1  0
  1 16  1  0
  3 17  1  0
  7 18  1  0
 10 19  1  0
 10 20  1  0
M  ISO  2  16  14  17  14
M  END
>  <minimizedAffinity>  (1) 
-4.73347759

>  <minimizedRMSD>  (1) 
1.50202429

$$$$
