
     RDKit          3D

 30 32  0  0  0  0  0  0  0  0999 V2000
   47.0030   28.1980   47.1060 C   0  0  0  0  0  0  0  0  0  0  0  0
   45.6910   28.5580   47.4860 C   0  0  0  0  0  0  0  0  0  0  0  0
   45.1550   29.6270   46.7710 C   0  0  0  0  0  0  0  0  0  0  0  0
   45.8700   30.2360   45.8010 N   0  0  0  0  0  0  0  0  0  0  0  0
   47.1160   29.8590   45.4730 C   0  0  0  0  0  0  0  0  0  0  0  0
   47.6710   28.8280   46.1420 N   0  0  0  0  0  0  0  0  0  0  0  0
   47.8290   30.5320   44.4430 N   0  0  0  0  0  0  0  0  0  0  0  0
   48.7990   30.0280   43.6580 C   0  0  0  0  0  0  0  0  0  0  0  0
   49.2010   31.0200   42.8120 N   0  0  0  0  0  0  0  0  0  0  0  0
   48.5020   32.1290   43.0540 C   0  0  0  0  0  0  0  0  0  0  0  0
   48.4010   33.4280   42.5960 C   0  0  0  0  0  0  0  0  0  0  0  0
   47.5490   34.3280   43.0900 N   0  0  0  0  0  0  0  0  0  0  0  0
   46.7140   33.9830   44.1020 C   0  0  0  0  0  0  0  0  0  0  0  0
   46.7450   32.7470   44.6050 N   0  0  0  0  0  0  0  0  0  0  0  0
   47.6190   31.8320   44.0980 C   0  0  0  0  0  0  0  0  0  0  0  0
   44.9890   27.8770   48.5130 N   0  0  0  0  0  0  0  0  0  0  0  0
   44.3740   26.6220   48.3660 C   0  0  0  0  0  0  0  0  0  0  0  0
   43.7620   26.4230   47.2110 N   0  0  0  0  0  0  0  0  0  0  0  0
   44.4950   25.7220   49.4950 N   0  0  0  0  0  0  0  0  0  0  0  0
   43.2780   25.5360   47.0180 H   0  0  0  0  0  0  0  0  0  0  0  0
   49.2750   33.7970   41.5320 N   0  0  0  0  0  0  0  0  0  0  0  0
   47.4929   27.3628   47.6280 H   0  0  0  0  0  0  0  0  0  0  0  0
   44.1381   29.9787   46.9993 H   0  0  0  0  0  0  0  0  0  0  0  0
   49.1957   29.0026   43.6922 H   0  0  0  0  0  0  0  0  0  0  0  0
   46.0098   34.7236   44.5090 H   0  0  0  0  0  0  0  0  0  0  0  0
   44.9253   28.3354   49.4332 H   0  0  0  0  0  0  0  0  0  0  0  0
   44.0679   24.7856   49.4552 H   0  0  0  0  0  0  0  0  0  0  0  0
   45.0081   26.0186   50.3374 H   0  0  0  0  0  0  0  0  0  0  0  0
   49.2452   34.7527   41.1490 H   0  0  0  0  0  0  0  0  0  0  0  0
   49.9363   33.1079   41.1462 H   0  0  0  0  0  0  0  0  0  0  0  0
  1  2  2  0
  2 16  1  0
  3  2  1  0
  4  3  2  0
  5  4  1  0
  5  6  2  0
  6  1  1  0
  7  5  1  0
  8  7  1  0
  9 10  1  0
  9  8  2  0
 10 15  2  0
 11 10  1  0
 11 12  2  0
 12 13  1  0
 13 14  2  0
 15  7  1  0
 15 14  1  0
 17 16  1  0
 17 19  1  0
 18 17  2  0
 20 18  1  0
 21 11  1  0
  1 22  1  0
  3 23  1  0
  8 24  1  0
 13 25  1  0
 16 26  1  0
 19 27  1  0
 19 28  1  0
 21 29  1  0
 21 30  1  0
M  ISO  4  22  14  23  14  24  14  25  14
M  END
>  <minimizedAffinity>  (1) 
-4.29752827

>  <minimizedRMSD>  (1) 
7.78607512

$$$$
