
     RDKit          3D

 24 25  0  0  0  0  0  0  0  0999 V2000
   45.3520   32.9920   47.6040 C   0  0  0  0  0  0  0  0  0  0  0  0
   45.6550   33.2150   46.2270 C   0  0  0  0  0  0  0  0  0  0  0  0
   46.9420   32.8430   45.8330 C   0  0  0  0  0  0  0  0  0  0  0  0
   47.8120   32.3070   46.7360 N   0  0  0  0  0  0  0  0  0  0  0  0
   47.4580   32.1240   48.0200 C   0  0  0  0  0  0  0  0  0  0  0  0
   46.2370   32.4670   48.4390 N   0  0  0  0  0  0  0  0  0  0  0  0
   48.4380   31.5590   48.8820 N   0  0  0  0  0  0  0  0  0  0  0  0
   48.2520   30.2880   49.2890 C   0  0  0  0  0  0  0  0  0  0  0  0
   49.3270   29.9770   50.1040 C   0  0  0  0  0  0  0  0  0  0  0  0
   50.1450   31.0630   50.1790 N   0  0  0  0  0  0  0  0  0  0  0  0
   49.5820   32.0250   49.4200 C   0  0  0  0  0  0  0  0  0  0  0  0
   44.7010   33.7810   45.3280 N   0  0  0  0  0  0  0  0  0  0  0  0
   44.4330   35.1750   45.2230 C   0  0  0  0  0  0  0  0  0  0  0  0
   44.4250   35.8290   46.3710 N   0  0  0  0  0  0  0  0  0  0  0  0
   44.2120   35.6680   43.8890 N   0  0  0  0  0  0  0  0  0  0  0  0
   44.2340   36.8480   46.3910 H   0  0  0  0  0  0  0  0  0  0  0  0
   44.3556   33.2637   47.9827 H   0  0  0  0  0  0  0  0  0  0  0  0
   47.2559   32.9832   44.7881 H   0  0  0  0  0  0  0  0  0  0  0  0
   47.4122   29.6281   49.0258 H   0  0  0  0  0  0  0  0  0  0  0  0
   49.4928   29.0130   50.6072 H   0  0  0  0  0  0  0  0  0  0  0  0
   49.9929   33.0334   49.2643 H   0  0  0  0  0  0  0  0  0  0  0  0
   44.1738   33.1406   44.7173 H   0  0  0  0  0  0  0  0  0  0  0  0
   44.0124   36.6667   43.7355 H   0  0  0  0  0  0  0  0  0  0  0  0
   44.2535   35.0221   43.0878 H   0  0  0  0  0  0  0  0  0  0  0  0
  1  6  2  0
  2  1  1  0
  3  2  2  0
  3  4  1  0
  4  5  2  0
  5  6  1  0
  5  7  1  0
  7  8  1  0
  7 11  1  0
  8  9  2  0
  9 10  1  0
 11 10  2  0
 12  2  1  0
 13 12  1  0
 13 14  2  0
 14 16  1  0
 15 13  1  0
  1 17  1  0
  3 18  1  0
  8 19  1  0
  9 20  1  0
 11 21  1  0
 12 22  1  0
 15 23  1  0
 15 24  1  0
M  ISO  5  17  14  18  14  19  14  20  14  21  14
M  END
>  <minimizedAffinity>  (1) 
-4.01261997

>  <minimizedRMSD>  (1) 
1.57141328

$$$$
