
     RDKit          3D

 31 33  0  0  0  0  0  0  0  0999 V2000
   46.7020   30.4870   47.0460 C   0  0  0  0  0  0  0  0  0  0  0  0
   47.1620   31.4800   47.9180 C   0  0  0  0  0  0  0  0  0  0  0  0
   47.1580   32.7610   47.3940 C   0  0  0  0  0  0  0  0  0  0  0  0
   46.7330   33.0070   46.1200 N   0  0  0  0  0  0  0  0  0  0  0  0
   46.3010   32.0040   45.3250 C   0  0  0  0  0  0  0  0  0  0  0  0
   46.2920   30.7390   45.8080 N   0  0  0  0  0  0  0  0  0  0  0  0
   45.8650   32.2780   43.9850 N   0  0  0  0  0  0  0  0  0  0  0  0
   44.7860   31.7650   43.3920 C   0  0  0  0  0  0  0  0  0  0  0  0
   44.7740   32.2900   42.1510 N   0  0  0  0  0  0  0  0  0  0  0  0
   45.8330   33.1080   41.9990 C   0  0  0  0  0  0  0  0  0  0  0  0
   46.2250   33.8630   40.8880 C   0  0  0  0  0  0  0  0  0  0  0  0
   47.3540   34.5900   41.0650 N   0  0  0  0  0  0  0  0  0  0  0  0
   48.0350   34.5800   42.2160 C   0  0  0  0  0  0  0  0  0  0  0  0
   47.6700   33.8520   43.3090 N   0  0  0  0  0  0  0  0  0  0  0  0
   46.5530   33.1120   43.1800 C   0  0  0  0  0  0  0  0  0  0  0  0
   47.5940   31.1670   49.2200 N   0  0  0  0  0  0  0  0  0  0  0  0
   48.7470   30.4290   49.5550 C   0  0  0  0  0  0  0  0  0  0  0  0
   49.0080   29.4120   48.7830 N   0  0  0  0  0  0  0  0  0  0  0  0
   49.5100   30.8560   50.6890 N   0  0  0  0  0  0  0  0  0  0  0  0
   49.8060   28.7810   48.9180 H   0  0  0  0  0  0  0  0  0  0  0  0
   49.2400   35.4050   42.2930 C   0  0  0  0  0  0  0  0  0  0  0  0
   49.3160   36.4160   41.5340 O   0  0  0  0  0  0  0  0  0  0  0  0
   50.2720   35.0850   43.1770 O   0  0  0  0  0  0  0  0  0  0  0  0
   46.6788   29.4469   47.4032 H   0  0  0  0  0  0  0  0  0  0  0  0
   47.5046   33.5986   48.0171 H   0  0  0  0  0  0  0  0  0  0  0  0
   44.0592   31.0617   43.8247 H   0  0  0  0  0  0  0  0  0  0  0  0
   45.6601   33.8659   39.9441 H   0  0  0  0  0  0  0  0  0  0  0  0
   47.0144   31.5086   49.9999 H   0  0  0  0  0  0  0  0  0  0  0  0
   50.3585   30.3401   50.9627 H   0  0  0  0  0  0  0  0  0  0  0  0
   49.2104   31.6790   51.2310 H   0  0  0  0  0  0  0  0  0  0  0  0
   51.0821   35.6526   43.2184 H   0  0  0  0  0  0  0  0  0  0  0  0
  1  2  2  0
  2 16  1  0
  3  2  1  0
  4  3  2  0
  5  6  2  0
  5  4  1  0
  6  1  1  0
  7  5  1  0
  8  7  1  0
  9  8  2  0
 10  9  1  0
 10 15  2  0
 11 12  2  0
 11 10  1  0
 12 13  1  0
 13 21  1  0
 13 14  2  0
 15 14  1  0
 15  7  1  0
 16 17  1  0
 17 19  1  0
 18 20  1  0
 18 17  2  0
 21 23  1  0
 22 21  2  0
  1 24  1  0
  3 25  1  0
  8 26  1  0
 11 27  1  0
 16 28  1  0
 19 29  1  0
 19 30  1  0
 23 31  1  0
M  ISO  5  24  14  25  14  26  14  27  14  31   3
M  END
>  <minimizedAffinity>  (1) 
-6.401618

>  <minimizedRMSD>  (1) 
2.93213511

$$$$
