
     RDKit          3D

 35 38  0  0  0  0  0  0  0  0999 V2000
   48.6010   29.7740   47.7940 C   0  0  0  0  0  0  0  0  0  0  0  0
   47.9300   30.5550   48.7400 C   0  0  0  0  0  0  0  0  0  0  0  0
   46.7150   31.0640   48.3130 C   0  0  0  0  0  0  0  0  0  0  0  0
   46.2360   30.8030   47.0550 N   0  0  0  0  0  0  0  0  0  0  0  0
   46.9310   30.0430   46.1930 C   0  0  0  0  0  0  0  0  0  0  0  0
   48.1240   29.5280   46.5750 N   0  0  0  0  0  0  0  0  0  0  0  0
   46.4020   29.7920   44.8800 N   0  0  0  0  0  0  0  0  0  0  0  0
   46.3740   28.6030   44.2690 C   0  0  0  0  0  0  0  0  0  0  0  0
   45.8050   28.8380   43.0680 N   0  0  0  0  0  0  0  0  0  0  0  0
   45.4940   30.1600   42.9550 C   0  0  0  0  0  0  0  0  0  0  0  0
   44.9050   30.8550   41.8970 C   0  0  0  0  0  0  0  0  0  0  0  0
   44.7420   32.1650   42.1070 N   0  0  0  0  0  0  0  0  0  0  0  0
   45.1240   32.7610   43.2640 C   0  0  0  0  0  0  0  0  0  0  0  0
   45.6950   32.0980   44.2930 N   0  0  0  0  0  0  0  0  0  0  0  0
   45.8770   30.7840   44.1250 C   0  0  0  0  0  0  0  0  0  0  0  0
   44.9380   34.1700   43.4640 N   0  0  0  0  0  0  0  0  0  0  0  0
   44.9650   34.8370   44.6100 N   0  0  0  0  0  0  0  0  0  0  0  0
   44.7550   36.1340   44.4390 C   0  0  0  0  0  0  0  0  0  0  0  0
   44.5740   36.3470   43.0780 C   0  0  0  0  0  0  0  0  0  0  0  0
   44.6970   35.1010   42.5140 C   0  0  0  0  0  0  0  0  0  0  0  0
   48.4850   30.7870   50.0110 N   0  0  0  0  0  0  0  0  0  0  0  0
   49.6840   30.2380   50.5150 C   0  0  0  0  0  0  0  0  0  0  0  0
   49.9170   28.9900   50.1680 N   0  0  0  0  0  0  0  0  0  0  0  0
   50.4650   31.1490   51.3370 N   0  0  0  0  0  0  0  0  0  0  0  0
   50.8210   28.5460   50.4410 H   0  0  0  0  0  0  0  0  0  0  0  0
   49.5732   29.3403   48.0709 H   0  0  0  0  0  0  0  0  0  0  0  0
   46.1225   31.6900   48.9964 H   0  0  0  0  0  0  0  0  0  0  0  0
   46.7364   27.6411   44.6606 H   0  0  0  0  0  0  0  0  0  0  0  0
   44.5986   30.3624   40.9624 H   0  0  0  0  0  0  0  0  0  0  0  0
   44.7288   36.9000   45.2281 H   0  0  0  0  0  0  0  0  0  0  0  0
   44.3763   37.3006   42.5666 H   0  0  0  0  0  0  0  0  0  0  0  0
   44.6113   34.8897   41.4379 H   0  0  0  0  0  0  0  0  0  0  0  0
   47.9655   31.4199   50.6359 H   0  0  0  0  0  0  0  0  0  0  0  0
   51.3559   30.8362   51.7485 H   0  0  0  0  0  0  0  0  0  0  0  0
   50.1272   32.1069   51.5076 H   0  0  0  0  0  0  0  0  0  0  0  0
  1  2  2  0
  2 21  1  0
  3  2  1  0
  4  3  2  0
  5  6  2  0
  5  4  1  0
  6  1  1  0
  7  5  1  0
  8  7  1  0
  9  8  2  0
 10  9  1  0
 10 15  2  0
 11 12  2  0
 11 10  1  0
 12 13  1  0
 13 16  1  0
 13 14  2  0
 15 14  1  0
 15  7  1  0
 16 17  1  0
 18 17  2  0
 19 18  1  0
 20 19  2  0
 20 16  1  0
 21 22  1  0
 22 24  1  0
 23 25  1  0
 23 22  2  0
  1 26  1  0
  3 27  1  0
  8 28  1  0
 11 29  1  0
 18 30  1  0
 19 31  1  0
 20 32  1  0
 21 33  1  0
 24 34  1  0
 24 35  1  0
M  ISO  7  26  14  27  14  28  14  29  14  30  14  31  14  32  14
M  END
>  <minimizedAffinity>  (1) 
-5.65411329

>  <minimizedRMSD>  (1) 
2.76959372

$$$$
