
     RDKit          3D

 38 41  0  0  0  0  0  0  0  0999 V2000
   49.5570   30.0010   48.3210 C   0  0  0  0  0  0  0  0  0  0  0  0
   49.0680   30.9820   49.1910 C   0  0  0  0  0  0  0  0  0  0  0  0
   47.8000   31.4840   48.8730 C   0  0  0  0  0  0  0  0  0  0  0  0
   47.1170   31.0280   47.7860 N   0  0  0  0  0  0  0  0  0  0  0  0
   47.6460   30.0730   46.9790 C   0  0  0  0  0  0  0  0  0  0  0  0
   48.8700   29.5690   47.2630 N   0  0  0  0  0  0  0  0  0  0  0  0
   46.9030   29.6190   45.8360 N   0  0  0  0  0  0  0  0  0  0  0  0
   46.7600   28.3480   45.4570 C   0  0  0  0  0  0  0  0  0  0  0  0
   46.0020   28.3890   44.3510 N   0  0  0  0  0  0  0  0  0  0  0  0
   45.6840   29.6760   44.0560 C   0  0  0  0  0  0  0  0  0  0  0  0
   44.9240   30.1920   43.0090 C   0  0  0  0  0  0  0  0  0  0  0  0
   44.8020   31.5310   43.0100 N   0  0  0  0  0  0  0  0  0  0  0  0
   45.3730   32.3090   43.9510 C   0  0  0  0  0  0  0  0  0  0  0  0
   46.1190   31.8000   44.9780 N   0  0  0  0  0  0  0  0  0  0  0  0
   46.2670   30.4750   45.0180 C   0  0  0  0  0  0  0  0  0  0  0  0
   49.8230   31.4230   50.2940 N   0  0  0  0  0  0  0  0  0  0  0  0
   50.5250   30.5990   51.2030 C   0  0  0  0  0  0  0  0  0  0  0  0
   49.9160   29.4580   51.5080 N   0  0  0  0  0  0  0  0  0  0  0  0
   51.8000   31.1480   51.6490 N   0  0  0  0  0  0  0  0  0  0  0  0
   50.4360   28.7740   52.1050 H   0  0  0  0  0  0  0  0  0  0  0  0
   45.2070   33.7600   43.9040 C   0  0  0  0  0  0  0  0  0  0  0  0
   45.3170   34.4290   42.7010 C   0  0  0  0  0  0  0  0  0  0  0  0
   45.1770   35.7910   42.5620 C   0  0  0  0  0  0  0  0  0  0  0  0
   44.9110   36.5030   43.7080 C   0  0  0  0  0  0  0  0  0  0  0  0
   44.7880   35.8930   44.9430 C   0  0  0  0  0  0  0  0  0  0  0  0
   44.9390   34.5080   45.0320 C   0  0  0  0  0  0  0  0  0  0  0  0
   50.5490   29.5685   48.5181 H   0  0  0  0  0  0  0  0  0  0  0  0
   47.3485   32.2584   49.5106 H   0  0  0  0  0  0  0  0  0  0  0  0
   47.1756   27.4554   45.9475 H   0  0  0  0  0  0  0  0  0  0  0  0
   44.4602   29.5544   42.2419 H   0  0  0  0  0  0  0  0  0  0  0  0
   49.8681   32.4396   50.4534 H   0  0  0  0  0  0  0  0  0  0  0  0
   52.3842   30.6197   52.3127 H   0  0  0  0  0  0  0  0  0  0  0  0
   52.1165   32.0641   51.3003 H   0  0  0  0  0  0  0  0  0  0  0  0
   45.5295   33.8370   41.7986 H   0  0  0  0  0  0  0  0  0  0  0  0
   45.2730   36.2850   41.5839 H   0  0  0  0  0  0  0  0  0  0  0  0
   44.7921   37.5944   43.6401 H   0  0  0  0  0  0  0  0  0  0  0  0
   44.5744   36.4902   45.8418 H   0  0  0  0  0  0  0  0  0  0  0  0
   44.8437   34.0097   46.0080 H   0  0  0  0  0  0  0  0  0  0  0  0
  1  2  2  0
  2 16  1  0
  3  2  1  0
  4  3  2  0
  5  6  2  0
  5  4  1  0
  6  1  1  0
  7  5  1  0
  8  7  1  0
  9  8  2  0
 10  9  1  0
 10 15  2  0
 11 12  2  0
 11 10  1  0
 12 13  1  0
 13 14  2  0
 14 15  1  0
 15  7  1  0
 16 17  1  0
 17 18  2  0
 17 19  1  0
 18 20  1  0
 21 13  1  0
 21 26  1  0
 22 21  2  0
 23 22  1  0
 23 24  2  0
 24 25  1  0
 25 26  2  0
  1 27  1  0
  3 28  1  0
  8 29  1  0
 11 30  1  0
 16 31  1  0
 19 32  1  0
 19 33  1  0
 22 34  1  0
 23 35  1  0
 24 36  1  0
 25 37  1  0
 26 38  1  0
M  ISO  8  27  14  28  14  29  14  30  14  34  14  35  14  36  14  37  14
M  ISO  1  38  14
M  END
>  <minimizedAffinity>  (1) 
-5.63790464

>  <minimizedRMSD>  (1) 
3.35459113

$$$$
