
     RDKit          3D

 35 38  0  0  0  0  0  0  0  0999 V2000
   48.3850   29.7380   47.9360 C   0  0  0  0  0  0  0  0  0  0  0  0
   48.0590   30.6580   48.9340 C   0  0  0  0  0  0  0  0  0  0  0  0
   46.9880   31.4870   48.6240 C   0  0  0  0  0  0  0  0  0  0  0  0
   46.3320   31.3830   47.4330 N   0  0  0  0  0  0  0  0  0  0  0  0
   46.7000   30.4600   46.4980 C   0  0  0  0  0  0  0  0  0  0  0  0
   47.7400   29.6390   46.7720 N   0  0  0  0  0  0  0  0  0  0  0  0
   45.9800   30.3960   45.2740 N   0  0  0  0  0  0  0  0  0  0  0  0
   45.5490   29.2420   44.7070 C   0  0  0  0  0  0  0  0  0  0  0  0
   44.9160   29.6300   43.5820 N   0  0  0  0  0  0  0  0  0  0  0  0
   44.9620   30.9870   43.4680 C   0  0  0  0  0  0  0  0  0  0  0  0
   44.4490   31.8370   42.4780 C   0  0  0  0  0  0  0  0  0  0  0  0
   44.6750   33.1420   42.6690 N   0  0  0  0  0  0  0  0  0  0  0  0
   45.3470   33.5900   43.7410 C   0  0  0  0  0  0  0  0  0  0  0  0
   45.8530   32.7940   44.7150 N   0  0  0  0  0  0  0  0  0  0  0  0
   45.6470   31.4720   44.5580 C   0  0  0  0  0  0  0  0  0  0  0  0
   48.7840   30.7140   50.1350 N   0  0  0  0  0  0  0  0  0  0  0  0
   49.9230   29.9490   50.4640 C   0  0  0  0  0  0  0  0  0  0  0  0
   49.8960   28.7040   50.0550 N   0  0  0  0  0  0  0  0  0  0  0  0
   50.9530   30.6600   51.2100 N   0  0  0  0  0  0  0  0  0  0  0  0
   50.7360   28.0990   50.1880 H   0  0  0  0  0  0  0  0  0  0  0  0
   45.5820   35.0530   43.9250 C   0  0  0  0  0  0  0  0  0  0  0  0
   44.5090   35.9040   44.5100 C   0  0  0  0  0  0  0  0  0  0  0  0
   44.8690   36.0420   43.0470 C   0  0  0  0  0  0  0  0  0  0  0  0
   49.2253   29.0525   48.1204 H   0  0  0  0  0  0  0  0  0  0  0  0
   46.6626   32.2426   49.3542 H   0  0  0  0  0  0  0  0  0  0  0  0
   45.6856   28.2169   45.0819 H   0  0  0  0  0  0  0  0  0  0  0  0
   43.8987   31.4573   41.6045 H   0  0  0  0  0  0  0  0  0  0  0  0
   48.4512   31.3799   50.8469 H   0  0  0  0  0  0  0  0  0  0  0  0
   51.8163   30.1722   51.4888 H   0  0  0  0  0  0  0  0  0  0  0  0
   50.8178   31.6504   51.4586 H   0  0  0  0  0  0  0  0  0  0  0  0
   46.6364   34.8582   44.1704 H   0  0  0  0  0  0  0  0  0  0  0  0
   43.5476   35.4548   44.7997 H   0  0  0  0  0  0  0  0  0  0  0  0
   44.4433   36.5953   45.3631 H   0  0  0  0  0  0  0  0  0  0  0  0
   45.3925   36.9410   42.6895 H   0  0  0  0  0  0  0  0  0  0  0  0
   44.3170   35.9895   42.0970 H   0  0  0  0  0  0  0  0  0  0  0  0
  1  2  2  0
  2 16  1  0
  3  2  1  0
  4  3  2  0
  5  6  2  0
  5  4  1  0
  6  1  1  0
  7  5  1  0
  8  7  1  0
  9  8  2  0
 10  9  1  0
 10 15  2  0
 11 12  2  0
 11 10  1  0
 12 13  1  0
 13 21  1  0
 13 14  2  0
 15 14  1  0
 15  7  1  0
 16 17  1  0
 17 19  1  0
 18 20  1  0
 18 17  2  0
 21 22  1  0
 23 21  1  0
 23 22  1  0
  1 24  1  0
  3 25  1  0
  8 26  1  0
 11 27  1  0
 16 28  1  0
 19 29  1  0
 19 30  1  0
 21 31  1  0
 22 32  1  0
 22 33  1  0
 23 34  1  0
 23 35  1  0
M  ISO  8  24  14  25  14  26  14  27  14  31  13  32  13  33  13  34  13
M  ISO  1  35  13
M  END
>  <minimizedAffinity>  (1) 
-5.39132071

>  <minimizedRMSD>  (1) 
2.10701799

$$$$
