
     RDKit          3D

 44 47  0  0  0  0  0  0  0  0999 V2000
   49.3210   29.7820   47.6590 C   0  0  0  0  0  0  0  0  0  0  0  0
   48.3940   30.4000   48.5050 C   0  0  0  0  0  0  0  0  0  0  0  0
   47.1890   30.7480   47.9060 C   0  0  0  0  0  0  0  0  0  0  0  0
   46.9470   30.4940   46.5860 N   0  0  0  0  0  0  0  0  0  0  0  0
   47.8940   29.8880   45.8160 C   0  0  0  0  0  0  0  0  0  0  0  0
   49.0770   29.5380   46.3710 N   0  0  0  0  0  0  0  0  0  0  0  0
   47.6240   29.6410   44.4270 N   0  0  0  0  0  0  0  0  0  0  0  0
   47.8930   28.5070   43.7740 C   0  0  0  0  0  0  0  0  0  0  0  0
   47.4880   28.7180   42.5100 N   0  0  0  0  0  0  0  0  0  0  0  0
   46.9770   29.9730   42.3960 C   0  0  0  0  0  0  0  0  0  0  0  0
   46.4450   30.6210   41.2850 C   0  0  0  0  0  0  0  0  0  0  0  0
   46.0210   31.8770   41.5160 N   0  0  0  0  0  0  0  0  0  0  0  0
   46.1060   32.4600   42.7270 C   0  0  0  0  0  0  0  0  0  0  0  0
   46.6310   31.8190   43.8140 N   0  0  0  0  0  0  0  0  0  0  0  0
   47.0620   30.5740   43.6320 C   0  0  0  0  0  0  0  0  0  0  0  0
   48.6930   30.6500   49.8550 N   0  0  0  0  0  0  0  0  0  0  0  0
   49.7610   30.0920   50.5910 C   0  0  0  0  0  0  0  0  0  0  0  0
   50.0330   28.8220   50.3090 N   0  0  0  0  0  0  0  0  0  0  0  0
   50.3850   31.0080   51.5390 N   0  0  0  0  0  0  0  0  0  0  0  0
   50.8770   28.3950   50.7540 H   0  0  0  0  0  0  0  0  0  0  0  0
   45.6090   33.8550   42.8770 C   0  0  0  0  0  0  0  0  0  0  0  0
   44.9910   34.0870   44.2370 C   0  0  0  0  0  0  0  0  0  0  0  0
   45.0490   35.5960   44.4510 C   0  0  0  0  0  0  0  0  0  0  0  0
   45.0460   36.3430   43.1520 C   0  0  0  0  0  0  0  0  0  0  0  0
   44.2130   35.6740   42.0900 C   0  0  0  0  0  0  0  0  0  0  0  0
   44.5800   34.2230   41.8620 C   0  0  0  0  0  0  0  0  0  0  0  0
   50.2948   29.4840   48.0749 H   0  0  0  0  0  0  0  0  0  0  0  0
   46.4117   31.2397   48.5094 H   0  0  0  0  0  0  0  0  0  0  0  0
   48.3493   27.5940   44.1840 H   0  0  0  0  0  0  0  0  0  0  0  0
   46.3766   30.1440   40.2962 H   0  0  0  0  0  0  0  0  0  0  0  0
   48.0736   31.3030   50.3558 H   0  0  0  0  0  0  0  0  0  0  0  0
   51.1729   30.6892   52.1207 H   0  0  0  0  0  0  0  0  0  0  0  0
   50.0377   31.9737   51.6268 H   0  0  0  0  0  0  0  0  0  0  0  0
   46.5021   34.4821   42.7388 H   0  0  0  0  0  0  0  0  0  0  0  0
   43.9489   33.7351   44.2522 H   0  0  0  0  0  0  0  0  0  0  0  0
   45.5226   33.5389   45.0288 H   0  0  0  0  0  0  0  0  0  0  0  0
   44.1743   35.9057   45.0418 H   0  0  0  0  0  0  0  0  0  0  0  0
   45.9855   35.8307   44.9781 H   0  0  0  0  0  0  0  0  0  0  0  0
   44.6444   37.3517   43.3287 H   0  0  0  0  0  0  0  0  0  0  0  0
   46.0832   36.3720   42.7868 H   0  0  0  0  0  0  0  0  0  0  0  0
   43.1568   35.7228   42.3934 H   0  0  0  0  0  0  0  0  0  0  0  0
   44.4003   36.2080   41.1467 H   0  0  0  0  0  0  0  0  0  0  0  0
   43.6903   33.5874   41.9820 H   0  0  0  0  0  0  0  0  0  0  0  0
   44.9712   34.0781   40.8442 H   0  0  0  0  0  0  0  0  0  0  0  0
  1  2  2  0
  2 16  1  0
  3  2  1  0
  4  3  2  0
  5  6  2  0
  5  4  1  0
  6  1  1  0
  7  5  1  0
  8  7  1  0
  9  8  2  0
 10  9  1  0
 10 15  2  0
 11 12  2  0
 11 10  1  0
 12 13  1  0
 13 21  1  0
 13 14  2  0
 15 14  1  0
 15  7  1  0
 16 17  1  0
 17 19  1  0
 18 17  2  0
 18 20  1  0
 21 22  1  0
 22 23  1  0
 24 23  1  0
 25 24  1  0
 26 25  1  0
 26 21  1  0
  1 27  1  0
  3 28  1  0
  8 29  1  0
 11 30  1  0
 16 31  1  0
 19 32  1  0
 19 33  1  0
 21 34  1  0
 22 35  1  0
 22 36  1  0
 23 37  1  0
 23 38  1  0
 24 39  1  0
 24 40  1  0
 25 41  1  0
 25 42  1  0
 26 43  1  0
 26 44  1  0
M  ISO  8  27  14  28  14  29  14  30  14  34  13  35  13  36  13  37  13
M  ISO  7  38  13  39  13  40  13  41  13  42  13  43  13  44  13
M  END
>  <minimizedAffinity>  (1) 
-5.26177311

>  <minimizedRMSD>  (1) 
3.45897889

$$$$
