
     RDKit          3D

 40 42  0  0  0  0  0  0  0  0999 V2000
   48.3290   30.4170   47.5170 C   0  0  0  0  0  0  0  0  0  0  0  0
   48.0160   31.4460   48.4090 C   0  0  0  0  0  0  0  0  0  0  0  0
   46.8860   32.1780   48.0730 C   0  0  0  0  0  0  0  0  0  0  0  0
   46.1600   31.8880   46.9540 N   0  0  0  0  0  0  0  0  0  0  0  0
   46.5150   30.8680   46.1200 C   0  0  0  0  0  0  0  0  0  0  0  0
   47.6140   30.1420   46.4260 N   0  0  0  0  0  0  0  0  0  0  0  0
   45.7260   30.6100   44.9680 N   0  0  0  0  0  0  0  0  0  0  0  0
   45.3250   29.3830   44.5760 C   0  0  0  0  0  0  0  0  0  0  0  0
   44.6070   29.5910   43.4540 N   0  0  0  0  0  0  0  0  0  0  0  0
   44.5730   30.9130   43.1710 C   0  0  0  0  0  0  0  0  0  0  0  0
   43.9610   31.6150   42.1180 C   0  0  0  0  0  0  0  0  0  0  0  0
   44.1250   32.9420   42.1300 N   0  0  0  0  0  0  0  0  0  0  0  0
   44.8320   33.5530   43.0930 C   0  0  0  0  0  0  0  0  0  0  0  0
   45.4370   32.9160   44.1240 N   0  0  0  0  0  0  0  0  0  0  0  0
   45.2980   31.5760   44.1490 C   0  0  0  0  0  0  0  0  0  0  0  0
   48.8160   31.6880   49.5410 N   0  0  0  0  0  0  0  0  0  0  0  0
   49.7480   30.7970   50.1140 C   0  0  0  0  0  0  0  0  0  0  0  0
   49.3980   29.5230   50.0950 N   0  0  0  0  0  0  0  0  0  0  0  0
   50.9450   31.4460   50.6320 N   0  0  0  0  0  0  0  0  0  0  0  0
   50.0910   28.8150   50.4290 H   0  0  0  0  0  0  0  0  0  0  0  0
   44.9550   35.0330   43.0150 C   0  0  0  0  0  0  0  0  0  0  0  0
   46.3880   35.3510   42.6430 C   0  0  0  0  0  0  0  0  0  0  0  0
   44.6760   35.6600   44.3620 C   0  0  0  0  0  0  0  0  0  0  0  0
   44.0120   35.6140   41.9840 C   0  0  0  0  0  0  0  0  0  0  0  0
   49.2148   29.7994   47.7267 H   0  0  0  0  0  0  0  0  0  0  0  0
   46.5690   33.0083   48.7212 H   0  0  0  0  0  0  0  0  0  0  0  0
   45.5377   28.4213   45.0657 H   0  0  0  0  0  0  0  0  0  0  0  0
   43.3833   31.1046   41.3333 H   0  0  0  0  0  0  0  0  0  0  0  0
   48.7109   32.6060   49.9962 H   0  0  0  0  0  0  0  0  0  0  0  0
   51.6874   30.8827   51.0706 H   0  0  0  0  0  0  0  0  0  0  0  0
   51.0489   32.4682   50.5596 H   0  0  0  0  0  0  0  0  0  0  0  0
   46.9837   35.4832   43.5582 H   0  0  0  0  0  0  0  0  0  0  0  0
   46.8052   34.5236   42.0503 H   0  0  0  0  0  0  0  0  0  0  0  0
   46.4161   36.2772   42.0503 H   0  0  0  0  0  0  0  0  0  0  0  0
   44.9840   34.9678   45.1595 H   0  0  0  0  0  0  0  0  0  0  0  0
   45.2411   36.5993   44.4533 H   0  0  0  0  0  0  0  0  0  0  0  0
   43.5999   35.8691   44.4533 H   0  0  0  0  0  0  0  0  0  0  0  0
   43.1819   36.1254   42.4933 H   0  0  0  0  0  0  0  0  0  0  0  0
   44.5554   36.3341   41.3546 H   0  0  0  0  0  0  0  0  0  0  0  0
   43.6132   34.8048   41.3546 H   0  0  0  0  0  0  0  0  0  0  0  0
  1  2  2  0
  2 16  1  0
  3  2  1  0
  4  3  2  0
  5  6  2  0
  5  4  1  0
  6  1  1  0
  7  5  1  0
  8  7  1  0
  9  8  2  0
 10  9  1  0
 10 15  2  0
 11 12  2  0
 11 10  1  0
 12 13  1  0
 13 14  2  0
 14 15  1  0
 15  7  1  0
 16 17  1  0
 17 19  1  0
 18 17  2  0
 18 20  1  0
 21 13  1  0
 21 23  1  0
 22 21  1  0
 24 21  1  0
  1 25  1  0
  3 26  1  0
  8 27  1  0
 11 28  1  0
 16 29  1  0
 19 30  1  0
 19 31  1  0
 22 32  1  0
 22 33  1  0
 22 34  1  0
 23 35  1  0
 23 36  1  0
 23 37  1  0
 24 38  1  0
 24 39  1  0
 24 40  1  0
M  ISO  8  25  14  26  14  27  14  28  14  32   8  33   8  34   8  35   8
M  ISO  5  36   8  37   8  38   8  39   8  40   8
M  END
>  <minimizedAffinity>  (1) 
-5.49466372

>  <minimizedRMSD>  (1) 
2.20835972

$$$$
