
     RDKit          3D

 41 43  0  0  0  0  0  0  0  0999 V2000
   48.3900   30.4240   47.5270 C   0  0  0  0  0  0  0  0  0  0  0  0
   48.0670   31.4370   48.4290 C   0  0  0  0  0  0  0  0  0  0  0  0
   46.9170   32.1530   48.1060 C   0  0  0  0  0  0  0  0  0  0  0  0
   46.1930   31.8530   46.9810 N   0  0  0  0  0  0  0  0  0  0  0  0
   46.5660   30.8530   46.1460 C   0  0  0  0  0  0  0  0  0  0  0  0
   47.6830   30.1360   46.4360 N   0  0  0  0  0  0  0  0  0  0  0  0
   45.7770   30.5830   44.9920 N   0  0  0  0  0  0  0  0  0  0  0  0
   45.3990   29.3610   44.5860 C   0  0  0  0  0  0  0  0  0  0  0  0
   44.6760   29.5660   43.4680 N   0  0  0  0  0  0  0  0  0  0  0  0
   44.6180   30.8910   43.2000 C   0  0  0  0  0  0  0  0  0  0  0  0
   43.9880   31.5920   42.1520 C   0  0  0  0  0  0  0  0  0  0  0  0
   44.1230   32.9130   42.1780 N   0  0  0  0  0  0  0  0  0  0  0  0
   44.8230   33.5390   43.1500 C   0  0  0  0  0  0  0  0  0  0  0  0
   45.4390   32.8910   44.1670 N   0  0  0  0  0  0  0  0  0  0  0  0
   45.3290   31.5530   44.1820 C   0  0  0  0  0  0  0  0  0  0  0  0
   48.8610   31.6890   49.5680 N   0  0  0  0  0  0  0  0  0  0  0  0
   49.7780   30.7890   50.1510 C   0  0  0  0  0  0  0  0  0  0  0  0
   49.4240   29.5070   50.1300 N   0  0  0  0  0  0  0  0  0  0  0  0
   50.9680   31.4300   50.6800 N   0  0  0  0  0  0  0  0  0  0  0  0
   50.1130   28.8030   50.4760 H   0  0  0  0  0  0  0  0  0  0  0  0
   44.9130   35.0190   43.0840 C   0  0  0  0  0  0  0  0  0  0  0  0
   46.3280   35.3590   42.6370 C   0  0  0  0  0  0  0  0  0  0  0  0
   44.7060   35.6230   44.4430 C   0  0  0  0  0  0  0  0  0  0  0  0
   43.9290   35.5870   42.0900 C   0  0  0  0  0  0  0  0  0  0  0  0
   42.6580   35.5420   42.6410 O   0  0  0  0  0  0  0  0  0  0  0  0
   49.2885   29.8228   47.7301 H   0  0  0  0  0  0  0  0  0  0  0  0
   46.5849   32.9706   48.7626 H   0  0  0  0  0  0  0  0  0  0  0  0
   45.6302   28.3977   45.0641 H   0  0  0  0  0  0  0  0  0  0  0  0
   43.4204   31.0776   41.3625 H   0  0  0  0  0  0  0  0  0  0  0  0
   48.7623   32.6124   50.0136 H   0  0  0  0  0  0  0  0  0  0  0  0
   51.7025   30.8633   51.1276 H   0  0  0  0  0  0  0  0  0  0  0  0
   51.0780   32.4516   50.6078 H   0  0  0  0  0  0  0  0  0  0  0  0
   46.9649   35.5120   43.5207 H   0  0  0  0  0  0  0  0  0  0  0  0
   46.7306   34.5320   42.0336 H   0  0  0  0  0  0  0  0  0  0  0  0
   46.3109   36.2786   42.0336 H   0  0  0  0  0  0  0  0  0  0  0  0
   44.9598   34.8825   45.2159 H   0  0  0  0  0  0  0  0  0  0  0  0
   45.3529   36.5057   44.5544 H   0  0  0  0  0  0  0  0  0  0  0  0
   43.6537   35.9233   44.5544 H   0  0  0  0  0  0  0  0  0  0  0  0
   43.9521   34.9910   41.1657 H   0  0  0  0  0  0  0  0  0  0  0  0
   44.1963   36.6276   41.8538 H   0  0  0  0  0  0  0  0  0  0  0  0
   42.7262   35.5444   43.6286 H   0  0  0  0  0  0  0  0  0  0  0  0
  1  2  2  0
  2 16  1  0
  3  2  1  0
  4  3  2  0
  5  6  2  0
  5  4  1  0
  6  1  1  0
  7  5  1  0
  8  7  1  0
  9  8  2  0
 10  9  1  0
 10 15  2  0
 11 12  2  0
 11 10  1  0
 12 13  1  0
 13 14  2  0
 14 15  1  0
 15  7  1  0
 16 17  1  0
 17 19  1  0
 18 17  2  0
 18 20  1  0
 21 13  1  0
 21 23  1  0
 22 21  1  0
 24 25  1  0
 24 21  1  0
  1 26  1  0
  3 27  1  0
  8 28  1  0
 11 29  1  0
 16 30  1  0
 19 31  1  0
 19 32  1  0
 22 33  1  0
 22 34  1  0
 22 35  1  0
 23 36  1  0
 23 37  1  0
 23 38  1  0
 24 39  1  0
 24 40  1  0
 25 41  1  0
M  ISO  8  26  14  27  14  28  14  29  14  33   8  34   8  35   8  36   8
M  ISO  5  37   8  38   8  39   8  40   8  41   3
M  END
>  <minimizedAffinity>  (1) 
-5.73380232

>  <minimizedRMSD>  (1) 
0.11133083

$$$$
