
     RDKit          3D

 47 50  0  0  0  0  0  0  0  0999 V2000
   48.7420   30.1520   48.2540 C   0  0  0  0  0  0  0  0  0  0  0  0
   48.7470   31.4170   48.8420 C   0  0  0  0  0  0  0  0  0  0  0  0
   47.8260   32.3120   48.3190 C   0  0  0  0  0  0  0  0  0  0  0  0
   46.9920   31.9600   47.3090 N   0  0  0  0  0  0  0  0  0  0  0  0
   47.0260   30.7090   46.7670 C   0  0  0  0  0  0  0  0  0  0  0  0
   47.9190   29.8110   47.2600 N   0  0  0  0  0  0  0  0  0  0  0  0
   46.1340   30.3800   45.7070 N   0  0  0  0  0  0  0  0  0  0  0  0
   45.4120   29.2530   45.6280 C   0  0  0  0  0  0  0  0  0  0  0  0
   44.7160   29.3460   44.4860 N   0  0  0  0  0  0  0  0  0  0  0  0
   45.0050   30.5150   43.8690 C   0  0  0  0  0  0  0  0  0  0  0  0
   44.5410   31.0670   42.6660 C   0  0  0  0  0  0  0  0  0  0  0  0
   45.0420   32.2650   42.3450 N   0  0  0  0  0  0  0  0  0  0  0  0
   45.9270   32.8890   43.1280 C   0  0  0  0  0  0  0  0  0  0  0  0
   46.4070   32.4000   44.2980 N   0  0  0  0  0  0  0  0  0  0  0  0
   45.9260   31.1950   44.6560 C   0  0  0  0  0  0  0  0  0  0  0  0
   49.6400   31.7260   49.8930 N   0  0  0  0  0  0  0  0  0  0  0  0
   50.3060   30.7830   50.7180 C   0  0  0  0  0  0  0  0  0  0  0  0
   49.5980   29.7070   51.0380 N   0  0  0  0  0  0  0  0  0  0  0  0
   51.6650   31.1740   51.0650 N   0  0  0  0  0  0  0  0  0  0  0  0
   50.0820   28.9480   51.5720 H   0  0  0  0  0  0  0  0  0  0  0  0
   46.4300   34.2210   42.6880 C   0  0  0  0  0  0  0  0  0  0  0  0
   47.8490   34.3650   43.1660 C   0  0  0  0  0  0  0  0  0  0  0  0
   45.6120   35.3240   43.2980 C   0  0  0  0  0  0  0  0  0  0  0  0
   46.3830   34.3390   41.1750 C   0  0  0  0  0  0  0  0  0  0  0  0
   47.6490   33.9130   40.5190 C   0  0  0  0  0  0  0  0  0  0  0  0
   47.5060   33.6460   39.0290 C   0  0  0  0  0  0  0  0  0  0  0  0
   48.3220   34.7860   39.5170 C   0  0  0  0  0  0  0  0  0  0  0  0
   49.4510   29.3986   48.6278 H   0  0  0  0  0  0  0  0  0  0  0  0
   47.7706   33.3299   48.7324 H   0  0  0  0  0  0  0  0  0  0  0  0
   45.3944   28.4238   46.3506 H   0  0  0  0  0  0  0  0  0  0  0  0
   43.8115   30.5478   42.0271 H   0  0  0  0  0  0  0  0  0  0  0  0
   49.8234   32.7229   50.0761 H   0  0  0  0  0  0  0  0  0  0  0  0
   52.2407   30.5621   51.6608 H   0  0  0  0  0  0  0  0  0  0  0  0
   52.0506   32.0625   50.7146 H   0  0  0  0  0  0  0  0  0  0  0  0
   47.8670   34.3668   44.2659 H   0  0  0  0  0  0  0  0  0  0  0  0
   48.4495   33.5232   42.7908 H   0  0  0  0  0  0  0  0  0  0  0  0
   48.2681   35.3103   42.7908 H   0  0  0  0  0  0  0  0  0  0  0  0
   45.6632   35.2550   44.3946 H   0  0  0  0  0  0  0  0  0  0  0  0
   46.0084   36.2972   42.9730 H   0  0  0  0  0  0  0  0  0  0  0  0
   44.5656   35.2272   42.9730 H   0  0  0  0  0  0  0  0  0  0  0  0
   45.5640   33.7080   40.7995 H   0  0  0  0  0  0  0  0  0  0  0  0
   46.2277   35.4006   40.9324 H   0  0  0  0  0  0  0  0  0  0  0  0
   48.0149   33.3959   41.4183 H   0  0  0  0  0  0  0  0  0  0  0  0
   46.5458   33.8307   38.5252 H   0  0  0  0  0  0  0  0  0  0  0  0
   47.6838   32.7840   38.3692 H   0  0  0  0  0  0  0  0  0  0  0  0
   49.4169   34.7566   39.4153 H   0  0  0  0  0  0  0  0  0  0  0  0
   48.3268   35.8682   39.3199 H   0  0  0  0  0  0  0  0  0  0  0  0
  1  2  2  0
  2 16  1  0
  3  2  1  0
  4  3  2  0
  5  6  2  0
  5  4  1  0
  6  1  1  0
  7  5  1  0
  8  7  1  0
  9  8  2  0
 10  9  1  0
 10 15  2  0
 11 10  1  0
 12 11  2  0
 12 13  1  0
 13 14  2  0
 14 15  1  0
 15  7  1  0
 16 17  1  0
 17 18  2  0
 17 19  1  0
 18 20  1  0
 21 13  1  0
 21 22  1  0
 21 23  1  0
 24 21  1  0
 25 24  1  0
 26 27  1  0
 26 25  1  0
 27 25  1  0
  1 28  1  0
  3 29  1  0
  8 30  1  0
 11 31  1  0
 16 32  1  0
 19 33  1  0
 19 34  1  0
 22 35  1  0
 22 36  1  0
 22 37  1  0
 23 38  1  0
 23 39  1  0
 23 40  1  0
 24 41  1  0
 24 42  1  0
 25 43  1  0
 26 44  1  0
 26 45  1  0
 27 46  1  0
 27 47  1  0
M  ISO  8  28  14  29  14  30  14  31  14  35   8  36   8  37   8  38   8
M  ISO  8  39   8  40   8  41   8  42   8  43  13  44  13  45  13  46  13
M  ISO  1  47  13
M  END
>  <minimizedAffinity>  (1) 
-5.52606964

>  <minimizedRMSD>  (1) 
2.40272331

$$$$
