
     RDKit          3D

 19 20  0  0  0  0  0  0  0  0999 V2000
   44.4960   35.9450   44.7010 C   0  0  0  0  0  0  0  0  0  0  0  0
   45.1920   35.8550   43.4840 C   0  0  0  0  0  0  0  0  0  0  0  0
   46.0890   34.8050   43.2970 C   0  0  0  0  0  0  0  0  0  0  0  0
   46.2510   33.9100   44.3070 N   0  0  0  0  0  0  0  0  0  0  0  0
   45.5690   34.0170   45.4700 C   0  0  0  0  0  0  0  0  0  0  0  0
   44.7010   35.0210   45.6700 N   0  0  0  0  0  0  0  0  0  0  0  0
   46.8180   34.7010   42.0370 C   0  0  0  0  0  0  0  0  0  0  0  0
   48.0240   35.3590   41.9110 C   0  0  0  0  0  0  0  0  0  0  0  0
   48.6220   35.1910   40.6780 C   0  0  0  0  0  0  0  0  0  0  0  0
   48.0750   34.4310   39.6440 C   0  0  0  0  0  0  0  0  0  0  0  0
   46.8520   33.8020   39.8620 C   0  0  0  0  0  0  0  0  0  0  0  0
   46.2630   33.9650   41.0690 N   0  0  0  0  0  0  0  0  0  0  0  0
   43.7838   36.7667   44.8672 H   0  0  0  0  0  0  0  0  0  0  0  0
   45.0316   36.6010   42.6917 H   0  0  0  0  0  0  0  0  0  0  0  0
   45.7278   33.2711   46.2627 H   0  0  0  0  0  0  0  0  0  0  0  0
   48.4677   35.9612   42.7175 H   0  0  0  0  0  0  0  0  0  0  0  0
   49.5880   35.6863   40.5003 H   0  0  0  0  0  0  0  0  0  0  0  0
   48.5967   34.3311   38.6807 H   0  0  0  0  0  0  0  0  0  0  0  0
   46.3798   33.1920   39.0778 H   0  0  0  0  0  0  0  0  0  0  0  0
  1  6  2  0
  2  1  1  0
  3  2  2  0
  3  4  1  0
  4  5  2  0
  5  6  1  0
  7  3  1  0
  8  7  2  0
  9  8  1  0
 10 11  1  0
 10  9  2  0
 11 12  2  0
 12  7  1  0
  1 13  1  0
  2 14  1  0
  5 15  1  0
  8 16  1  0
  9 17  1  0
 10 18  1  0
 11 19  1  0
M  ISO  7  13  14  14  14  15  14  16  14  17  14  18  14  19  14
M  END
>  <minimizedAffinity>  (1) 
-4.73995209

>  <minimizedRMSD>  (1) 
0.749562562

$$$$
