
     RDKit          3D

 30 33  0  0  0  0  0  0  0  0999 V2000
   46.9610   34.8290   42.0410 C   0  0  0  0  0  0  0  0  0  0  0  0
   48.1620   35.4840   41.9850 C   0  0  0  0  0  0  0  0  0  0  0  0
   48.8290   35.3460   40.7910 C   0  0  0  0  0  0  0  0  0  0  0  0
   48.3410   34.6070   39.7190 C   0  0  0  0  0  0  0  0  0  0  0  0
   47.1110   33.9690   39.8520 C   0  0  0  0  0  0  0  0  0  0  0  0
   46.4680   34.1130   41.0280 N   0  0  0  0  0  0  0  0  0  0  0  0
   46.4660   33.1730   38.8530 N   0  0  0  0  0  0  0  0  0  0  0  0
   45.2980   32.5170   38.9570 C   0  0  0  0  0  0  0  0  0  0  0  0
   45.0830   31.9010   37.7680 N   0  0  0  0  0  0  0  0  0  0  0  0
   46.1200   32.1910   36.9680 C   0  0  0  0  0  0  0  0  0  0  0  0
   46.4740   31.8640   35.6570 C   0  0  0  0  0  0  0  0  0  0  0  0
   47.6000   32.2920   35.0600 N   0  0  0  0  0  0  0  0  0  0  0  0
   48.4370   33.0850   35.7750 C   0  0  0  0  0  0  0  0  0  0  0  0
   48.1590   33.4470   37.0610 N   0  0  0  0  0  0  0  0  0  0  0  0
   47.0350   33.0070   37.6240 C   0  0  0  0  0  0  0  0  0  0  0  0
   44.4870   36.0250   44.5820 C   0  0  0  0  0  0  0  0  0  0  0  0
   45.2530   35.9540   43.4110 C   0  0  0  0  0  0  0  0  0  0  0  0
   46.1620   34.9050   43.2600 C   0  0  0  0  0  0  0  0  0  0  0  0
   46.2680   33.9960   44.2520 N   0  0  0  0  0  0  0  0  0  0  0  0
   45.5220   34.0760   45.3780 C   0  0  0  0  0  0  0  0  0  0  0  0
   44.6430   35.0760   45.5430 N   0  0  0  0  0  0  0  0  0  0  0  0
   48.5600   36.0717   42.8254 H   0  0  0  0  0  0  0  0  0  0  0  0
   49.8015   35.8474   40.6774 H   0  0  0  0  0  0  0  0  0  0  0  0
   48.9156   34.5281   38.7843 H   0  0  0  0  0  0  0  0  0  0  0  0
   44.6411   32.4855   39.8388 H   0  0  0  0  0  0  0  0  0  0  0  0
   45.7933   31.2202   35.0807 H   0  0  0  0  0  0  0  0  0  0  0  0
   49.3642   33.4457   35.3057 H   0  0  0  0  0  0  0  0  0  0  0  0
   43.7647   36.8426   44.7228 H   0  0  0  0  0  0  0  0  0  0  0  0
   45.1400   36.7129   42.6228 H   0  0  0  0  0  0  0  0  0  0  0  0
   45.6371   33.3153   46.1642 H   0  0  0  0  0  0  0  0  0  0  0  0
  1 18  1  0
  2  1  2  0
  3  2  1  0
  4  5  1  0
  4  3  2  0
  5  6  2  0
  6  1  1  0
  7  8  1  0
  7  5  1  0
  9  8  2  0
 10 15  2  0
 10  9  1  0
 11 10  1  0
 12 11  2  0
 12 13  1  0
 13 14  2  0
 14 15  1  0
 15  7  1  0
 16 21  2  0
 17 16  1  0
 18 17  2  0
 18 19  1  0
 19 20  2  0
 20 21  1  0
  2 22  1  0
  3 23  1  0
  4 24  1  0
  8 25  1  0
 11 26  1  0
 13 27  1  0
 16 28  1  0
 17 29  1  0
 20 30  1  0
M  ISO  8  22  14  23  14  24  14  25  14  26  14  27  14  28  14  29  14
M  ISO  1  30  14
M  END
>  <minimizedAffinity>  (1) 
-6.32699585

>  <minimizedRMSD>  (1) 
0.356797129

$$$$
