
     RDKit          3D

 32 34  0  0  0  0  0  0  0  0999 V2000
   46.8320   34.7310   42.0170 C   0  0  0  0  0  0  0  0  0  0  0  0
   48.0770   35.3160   41.9260 C   0  0  0  0  0  0  0  0  0  0  0  0
   48.6810   35.1680   40.6930 C   0  0  0  0  0  0  0  0  0  0  0  0
   48.0990   34.4930   39.6270 C   0  0  0  0  0  0  0  0  0  0  0  0
   46.8420   33.9350   39.8080 C   0  0  0  0  0  0  0  0  0  0  0  0
   46.2420   34.0720   41.0100 N   0  0  0  0  0  0  0  0  0  0  0  0
   46.0970   33.2050   38.8140 N   0  0  0  0  0  0  0  0  0  0  0  0
   45.0320   32.5310   39.2860 C   0  0  0  0  0  0  0  0  0  0  0  0
   44.2880   31.8150   38.3680 C   0  0  0  0  0  0  0  0  0  0  0  0
   43.0880   31.0330   38.7710 C   0  0  0  0  0  0  0  0  0  0  0  0
   44.7200   31.8700   37.0620 C   0  0  0  0  0  0  0  0  0  0  0  0
   44.0580   31.2230   36.1910 O   0  0  0  0  0  0  0  0  0  0  0  0
   45.7870   32.5480   36.6040 N   0  0  0  0  0  0  0  0  0  0  0  0
   46.5040   33.2450   37.5330 C   0  0  0  0  0  0  0  0  0  0  0  0
   47.4990   33.8850   37.1450 O   0  0  0  0  0  0  0  0  0  0  0  0
   44.5010   35.9310   44.6810 C   0  0  0  0  0  0  0  0  0  0  0  0
   45.1990   35.8590   43.4680 C   0  0  0  0  0  0  0  0  0  0  0  0
   46.0950   34.8220   43.2760 C   0  0  0  0  0  0  0  0  0  0  0  0
   46.2560   33.9230   44.2730 N   0  0  0  0  0  0  0  0  0  0  0  0
   45.5790   34.0020   45.4360 C   0  0  0  0  0  0  0  0  0  0  0  0
   44.7030   35.0040   45.6410 N   0  0  0  0  0  0  0  0  0  0  0  0
   48.5480   35.8535   42.7622 H   0  0  0  0  0  0  0  0  0  0  0  0
   49.6781   35.6089   40.5466 H   0  0  0  0  0  0  0  0  0  0  0  0
   48.6221   34.4034   38.6635 H   0  0  0  0  0  0  0  0  0  0  0  0
   44.7662   32.5493   40.3532 H   0  0  0  0  0  0  0  0  0  0  0  0
   43.0276   30.9937   39.8686 H   0  0  0  0  0  0  0  0  0  0  0  0
   42.1843   31.5161   38.3711 H   0  0  0  0  0  0  0  0  0  0  0  0
   43.1650   30.0111   38.3711 H   0  0  0  0  0  0  0  0  0  0  0  0
   46.0486   32.5417   35.6078 H   0  0  0  0  0  0  0  0  0  0  0  0
   43.7843   36.7478   44.8518 H   0  0  0  0  0  0  0  0  0  0  0  0
   45.0377   36.6127   42.6832 H   0  0  0  0  0  0  0  0  0  0  0  0
   45.7424   33.2467   46.2189 H   0  0  0  0  0  0  0  0  0  0  0  0
  1 18  1  0
  2  1  2  0
  3  2  1  0
  4  5  1  0
  4  3  2  0
  5  6  2  0
  6  1  1  0
  7  8  1  0
  7  5  1  0
  9 10  1  0
  9  8  2  0
 11  9  1  0
 12 11  2  0
 13 11  1  0
 13 14  1  0
 14  7  1  0
 15 14  2  0
 16 21  2  0
 17 16  1  0
 18 17  2  0
 18 19  1  0
 19 20  2  0
 20 21  1  0
  2 22  1  0
  3 23  1  0
  4 24  1  0
  8 25  1  0
 10 26  1  0
 10 27  1  0
 10 28  1  0
 13 29  1  0
 16 30  1  0
 17 31  1  0
 20 32  1  0
M  ISO  8  22  14  23  14  24  14  25  14  26   8  27   8  28   8  29   9
M  ISO  3  30  14  31  14  32  14
M  END
>  <minimizedAffinity>  (1) 
-6.15199184

>  <minimizedRMSD>  (1) 
0.247441366

$$$$
