
     RDKit          3D

 33 36  0  0  0  0  0  0  0  0999 V2000
   46.9310   34.7970   42.0460 C   0  0  0  0  0  0  0  0  0  0  0  0
   48.1510   35.4360   41.9900 C   0  0  0  0  0  0  0  0  0  0  0  0
   48.8030   35.3360   40.7810 C   0  0  0  0  0  0  0  0  0  0  0  0
   48.2820   34.6470   39.6830 C   0  0  0  0  0  0  0  0  0  0  0  0
   47.0510   34.0360   39.8320 C   0  0  0  0  0  0  0  0  0  0  0  0
   46.4110   34.1340   41.0220 N   0  0  0  0  0  0  0  0  0  0  0  0
   46.4540   33.3000   38.7230 C   0  0  0  0  0  0  0  0  0  0  0  0
   45.1890   32.7450   38.7200 C   0  0  0  0  0  0  0  0  0  0  0  0
   44.9920   32.1560   37.5470 N   0  0  0  0  0  0  0  0  0  0  0  0
   46.1200   32.3370   36.8140 C   0  0  0  0  0  0  0  0  0  0  0  0
   46.3250   31.8780   35.5320 C   0  0  0  0  0  0  0  0  0  0  0  0
   47.5480   32.1690   34.9640 C   0  0  0  0  0  0  0  0  0  0  0  0
   48.5270   32.8900   35.6450 C   0  0  0  0  0  0  0  0  0  0  0  0
   48.2930   33.3420   36.9410 C   0  0  0  0  0  0  0  0  0  0  0  0
   47.0720   33.0530   37.5140 C   0  0  0  0  0  0  0  0  0  0  0  0
   44.5100   35.8820   44.6800 C   0  0  0  0  0  0  0  0  0  0  0  0
   45.2350   35.8630   43.4720 C   0  0  0  0  0  0  0  0  0  0  0  0
   46.1680   34.8440   43.2800 C   0  0  0  0  0  0  0  0  0  0  0  0
   46.3290   33.9200   44.2710 N   0  0  0  0  0  0  0  0  0  0  0  0
   45.6150   33.9700   45.4180 C   0  0  0  0  0  0  0  0  0  0  0  0
   44.7160   34.9340   45.6270 N   0  0  0  0  0  0  0  0  0  0  0  0
   48.5719   35.9841   42.8458 H   0  0  0  0  0  0  0  0  0  0  0  0
   49.7835   35.8232   40.6745 H   0  0  0  0  0  0  0  0  0  0  0  0
   48.8326   34.5926   38.7323 H   0  0  0  0  0  0  0  0  0  0  0  0
   44.4673   32.7845   39.5492 H   0  0  0  0  0  0  0  0  0  0  0  0
   44.1426   31.6555   37.2489 H   0  0  0  0  0  0  0  0  0  0  0  0
   45.5548   31.3097   34.9899 H   0  0  0  0  0  0  0  0  0  0  0  0
   47.7570   31.8211   33.9416 H   0  0  0  0  0  0  0  0  0  0  0  0
   49.4892   33.1030   35.1563 H   0  0  0  0  0  0  0  0  0  0  0  0
   49.0573   33.9113   37.4903 H   0  0  0  0  0  0  0  0  0  0  0  0
   43.7684   36.6750   44.8567 H   0  0  0  0  0  0  0  0  0  0  0  0
   45.0698   36.6306   42.7016 H   0  0  0  0  0  0  0  0  0  0  0  0
   45.7776   33.2043   46.1909 H   0  0  0  0  0  0  0  0  0  0  0  0
  1 18  1  0
  2  1  2  0
  3  2  1  0
  4  5  1  0
  4  3  2  0
  5  6  2  0
  6  1  1  0
  7  5  1  0
  8  7  2  0
  9  8  1  0
 10 15  2  0
 10  9  1  0
 11 10  1  0
 12 11  2  0
 12 13  1  0
 13 14  2  0
 14 15  1  0
 15  7  1  0
 16 21  2  0
 17 16  1  0
 18 17  2  0
 18 19  1  0
 19 20  2  0
 20 21  1  0
  2 22  1  0
  3 23  1  0
  4 24  1  0
  8 25  1  0
  9 26  1  0
 11 27  1  0
 12 28  1  0
 13 29  1  0
 14 30  1  0
 16 31  1  0
 17 32  1  0
 20 33  1  0
M  ISO  8  22  14  23  14  24  14  25  14  26   9  27  14  28  14  29  14
M  ISO  4  30  14  31  14  32  14  33  14
M  END
>  <minimizedAffinity>  (1) 
-6.13669062

>  <minimizedRMSD>  (1) 
0.486159652

$$$$
