
     RDKit          3D

 32 34  0  0  0  0  0  0  0  0999 V2000
   46.9130   34.7710   42.0690 C   0  0  0  0  0  0  0  0  0  0  0  0
   48.0950   35.4950   41.9940 C   0  0  0  0  0  0  0  0  0  0  0  0
   48.7320   35.3590   40.7710 C   0  0  0  0  0  0  0  0  0  0  0  0
   48.2480   34.5750   39.7110 C   0  0  0  0  0  0  0  0  0  0  0  0
   47.0600   33.8970   39.9010 C   0  0  0  0  0  0  0  0  0  0  0  0
   46.4270   34.0220   41.0890 N   0  0  0  0  0  0  0  0  0  0  0  0
   46.4790   33.0850   38.9160 N   0  0  0  0  0  0  0  0  0  0  0  0
   46.7770   33.0200   37.5240 C   0  0  0  0  0  0  0  0  0  0  0  0
   45.5810   33.1400   36.6110 C   0  0  0  0  0  0  0  0  0  0  0  0
   44.4900   32.4070   37.0190 O   0  0  0  0  0  0  0  0  0  0  0  0
   44.2280   32.5290   38.3800 C   0  0  0  0  0  0  0  0  0  0  0  0
   45.4380   32.1490   39.2070 C   0  0  0  0  0  0  0  0  0  0  0  0
   44.5000   35.9160   44.6980 C   0  0  0  0  0  0  0  0  0  0  0  0
   45.2290   35.8580   43.5000 C   0  0  0  0  0  0  0  0  0  0  0  0
   46.1530   34.8370   43.3070 C   0  0  0  0  0  0  0  0  0  0  0  0
   46.3110   33.9230   44.3120 N   0  0  0  0  0  0  0  0  0  0  0  0
   45.5980   33.9940   45.4600 C   0  0  0  0  0  0  0  0  0  0  0  0
   44.6990   34.9860   45.6500 N   0  0  0  0  0  0  0  0  0  0  0  0
   48.4845   36.1111   42.8178 H   0  0  0  0  0  0  0  0  0  0  0  0
   49.6779   35.9000   40.6206 H   0  0  0  0  0  0  0  0  0  0  0  0
   48.7972   34.5034   38.7606 H   0  0  0  0  0  0  0  0  0  0  0  0
   47.4725   33.8380   37.2850 H   0  0  0  0  0  0  0  0  0  0  0  0
   47.2015   32.0209   37.3461 H   0  0  0  0  0  0  0  0  0  0  0  0
   45.8747   32.7945   35.6088 H   0  0  0  0  0  0  0  0  0  0  0  0
   45.2767   34.1970   36.6221 H   0  0  0  0  0  0  0  0  0  0  0  0
   43.9556   33.5716   38.6009 H   0  0  0  0  0  0  0  0  0  0  0  0
   43.4025   31.8493   38.6380 H   0  0  0  0  0  0  0  0  0  0  0  0
   45.7655   31.1320   38.9453 H   0  0  0  0  0  0  0  0  0  0  0  0
   45.1920   32.1695   40.2790 H   0  0  0  0  0  0  0  0  0  0  0  0
   43.7671   36.7205   44.8584 H   0  0  0  0  0  0  0  0  0  0  0  0
   45.0703   36.6157   42.7185 H   0  0  0  0  0  0  0  0  0  0  0  0
   45.7510   33.2387   46.2449 H   0  0  0  0  0  0  0  0  0  0  0  0
  1 15  1  0
  2  1  2  0
  3  2  1  0
  4  5  1  0
  4  3  2  0
  5  6  2  0
  6  1  1  0
  7 12  1  0
  7  5  1  0
  8  7  1  0
  9 10  1  0
  9  8  1  0
 10 11  1  0
 11 12  1  0
 13 18  2  0
 14 13  1  0
 15 14  2  0
 15 16  1  0
 16 17  2  0
 17 18  1  0
  2 19  1  0
  3 20  1  0
  4 21  1  0
  8 22  1  0
  8 23  1  0
  9 24  1  0
  9 25  1  0
 11 26  1  0
 11 27  1  0
 12 28  1  0
 12 29  1  0
 13 30  1  0
 14 31  1  0
 17 32  1  0
M  ISO  8  19  14  20  14  21  14  22  13  23  13  24  13  25  13  26  13
M  ISO  6  27  13  28  13  29  13  30  14  31  14  32  14
M  END
>  <minimizedAffinity>  (1) 
-5.74805117

>  <minimizedRMSD>  (1) 
0.216882527

$$$$
