
     RDKit          3D

 26 28  0  0  0  0  0  0  0  0999 V2000
   46.8040   34.7260   42.0310 C   0  0  0  0  0  0  0  0  0  0  0  0
   48.0570   35.3110   41.9320 C   0  0  0  0  0  0  0  0  0  0  0  0
   48.6630   35.1660   40.7080 C   0  0  0  0  0  0  0  0  0  0  0  0
   48.0690   34.4810   39.6370 C   0  0  0  0  0  0  0  0  0  0  0  0
   46.8120   33.9240   39.8190 C   0  0  0  0  0  0  0  0  0  0  0  0
   46.2290   34.0760   41.0280 N   0  0  0  0  0  0  0  0  0  0  0  0
   46.1700   33.2200   38.7620 N   0  0  0  0  0  0  0  0  0  0  0  0
   45.0580   32.5050   38.6890 N   0  0  0  0  0  0  0  0  0  0  0  0
   44.8660   32.0310   37.4550 C   0  0  0  0  0  0  0  0  0  0  0  0
   45.9330   32.4760   36.6830 C   0  0  0  0  0  0  0  0  0  0  0  0
   46.7520   33.2300   37.5290 C   0  0  0  0  0  0  0  0  0  0  0  0
   44.4940   35.9400   44.7050 C   0  0  0  0  0  0  0  0  0  0  0  0
   45.1850   35.8590   43.4910 C   0  0  0  0  0  0  0  0  0  0  0  0
   46.0810   34.8240   43.2830 C   0  0  0  0  0  0  0  0  0  0  0  0
   46.2490   33.9190   44.2900 N   0  0  0  0  0  0  0  0  0  0  0  0
   45.5770   34.0090   45.4570 C   0  0  0  0  0  0  0  0  0  0  0  0
   44.7110   35.0010   45.6690 N   0  0  0  0  0  0  0  0  0  0  0  0
   48.5286   35.8488   42.7677 H   0  0  0  0  0  0  0  0  0  0  0  0
   49.6598   35.6071   40.5605 H   0  0  0  0  0  0  0  0  0  0  0  0
   48.5898   34.3877   38.6726 H   0  0  0  0  0  0  0  0  0  0  0  0
   44.0253   31.4083   37.1151 H   0  0  0  0  0  0  0  0  0  0  0  0
   46.1004   32.2742   35.6147 H   0  0  0  0  0  0  0  0  0  0  0  0
   47.6888   33.7357   37.2522 H   0  0  0  0  0  0  0  0  0  0  0  0
   43.7792   36.7574   44.8806 H   0  0  0  0  0  0  0  0  0  0  0  0
   45.0176   36.6124   42.7072 H   0  0  0  0  0  0  0  0  0  0  0  0
   45.7453   33.2564   46.2414 H   0  0  0  0  0  0  0  0  0  0  0  0
  1 14  1  0
  2  1  2  0
  3  2  1  0
  4  5  1  0
  4  3  2  0
  5  6  2  0
  6  1  1  0
  7  5  1  0
  8  7  1  0
  9  8  2  0
 10  9  1  0
 10 11  2  0
 11  7  1  0
 12 17  2  0
 13 12  1  0
 14 13  2  0
 14 15  1  0
 15 16  2  0
 16 17  1  0
  2 18  1  0
  3 19  1  0
  4 20  1  0
  9 21  1  0
 10 22  1  0
 11 23  1  0
 12 24  1  0
 13 25  1  0
 16 26  1  0
M  ISO  8  18  14  19  14  20  14  21  14  22  14  23  14  24  14  25  14
M  ISO  1  26  14
M  END
>  <minimizedAffinity>  (1) 
-5.57369566

>  <minimizedRMSD>  (1) 
0.182399809

$$$$
