
     RDKit          3D

 26 28  0  0  0  0  0  0  0  0999 V2000
   46.8490   34.7440   42.0230 C   0  0  0  0  0  0  0  0  0  0  0  0
   48.0740   35.3510   41.9250 C   0  0  0  0  0  0  0  0  0  0  0  0
   48.6950   35.2090   40.7040 C   0  0  0  0  0  0  0  0  0  0  0  0
   48.1340   34.5070   39.6410 C   0  0  0  0  0  0  0  0  0  0  0  0
   46.8930   33.9200   39.8120 C   0  0  0  0  0  0  0  0  0  0  0  0
   46.3060   34.0730   41.0170 N   0  0  0  0  0  0  0  0  0  0  0  0
   46.1910   33.1690   38.8160 N   0  0  0  0  0  0  0  0  0  0  0  0
   46.4940   33.2240   37.4860 C   0  0  0  0  0  0  0  0  0  0  0  0
   45.6220   32.3780   36.8250 C   0  0  0  0  0  0  0  0  0  0  0  0
   44.8090   31.8290   37.7560 N   0  0  0  0  0  0  0  0  0  0  0  0
   45.1530   32.3080   38.9720 C   0  0  0  0  0  0  0  0  0  0  0  0
   44.4980   35.9350   44.6700 C   0  0  0  0  0  0  0  0  0  0  0  0
   45.2040   35.8630   43.4630 C   0  0  0  0  0  0  0  0  0  0  0  0
   46.1070   34.8310   43.2740 C   0  0  0  0  0  0  0  0  0  0  0  0
   46.2740   33.9200   44.2750 N   0  0  0  0  0  0  0  0  0  0  0  0
   45.5840   34.0050   45.4330 C   0  0  0  0  0  0  0  0  0  0  0  0
   44.7040   35.0030   45.6300 N   0  0  0  0  0  0  0  0  0  0  0  0
   48.5265   35.9090   42.7580 H   0  0  0  0  0  0  0  0  0  0  0  0
   49.6822   35.6728   40.5619 H   0  0  0  0  0  0  0  0  0  0  0  0
   48.6674   34.4206   38.6829 H   0  0  0  0  0  0  0  0  0  0  0  0
   47.2870   33.8305   37.0243 H   0  0  0  0  0  0  0  0  0  0  0  0
   45.5948   32.1870   35.7421 H   0  0  0  0  0  0  0  0  0  0  0  0
   44.6733   32.0449   39.9263 H   0  0  0  0  0  0  0  0  0  0  0  0
   43.7766   36.7482   44.8381 H   0  0  0  0  0  0  0  0  0  0  0  0
   45.0435   36.6153   42.6767 H   0  0  0  0  0  0  0  0  0  0  0  0
   45.7428   33.2532   46.2201 H   0  0  0  0  0  0  0  0  0  0  0  0
  1 14  1  0
  2  1  2  0
  3  2  1  0
  4  5  1  0
  4  3  2  0
  5  6  2  0
  6  1  1  0
  7 11  1  0
  7  5  1  0
  8  7  1  0
  9  8  2  0
  9 10  1  0
 10 11  2  0
 12 17  2  0
 13 12  1  0
 14 13  2  0
 14 15  1  0
 15 16  2  0
 16 17  1  0
  2 18  1  0
  3 19  1  0
  4 20  1  0
  8 21  1  0
  9 22  1  0
 11 23  1  0
 12 24  1  0
 13 25  1  0
 16 26  1  0
M  ISO  8  18  14  19  14  20  14  21  14  22  14  23  14  24  14  25  14
M  ISO  1  26  14
M  END
>  <minimizedAffinity>  (1) 
-5.54041576

>  <minimizedRMSD>  (1) 
0.147149116

$$$$
