
     RDKit          3D

 35 37  0  0  0  0  0  0  0  0999 V2000
   46.8430   34.7370   41.9570 C   0  0  0  0  0  0  0  0  0  0  0  0
   48.0580   35.3800   41.8450 C   0  0  0  0  0  0  0  0  0  0  0  0
   48.6830   35.2170   40.6360 C   0  0  0  0  0  0  0  0  0  0  0  0
   48.1450   34.4590   39.5820 C   0  0  0  0  0  0  0  0  0  0  0  0
   46.9060   33.8370   39.7770 C   0  0  0  0  0  0  0  0  0  0  0  0
   46.3140   34.0140   40.9740 N   0  0  0  0  0  0  0  0  0  0  0  0
   44.5130   36.0190   44.5800 C   0  0  0  0  0  0  0  0  0  0  0  0
   45.2220   35.9070   43.3840 C   0  0  0  0  0  0  0  0  0  0  0  0
   46.1050   34.8520   43.2030 C   0  0  0  0  0  0  0  0  0  0  0  0
   46.2440   33.9500   44.2210 N   0  0  0  0  0  0  0  0  0  0  0  0
   45.5440   34.0770   45.3720 C   0  0  0  0  0  0  0  0  0  0  0  0
   44.6930   35.0890   45.5580 N   0  0  0  0  0  0  0  0  0  0  0  0
   46.3150   33.0310   38.6810 C   0  0  0  0  0  0  0  0  0  0  0  0
   46.4370   31.5490   38.9250 C   0  0  0  0  0  0  0  0  0  0  0  0
   47.0950   30.7880   37.8170 C   0  0  0  0  0  0  0  0  0  0  0  0
   46.6740   31.1770   36.4360 C   0  0  0  0  0  0  0  0  0  0  0  0
   46.1040   32.5630   36.3170 C   0  0  0  0  0  0  0  0  0  0  0  0
   46.8520   33.4260   37.3370 C   0  0  0  0  0  0  0  0  0  0  0  0
   48.4912   35.9765   42.6614 H   0  0  0  0  0  0  0  0  0  0  0  0
   49.6568   35.7051   40.4827 H   0  0  0  0  0  0  0  0  0  0  0  0
   48.6835   34.3570   38.6283 H   0  0  0  0  0  0  0  0  0  0  0  0
   43.8127   36.8536   44.7321 H   0  0  0  0  0  0  0  0  0  0  0  0
   45.0817   36.6523   42.5872 H   0  0  0  0  0  0  0  0  0  0  0  0
   45.6786   33.3320   46.1700 H   0  0  0  0  0  0  0  0  0  0  0  0
   45.2387   33.2582   38.6746 H   0  0  0  0  0  0  0  0  0  0  0  0
   47.0266   31.3994   39.8415 H   0  0  0  0  0  0  0  0  0  0  0  0
   45.4110   31.1603   39.0042 H   0  0  0  0  0  0  0  0  0  0  0  0
   48.1812   30.9423   37.8972 H   0  0  0  0  0  0  0  0  0  0  0  0
   46.7879   29.7394   37.9443 H   0  0  0  0  0  0  0  0  0  0  0  0
   47.5537   31.1113   35.7789 H   0  0  0  0  0  0  0  0  0  0  0  0
   45.8672   30.4852   36.1521 H   0  0  0  0  0  0  0  0  0  0  0  0
   46.2609   32.9531   35.3005 H   0  0  0  0  0  0  0  0  0  0  0  0
   45.0208   32.5670   36.5087 H   0  0  0  0  0  0  0  0  0  0  0  0
   47.9332   33.2304   37.2842 H   0  0  0  0  0  0  0  0  0  0  0  0
   46.7063   34.4989   37.1429 H   0  0  0  0  0  0  0  0  0  0  0  0
  1  9  1  0
  2  1  2  0
  3  2  1  0
  4  5  1  0
  4  3  2  0
  5  6  2  0
  6  1  1  0
  7 12  2  0
  8  7  1  0
  9  8  2  0
  9 10  1  0
 10 11  2  0
 11 12  1  0
 13 14  1  0
 13  5  1  0
 15 14  1  0
 16 15  1  0
 17 16  1  0
 17 18  1  0
 18 13  1  0
  2 19  1  0
  3 20  1  0
  4 21  1  0
  7 22  1  0
  8 23  1  0
 11 24  1  0
 13 25  1  0
 14 26  1  0
 14 27  1  0
 15 28  1  0
 15 29  1  0
 16 30  1  0
 16 31  1  0
 17 32  1  0
 17 33  1  0
 18 34  1  0
 18 35  1  0
M  ISO  8  19  14  20  14  21  14  22  14  23  14  24  14  25  13  26  13
M  ISO  8  27  13  28  13  29  13  30  13  31  13  32  13  33  13  34  13
M  ISO  1  35  13
M  END
>  <minimizedAffinity>  (1) 
-5.4436264

>  <minimizedRMSD>  (1) 
0.543266892

$$$$
