
     RDKit          3D

 27 29  0  0  0  0  0  0  0  0999 V2000
   46.8330   34.7330   41.9880 C   0  0  0  0  0  0  0  0  0  0  0  0
   48.0790   35.3420   41.8990 C   0  0  0  0  0  0  0  0  0  0  0  0
   48.6910   35.1810   40.6740 C   0  0  0  0  0  0  0  0  0  0  0  0
   48.1290   34.4780   39.6110 C   0  0  0  0  0  0  0  0  0  0  0  0
   46.8840   33.9070   39.7940 C   0  0  0  0  0  0  0  0  0  0  0  0
   46.2760   34.0580   40.9930 N   0  0  0  0  0  0  0  0  0  0  0  0
   44.5040   36.0030   44.6250 C   0  0  0  0  0  0  0  0  0  0  0  0
   45.2080   35.9160   43.4110 C   0  0  0  0  0  0  0  0  0  0  0  0
   46.0940   34.8390   43.2400 C   0  0  0  0  0  0  0  0  0  0  0  0
   46.2320   33.9420   44.2370 N   0  0  0  0  0  0  0  0  0  0  0  0
   45.5390   34.0550   45.3940 C   0  0  0  0  0  0  0  0  0  0  0  0
   44.6800   35.0800   45.5870 N   0  0  0  0  0  0  0  0  0  0  0  0
   46.1660   33.1420   38.7820 C   0  0  0  0  0  0  0  0  0  0  0  0
   46.4280   33.2360   37.4320 C   0  0  0  0  0  0  0  0  0  0  0  0
   45.7670   32.5270   36.4500 C   0  0  0  0  0  0  0  0  0  0  0  0
   44.7920   31.6770   36.8160 N   0  0  0  0  0  0  0  0  0  0  0  0
   44.5190   31.5730   38.1480 C   0  0  0  0  0  0  0  0  0  0  0  0
   45.1800   32.2770   39.0830 N   0  0  0  0  0  0  0  0  0  0  0  0
   48.5350   35.9010   42.7294 H   0  0  0  0  0  0  0  0  0  0  0  0
   49.6822   35.6348   40.5275 H   0  0  0  0  0  0  0  0  0  0  0  0
   48.6610   34.3801   38.6532 H   0  0  0  0  0  0  0  0  0  0  0  0
   43.8025   36.8341   44.7894 H   0  0  0  0  0  0  0  0  0  0  0  0
   45.0695   36.6676   42.6199 H   0  0  0  0  0  0  0  0  0  0  0  0
   45.6766   33.3041   46.1860 H   0  0  0  0  0  0  0  0  0  0  0  0
   47.2225   33.9271   37.1141 H   0  0  0  0  0  0  0  0  0  0  0  0
   46.0323   32.6546   35.3901 H   0  0  0  0  0  0  0  0  0  0  0  0
   43.7245   30.8841   38.4708 H   0  0  0  0  0  0  0  0  0  0  0  0
  1  9  1  0
  2  1  2  0
  3  2  1  0
  4  5  1  0
  4  3  2  0
  5  6  2  0
  6  1  1  0
  7 12  2  0
  8  7  1  0
  9  8  2  0
  9 10  1  0
 10 11  2  0
 11 12  1  0
 13 18  1  0
 13  5  1  0
 14 13  2  0
 15 16  2  0
 15 14  1  0
 16 17  1  0
 17 18  2  0
  2 19  1  0
  3 20  1  0
  4 21  1  0
  7 22  1  0
  8 23  1  0
 11 24  1  0
 14 25  1  0
 15 26  1  0
 17 27  1  0
M  ISO  8  19  14  20  14  21  14  22  14  23  14  24  14  25  14  26  14
M  ISO  1  27  14
M  END
>  <minimizedAffinity>  (1) 
-5.39747286

>  <minimizedRMSD>  (1) 
0.295442313

$$$$
