
     RDKit          3D

 25 27  0  0  0  0  0  0  0  0999 V2000
   46.8400   34.7370   42.0300 C   0  0  0  0  0  0  0  0  0  0  0  0
   48.0620   35.3410   41.9090 C   0  0  0  0  0  0  0  0  0  0  0  0
   48.6680   35.1880   40.6880 C   0  0  0  0  0  0  0  0  0  0  0  0
   48.0940   34.4700   39.6280 C   0  0  0  0  0  0  0  0  0  0  0  0
   46.8530   33.8850   39.8230 C   0  0  0  0  0  0  0  0  0  0  0  0
   46.2960   34.0580   41.0320 N   0  0  0  0  0  0  0  0  0  0  0  0
   44.4990   35.9290   44.6870 C   0  0  0  0  0  0  0  0  0  0  0  0
   45.2050   35.8530   43.4700 C   0  0  0  0  0  0  0  0  0  0  0  0
   46.1070   34.8250   43.2750 C   0  0  0  0  0  0  0  0  0  0  0  0
   46.2810   33.9140   44.2800 N   0  0  0  0  0  0  0  0  0  0  0  0
   45.5860   34.0120   45.4430 C   0  0  0  0  0  0  0  0  0  0  0  0
   44.7060   35.0050   45.6480 N   0  0  0  0  0  0  0  0  0  0  0  0
   46.1940   33.1120   38.7380 C   0  0  0  0  0  0  0  0  0  0  0  0
   45.2630   32.1480   39.0110 C   0  0  0  0  0  0  0  0  0  0  0  0
   44.7710   31.5140   37.4070 S   0  0  0  0  0  0  0  0  0  0  0  0
   45.9690   32.7180   36.5480 C   0  0  0  0  0  0  0  0  0  0  0  0
   46.4220   33.2610   37.4540 N   0  0  0  0  0  0  0  0  0  0  0  0
   48.5244   35.9076   42.7307 H   0  0  0  0  0  0  0  0  0  0  0  0
   49.6534   35.6514   40.5321 H   0  0  0  0  0  0  0  0  0  0  0  0
   48.6167   34.3737   38.6649 H   0  0  0  0  0  0  0  0  0  0  0  0
   43.7780   36.7429   44.8538 H   0  0  0  0  0  0  0  0  0  0  0  0
   45.0397   36.6042   42.6836 H   0  0  0  0  0  0  0  0  0  0  0  0
   45.7474   33.2631   46.2323 H   0  0  0  0  0  0  0  0  0  0  0  0
   44.8962   31.8309   39.9984 H   0  0  0  0  0  0  0  0  0  0  0  0
   46.1725   32.8565   35.4759 H   0  0  0  0  0  0  0  0  0  0  0  0
  1  9  1  0
  2  1  2  0
  3  2  1  0
  4  5  1  0
  4  3  2  0
  5  6  2  0
  6  1  1  0
  7 12  2  0
  8  7  1  0
  9  8  2  0
  9 10  1  0
 10 11  2  0
 11 12  1  0
 13 14  2  0
 13  5  1  0
 15 14  1  0
 16 15  1  0
 16 17  2  0
 17 13  1  0
  2 18  1  0
  3 19  1  0
  4 20  1  0
  7 21  1  0
  8 22  1  0
 11 23  1  0
 14 24  1  0
 16 25  1  0
M  ISO  8  18  14  19  14  20  14  21  14  22  14  23  14  24  14  25  14
M  END
>  <minimizedAffinity>  (1) 
-5.29890823

>  <minimizedRMSD>  (1) 
0.142261431

$$$$
