
     RDKit          3D

 32 34  0  0  0  0  0  0  0  0999 V2000
   46.8680   34.7580   41.9640 C   0  0  0  0  0  0  0  0  0  0  0  0
   48.0760   35.3960   41.8520 C   0  0  0  0  0  0  0  0  0  0  0  0
   48.6940   35.2240   40.6290 C   0  0  0  0  0  0  0  0  0  0  0  0
   48.1460   34.4640   39.5840 C   0  0  0  0  0  0  0  0  0  0  0  0
   46.9120   33.8470   39.7830 C   0  0  0  0  0  0  0  0  0  0  0  0
   46.3150   34.0220   40.9810 N   0  0  0  0  0  0  0  0  0  0  0  0
   44.5090   35.9970   44.5880 C   0  0  0  0  0  0  0  0  0  0  0  0
   45.2270   35.9020   43.3890 C   0  0  0  0  0  0  0  0  0  0  0  0
   46.1210   34.8630   43.2010 C   0  0  0  0  0  0  0  0  0  0  0  0
   46.2650   33.9600   44.2190 N   0  0  0  0  0  0  0  0  0  0  0  0
   45.5690   34.0600   45.3690 C   0  0  0  0  0  0  0  0  0  0  0  0
   44.6970   35.0670   45.5590 N   0  0  0  0  0  0  0  0  0  0  0  0
   46.3140   33.0410   38.6930 C   0  0  0  0  0  0  0  0  0  0  0  0
   46.8100   33.4370   37.3320 C   0  0  0  0  0  0  0  0  0  0  0  0
   47.5130   32.2570   36.7240 C   0  0  0  0  0  0  0  0  0  0  0  0
   47.6190   31.1990   37.7740 C   0  0  0  0  0  0  0  0  0  0  0  0
   46.5890   31.5810   38.7950 C   0  0  0  0  0  0  0  0  0  0  0  0
   48.5148   35.9928   42.6652 H   0  0  0  0  0  0  0  0  0  0  0  0
   49.6678   35.7086   40.4651 H   0  0  0  0  0  0  0  0  0  0  0  0
   48.6792   34.3575   38.6278 H   0  0  0  0  0  0  0  0  0  0  0  0
   43.7966   36.8208   44.7420 H   0  0  0  0  0  0  0  0  0  0  0  0
   45.0803   36.6523   42.5981 H   0  0  0  0  0  0  0  0  0  0  0  0
   45.7154   33.3104   46.1606 H   0  0  0  0  0  0  0  0  0  0  0  0
   45.2393   33.2431   38.8125 H   0  0  0  0  0  0  0  0  0  0  0  0
   45.9608   33.7312   36.6978 H   0  0  0  0  0  0  0  0  0  0  0  0
   47.5011   34.2888   37.4138 H   0  0  0  0  0  0  0  0  0  0  0  0
   46.9361   31.8780   35.8675 H   0  0  0  0  0  0  0  0  0  0  0  0
   48.5125   32.5465   36.3674 H   0  0  0  0  0  0  0  0  0  0  0  0
   47.3987   30.2077   37.3511 H   0  0  0  0  0  0  0  0  0  0  0  0
   48.6299   31.1341   38.2027 H   0  0  0  0  0  0  0  0  0  0  0  0
   46.9652   31.3472   39.8019 H   0  0  0  0  0  0  0  0  0  0  0  0
   45.6621   31.0174   38.6126 H   0  0  0  0  0  0  0  0  0  0  0  0
  1  9  1  0
  2  1  2  0
  3  2  1  0
  4  5  1  0
  4  3  2  0
  5  6  2  0
  6  1  1  0
  7 12  2  0
  8  7  1  0
  9  8  2  0
  9 10  1  0
 10 11  2  0
 11 12  1  0
 13 17  1  0
 13  5  1  0
 14 13  1  0
 15 14  1  0
 15 16  1  0
 16 17  1  0
  2 18  1  0
  3 19  1  0
  4 20  1  0
  7 21  1  0
  8 22  1  0
 11 23  1  0
 13 24  1  0
 14 25  1  0
 14 26  1  0
 15 27  1  0
 15 28  1  0
 16 29  1  0
 16 30  1  0
 17 31  1  0
 17 32  1  0
M  ISO  8  18  14  19  14  20  14  21  14  22  14  23  14  24  13  25  13
M  ISO  7  26  13  27  13  28  13  29  13  30  13  31  13  32  13
M  END
>  <minimizedAffinity>  (1) 
-5.2852006

>  <minimizedRMSD>  (1) 
0.314990312

$$$$
