
     RDKit          3D

 26 28  0  0  0  0  0  0  0  0999 V2000
   46.8890   34.7630   42.0570 C   0  0  0  0  0  0  0  0  0  0  0  0
   48.0960   35.4050   41.9710 C   0  0  0  0  0  0  0  0  0  0  0  0
   48.7300   35.2780   40.7560 C   0  0  0  0  0  0  0  0  0  0  0  0
   48.2060   34.5600   39.6910 C   0  0  0  0  0  0  0  0  0  0  0  0
   46.9820   33.9390   39.8580 C   0  0  0  0  0  0  0  0  0  0  0  0
   46.3520   34.0610   41.0510 N   0  0  0  0  0  0  0  0  0  0  0  0
   44.5000   35.9180   44.6870 C   0  0  0  0  0  0  0  0  0  0  0  0
   45.2150   35.8680   43.4830 C   0  0  0  0  0  0  0  0  0  0  0  0
   46.1300   34.8350   43.3100 C   0  0  0  0  0  0  0  0  0  0  0  0
   46.2870   33.9320   44.3000 N   0  0  0  0  0  0  0  0  0  0  0  0
   45.5880   34.0020   45.4490 C   0  0  0  0  0  0  0  0  0  0  0  0
   44.7010   34.9820   45.6470 N   0  0  0  0  0  0  0  0  0  0  0  0
   46.3060   33.1510   38.8310 C   0  0  0  0  0  0  0  0  0  0  0  0
   46.6550   33.2880   37.4830 C   0  0  0  0  0  0  0  0  0  0  0  0
   45.8220   32.4030   36.8120 C   0  0  0  0  0  0  0  0  0  0  0  0
   45.0320   31.7920   37.7650 C   0  0  0  0  0  0  0  0  0  0  0  0
   45.3520   32.2620   38.9260 O   0  0  0  0  0  0  0  0  0  0  0  0
   48.5247   35.9770   42.8071 H   0  0  0  0  0  0  0  0  0  0  0  0
   49.7037   35.7720   40.6224 H   0  0  0  0  0  0  0  0  0  0  0  0
   48.7504   34.4866   38.7380 H   0  0  0  0  0  0  0  0  0  0  0  0
   43.7696   36.7233   44.8547 H   0  0  0  0  0  0  0  0  0  0  0  0
   45.0574   36.6228   42.6985 H   0  0  0  0  0  0  0  0  0  0  0  0
   45.7485   33.2458   46.2316 H   0  0  0  0  0  0  0  0  0  0  0  0
   47.4198   33.9501   37.0508 H   0  0  0  0  0  0  0  0  0  0  0  0
   45.7964   32.2229   35.7271 H   0  0  0  0  0  0  0  0  0  0  0  0
   44.2602   31.0330   37.5694 H   0  0  0  0  0  0  0  0  0  0  0  0
  1  9  1  0
  2  1  2  0
  3  2  1  0
  4  5  1  0
  4  3  2  0
  5  6  2  0
  6  1  1  0
  7 12  2  0
  8  7  1  0
  9  8  2  0
  9 10  1  0
 10 11  2  0
 11 12  1  0
 13 17  1  0
 13  5  1  0
 14 13  2  0
 15 14  1  0
 15 16  2  0
 16 17  1  0
  2 18  1  0
  3 19  1  0
  4 20  1  0
  7 21  1  0
  8 22  1  0
 11 23  1  0
 14 24  1  0
 15 25  1  0
 16 26  1  0
M  ISO  8  18  14  19  14  20  14  21  14  22  14  23  14  24  14  25  14
M  ISO  1  26  14
M  END
>  <minimizedAffinity>  (1) 
-5.27658558

>  <minimizedRMSD>  (1) 
0.460136503

$$$$
