
     RDKit          3D

 26 28  0  0  0  0  0  0  0  0999 V2000
   46.8620   34.7430   41.9710 C   0  0  0  0  0  0  0  0  0  0  0  0
   48.0830   35.3540   41.8700 C   0  0  0  0  0  0  0  0  0  0  0  0
   48.7040   35.2050   40.6560 C   0  0  0  0  0  0  0  0  0  0  0  0
   48.1520   34.4950   39.6010 C   0  0  0  0  0  0  0  0  0  0  0  0
   46.9120   33.9050   39.7850 C   0  0  0  0  0  0  0  0  0  0  0  0
   46.3090   34.0570   40.9830 N   0  0  0  0  0  0  0  0  0  0  0  0
   44.5020   36.0040   44.5890 C   0  0  0  0  0  0  0  0  0  0  0  0
   45.2170   35.9150   43.3840 C   0  0  0  0  0  0  0  0  0  0  0  0
   46.1130   34.8450   43.2240 C   0  0  0  0  0  0  0  0  0  0  0  0
   46.2460   33.9580   44.2270 N   0  0  0  0  0  0  0  0  0  0  0  0
   45.5400   34.0710   45.3820 C   0  0  0  0  0  0  0  0  0  0  0  0
   44.6820   35.0760   45.5630 N   0  0  0  0  0  0  0  0  0  0  0  0
   46.1800   33.1180   38.7750 C   0  0  0  0  0  0  0  0  0  0  0  0
   46.3280   33.1550   37.4540 C   0  0  0  0  0  0  0  0  0  0  0  0
   45.5780   32.3640   36.6300 C   0  0  0  0  0  0  0  0  0  0  0  0
   44.6500   31.5190   37.2920 C   0  0  0  0  0  0  0  0  0  0  0  0
   44.9230   31.9270   39.0990 S   0  0  0  0  0  0  0  0  0  0  0  0
   48.5317   35.9210   42.6989 H   0  0  0  0  0  0  0  0  0  0  0  0
   49.6894   35.6723   40.5124 H   0  0  0  0  0  0  0  0  0  0  0  0
   48.6845   34.4025   38.6429 H   0  0  0  0  0  0  0  0  0  0  0  0
   43.7924   36.8300   44.7445 H   0  0  0  0  0  0  0  0  0  0  0  0
   45.0795   36.6617   42.5880 H   0  0  0  0  0  0  0  0  0  0  0  0
   45.6776   33.3243   46.1780 H   0  0  0  0  0  0  0  0  0  0  0  0
   47.0706   33.8374   37.0149 H   0  0  0  0  0  0  0  0  0  0  0  0
   45.6856   32.3810   35.5354 H   0  0  0  0  0  0  0  0  0  0  0  0
   43.9433   30.8003   36.8515 H   0  0  0  0  0  0  0  0  0  0  0  0
  1  9  1  0
  2  1  2  0
  3  2  1  0
  4  5  1  0
  4  3  2  0
  5  6  2  0
  6  1  1  0
  7 12  2  0
  8  7  1  0
  9  8  2  0
  9 10  1  0
 10 11  2  0
 11 12  1  0
 13 17  1  0
 13  5  1  0
 14 13  2  0
 15 16  2  0
 15 14  1  0
 16 17  1  0
  2 18  1  0
  3 19  1  0
  4 20  1  0
  7 21  1  0
  8 22  1  0
 11 23  1  0
 14 24  1  0
 15 25  1  0
 16 26  1  0
M  ISO  8  18  14  19  14  20  14  21  14  22  14  23  14  24  14  25  14
M  ISO  1  26  14
M  END
>  <minimizedAffinity>  (1) 
-5.26018667

>  <minimizedRMSD>  (1) 
0.363817275

$$$$
