
     RDKit          3D

 24 26  0  0  0  0  0  0  0  0999 V2000
   46.8900   34.7650   41.9400 C   0  0  0  0  0  0  0  0  0  0  0  0
   48.0960   35.4080   41.8290 C   0  0  0  0  0  0  0  0  0  0  0  0
   48.7160   35.2350   40.6160 C   0  0  0  0  0  0  0  0  0  0  0  0
   48.1820   34.4790   39.5810 C   0  0  0  0  0  0  0  0  0  0  0  0
   46.9540   33.8550   39.7660 C   0  0  0  0  0  0  0  0  0  0  0  0
   46.3590   34.0360   40.9650 N   0  0  0  0  0  0  0  0  0  0  0  0
   44.5150   35.9940   44.5660 C   0  0  0  0  0  0  0  0  0  0  0  0
   45.2350   35.9170   43.3550 C   0  0  0  0  0  0  0  0  0  0  0  0
   46.1270   34.8710   43.1890 C   0  0  0  0  0  0  0  0  0  0  0  0
   46.2630   33.9770   44.1920 N   0  0  0  0  0  0  0  0  0  0  0  0
   45.5650   34.0680   45.3450 C   0  0  0  0  0  0  0  0  0  0  0  0
   44.6950   35.0680   45.5360 N   0  0  0  0  0  0  0  0  0  0  0  0
   46.2770   33.0320   38.7670 C   0  0  0  0  0  0  0  0  0  0  0  0
   46.4470   33.2570   37.4520 N   0  0  0  0  0  0  0  0  0  0  0  0
   45.7360   32.3880   36.7850 O   0  0  0  0  0  0  0  0  0  0  0  0
   45.0930   31.5870   37.5930 C   0  0  0  0  0  0  0  0  0  0  0  0
   45.4270   31.9850   38.8550 N   0  0  0  0  0  0  0  0  0  0  0  0
   48.5293   36.0102   42.6412 H   0  0  0  0  0  0  0  0  0  0  0  0
   49.6891   35.7221   40.4555 H   0  0  0  0  0  0  0  0  0  0  0  0
   48.7229   34.3755   38.6288 H   0  0  0  0  0  0  0  0  0  0  0  0
   43.8001   36.8151   44.7231 H   0  0  0  0  0  0  0  0  0  0  0  0
   45.0915   36.6678   42.5640 H   0  0  0  0  0  0  0  0  0  0  0  0
   45.7124   33.3149   46.1331 H   0  0  0  0  0  0  0  0  0  0  0  0
   44.4211   30.7621   37.3135 H   0  0  0  0  0  0  0  0  0  0  0  0
  1  9  1  0
  2  1  2  0
  3  2  1  0
  4  5  1  0
  4  3  2  0
  5  6  2  0
  6  1  1  0
  7 12  2  0
  8  7  1  0
  9  8  2  0
  9 10  1  0
 10 11  2  0
 11 12  1  0
 13 17  1  0
 13  5  1  0
 14 13  2  0
 15 14  1  0
 15 16  1  0
 16 17  2  0
  2 18  1  0
  3 19  1  0
  4 20  1  0
  7 21  1  0
  8 22  1  0
 11 23  1  0
 16 24  1  0
M  ISO  7  18  14  19  14  20  14  21  14  22  14  23  14  24  14
M  END
>  <minimizedAffinity>  (1) 
-5.2497797

>  <minimizedRMSD>  (1) 
0.195860207

$$$$
