
     RDKit          3D

 22 23  0  0  0  0  0  0  0  0999 V2000
   46.8450   34.7350   42.0300 C   0  0  0  0  0  0  0  0  0  0  0  0
   48.0580   35.3630   41.9180 C   0  0  0  0  0  0  0  0  0  0  0  0
   48.6650   35.2060   40.6920 C   0  0  0  0  0  0  0  0  0  0  0  0
   48.1160   34.4760   39.6330 C   0  0  0  0  0  0  0  0  0  0  0  0
   46.8870   33.8780   39.8390 C   0  0  0  0  0  0  0  0  0  0  0  0
   46.2780   34.0230   41.0400 N   0  0  0  0  0  0  0  0  0  0  0  0
   44.5000   35.9300   44.6900 C   0  0  0  0  0  0  0  0  0  0  0  0
   45.2040   35.8610   43.4750 C   0  0  0  0  0  0  0  0  0  0  0  0
   46.1060   34.8290   43.2790 C   0  0  0  0  0  0  0  0  0  0  0  0
   46.2680   33.9200   44.2840 N   0  0  0  0  0  0  0  0  0  0  0  0
   45.5830   34.0040   45.4440 C   0  0  0  0  0  0  0  0  0  0  0  0
   44.7050   35.0030   45.6450 N   0  0  0  0  0  0  0  0  0  0  0  0
   46.3260   33.1270   38.7450 C   0  0  0  0  0  0  0  0  0  0  0  0
   46.2980   31.8890   38.8170 O   0  0  0  0  0  0  0  0  0  0  0  0
   45.7930   33.6100   37.5820 O   0  0  0  0  0  0  0  0  0  0  0  0
   48.5081   35.9428   42.7373 H   0  0  0  0  0  0  0  0  0  0  0  0
   49.6430   35.6848   40.5358 H   0  0  0  0  0  0  0  0  0  0  0  0
   48.6426   34.3812   38.6719 H   0  0  0  0  0  0  0  0  0  0  0  0
   43.7797   36.7436   44.8610 H   0  0  0  0  0  0  0  0  0  0  0  0
   45.0406   36.6158   42.6917 H   0  0  0  0  0  0  0  0  0  0  0  0
   45.7437   33.2510   46.2296 H   0  0  0  0  0  0  0  0  0  0  0  0
   45.7640   34.5860   37.4186 H   0  0  0  0  0  0  0  0  0  0  0  0
  1  9  1  0
  2  1  2  0
  3  2  1  0
  4  5  1  0
  4  3  2  0
  5  6  2  0
  6  1  1  0
  7 12  2  0
  8  7  1  0
  9  8  2  0
  9 10  1  0
 10 11  2  0
 11 12  1  0
 13 14  2  0
 13  5  1  0
 15 13  1  0
  2 16  1  0
  3 17  1  0
  4 18  1  0
  7 19  1  0
  8 20  1  0
 11 21  1  0
 15 22  1  0
M  ISO  7  16  14  17  14  18  14  19  14  20  14  21  14  22   3
M  END
>  <minimizedAffinity>  (1) 
-5.14464426

>  <minimizedRMSD>  (1) 
0.332511097

$$$$
