
     RDKit          3D

 22 23  0  0  0  0  0  0  0  0999 V2000
   46.8490   34.7410   42.0410 C   0  0  0  0  0  0  0  0  0  0  0  0
   48.0590   35.3750   41.9400 C   0  0  0  0  0  0  0  0  0  0  0  0
   48.6840   35.2330   40.7210 C   0  0  0  0  0  0  0  0  0  0  0  0
   48.1420   34.5080   39.6720 C   0  0  0  0  0  0  0  0  0  0  0  0
   46.9110   33.8940   39.8540 C   0  0  0  0  0  0  0  0  0  0  0  0
   46.2860   34.0300   41.0530 N   0  0  0  0  0  0  0  0  0  0  0  0
   44.4980   35.9340   44.6970 C   0  0  0  0  0  0  0  0  0  0  0  0
   45.2000   35.8640   43.4920 C   0  0  0  0  0  0  0  0  0  0  0  0
   46.1000   34.8320   43.3020 C   0  0  0  0  0  0  0  0  0  0  0  0
   46.2650   33.9270   44.2980 N   0  0  0  0  0  0  0  0  0  0  0  0
   45.5770   34.0090   45.4600 C   0  0  0  0  0  0  0  0  0  0  0  0
   44.7040   34.9950   45.6650 N   0  0  0  0  0  0  0  0  0  0  0  0
   46.2330   33.1010   38.8230 C   0  0  0  0  0  0  0  0  0  0  0  0
   46.4880   31.7570   38.9480 F   0  0  0  0  0  0  0  0  0  0  0  0
   46.7020   33.5590   37.5980 F   0  0  0  0  0  0  0  0  0  0  0  0
   44.8830   33.3890   38.9090 F   0  0  0  0  0  0  0  0  0  0  0  0
   48.4971   35.9522   42.7676 H   0  0  0  0  0  0  0  0  0  0  0  0
   49.6600   35.7183   40.5731 H   0  0  0  0  0  0  0  0  0  0  0  0
   48.6766   34.4209   38.7146 H   0  0  0  0  0  0  0  0  0  0  0  0
   43.7775   36.7478   44.8661 H   0  0  0  0  0  0  0  0  0  0  0  0
   45.0395   36.6176   42.7069 H   0  0  0  0  0  0  0  0  0  0  0  0
   45.7398   33.2543   46.2435 H   0  0  0  0  0  0  0  0  0  0  0  0
  1  9  1  0
  2  1  2  0
  3  2  1  0
  4  5  1  0
  4  3  2  0
  5  6  2  0
  6  1  1  0
  7 12  2  0
  8  7  1  0
  9  8  2  0
  9 10  1  0
 10 11  2  0
 11 12  1  0
 13 16  1  0
 13 14  1  0
 13  5  1  0
 15 13  1  0
  2 17  1  0
  3 18  1  0
  4 19  1  0
  7 20  1  0
  8 21  1  0
 11 22  1  0
M  ISO  6  17  14  18  14  19  14  20  14  21  14  22  14
M  END
>  <minimizedAffinity>  (1) 
-5.12220716

>  <minimizedRMSD>  (1) 
0.563457131

$$$$
