
     RDKit          3D

 28 29  0  0  0  0  0  0  0  0999 V2000
   46.8590   34.7210   42.0150 C   0  0  0  0  0  0  0  0  0  0  0  0
   48.0480   35.3890   41.8840 C   0  0  0  0  0  0  0  0  0  0  0  0
   48.6710   35.2500   40.6680 C   0  0  0  0  0  0  0  0  0  0  0  0
   48.1480   34.4860   39.6260 C   0  0  0  0  0  0  0  0  0  0  0  0
   46.9280   33.8310   39.8330 C   0  0  0  0  0  0  0  0  0  0  0  0
   46.3350   33.9860   41.0430 N   0  0  0  0  0  0  0  0  0  0  0  0
   44.5030   35.9360   44.6570 C   0  0  0  0  0  0  0  0  0  0  0  0
   45.2170   35.8440   43.4530 C   0  0  0  0  0  0  0  0  0  0  0  0
   46.1240   34.8070   43.2660 C   0  0  0  0  0  0  0  0  0  0  0  0
   46.2770   33.9220   44.2730 N   0  0  0  0  0  0  0  0  0  0  0  0
   45.5900   34.0100   45.4330 C   0  0  0  0  0  0  0  0  0  0  0  0
   44.7100   35.0050   45.6270 N   0  0  0  0  0  0  0  0  0  0  0  0
   46.2620   32.9830   38.8000 C   0  0  0  0  0  0  0  0  0  0  0  0
   46.6990   33.3450   37.4210 C   0  0  0  0  0  0  0  0  0  0  0  0
   44.7600   33.1230   38.9740 C   0  0  0  0  0  0  0  0  0  0  0  0
   48.4744   35.9950   42.6970 H   0  0  0  0  0  0  0  0  0  0  0  0
   49.6290   35.7665   40.5086 H   0  0  0  0  0  0  0  0  0  0  0  0
   48.6795   34.4000   38.6668 H   0  0  0  0  0  0  0  0  0  0  0  0
   43.7831   36.7526   44.8151 H   0  0  0  0  0  0  0  0  0  0  0  0
   45.0598   36.5896   42.6597 H   0  0  0  0  0  0  0  0  0  0  0  0
   45.7527   33.2620   46.2230 H   0  0  0  0  0  0  0  0  0  0  0  0
   46.5533   31.9313   38.9379 H   0  0  0  0  0  0  0  0  0  0  0  0
   47.5450   34.0458   37.4766 H   0  0  0  0  0  0  0  0  0  0  0  0
   47.0101   32.4364   36.8846 H   0  0  0  0  0  0  0  0  0  0  0  0
   45.8642   33.8198   36.8846 H   0  0  0  0  0  0  0  0  0  0  0  0
   44.5156   33.1458   40.0463 H   0  0  0  0  0  0  0  0  0  0  0  0
   44.4215   34.0566   38.5009 H   0  0  0  0  0  0  0  0  0  0  0  0
   44.2548   32.2681   38.5009 H   0  0  0  0  0  0  0  0  0  0  0  0
  1  9  1  0
  2  1  2  0
  3  2  1  0
  4  5  1  0
  4  3  2  0
  5  6  2  0
  6  1  1  0
  7 12  2  0
  8  7  1  0
  9  8  2  0
  9 10  1  0
 10 11  2  0
 11 12  1  0
 13 15  1  0
 13  5  1  0
 14 13  1  0
  2 16  1  0
  3 17  1  0
  4 18  1  0
  7 19  1  0
  8 20  1  0
 11 21  1  0
 13 22  1  0
 14 23  1  0
 14 24  1  0
 14 25  1  0
 15 26  1  0
 15 27  1  0
 15 28  1  0
M  ISO  8  16  14  17  14  18  14  19  14  20  14  21  14  22   8  23   8
M  ISO  5  24   8  25   8  26   8  27   8  28   8
M  END
>  <minimizedAffinity>  (1) 
-5.07381964

>  <minimizedRMSD>  (1) 
0.187824517

$$$$
