
     RDKit          3D

 25 26  0  0  0  0  0  0  0  0999 V2000
   46.8270   34.7210   42.0170 C   0  0  0  0  0  0  0  0  0  0  0  0
   48.0370   35.3750   41.9060 C   0  0  0  0  0  0  0  0  0  0  0  0
   48.6610   35.2240   40.6850 C   0  0  0  0  0  0  0  0  0  0  0  0
   48.1130   34.4670   39.6370 C   0  0  0  0  0  0  0  0  0  0  0  0
   46.8940   33.8460   39.8380 C   0  0  0  0  0  0  0  0  0  0  0  0
   46.2910   34.0020   41.0400 N   0  0  0  0  0  0  0  0  0  0  0  0
   44.5030   35.9370   44.6790 C   0  0  0  0  0  0  0  0  0  0  0  0
   45.2000   35.8550   43.4660 C   0  0  0  0  0  0  0  0  0  0  0  0
   46.0980   34.8210   43.2660 C   0  0  0  0  0  0  0  0  0  0  0  0
   46.2650   33.9150   44.2760 N   0  0  0  0  0  0  0  0  0  0  0  0
   45.5810   34.0130   45.4400 C   0  0  0  0  0  0  0  0  0  0  0  0
   44.7120   35.0030   45.6480 N   0  0  0  0  0  0  0  0  0  0  0  0
   46.3310   33.0530   38.7240 C   0  0  0  0  0  0  0  0  0  0  0  0
   46.9320   33.4270   37.3850 C   0  0  0  0  0  0  0  0  0  0  0  0
   48.4691   35.9688   42.7250 H   0  0  0  0  0  0  0  0  0  0  0  0
   49.6306   35.7184   40.5253 H   0  0  0  0  0  0  0  0  0  0  0  0
   48.6418   34.3701   38.6773 H   0  0  0  0  0  0  0  0  0  0  0  0
   43.7876   36.7552   44.8484 H   0  0  0  0  0  0  0  0  0  0  0  0
   45.0348   36.6061   42.6795 H   0  0  0  0  0  0  0  0  0  0  0  0
   45.7448   33.2631   46.2279 H   0  0  0  0  0  0  0  0  0  0  0  0
   46.5283   31.9877   38.9142 H   0  0  0  0  0  0  0  0  0  0  0  0
   45.2521   33.2619   38.6765 H   0  0  0  0  0  0  0  0  0  0  0  0
   47.8559   34.0020   37.5455 H   0  0  0  0  0  0  0  0  0  0  0  0
   47.1628   32.5128   36.8185 H   0  0  0  0  0  0  0  0  0  0  0  0
   46.2137   34.0379   36.8185 H   0  0  0  0  0  0  0  0  0  0  0  0
  1  9  1  0
  2  1  2  0
  3  2  1  0
  4  5  1  0
  4  3  2  0
  5  6  2  0
  6  1  1  0
  7 12  2  0
  8  7  1  0
  9  8  2  0
  9 10  1  0
 10 11  2  0
 11 12  1  0
 13  5  1  0
 14 13  1  0
  2 15  1  0
  3 16  1  0
  4 17  1  0
  7 18  1  0
  8 19  1  0
 11 20  1  0
 13 21  1  0
 13 22  1  0
 14 23  1  0
 14 24  1  0
 14 25  1  0
M  ISO  8  15  14  16  14  17  14  18  14  19  14  20  14  21   8  22   8
M  ISO  3  23   8  24   8  25   8
M  END
>  <minimizedAffinity>  (1) 
-4.93389654

>  <minimizedRMSD>  (1) 
0.263004094

$$$$
