
     RDKit          3D

 21 22  0  0  0  0  0  0  0  0999 V2000
   46.8110   34.7100   42.0430 C   0  0  0  0  0  0  0  0  0  0  0  0
   48.0170   35.3510   41.9070 C   0  0  0  0  0  0  0  0  0  0  0  0
   48.6230   35.1900   40.6840 C   0  0  0  0  0  0  0  0  0  0  0  0
   48.0850   34.4430   39.6490 C   0  0  0  0  0  0  0  0  0  0  0  0
   46.8570   33.8210   39.8580 C   0  0  0  0  0  0  0  0  0  0  0  0
   46.2680   33.9850   41.0650 N   0  0  0  0  0  0  0  0  0  0  0  0
   46.1390   33.0090   38.9130 N   0  0  0  0  0  0  0  0  0  0  0  0
   44.4960   35.9440   44.7030 C   0  0  0  0  0  0  0  0  0  0  0  0
   45.1910   35.8590   43.4830 C   0  0  0  0  0  0  0  0  0  0  0  0
   46.0810   34.8150   43.3010 C   0  0  0  0  0  0  0  0  0  0  0  0
   46.2550   33.9070   44.3040 N   0  0  0  0  0  0  0  0  0  0  0  0
   45.5760   34.0120   45.4650 C   0  0  0  0  0  0  0  0  0  0  0  0
   44.7020   35.0180   45.6700 N   0  0  0  0  0  0  0  0  0  0  0  0
   48.4644   35.9481   42.7153 H   0  0  0  0  0  0  0  0  0  0  0  0
   49.5920   35.6832   40.5173 H   0  0  0  0  0  0  0  0  0  0  0  0
   48.6130   34.3440   38.6891 H   0  0  0  0  0  0  0  0  0  0  0  0
   45.2328   32.5947   39.1738 H   0  0  0  0  0  0  0  0  0  0  0  0
   46.5310   32.8416   37.9753 H   0  0  0  0  0  0  0  0  0  0  0  0
   43.7833   36.7646   44.8723 H   0  0  0  0  0  0  0  0  0  0  0  0
   45.0307   36.6057   42.6913 H   0  0  0  0  0  0  0  0  0  0  0  0
   45.7379   33.2655   46.2565 H   0  0  0  0  0  0  0  0  0  0  0  0
  1 10  1  0
  2  1  2  0
  3  2  1  0
  4  5  1  0
  4  3  2  0
  5  6  2  0
  6  1  1  0
  7  5  1  0
  8 13  2  0
  9  8  1  0
 10  9  2  0
 10 11  1  0
 11 12  2  0
 12 13  1  0
  2 14  1  0
  3 15  1  0
  4 16  1  0
  7 17  1  0
  7 18  1  0
  8 19  1  0
  9 20  1  0
 12 21  1  0
M  ISO  6  14  14  15  14  16  14  19  14  20  14  21  14
M  END
>  <minimizedAffinity>  (1) 
-4.92712831

>  <minimizedRMSD>  (1) 
0.00933103077

$$$$
