
     RDKit          3D

 20 21  0  0  0  0  0  0  0  0999 V2000
   46.8310   34.7110   42.0300 C   0  0  0  0  0  0  0  0  0  0  0  0
   48.0330   35.3700   41.9160 C   0  0  0  0  0  0  0  0  0  0  0  0
   48.6410   35.2100   40.6840 C   0  0  0  0  0  0  0  0  0  0  0  0
   48.1060   34.4620   39.6460 C   0  0  0  0  0  0  0  0  0  0  0  0
   46.8920   33.8390   39.8580 C   0  0  0  0  0  0  0  0  0  0  0  0
   46.2800   33.9810   41.0580 N   0  0  0  0  0  0  0  0  0  0  0  0
   44.5020   35.9410   44.6890 C   0  0  0  0  0  0  0  0  0  0  0  0
   45.1990   35.8630   43.4690 C   0  0  0  0  0  0  0  0  0  0  0  0
   46.0960   34.8080   43.2940 C   0  0  0  0  0  0  0  0  0  0  0  0
   46.2530   33.9160   44.2980 N   0  0  0  0  0  0  0  0  0  0  0  0
   45.5690   34.0200   45.4570 C   0  0  0  0  0  0  0  0  0  0  0  0
   44.7020   35.0180   45.6570 N   0  0  0  0  0  0  0  0  0  0  0  0
   46.1720   32.8600   38.5290 S   0  0  0  0  0  0  0  0  0  0  0  0
   48.4700   35.9685   42.7289 H   0  0  0  0  0  0  0  0  0  0  0  0
   49.6083   35.7066   40.5173 H   0  0  0  0  0  0  0  0  0  0  0  0
   48.6319   34.3680   38.6845 H   0  0  0  0  0  0  0  0  0  0  0  0
   43.7877   36.7605   44.8569 H   0  0  0  0  0  0  0  0  0  0  0  0
   45.0417   36.6105   42.6775 H   0  0  0  0  0  0  0  0  0  0  0  0
   45.7272   33.2727   46.2486 H   0  0  0  0  0  0  0  0  0  0  0  0
   45.4247   31.8438   39.0636 H   0  0  0  0  0  0  0  0  0  0  0  0
  1  9  1  0
  2  1  2  0
  3  2  1  0
  4  5  1  0
  4  3  2  0
  5  6  2  0
  6  1  1  0
  7 12  2  0
  8  7  1  0
  9  8  2  0
  9 10  1  0
 10 11  2  0
 11 12  1  0
 13  5  1  0
  2 14  1  0
  3 15  1  0
  4 16  1  0
  7 17  1  0
  8 18  1  0
 11 19  1  0
 13 20  1  0
M  ISO  7  14  14  15  14  16  14  17  14  18  14  19  14  20  11
M  END
>  <minimizedAffinity>  (1) 
-4.92488766

>  <minimizedRMSD>  (1) 
0.0283240769

$$$$
