
     RDKit          3D

 20 21  0  0  0  0  0  0  0  0999 V2000
   46.8410   34.7170   42.0390 C   0  0  0  0  0  0  0  0  0  0  0  0
   48.0480   35.3500   41.9200 C   0  0  0  0  0  0  0  0  0  0  0  0
   48.6370   35.1900   40.6800 C   0  0  0  0  0  0  0  0  0  0  0  0
   48.0770   34.4590   39.6350 C   0  0  0  0  0  0  0  0  0  0  0  0
   46.8510   33.8500   39.8440 C   0  0  0  0  0  0  0  0  0  0  0  0
   46.2670   34.0020   41.0540 N   0  0  0  0  0  0  0  0  0  0  0  0
   44.4960   35.9430   44.6960 C   0  0  0  0  0  0  0  0  0  0  0  0
   45.2020   35.8600   43.4810 C   0  0  0  0  0  0  0  0  0  0  0  0
   46.1090   34.8060   43.2970 C   0  0  0  0  0  0  0  0  0  0  0  0
   46.2610   33.9180   44.3010 N   0  0  0  0  0  0  0  0  0  0  0  0
   45.5710   34.0230   45.4540 C   0  0  0  0  0  0  0  0  0  0  0  0
   44.7000   35.0190   45.6560 N   0  0  0  0  0  0  0  0  0  0  0  0
   46.1990   33.0990   38.8800 O   0  0  0  0  0  0  0  0  0  0  0  0
   48.5061   35.9311   42.7339 H   0  0  0  0  0  0  0  0  0  0  0  0
   49.6110   35.6711   40.5072 H   0  0  0  0  0  0  0  0  0  0  0  0
   48.5951   34.3678   38.6689 H   0  0  0  0  0  0  0  0  0  0  0  0
   43.7790   36.7606   44.8618 H   0  0  0  0  0  0  0  0  0  0  0  0
   45.0452   36.6083   42.6901 H   0  0  0  0  0  0  0  0  0  0  0  0
   45.7269   33.2748   46.2452 H   0  0  0  0  0  0  0  0  0  0  0  0
   45.3229   32.6854   39.0836 H   0  0  0  0  0  0  0  0  0  0  0  0
  1  9  1  0
  2  1  2  0
  3  2  1  0
  4  5  1  0
  4  3  2  0
  5  6  2  0
  6  1  1  0
  7 12  2  0
  8  7  1  0
  9  8  2  0
  9 10  1  0
 10 11  2  0
 11 12  1  0
 13  5  1  0
  2 14  1  0
  3 15  1  0
  4 16  1  0
  7 17  1  0
  8 18  1  0
 11 19  1  0
 13 20  1  0
M  ISO  7  14  14  15  14  16  14  17  14  18  14  19  14  20   3
M  END
>  <minimizedAffinity>  (1) 
-4.91924667

>  <minimizedRMSD>  (1) 
0.0290832371

$$$$
