
     RDKit          3D

 26 28  0  0  0  0  0  0  0  0999 V2000
   46.8660   34.7430   42.0250 C   0  0  0  0  0  0  0  0  0  0  0  0
   48.0690   35.3870   41.9110 C   0  0  0  0  0  0  0  0  0  0  0  0
   48.6740   35.2350   40.6890 C   0  0  0  0  0  0  0  0  0  0  0  0
   48.1320   34.4920   39.6310 C   0  0  0  0  0  0  0  0  0  0  0  0
   46.9110   33.8760   39.8380 C   0  0  0  0  0  0  0  0  0  0  0  0
   46.3050   34.0200   41.0420 N   0  0  0  0  0  0  0  0  0  0  0  0
   44.5050   35.9200   44.6820 C   0  0  0  0  0  0  0  0  0  0  0  0
   45.2130   35.8530   43.4750 C   0  0  0  0  0  0  0  0  0  0  0  0
   46.1220   34.8270   43.2770 C   0  0  0  0  0  0  0  0  0  0  0  0
   46.2850   33.9200   44.2800 N   0  0  0  0  0  0  0  0  0  0  0  0
   45.5930   34.0010   45.4370 C   0  0  0  0  0  0  0  0  0  0  0  0
   44.7120   34.9840   45.6450 N   0  0  0  0  0  0  0  0  0  0  0  0
   46.2860   33.0690   38.7370 C   0  0  0  0  0  0  0  0  0  0  0  0
   47.0940   32.5130   37.6290 C   0  0  0  0  0  0  0  0  0  0  0  0
   46.7220   31.6070   38.7440 C   0  0  0  0  0  0  0  0  0  0  0  0
   48.5119   35.9752   42.7282 H   0  0  0  0  0  0  0  0  0  0  0  0
   49.6449   35.7268   40.5295 H   0  0  0  0  0  0  0  0  0  0  0  0
   48.6593   34.4020   38.6698 H   0  0  0  0  0  0  0  0  0  0  0  0
   43.7810   36.7309   44.8503 H   0  0  0  0  0  0  0  0  0  0  0  0
   45.0485   36.6080   42.6921 H   0  0  0  0  0  0  0  0  0  0  0  0
   45.7571   33.2462   46.2202 H   0  0  0  0  0  0  0  0  0  0  0  0
   45.3588   33.6607   38.7451 H   0  0  0  0  0  0  0  0  0  0  0  0
   46.6367   32.3735   36.6383 H   0  0  0  0  0  0  0  0  0  0  0  0
   48.0466   32.7971   37.1580 H   0  0  0  0  0  0  0  0  0  0  0  0
   47.4872   31.2614   39.4547 H   0  0  0  0  0  0  0  0  0  0  0  0
   46.2111   30.6366   38.8290 H   0  0  0  0  0  0  0  0  0  0  0  0
  1  9  1  0
  2  1  2  0
  3  2  1  0
  4  5  1  0
  4  3  2  0
  5  6  2  0
  6  1  1  0
  7 12  2  0
  8  7  1  0
  9  8  2  0
  9 10  1  0
 10 11  2  0
 11 12  1  0
 13 15  1  0
 13  5  1  0
 14 13  1  0
 14 15  1  0
  2 16  1  0
  3 17  1  0
  4 18  1  0
  7 19  1  0
  8 20  1  0
 11 21  1  0
 13 22  1  0
 14 23  1  0
 14 24  1  0
 15 25  1  0
 15 26  1  0
M  ISO  8  16  14  17  14  18  14  19  14  20  14  21  14  22  13  23  13
M  ISO  3  24  13  25  13  26  13
M  END
>  <minimizedAffinity>  (1) 
-4.91775799

>  <minimizedRMSD>  (1) 
0.683829546

$$$$
