
     RDKit          3D

 42 46  0  0  0  0  0  0  0  0999 V2000
   46.1450   33.3880   38.7580 C   0  0  0  0  0  0  0  0  0  0  0  0
   46.8230   33.1720   37.5710 C   0  0  0  0  0  0  0  0  0  0  0  0
   46.1700   32.6000   36.4990 C   0  0  0  0  0  0  0  0  0  0  0  0
   44.8400   32.2830   36.7190 C   0  0  0  0  0  0  0  0  0  0  0  0
   44.1390   32.4820   37.8790 C   0  0  0  0  0  0  0  0  0  0  0  0
   44.8390   33.0550   38.9120 N   0  0  0  0  0  0  0  0  0  0  0  0
   42.7680   32.1200   38.0060 N   0  0  0  0  0  0  0  0  0  0  0  0
   42.3570   30.8780   37.6250 C   0  0  0  0  0  0  0  0  0  0  0  0
   41.0450   30.7220   37.8170 N   0  0  0  0  0  0  0  0  0  0  0  0
   40.5810   31.8740   38.3320 C   0  0  0  0  0  0  0  0  0  0  0  0
   39.3820   32.3720   38.7450 C   0  0  0  0  0  0  0  0  0  0  0  0
   38.3610   31.6320   38.6660 O   0  0  0  0  0  0  0  0  0  0  0  0
   39.3050   33.6220   39.2230 N   0  0  0  0  0  0  0  0  0  0  0  0
   40.3720   34.4600   39.3290 C   0  0  0  0  0  0  0  0  0  0  0  0
   40.0790   35.7490   39.8620 N   0  0  0  0  0  0  0  0  0  0  0  0
   41.5790   33.9780   38.9200 N   0  0  0  0  0  0  0  0  0  0  0  0
   41.6540   32.7290   38.4440 C   0  0  0  0  0  0  0  0  0  0  0  0
   46.8570   34.6880   42.1290 C   0  0  0  0  0  0  0  0  0  0  0  0
   48.1550   35.1260   42.0880 C   0  0  0  0  0  0  0  0  0  0  0  0
   48.7770   34.9660   40.8830 C   0  0  0  0  0  0  0  0  0  0  0  0
   48.1410   34.3980   39.7650 C   0  0  0  0  0  0  0  0  0  0  0  0
   46.8320   33.9810   39.8850 C   0  0  0  0  0  0  0  0  0  0  0  0
   46.2280   34.1420   41.0740 N   0  0  0  0  0  0  0  0  0  0  0  0
   44.4910   35.9210   44.7290 C   0  0  0  0  0  0  0  0  0  0  0  0
   45.2080   35.8380   43.5220 C   0  0  0  0  0  0  0  0  0  0  0  0
   46.0970   34.8070   43.3640 C   0  0  0  0  0  0  0  0  0  0  0  0
   46.2390   33.9080   44.3960 N   0  0  0  0  0  0  0  0  0  0  0  0
   45.5340   34.0170   45.5440 C   0  0  0  0  0  0  0  0  0  0  0  0
   44.6660   35.0180   45.7090 N   0  0  0  0  0  0  0  0  0  0  0  0
   47.8819   33.4563   37.4825 H   0  0  0  0  0  0  0  0  0  0  0  0
   46.6700   32.4093   35.5380 H   0  0  0  0  0  0  0  0  0  0  0  0
   44.2931   31.8270   35.8806 H   0  0  0  0  0  0  0  0  0  0  0  0
   43.0206   30.1037   37.2124 H   0  0  0  0  0  0  0  0  0  0  0  0
   38.3842   33.9685   39.5279 H   0  0  0  0  0  0  0  0  0  0  0  0
   40.8318   36.4429   39.9748 H   0  0  0  0  0  0  0  0  0  0  0  0
   39.1145   35.9866   40.1344 H   0  0  0  0  0  0  0  0  0  0  0  0
   48.6572   35.5722   42.9590 H   0  0  0  0  0  0  0  0  0  0  0  0
   49.8215   35.2960   40.7825 H   0  0  0  0  0  0  0  0  0  0  0  0
   48.6782   34.2882   38.8114 H   0  0  0  0  0  0  0  0  0  0  0  0
   43.7726   36.7413   44.8739 H   0  0  0  0  0  0  0  0  0  0  0  0
   45.0591   36.5815   42.7252 H   0  0  0  0  0  0  0  0  0  0  0  0
   45.6760   33.2777   46.3460 H   0  0  0  0  0  0  0  0  0  0  0  0
  1  6  1  0
  1 22  1  0
  2  1  2  0
  3  4  2  0
  3  2  1  0
  4  5  1  0
  5  7  1  0
  5  6  2  0
  7 17  1  0
  8  9  2  0
  8  7  1  0
  9 10  1  0
 10 17  2  0
 10 11  1  0
 11 13  1  0
 12 11  2  0
 13 14  1  0
 14 15  1  0
 16 14  2  0
 17 16  1  0
 18 26  1  0
 19 18  2  0
 20 19  1  0
 21 22  1  0
 21 20  2  0
 22 23  2  0
 23 18  1  0
 24 29  2  0
 25 24  1  0
 26 25  2  0
 26 27  1  0
 27 28  2  0
 28 29  1  0
  2 30  1  0
  3 31  1  0
  4 32  1  0
  8 33  1  0
 13 34  1  0
 15 35  1  0
 15 36  1  0
 19 37  1  0
 20 38  1  0
 21 39  1  0
 24 40  1  0
 25 41  1  0
 28 42  1  0
M  ISO  8  30  14  31  14  32  14  33  14  34   9  37  14  38  14  39  14
M  ISO  3  40  14  41  14  42  14
M  END
>  <minimizedAffinity>  (1) 
-7.36130476

>  <minimizedRMSD>  (1) 
1.73916471

$$$$
