
     RDKit          3D

 35 37  0  0  0  0  0  0  0  0999 V2000
   46.8110   34.7360   42.0880 C   0  0  0  0  0  0  0  0  0  0  0  0
   48.0420   35.3030   41.9810 C   0  0  0  0  0  0  0  0  0  0  0  0
   48.6510   35.1300   40.7560 C   0  0  0  0  0  0  0  0  0  0  0  0
   48.0540   34.4270   39.7000 C   0  0  0  0  0  0  0  0  0  0  0  0
   46.7900   33.8790   39.8970 C   0  0  0  0  0  0  0  0  0  0  0  0
   46.2130   34.0570   41.0940 N   0  0  0  0  0  0  0  0  0  0  0  0
   46.1450   33.1450   38.8310 C   0  0  0  0  0  0  0  0  0  0  0  0
   46.8980   32.4140   37.9540 C   0  0  0  0  0  0  0  0  0  0  0  0
   46.2980   31.6940   36.9220 C   0  0  0  0  0  0  0  0  0  0  0  0
   44.9090   31.8010   36.8920 C   0  0  0  0  0  0  0  0  0  0  0  0
   44.1350   32.5230   37.7540 C   0  0  0  0  0  0  0  0  0  0  0  0
   44.8080   33.1960   38.7320 N   0  0  0  0  0  0  0  0  0  0  0  0
   42.7230   32.6370   37.7210 N   0  0  0  0  0  0  0  0  0  0  0  0
   41.9930   33.6140   38.4490 C   0  0  0  0  0  0  0  0  0  0  0  0
   42.3780   33.7920   39.6910 N   0  0  0  0  0  0  0  0  0  0  0  0
   40.9170   34.3140   37.7960 N   0  0  0  0  0  0  0  0  0  0  0  0
   41.9220   34.4690   40.3050 H   0  0  0  0  0  0  0  0  0  0  0  0
   44.4950   35.9420   44.7530 C   0  0  0  0  0  0  0  0  0  0  0  0
   45.1850   35.8840   43.5240 C   0  0  0  0  0  0  0  0  0  0  0  0
   46.0660   34.8510   43.3390 C   0  0  0  0  0  0  0  0  0  0  0  0
   46.2220   33.9420   44.3610 N   0  0  0  0  0  0  0  0  0  0  0  0
   45.5490   34.0270   45.5210 C   0  0  0  0  0  0  0  0  0  0  0  0
   44.6880   35.0250   45.7160 N   0  0  0  0  0  0  0  0  0  0  0  0
   48.5147   35.8559   42.8062 H   0  0  0  0  0  0  0  0  0  0  0  0
   49.6501   35.5630   40.6003 H   0  0  0  0  0  0  0  0  0  0  0  0
   48.5732   34.3112   38.7372 H   0  0  0  0  0  0  0  0  0  0  0  0
   47.9923   32.3939   38.0645 H   0  0  0  0  0  0  0  0  0  0  0  0
   46.8693   31.0956   36.1971 H   0  0  0  0  0  0  0  0  0  0  0  0
   44.3855   31.2503   36.0966 H   0  0  0  0  0  0  0  0  0  0  0  0
   42.1958   31.9734   37.1356 H   0  0  0  0  0  0  0  0  0  0  0  0
   40.3782   35.0253   38.3105 H   0  0  0  0  0  0  0  0  0  0  0  0
   40.6863   34.1033   36.8145 H   0  0  0  0  0  0  0  0  0  0  0  0
   43.7801   36.7595   44.9276 H   0  0  0  0  0  0  0  0  0  0  0  0
   45.0217   36.6407   42.7425 H   0  0  0  0  0  0  0  0  0  0  0  0
   45.7085   33.2747   46.3075 H   0  0  0  0  0  0  0  0  0  0  0  0
  1 20  1  0
  2  1  2  0
  3  2  1  0
  4  5  1  0
  4  3  2  0
  5  6  2  0
  6  1  1  0
  7  5  1  0
  8  7  2  0
  9  8  1  0
 10  9  2  0
 10 11  1  0
 11 12  2  0
 12  7  1  0
 13 11  1  0
 13 14  1  0
 14 15  2  0
 15 17  1  0
 16 14  1  0
 18 23  2  0
 19 18  1  0
 20 19  2  0
 20 21  1  0
 21 22  2  0
 22 23  1  0
  2 24  1  0
  3 25  1  0
  4 26  1  0
  8 27  1  0
  9 28  1  0
 10 29  1  0
 13 30  1  0
 16 31  1  0
 16 32  1  0
 18 33  1  0
 19 34  1  0
 22 35  1  0
M  ISO  8  24  14  25  14  26  14  27  14  28  14  29  14  33  14  34  14
M  ISO  1  35  14
M  END
>  <minimizedAffinity>  (1) 
-6.58147669

>  <minimizedRMSD>  (1) 
1.49350417

$$$$
