
     RDKit          3D

 42 45  0  0  0  0  0  0  0  0999 V2000
   46.7860   34.7300   42.0580 C   0  0  0  0  0  0  0  0  0  0  0  0
   48.0390   35.3030   41.9490 C   0  0  0  0  0  0  0  0  0  0  0  0
   48.6430   35.1340   40.7280 C   0  0  0  0  0  0  0  0  0  0  0  0
   48.0430   34.4380   39.6690 C   0  0  0  0  0  0  0  0  0  0  0  0
   46.7770   33.8920   39.8650 C   0  0  0  0  0  0  0  0  0  0  0  0
   46.1920   34.0610   41.0640 N   0  0  0  0  0  0  0  0  0  0  0  0
   46.1370   33.1610   38.7950 C   0  0  0  0  0  0  0  0  0  0  0  0
   46.8830   32.6570   37.7640 C   0  0  0  0  0  0  0  0  0  0  0  0
   46.2790   31.9430   36.7370 C   0  0  0  0  0  0  0  0  0  0  0  0
   44.9090   31.8060   36.8610 C   0  0  0  0  0  0  0  0  0  0  0  0
   44.1300   32.3010   37.8820 C   0  0  0  0  0  0  0  0  0  0  0  0
   44.7930   32.9950   38.8620 N   0  0  0  0  0  0  0  0  0  0  0  0
   42.7410   32.1360   37.9640 N   0  0  0  0  0  0  0  0  0  0  0  0
   41.9400   32.9400   38.8720 C   0  0  0  0  0  0  0  0  0  0  0  0
   40.6630   33.2600   38.1250 C   0  0  0  0  0  0  0  0  0  0  0  0
   39.9220   32.0260   37.9650 N   0  0  0  0  0  0  0  0  0  0  0  0
   40.7470   30.8730   37.8010 C   0  0  0  0  0  0  0  0  0  0  0  0
   42.0790   31.1570   37.1400 C   0  0  0  0  0  0  0  0  0  0  0  0
   44.4990   35.9410   44.7310 C   0  0  0  0  0  0  0  0  0  0  0  0
   45.1750   35.8790   43.5040 C   0  0  0  0  0  0  0  0  0  0  0  0
   46.0560   34.8470   43.3110 C   0  0  0  0  0  0  0  0  0  0  0  0
   46.2330   33.9280   44.3230 N   0  0  0  0  0  0  0  0  0  0  0  0
   45.5570   34.0260   45.4970 C   0  0  0  0  0  0  0  0  0  0  0  0
   44.6930   35.0320   45.6980 N   0  0  0  0  0  0  0  0  0  0  0  0
   48.5147   35.8512   42.7755 H   0  0  0  0  0  0  0  0  0  0  0  0
   49.6435   35.5643   40.5733 H   0  0  0  0  0  0  0  0  0  0  0  0
   48.5607   34.3258   38.7049 H   0  0  0  0  0  0  0  0  0  0  0  0
   47.9709   32.8189   37.7486 H   0  0  0  0  0  0  0  0  0  0  0  0
   46.8449   31.5208   35.8935 H   0  0  0  0  0  0  0  0  0  0  0  0
   44.3915   31.2475   36.0671 H   0  0  0  0  0  0  0  0  0  0  0  0
   41.7159   32.3740   39.7882 H   0  0  0  0  0  0  0  0  0  0  0  0
   42.4700   33.8545   39.1767 H   0  0  0  0  0  0  0  0  0  0  0  0
   40.0653   33.9836   38.6987 H   0  0  0  0  0  0  0  0  0  0  0  0
   40.8924   33.7002   37.1434 H   0  0  0  0  0  0  0  0  0  0  0  0
   39.3358   31.8891   38.8008 H   0  0  0  0  0  0  0  0  0  0  0  0
   40.9390   30.4411   38.7943 H   0  0  0  0  0  0  0  0  0  0  0  0
   40.2031   30.1847   37.1374 H   0  0  0  0  0  0  0  0  0  0  0  0
   42.6800   30.2374   37.0845 H   0  0  0  0  0  0  0  0  0  0  0  0
   41.9439   31.5260   36.1126 H   0  0  0  0  0  0  0  0  0  0  0  0
   43.7871   36.7611   44.9060 H   0  0  0  0  0  0  0  0  0  0  0  0
   45.0039   36.6337   42.7222 H   0  0  0  0  0  0  0  0  0  0  0  0
   45.7188   33.2771   46.2863 H   0  0  0  0  0  0  0  0  0  0  0  0
  1 21  1  0
  2  1  2  0
  3  2  1  0
  4  5  1  0
  4  3  2  0
  5  6  2  0
  6  1  1  0
  7 12  1  0
  7  5  1  0
  8  7  2  0
  9 10  2  0
  9  8  1  0
 10 11  1  0
 11 13  1  0
 11 12  2  0
 13 14  1  0
 15 14  1  0
 16 15  1  0
 17 16  1  0
 18 17  1  0
 18 13  1  0
 19 24  2  0
 20 19  1  0
 21 20  2  0
 21 22  1  0
 22 23  2  0
 23 24  1  0
  2 25  1  0
  3 26  1  0
  4 27  1  0
  8 28  1  0
  9 29  1  0
 10 30  1  0
 14 31  1  0
 14 32  1  0
 15 33  1  0
 15 34  1  0
 16 35  1  0
 17 36  1  0
 17 37  1  0
 18 38  1  0
 18 39  1  0
 19 40  1  0
 20 41  1  0
 23 42  1  0
M  ISO  8  25  14  26  14  27  14  28  14  29  14  30  14  31  13  32  13
M  ISO  8  33  13  34  13  35   5  36  13  37  13  38  13  39  13  40  14
M  ISO  2  41  14  42  14
M  END
>  <minimizedAffinity>  (1) 
-6.42544842

>  <minimizedRMSD>  (1) 
1.33084261

$$$$
