
     RDKit          3D

 41 44  0  0  0  0  0  0  0  0999 V2000
   46.6280   33.1690   38.8440 C   0  0  0  0  0  0  0  0  0  0  0  0
   47.4880   32.6280   37.9290 C   0  0  0  0  0  0  0  0  0  0  0  0
   47.0160   31.8370   36.8950 C   0  0  0  0  0  0  0  0  0  0  0  0
   45.6450   31.6610   36.8900 C   0  0  0  0  0  0  0  0  0  0  0  0
   44.7630   32.1920   37.7930 C   0  0  0  0  0  0  0  0  0  0  0  0
   45.2920   32.9640   38.7900 N   0  0  0  0  0  0  0  0  0  0  0  0
   46.9730   34.8510   42.1050 C   0  0  0  0  0  0  0  0  0  0  0  0
   48.1510   35.5470   42.0390 C   0  0  0  0  0  0  0  0  0  0  0  0
   48.8180   35.4270   40.8510 C   0  0  0  0  0  0  0  0  0  0  0  0
   48.3440   34.6560   39.7820 C   0  0  0  0  0  0  0  0  0  0  0  0
   47.1440   33.9830   39.9310 C   0  0  0  0  0  0  0  0  0  0  0  0
   46.5030   34.1110   41.0990 N   0  0  0  0  0  0  0  0  0  0  0  0
   44.5030   35.9000   44.6890 C   0  0  0  0  0  0  0  0  0  0  0  0
   45.2490   35.8980   43.4930 C   0  0  0  0  0  0  0  0  0  0  0  0
   46.1740   34.9000   43.3230 C   0  0  0  0  0  0  0  0  0  0  0  0
   46.3200   33.9640   44.3250 N   0  0  0  0  0  0  0  0  0  0  0  0
   45.5870   33.9990   45.4560 C   0  0  0  0  0  0  0  0  0  0  0  0
   44.6820   34.9610   45.6410 N   0  0  0  0  0  0  0  0  0  0  0  0
   40.5700   31.5330   37.6490 C   0  0  0  0  0  0  0  0  0  0  0  0
   41.0580   32.6440   38.2800 C   0  0  0  0  0  0  0  0  0  0  0  0
   42.4220   32.8580   38.3270 C   0  0  0  0  0  0  0  0  0  0  0  0
   43.3210   31.9850   37.7550 C   0  0  0  0  0  0  0  0  0  0  0  0
   42.7940   30.8770   37.1270 C   0  0  0  0  0  0  0  0  0  0  0  0
   41.4320   30.6360   37.0640 C   0  0  0  0  0  0  0  0  0  0  0  0
   38.8350   31.2710   37.5960 S   0  0  0  0  0  0  0  0  0  0  0  0
   38.1220   32.6040   37.7160 O   0  0  0  0  0  0  0  0  0  0  0  0
   38.4440   30.6140   36.3000 O   0  0  0  0  0  0  0  0  0  0  0  0
   48.5671   32.8233   38.0152 H   0  0  0  0  0  0  0  0  0  0  0  0
   47.6772   31.3862   36.1403 H   0  0  0  0  0  0  0  0  0  0  0  0
   45.2240   31.0375   36.0875 H   0  0  0  0  0  0  0  0  0  0  0  0
   48.5301   36.1538   42.8745 H   0  0  0  0  0  0  0  0  0  0  0  0
   49.7718   35.9613   40.7293 H   0  0  0  0  0  0  0  0  0  0  0  0
   48.9137   34.5869   38.8436 H   0  0  0  0  0  0  0  0  0  0  0  0
   43.7540   36.6892   44.8506 H   0  0  0  0  0  0  0  0  0  0  0  0
   45.0947   36.6691   42.7238 H   0  0  0  0  0  0  0  0  0  0  0  0
   45.7360   33.2310   46.2293 H   0  0  0  0  0  0  0  0  0  0  0  0
   40.3687   33.3627   38.7472 H   0  0  0  0  0  0  0  0  0  0  0  0
   42.8026   33.7548   38.8378 H   0  0  0  0  0  0  0  0  0  0  0  0
   43.4812   30.1572   36.6583 H   0  0  0  0  0  0  0  0  0  0  0  0
   41.0459   29.7411   36.5540 H   0  0  0  0  0  0  0  0  0  0  0  0
   38.4779   30.4532   38.6355 H   0  0  0  0  0  0  0  0  0  0  0  0
  1 11  1  0
  2  1  2  0
  3  2  1  0
  4  3  2  0
  4  5  1  0
  5  6  2  0
  6  1  1  0
  7 15  1  0
  8  7  2  0
  9  8  1  0
 10 11  1  0
 10  9  2  0
 11 12  2  0
 12  7  1  0
 13 18  2  0
 14 13  1  0
 15 14  2  0
 15 16  1  0
 16 17  2  0
 17 18  1  0
 19 20  2  0
 20 21  1  0
 22  5  1  0
 22 21  2  0
 23 22  1  0
 24 23  2  0
 24 19  1  0
 25 19  1  0
 25 26  2  0
 27 25  2  0
  2 28  1  0
  3 29  1  0
  4 30  1  0
  8 31  1  0
  9 32  1  0
 10 33  1  0
 13 34  1  0
 14 35  1  0
 17 36  1  0
 20 37  1  0
 21 38  1  0
 23 39  1  0
 24 40  1  0
 25 41  1  0
M  ISO  8  28  14  29  14  30  14  31  14  32  14  33  14  34  14  35  14
M  ISO  6  36  14  37  14  38  14  39  14  40  14  41  11
M  END
>  <minimizedAffinity>  (1) 
-6.35292959

>  <minimizedRMSD>  (1) 
1.97784793

$$$$
