
     RDKit          3D

 11 11  0  0  0  0  0  0  0  0999 V2000
   44.5230   35.8070   44.9390 C   0  0  0  0  0  0  0  0  0  0  0  0
   45.0810   35.9220   43.6550 C   0  0  0  0  0  0  0  0  0  0  0  0
   45.9910   34.9520   43.2330 C   0  0  0  0  0  0  0  0  0  0  0  0
   46.2950   33.9400   44.0850 N   0  0  0  0  0  0  0  0  0  0  0  0
   45.7480   33.8490   45.3120 C   0  0  0  0  0  0  0  0  0  0  0  0
   44.8660   34.7740   45.7430 N   0  0  0  0  0  0  0  0  0  0  0  0
   44.6540   37.0150   42.9320 O   0  0  0  0  0  0  0  0  0  0  0  0
   43.8037   36.5604   45.2926 H   0  0  0  0  0  0  0  0  0  0  0  0
   46.4504   35.0061   42.2350 H   0  0  0  0  0  0  0  0  0  0  0  0
   46.0233   33.0115   45.9698 H   0  0  0  0  0  0  0  0  0  0  0  0
   44.9996   37.1691   42.0172 H   0  0  0  0  0  0  0  0  0  0  0  0
  1  6  2  0
  2  1  1  0
  3  2  2  0
  3  4  1  0
  4  5  2  0
  5  6  1  0
  7  2  1  0
  1  8  1  0
  3  9  1  0
  5 10  1  0
  7 11  1  0
M  ISO  4   8  14   9  14  10  14  11   3
M  END
>  <minimizedAffinity>  (1) 
-3.02636218

>  <minimizedRMSD>  (1) 
0.554368615

$$$$
