
     RDKit          3D

 41 44  0  0  0  0  0  0  0  0999 V2000
   46.7760   34.7350   42.0600 C   0  0  0  0  0  0  0  0  0  0  0  0
   48.0190   35.3110   41.9440 C   0  0  0  0  0  0  0  0  0  0  0  0
   48.6230   35.1320   40.7250 C   0  0  0  0  0  0  0  0  0  0  0  0
   48.0210   34.4200   39.6790 C   0  0  0  0  0  0  0  0  0  0  0  0
   46.7690   33.8700   39.8730 C   0  0  0  0  0  0  0  0  0  0  0  0
   46.1870   34.0520   41.0730 N   0  0  0  0  0  0  0  0  0  0  0  0
   46.1190   33.1270   38.8160 C   0  0  0  0  0  0  0  0  0  0  0  0
   46.8740   32.5630   37.8250 C   0  0  0  0  0  0  0  0  0  0  0  0
   46.2800   31.8380   36.8040 C   0  0  0  0  0  0  0  0  0  0  0  0
   44.9030   31.7510   36.8940 C   0  0  0  0  0  0  0  0  0  0  0  0
   44.1120   32.3090   37.8820 C   0  0  0  0  0  0  0  0  0  0  0  0
   44.7690   33.0100   38.8550 N   0  0  0  0  0  0  0  0  0  0  0  0
   42.6990   32.1630   37.8850 N   0  0  0  0  0  0  0  0  0  0  0  0
   42.1660   30.9500   37.2960 C   0  0  0  0  0  0  0  0  0  0  0  0
   40.6510   30.9340   37.3710 C   0  0  0  0  0  0  0  0  0  0  0  0
   40.3330   31.4400   38.6470 O   0  0  0  0  0  0  0  0  0  0  0  0
   40.4440   32.8310   38.5690 C   0  0  0  0  0  0  0  0  0  0  0  0
   41.9020   33.2240   38.4710 C   0  0  0  0  0  0  0  0  0  0  0  0
   44.5040   35.9880   44.7320 C   0  0  0  0  0  0  0  0  0  0  0  0
   45.1850   35.9140   43.5020 C   0  0  0  0  0  0  0  0  0  0  0  0
   46.0440   34.8620   43.3150 C   0  0  0  0  0  0  0  0  0  0  0  0
   46.1890   33.9480   44.3300 N   0  0  0  0  0  0  0  0  0  0  0  0
   45.5180   34.0520   45.4970 C   0  0  0  0  0  0  0  0  0  0  0  0
   44.6800   35.0690   45.6940 N   0  0  0  0  0  0  0  0  0  0  0  0
   48.4921   35.8713   42.7639 H   0  0  0  0  0  0  0  0  0  0  0  0
   49.6209   35.5653   40.5622 H   0  0  0  0  0  0  0  0  0  0  0  0
   48.5388   34.3006   38.7159 H   0  0  0  0  0  0  0  0  0  0  0  0
   47.9670   32.6864   37.8384 H   0  0  0  0  0  0  0  0  0  0  0  0
   46.8553   31.3713   35.9909 H   0  0  0  0  0  0  0  0  0  0  0  0
   44.3875   31.1841   36.1048 H   0  0  0  0  0  0  0  0  0  0  0  0
   42.5630   30.0804   37.8403 H   0  0  0  0  0  0  0  0  0  0  0  0
   42.4666   30.9105   36.2386 H   0  0  0  0  0  0  0  0  0  0  0  0
   40.2202   31.5726   36.5857 H   0  0  0  0  0  0  0  0  0  0  0  0
   40.2451   29.9229   37.2196 H   0  0  0  0  0  0  0  0  0  0  0  0
   39.9081   33.1908   37.6783 H   0  0  0  0  0  0  0  0  0  0  0  0
   40.0062   33.2816   39.4720 H   0  0  0  0  0  0  0  0  0  0  0  0
   42.2824   33.4416   39.4799 H   0  0  0  0  0  0  0  0  0  0  0  0
   41.9783   34.1109   37.8248 H   0  0  0  0  0  0  0  0  0  0  0  0
   43.8087   36.8218   44.9093 H   0  0  0  0  0  0  0  0  0  0  0  0
   45.0334   36.6724   42.7198 H   0  0  0  0  0  0  0  0  0  0  0  0
   45.6630   33.2978   46.2845 H   0  0  0  0  0  0  0  0  0  0  0  0
  1 21  1  0
  2  1  2  0
  3  2  1  0
  4  5  1  0
  4  3  2  0
  5  6  2  0
  6  1  1  0
  7 12  1  0
  7  5  1  0
  8  7  2  0
  9 10  2  0
  9  8  1  0
 10 11  1  0
 11 13  1  0
 11 12  2  0
 13 18  1  0
 14 15  1  0
 14 13  1  0
 15 16  1  0
 17 16  1  0
 18 17  1  0
 19 24  2  0
 20 19  1  0
 21 20  2  0
 21 22  1  0
 22 23  2  0
 23 24  1  0
  2 25  1  0
  3 26  1  0
  4 27  1  0
  8 28  1  0
  9 29  1  0
 10 30  1  0
 14 31  1  0
 14 32  1  0
 15 33  1  0
 15 34  1  0
 17 35  1  0
 17 36  1  0
 18 37  1  0
 18 38  1  0
 19 39  1  0
 20 40  1  0
 23 41  1  0
M  ISO  8  25  14  26  14  27  14  28  14  29  14  30  14  31  13  32  13
M  ISO  8  33  13  34  13  35  13  36  13  37  13  38  13  39  14  40  14
M  ISO  1  41  14
M  END
>  <minimizedAffinity>  (1) 
-6.34788275

>  <minimizedRMSD>  (1) 
1.41279185

$$$$
