
     RDKit          3D

 37 40  0  0  0  0  0  0  0  0999 V2000
   46.7020   34.7000   42.1400 C   0  0  0  0  0  0  0  0  0  0  0  0
   47.9550   35.2200   42.0080 C   0  0  0  0  0  0  0  0  0  0  0  0
   48.5340   35.0320   40.7720 C   0  0  0  0  0  0  0  0  0  0  0  0
   47.8840   34.3560   39.7290 C   0  0  0  0  0  0  0  0  0  0  0  0
   46.6090   33.8570   39.9460 C   0  0  0  0  0  0  0  0  0  0  0  0
   46.0640   34.0520   41.1560 N   0  0  0  0  0  0  0  0  0  0  0  0
   44.4680   35.9640   44.8400 C   0  0  0  0  0  0  0  0  0  0  0  0
   45.1270   35.8890   43.5970 C   0  0  0  0  0  0  0  0  0  0  0  0
   45.9870   34.8370   43.4080 C   0  0  0  0  0  0  0  0  0  0  0  0
   46.1530   33.9280   44.4320 N   0  0  0  0  0  0  0  0  0  0  0  0
   45.5020   34.0380   45.6060 C   0  0  0  0  0  0  0  0  0  0  0  0
   44.6560   35.0630   45.8070 N   0  0  0  0  0  0  0  0  0  0  0  0
   45.9170   33.1490   38.8910 C   0  0  0  0  0  0  0  0  0  0  0  0
   46.6420   32.5470   37.8830 C   0  0  0  0  0  0  0  0  0  0  0  0
   45.9910   31.8520   36.8760 C   0  0  0  0  0  0  0  0  0  0  0  0
   44.6120   31.8300   36.9870 C   0  0  0  0  0  0  0  0  0  0  0  0
   43.8680   32.4200   37.9770 C   0  0  0  0  0  0  0  0  0  0  0  0
   44.5680   33.0920   38.9420 N   0  0  0  0  0  0  0  0  0  0  0  0
   42.4130   32.3420   38.0100 C   0  0  0  0  0  0  0  0  0  0  0  0
   41.8000   31.1690   37.6190 C   0  0  0  0  0  0  0  0  0  0  0  0
   40.4250   31.1460   37.6680 C   0  0  0  0  0  0  0  0  0  0  0  0
   39.7860   32.2920   38.0990 C   0  0  0  0  0  0  0  0  0  0  0  0
   40.3980   33.4680   38.4890 C   0  0  0  0  0  0  0  0  0  0  0  0
   41.7620   33.4430   38.4250 N   0  0  0  0  0  0  0  0  0  0  0  0
   48.4652   35.7495   42.8261 H   0  0  0  0  0  0  0  0  0  0  0  0
   49.5453   35.4274   40.5963 H   0  0  0  0  0  0  0  0  0  0  0  0
   48.3778   34.2240   38.7550 H   0  0  0  0  0  0  0  0  0  0  0  0
   43.7721   36.7966   45.0206 H   0  0  0  0  0  0  0  0  0  0  0  0
   44.9592   36.6413   42.8122 H   0  0  0  0  0  0  0  0  0  0  0  0
   45.6622   33.2914   46.3978 H   0  0  0  0  0  0  0  0  0  0  0  0
   47.7396   32.6189   37.8787 H   0  0  0  0  0  0  0  0  0  0  0  0
   46.5282   31.3570   36.0535 H   0  0  0  0  0  0  0  0  0  0  0  0
   44.0591   31.2872   36.2062 H   0  0  0  0  0  0  0  0  0  0  0  0
   42.3811   30.2967   37.2851 H   0  0  0  0  0  0  0  0  0  0  0  0
   39.8573   30.2504   37.3755 H   0  0  0  0  0  0  0  0  0  0  0  0
   38.6869   32.2662   38.1352 H   0  0  0  0  0  0  0  0  0  0  0  0
   39.8334   34.3509   38.8232 H   0  0  0  0  0  0  0  0  0  0  0  0
  1  9  1  0
  2  1  2  0
  3  2  1  0
  4  5  1  0
  4  3  2  0
  5  6  2  0
  6  1  1  0
  7 12  2  0
  8  7  1  0
  9  8  2  0
  9 10  1  0
 10 11  2  0
 11 12  1  0
 13 18  1  0
 13  5  1  0
 14 13  2  0
 15 16  2  0
 15 14  1  0
 16 17  1  0
 17 19  1  0
 17 18  2  0
 19 24  2  0
 20 21  2  0
 20 19  1  0
 21 22  1  0
 22 23  2  0
 24 23  1  0
  2 25  1  0
  3 26  1  0
  4 27  1  0
  7 28  1  0
  8 29  1  0
 11 30  1  0
 14 31  1  0
 15 32  1  0
 16 33  1  0
 20 34  1  0
 21 35  1  0
 22 36  1  0
 23 37  1  0
M  ISO  8  25  14  26  14  27  14  28  14  29  14  30  14  31  14  32  14
M  ISO  5  33  14  34  14  35  14  36  14  37  14
M  END
>  <minimizedAffinity>  (1) 
-6.20106792

>  <minimizedRMSD>  (1) 
1.5576036

$$$$
