
     RDKit          3D

 34 37  0  0  0  0  0  0  0  0999 V2000
   46.6690   34.6790   42.1630 C   0  0  0  0  0  0  0  0  0  0  0  0
   47.9310   35.1890   42.0230 C   0  0  0  0  0  0  0  0  0  0  0  0
   48.5010   34.9930   40.7870 C   0  0  0  0  0  0  0  0  0  0  0  0
   47.8480   34.3250   39.7460 C   0  0  0  0  0  0  0  0  0  0  0  0
   46.5680   33.8340   39.9640 C   0  0  0  0  0  0  0  0  0  0  0  0
   46.0280   34.0350   41.1800 N   0  0  0  0  0  0  0  0  0  0  0  0
   44.4610   35.9700   44.8810 C   0  0  0  0  0  0  0  0  0  0  0  0
   45.1160   35.8790   43.6310 C   0  0  0  0  0  0  0  0  0  0  0  0
   45.9700   34.8260   43.4250 C   0  0  0  0  0  0  0  0  0  0  0  0
   46.1340   33.9220   44.4540 N   0  0  0  0  0  0  0  0  0  0  0  0
   45.4960   34.0380   45.6300 C   0  0  0  0  0  0  0  0  0  0  0  0
   44.6650   35.0580   45.8380 N   0  0  0  0  0  0  0  0  0  0  0  0
   45.8630   33.1350   38.9050 C   0  0  0  0  0  0  0  0  0  0  0  0
   46.5710   32.5410   37.8880 C   0  0  0  0  0  0  0  0  0  0  0  0
   45.8880   31.8720   36.8730 C   0  0  0  0  0  0  0  0  0  0  0  0
   44.5160   31.8810   37.0080 C   0  0  0  0  0  0  0  0  0  0  0  0
   43.7840   32.4600   38.0040 C   0  0  0  0  0  0  0  0  0  0  0  0
   44.5220   33.0940   38.9550 N   0  0  0  0  0  0  0  0  0  0  0  0
   42.3240   32.4270   38.0780 C   0  0  0  0  0  0  0  0  0  0  0  0
   41.6000   31.2160   37.8800 C   0  0  0  0  0  0  0  0  0  0  0  0
   39.8840   31.7440   38.0800 S   0  0  0  0  0  0  0  0  0  0  0  0
   40.4150   33.5410   38.4050 C   0  0  0  0  0  0  0  0  0  0  0  0
   41.6780   33.5550   38.3370 N   0  0  0  0  0  0  0  0  0  0  0  0
   48.4501   35.7157   42.8373 H   0  0  0  0  0  0  0  0  0  0  0  0
   49.5157   35.3787   40.6091 H   0  0  0  0  0  0  0  0  0  0  0  0
   48.3402   34.1910   38.7714 H   0  0  0  0  0  0  0  0  0  0  0  0
   43.7713   36.8059   45.0697 H   0  0  0  0  0  0  0  0  0  0  0  0
   44.9454   36.6311   42.8466 H   0  0  0  0  0  0  0  0  0  0  0  0
   45.6596   33.2912   46.4209 H   0  0  0  0  0  0  0  0  0  0  0  0
   47.6697   32.5930   37.8747 H   0  0  0  0  0  0  0  0  0  0  0  0
   46.4011   31.3783   36.0346 H   0  0  0  0  0  0  0  0  0  0  0  0
   43.9460   31.3622   36.2232 H   0  0  0  0  0  0  0  0  0  0  0  0
   41.9888   30.2107   37.6603 H   0  0  0  0  0  0  0  0  0  0  0  0
   39.7556   34.3970   38.6109 H   0  0  0  0  0  0  0  0  0  0  0  0
  1  9  1  0
  2  1  2  0
  3  2  1  0
  4  5  1  0
  4  3  2  0
  5  6  2  0
  6  1  1  0
  7 12  2  0
  8  7  1  0
  9  8  2  0
  9 10  1  0
 10 11  2  0
 11 12  1  0
 13 18  1  0
 13  5  1  0
 14 13  2  0
 15 16  2  0
 15 14  1  0
 16 17  1  0
 17 19  1  0
 17 18  2  0
 19 23  1  0
 20 19  2  0
 20 21  1  0
 21 22  1  0
 23 22  2  0
  2 24  1  0
  3 25  1  0
  4 26  1  0
  7 27  1  0
  8 28  1  0
 11 29  1  0
 14 30  1  0
 15 31  1  0
 16 32  1  0
 20 33  1  0
 22 34  1  0
M  ISO  8  24  14  25  14  26  14  27  14  28  14  29  14  30  14  31  14
M  ISO  3  32  14  33  14  34  14
M  END
>  <minimizedAffinity>  (1) 
-5.92440271

>  <minimizedRMSD>  (1) 
1.50586677

$$$$
