
     RDKit          3D

 29 31  0  0  0  0  0  0  0  0999 V2000
   46.8420   34.7590   42.0270 C   0  0  0  0  0  0  0  0  0  0  0  0
   48.0680   35.3400   41.9280 C   0  0  0  0  0  0  0  0  0  0  0  0
   48.6790   35.1810   40.7110 C   0  0  0  0  0  0  0  0  0  0  0  0
   48.0960   34.4780   39.6490 C   0  0  0  0  0  0  0  0  0  0  0  0
   46.8480   33.9160   39.8250 C   0  0  0  0  0  0  0  0  0  0  0  0
   46.2580   34.0790   41.0260 N   0  0  0  0  0  0  0  0  0  0  0  0
   44.5060   35.9250   44.6940 C   0  0  0  0  0  0  0  0  0  0  0  0
   45.2010   35.8800   43.4700 C   0  0  0  0  0  0  0  0  0  0  0  0
   46.0920   34.8570   43.2750 C   0  0  0  0  0  0  0  0  0  0  0  0
   46.2540   33.9330   44.2880 N   0  0  0  0  0  0  0  0  0  0  0  0
   45.5700   34.0100   45.4460 C   0  0  0  0  0  0  0  0  0  0  0  0
   44.6970   35.0080   45.6430 N   0  0  0  0  0  0  0  0  0  0  0  0
   46.2130   33.1790   38.7530 C   0  0  0  0  0  0  0  0  0  0  0  0
   46.7000   33.2880   37.4780 C   0  0  0  0  0  0  0  0  0  0  0  0
   46.1140   32.5890   36.4330 C   0  0  0  0  0  0  0  0  0  0  0  0
   45.0350   31.8070   36.8040 C   0  0  0  0  0  0  0  0  0  0  0  0
   44.5210   31.6770   38.0750 C   0  0  0  0  0  0  0  0  0  0  0  0
   45.1500   32.3970   39.0590 N   0  0  0  0  0  0  0  0  0  0  0  0
   43.4290   30.8610   38.3400 O   0  0  0  0  0  0  0  0  0  0  0  0
   48.5320   35.8931   42.7579 H   0  0  0  0  0  0  0  0  0  0  0  0
   49.6736   35.6264   40.5616 H   0  0  0  0  0  0  0  0  0  0  0  0
   48.6246   34.3755   38.6898 H   0  0  0  0  0  0  0  0  0  0  0  0
   43.7867   36.7380   44.8719 H   0  0  0  0  0  0  0  0  0  0  0  0
   45.0340   36.6421   42.6946 H   0  0  0  0  0  0  0  0  0  0  0  0
   45.7278   33.2543   46.2296 H   0  0  0  0  0  0  0  0  0  0  0  0
   47.5657   33.9372   37.2802 H   0  0  0  0  0  0  0  0  0  0  0  0
   46.4768   32.6513   35.3964 H   0  0  0  0  0  0  0  0  0  0  0  0
   44.5396   31.2335   36.0067 H   0  0  0  0  0  0  0  0  0  0  0  0
   43.0797   30.7859   39.2633 H   0  0  0  0  0  0  0  0  0  0  0  0
  1  9  1  0
  2  1  2  0
  3  2  1  0
  4  5  1  0
  4  3  2  0
  5  6  2  0
  6  1  1  0
  7 12  2  0
  8  7  1  0
  9  8  2  0
  9 10  1  0
 10 11  2  0
 11 12  1  0
 13 18  1  0
 13  5  1  0
 14 13  2  0
 15 16  2  0
 15 14  1  0
 16 17  1  0
 17 19  1  0
 17 18  2  0
  2 20  1  0
  3 21  1  0
  4 22  1  0
  7 23  1  0
  8 24  1  0
 11 25  1  0
 14 26  1  0
 15 27  1  0
 16 28  1  0
 19 29  1  0
M  ISO  8  20  14  21  14  22  14  23  14  24  14  25  14  26  14  27  14
M  ISO  2  28  14  29   3
M  END
>  <minimizedAffinity>  (1) 
-5.51439238

>  <minimizedRMSD>  (1) 
0.0664680153

$$$$
