
     RDKit          3D

 29 31  0  0  0  0  0  0  0  0999 V2000
   46.8360   34.7590   42.0290 C   0  0  0  0  0  0  0  0  0  0  0  0
   48.0750   35.3380   41.9260 C   0  0  0  0  0  0  0  0  0  0  0  0
   48.6870   35.1800   40.7090 C   0  0  0  0  0  0  0  0  0  0  0  0
   48.0980   34.4830   39.6480 C   0  0  0  0  0  0  0  0  0  0  0  0
   46.8470   33.9250   39.8200 C   0  0  0  0  0  0  0  0  0  0  0  0
   46.2580   34.0860   41.0180 N   0  0  0  0  0  0  0  0  0  0  0  0
   44.5040   35.9260   44.6980 C   0  0  0  0  0  0  0  0  0  0  0  0
   45.2000   35.8820   43.4700 C   0  0  0  0  0  0  0  0  0  0  0  0
   46.0900   34.8570   43.2700 C   0  0  0  0  0  0  0  0  0  0  0  0
   46.2510   33.9360   44.2810 N   0  0  0  0  0  0  0  0  0  0  0  0
   45.5700   34.0080   45.4410 C   0  0  0  0  0  0  0  0  0  0  0  0
   44.6960   35.0060   45.6450 N   0  0  0  0  0  0  0  0  0  0  0  0
   46.2110   33.1960   38.7430 C   0  0  0  0  0  0  0  0  0  0  0  0
   46.7170   33.2800   37.4700 C   0  0  0  0  0  0  0  0  0  0  0  0
   46.1150   32.5820   36.4270 C   0  0  0  0  0  0  0  0  0  0  0  0
   45.0110   31.8360   36.7970 C   0  0  0  0  0  0  0  0  0  0  0  0
   44.4850   31.7350   38.0630 C   0  0  0  0  0  0  0  0  0  0  0  0
   45.1230   32.4460   39.0440 N   0  0  0  0  0  0  0  0  0  0  0  0
   43.0510   30.7380   38.4240 S   0  0  0  0  0  0  0  0  0  0  0  0
   48.5423   35.8874   42.7565 H   0  0  0  0  0  0  0  0  0  0  0  0
   49.6841   35.6202   40.5603 H   0  0  0  0  0  0  0  0  0  0  0  0
   48.6256   34.3809   38.6882 H   0  0  0  0  0  0  0  0  0  0  0  0
   43.7855   36.7392   44.8783 H   0  0  0  0  0  0  0  0  0  0  0  0
   45.0336   36.6466   42.6969 H   0  0  0  0  0  0  0  0  0  0  0  0
   45.7302   33.2490   46.2209 H   0  0  0  0  0  0  0  0  0  0  0  0
   47.6026   33.9020   37.2730 H   0  0  0  0  0  0  0  0  0  0  0  0
   46.4872   32.6207   35.3926 H   0  0  0  0  0  0  0  0  0  0  0  0
   44.5051   31.2689   36.0018 H   0  0  0  0  0  0  0  0  0  0  0  0
   42.8985   30.6320   39.7813 H   0  0  0  0  0  0  0  0  0  0  0  0
  1  9  1  0
  2  1  2  0
  3  2  1  0
  4  5  1  0
  4  3  2  0
  5  6  2  0
  6  1  1  0
  7 12  2  0
  8  7  1  0
  9  8  2  0
  9 10  1  0
 10 11  2  0
 11 12  1  0
 13 18  1  0
 13  5  1  0
 14 13  2  0
 15 16  2  0
 15 14  1  0
 16 17  1  0
 17 19  1  0
 17 18  2  0
  2 20  1  0
  3 21  1  0
  4 22  1  0
  7 23  1  0
  8 24  1  0
 11 25  1  0
 14 26  1  0
 15 27  1  0
 16 28  1  0
 19 29  1  0
M  ISO  8  20  14  21  14  22  14  23  14  24  14  25  14  26  14  27  14
M  ISO  2  28  14  29  11
M  END
>  <minimizedAffinity>  (1) 
-5.5012455

>  <minimizedRMSD>  (1) 
0.112082861

$$$$
