
     RDKit          3D

 31 33  0  0  0  0  0  0  0  0999 V2000
   46.8240   34.7450   42.0250 C   0  0  0  0  0  0  0  0  0  0  0  0
   48.0690   35.3270   41.9320 C   0  0  0  0  0  0  0  0  0  0  0  0
   48.6800   35.1710   40.7100 C   0  0  0  0  0  0  0  0  0  0  0  0
   48.0870   34.4780   39.6480 C   0  0  0  0  0  0  0  0  0  0  0  0
   46.8350   33.9230   39.8220 C   0  0  0  0  0  0  0  0  0  0  0  0
   46.2440   34.0810   41.0250 N   0  0  0  0  0  0  0  0  0  0  0  0
   44.5070   35.9290   44.6920 C   0  0  0  0  0  0  0  0  0  0  0  0
   45.1990   35.8740   43.4670 C   0  0  0  0  0  0  0  0  0  0  0  0
   46.0840   34.8440   43.2750 C   0  0  0  0  0  0  0  0  0  0  0  0
   46.2340   33.9390   44.2890 N   0  0  0  0  0  0  0  0  0  0  0  0
   45.5630   34.0110   45.4510 C   0  0  0  0  0  0  0  0  0  0  0  0
   44.6940   35.0130   45.6500 N   0  0  0  0  0  0  0  0  0  0  0  0
   46.1950   33.1960   38.7470 C   0  0  0  0  0  0  0  0  0  0  0  0
   46.7060   33.2740   37.4800 C   0  0  0  0  0  0  0  0  0  0  0  0
   46.1190   32.5820   36.4270 C   0  0  0  0  0  0  0  0  0  0  0  0
   45.0070   31.8390   36.7960 C   0  0  0  0  0  0  0  0  0  0  0  0
   44.4620   31.7380   38.0690 C   0  0  0  0  0  0  0  0  0  0  0  0
   45.1030   32.4500   39.0420 N   0  0  0  0  0  0  0  0  0  0  0  0
   43.2750   30.9110   38.3240 C   0  0  0  0  0  0  0  0  0  0  0  0
   48.5358   35.8714   42.7661 H   0  0  0  0  0  0  0  0  0  0  0  0
   49.6776   35.6096   40.5605 H   0  0  0  0  0  0  0  0  0  0  0  0
   48.6122   34.3769   38.6868 H   0  0  0  0  0  0  0  0  0  0  0  0
   43.7930   36.7473   44.8666 H   0  0  0  0  0  0  0  0  0  0  0  0
   45.0349   36.6334   42.6883 H   0  0  0  0  0  0  0  0  0  0  0  0
   45.7251   33.2542   46.2327 H   0  0  0  0  0  0  0  0  0  0  0  0
   47.5950   33.8939   37.2919 H   0  0  0  0  0  0  0  0  0  0  0  0
   46.5010   32.6200   35.3961 H   0  0  0  0  0  0  0  0  0  0  0  0
   44.5056   31.2716   35.9981 H   0  0  0  0  0  0  0  0  0  0  0  0
   43.1264   30.8075   39.4090 H   0  0  0  0  0  0  0  0  0  0  0  0
   42.3914   31.3900   37.8770 H   0  0  0  0  0  0  0  0  0  0  0  0
   43.4183   29.9162   37.8770 H   0  0  0  0  0  0  0  0  0  0  0  0
  1  9  1  0
  2  1  2  0
  3  2  1  0
  4  5  1  0
  4  3  2  0
  5  6  2  0
  6  1  1  0
  7 12  2  0
  8  7  1  0
  9  8  2  0
  9 10  1  0
 10 11  2  0
 11 12  1  0
 13 18  1  0
 13  5  1  0
 14 13  2  0
 15 16  2  0
 15 14  1  0
 16 17  1  0
 17 19  1  0
 17 18  2  0
  2 20  1  0
  3 21  1  0
  4 22  1  0
  7 23  1  0
  8 24  1  0
 11 25  1  0
 14 26  1  0
 15 27  1  0
 16 28  1  0
 19 29  1  0
 19 30  1  0
 19 31  1  0
M  ISO  8  20  14  21  14  22  14  23  14  24  14  25  14  26  14  27  14
M  ISO  4  28  14  29   8  30   8  31   8
M  END
>  <minimizedAffinity>  (1) 
-5.5098815

>  <minimizedRMSD>  (1) 
0.115784205

$$$$
