
     RDKit          3D

 44 47  0  0  0  0  0  0  0  0999 V2000
   46.1020   33.1850   38.7690 C   0  0  0  0  0  0  0  0  0  0  0  0
   46.7950   32.8140   37.6590 C   0  0  0  0  0  0  0  0  0  0  0  0
   46.1740   32.1320   36.6140 C   0  0  0  0  0  0  0  0  0  0  0  0
   44.8160   31.8860   36.8310 C   0  0  0  0  0  0  0  0  0  0  0  0
   44.0830   32.2470   37.9400 C   0  0  0  0  0  0  0  0  0  0  0  0
   44.7750   32.9110   38.9130 N   0  0  0  0  0  0  0  0  0  0  0  0
   46.7810   34.7240   42.0390 C   0  0  0  0  0  0  0  0  0  0  0  0
   48.0500   35.2740   41.9360 C   0  0  0  0  0  0  0  0  0  0  0  0
   48.6440   35.0900   40.7110 C   0  0  0  0  0  0  0  0  0  0  0  0
   48.0240   34.4070   39.6590 C   0  0  0  0  0  0  0  0  0  0  0  0
   46.7660   33.8930   39.8410 C   0  0  0  0  0  0  0  0  0  0  0  0
   46.1850   34.0760   41.0450 N   0  0  0  0  0  0  0  0  0  0  0  0
   44.5260   35.9750   44.7280 C   0  0  0  0  0  0  0  0  0  0  0  0
   45.2070   35.8970   43.4970 C   0  0  0  0  0  0  0  0  0  0  0  0
   46.0560   34.8540   43.2830 C   0  0  0  0  0  0  0  0  0  0  0  0
   46.1700   33.9670   44.3020 N   0  0  0  0  0  0  0  0  0  0  0  0
   45.5290   34.0350   45.4720 C   0  0  0  0  0  0  0  0  0  0  0  0
   44.6920   35.0620   45.6790 N   0  0  0  0  0  0  0  0  0  0  0  0
   42.6530   31.9300   38.0440 C   0  0  0  0  0  0  0  0  0  0  0  0
   41.8500   32.9330   38.6740 N   0  0  0  0  0  0  0  0  0  0  0  0
   42.3860   33.7480   39.6280 C   0  0  0  0  0  0  0  0  0  0  0  0
   41.6820   34.7390   40.2840 C   0  0  0  0  0  0  0  0  0  0  0  0
   42.2960   35.6010   41.3100 C   0  0  0  0  0  0  0  0  0  0  0  0
   40.3400   34.9380   39.9680 C   0  0  0  0  0  0  0  0  0  0  0  0
   39.6140   35.7990   40.4950 O   0  0  0  0  0  0  0  0  0  0  0  0
   39.8290   34.1340   39.0330 N   0  0  0  0  0  0  0  0  0  0  0  0
   40.5520   33.1800   38.4180 C   0  0  0  0  0  0  0  0  0  0  0  0
   39.9880   32.4680   37.5480 O   0  0  0  0  0  0  0  0  0  0  0  0
   47.8653   33.0567   37.5846 H   0  0  0  0  0  0  0  0  0  0  0  0
   46.7039   31.8168   35.7031 H   0  0  0  0  0  0  0  0  0  0  0  0
   44.2776   31.3497   36.0357 H   0  0  0  0  0  0  0  0  0  0  0  0
   48.5382   35.8106   42.7629 H   0  0  0  0  0  0  0  0  0  0  0  0
   49.6527   35.4981   40.5499 H   0  0  0  0  0  0  0  0  0  0  0  0
   48.5406   34.2837   38.6957 H   0  0  0  0  0  0  0  0  0  0  0  0
   43.8382   36.8146   44.9066 H   0  0  0  0  0  0  0  0  0  0  0  0
   45.0557   36.6642   42.7233 H   0  0  0  0  0  0  0  0  0  0  0  0
   45.6837   33.2684   46.2456 H   0  0  0  0  0  0  0  0  0  0  0  0
   42.2646   31.7727   37.0269 H   0  0  0  0  0  0  0  0  0  0  0  0
   42.5842   31.0380   38.6840 H   0  0  0  0  0  0  0  0  0  0  0  0
   43.4447   33.6071   39.8911 H   0  0  0  0  0  0  0  0  0  0  0  0
   42.0299   35.2275   42.3098 H   0  0  0  0  0  0  0  0  0  0  0  0
   43.3897   35.5883   41.1929 H   0  0  0  0  0  0  0  0  0  0  0  0
   41.9266   36.6305   41.1929 H   0  0  0  0  0  0  0  0  0  0  0  0
   38.8395   34.2486   38.7711 H   0  0  0  0  0  0  0  0  0  0  0  0
  1  6  1  0
  1 11  1  0
  2  1  2  0
  3  4  2  0
  3  2  1  0
  4  5  1  0
  5 19  1  0
  5  6  2  0
  7 15  1  0
  8  7  2  0
  9  8  1  0
 10 11  1  0
 10  9  2  0
 11 12  2  0
 12  7  1  0
 13 18  2  0
 14 13  1  0
 15 14  2  0
 15 16  1  0
 16 17  2  0
 17 18  1  0
 19 20  1  0
 20 21  1  0
 21 22  2  0
 22 23  1  0
 24 22  1  0
 24 25  2  0
 26 24  1  0
 27 20  1  0
 27 26  1  0
 28 27  2  0
  2 29  1  0
  3 30  1  0
  4 31  1  0
  8 32  1  0
  9 33  1  0
 10 34  1  0
 13 35  1  0
 14 36  1  0
 17 37  1  0
 19 38  1  0
 19 39  1  0
 21 40  1  0
 23 41  1  0
 23 42  1  0
 23 43  1  0
 26 44  1  0
M  ISO  8  29  14  30  14  31  14  32  14  33  14  34  14  35  14  36  14
M  ISO  8  37  14  38   8  39   8  40  14  41   8  42   8  43   8  44   9
M  END
>  <minimizedAffinity>  (1) 
-6.96399975

>  <minimizedRMSD>  (1) 
4.32869625

$$$$
