
     RDKit          3D

 41 44  0  0  0  0  0  0  0  0999 V2000
   45.9660   33.2540   38.8060 C   0  0  0  0  0  0  0  0  0  0  0  0
   46.5690   33.0870   37.5970 C   0  0  0  0  0  0  0  0  0  0  0  0
   45.9220   32.4430   36.5430 C   0  0  0  0  0  0  0  0  0  0  0  0
   44.6320   32.0040   36.8570 C   0  0  0  0  0  0  0  0  0  0  0  0
   43.9960   32.1570   38.0690 C   0  0  0  0  0  0  0  0  0  0  0  0
   44.7010   32.7990   39.0460 N   0  0  0  0  0  0  0  0  0  0  0  0
   46.7250   34.7250   42.0790 C   0  0  0  0  0  0  0  0  0  0  0  0
   48.0100   35.2160   41.9840 C   0  0  0  0  0  0  0  0  0  0  0  0
   48.6000   35.0210   40.7520 C   0  0  0  0  0  0  0  0  0  0  0  0
   47.9320   34.3770   39.7030 C   0  0  0  0  0  0  0  0  0  0  0  0
   46.6540   33.9160   39.8760 C   0  0  0  0  0  0  0  0  0  0  0  0
   46.1020   34.1170   41.0820 N   0  0  0  0  0  0  0  0  0  0  0  0
   44.4960   36.0040   44.7780 C   0  0  0  0  0  0  0  0  0  0  0  0
   45.1610   35.9290   43.5350 C   0  0  0  0  0  0  0  0  0  0  0  0
   46.0000   34.8740   43.3420 C   0  0  0  0  0  0  0  0  0  0  0  0
   46.1360   33.9670   44.3680 N   0  0  0  0  0  0  0  0  0  0  0  0
   45.4910   34.0660   45.5390 C   0  0  0  0  0  0  0  0  0  0  0  0
   44.6650   35.0940   45.7410 N   0  0  0  0  0  0  0  0  0  0  0  0
   42.6300   31.6450   38.2650 C   0  0  0  0  0  0  0  0  0  0  0  0
   41.6520   32.7490   38.2450 C   0  0  0  0  0  0  0  0  0  0  0  0
   42.0170   34.0840   38.4310 C   0  0  0  0  0  0  0  0  0  0  0  0
   41.0290   35.0620   38.3970 C   0  0  0  0  0  0  0  0  0  0  0  0
   39.7160   34.6830   38.1830 C   0  0  0  0  0  0  0  0  0  0  0  0
   39.3180   33.3540   37.9940 C   0  0  0  0  0  0  0  0  0  0  0  0
   40.3280   32.4250   38.0350 C   0  0  0  0  0  0  0  0  0  0  0  0
   47.5898   33.4688   37.4482 H   0  0  0  0  0  0  0  0  0  0  0  0
   46.3837   32.2941   35.5557 H   0  0  0  0  0  0  0  0  0  0  0  0
   44.0732   31.4885   36.0620 H   0  0  0  0  0  0  0  0  0  0  0  0
   48.5205   35.7195   42.8181 H   0  0  0  0  0  0  0  0  0  0  0  0
   49.6261   35.3823   40.5888 H   0  0  0  0  0  0  0  0  0  0  0  0
   48.4364   34.2407   38.7350 H   0  0  0  0  0  0  0  0  0  0  0  0
   43.8114   36.8454   44.9607 H   0  0  0  0  0  0  0  0  0  0  0  0
   45.0080   36.6902   42.7558 H   0  0  0  0  0  0  0  0  0  0  0  0
   45.6409   33.3094   46.3232 H   0  0  0  0  0  0  0  0  0  0  0  0
   42.3909   30.9360   37.4587 H   0  0  0  0  0  0  0  0  0  0  0  0
   42.5771   31.1431   39.2424 H   0  0  0  0  0  0  0  0  0  0  0  0
   43.0687   34.3575   38.6016 H   0  0  0  0  0  0  0  0  0  0  0  0
   41.2879   36.1217   38.5382 H   0  0  0  0  0  0  0  0  0  0  0  0
   38.9443   35.4666   38.1601 H   0  0  0  0  0  0  0  0  0  0  0  0
   38.2680   33.0734   37.8243 H   0  0  0  0  0  0  0  0  0  0  0  0
   40.0673   31.3658   37.8928 H   0  0  0  0  0  0  0  0  0  0  0  0
  1  6  1  0
  1 11  1  0
  2  1  2  0
  3  4  2  0
  3  2  1  0
  4  5  1  0
  5 19  1  0
  5  6  2  0
  7 15  1  0
  8  7  2  0
  9  8  1  0
 10 11  1  0
 10  9  2  0
 11 12  2  0
 12  7  1  0
 13 18  2  0
 14 13  1  0
 15 14  2  0
 15 16  1  0
 16 17  2  0
 17 18  1  0
 20 19  1  0
 20 21  2  0
 22 21  1  0
 23 22  2  0
 24 25  2  0
 24 23  1  0
 25 20  1  0
  2 26  1  0
  3 27  1  0
  4 28  1  0
  8 29  1  0
  9 30  1  0
 10 31  1  0
 13 32  1  0
 14 33  1  0
 17 34  1  0
 19 35  1  0
 19 36  1  0
 21 37  1  0
 22 38  1  0
 23 39  1  0
 24 40  1  0
 25 41  1  0
M  ISO  8  26  14  27  14  28  14  29  14  30  14  31  14  32  14  33  14
M  ISO  8  34  14  35   8  36   8  37  14  38  14  39  14  40  14  41  14
M  END
>  <minimizedAffinity>  (1) 
-6.7449255

>  <minimizedRMSD>  (1) 
0.815835476

$$$$
