
     RDKit          3D

 38 41  0  0  0  0  0  0  0  0999 V2000
   46.6590   34.6860   42.1440 C   0  0  0  0  0  0  0  0  0  0  0  0
   47.9350   35.1780   42.0280 C   0  0  0  0  0  0  0  0  0  0  0  0
   48.5030   34.9830   40.7930 C   0  0  0  0  0  0  0  0  0  0  0  0
   47.8310   34.3380   39.7490 C   0  0  0  0  0  0  0  0  0  0  0  0
   46.5540   33.8720   39.9440 C   0  0  0  0  0  0  0  0  0  0  0  0
   46.0110   34.0730   41.1660 N   0  0  0  0  0  0  0  0  0  0  0  0
   44.4690   35.9660   44.8710 C   0  0  0  0  0  0  0  0  0  0  0  0
   45.1140   35.8840   43.6210 C   0  0  0  0  0  0  0  0  0  0  0  0
   45.9570   34.8350   43.4170 C   0  0  0  0  0  0  0  0  0  0  0  0
   46.1060   33.9390   44.4510 N   0  0  0  0  0  0  0  0  0  0  0  0
   45.4830   34.0370   45.6270 C   0  0  0  0  0  0  0  0  0  0  0  0
   44.6540   35.0680   45.8360 N   0  0  0  0  0  0  0  0  0  0  0  0
   45.8480   33.2020   38.8880 C   0  0  0  0  0  0  0  0  0  0  0  0
   46.5170   32.7140   37.8100 C   0  0  0  0  0  0  0  0  0  0  0  0
   45.8580   32.0520   36.7790 C   0  0  0  0  0  0  0  0  0  0  0  0
   44.4770   31.9500   36.9720 C   0  0  0  0  0  0  0  0  0  0  0  0
   43.7680   32.4330   38.0500 C   0  0  0  0  0  0  0  0  0  0  0  0
   44.4940   33.0710   39.0190 N   0  0  0  0  0  0  0  0  0  0  0  0
   42.3160   32.2510   38.1280 C   0  0  0  0  0  0  0  0  0  0  0  0
   41.7000   33.4420   38.8040 C   0  0  0  0  0  0  0  0  0  0  0  0
   41.3620   34.6360   38.2070 C   0  0  0  0  0  0  0  0  0  0  0  0
   40.8240   35.4440   39.2140 C   0  0  0  0  0  0  0  0  0  0  0  0
   40.8710   34.6720   40.3810 C   0  0  0  0  0  0  0  0  0  0  0  0
   41.3980   33.5010   40.0750 O   0  0  0  0  0  0  0  0  0  0  0  0
   48.4575   35.6846   42.8528 H   0  0  0  0  0  0  0  0  0  0  0  0
   49.5258   35.3480   40.6178 H   0  0  0  0  0  0  0  0  0  0  0  0
   48.3241   34.2045   38.7748 H   0  0  0  0  0  0  0  0  0  0  0  0
   43.7844   36.8067   45.0571 H   0  0  0  0  0  0  0  0  0  0  0  0
   44.9428   36.6391   42.8396 H   0  0  0  0  0  0  0  0  0  0  0  0
   45.6475   33.2837   46.4115 H   0  0  0  0  0  0  0  0  0  0  0  0
   47.6075   32.8459   37.7513 H   0  0  0  0  0  0  0  0  0  0  0  0
   46.3743   31.6473   35.8960 H   0  0  0  0  0  0  0  0  0  0  0  0
   43.9018   31.4350   36.1885 H   0  0  0  0  0  0  0  0  0  0  0  0
   41.9036   32.1509   37.1132 H   0  0  0  0  0  0  0  0  0  0  0  0
   42.0899   31.3427   38.7058 H   0  0  0  0  0  0  0  0  0  0  0  0
   41.4899   34.9019   37.1473 H   0  0  0  0  0  0  0  0  0  0  0  0
   40.4436   36.4710   39.1107 H   0  0  0  0  0  0  0  0  0  0  0  0
   40.5288   34.9861   41.3781 H   0  0  0  0  0  0  0  0  0  0  0  0
  1  9  1  0
  2  1  2  0
  3  2  1  0
  4  5  1  0
  4  3  2  0
  5  6  2  0
  6  1  1  0
  7 12  2  0
  8  7  1  0
  9  8  2  0
  9 10  1  0
 10 11  2  0
 11 12  1  0
 13 18  1  0
 13  5  1  0
 14 13  2  0
 15 16  2  0
 15 14  1  0
 16 17  1  0
 17 19  1  0
 17 18  2  0
 19 20  1  0
 20 24  1  0
 21 20  2  0
 21 22  1  0
 22 23  2  0
 24 23  1  0
  2 25  1  0
  3 26  1  0
  4 27  1  0
  7 28  1  0
  8 29  1  0
 11 30  1  0
 14 31  1  0
 15 32  1  0
 16 33  1  0
 19 34  1  0
 19 35  1  0
 21 36  1  0
 22 37  1  0
 23 38  1  0
M  ISO  8  25  14  26  14  27  14  28  14  29  14  30  14  31  14  32  14
M  ISO  6  33  14  34   8  35   8  36  14  37  14  38  14
M  END
>  <minimizedAffinity>  (1) 
-6.21212482

>  <minimizedRMSD>  (1) 
3.20049381

$$$$
