
     RDKit          3D

 38 41  0  0  0  0  0  0  0  0999 V2000
   45.8770   33.2060   38.8880 C   0  0  0  0  0  0  0  0  0  0  0  0
   46.5280   32.8680   37.7340 C   0  0  0  0  0  0  0  0  0  0  0  0
   45.8700   32.2020   36.7030 C   0  0  0  0  0  0  0  0  0  0  0  0
   44.5310   31.9320   36.9700 C   0  0  0  0  0  0  0  0  0  0  0  0
   43.8410   32.2600   38.1270 C   0  0  0  0  0  0  0  0  0  0  0  0
   44.5600   32.9120   39.0890 N   0  0  0  0  0  0  0  0  0  0  0  0
   46.6740   34.6920   42.1530 C   0  0  0  0  0  0  0  0  0  0  0  0
   47.9570   35.1850   42.0340 C   0  0  0  0  0  0  0  0  0  0  0  0
   48.5260   34.9900   40.7970 C   0  0  0  0  0  0  0  0  0  0  0  0
   47.8570   34.3430   39.7480 C   0  0  0  0  0  0  0  0  0  0  0  0
   46.5750   33.8790   39.9490 C   0  0  0  0  0  0  0  0  0  0  0  0
   46.0320   34.0780   41.1660 N   0  0  0  0  0  0  0  0  0  0  0  0
   44.4700   35.9590   44.8620 C   0  0  0  0  0  0  0  0  0  0  0  0
   45.1180   35.8830   43.6130 C   0  0  0  0  0  0  0  0  0  0  0  0
   45.9660   34.8370   43.4220 C   0  0  0  0  0  0  0  0  0  0  0  0
   46.1260   33.9380   44.4500 N   0  0  0  0  0  0  0  0  0  0  0  0
   45.4900   34.0390   45.6300 C   0  0  0  0  0  0  0  0  0  0  0  0
   44.6560   35.0610   45.8320 N   0  0  0  0  0  0  0  0  0  0  0  0
   42.4360   31.9010   38.2770 C   0  0  0  0  0  0  0  0  0  0  0  0
   41.5140   33.0820   38.2350 C   0  0  0  0  0  0  0  0  0  0  0  0
   40.1330   32.9120   38.0800 C   0  0  0  0  0  0  0  0  0  0  0  0
   39.6180   34.2030   38.0860 C   0  0  0  0  0  0  0  0  0  0  0  0
   40.6480   35.0610   38.2370 N   0  0  0  0  0  0  0  0  0  0  0  0
   41.7900   34.3960   38.3280 N   0  0  0  0  0  0  0  0  0  0  0  0
   47.5908   33.1269   37.6179 H   0  0  0  0  0  0  0  0  0  0  0  0
   46.3638   31.9153   35.7628 H   0  0  0  0  0  0  0  0  0  0  0  0
   43.9648   31.4071   36.1865 H   0  0  0  0  0  0  0  0  0  0  0  0
   48.4805   35.6911   42.8585 H   0  0  0  0  0  0  0  0  0  0  0  0
   49.5484   35.3568   40.6234 H   0  0  0  0  0  0  0  0  0  0  0  0
   48.3506   34.2072   38.7744 H   0  0  0  0  0  0  0  0  0  0  0  0
   43.7800   36.7957   45.0459 H   0  0  0  0  0  0  0  0  0  0  0  0
   44.9459   36.6349   42.8288 H   0  0  0  0  0  0  0  0  0  0  0  0
   45.6548   33.2896   46.4182 H   0  0  0  0  0  0  0  0  0  0  0  0
   42.1620   31.2152   37.4618 H   0  0  0  0  0  0  0  0  0  0  0  0
   42.3230   31.4348   39.2669 H   0  0  0  0  0  0  0  0  0  0  0  0
   39.5790   31.9673   37.9765 H   0  0  0  0  0  0  0  0  0  0  0  0
   38.5574   34.4768   37.9854 H   0  0  0  0  0  0  0  0  0  0  0  0
   40.5592   36.0864   38.2760 H   0  0  0  0  0  0  0  0  0  0  0  0
  1  6  1  0
  1 11  1  0
  2  1  2  0
  3  4  2  0
  3  2  1  0
  4  5  1  0
  5 19  1  0
  5  6  2  0
  7 15  1  0
  8  7  2  0
  9  8  1  0
 10 11  1  0
 10  9  2  0
 11 12  2  0
 12  7  1  0
 13 18  2  0
 14 13  1  0
 15 14  2  0
 15 16  1  0
 16 17  2  0
 17 18  1  0
 20 19  1  0
 20 24  2  0
 21 22  2  0
 21 20  1  0
 22 23  1  0
 23 24  1  0
  2 25  1  0
  3 26  1  0
  4 27  1  0
  8 28  1  0
  9 29  1  0
 10 30  1  0
 13 31  1  0
 14 32  1  0
 17 33  1  0
 19 34  1  0
 19 35  1  0
 21 36  1  0
 22 37  1  0
 23 38  1  0
M  ISO  8  25  14  26  14  27  14  28  14  29  14  30  14  31  14  32  14
M  ISO  6  33  14  34   8  35   8  36  14  37  14  38   9
M  END
>  <minimizedAffinity>  (1) 
-6.15613842

>  <minimizedRMSD>  (1) 
0.977753937

$$$$
