
     RDKit          3D

 44 47  0  0  0  0  0  0  0  0999 V2000
   46.6320   34.6630   42.1620 C   0  0  0  0  0  0  0  0  0  0  0  0
   47.9120   35.1530   42.0220 C   0  0  0  0  0  0  0  0  0  0  0  0
   48.4710   34.9460   40.7880 C   0  0  0  0  0  0  0  0  0  0  0  0
   47.7920   34.2890   39.7550 C   0  0  0  0  0  0  0  0  0  0  0  0
   46.5140   33.8250   39.9660 C   0  0  0  0  0  0  0  0  0  0  0  0
   45.9810   34.0390   41.1850 N   0  0  0  0  0  0  0  0  0  0  0  0
   44.4730   35.9780   44.8890 C   0  0  0  0  0  0  0  0  0  0  0  0
   45.1070   35.8830   43.6380 C   0  0  0  0  0  0  0  0  0  0  0  0
   45.9400   34.8270   43.4330 C   0  0  0  0  0  0  0  0  0  0  0  0
   46.0990   33.9320   44.4610 N   0  0  0  0  0  0  0  0  0  0  0  0
   45.4790   34.0470   45.6510 C   0  0  0  0  0  0  0  0  0  0  0  0
   44.6600   35.0820   45.8560 N   0  0  0  0  0  0  0  0  0  0  0  0
   45.8050   33.1440   38.9130 C   0  0  0  0  0  0  0  0  0  0  0  0
   46.4880   32.5340   37.9060 C   0  0  0  0  0  0  0  0  0  0  0  0
   45.8050   31.8660   36.8840 C   0  0  0  0  0  0  0  0  0  0  0  0
   44.4310   31.8960   37.0090 C   0  0  0  0  0  0  0  0  0  0  0  0
   43.6970   32.5130   38.0290 C   0  0  0  0  0  0  0  0  0  0  0  0
   44.4410   33.1380   38.9810 N   0  0  0  0  0  0  0  0  0  0  0  0
   42.2390   32.4560   38.0390 C   0  0  0  0  0  0  0  0  0  0  0  0
   41.7240   33.2570   39.1140 N   0  0  0  0  0  0  0  0  0  0  0  0
   40.6970   32.6650   39.9020 C   0  0  0  0  0  0  0  0  0  0  0  0
   39.3230   32.8890   39.3430 C   0  0  0  0  0  0  0  0  0  0  0  0
   39.3960   33.2280   37.9970 O   0  0  0  0  0  0  0  0  0  0  0  0
   40.0920   34.3950   37.7840 C   0  0  0  0  0  0  0  0  0  0  0  0
   41.2700   34.5660   38.7060 C   0  0  0  0  0  0  0  0  0  0  0  0
   48.4428   35.6691   42.8356 H   0  0  0  0  0  0  0  0  0  0  0  0
   49.4922   35.3100   40.6021 H   0  0  0  0  0  0  0  0  0  0  0  0
   48.2781   34.1443   38.7789 H   0  0  0  0  0  0  0  0  0  0  0  0
   43.7965   36.8249   45.0762 H   0  0  0  0  0  0  0  0  0  0  0  0
   44.9359   36.6349   42.8535 H   0  0  0  0  0  0  0  0  0  0  0  0
   45.6445   33.3003   46.4416 H   0  0  0  0  0  0  0  0  0  0  0  0
   47.5875   32.5666   37.8957 H   0  0  0  0  0  0  0  0  0  0  0  0
   46.3187   31.3607   36.0529 H   0  0  0  0  0  0  0  0  0  0  0  0
   43.8530   31.3822   36.2267 H   0  0  0  0  0  0  0  0  0  0  0  0
   41.8528   32.8381   37.0825 H   0  0  0  0  0  0  0  0  0  0  0  0
   41.9192   31.4130   38.1802 H   0  0  0  0  0  0  0  0  0  0  0  0
   40.8796   31.5817   39.9585 H   0  0  0  0  0  0  0  0  0  0  0  0
   40.7292   33.1405   40.8934 H   0  0  0  0  0  0  0  0  0  0  0  0
   38.7325   31.9675   39.4530 H   0  0  0  0  0  0  0  0  0  0  0  0
   38.8445   33.7130   39.8927 H   0  0  0  0  0  0  0  0  0  0  0  0
   40.4579   34.3983   36.7466 H   0  0  0  0  0  0  0  0  0  0  0  0
   39.4002   35.2265   37.9838 H   0  0  0  0  0  0  0  0  0  0  0  0
   42.0799   35.0928   38.1801 H   0  0  0  0  0  0  0  0  0  0  0  0
   40.9775   35.1560   39.5871 H   0  0  0  0  0  0  0  0  0  0  0  0
  1  9  1  0
  2  1  2  0
  3  2  1  0
  4  5  1  0
  4  3  2  0
  5  6  2  0
  6  1  1  0
  7 12  2  0
  8  7  1  0
  9  8  2  0
  9 10  1  0
 10 11  2  0
 11 12  1  0
 13 18  1  0
 13  5  1  0
 14 13  2  0
 15 16  2  0
 15 14  1  0
 16 17  1  0
 17 19  1  0
 17 18  2  0
 19 20  1  0
 20 21  1  0
 22 21  1  0
 23 22  1  0
 24 23  1  0
 24 25  1  0
 25 20  1  0
  2 26  1  0
  3 27  1  0
  4 28  1  0
  7 29  1  0
  8 30  1  0
 11 31  1  0
 14 32  1  0
 15 33  1  0
 16 34  1  0
 19 35  1  0
 19 36  1  0
 21 37  1  0
 21 38  1  0
 22 39  1  0
 22 40  1  0
 24 41  1  0
 24 42  1  0
 25 43  1  0
 25 44  1  0
M  ISO  8  26  14  27  14  28  14  29  14  30  14  31  14  32  14  33  14
M  ISO  8  34  14  35   8  36   8  37  13  38  13  39  13  40  13  41  13
M  ISO  3  42  13  43  13  44  13
M  END
>  <minimizedAffinity>  (1) 
-6.08806849

>  <minimizedRMSD>  (1) 
2.93955064

$$$$
