
     RDKit          3D

 36 39  0  0  0  0  0  0  0  0999 V2000
   46.6470   34.6890   42.1500 C   0  0  0  0  0  0  0  0  0  0  0  0
   47.9350   35.1820   42.0270 C   0  0  0  0  0  0  0  0  0  0  0  0
   48.5070   34.9830   40.7930 C   0  0  0  0  0  0  0  0  0  0  0  0
   47.8370   34.3340   39.7500 C   0  0  0  0  0  0  0  0  0  0  0  0
   46.5610   33.8710   39.9420 C   0  0  0  0  0  0  0  0  0  0  0  0
   46.0110   34.0750   41.1620 N   0  0  0  0  0  0  0  0  0  0  0  0
   44.4690   35.9770   44.8760 C   0  0  0  0  0  0  0  0  0  0  0  0
   45.1120   35.8940   43.6270 C   0  0  0  0  0  0  0  0  0  0  0  0
   45.9480   34.8440   43.4120 C   0  0  0  0  0  0  0  0  0  0  0  0
   46.1010   33.9420   44.4400 N   0  0  0  0  0  0  0  0  0  0  0  0
   45.4790   34.0440   45.6210 C   0  0  0  0  0  0  0  0  0  0  0  0
   44.6520   35.0770   45.8380 N   0  0  0  0  0  0  0  0  0  0  0  0
   45.8520   33.2000   38.8880 C   0  0  0  0  0  0  0  0  0  0  0  0
   46.5240   32.7190   37.8020 C   0  0  0  0  0  0  0  0  0  0  0  0
   45.8600   32.0650   36.7730 C   0  0  0  0  0  0  0  0  0  0  0  0
   44.4910   31.9560   36.9610 C   0  0  0  0  0  0  0  0  0  0  0  0
   43.7680   32.4320   38.0530 C   0  0  0  0  0  0  0  0  0  0  0  0
   44.4990   33.0630   39.0180 N   0  0  0  0  0  0  0  0  0  0  0  0
   42.3210   32.2510   38.1280 C   0  0  0  0  0  0  0  0  0  0  0  0
   41.7100   33.4860   38.6910 C   0  0  0  0  0  0  0  0  0  0  0  0
   41.2080   33.5420   39.9520 N   0  0  0  0  0  0  0  0  0  0  0  0
   40.7420   34.7570   40.1580 O   0  0  0  0  0  0  0  0  0  0  0  0
   40.9210   35.4940   39.0820 C   0  0  0  0  0  0  0  0  0  0  0  0
   41.5280   34.7010   38.1590 N   0  0  0  0  0  0  0  0  0  0  0  0
   48.4580   35.6914   42.8498 H   0  0  0  0  0  0  0  0  0  0  0  0
   49.5301   35.3477   40.6189 H   0  0  0  0  0  0  0  0  0  0  0  0
   48.3331   34.1956   38.7780 H   0  0  0  0  0  0  0  0  0  0  0  0
   43.7878   36.8199   45.0642 H   0  0  0  0  0  0  0  0  0  0  0  0
   44.9435   36.6541   42.8499 H   0  0  0  0  0  0  0  0  0  0  0  0
   45.6443   33.2894   46.4041 H   0  0  0  0  0  0  0  0  0  0  0  0
   47.6142   32.8522   37.7407 H   0  0  0  0  0  0  0  0  0  0  0  0
   46.3753   31.6680   35.8860 H   0  0  0  0  0  0  0  0  0  0  0  0
   43.9202   31.4444   36.1720 H   0  0  0  0  0  0  0  0  0  0  0  0
   41.9192   32.0661   37.1209 H   0  0  0  0  0  0  0  0  0  0  0  0
   42.0855   31.3911   38.7724 H   0  0  0  0  0  0  0  0  0  0  0  0
   40.6347   36.5484   38.9541 H   0  0  0  0  0  0  0  0  0  0  0  0
  1  9  1  0
  2  1  2  0
  3  2  1  0
  4  5  1  0
  4  3  2  0
  5  6  2  0
  6  1  1  0
  7 12  2  0
  8  7  1  0
  9  8  2  0
  9 10  1  0
 10 11  2  0
 11 12  1  0
 13 18  1  0
 13  5  1  0
 14 13  2  0
 15 16  2  0
 15 14  1  0
 16 17  1  0
 17 19  1  0
 17 18  2  0
 19 20  1  0
 20 21  2  0
 21 22  1  0
 23 22  1  0
 24 20  1  0
 24 23  2  0
  2 25  1  0
  3 26  1  0
  4 27  1  0
  7 28  1  0
  8 29  1  0
 11 30  1  0
 14 31  1  0
 15 32  1  0
 16 33  1  0
 19 34  1  0
 19 35  1  0
 23 36  1  0
M  ISO  8  25  14  26  14  27  14  28  14  29  14  30  14  31  14  32  14
M  ISO  4  33  14  34   8  35   8  36  14
M  END
>  <minimizedAffinity>  (1) 
-6.06959438

>  <minimizedRMSD>  (1) 
3.23007703

$$$$
