
     RDKit          3D

 38 41  0  0  0  0  0  0  0  0999 V2000
   46.6770   34.6900   42.1440 C   0  0  0  0  0  0  0  0  0  0  0  0
   47.9480   35.2210   42.0130 C   0  0  0  0  0  0  0  0  0  0  0  0
   48.5190   35.0240   40.7830 C   0  0  0  0  0  0  0  0  0  0  0  0
   47.8730   34.3430   39.7450 C   0  0  0  0  0  0  0  0  0  0  0  0
   46.6120   33.8450   39.9520 C   0  0  0  0  0  0  0  0  0  0  0  0
   46.0580   34.0440   41.1670 N   0  0  0  0  0  0  0  0  0  0  0  0
   44.4700   35.9730   44.8520 C   0  0  0  0  0  0  0  0  0  0  0  0
   45.1280   35.8780   43.6140 C   0  0  0  0  0  0  0  0  0  0  0  0
   45.9750   34.8350   43.3990 C   0  0  0  0  0  0  0  0  0  0  0  0
   46.1100   33.9610   44.4270 N   0  0  0  0  0  0  0  0  0  0  0  0
   45.4870   34.0460   45.6090 C   0  0  0  0  0  0  0  0  0  0  0  0
   44.6580   35.0670   45.8180 N   0  0  0  0  0  0  0  0  0  0  0  0
   45.9270   33.1380   38.8920 C   0  0  0  0  0  0  0  0  0  0  0  0
   46.6290   32.5630   37.8770 C   0  0  0  0  0  0  0  0  0  0  0  0
   45.9750   31.8840   36.8510 C   0  0  0  0  0  0  0  0  0  0  0  0
   44.5940   31.8670   36.9830 C   0  0  0  0  0  0  0  0  0  0  0  0
   43.8490   32.4360   37.9910 C   0  0  0  0  0  0  0  0  0  0  0  0
   44.5680   33.0760   38.9470 N   0  0  0  0  0  0  0  0  0  0  0  0
   42.3960   32.3170   37.9800 C   0  0  0  0  0  0  0  0  0  0  0  0
   41.7300   33.4290   38.7190 C   0  0  0  0  0  0  0  0  0  0  0  0
   40.4140   33.8790   38.0540 C   0  0  0  0  0  0  0  0  0  0  0  0
   40.4290   33.2500   39.4120 C   0  0  0  0  0  0  0  0  0  0  0  0
   48.4573   35.7564   42.8279 H   0  0  0  0  0  0  0  0  0  0  0  0
   49.5300   35.4186   40.6036 H   0  0  0  0  0  0  0  0  0  0  0  0
   48.3713   34.2086   38.7736 H   0  0  0  0  0  0  0  0  0  0  0  0
   43.7832   36.8134   45.0312 H   0  0  0  0  0  0  0  0  0  0  0  0
   44.9612   36.6337   42.8323 H   0  0  0  0  0  0  0  0  0  0  0  0
   45.6561   33.2897   46.3897 H   0  0  0  0  0  0  0  0  0  0  0  0
   47.7266   32.6354   37.8668 H   0  0  0  0  0  0  0  0  0  0  0  0
   46.5046   31.4057   36.0139 H   0  0  0  0  0  0  0  0  0  0  0  0
   44.0331   31.3414   36.1962 H   0  0  0  0  0  0  0  0  0  0  0  0
   42.0483   32.3279   36.9365 H   0  0  0  0  0  0  0  0  0  0  0  0
   42.1323   31.3745   38.4821 H   0  0  0  0  0  0  0  0  0  0  0  0
   42.6844   33.8558   39.0610 H   0  0  0  0  0  0  0  0  0  0  0  0
   40.1877   34.9496   37.9417 H   0  0  0  0  0  0  0  0  0  0  0  0
   39.9061   33.6774   37.0994 H   0  0  0  0  0  0  0  0  0  0  0  0
   40.0196   32.2380   39.5469 H   0  0  0  0  0  0  0  0  0  0  0  0
   40.0403   33.5484   40.3968 H   0  0  0  0  0  0  0  0  0  0  0  0
  1  9  1  0
  2  1  2  0
  3  2  1  0
  4  5  1  0
  4  3  2  0
  5  6  2  0
  6  1  1  0
  7 12  2  0
  8  7  1  0
  9  8  2  0
  9 10  1  0
 10 11  2  0
 11 12  1  0
 13 18  1  0
 13  5  1  0
 14 13  2  0
 15 16  2  0
 15 14  1  0
 16 17  1  0
 17 18  2  0
 19 17  1  0
 19 20  1  0
 20 22  1  0
 21 20  1  0
 21 22  1  0
  2 23  1  0
  3 24  1  0
  4 25  1  0
  7 26  1  0
  8 27  1  0
 11 28  1  0
 14 29  1  0
 15 30  1  0
 16 31  1  0
 19 32  1  0
 19 33  1  0
 20 34  1  0
 21 35  1  0
 21 36  1  0
 22 37  1  0
 22 38  1  0
M  ISO  8  23  14  24  14  25  14  26  14  27  14  28  14  29  14  30  14
M  ISO  8  31  14  32   8  33   8  34  13  35  13  36  13  37  13  38  13
M  END
>  <minimizedAffinity>  (1) 
-5.72023678

>  <minimizedRMSD>  (1) 
1.5935396

$$$$
