
     RDKit          3D

 13 13  0  0  0  0  0  0  0  0999 V2000
   44.5400   35.9720   44.5610 C   0  0  0  0  0  0  0  0  0  0  0  0
   45.2390   35.8570   43.3370 C   0  0  0  0  0  0  0  0  0  0  0  0
   46.1280   34.7800   43.2250 C   0  0  0  0  0  0  0  0  0  0  0  0
   46.2650   33.9290   44.2760 N   0  0  0  0  0  0  0  0  0  0  0  0
   45.5760   34.0790   45.4250 C   0  0  0  0  0  0  0  0  0  0  0  0
   44.7170   35.0980   45.5660 N   0  0  0  0  0  0  0  0  0  0  0  0
   45.8790   33.0400   46.4330 C   0  0  0  0  0  0  0  0  0  0  0  0
   47.1300   33.1350   46.9800 F   0  0  0  0  0  0  0  0  0  0  0  0
   45.6440   31.7980   45.8600 F   0  0  0  0  0  0  0  0  0  0  0  0
   44.9630   33.1700   47.4670 F   0  0  0  0  0  0  0  0  0  0  0  0
   43.8302   36.8017   44.6942 H   0  0  0  0  0  0  0  0  0  0  0  0
   45.0925   36.5749   42.5166 H   0  0  0  0  0  0  0  0  0  0  0  0
   46.7056   34.6256   42.3017 H   0  0  0  0  0  0  0  0  0  0  0  0
  1  6  2  0
  2  1  1  0
  3  2  2  0
  3  4  1  0
  4  5  2  0
  5  6  1  0
  5  7  1  0
  7  8  1  0
  7 10  1  0
  9  7  1  0
  1 11  1  0
  2 12  1  0
  3 13  1  0
M  ISO  3  11  14  12  14  13  14
M  END
>  <minimizedAffinity>  (1) 
-3.84977412

>  <minimizedRMSD>  (1) 
0.313231051

$$$$
