
     RDKit          3D

 33 35  0  0  0  0  0  0  0  0999 V2000
   46.8370   34.7590   42.0220 C   0  0  0  0  0  0  0  0  0  0  0  0
   48.0760   35.3380   41.9280 C   0  0  0  0  0  0  0  0  0  0  0  0
   48.6900   35.1770   40.7070 C   0  0  0  0  0  0  0  0  0  0  0  0
   48.0880   34.4780   39.6530 C   0  0  0  0  0  0  0  0  0  0  0  0
   46.8470   33.9270   39.8190 C   0  0  0  0  0  0  0  0  0  0  0  0
   46.2640   34.0950   41.0180 N   0  0  0  0  0  0  0  0  0  0  0  0
   44.5080   35.9230   44.6930 C   0  0  0  0  0  0  0  0  0  0  0  0
   45.2050   35.8790   43.4650 C   0  0  0  0  0  0  0  0  0  0  0  0
   46.0850   34.8610   43.2730 C   0  0  0  0  0  0  0  0  0  0  0  0
   46.2410   33.9400   44.2840 N   0  0  0  0  0  0  0  0  0  0  0  0
   45.5680   34.0100   45.4330 C   0  0  0  0  0  0  0  0  0  0  0  0
   44.6940   35.0070   45.6410 N   0  0  0  0  0  0  0  0  0  0  0  0
   46.2210   33.2040   38.7470 C   0  0  0  0  0  0  0  0  0  0  0  0
   46.7200   33.2900   37.4760 C   0  0  0  0  0  0  0  0  0  0  0  0
   46.1310   32.5910   36.4320 C   0  0  0  0  0  0  0  0  0  0  0  0
   45.0350   31.8300   36.7910 C   0  0  0  0  0  0  0  0  0  0  0  0
   44.4990   31.7200   38.0720 C   0  0  0  0  0  0  0  0  0  0  0  0
   45.1360   32.4380   39.0430 N   0  0  0  0  0  0  0  0  0  0  0  0
   43.3250   30.8800   38.3380 C   0  0  0  0  0  0  0  0  0  0  0  0
   43.8060   29.5520   38.7080 N   0  0  0  0  0  0  0  0  0  0  0  0
   48.5413   35.8864   42.7604 H   0  0  0  0  0  0  0  0  0  0  0  0
   49.6884   35.6124   40.5534 H   0  0  0  0  0  0  0  0  0  0  0  0
   48.6130   34.3722   38.6922 H   0  0  0  0  0  0  0  0  0  0  0  0
   43.7908   36.7378   44.8711 H   0  0  0  0  0  0  0  0  0  0  0  0
   45.0411   36.6427   42.6904 H   0  0  0  0  0  0  0  0  0  0  0  0
   45.7294   33.2496   46.2113 H   0  0  0  0  0  0  0  0  0  0  0  0
   47.5991   33.9212   37.2793 H   0  0  0  0  0  0  0  0  0  0  0  0
   46.5072   32.6390   35.3994 H   0  0  0  0  0  0  0  0  0  0  0  0
   44.5403   31.2585   35.9918 H   0  0  0  0  0  0  0  0  0  0  0  0
   42.7363   31.3087   39.1624 H   0  0  0  0  0  0  0  0  0  0  0  0
   42.6814   30.8232   37.4478 H   0  0  0  0  0  0  0  0  0  0  0  0
   43.8353   29.4711   39.7344 H   0  0  0  0  0  0  0  0  0  0  0  0
   43.1703   28.8376   38.3253 H   0  0  0  0  0  0  0  0  0  0  0  0
  1  9  1  0
  2  1  2  0
  3  2  1  0
  4  5  1  0
  4  3  2  0
  5  6  2  0
  6  1  1  0
  7 12  2  0
  8  7  1  0
  9  8  2  0
  9 10  1  0
 10 11  2  0
 11 12  1  0
 13 18  1  0
 13  5  1  0
 14 13  2  0
 15 16  2  0
 15 14  1  0
 16 17  1  0
 17 19  1  0
 17 18  2  0
 19 20  1  0
  2 21  1  0
  3 22  1  0
  4 23  1  0
  7 24  1  0
  8 25  1  0
 11 26  1  0
 14 27  1  0
 15 28  1  0
 16 29  1  0
 19 30  1  0
 19 31  1  0
 20 32  1  0
 20 33  1  0
M  ISO  8  21  14  22  14  23  14  24  14  25  14  26  14  27  14  28  14
M  ISO  5  29  14  30   8  31   8  32   5  33   5
M  END
>  <minimizedAffinity>  (1) 
-5.26521254

>  <minimizedRMSD>  (1) 
0.0243413374

$$$$
