
     RDKit          3D

 36 38  0  0  0  0  0  0  0  0999 V2000
   44.5800   36.0490   44.0280 C   0  0  0  0  0  0  0  0  0  0  0  0
   45.1900   35.7590   42.7830 C   0  0  0  0  0  0  0  0  0  0  0  0
   46.0340   34.6210   42.7000 C   0  0  0  0  0  0  0  0  0  0  0  0
   46.2060   33.8760   43.8280 N   0  0  0  0  0  0  0  0  0  0  0  0
   45.6120   34.1800   44.9890 C   0  0  0  0  0  0  0  0  0  0  0  0
   44.8040   35.2560   45.0970 N   0  0  0  0  0  0  0  0  0  0  0  0
   45.8600   33.3280   46.1230 N   0  0  0  0  0  0  0  0  0  0  0  0
   46.7900   32.3600   45.9560 C   0  0  0  0  0  0  0  0  0  0  0  0
   47.0400   31.5300   47.0370 C   0  0  0  0  0  0  0  0  0  0  0  0
   48.0330   30.4220   47.0080 C   0  0  0  0  0  0  0  0  0  0  0  0
   46.3060   31.7860   48.1770 C   0  0  0  0  0  0  0  0  0  0  0  0
   46.5260   31.0290   49.1820 O   0  0  0  0  0  0  0  0  0  0  0  0
   45.3790   32.7430   48.3570 N   0  0  0  0  0  0  0  0  0  0  0  0
   45.1790   33.5190   47.2680 C   0  0  0  0  0  0  0  0  0  0  0  0
   44.3200   34.4580   47.3340 O   0  0  0  0  0  0  0  0  0  0  0  0
   46.6170   34.3760   41.4390 N   0  0  0  0  0  0  0  0  0  0  0  0
   46.0660   33.6930   40.4230 C   0  0  0  0  0  0  0  0  0  0  0  0
   46.7350   33.5140   39.2240 C   0  0  0  0  0  0  0  0  0  0  0  0
   47.9890   34.0840   39.1570 C   0  0  0  0  0  0  0  0  0  0  0  0
   48.6340   33.9420   38.0730 O   0  0  0  0  0  0  0  0  0  0  0  0
   48.5540   34.7750   40.1720 N   0  0  0  0  0  0  0  0  0  0  0  0
   47.8420   34.9130   41.3230 C   0  0  0  0  0  0  0  0  0  0  0  0
   48.4350   35.5660   42.2200 O   0  0  0  0  0  0  0  0  0  0  0  0
   46.1130   32.7580   38.1150 C   0  0  0  0  0  0  0  0  0  0  0  0
   43.9208   36.9243   44.1241 H   0  0  0  0  0  0  0  0  0  0  0  0
   45.0145   36.3980   41.9050 H   0  0  0  0  0  0  0  0  0  0  0  0
   47.3249   32.2370   45.0027 H   0  0  0  0  0  0  0  0  0  0  0  0
   48.2912   30.1339   48.0377 H   0  0  0  0  0  0  0  0  0  0  0  0
   47.6021   29.5571   46.4824 H   0  0  0  0  0  0  0  0  0  0  0  0
   48.9398   30.7559   46.4824 H   0  0  0  0  0  0  0  0  0  0  0  0
   44.8686   32.8729   49.2422 H   0  0  0  0  0  0  0  0  0  0  0  0
   45.0599   33.2657   40.5459 H   0  0  0  0  0  0  0  0  0  0  0  0
   49.4944   35.1844   40.0770 H   0  0  0  0  0  0  0  0  0  0  0  0
   45.4649   31.9702   38.5265 H   0  0  0  0  0  0  0  0  0  0  0  0
   45.5122   33.4414   37.4969 H   0  0  0  0  0  0  0  0  0  0  0  0
   46.8994   32.3002   37.4969 H   0  0  0  0  0  0  0  0  0  0  0  0
  1  6  2  0
  2  1  1  0
  3  2  2  0
  3  4  1  0
  4  5  2  0
  5  6  1  0
  5  7  1  0
  7 14  1  0
  8  7  1  0
  8  9  2  0
  9 11  1  0
 10  9  1  0
 11 13  1  0
 11 12  2  0
 14 15  2  0
 14 13  1  0
 16  3  1  0
 17 16  1  0
 18 17  2  0
 19 18  1  0
 19 21  1  0
 20 19  2  0
 21 22  1  0
 22 16  1  0
 22 23  2  0
 24 18  1  0
  1 25  1  0
  2 26  1  0
  8 27  1  0
 10 28  1  0
 10 29  1  0
 10 30  1  0
 13 31  1  0
 17 32  1  0
 21 33  1  0
 24 34  1  0
 24 35  1  0
 24 36  1  0
M  ISO  8  25  14  26  14  27  14  28   8  29   8  30   8  31   9  32  14
M  ISO  4  33   9  34   8  35   8  36   8
M  END
>  <minimizedAffinity>  (1) 
-7.28858328

>  <minimizedRMSD>  (1) 
0.216690242

$$$$
