
     RDKit          3D

 39 42  0  0  0  0  0  0  0  0999 V2000
   45.1650   35.2150   43.9450 C   0  0  0  0  0  0  0  0  0  0  0  0
   45.6600   35.2280   42.6080 C   0  0  0  0  0  0  0  0  0  0  0  0
   46.5000   34.1770   42.2530 C   0  0  0  0  0  0  0  0  0  0  0  0
   46.7560   33.2640   43.2100 N   0  0  0  0  0  0  0  0  0  0  0  0
   46.3000   33.2500   44.4510 C   0  0  0  0  0  0  0  0  0  0  0  0
   45.4930   34.2450   44.8140 N   0  0  0  0  0  0  0  0  0  0  0  0
   46.9990   34.1730   40.9360 N   0  0  0  0  0  0  0  0  0  0  0  0
   46.4620   33.5300   39.8740 C   0  0  0  0  0  0  0  0  0  0  0  0
   47.0360   33.6060   38.6170 C   0  0  0  0  0  0  0  0  0  0  0  0
   48.1840   34.3780   38.5300 C   0  0  0  0  0  0  0  0  0  0  0  0
   48.7170   34.4560   37.3920 O   0  0  0  0  0  0  0  0  0  0  0  0
   48.7260   35.0230   39.5820 N   0  0  0  0  0  0  0  0  0  0  0  0
   48.1140   34.9080   40.7890 C   0  0  0  0  0  0  0  0  0  0  0  0
   48.6810   35.5390   41.7190 O   0  0  0  0  0  0  0  0  0  0  0  0
   46.4120   32.8930   37.4740 C   0  0  0  0  0  0  0  0  0  0  0  0
   46.7980   32.0980   45.1900 C   0  0  0  0  0  0  0  0  0  0  0  0
   47.6180   31.1470   44.6240 C   0  0  0  0  0  0  0  0  0  0  0  0
   48.1110   30.0460   45.2850 C   0  0  0  0  0  0  0  0  0  0  0  0
   47.7910   29.8340   46.6070 C   0  0  0  0  0  0  0  0  0  0  0  0
   46.9740   30.7540   47.2240 C   0  0  0  0  0  0  0  0  0  0  0  0
   46.6690   30.5190   48.5460 C   0  0  0  0  0  0  0  0  0  0  0  0
   45.8600   31.3920   49.2350 C   0  0  0  0  0  0  0  0  0  0  0  0
   45.3770   32.4970   48.5360 C   0  0  0  0  0  0  0  0  0  0  0  0
   45.7170   32.6770   47.2140 C   0  0  0  0  0  0  0  0  0  0  0  0
   46.5240   31.8180   46.5070 C   0  0  0  0  0  0  0  0  0  0  0  0
   44.4950   36.0229   44.2743 H   0  0  0  0  0  0  0  0  0  0  0  0
   45.3929   36.0239   41.8972 H   0  0  0  0  0  0  0  0  0  0  0  0
   45.5484   32.9332   40.0126 H   0  0  0  0  0  0  0  0  0  0  0  0
   49.5807   35.5875   39.4736 H   0  0  0  0  0  0  0  0  0  0  0  0
   45.7321   32.1161   37.8536 H   0  0  0  0  0  0  0  0  0  0  0  0
   45.8449   33.6088   36.8608 H   0  0  0  0  0  0  0  0  0  0  0  0
   47.1967   32.4258   36.8608 H   0  0  0  0  0  0  0  0  0  0  0  0
   47.8986   31.2772   43.5684 H   0  0  0  0  0  0  0  0  0  0  0  0
   48.7619   29.3339   44.7565 H   0  0  0  0  0  0  0  0  0  0  0  0
   48.1752   28.9590   47.1518 H   0  0  0  0  0  0  0  0  0  0  0  0
   47.0736   29.6303   49.0525 H   0  0  0  0  0  0  0  0  0  0  0  0
   45.6051   31.2254   50.2920 H   0  0  0  0  0  0  0  0  0  0  0  0
   44.7245   33.2249   49.0403 H   0  0  0  0  0  0  0  0  0  0  0  0
   45.3193   33.5604   46.6929 H   0  0  0  0  0  0  0  0  0  0  0  0
  1  6  2  0
  2  1  1  0
  3  2  2  0
  3  4  1  0
  4  5  2  0
  5  6  1  0
  5 16  1  0
  7  3  1  0
  8  7  1  0
  9  8  2  0
 10  9  1  0
 10 12  1  0
 11 10  2  0
 12 13  1  0
 13  7  1  0
 13 14  2  0
 15  9  1  0
 16 25  1  0
 17 16  2  0
 17 18  1  0
 18 19  2  0
 19 20  1  0
 20 21  2  0
 21 22  1  0
 23 22  2  0
 24 23  1  0
 25 24  2  0
 25 20  1  0
  1 26  1  0
  2 27  1  0
  8 28  1  0
 12 29  1  0
 15 30  1  0
 15 31  1  0
 15 32  1  0
 17 33  1  0
 18 34  1  0
 19 35  1  0
 21 36  1  0
 22 37  1  0
 23 38  1  0
 24 39  1  0
M  ISO  8  26  14  27  14  28  14  29   9  30   8  31   8  32   8  33  14
M  ISO  6  34  14  35  14  36  14  37  14  38  14  39  14
M  END
>  <minimizedAffinity>  (1) 
-7.00135612

>  <minimizedRMSD>  (1) 
1.41004527

$$$$
