
     RDKit          3D

 36 39  0  0  0  0  0  0  0  0999 V2000
   44.5280   36.0350   43.8420 C   0  0  0  0  0  0  0  0  0  0  0  0
   45.1440   35.7610   42.5920 C   0  0  0  0  0  0  0  0  0  0  0  0
   45.9830   34.6180   42.5310 C   0  0  0  0  0  0  0  0  0  0  0  0
   46.1490   33.8570   43.6540 N   0  0  0  0  0  0  0  0  0  0  0  0
   45.5340   34.1720   44.8090 C   0  0  0  0  0  0  0  0  0  0  0  0
   44.7320   35.2410   44.9200 N   0  0  0  0  0  0  0  0  0  0  0  0
   45.7150   33.3710   45.9750 N   0  0  0  0  0  0  0  0  0  0  0  0
   45.1820   33.6530   47.1940 C   0  0  0  0  0  0  0  0  0  0  0  0
   45.5530   32.6840   48.0740 N   0  0  0  0  0  0  0  0  0  0  0  0
   46.3130   31.7960   47.4250 C   0  0  0  0  0  0  0  0  0  0  0  0
   46.9880   30.6270   47.7000 C   0  0  0  0  0  0  0  0  0  0  0  0
   47.6990   29.9260   46.8000 N   0  0  0  0  0  0  0  0  0  0  0  0
   47.7620   30.4010   45.5220 C   0  0  0  0  0  0  0  0  0  0  0  0
   47.1190   31.5320   45.2190 N   0  0  0  0  0  0  0  0  0  0  0  0
   46.4160   32.2220   46.1140 C   0  0  0  0  0  0  0  0  0  0  0  0
   46.5810   34.3680   41.2850 N   0  0  0  0  0  0  0  0  0  0  0  0
   46.0780   33.6540   40.2650 C   0  0  0  0  0  0  0  0  0  0  0  0
   46.7640   33.4730   39.0750 C   0  0  0  0  0  0  0  0  0  0  0  0
   48.0060   34.0810   39.0070 C   0  0  0  0  0  0  0  0  0  0  0  0
   48.6770   33.9490   37.9420 O   0  0  0  0  0  0  0  0  0  0  0  0
   48.5370   34.8080   40.0240 N   0  0  0  0  0  0  0  0  0  0  0  0
   47.8100   34.9450   41.1630 C   0  0  0  0  0  0  0  0  0  0  0  0
   48.3660   35.6310   42.0600 O   0  0  0  0  0  0  0  0  0  0  0  0
   46.1850   32.6830   37.9700 C   0  0  0  0  0  0  0  0  0  0  0  0
   46.9270   30.1250   49.0340 N   0  0  0  0  0  0  0  0  0  0  0  0
   43.8705   36.9118   43.9367 H   0  0  0  0  0  0  0  0  0  0  0  0
   44.9789   36.4031   41.7143 H   0  0  0  0  0  0  0  0  0  0  0  0
   44.5527   34.5237   47.4303 H   0  0  0  0  0  0  0  0  0  0  0  0
   48.3337   29.8606   44.7531 H   0  0  0  0  0  0  0  0  0  0  0  0
   45.0844   33.1958   40.3785 H   0  0  0  0  0  0  0  0  0  0  0  0
   49.4660   35.2437   39.9339 H   0  0  0  0  0  0  0  0  0  0  0  0
   45.5824   31.8609   38.3835 H   0  0  0  0  0  0  0  0  0  0  0  0
   45.5462   33.3307   37.3516 H   0  0  0  0  0  0  0  0  0  0  0  0
   46.9950   32.2689   37.3516 H   0  0  0  0  0  0  0  0  0  0  0  0
   47.4185   29.2537   49.2794 H   0  0  0  0  0  0  0  0  0  0  0  0
   46.3915   30.6339   49.7518 H   0  0  0  0  0  0  0  0  0  0  0  0
  1  6  2  0
  2  1  1  0
  3  2  2  0
  3  4  1  0
  4  5  2  0
  5  6  1  0
  5  7  1  0
  7 15  1  0
  7  8  1  0
  8  9  2  0
 10 11  2  0
 10  9  1  0
 11 25  1  0
 12 11  1  0
 13 12  2  0
 14 13  1  0
 14 15  2  0
 15 10  1  0
 16  3  1  0
 17 16  1  0
 18 17  2  0
 19 18  1  0
 19 21  1  0
 20 19  2  0
 21 22  1  0
 22 16  1  0
 22 23  2  0
 24 18  1  0
  1 26  1  0
  2 27  1  0
  8 28  1  0
 13 29  1  0
 17 30  1  0
 21 31  1  0
 24 32  1  0
 24 33  1  0
 24 34  1  0
 25 35  1  0
 25 36  1  0
M  ISO  8  26  14  27  14  28  14  29  14  30  14  31   9  32   8  33   8
M  ISO  1  34   8
M  END
>  <minimizedAffinity>  (1) 
-6.97140932

>  <minimizedRMSD>  (1) 
0.299277514

$$$$
