
     RDKit          3D

 33 35  0  0  0  0  0  0  0  0999 V2000
   44.6430   36.2520   44.0670 C   0  0  0  0  0  0  0  0  0  0  0  0
   45.2160   35.8820   42.8200 C   0  0  0  0  0  0  0  0  0  0  0  0
   45.9890   34.7180   42.7660 C   0  0  0  0  0  0  0  0  0  0  0  0
   46.1450   34.0100   43.9140 N   0  0  0  0  0  0  0  0  0  0  0  0
   45.5960   34.3720   45.0850 C   0  0  0  0  0  0  0  0  0  0  0  0
   44.8460   35.4890   45.1680 N   0  0  0  0  0  0  0  0  0  0  0  0
   45.8520   33.5170   46.2150 N   0  0  0  0  0  0  0  0  0  0  0  0
   46.9270   32.6970   46.0290 C   0  0  0  0  0  0  0  0  0  0  0  0
   47.2610   31.8250   47.0700 C   0  0  0  0  0  0  0  0  0  0  0  0
   46.5050   31.8250   48.2240 C   0  0  0  0  0  0  0  0  0  0  0  0
   46.8170   31.0370   49.1490 O   0  0  0  0  0  0  0  0  0  0  0  0
   45.4690   32.6470   48.3460 N   0  0  0  0  0  0  0  0  0  0  0  0
   45.1360   33.4910   47.3550 C   0  0  0  0  0  0  0  0  0  0  0  0
   44.1920   34.3180   47.3270 O   0  0  0  0  0  0  0  0  0  0  0  0
   46.5400   34.3840   41.5140 N   0  0  0  0  0  0  0  0  0  0  0  0
   45.9560   33.6870   40.5300 C   0  0  0  0  0  0  0  0  0  0  0  0
   46.5910   33.4130   39.3330 C   0  0  0  0  0  0  0  0  0  0  0  0
   47.8850   33.9180   39.2300 C   0  0  0  0  0  0  0  0  0  0  0  0
   48.5220   33.7000   38.1560 O   0  0  0  0  0  0  0  0  0  0  0  0
   48.4930   34.6240   40.2170 N   0  0  0  0  0  0  0  0  0  0  0  0
   47.8050   34.8530   41.3630 C   0  0  0  0  0  0  0  0  0  0  0  0
   48.4380   35.5110   42.2180 O   0  0  0  0  0  0  0  0  0  0  0  0
   45.9330   32.6500   38.2700 C   0  0  0  0  0  0  0  0  0  0  0  0
   44.0311   37.1633   44.1386 H   0  0  0  0  0  0  0  0  0  0  0  0
   45.0556   36.4952   41.9210 H   0  0  0  0  0  0  0  0  0  0  0  0
   47.5086   32.7211   45.0957 H   0  0  0  0  0  0  0  0  0  0  0  0
   48.1195   31.1446   46.9695 H   0  0  0  0  0  0  0  0  0  0  0  0
   44.9128   32.6374   49.2128 H   0  0  0  0  0  0  0  0  0  0  0  0
   44.9307   33.3182   40.6805 H   0  0  0  0  0  0  0  0  0  0  0  0
   49.4533   34.9771   40.0985 H   0  0  0  0  0  0  0  0  0  0  0  0
   45.2767   31.8890   38.7173 H   0  0  0  0  0  0  0  0  0  0  0  0
   45.3339   33.3305   37.6472 H   0  0  0  0  0  0  0  0  0  0  0  0
   46.6942   32.1574   37.6472 H   0  0  0  0  0  0  0  0  0  0  0  0
  1  6  2  0
  2  1  1  0
  3  2  2  0
  3  4  1  0
  4  5  2  0
  5  6  1  0
  5  7  1  0
  7 13  1  0
  8  7  1  0
  8  9  2  0
  9 10  1  0
 10 12  1  0
 10 11  2  0
 13 12  1  0
 14 13  2  0
 15  3  1  0
 16 15  1  0
 17 16  2  0
 18 17  1  0
 18 20  1  0
 19 18  2  0
 20 21  1  0
 21 15  1  0
 21 22  2  0
 23 17  1  0
  1 24  1  0
  2 25  1  0
  8 26  1  0
  9 27  1  0
 12 28  1  0
 16 29  1  0
 20 30  1  0
 23 31  1  0
 23 32  1  0
 23 33  1  0
M  ISO  8  24  14  25  14  26  14  27  14  28   9  29  14  30   9  31   8
M  ISO  2  32   8  33   8
M  END
>  <minimizedAffinity>  (1) 
-6.86235571

>  <minimizedRMSD>  (1) 
0.382831365

$$$$
