
     RDKit          3D

 41 44  0  0  1  0  0  0  0  0999 V2000
   45.3370   34.9390   44.1280 C   0  0  0  0  0  0  0  0  0  0  0  0
   45.8030   35.0090   42.7940 C   0  0  0  0  0  0  0  0  0  0  0  0
   46.6350   33.9870   42.3380 C   0  0  0  0  0  0  0  0  0  0  0  0
   46.9180   33.0140   43.2340 N   0  0  0  0  0  0  0  0  0  0  0  0
   46.4660   32.9650   44.4930 C   0  0  0  0  0  0  0  0  0  0  0  0
   45.6760   33.9340   44.9300 N   0  0  0  0  0  0  0  0  0  0  0  0
   47.1280   31.7900   44.9700 C   0  0  0  0  0  0  0  0  0  0  0  0
   47.6880   30.7970   45.3720 N   0  0  0  0  0  0  0  0  0  0  0  0
   48.3150   29.7850   45.6210 C   0  0  0  0  0  0  0  0  0  0  0  0
   47.8650   29.7940   46.8670 N   0  0  0  0  0  0  0  0  0  0  0  0
   47.0220   30.7740   47.2900 C   0  0  0  0  0  0  0  0  0  0  0  0
   46.6010   30.6450   48.6350 C   0  0  0  0  0  0  0  0  0  0  0  0
   45.7280   31.5820   49.1040 C   0  0  0  0  0  0  0  0  0  0  0  0
   45.2330   32.6470   48.3480 C   0  0  0  0  0  0  0  0  0  0  0  0
   45.7390   32.6230   47.0750 C   0  0  0  0  0  0  0  0  0  0  0  0
   46.6450   31.7780   46.3440 C   0  0  0  0  0  0  0  0  0  0  0  0
   47.0870   34.0710   41.0040 N   0  0  0  0  0  0  0  0  0  0  0  0
   46.5340   33.4560   39.9390 C   0  0  0  0  0  0  0  0  0  0  0  0
   47.0630   33.6100   38.6670 C   0  0  0  0  0  0  0  0  0  0  0  0
   48.1600   34.4170   38.5800 C   0  0  0  0  0  0  0  0  0  0  0  0
   48.6850   34.5960   37.4410 O   0  0  0  0  0  0  0  0  0  0  0  0
   48.7400   35.0530   39.6530 N   0  0  0  0  0  0  0  0  0  0  0  0
   48.1640   34.8520   40.8750 C   0  0  0  0  0  0  0  0  0  0  0  0
   48.7450   35.4640   41.8070 O   0  0  0  0  0  0  0  0  0  0  0  0
   46.4540   32.9260   37.5130 C   0  0  0  0  0  0  0  0  0  0  0  0
   44.6795   35.7337   44.5103 H   0  0  0  0  0  0  0  0  0  0  0  0
   45.5178   35.8438   42.1368 H   0  0  0  0  0  0  0  0  0  0  0  0
   46.3106   31.1690   44.5747 H   0  0  0  0  0  0  0  0  0  0  0  0
   48.1242   31.3087   46.1522 H   0  0  0  0  0  0  0  0  0  0  0  0
   47.9972   28.9081   45.0379 H   0  0  0  0  0  0  0  0  0  0  0  0
   49.3969   29.7456   45.4265 H   0  0  0  0  0  0  0  0  0  0  0  0
   48.1558   29.0530   47.5206 H   0  0  0  0  0  0  0  0  0  0  0  0
   46.9619   29.8254   49.2738 H   0  0  0  0  0  0  0  0  0  0  0  0
   45.3912   31.4930   50.1474 H   0  0  0  0  0  0  0  0  0  0  0  0
   44.5301   33.4046   48.7247 H   0  0  0  0  0  0  0  0  0  0  0  0
   45.3594   33.4534   46.4616 H   0  0  0  0  0  0  0  0  0  0  0  0
   45.6474   32.8208   40.0821 H   0  0  0  0  0  0  0  0  0  0  0  0
   49.5698   35.6527   39.5402 H   0  0  0  0  0  0  0  0  0  0  0  0
   45.7622   32.1490   37.8705 H   0  0  0  0  0  0  0  0  0  0  0  0
   45.9017   33.6564   36.9034 H   0  0  0  0  0  0  0  0  0  0  0  0
   47.2433   32.4619   36.9034 H   0  0  0  0  0  0  0  0  0  0  0  0
  1  6  2  0
  2  1  1  0
  3  2  2  0
  3  4  1  0
  4  5  2  0
  5  6  1  0
  7  5  1  0
  7  8  1  0
  7 16  1  0
  8  9  1  0
  9 10  1  0
 10 11  1  0
 11 12  2  0
 12 13  1  0
 14 13  2  0
 15 14  1  0
 16 15  2  0
 16 11  1  0
 17  3  1  0
 18 17  1  0
 19 18  2  0
 20 19  1  0
 20 22  1  0
 21 20  2  0
 22 23  1  0
 23 17  1  0
 23 24  2  0
 25 19  1  0
  1 26  1  0
  2 27  1  0
  7 28  1  0
  8 29  1  0
  9 30  1  0
  9 31  1  0
 10 32  1  0
 12 33  1  0
 13 34  1  0
 14 35  1  0
 15 36  1  0
 18 37  1  0
 22 38  1  0
 25 39  1  0
 25 40  1  0
 25 41  1  0
M  ISO  8  26  14  27  14  28  13  29   5  30  13  31  13  33  14  34  14
M  ISO  7  35  14  36  14  37  14  38   9  39   8  40   8  41   8
M  END
>  <minimizedAffinity>  (1) 
-6.72124338

>  <minimizedRMSD>  (1) 
1.60971224

$$$$
