
     RDKit          3D

 33 35  0  0  0  0  0  0  0  0999 V2000
   44.6200   35.8550   44.4110 C   0  0  0  0  0  0  0  0  0  0  0  0
   45.1780   35.6510   43.1160 C   0  0  0  0  0  0  0  0  0  0  0  0
   46.0150   34.5370   42.9510 C   0  0  0  0  0  0  0  0  0  0  0  0
   46.2380   33.7300   44.0290 N   0  0  0  0  0  0  0  0  0  0  0  0
   45.6900   33.9620   45.2310 C   0  0  0  0  0  0  0  0  0  0  0  0
   44.8840   35.0150   45.4290 N   0  0  0  0  0  0  0  0  0  0  0  0
   46.5620   34.3460   41.6610 N   0  0  0  0  0  0  0  0  0  0  0  0
   45.9740   33.7470   40.6130 C   0  0  0  0  0  0  0  0  0  0  0  0
   46.5940   33.6090   39.3920 C   0  0  0  0  0  0  0  0  0  0  0  0
   47.8720   34.1350   39.3270 C   0  0  0  0  0  0  0  0  0  0  0  0
   48.5100   34.0460   38.2320 O   0  0  0  0  0  0  0  0  0  0  0  0
   48.4920   34.7440   40.3670 N   0  0  0  0  0  0  0  0  0  0  0  0
   47.8180   34.8440   41.5410 C   0  0  0  0  0  0  0  0  0  0  0  0
   48.4430   35.4140   42.4580 O   0  0  0  0  0  0  0  0  0  0  0  0
   45.9310   32.9500   38.2590 C   0  0  0  0  0  0  0  0  0  0  0  0
   45.9670   33.0620   46.3420 C   0  0  0  0  0  0  0  0  0  0  0  0
   47.0360   32.1710   46.2630 C   0  0  0  0  0  0  0  0  0  0  0  0
   47.3360   31.2970   47.2980 C   0  0  0  0  0  0  0  0  0  0  0  0
   46.5670   31.2900   48.4490 C   0  0  0  0  0  0  0  0  0  0  0  0
   45.4940   32.1770   48.5400 C   0  0  0  0  0  0  0  0  0  0  0  0
   45.2090   33.0460   47.4930 C   0  0  0  0  0  0  0  0  0  0  0  0
   43.9592   36.7175   44.5825 H   0  0  0  0  0  0  0  0  0  0  0  0
   44.9623   36.3361   42.2829 H   0  0  0  0  0  0  0  0  0  0  0  0
   44.9553   33.3504   40.7353 H   0  0  0  0  0  0  0  0  0  0  0  0
   49.4461   35.1197   40.2695 H   0  0  0  0  0  0  0  0  0  0  0  0
   45.1981   32.2216   38.6362 H   0  0  0  0  0  0  0  0  0  0  0  0
   45.4160   33.7045   37.6462 H   0  0  0  0  0  0  0  0  0  0  0  0
   46.6823   32.4305   37.6462 H   0  0  0  0  0  0  0  0  0  0  0  0
   47.6583   32.1605   45.3560 H   0  0  0  0  0  0  0  0  0  0  0  0
   48.1878   30.6074   47.2036 H   0  0  0  0  0  0  0  0  0  0  0  0
   46.7970   30.5999   49.2741 H   0  0  0  0  0  0  0  0  0  0  0  0
   44.8698   32.1888   49.4456 H   0  0  0  0  0  0  0  0  0  0  0  0
   44.3583   33.7373   47.5854 H   0  0  0  0  0  0  0  0  0  0  0  0
  1  6  2  0
  2  1  1  0
  3  2  2  0
  3  4  1  0
  4  5  2  0
  5  6  1  0
  5 16  1  0
  7  3  1  0
  8  7  1  0
  9  8  2  0
 10  9  1  0
 10 12  1  0
 11 10  2  0
 12 13  1  0
 13  7  1  0
 13 14  2  0
 15  9  1  0
 16 21  1  0
 17 16  2  0
 17 18  1  0
 18 19  2  0
 19 20  1  0
 21 20  2  0
  1 22  1  0
  2 23  1  0
  8 24  1  0
 12 25  1  0
 15 26  1  0
 15 27  1  0
 15 28  1  0
 17 29  1  0
 18 30  1  0
 19 31  1  0
 20 32  1  0
 21 33  1  0
M  ISO  8  22  14  23  14  24  14  25   9  26   8  27   8  28   8  29  14
M  ISO  4  30  14  31  14  32  14  33  14
M  END
>  <minimizedAffinity>  (1) 
-6.37112093

>  <minimizedRMSD>  (1) 
0.424445361

$$$$
