
     RDKit          3D

 30 32  0  0  0  0  0  0  0  0999 V2000
   44.5960   36.1100   44.1290 C   0  0  0  0  0  0  0  0  0  0  0  0
   45.2010   35.8140   42.8910 C   0  0  0  0  0  0  0  0  0  0  0  0
   46.0050   34.6700   42.7890 C   0  0  0  0  0  0  0  0  0  0  0  0
   46.1710   33.8910   43.8960 N   0  0  0  0  0  0  0  0  0  0  0  0
   45.5750   34.2040   45.0730 C   0  0  0  0  0  0  0  0  0  0  0  0
   44.7980   35.2950   45.1970 N   0  0  0  0  0  0  0  0  0  0  0  0
   45.8390   33.2970   46.1420 N   0  0  0  0  0  0  0  0  0  0  0  0
   45.2560   33.1300   47.3210 N   0  0  0  0  0  0  0  0  0  0  0  0
   45.8680   32.1310   47.9980 C   0  0  0  0  0  0  0  0  0  0  0  0
   46.8930   31.6580   47.1750 C   0  0  0  0  0  0  0  0  0  0  0  0
   46.8600   32.4120   45.9970 C   0  0  0  0  0  0  0  0  0  0  0  0
   46.5810   34.4290   41.5250 N   0  0  0  0  0  0  0  0  0  0  0  0
   46.0270   33.7880   40.4840 C   0  0  0  0  0  0  0  0  0  0  0  0
   46.6780   33.6040   39.2830 C   0  0  0  0  0  0  0  0  0  0  0  0
   47.9520   34.1290   39.2280 C   0  0  0  0  0  0  0  0  0  0  0  0
   48.5930   33.9840   38.1410 O   0  0  0  0  0  0  0  0  0  0  0  0
   48.5350   34.7800   40.2600 N   0  0  0  0  0  0  0  0  0  0  0  0
   47.8280   34.9200   41.4110 C   0  0  0  0  0  0  0  0  0  0  0  0
   48.4390   35.5340   42.3190 O   0  0  0  0  0  0  0  0  0  0  0  0
   46.0080   32.8910   38.1690 C   0  0  0  0  0  0  0  0  0  0  0  0
   43.9598   37.0016   44.2306 H   0  0  0  0  0  0  0  0  0  0  0  0
   45.0452   36.4685   42.0208 H   0  0  0  0  0  0  0  0  0  0  0  0
   45.6088   31.7628   49.0016 H   0  0  0  0  0  0  0  0  0  0  0  0
   47.5952   30.8444   47.4095 H   0  0  0  0  0  0  0  0  0  0  0  0
   47.5266   32.3091   45.1280 H   0  0  0  0  0  0  0  0  0  0  0  0
   45.0069   33.3914   40.5943 H   0  0  0  0  0  0  0  0  0  0  0  0
   49.4889   35.1592   40.1754 H   0  0  0  0  0  0  0  0  0  0  0  0
   45.3087   32.1468   38.5779 H   0  0  0  0  0  0  0  0  0  0  0  0
   45.4546   33.6136   37.5513 H   0  0  0  0  0  0  0  0  0  0  0  0
   46.7636   32.3836   37.5513 H   0  0  0  0  0  0  0  0  0  0  0  0
  1  6  2  0
  2  1  1  0
  3  2  2  0
  3  4  1  0
  4  5  2  0
  5  6  1  0
  5  7  1  0
  7  8  1  0
  8  9  2  0
 10  9  1  0
 11  7  1  0
 11 10  2  0
 12  3  1  0
 13 12  1  0
 14 13  2  0
 15 14  1  0
 15 17  1  0
 16 15  2  0
 17 18  1  0
 18 12  1  0
 18 19  2  0
 20 14  1  0
  1 21  1  0
  2 22  1  0
  9 23  1  0
 10 24  1  0
 11 25  1  0
 13 26  1  0
 17 27  1  0
 20 28  1  0
 20 29  1  0
 20 30  1  0
M  ISO  8  21  14  22  14  23  14  24  14  25  14  26  14  27   9  28   8
M  ISO  2  29   8  30   8
M  END
>  <minimizedAffinity>  (1) 
-6.22345114

>  <minimizedRMSD>  (1) 
0.132635221

$$$$
