
     RDKit          3D

 29 31  0  0  0  0  0  0  0  0999 V2000
   46.5590   34.4180   41.5370 N   0  0  0  0  0  0  0  0  0  0  0  0
   46.0080   33.7770   40.4970 C   0  0  0  0  0  0  0  0  0  0  0  0
   46.6550   33.5880   39.2980 C   0  0  0  0  0  0  0  0  0  0  0  0
   47.9310   34.1150   39.2450 C   0  0  0  0  0  0  0  0  0  0  0  0
   48.5850   33.9740   38.1620 O   0  0  0  0  0  0  0  0  0  0  0  0
   48.5320   34.7750   40.2800 N   0  0  0  0  0  0  0  0  0  0  0  0
   47.8170   34.9120   41.4210 C   0  0  0  0  0  0  0  0  0  0  0  0
   48.4280   35.5290   42.3320 O   0  0  0  0  0  0  0  0  0  0  0  0
   44.5670   36.1040   44.1440 C   0  0  0  0  0  0  0  0  0  0  0  0
   45.1650   35.8150   42.8890 C   0  0  0  0  0  0  0  0  0  0  0  0
   45.9900   34.6650   42.7970 C   0  0  0  0  0  0  0  0  0  0  0  0
   46.1600   33.9100   43.9110 N   0  0  0  0  0  0  0  0  0  0  0  0
   45.5810   34.2110   45.0840 C   0  0  0  0  0  0  0  0  0  0  0  0
   44.7900   35.2940   45.2090 N   0  0  0  0  0  0  0  0  0  0  0  0
   45.8120   33.3630   46.2090 N   0  0  0  0  0  0  0  0  0  0  0  0
   46.8400   32.4720   46.3190 C   0  0  0  0  0  0  0  0  0  0  0  0
   46.8090   31.8080   47.4910 N   0  0  0  0  0  0  0  0  0  0  0  0
   45.7280   32.3060   48.1210 C   0  0  0  0  0  0  0  0  0  0  0  0
   45.1410   33.2380   47.3360 N   0  0  0  0  0  0  0  0  0  0  0  0
   46.0210   32.8810   38.1780 C   0  0  0  0  0  0  0  0  0  0  0  0
   44.9873   33.3823   40.6078 H   0  0  0  0  0  0  0  0  0  0  0  0
   49.4870   35.1515   40.1954 H   0  0  0  0  0  0  0  0  0  0  0  0
   43.9209   36.9875   44.2530 H   0  0  0  0  0  0  0  0  0  0  0  0
   44.9939   36.4622   42.0162 H   0  0  0  0  0  0  0  0  0  0  0  0
   47.6034   32.3146   45.5428 H   0  0  0  0  0  0  0  0  0  0  0  0
   45.3772   32.0022   49.1183 H   0  0  0  0  0  0  0  0  0  0  0  0
   45.3346   32.1155   38.5690 H   0  0  0  0  0  0  0  0  0  0  0  0
   45.4581   33.5985   37.5630 H   0  0  0  0  0  0  0  0  0  0  0  0
   46.7954   32.3993   37.5630 H   0  0  0  0  0  0  0  0  0  0  0  0
  1 11  1  0
  2  1  1  0
  3  2  2  0
  4  3  1  0
  4  6  1  0
  5  4  2  0
  6  7  1  0
  7  1  1  0
  7  8  2  0
  9 14  2  0
 10  9  1  0
 11 10  2  0
 11 12  1  0
 12 13  2  0
 13 14  1  0
 13 15  1  0
 15 16  1  0
 15 19  1  0
 16 17  2  0
 17 18  1  0
 19 18  2  0
 20  3  1  0
  2 21  1  0
  6 22  1  0
  9 23  1  0
 10 24  1  0
 16 25  1  0
 18 26  1  0
 20 27  1  0
 20 28  1  0
 20 29  1  0
M  ISO  8  21  14  22   9  23  14  24  14  25  14  26  14  27   8  28   8
M  ISO  1  29   8
M  END
>  <minimizedAffinity>  (1) 
-6.21086979

>  <minimizedRMSD>  (1) 
0.161013961

$$$$
