
     RDKit          3D

 31 33  0  0  0  0  0  0  0  0999 V2000
   44.6700   35.9760   44.2450 C   0  0  0  0  0  0  0  0  0  0  0  0
   45.2370   35.7470   42.9610 C   0  0  0  0  0  0  0  0  0  0  0  0
   46.0530   34.6100   42.8210 C   0  0  0  0  0  0  0  0  0  0  0  0
   46.2530   33.8070   43.9030 N   0  0  0  0  0  0  0  0  0  0  0  0
   45.6960   34.0660   45.0930 C   0  0  0  0  0  0  0  0  0  0  0  0
   44.9090   35.1340   45.2820 N   0  0  0  0  0  0  0  0  0  0  0  0
   46.6100   34.3980   41.5330 N   0  0  0  0  0  0  0  0  0  0  0  0
   46.0290   33.7780   40.4940 C   0  0  0  0  0  0  0  0  0  0  0  0
   46.6710   33.6290   39.2770 C   0  0  0  0  0  0  0  0  0  0  0  0
   47.9360   34.1560   39.2080 C   0  0  0  0  0  0  0  0  0  0  0  0
   48.5760   34.0500   38.1140 O   0  0  0  0  0  0  0  0  0  0  0  0
   48.5430   34.7870   40.2440 N   0  0  0  0  0  0  0  0  0  0  0  0
   47.8590   34.9010   41.4120 C   0  0  0  0  0  0  0  0  0  0  0  0
   48.4840   35.4970   42.3300 O   0  0  0  0  0  0  0  0  0  0  0  0
   46.0000   32.9380   38.1520 C   0  0  0  0  0  0  0  0  0  0  0  0
   45.9560   33.1580   46.2060 C   0  0  0  0  0  0  0  0  0  0  0  0
   46.9730   32.2380   46.1870 C   0  0  0  0  0  0  0  0  0  0  0  0
   47.2450   31.3620   47.2270 C   0  0  0  0  0  0  0  0  0  0  0  0
   46.4270   31.4620   48.3070 N   0  0  0  0  0  0  0  0  0  0  0  0
   45.4240   32.3530   48.3550 C   0  0  0  0  0  0  0  0  0  0  0  0
   45.1950   33.1890   47.3150 N   0  0  0  0  0  0  0  0  0  0  0  0
   44.0248   36.8532   44.4006 H   0  0  0  0  0  0  0  0  0  0  0  0
   45.0464   36.4268   42.1175 H   0  0  0  0  0  0  0  0  0  0  0  0
   45.0120   33.3762   40.6133 H   0  0  0  0  0  0  0  0  0  0  0  0
   49.4949   35.1686   40.1478 H   0  0  0  0  0  0  0  0  0  0  0  0
   45.2851   32.2017   38.5480 H   0  0  0  0  0  0  0  0  0  0  0  0
   45.4639   33.6752   37.5362 H   0  0  0  0  0  0  0  0  0  0  0  0
   46.7526   32.4238   37.5362 H   0  0  0  0  0  0  0  0  0  0  0  0
   47.6116   32.1922   45.2925 H   0  0  0  0  0  0  0  0  0  0  0  0
   48.0686   30.6343   47.1806 H   0  0  0  0  0  0  0  0  0  0  0  0
   44.7826   32.4043   49.2472 H   0  0  0  0  0  0  0  0  0  0  0  0
  1  6  2  0
  2  1  1  0
  3  2  2  0
  3  4  1  0
  4  5  2  0
  5  6  1  0
  5 16  1  0
  7  3  1  0
  8  7  1  0
  9  8  2  0
 10  9  1  0
 10 12  1  0
 11 10  2  0
 12 13  1  0
 13  7  1  0
 13 14  2  0
 15  9  1  0
 16 21  1  0
 17 16  2  0
 17 18  1  0
 18 19  2  0
 19 20  1  0
 21 20  2  0
  1 22  1  0
  2 23  1  0
  8 24  1  0
 12 25  1  0
 15 26  1  0
 15 27  1  0
 15 28  1  0
 17 29  1  0
 18 30  1  0
 20 31  1  0
M  ISO  8  22  14  23  14  24  14  25   9  26   8  27   8  28   8  29  14
M  ISO  2  30  14  31  14
M  END
>  <minimizedAffinity>  (1) 
-6.16600752

>  <minimizedRMSD>  (1) 
0.507604599

$$$$
