
     RDKit          3D

 30 32  0  0  0  0  0  0  0  0999 V2000
   44.5380   36.2740   44.0140 C   0  0  0  0  0  0  0  0  0  0  0  0
   45.1530   35.9060   42.8010 C   0  0  0  0  0  0  0  0  0  0  0  0
   45.9560   34.7370   42.7660 C   0  0  0  0  0  0  0  0  0  0  0  0
   46.0880   34.0340   43.9170 N   0  0  0  0  0  0  0  0  0  0  0  0
   45.4910   34.4050   45.0620 C   0  0  0  0  0  0  0  0  0  0  0  0
   44.7150   35.5210   45.1230 N   0  0  0  0  0  0  0  0  0  0  0  0
   46.5450   34.4180   41.5310 N   0  0  0  0  0  0  0  0  0  0  0  0
   45.9680   33.7310   40.5170 C   0  0  0  0  0  0  0  0  0  0  0  0
   46.6490   33.4780   39.3420 C   0  0  0  0  0  0  0  0  0  0  0  0
   47.9310   33.9620   39.2730 C   0  0  0  0  0  0  0  0  0  0  0  0
   48.5830   33.7480   38.2120 O   0  0  0  0  0  0  0  0  0  0  0  0
   48.5260   34.6540   40.2870 N   0  0  0  0  0  0  0  0  0  0  0  0
   47.8130   34.8760   41.4210 C   0  0  0  0  0  0  0  0  0  0  0  0
   48.4150   35.5140   42.3070 O   0  0  0  0  0  0  0  0  0  0  0  0
   45.9930   32.7180   38.2520 C   0  0  0  0  0  0  0  0  0  0  0  0
   45.7100   33.5630   46.2340 C   0  0  0  0  0  0  0  0  0  0  0  0
   46.6600   32.5930   46.4770 C   0  0  0  0  0  0  0  0  0  0  0  0
   46.4260   32.0900   47.7580 C   0  0  0  0  0  0  0  0  0  0  0  0
   45.3500   32.7680   48.2430 N   0  0  0  0  0  0  0  0  0  0  0  0
   44.9240   33.6410   47.3460 N   0  0  0  0  0  0  0  0  0  0  0  0
   43.9116   37.1771   44.0590 H   0  0  0  0  0  0  0  0  0  0  0  0
   45.0128   36.5152   41.8959 H   0  0  0  0  0  0  0  0  0  0  0  0
   44.9363   33.3670   40.6311 H   0  0  0  0  0  0  0  0  0  0  0  0
   49.4919   34.9994   40.1947 H   0  0  0  0  0  0  0  0  0  0  0  0
   45.3322   31.9525   38.6849 H   0  0  0  0  0  0  0  0  0  0  0  0
   45.4000   33.4055   37.6310 H   0  0  0  0  0  0  0  0  0  0  0  0
   46.7598   32.2318   37.6310 H   0  0  0  0  0  0  0  0  0  0  0  0
   47.4559   32.2743   45.7879 H   0  0  0  0  0  0  0  0  0  0  0  0
   46.9970   31.3031   48.2725 H   0  0  0  0  0  0  0  0  0  0  0  0
   44.9296   32.6224   49.1719 H   0  0  0  0  0  0  0  0  0  0  0  0
  1  6  2  0
  2  1  1  0
  3  2  2  0
  3  4  1  0
  4  5  2  0
  5  6  1  0
  5 16  1  0
  7  3  1  0
  8  7  1  0
  9  8  2  0
 10  9  1  0
 10 12  1  0
 11 10  2  0
 12 13  1  0
 13  7  1  0
 13 14  2  0
 15  9  1  0
 16 17  1  0
 16 20  2  0
 17 18  2  0
 18 19  1  0
 20 19  1  0
  1 21  1  0
  2 22  1  0
  8 23  1  0
 12 24  1  0
 15 25  1  0
 15 26  1  0
 15 27  1  0
 17 28  1  0
 18 29  1  0
 19 30  1  0
M  ISO  8  21  14  22  14  23  14  24   9  25   8  26   8  27   8  28  14
M  ISO  2  29  14  30   9
M  END
>  <minimizedAffinity>  (1) 
-6.06321049

>  <minimizedRMSD>  (1) 
0.41253832

$$$$
