
     RDKit          3D

 29 31  0  0  0  0  0  0  0  0999 V2000
   46.6490   34.3920   41.4290 N   0  0  0  0  0  0  0  0  0  0  0  0
   46.0950   33.7340   40.3970 C   0  0  0  0  0  0  0  0  0  0  0  0
   46.7210   33.6090   39.1770 C   0  0  0  0  0  0  0  0  0  0  0  0
   47.9690   34.2150   39.0910 C   0  0  0  0  0  0  0  0  0  0  0  0
   48.5910   34.1320   37.9920 O   0  0  0  0  0  0  0  0  0  0  0  0
   48.5390   34.8790   40.1160 N   0  0  0  0  0  0  0  0  0  0  0  0
   47.8730   34.9680   41.2940 C   0  0  0  0  0  0  0  0  0  0  0  0
   48.4700   35.6020   42.1960 O   0  0  0  0  0  0  0  0  0  0  0  0
   44.7120   35.9370   44.1690 C   0  0  0  0  0  0  0  0  0  0  0  0
   45.2820   35.7120   42.8910 C   0  0  0  0  0  0  0  0  0  0  0  0
   46.1010   34.5800   42.7120 C   0  0  0  0  0  0  0  0  0  0  0  0
   46.3040   33.7480   43.7860 N   0  0  0  0  0  0  0  0  0  0  0  0
   45.7360   34.0060   44.9860 C   0  0  0  0  0  0  0  0  0  0  0  0
   44.9440   35.0920   45.1820 N   0  0  0  0  0  0  0  0  0  0  0  0
   46.0000   33.0660   46.0990 C   0  0  0  0  0  0  0  0  0  0  0  0
   46.9810   32.1120   46.0250 C   0  0  0  0  0  0  0  0  0  0  0  0
   46.8190   31.2750   47.6870 S   0  0  0  0  0  0  0  0  0  0  0  0
   45.3820   32.4570   48.1510 C   0  0  0  0  0  0  0  0  0  0  0  0
   45.2990   33.1040   47.2170 N   0  0  0  0  0  0  0  0  0  0  0  0
   46.0910   32.8790   38.0590 C   0  0  0  0  0  0  0  0  0  0  0  0
   45.1033   33.2776   40.5318 H   0  0  0  0  0  0  0  0  0  0  0  0
   49.4669   35.3125   40.0063 H   0  0  0  0  0  0  0  0  0  0  0  0
   44.0713   36.8163   44.3309 H   0  0  0  0  0  0  0  0  0  0  0  0
   45.0894   36.4049   42.0587 H   0  0  0  0  0  0  0  0  0  0  0  0
   47.6797   31.8960   45.2033 H   0  0  0  0  0  0  0  0  0  0  0  0
   44.7914   32.4993   49.0780 H   0  0  0  0  0  0  0  0  0  0  0  0
   45.4214   32.1032   38.4587 H   0  0  0  0  0  0  0  0  0  0  0  0
   45.5111   33.5818   37.4427 H   0  0  0  0  0  0  0  0  0  0  0  0
   46.8710   32.4082   37.4427 H   0  0  0  0  0  0  0  0  0  0  0  0
  1 11  1  0
  2  1  1  0
  3  2  2  0
  4  3  1  0
  4  6  1  0
  5  4  2  0
  6  7  1  0
  7  1  1  0
  7  8  2  0
  9 14  2  0
 10  9  1  0
 11 10  2  0
 11 12  1  0
 12 13  2  0
 13 14  1  0
 13 15  1  0
 15 19  1  0
 16 15  2  0
 16 17  1  0
 17 18  1  0
 19 18  2  0
 20  3  1  0
  2 21  1  0
  6 22  1  0
  9 23  1  0
 10 24  1  0
 16 25  1  0
 18 26  1  0
 20 27  1  0
 20 28  1  0
 20 29  1  0
M  ISO  8  21  14  22   9  23  14  24  14  25  14  26  14  27   8  28   8
M  ISO  1  29   8
M  END
>  <minimizedAffinity>  (1) 
-5.90623331

>  <minimizedRMSD>  (1) 
0.269403934

$$$$
