
     RDKit          3D

 25 26  0  0  0  0  0  0  0  0999 V2000
   46.6320   34.4030   41.5420 N   0  0  0  0  0  0  0  0  0  0  0  0
   46.0450   33.7770   40.4970 C   0  0  0  0  0  0  0  0  0  0  0  0
   46.6610   33.6230   39.2750 C   0  0  0  0  0  0  0  0  0  0  0  0
   47.9340   34.1640   39.2090 C   0  0  0  0  0  0  0  0  0  0  0  0
   48.5700   34.0610   38.1090 O   0  0  0  0  0  0  0  0  0  0  0  0
   48.5450   34.7960   40.2380 N   0  0  0  0  0  0  0  0  0  0  0  0
   47.8760   34.9110   41.4170 C   0  0  0  0  0  0  0  0  0  0  0  0
   48.4940   35.5000   42.3190 O   0  0  0  0  0  0  0  0  0  0  0  0
   44.6750   35.9770   44.2460 C   0  0  0  0  0  0  0  0  0  0  0  0
   45.2590   35.7320   42.9770 C   0  0  0  0  0  0  0  0  0  0  0  0
   46.0760   34.6040   42.8190 C   0  0  0  0  0  0  0  0  0  0  0  0
   46.2710   33.7910   43.8990 N   0  0  0  0  0  0  0  0  0  0  0  0
   45.6960   34.0620   45.0860 C   0  0  0  0  0  0  0  0  0  0  0  0
   44.9100   35.1330   45.2710 N   0  0  0  0  0  0  0  0  0  0  0  0
   45.9200   33.1790   46.2250 C   0  0  0  0  0  0  0  0  0  0  0  0
   45.1800   33.1900   47.2440 O   0  0  0  0  0  0  0  0  0  0  0  0
   46.0050   32.9410   38.1570 C   0  0  0  0  0  0  0  0  0  0  0  0
   45.0305   33.3729   40.6289 H   0  0  0  0  0  0  0  0  0  0  0  0
   49.4944   35.1809   40.1310 H   0  0  0  0  0  0  0  0  0  0  0  0
   44.0302   36.8558   44.3941 H   0  0  0  0  0  0  0  0  0  0  0  0
   45.0745   36.4136   42.1336 H   0  0  0  0  0  0  0  0  0  0  0  0
   46.7666   32.4774   46.1928 H   0  0  0  0  0  0  0  0  0  0  0  0
   45.2920   32.1998   38.5471 H   0  0  0  0  0  0  0  0  0  0  0  0
   45.4679   33.6782   37.5421 H   0  0  0  0  0  0  0  0  0  0  0  0
   46.7625   32.4329   37.5421 H   0  0  0  0  0  0  0  0  0  0  0  0
  1 11  1  0
  2  1  1  0
  3  2  2  0
  4  3  1  0
  4  6  1  0
  5  4  2  0
  6  7  1  0
  7  1  1  0
  7  8  2  0
  9 14  2  0
 10  9  1  0
 11 10  2  0
 11 12  1  0
 12 13  2  0
 13 14  1  0
 13 15  1  0
 15 16  2  0
 17  3  1  0
  2 18  1  0
  6 19  1  0
  9 20  1  0
 10 21  1  0
 15 22  1  0
 17 23  1  0
 17 24  1  0
 17 25  1  0
M  ISO  8  18  14  19   9  20  14  21  14  22   6  23   8  24   8  25   8
M  END
>  <minimizedAffinity>  (1) 
-5.13558578

>  <minimizedRMSD>  (1) 
0.125729233

$$$$
