
     RDKit          3D

 29 30  0  0  0  0  0  0  0  0999 V2000
   46.6070   34.4310   41.4930 N   0  0  0  0  0  0  0  0  0  0  0  0
   46.0340   33.7670   40.4620 C   0  0  0  0  0  0  0  0  0  0  0  0
   46.6810   33.5830   39.2560 C   0  0  0  0  0  0  0  0  0  0  0  0
   47.9440   34.1190   39.1790 C   0  0  0  0  0  0  0  0  0  0  0  0
   48.5920   33.9860   38.1030 O   0  0  0  0  0  0  0  0  0  0  0  0
   48.5240   34.7830   40.2000 N   0  0  0  0  0  0  0  0  0  0  0  0
   47.8440   34.9380   41.3700 C   0  0  0  0  0  0  0  0  0  0  0  0
   48.4470   35.5640   42.2670 O   0  0  0  0  0  0  0  0  0  0  0  0
   44.6370   36.0650   44.1420 C   0  0  0  0  0  0  0  0  0  0  0  0
   45.2270   35.8070   42.8760 C   0  0  0  0  0  0  0  0  0  0  0  0
   46.0320   34.6690   42.7570 C   0  0  0  0  0  0  0  0  0  0  0  0
   46.2050   33.8700   43.8630 N   0  0  0  0  0  0  0  0  0  0  0  0
   45.6220   34.1600   45.0430 C   0  0  0  0  0  0  0  0  0  0  0  0
   44.8440   35.2400   45.1970 N   0  0  0  0  0  0  0  0  0  0  0  0
   45.8290   33.2760   46.2200 C   0  0  0  0  0  0  0  0  0  0  0  0
   46.9090   32.2650   45.9980 C   0  0  0  0  0  0  0  0  0  0  0  0
   46.0220   32.8560   38.1510 C   0  0  0  0  0  0  0  0  0  0  0  0
   45.0197   33.3607   40.5890 H   0  0  0  0  0  0  0  0  0  0  0  0
   49.4730   35.1695   40.0957 H   0  0  0  0  0  0  0  0  0  0  0  0
   43.9993   36.9523   44.2687 H   0  0  0  0  0  0  0  0  0  0  0  0
   45.0572   36.4773   42.0205 H   0  0  0  0  0  0  0  0  0  0  0  0
   46.1020   33.8989   47.0846 H   0  0  0  0  0  0  0  0  0  0  0  0
   44.8910   32.7284   46.3941 H   0  0  0  0  0  0  0  0  0  0  0  0
   47.2861   31.9120   46.9692 H   0  0  0  0  0  0  0  0  0  0  0  0
   46.5037   31.4141   45.4308 H   0  0  0  0  0  0  0  0  0  0  0  0
   47.7313   32.7255   45.4308 H   0  0  0  0  0  0  0  0  0  0  0  0
   45.3377   32.1011   38.5654 H   0  0  0  0  0  0  0  0  0  0  0  0
   45.4535   33.5661   37.5325 H   0  0  0  0  0  0  0  0  0  0  0  0
   46.7843   32.3597   37.5325 H   0  0  0  0  0  0  0  0  0  0  0  0
  1 11  1  0
  2  1  1  0
  3  2  2  0
  4  3  1  0
  4  6  1  0
  5  4  2  0
  6  7  1  0
  7  1  1  0
  7  8  2  0
  9 14  2  0
 10  9  1  0
 11 10  2  0
 11 12  1  0
 12 13  2  0
 13 14  1  0
 13 15  1  0
 16 15  1  0
 17  3  1  0
  2 18  1  0
  6 19  1  0
  9 20  1  0
 10 21  1  0
 15 22  1  0
 15 23  1  0
 16 24  1  0
 16 25  1  0
 16 26  1  0
 17 27  1  0
 17 28  1  0
 17 29  1  0
M  ISO  8  18  14  19   9  20  14  21  14  22   8  23   8  24   8  25   8
M  ISO  4  26   8  27   8  28   8  29   8
M  END
>  <minimizedAffinity>  (1) 
-5.12490749

>  <minimizedRMSD>  (1) 
0.0850419998

$$$$
