
     RDKit          3D

 24 25  0  0  0  0  0  0  0  0999 V2000
   46.5960   34.4260   41.5310 N   0  0  0  0  0  0  0  0  0  0  0  0
   46.0200   33.8010   40.4890 C   0  0  0  0  0  0  0  0  0  0  0  0
   46.6460   33.6180   39.2820 C   0  0  0  0  0  0  0  0  0  0  0  0
   47.9340   34.1340   39.2220 C   0  0  0  0  0  0  0  0  0  0  0  0
   48.5830   34.0070   38.1400 O   0  0  0  0  0  0  0  0  0  0  0  0
   48.5460   34.7740   40.2640 N   0  0  0  0  0  0  0  0  0  0  0  0
   47.8540   34.9120   41.4260 C   0  0  0  0  0  0  0  0  0  0  0  0
   48.4670   35.5040   42.3340 O   0  0  0  0  0  0  0  0  0  0  0  0
   44.6570   36.0490   44.2100 C   0  0  0  0  0  0  0  0  0  0  0  0
   45.2410   35.8070   42.9350 C   0  0  0  0  0  0  0  0  0  0  0  0
   46.0220   34.6540   42.8040 C   0  0  0  0  0  0  0  0  0  0  0  0
   46.1840   33.8280   43.8930 N   0  0  0  0  0  0  0  0  0  0  0  0
   45.6110   34.1010   45.0770 C   0  0  0  0  0  0  0  0  0  0  0  0
   44.8460   35.2130   45.2380 N   0  0  0  0  0  0  0  0  0  0  0  0
   45.9300   33.1200   45.9920 O   0  0  0  0  0  0  0  0  0  0  0  0
   46.0010   32.9310   38.1600 C   0  0  0  0  0  0  0  0  0  0  0  0
   44.9962   33.4175   40.6104 H   0  0  0  0  0  0  0  0  0  0  0  0
   49.5039   35.1410   40.1711 H   0  0  0  0  0  0  0  0  0  0  0  0
   44.0352   36.9449   44.3541 H   0  0  0  0  0  0  0  0  0  0  0  0
   45.0853   36.4952   42.0911 H   0  0  0  0  0  0  0  0  0  0  0  0
   45.5833   33.1749   46.9177 H   0  0  0  0  0  0  0  0  0  0  0  0
   45.2960   32.1801   38.5462 H   0  0  0  0  0  0  0  0  0  0  0  0
   45.4566   33.6633   37.5457 H   0  0  0  0  0  0  0  0  0  0  0  0
   46.7662   32.4338   37.5457 H   0  0  0  0  0  0  0  0  0  0  0  0
  1 11  1  0
  2  1  1  0
  3  2  2  0
  4  3  1  0
  4  6  1  0
  5  4  2  0
  6  7  1  0
  7  1  1  0
  7  8  2  0
  9 14  2  0
 10  9  1  0
 11 10  2  0
 11 12  1  0
 12 13  2  0
 13 14  1  0
 13 15  1  0
 16  3  1  0
  2 17  1  0
  6 18  1  0
  9 19  1  0
 10 20  1  0
 15 21  1  0
 16 22  1  0
 16 23  1  0
 16 24  1  0
M  ISO  8  17  14  18   9  19  14  20  14  21   3  22   8  23   8  24   8
M  END
>  <minimizedAffinity>  (1) 
-5.02005768

>  <minimizedRMSD>  (1) 
0.03923833

$$$$
