
     RDKit          3D

 39 41  0  0  0  0  0  0  0  0999 V2000
   46.4630   34.2080   41.6100 N   0  0  0  0  0  0  0  0  0  0  0  0
   45.7920   33.6150   40.6090 C   0  0  0  0  0  0  0  0  0  0  0  0
   46.3080   33.4900   39.3380 C   0  0  0  0  0  0  0  0  0  0  0  0
   47.5750   34.0250   39.1820 C   0  0  0  0  0  0  0  0  0  0  0  0
   48.1160   33.9450   38.0250 O   0  0  0  0  0  0  0  0  0  0  0  0
   48.2660   34.6250   40.1740 N   0  0  0  0  0  0  0  0  0  0  0  0
   47.6950   34.7140   41.4030 C   0  0  0  0  0  0  0  0  0  0  0  0
   48.3790   35.2770   42.2810 O   0  0  0  0  0  0  0  0  0  0  0  0
   44.6620   35.6880   44.4750 C   0  0  0  0  0  0  0  0  0  0  0  0
   45.1330   35.4890   43.1440 C   0  0  0  0  0  0  0  0  0  0  0  0
   46.0100   34.3850   42.9350 C   0  0  0  0  0  0  0  0  0  0  0  0
   46.3150   33.6330   44.0040 N   0  0  0  0  0  0  0  0  0  0  0  0
   45.8600   33.8440   45.2380 C   0  0  0  0  0  0  0  0  0  0  0  0
   45.0270   34.8800   45.4760 N   0  0  0  0  0  0  0  0  0  0  0  0
   46.2510   32.9720   46.3260 C   0  0  0  0  0  0  0  0  0  0  0  0
   45.7630   31.8330   46.4560 O   0  0  0  0  0  0  0  0  0  0  0  0
   47.1770   33.3420   47.2780 O   0  0  0  0  0  0  0  0  0  0  0  0
   45.5650   32.8360   38.2580 C   0  0  0  0  0  0  0  0  0  0  0  0
   44.1500   33.0750   38.2690 N   0  0  0  0  0  0  0  0  0  0  0  0
   43.4420   34.1430   38.6770 C   0  0  0  0  0  0  0  0  0  0  0  0
   42.0700   34.1520   38.5900 C   0  0  0  0  0  0  0  0  0  0  0  0
   41.3130   35.3660   39.0530 C   0  0  0  0  0  0  0  0  0  0  0  0
   41.3210   33.1070   38.0930 C   0  0  0  0  0  0  0  0  0  0  0  0
   40.0720   33.1850   38.0440 O   0  0  0  0  0  0  0  0  0  0  0  0
   42.0440   32.0250   37.6790 N   0  0  0  0  0  0  0  0  0  0  0  0
   43.3860   32.0460   37.7780 C   0  0  0  0  0  0  0  0  0  0  0  0
   43.9500   30.9830   37.3630 O   0  0  0  0  0  0  0  0  0  0  0  0
   44.7888   33.2125   40.8126 H   0  0  0  0  0  0  0  0  0  0  0  0
   49.2069   35.0075   40.0025 H   0  0  0  0  0  0  0  0  0  0  0  0
   43.9816   36.5268   44.6835 H   0  0  0  0  0  0  0  0  0  0  0  0
   44.8346   36.1539   42.3201 H   0  0  0  0  0  0  0  0  0  0  0  0
   47.4161   32.7150   48.0059 H   0  0  0  0  0  0  0  0  0  0  0  0
   45.7292   31.7513   38.3380 H   0  0  0  0  0  0  0  0  0  0  0  0
   45.9437   33.2648   37.3185 H   0  0  0  0  0  0  0  0  0  0  0  0
   43.9667   35.0195   39.0850 H   0  0  0  0  0  0  0  0  0  0  0  0
   41.2974   35.3911   40.1526 H   0  0  0  0  0  0  0  0  0  0  0  0
   41.8061   36.2727   38.6725 H   0  0  0  0  0  0  0  0  0  0  0  0
   40.2818   35.3223   38.6725 H   0  0  0  0  0  0  0  0  0  0  0  0
   41.5654   31.1984   37.2936 H   0  0  0  0  0  0  0  0  0  0  0  0
  1 11  1  0
  2  1  1  0
  3  2  2  0
  4  3  1  0
  4  6  1  0
  5  4  2  0
  6  7  1  0
  7  1  1  0
  7  8  2  0
  9 14  2  0
 10  9  1  0
 11 10  2  0
 11 12  1  0
 12 13  2  0
 13 14  1  0
 13 15  1  0
 15 16  2  0
 15 17  1  0
 18 19  1  0
 18  3  1  0
 19 20  1  0
 21 20  2  0
 21 22  1  0
 23 21  1  0
 24 23  2  0
 25 26  1  0
 25 23  1  0
 26 19  1  0
 27 26  2  0
  2 28  1  0
  6 29  1  0
  9 30  1  0
 10 31  1  0
 17 32  1  0
 18 33  1  0
 18 34  1  0
 20 35  1  0
 22 36  1  0
 22 37  1  0
 22 38  1  0
 25 39  1  0
M  ISO  8  28  14  29   9  30  14  31  14  32   3  33   8  34   8  35  14
M  ISO  4  36   8  37   8  38   8  39   9
M  END
>  <minimizedAffinity>  (1) 
-6.64007902

>  <minimizedRMSD>  (1) 
3.93115449

$$$$
