
     RDKit          3D

 33 34  0  0  0  0  0  0  0  0999 V2000
   46.7630   34.1870   41.0910 N   0  0  0  0  0  0  0  0  0  0  0  0
   46.2950   33.3910   40.1190 C   0  0  0  0  0  0  0  0  0  0  0  0
   46.8960   33.2610   38.8920 C   0  0  0  0  0  0  0  0  0  0  0  0
   48.0320   34.0160   38.7240 C   0  0  0  0  0  0  0  0  0  0  0  0
   48.6390   33.9390   37.6010 O   0  0  0  0  0  0  0  0  0  0  0  0
   48.5310   34.8240   39.6750 N   0  0  0  0  0  0  0  0  0  0  0  0
   47.8960   34.9120   40.8660 C   0  0  0  0  0  0  0  0  0  0  0  0
   48.4150   35.6820   41.7110 O   0  0  0  0  0  0  0  0  0  0  0  0
   44.7870   35.6840   43.8080 C   0  0  0  0  0  0  0  0  0  0  0  0
   45.3460   35.4660   42.5130 C   0  0  0  0  0  0  0  0  0  0  0  0
   46.2260   34.3850   42.3710 C   0  0  0  0  0  0  0  0  0  0  0  0
   46.4850   33.6250   43.4710 N   0  0  0  0  0  0  0  0  0  0  0  0
   45.9470   33.8520   44.6740 C   0  0  0  0  0  0  0  0  0  0  0  0
   45.0940   34.8860   44.8440 N   0  0  0  0  0  0  0  0  0  0  0  0
   46.2660   33.0010   45.7950 C   0  0  0  0  0  0  0  0  0  0  0  0
   45.9280   31.7950   45.8210 O   0  0  0  0  0  0  0  0  0  0  0  0
   46.9550   33.4480   46.8940 O   0  0  0  0  0  0  0  0  0  0  0  0
   46.3530   32.3600   37.8690 C   0  0  0  0  0  0  0  0  0  0  0  0
   46.0440   33.1710   36.6950 N   0  0  0  0  0  0  0  0  0  0  0  0
   45.9970   32.5480   35.4030 C   0  0  0  0  0  0  0  0  0  0  0  0
   46.8730   31.6070   35.1610 N   0  0  0  0  0  0  0  0  0  0  0  0
   45.0040   32.9840   34.4540 N   0  0  0  0  0  0  0  0  0  0  0  0
   46.8140   31.1690   34.2070 H   0  0  0  0  0  0  0  0  0  0  0  0
   45.3809   32.8114   40.3153 H   0  0  0  0  0  0  0  0  0  0  0  0
   49.3867   35.3697   39.4990 H   0  0  0  0  0  0  0  0  0  0  0  0
   44.0910   36.5220   43.9607 H   0  0  0  0  0  0  0  0  0  0  0  0
   45.0967   36.1184   41.6632 H   0  0  0  0  0  0  0  0  0  0  0  0
   47.1519   32.8283   47.6406 H   0  0  0  0  0  0  0  0  0  0  0  0
   47.0970   31.5921   37.6107 H   0  0  0  0  0  0  0  0  0  0  0  0
   45.4508   31.8505   38.2384 H   0  0  0  0  0  0  0  0  0  0  0  0
   45.8616   34.1800   36.7930 H   0  0  0  0  0  0  0  0  0  0  0  0
   44.9558   32.5480   33.5221 H   0  0  0  0  0  0  0  0  0  0  0  0
   44.3425   33.7316   34.7076 H   0  0  0  0  0  0  0  0  0  0  0  0
  1 11  1  0
  2  1  1  0
  3  2  2  0
  4  3  1  0
  4  6  1  0
  5  4  2  0
  6  7  1  0
  7  1  1  0
  7  8  2  0
  9 14  2  0
 10  9  1  0
 11 10  2  0
 11 12  1  0
 12 13  2  0
 13 14  1  0
 13 15  1  0
 15 16  2  0
 15 17  1  0
 18  3  1  0
 19 18  1  0
 20 19  1  0
 21 20  2  0
 22 20  1  0
 23 21  1  0
  2 24  1  0
  6 25  1  0
  9 26  1  0
 10 27  1  0
 17 28  1  0
 18 29  1  0
 18 30  1  0
 19 31  1  0
 22 32  1  0
 22 33  1  0
M  ISO  7  24  14  25   9  26  14  27  14  28   3  29   8  30   8
M  END
>  <minimizedAffinity>  (1) 
-6.46764803

>  <minimizedRMSD>  (1) 
2.0097425

$$$$
