
     RDKit          3D

 42 45  0  0  0  0  0  0  0  0999 V2000
   46.7230   34.3760   41.4090 N   0  0  0  0  0  0  0  0  0  0  0  0
   46.1530   33.7300   40.3560 C   0  0  0  0  0  0  0  0  0  0  0  0
   46.7460   33.6500   39.1250 C   0  0  0  0  0  0  0  0  0  0  0  0
   47.9650   34.2750   39.0380 C   0  0  0  0  0  0  0  0  0  0  0  0
   48.5970   34.2540   37.9230 O   0  0  0  0  0  0  0  0  0  0  0  0
   48.5660   34.9310   40.0710 N   0  0  0  0  0  0  0  0  0  0  0  0
   47.9250   34.9740   41.2640 C   0  0  0  0  0  0  0  0  0  0  0  0
   48.5120   35.5810   42.1670 O   0  0  0  0  0  0  0  0  0  0  0  0
   44.7050   35.7250   44.1870 C   0  0  0  0  0  0  0  0  0  0  0  0
   45.2630   35.5760   42.8850 C   0  0  0  0  0  0  0  0  0  0  0  0
   46.1840   34.5060   42.7010 C   0  0  0  0  0  0  0  0  0  0  0  0
   46.4590   33.7200   43.7610 N   0  0  0  0  0  0  0  0  0  0  0  0
   45.9170   33.8860   44.9730 C   0  0  0  0  0  0  0  0  0  0  0  0
   45.0380   34.8920   45.1840 N   0  0  0  0  0  0  0  0  0  0  0  0
   46.2620   33.0030   46.0600 C   0  0  0  0  0  0  0  0  0  0  0  0
   45.8680   31.8230   46.0890 O   0  0  0  0  0  0  0  0  0  0  0  0
   47.0370   33.3930   47.1230 O   0  0  0  0  0  0  0  0  0  0  0  0
   46.1220   32.9570   38.0020 C   0  0  0  0  0  0  0  0  0  0  0  0
   46.8210   31.6770   37.6890 C   0  0  0  0  0  0  0  0  0  0  0  0
   47.1510   30.7720   38.6640 C   0  0  0  0  0  0  0  0  0  0  0  0
   47.7960   29.5800   38.4180 C   0  0  0  0  0  0  0  0  0  0  0  0
   48.1270   29.2850   37.1120 C   0  0  0  0  0  0  0  0  0  0  0  0
   47.8110   30.1750   36.1010 C   0  0  0  0  0  0  0  0  0  0  0  0
   48.1340   29.8920   34.8010 C   0  0  0  0  0  0  0  0  0  0  0  0
   47.7950   30.8150   33.8330 C   0  0  0  0  0  0  0  0  0  0  0  0
   47.1510   32.0000   34.0990 C   0  0  0  0  0  0  0  0  0  0  0  0
   46.8250   32.2820   35.4120 C   0  0  0  0  0  0  0  0  0  0  0  0
   47.1620   31.3630   36.3840 C   0  0  0  0  0  0  0  0  0  0  0  0
   45.1732   33.2513   40.5002 H   0  0  0  0  0  0  0  0  0  0  0  0
   49.4836   35.3823   39.9478 H   0  0  0  0  0  0  0  0  0  0  0  0
   43.9885   36.5374   44.3781 H   0  0  0  0  0  0  0  0  0  0  0  0
   44.9954   36.2546   42.0617 H   0  0  0  0  0  0  0  0  0  0  0  0
   47.2464   32.7493   47.8454 H   0  0  0  0  0  0  0  0  0  0  0  0
   45.0740   32.7387   38.2552 H   0  0  0  0  0  0  0  0  0  0  0  0
   46.1854   33.6084   37.1179 H   0  0  0  0  0  0  0  0  0  0  0  0
   46.8851   31.0117   39.7041 H   0  0  0  0  0  0  0  0  0  0  0  0
   48.0391   28.8862   39.2363 H   0  0  0  0  0  0  0  0  0  0  0  0
   48.6420   28.3425   36.8743 H   0  0  0  0  0  0  0  0  0  0  0  0
   48.6485   28.9565   34.5361 H   0  0  0  0  0  0  0  0  0  0  0  0
   48.0551   30.5896   32.7882 H   0  0  0  0  0  0  0  0  0  0  0  0
   46.9024   32.7032   33.2904 H   0  0  0  0  0  0  0  0  0  0  0  0
   46.3091   33.2170   35.6758 H   0  0  0  0  0  0  0  0  0  0  0  0
  1 11  1  0
  2  1  1  0
  3  2  2  0
  4  3  1  0
  4  6  1  0
  5  4  2  0
  6  7  1  0
  7  1  1  0
  7  8  2  0
  9 14  2  0
 10  9  1  0
 11 10  2  0
 11 12  1  0
 12 13  2  0
 13 14  1  0
 13 15  1  0
 15 16  2  0
 15 17  1  0
 18  3  1  0
 19 18  1  0
 19 20  2  0
 21 20  1  0
 22 21  2  0
 23 28  2  0
 23 22  1  0
 24 23  1  0
 25 26  1  0
 25 24  2  0
 26 27  2  0
 27 28  1  0
 28 19  1  0
  2 29  1  0
  6 30  1  0
  9 31  1  0
 10 32  1  0
 17 33  1  0
 18 34  1  0
 18 35  1  0
 20 36  1  0
 21 37  1  0
 22 38  1  0
 24 39  1  0
 25 40  1  0
 26 41  1  0
 27 42  1  0
M  ISO  8  29  14  30   9  31  14  32  14  33   3  34   8  35   8  36  14
M  ISO  6  37  14  38  14  39  14  40  14  41  14  42  14
M  END
>  <minimizedAffinity>  (1) 
-6.23704576

>  <minimizedRMSD>  (1) 
3.90648508

$$$$
