
     RDKit          3D

 36 38  0  0  0  0  0  0  0  0999 V2000
   46.6120   34.2920   41.5190 N   0  0  0  0  0  0  0  0  0  0  0  0
   46.0160   33.6640   40.4810 C   0  0  0  0  0  0  0  0  0  0  0  0
   46.5900   33.5600   39.2380 C   0  0  0  0  0  0  0  0  0  0  0  0
   47.8280   34.1450   39.1220 C   0  0  0  0  0  0  0  0  0  0  0  0
   48.4290   34.0920   38.0010 O   0  0  0  0  0  0  0  0  0  0  0  0
   48.4510   34.7770   40.1330 N   0  0  0  0  0  0  0  0  0  0  0  0
   47.8340   34.8490   41.3390 C   0  0  0  0  0  0  0  0  0  0  0  0
   48.4570   35.4450   42.2340 O   0  0  0  0  0  0  0  0  0  0  0  0
   44.6900   35.6650   44.3360 C   0  0  0  0  0  0  0  0  0  0  0  0
   45.2050   35.5030   43.0150 C   0  0  0  0  0  0  0  0  0  0  0  0
   46.1080   34.4480   42.8140 C   0  0  0  0  0  0  0  0  0  0  0  0
   46.4180   33.6650   43.8850 N   0  0  0  0  0  0  0  0  0  0  0  0
   45.9150   33.8460   45.1090 C   0  0  0  0  0  0  0  0  0  0  0  0
   45.0500   34.8470   45.3340 N   0  0  0  0  0  0  0  0  0  0  0  0
   46.2910   32.9730   46.2000 C   0  0  0  0  0  0  0  0  0  0  0  0
   45.8630   31.7890   46.2640 O   0  0  0  0  0  0  0  0  0  0  0  0
   47.1240   33.3700   47.2190 O   0  0  0  0  0  0  0  0  0  0  0  0
   45.9320   32.8760   38.1230 C   0  0  0  0  0  0  0  0  0  0  0  0
   44.4720   32.8730   38.1790 C   0  0  0  0  0  0  0  0  0  0  0  0
   43.6290   33.9220   38.4830 C   0  0  0  0  0  0  0  0  0  0  0  0
   42.2550   33.7930   38.5030 C   0  0  0  0  0  0  0  0  0  0  0  0
   41.7350   32.5400   38.2000 C   0  0  0  0  0  0  0  0  0  0  0  0
   42.5030   31.4590   37.8920 C   0  0  0  0  0  0  0  0  0  0  0  0
   43.8770   31.6380   37.8840 C   0  0  0  0  0  0  0  0  0  0  0  0
   45.0244   33.2151   40.6395 H   0  0  0  0  0  0  0  0  0  0  0  0
   49.3803   35.1989   39.9938 H   0  0  0  0  0  0  0  0  0  0  0  0
   43.9807   36.4808   44.5396 H   0  0  0  0  0  0  0  0  0  0  0  0
   44.9085   36.1726   42.1942 H   0  0  0  0  0  0  0  0  0  0  0  0
   47.3539   32.7377   47.9452 H   0  0  0  0  0  0  0  0  0  0  0  0
   46.2758   31.8311   38.1123 H   0  0  0  0  0  0  0  0  0  0  0  0
   46.2049   33.4333   37.2147 H   0  0  0  0  0  0  0  0  0  0  0  0
   44.0701   34.9016   38.7192 H   0  0  0  0  0  0  0  0  0  0  0  0
   41.6012   34.6431   38.7476 H   0  0  0  0  0  0  0  0  0  0  0  0
   40.6422   32.4150   38.2096 H   0  0  0  0  0  0  0  0  0  0  0  0
   42.0513   30.4834   37.6590 H   0  0  0  0  0  0  0  0  0  0  0  0
   44.5229   30.7823   37.6379 H   0  0  0  0  0  0  0  0  0  0  0  0
  1 11  1  0
  2  1  1  0
  3  2  2  0
  4  3  1  0
  4  6  1  0
  5  4  2  0
  6  7  1  0
  7  1  1  0
  7  8  2  0
  9 14  2  0
 10  9  1  0
 11 10  2  0
 11 12  1  0
 12 13  2  0
 13 14  1  0
 13 15  1  0
 15 16  2  0
 15 17  1  0
 18 19  1  0
 18  3  1  0
 19 20  2  0
 20 21  1  0
 22 21  2  0
 23 22  1  0
 24 23  2  0
 24 19  1  0
  2 25  1  0
  6 26  1  0
  9 27  1  0
 10 28  1  0
 17 29  1  0
 18 30  1  0
 18 31  1  0
 20 32  1  0
 21 33  1  0
 22 34  1  0
 23 35  1  0
 24 36  1  0
M  ISO  8  25  14  26   9  27  14  28  14  29   3  30   8  31   8  32  14
M  ISO  4  33  14  34  14  35  14  36  14
M  END
>  <minimizedAffinity>  (1) 
-6.07973528

>  <minimizedRMSD>  (1) 
0.731284797

$$$$
