
     RDKit          3D

 33 35  0  0  0  0  0  0  0  0999 V2000
   46.6390   34.2850   41.4740 N   0  0  0  0  0  0  0  0  0  0  0  0
   46.0820   33.5910   40.4560 C   0  0  0  0  0  0  0  0  0  0  0  0
   46.6480   33.4790   39.2140 C   0  0  0  0  0  0  0  0  0  0  0  0
   47.8520   34.1430   39.0830 C   0  0  0  0  0  0  0  0  0  0  0  0
   48.4590   34.0960   37.9540 O   0  0  0  0  0  0  0  0  0  0  0  0
   48.4440   34.8490   40.0740 N   0  0  0  0  0  0  0  0  0  0  0  0
   47.8280   34.9170   41.2770 C   0  0  0  0  0  0  0  0  0  0  0  0
   48.4110   35.5760   42.1550 O   0  0  0  0  0  0  0  0  0  0  0  0
   44.6920   35.6840   44.2630 C   0  0  0  0  0  0  0  0  0  0  0  0
   45.2240   35.5070   42.9540 C   0  0  0  0  0  0  0  0  0  0  0  0
   46.1240   34.4470   42.7680 C   0  0  0  0  0  0  0  0  0  0  0  0
   46.4230   33.6730   43.8410 N   0  0  0  0  0  0  0  0  0  0  0  0
   45.9070   33.8670   45.0530 C   0  0  0  0  0  0  0  0  0  0  0  0
   45.0440   34.8640   45.2770 N   0  0  0  0  0  0  0  0  0  0  0  0
   46.2720   32.9950   46.1590 C   0  0  0  0  0  0  0  0  0  0  0  0
   45.8460   31.8150   46.2300 O   0  0  0  0  0  0  0  0  0  0  0  0
   47.0920   33.3890   47.1810 O   0  0  0  0  0  0  0  0  0  0  0  0
   46.0360   32.7270   38.1280 C   0  0  0  0  0  0  0  0  0  0  0  0
   44.5640   32.8810   38.1430 C   0  0  0  0  0  0  0  0  0  0  0  0
   43.7360   33.8330   38.7030 C   0  0  0  0  0  0  0  0  0  0  0  0
   42.4450   33.4290   38.3720 C   0  0  0  0  0  0  0  0  0  0  0  0
   42.4930   32.2910   37.6490 N   0  0  0  0  0  0  0  0  0  0  0  0
   43.7620   31.9900   37.5290 N   0  0  0  0  0  0  0  0  0  0  0  0
   45.1203   33.0881   40.6355 H   0  0  0  0  0  0  0  0  0  0  0  0
   49.3440   35.3244   39.9161 H   0  0  0  0  0  0  0  0  0  0  0  0
   43.9820   36.5028   44.4517 H   0  0  0  0  0  0  0  0  0  0  0  0
   44.9416   36.1724   42.1248 H   0  0  0  0  0  0  0  0  0  0  0  0
   47.3108   32.7577   47.9115 H   0  0  0  0  0  0  0  0  0  0  0  0
   46.2879   31.6622   38.2406 H   0  0  0  0  0  0  0  0  0  0  0  0
   46.4202   33.1137   37.1725 H   0  0  0  0  0  0  0  0  0  0  0  0
   44.0318   34.7186   39.2845 H   0  0  0  0  0  0  0  0  0  0  0  0
   41.5240   33.9585   38.6573 H   0  0  0  0  0  0  0  0  0  0  0  0
   41.6933   31.7652   37.2683 H   0  0  0  0  0  0  0  0  0  0  0  0
  1 11  1  0
  2  1  1  0
  3  2  2  0
  4  3  1  0
  4  6  1  0
  5  4  2  0
  6  7  1  0
  7  1  1  0
  7  8  2  0
  9 14  2  0
 10  9  1  0
 11 10  2  0
 11 12  1  0
 12 13  2  0
 13 14  1  0
 13 15  1  0
 15 16  2  0
 15 17  1  0
 18 19  1  0
 18  3  1  0
 19 20  1  0
 21 20  2  0
 22 21  1  0
 23 22  1  0
 23 19  2  0
  2 24  1  0
  6 25  1  0
  9 26  1  0
 10 27  1  0
 17 28  1  0
 18 29  1  0
 18 30  1  0
 20 31  1  0
 21 32  1  0
 22 33  1  0
M  ISO  8  24  14  25   9  26  14  27  14  28   3  29   8  30   8  31  14
M  ISO  2  32  14  33   9
M  END
>  <minimizedAffinity>  (1) 
-5.99413443

>  <minimizedRMSD>  (1) 
0.646946907

$$$$
