
     RDKit          3D

 41 43  0  0  0  0  0  0  0  0999 V2000
   46.7700   34.2430   41.5240 N   0  0  0  0  0  0  0  0  0  0  0  0
   46.3070   33.4370   40.5360 C   0  0  0  0  0  0  0  0  0  0  0  0
   46.8860   33.3390   39.3070 C   0  0  0  0  0  0  0  0  0  0  0  0
   48.0060   34.1420   39.1410 C   0  0  0  0  0  0  0  0  0  0  0  0
   48.6330   34.1320   38.0270 O   0  0  0  0  0  0  0  0  0  0  0  0
   48.5000   34.9630   40.1100 N   0  0  0  0  0  0  0  0  0  0  0  0
   47.8730   35.0090   41.3090 C   0  0  0  0  0  0  0  0  0  0  0  0
   48.3600   35.7690   42.1530 O   0  0  0  0  0  0  0  0  0  0  0  0
   44.7420   35.6340   44.2660 C   0  0  0  0  0  0  0  0  0  0  0  0
   45.3070   35.4520   42.9780 C   0  0  0  0  0  0  0  0  0  0  0  0
   46.2330   34.3950   42.8030 C   0  0  0  0  0  0  0  0  0  0  0  0
   46.5130   33.6260   43.8920 N   0  0  0  0  0  0  0  0  0  0  0  0
   45.9590   33.8310   45.0920 C   0  0  0  0  0  0  0  0  0  0  0  0
   45.0730   34.8310   45.2890 N   0  0  0  0  0  0  0  0  0  0  0  0
   46.3100   32.9670   46.2040 C   0  0  0  0  0  0  0  0  0  0  0  0
   45.8660   31.7950   46.2900 O   0  0  0  0  0  0  0  0  0  0  0  0
   47.1450   33.3710   47.2250 O   0  0  0  0  0  0  0  0  0  0  0  0
   46.3900   32.4750   38.2470 C   0  0  0  0  0  0  0  0  0  0  0  0
   45.4400   33.1120   37.3930 N   0  0  0  0  0  0  0  0  0  0  0  0
   45.4470   32.7010   36.0270 C   0  0  0  0  0  0  0  0  0  0  0  0
   44.8460   31.3530   35.8290 C   0  0  0  0  0  0  0  0  0  0  0  0
   43.9300   30.8790   36.9010 C   0  0  0  0  0  0  0  0  0  0  0  0
   43.2900   31.9310   37.7290 C   0  0  0  0  0  0  0  0  0  0  0  0
   44.1040   33.1830   37.8800 C   0  0  0  0  0  0  0  0  0  0  0  0
   45.4136   32.8282   40.7388 H   0  0  0  0  0  0  0  0  0  0  0  0
   49.3358   35.5385   39.9333 H   0  0  0  0  0  0  0  0  0  0  0  0
   44.0199   36.4475   44.4293 H   0  0  0  0  0  0  0  0  0  0  0  0
   45.0344   36.1115   42.1409 H   0  0  0  0  0  0  0  0  0  0  0  0
   47.3586   32.7492   47.9651 H   0  0  0  0  0  0  0  0  0  0  0  0
   47.2440   32.1481   37.6356 H   0  0  0  0  0  0  0  0  0  0  0  0
   45.8766   31.6307   38.7304 H   0  0  0  0  0  0  0  0  0  0  0  0
   44.8744   33.4316   35.4368 H   0  0  0  0  0  0  0  0  0  0  0  0
   46.4964   32.6478   35.7016 H   0  0  0  0  0  0  0  0  0  0  0  0
   44.2782   31.3736   34.8871 H   0  0  0  0  0  0  0  0  0  0  0  0
   45.6920   30.6499   35.8321 H   0  0  0  0  0  0  0  0  0  0  0  0
   43.1296   30.2942   36.4241 H   0  0  0  0  0  0  0  0  0  0  0  0
   44.5610   30.3028   37.5937 H   0  0  0  0  0  0  0  0  0  0  0  0
   42.3302   32.1989   37.2631 H   0  0  0  0  0  0  0  0  0  0  0  0
   43.1742   31.5087   38.7381 H   0  0  0  0  0  0  0  0  0  0  0  0
   44.1471   33.4313   38.9507 H   0  0  0  0  0  0  0  0  0  0  0  0
   43.6006   33.9444   37.2661 H   0  0  0  0  0  0  0  0  0  0  0  0
  1 11  1  0
  2  1  1  0
  3  2  2  0
  4  3  1  0
  4  6  1  0
  5  4  2  0
  6  7  1  0
  7  1  1  0
  7  8  2  0
  9 14  2  0
 10  9  1  0
 11 10  2  0
 11 12  1  0
 12 13  2  0
 13 14  1  0
 13 15  1  0
 15 16  2  0
 15 17  1  0
 18  3  1  0
 19 24  1  0
 19 18  1  0
 20 19  1  0
 21 20  1  0
 21 22  1  0
 22 23  1  0
 23 24  1  0
  2 25  1  0
  6 26  1  0
  9 27  1  0
 10 28  1  0
 17 29  1  0
 18 30  1  0
 18 31  1  0
 20 32  1  0
 20 33  1  0
 21 34  1  0
 21 35  1  0
 22 36  1  0
 22 37  1  0
 23 38  1  0
 23 39  1  0
 24 40  1  0
 24 41  1  0
M  ISO  8  25  14  26   9  27  14  28  14  29   3  30   8  31   8  32  13
M  ISO  8  33  13  34  13  35  13  36  13  37  13  38  13  39  13  40  13
M  ISO  1  41  13
M  END
>  <minimizedAffinity>  (1) 
-5.95692301

>  <minimizedRMSD>  (1) 
2.13779593

$$$$
