
     RDKit          3D

 31 33  0  0  0  0  0  0  0  0999 V2000
   46.6650   34.2870   41.4540 N   0  0  0  0  0  0  0  0  0  0  0  0
   46.1280   33.5840   40.4450 C   0  0  0  0  0  0  0  0  0  0  0  0
   46.7130   33.4790   39.2020 C   0  0  0  0  0  0  0  0  0  0  0  0
   47.8990   34.1600   39.0780 C   0  0  0  0  0  0  0  0  0  0  0  0
   48.4810   34.0920   37.9410 O   0  0  0  0  0  0  0  0  0  0  0  0
   48.4630   34.8730   40.0670 N   0  0  0  0  0  0  0  0  0  0  0  0
   47.8460   34.9390   41.2630 C   0  0  0  0  0  0  0  0  0  0  0  0
   48.4150   35.6130   42.1370 O   0  0  0  0  0  0  0  0  0  0  0  0
   44.7040   35.7240   44.2310 C   0  0  0  0  0  0  0  0  0  0  0  0
   45.2500   35.5270   42.9340 C   0  0  0  0  0  0  0  0  0  0  0  0
   46.1480   34.4510   42.7440 C   0  0  0  0  0  0  0  0  0  0  0  0
   46.4140   33.6920   43.8250 N   0  0  0  0  0  0  0  0  0  0  0  0
   45.8940   33.8900   45.0310 C   0  0  0  0  0  0  0  0  0  0  0  0
   45.0410   34.9000   45.2450 N   0  0  0  0  0  0  0  0  0  0  0  0
   46.2450   33.0140   46.1380 C   0  0  0  0  0  0  0  0  0  0  0  0
   45.8040   31.8430   46.2130 O   0  0  0  0  0  0  0  0  0  0  0  0
   47.0720   33.4030   47.1600 O   0  0  0  0  0  0  0  0  0  0  0  0
   46.0790   32.6940   38.1250 C   0  0  0  0  0  0  0  0  0  0  0  0
   44.6000   32.7560   38.4010 C   0  0  0  0  0  0  0  0  0  0  0  0
   43.7230   33.7530   38.2180 N   0  0  0  0  0  0  0  0  0  0  0  0
   42.5400   33.3770   38.5890 O   0  0  0  0  0  0  0  0  0  0  0  0
   42.6130   32.1490   39.0170 C   0  0  0  0  0  0  0  0  0  0  0  0
   43.8780   31.7420   38.9110 N   0  0  0  0  0  0  0  0  0  0  0  0
   45.1734   33.0658   40.6189 H   0  0  0  0  0  0  0  0  0  0  0  0
   49.3558   35.3630   39.9130 H   0  0  0  0  0  0  0  0  0  0  0  0
   44.0029   36.5526   44.4094 H   0  0  0  0  0  0  0  0  0  0  0  0
   44.9816   36.1930   42.1007 H   0  0  0  0  0  0  0  0  0  0  0  0
   47.2832   32.7722   47.8932 H   0  0  0  0  0  0  0  0  0  0  0  0
   46.4316   31.6523   38.1496 H   0  0  0  0  0  0  0  0  0  0  0  0
   46.3260   33.0919   37.1297 H   0  0  0  0  0  0  0  0  0  0  0  0
   41.7739   31.5499   39.4005 H   0  0  0  0  0  0  0  0  0  0  0  0
  1 11  1  0
  2  1  1  0
  3  2  2  0
  4  3  1  0
  4  6  1  0
  5  4  2  0
  6  7  1  0
  7  1  1  0
  7  8  2  0
  9 14  2  0
 10  9  1  0
 11 10  2  0
 11 12  1  0
 12 13  2  0
 13 14  1  0
 13 15  1  0
 15 16  2  0
 15 17  1  0
 18 19  1  0
 18  3  1  0
 19 23  1  0
 20 19  2  0
 20 21  1  0
 21 22  1  0
 23 22  2  0
  2 24  1  0
  6 25  1  0
  9 26  1  0
 10 27  1  0
 17 28  1  0
 18 29  1  0
 18 30  1  0
 22 31  1  0
M  ISO  8  24  14  25   9  26  14  27  14  28   3  29   8  30   8  31  14
M  END
>  <minimizedAffinity>  (1) 
-5.78622246

>  <minimizedRMSD>  (1) 
1.69921064

$$$$
