
     RDKit          3D

 39 41  0  0  0  0  0  0  0  0999 V2000
   46.6990   34.3760   41.4170 N   0  0  0  0  0  0  0  0  0  0  0  0
   46.1410   33.7650   40.3600 C   0  0  0  0  0  0  0  0  0  0  0  0
   46.7330   33.6730   39.1310 C   0  0  0  0  0  0  0  0  0  0  0  0
   47.9690   34.2670   39.0540 C   0  0  0  0  0  0  0  0  0  0  0  0
   48.5980   34.2300   37.9360 O   0  0  0  0  0  0  0  0  0  0  0  0
   48.5810   34.8980   40.0890 N   0  0  0  0  0  0  0  0  0  0  0  0
   47.9270   34.9450   41.2760 C   0  0  0  0  0  0  0  0  0  0  0  0
   48.5330   35.5380   42.1970 O   0  0  0  0  0  0  0  0  0  0  0  0
   44.7090   35.7430   44.2000 C   0  0  0  0  0  0  0  0  0  0  0  0
   45.2640   35.5810   42.8990 C   0  0  0  0  0  0  0  0  0  0  0  0
   46.1680   34.5150   42.7040 C   0  0  0  0  0  0  0  0  0  0  0  0
   46.4290   33.7370   43.7760 N   0  0  0  0  0  0  0  0  0  0  0  0
   45.9050   33.8960   44.9890 C   0  0  0  0  0  0  0  0  0  0  0  0
   45.0350   34.9100   45.2040 N   0  0  0  0  0  0  0  0  0  0  0  0
   46.2500   33.0050   46.0780 C   0  0  0  0  0  0  0  0  0  0  0  0
   45.8460   31.8160   46.0960 O   0  0  0  0  0  0  0  0  0  0  0  0
   47.0280   33.3950   47.1410 O   0  0  0  0  0  0  0  0  0  0  0  0
   46.0930   32.9970   38.0080 C   0  0  0  0  0  0  0  0  0  0  0  0
   46.2680   31.5710   38.1780 N   0  0  0  0  0  0  0  0  0  0  0  0
   47.1650   31.0020   37.2130 C   0  0  0  0  0  0  0  0  0  0  0  0
   46.5210   30.4410   35.9900 C   0  0  0  0  0  0  0  0  0  0  0  0
   45.2580   29.9030   36.1870 O   0  0  0  0  0  0  0  0  0  0  0  0
   44.4280   30.7580   36.9080 C   0  0  0  0  0  0  0  0  0  0  0  0
   45.0210   30.8690   38.2960 C   0  0  0  0  0  0  0  0  0  0  0  0
   45.1476   33.3110   40.4905 H   0  0  0  0  0  0  0  0  0  0  0  0
   49.5108   35.3266   39.9763 H   0  0  0  0  0  0  0  0  0  0  0  0
   44.0011   36.5639   44.3872 H   0  0  0  0  0  0  0  0  0  0  0  0
   44.9981   36.2613   42.0765 H   0  0  0  0  0  0  0  0  0  0  0  0
   47.2382   32.7512   47.8631 H   0  0  0  0  0  0  0  0  0  0  0  0
   46.5589   33.3193   37.0651 H   0  0  0  0  0  0  0  0  0  0  0  0
   45.0222   33.2466   37.9751 H   0  0  0  0  0  0  0  0  0  0  0  0
   47.8657   31.7887   36.8965 H   0  0  0  0  0  0  0  0  0  0  0  0
   47.6499   30.1522   37.7157 H   0  0  0  0  0  0  0  0  0  0  0  0
   47.1722   29.6473   35.5950 H   0  0  0  0  0  0  0  0  0  0  0  0
   46.3910   31.2848   35.2964 H   0  0  0  0  0  0  0  0  0  0  0  0
   44.3951   31.7478   36.4292 H   0  0  0  0  0  0  0  0  0  0  0  0
   43.3987   30.3719   36.9465 H   0  0  0  0  0  0  0  0  0  0  0  0
   45.1930   29.8654   38.7122 H   0  0  0  0  0  0  0  0  0  0  0  0
   44.3359   31.4067   38.9680 H   0  0  0  0  0  0  0  0  0  0  0  0
  1 11  1  0
  2  1  1  0
  3  2  2  0
  4  3  1  0
  4  6  1  0
  5  4  2  0
  6  7  1  0
  7  1  1  0
  7  8  2  0
  9 14  2  0
 10  9  1  0
 11 10  2  0
 11 12  1  0
 12 13  2  0
 13 14  1  0
 13 15  1  0
 15 16  2  0
 15 17  1  0
 18 19  1  0
 18  3  1  0
 19 24  1  0
 20 19  1  0
 21 22  1  0
 21 20  1  0
 22 23  1  0
 23 24  1  0
  2 25  1  0
  6 26  1  0
  9 27  1  0
 10 28  1  0
 17 29  1  0
 18 30  1  0
 18 31  1  0
 20 32  1  0
 20 33  1  0
 21 34  1  0
 21 35  1  0
 23 36  1  0
 23 37  1  0
 24 38  1  0
 24 39  1  0
M  ISO  8  25  14  26   9  27  14  28  14  29   3  30   8  31   8  32  13
M  ISO  7  33  13  34  13  35  13  36  13  37  13  38  13  39  13
M  END
>  <minimizedAffinity>  (1) 
-5.72679663

>  <minimizedRMSD>  (1) 
1.33715177

$$$$
