
     RDKit          3D

 35 37  0  0  0  0  0  0  0  0999 V2000
   46.7360   34.4080   41.4260 N   0  0  0  0  0  0  0  0  0  0  0  0
   46.1680   33.7810   40.3580 C   0  0  0  0  0  0  0  0  0  0  0  0
   46.7990   33.7220   39.1320 C   0  0  0  0  0  0  0  0  0  0  0  0
   48.0230   34.3340   39.0690 C   0  0  0  0  0  0  0  0  0  0  0  0
   48.6400   34.3050   37.9510 O   0  0  0  0  0  0  0  0  0  0  0  0
   48.6020   34.9560   40.1110 N   0  0  0  0  0  0  0  0  0  0  0  0
   47.9480   34.9870   41.2890 C   0  0  0  0  0  0  0  0  0  0  0  0
   48.5400   35.5820   42.2210 O   0  0  0  0  0  0  0  0  0  0  0  0
   44.7070   35.7210   44.2000 C   0  0  0  0  0  0  0  0  0  0  0  0
   45.2770   35.5820   42.9000 C   0  0  0  0  0  0  0  0  0  0  0  0
   46.1870   34.5300   42.7160 C   0  0  0  0  0  0  0  0  0  0  0  0
   46.4560   33.7340   43.7690 N   0  0  0  0  0  0  0  0  0  0  0  0
   45.9040   33.8920   44.9760 C   0  0  0  0  0  0  0  0  0  0  0  0
   45.0270   34.8870   45.1980 N   0  0  0  0  0  0  0  0  0  0  0  0
   46.2530   32.9940   46.0610 C   0  0  0  0  0  0  0  0  0  0  0  0
   45.8690   31.8140   46.1000 O   0  0  0  0  0  0  0  0  0  0  0  0
   47.0410   33.3860   47.1310 O   0  0  0  0  0  0  0  0  0  0  0  0
   46.1540   33.0130   38.0080 C   0  0  0  0  0  0  0  0  0  0  0  0
   46.8540   31.7270   37.8080 C   0  0  0  0  0  0  0  0  0  0  0  0
   47.1520   30.7210   38.6960 C   0  0  0  0  0  0  0  0  0  0  0  0
   47.8160   29.5700   38.3430 C   0  0  0  0  0  0  0  0  0  0  0  0
   48.2050   29.4150   37.0300 C   0  0  0  0  0  0  0  0  0  0  0  0
   47.9010   30.4400   36.1370 C   0  0  0  0  0  0  0  0  0  0  0  0
   47.2510   31.5440   36.5290 N   0  0  0  0  0  0  0  0  0  0  0  0
   45.1811   33.3097   40.4760 H   0  0  0  0  0  0  0  0  0  0  0  0
   49.5262   35.3996   40.0110 H   0  0  0  0  0  0  0  0  0  0  0  0
   43.9879   36.5320   44.3874 H   0  0  0  0  0  0  0  0  0  0  0  0
   45.0155   36.2673   42.0802 H   0  0  0  0  0  0  0  0  0  0  0  0
   47.2552   32.7407   47.8506 H   0  0  0  0  0  0  0  0  0  0  0  0
   45.0956   32.8277   38.2434 H   0  0  0  0  0  0  0  0  0  0  0  0
   46.2105   33.6216   37.0935 H   0  0  0  0  0  0  0  0  0  0  0  0
   46.8429   30.8433   39.7446 H   0  0  0  0  0  0  0  0  0  0  0  0
   48.0315   28.7920   39.0902 H   0  0  0  0  0  0  0  0  0  0  0  0
   48.7379   28.5118   36.6981 H   0  0  0  0  0  0  0  0  0  0  0  0
   48.2021   30.3405   35.0837 H   0  0  0  0  0  0  0  0  0  0  0  0
  1 11  1  0
  2  1  1  0
  3  2  2  0
  4  3  1  0
  4  6  1  0
  5  4  2  0
  6  7  1  0
  7  1  1  0
  7  8  2  0
  9 14  2  0
 10  9  1  0
 11 10  2  0
 11 12  1  0
 12 13  2  0
 13 14  1  0
 13 15  1  0
 15 16  2  0
 15 17  1  0
 18  3  1  0
 19 18  1  0
 19 20  2  0
 21 20  1  0
 22 21  2  0
 23 24  2  0
 23 22  1  0
 24 19  1  0
  2 25  1  0
  6 26  1  0
  9 27  1  0
 10 28  1  0
 17 29  1  0
 18 30  1  0
 18 31  1  0
 20 32  1  0
 21 33  1  0
 22 34  1  0
 23 35  1  0
M  ISO  8  25  14  26   9  27  14  28  14  29   3  30   8  31   8  32  14
M  ISO  3  33  14  34  14  35  14
M  END
>  <minimizedAffinity>  (1) 
-5.66658258

>  <minimizedRMSD>  (1) 
0.310674101

$$$$
