
     RDKit          3D

 40 42  0  0  0  0  0  0  0  0999 V2000
   46.9070   33.8610   41.4870 N   0  0  0  0  0  0  0  0  0  0  0  0
   46.6360   32.8640   40.6190 C   0  0  0  0  0  0  0  0  0  0  0  0
   47.2670   32.7140   39.3980 C   0  0  0  0  0  0  0  0  0  0  0  0
   48.2130   33.6860   39.1410 C   0  0  0  0  0  0  0  0  0  0  0  0
   48.8370   33.6070   38.0390 O   0  0  0  0  0  0  0  0  0  0  0  0
   48.5160   34.7010   39.9820 N   0  0  0  0  0  0  0  0  0  0  0  0
   47.8570   34.7830   41.1570 C   0  0  0  0  0  0  0  0  0  0  0  0
   48.1860   35.7430   41.8850 O   0  0  0  0  0  0  0  0  0  0  0  0
   44.7790   35.3920   44.0670 C   0  0  0  0  0  0  0  0  0  0  0  0
   45.3840   35.1330   42.8050 C   0  0  0  0  0  0  0  0  0  0  0  0
   46.3280   34.0940   42.7340 C   0  0  0  0  0  0  0  0  0  0  0  0
   46.5830   33.4220   43.8730 N   0  0  0  0  0  0  0  0  0  0  0  0
   46.0020   33.6810   45.0460 C   0  0  0  0  0  0  0  0  0  0  0  0
   45.1000   34.6660   45.1460 N   0  0  0  0  0  0  0  0  0  0  0  0
   46.3400   32.9050   46.2250 C   0  0  0  0  0  0  0  0  0  0  0  0
   45.9010   31.7510   46.3990 O   0  0  0  0  0  0  0  0  0  0  0  0
   47.1540   33.3790   47.2200 O   0  0  0  0  0  0  0  0  0  0  0  0
   46.9010   31.6280   38.4990 C   0  0  0  0  0  0  0  0  0  0  0  0
   45.9480   31.8750   37.5000 N   0  0  0  0  0  0  0  0  0  0  0  0
   46.4080   31.9550   36.1760 C   0  0  0  0  0  0  0  0  0  0  0  0
   45.3020   32.1440   35.1550 C   0  0  0  0  0  0  0  0  0  0  0  0
   44.0560   31.5650   35.4760 N   0  0  0  0  0  0  0  0  0  0  0  0
   43.7310   31.3950   36.8460 C   0  0  0  0  0  0  0  0  0  0  0  0
   44.9260   30.8360   37.5800 C   0  0  0  0  0  0  0  0  0  0  0  0
   45.8683   32.1277   40.8992 H   0  0  0  0  0  0  0  0  0  0  0  0
   49.2337   35.3959   39.7313 H   0  0  0  0  0  0  0  0  0  0  0  0
   44.0376   36.1995   44.1575 H   0  0  0  0  0  0  0  0  0  0  0  0
   45.1219   35.7254   41.9160 H   0  0  0  0  0  0  0  0  0  0  0  0
   47.3563   32.8123   48.0061 H   0  0  0  0  0  0  0  0  0  0  0  0
   47.8220   31.3005   37.9945 H   0  0  0  0  0  0  0  0  0  0  0  0
   46.4167   30.8893   39.1545 H   0  0  0  0  0  0  0  0  0  0  0  0
   47.0998   32.8068   36.0999 H   0  0  0  0  0  0  0  0  0  0  0  0
   46.8954   30.9958   35.9472 H   0  0  0  0  0  0  0  0  0  0  0  0
   45.6422   31.7047   34.2056 H   0  0  0  0  0  0  0  0  0  0  0  0
   45.1218   33.2283   35.1115 H   0  0  0  0  0  0  0  0  0  0  0  0
   43.3258   32.1607   35.0602 H   0  0  0  0  0  0  0  0  0  0  0  0
   43.4550   32.3670   37.2809 H   0  0  0  0  0  0  0  0  0  0  0  0
   42.8845   30.6987   36.9388 H   0  0  0  0  0  0  0  0  0  0  0  0
   45.2772   29.9122   37.0971 H   0  0  0  0  0  0  0  0  0  0  0  0
   44.6837   30.5785   38.6216 H   0  0  0  0  0  0  0  0  0  0  0  0
  1 11  1  0
  2  1  1  0
  3  2  2  0
  4  3  1  0
  4  6  1  0
  5  4  2  0
  6  7  1  0
  7  1  1  0
  7  8  2  0
  9 14  2  0
 10  9  1  0
 11 10  2  0
 11 12  1  0
 12 13  2  0
 13 14  1  0
 13 15  1  0
 15 16  2  0
 15 17  1  0
 18  3  1  0
 19 24  1  0
 19 18  1  0
 20 19  1  0
 21 22  1  0
 21 20  1  0
 22 23  1  0
 23 24  1  0
  2 25  1  0
  6 26  1  0
  9 27  1  0
 10 28  1  0
 17 29  1  0
 18 30  1  0
 18 31  1  0
 20 32  1  0
 20 33  1  0
 21 34  1  0
 21 35  1  0
 22 36  1  0
 23 37  1  0
 23 38  1  0
 24 39  1  0
 24 40  1  0
M  ISO  8  25  14  26   9  27  14  28  14  29   3  30   8  31   8  32  13
M  ISO  8  33  13  34  13  35  13  36   5  37  13  38  13  39  13  40  13
M  END
>  <minimizedAffinity>  (1) 
-5.66041756

>  <minimizedRMSD>  (1) 
1.62524915

$$$$
