
     RDKit          3D

 34 36  0  0  0  0  0  0  0  0999 V2000
   46.7100   34.3760   41.4130 N   0  0  0  0  0  0  0  0  0  0  0  0
   46.1380   33.7590   40.3690 C   0  0  0  0  0  0  0  0  0  0  0  0
   46.7480   33.6860   39.1340 C   0  0  0  0  0  0  0  0  0  0  0  0
   47.9800   34.2920   39.0610 C   0  0  0  0  0  0  0  0  0  0  0  0
   48.5850   34.2550   37.9360 O   0  0  0  0  0  0  0  0  0  0  0  0
   48.5810   34.9200   40.0950 N   0  0  0  0  0  0  0  0  0  0  0  0
   47.9270   34.9540   41.2770 C   0  0  0  0  0  0  0  0  0  0  0  0
   48.5310   35.5510   42.2040 O   0  0  0  0  0  0  0  0  0  0  0  0
   44.6970   35.7350   44.1940 C   0  0  0  0  0  0  0  0  0  0  0  0
   45.2570   35.5730   42.8970 C   0  0  0  0  0  0  0  0  0  0  0  0
   46.1720   34.5060   42.7090 C   0  0  0  0  0  0  0  0  0  0  0  0
   46.4490   33.7170   43.7700 N   0  0  0  0  0  0  0  0  0  0  0  0
   45.9030   33.8940   44.9840 C   0  0  0  0  0  0  0  0  0  0  0  0
   45.0300   34.8970   45.2020 N   0  0  0  0  0  0  0  0  0  0  0  0
   46.2500   33.0080   46.0680 C   0  0  0  0  0  0  0  0  0  0  0  0
   45.8550   31.8320   46.1070 O   0  0  0  0  0  0  0  0  0  0  0  0
   47.0370   33.3930   47.1330 O   0  0  0  0  0  0  0  0  0  0  0  0
   46.1040   32.9910   38.0010 C   0  0  0  0  0  0  0  0  0  0  0  0
   46.7110   31.6520   37.7660 C   0  0  0  0  0  0  0  0  0  0  0  0
   46.8320   31.3360   36.4120 C   0  0  0  0  0  0  0  0  0  0  0  0
   47.3570   30.1490   35.9370 C   0  0  0  0  0  0  0  0  0  0  0  0
   47.7890   29.2160   36.8260 N   0  0  0  0  0  0  0  0  0  0  0  0
   47.6550   29.5590   38.1380 C   0  0  0  0  0  0  0  0  0  0  0  0
   47.1400   30.7220   38.6350 N   0  0  0  0  0  0  0  0  0  0  0  0
   45.1493   33.2956   40.5018 H   0  0  0  0  0  0  0  0  0  0  0  0
   49.5067   35.3582   39.9861 H   0  0  0  0  0  0  0  0  0  0  0  0
   43.9842   36.5519   44.3798 H   0  0  0  0  0  0  0  0  0  0  0  0
   44.9907   36.2493   42.0713 H   0  0  0  0  0  0  0  0  0  0  0  0
   47.2467   32.7464   47.8528 H   0  0  0  0  0  0  0  0  0  0  0  0
   45.0337   32.8646   38.2210 H   0  0  0  0  0  0  0  0  0  0  0  0
   46.2486   33.5991   37.0959 H   0  0  0  0  0  0  0  0  0  0  0  0
   46.4879   32.0783   35.6767 H   0  0  0  0  0  0  0  0  0  0  0  0
   47.4243   29.9621   34.8551 H   0  0  0  0  0  0  0  0  0  0  0  0
   47.9987   28.8194   38.8762 H   0  0  0  0  0  0  0  0  0  0  0  0
  1 11  1  0
  2  1  1  0
  3  2  2  0
  4  3  1  0
  4  6  1  0
  5  4  2  0
  6  7  1  0
  7  1  1  0
  7  8  2  0
  9 14  2  0
 10  9  1  0
 11 10  2  0
 11 12  1  0
 12 13  2  0
 13 14  1  0
 13 15  1  0
 15 16  2  0
 15 17  1  0
 18  3  1  0
 19 18  1  0
 19 24  1  0
 20 19  2  0
 21 20  1  0
 21 22  2  0
 22 23  1  0
 23 24  2  0
  2 25  1  0
  6 26  1  0
  9 27  1  0
 10 28  1  0
 17 29  1  0
 18 30  1  0
 18 31  1  0
 20 32  1  0
 21 33  1  0
 23 34  1  0
M  ISO  8  25  14  26   9  27  14  28  14  29   3  30   8  31   8  32  14
M  ISO  2  33  14  34  14
M  END
>  <minimizedAffinity>  (1) 
-5.64489555

>  <minimizedRMSD>  (1) 
0.216727614

$$$$
