
     RDKit          3D

 38 40  0  0  0  0  0  0  0  0999 V2000
   46.7850   34.3740   41.3750 N   0  0  0  0  0  0  0  0  0  0  0  0
   46.2480   33.7350   40.3210 C   0  0  0  0  0  0  0  0  0  0  0  0
   46.8510   33.6910   39.0840 C   0  0  0  0  0  0  0  0  0  0  0  0
   48.0500   34.3520   39.0110 C   0  0  0  0  0  0  0  0  0  0  0  0
   48.6840   34.3670   37.9060 O   0  0  0  0  0  0  0  0  0  0  0  0
   48.6180   35.0070   40.0560 N   0  0  0  0  0  0  0  0  0  0  0  0
   47.9720   35.0120   41.2480 C   0  0  0  0  0  0  0  0  0  0  0  0
   48.5500   35.6320   42.1670 O   0  0  0  0  0  0  0  0  0  0  0  0
   44.7430   35.6540   44.1760 C   0  0  0  0  0  0  0  0  0  0  0  0
   45.3100   35.5210   42.8820 C   0  0  0  0  0  0  0  0  0  0  0  0
   46.2470   34.4730   42.6640 C   0  0  0  0  0  0  0  0  0  0  0  0
   46.5220   33.6800   43.7230 N   0  0  0  0  0  0  0  0  0  0  0  0
   45.9740   33.8260   44.9310 C   0  0  0  0  0  0  0  0  0  0  0  0
   45.0840   34.8110   45.1650 N   0  0  0  0  0  0  0  0  0  0  0  0
   46.3400   32.9150   46.0070 C   0  0  0  0  0  0  0  0  0  0  0  0
   45.9520   31.7250   46.0160 O   0  0  0  0  0  0  0  0  0  0  0  0
   47.1240   33.3030   47.0650 O   0  0  0  0  0  0  0  0  0  0  0  0
   46.2510   32.9920   37.9500 C   0  0  0  0  0  0  0  0  0  0  0  0
   46.9710   31.7790   37.7160 N   0  0  0  0  0  0  0  0  0  0  0  0
   47.2730   31.4870   36.3510 C   0  0  0  0  0  0  0  0  0  0  0  0
   47.6640   30.0150   36.3890 C   0  0  0  0  0  0  0  0  0  0  0  0
   47.4330   29.5540   37.8270 C   0  0  0  0  0  0  0  0  0  0  0  0
   46.4140   30.6000   38.2980 C   0  0  0  0  0  0  0  0  0  0  0  0
   45.2829   33.2240   40.4529 H   0  0  0  0  0  0  0  0  0  0  0  0
   49.5209   35.4901   39.9454 H   0  0  0  0  0  0  0  0  0  0  0  0
   44.0162   36.4562   44.3715 H   0  0  0  0  0  0  0  0  0  0  0  0
   45.0327   36.2092   42.0699 H   0  0  0  0  0  0  0  0  0  0  0  0
   47.3510   32.6538   47.7772 H   0  0  0  0  0  0  0  0  0  0  0  0
   45.1997   32.7592   38.1748 H   0  0  0  0  0  0  0  0  0  0  0  0
   46.2965   33.6294   37.0547 H   0  0  0  0  0  0  0  0  0  0  0  0
   48.1064   32.1074   35.9898 H   0  0  0  0  0  0  0  0  0  0  0  0
   46.4345   31.6935   35.6696 H   0  0  0  0  0  0  0  0  0  0  0  0
   47.0364   29.4350   35.6964 H   0  0  0  0  0  0  0  0  0  0  0  0
   48.7102   29.8684   36.0824 H   0  0  0  0  0  0  0  0  0  0  0  0
   47.0170   28.5364   37.8650 H   0  0  0  0  0  0  0  0  0  0  0  0
   48.3442   29.4943   38.4403 H   0  0  0  0  0  0  0  0  0  0  0  0
   46.3766   30.6665   39.3954 H   0  0  0  0  0  0  0  0  0  0  0  0
   45.3733   30.3915   38.0092 H   0  0  0  0  0  0  0  0  0  0  0  0
  1 11  1  0
  2  1  1  0
  3  2  2  0
  4  3  1  0
  4  6  1  0
  5  4  2  0
  6  7  1  0
  7  1  1  0
  7  8  2  0
  9 14  2  0
 10  9  1  0
 11 10  2  0
 11 12  1  0
 12 13  2  0
 13 14  1  0
 13 15  1  0
 15 16  2  0
 15 17  1  0
 18  3  1  0
 19 18  1  0
 19 23  1  0
 20 21  1  0
 20 19  1  0
 21 22  1  0
 22 23  1  0
  2 24  1  0
  6 25  1  0
  9 26  1  0
 10 27  1  0
 17 28  1  0
 18 29  1  0
 18 30  1  0
 20 31  1  0
 20 32  1  0
 21 33  1  0
 21 34  1  0
 22 35  1  0
 22 36  1  0
 23 37  1  0
 23 38  1  0
M  ISO  8  24  14  25   9  26  14  27  14  28   3  29   8  30   8  31  13
M  ISO  7  32  13  33  13  34  13  35  13  36  13  37  13  38  13
M  END
>  <minimizedAffinity>  (1) 
-5.58262587

>  <minimizedRMSD>  (1) 
0.537972689

$$$$
