
     RDKit          3D

 42 45  0  0  0  0  0  0  0  0999 V2000
   45.1930   33.8570   41.5990 N   0  0  0  0  0  0  0  0  0  0  0  0
   44.2270   33.2660   40.8780 C   0  0  0  0  0  0  0  0  0  0  0  0
   44.3560   32.9830   39.5490 C   0  0  0  0  0  0  0  0  0  0  0  0
   45.5740   33.3530   38.9930 C   0  0  0  0  0  0  0  0  0  0  0  0
   45.7890   33.1280   37.7540 O   0  0  0  0  0  0  0  0  0  0  0  0
   46.5700   33.9490   39.6860 N   0  0  0  0  0  0  0  0  0  0  0  0
   46.3590   34.1980   41.0160 C   0  0  0  0  0  0  0  0  0  0  0  0
   47.3180   34.7510   41.6000 O   0  0  0  0  0  0  0  0  0  0  0  0
   44.4600   35.7890   44.6580 C   0  0  0  0  0  0  0  0  0  0  0  0
   44.5230   35.4220   43.2830 C   0  0  0  0  0  0  0  0  0  0  0  0
   45.1480   34.1870   42.9690 C   0  0  0  0  0  0  0  0  0  0  0  0
   45.6270   33.4610   43.9880 N   0  0  0  0  0  0  0  0  0  0  0  0
   45.5570   33.8220   45.2610 C   0  0  0  0  0  0  0  0  0  0  0  0
   44.9760   34.9830   45.6090 N   0  0  0  0  0  0  0  0  0  0  0  0
   46.1070   32.9660   46.3010 C   0  0  0  0  0  0  0  0  0  0  0  0
   45.7200   31.7740   46.4450 O   0  0  0  0  0  0  0  0  0  0  0  0
   47.0780   33.3920   47.1920 O   0  0  0  0  0  0  0  0  0  0  0  0
   43.3130   32.3500   38.7600 C   0  0  0  0  0  0  0  0  0  0  0  0
   42.6740   31.2900   39.5120 N   0  0  0  0  0  0  0  0  0  0  0  0
   41.4240   31.5920   40.1160 C   0  0  0  0  0  0  0  0  0  0  0  0
   41.0200   30.9970   41.2510 N   0  0  0  0  0  0  0  0  0  0  0  0
   39.8450   31.2580   41.8500 C   0  0  0  0  0  0  0  0  0  0  0  0
   38.9840   32.1430   41.3460 N   0  0  0  0  0  0  0  0  0  0  0  0
   39.3060   32.7820   40.2170 C   0  0  0  0  0  0  0  0  0  0  0  0
   38.4350   33.7050   39.6690 C   0  0  0  0  0  0  0  0  0  0  0  0
   38.7420   34.3830   38.4980 C   0  0  0  0  0  0  0  0  0  0  0  0
   39.9500   34.0990   37.9030 C   0  0  0  0  0  0  0  0  0  0  0  0
   40.8050   33.1750   38.4670 C   0  0  0  0  0  0  0  0  0  0  0  0
   40.5180   32.5010   39.6150 C   0  0  0  0  0  0  0  0  0  0  0  0
   43.2870   32.9971   41.3822 H   0  0  0  0  0  0  0  0  0  0  0  0
   47.4566   34.2068   39.2296 H   0  0  0  0  0  0  0  0  0  0  0  0
   43.9861   36.7386   44.9472 H   0  0  0  0  0  0  0  0  0  0  0  0
   44.1048   36.0686   42.4975 H   0  0  0  0  0  0  0  0  0  0  0  0
   47.4217   32.7722   47.8833 H   0  0  0  0  0  0  0  0  0  0  0  0
   43.7573   31.9275   37.8467 H   0  0  0  0  0  0  0  0  0  0  0  0
   42.5567   33.1060   38.5022 H   0  0  0  0  0  0  0  0  0  0  0  0
   43.1061   30.3596   39.6047 H   0  0  0  0  0  0  0  0  0  0  0  0
   39.5874   30.7283   42.7790 H   0  0  0  0  0  0  0  0  0  0  0  0
   37.4778   33.9063   40.1722 H   0  0  0  0  0  0  0  0  0  0  0  0
   38.0482   35.1175   38.0630 H   0  0  0  0  0  0  0  0  0  0  0  0
   40.2353   34.6116   36.9725 H   0  0  0  0  0  0  0  0  0  0  0  0
   41.7633   32.9732   37.9661 H   0  0  0  0  0  0  0  0  0  0  0  0
  1 11  1  0
  2  1  1  0
  3  2  2  0
  4  3  1  0
  4  6  1  0
  5  4  2  0
  6  7  1  0
  7  1  1  0
  7  8  2  0
  9 14  2  0
 10  9  1  0
 11 10  2  0
 11 12  1  0
 12 13  2  0
 13 14  1  0
 13 15  1  0
 15 16  2  0
 15 17  1  0
 18 19  1  0
 18  3  1  0
 19 20  1  0
 20 21  2  0
 21 22  1  0
 23 22  2  0
 24 23  1  0
 25 24  2  0
 26 25  1  0
 27 28  1  0
 27 26  2  0
 28 29  2  0
 29 20  1  0
 29 24  1  0
  2 30  1  0
  6 31  1  0
  9 32  1  0
 10 33  1  0
 17 34  1  0
 18 35  1  0
 18 36  1  0
 19 37  1  0
 22 38  1  0
 25 39  1  0
 26 40  1  0
 27 41  1  0
 28 42  1  0
M  ISO  8  30  14  31   9  32  14  33  14  34   3  35   8  36   8  38  14
M  ISO  4  39  14  40  14  41  14  42  14
M  END
>  <minimizedAffinity>  (1) 
-7.20501471

>  <minimizedRMSD>  (1) 
4.63534117

$$$$
