
     RDKit          3D

 44 46  0  0  0  0  0  0  0  0999 V2000
   45.9770   34.0970   41.8420 N   0  0  0  0  0  0  0  0  0  0  0  0
   45.1880   33.5600   40.8900 C   0  0  0  0  0  0  0  0  0  0  0  0
   45.5910   33.3920   39.5880 C   0  0  0  0  0  0  0  0  0  0  0  0
   46.8670   33.8150   39.3150 C   0  0  0  0  0  0  0  0  0  0  0  0
   47.2980   33.6850   38.1220 O   0  0  0  0  0  0  0  0  0  0  0  0
   47.6860   34.3580   40.2440 N   0  0  0  0  0  0  0  0  0  0  0  0
   47.2240   34.4960   41.5150 C   0  0  0  0  0  0  0  0  0  0  0  0
   48.0450   35.0090   42.3170 O   0  0  0  0  0  0  0  0  0  0  0  0
   44.5220   35.6510   44.8400 C   0  0  0  0  0  0  0  0  0  0  0  0
   44.8540   35.4180   43.4750 C   0  0  0  0  0  0  0  0  0  0  0  0
   45.6620   34.3100   43.1920 C   0  0  0  0  0  0  0  0  0  0  0  0
   46.0710   33.5400   44.2310 N   0  0  0  0  0  0  0  0  0  0  0  0
   45.7460   33.7800   45.5000 C   0  0  0  0  0  0  0  0  0  0  0  0
   44.9690   34.8370   45.8170 N   0  0  0  0  0  0  0  0  0  0  0  0
   46.2150   32.9190   46.5630 C   0  0  0  0  0  0  0  0  0  0  0  0
   45.7070   31.7890   46.7620 O   0  0  0  0  0  0  0  0  0  0  0  0
   47.2360   33.2670   47.4190 O   0  0  0  0  0  0  0  0  0  0  0  0
   44.6930   32.7990   38.5800 C   0  0  0  0  0  0  0  0  0  0  0  0
   43.9110   33.8170   37.9610 N   0  0  0  0  0  0  0  0  0  0  0  0
   42.8210   34.3130   38.7480 C   0  0  0  0  0  0  0  0  0  0  0  0
   41.7890   33.3170   39.1380 C   0  0  0  0  0  0  0  0  0  0  0  0
   40.7110   33.1480   38.0820 C   0  0  0  0  0  0  0  0  0  0  0  0
   39.9300   34.4260   37.8850 C   0  0  0  0  0  0  0  0  0  0  0  0
   40.6790   35.5530   38.5160 C   0  0  0  0  0  0  0  0  0  0  0  0
   42.1240   35.4770   38.0810 C   0  0  0  0  0  0  0  0  0  0  0  0
   44.1730   33.2412   41.1694 H   0  0  0  0  0  0  0  0  0  0  0  0
   48.6384   34.6602   39.9942 H   0  0  0  0  0  0  0  0  0  0  0  0
   43.8888   36.5115   45.1021 H   0  0  0  0  0  0  0  0  0  0  0  0
   44.4907   36.0810   42.6760 H   0  0  0  0  0  0  0  0  0  0  0  0
   47.5199   32.6408   48.1313 H   0  0  0  0  0  0  0  0  0  0  0  0
   45.2937   32.2858   37.8146 H   0  0  0  0  0  0  0  0  0  0  0  0
   44.0224   32.0803   39.0737 H   0  0  0  0  0  0  0  0  0  0  0  0
   44.5331   34.6086   37.7436 H   0  0  0  0  0  0  0  0  0  0  0  0
   43.3236   34.6266   39.6749 H   0  0  0  0  0  0  0  0  0  0  0  0
   42.2799   32.3458   39.2987 H   0  0  0  0  0  0  0  0  0  0  0  0
   41.3028   33.6829   40.0544 H   0  0  0  0  0  0  0  0  0  0  0  0
   41.1836   32.8665   37.1294 H   0  0  0  0  0  0  0  0  0  0  0  0
   40.0157   32.3647   38.4181 H   0  0  0  0  0  0  0  0  0  0  0  0
   39.8065   34.6211   36.8095 H   0  0  0  0  0  0  0  0  0  0  0  0
   38.9376   34.3316   38.3500 H   0  0  0  0  0  0  0  0  0  0  0  0
   40.2455   36.5116   38.1947 H   0  0  0  0  0  0  0  0  0  0  0  0
   40.6128   35.4805   39.6116 H   0  0  0  0  0  0  0  0  0  0  0  0
   42.1664   35.3463   36.9896 H   0  0  0  0  0  0  0  0  0  0  0  0
   42.6313   36.4083   38.3732 H   0  0  0  0  0  0  0  0  0  0  0  0
  1 11  1  0
  2  1  1  0
  3  2  2  0
  4  3  1  0
  4  6  1  0
  5  4  2  0
  6  7  1  0
  7  1  1  0
  7  8  2  0
  9 14  2  0
 10  9  1  0
 11 10  2  0
 11 12  1  0
 12 13  2  0
 13 14  1  0
 13 15  1  0
 15 16  2  0
 15 17  1  0
 18  3  1  0
 19 18  1  0
 19 20  1  0
 20 21  1  0
 22 21  1  0
 23 22  1  0
 23 24  1  0
 25 24  1  0
 25 20  1  0
  2 26  1  0
  6 27  1  0
  9 28  1  0
 10 29  1  0
 17 30  1  0
 18 31  1  0
 18 32  1  0
 19 33  1  0
 20 34  1  0
 21 35  1  0
 21 36  1  0
 22 37  1  0
 22 38  1  0
 23 39  1  0
 23 40  1  0
 24 41  1  0
 24 42  1  0
 25 43  1  0
 25 44  1  0
M  ISO  8  26  14  27   9  28  14  29  14  30   3  31   8  32   8  33   5
M  ISO  8  34  13  35  13  36  13  37  13  38  13  39  13  40  13  41  13
M  ISO  3  42  13  43  13  44  13
M  END
>  <minimizedAffinity>  (1) 
-6.63214922

>  <minimizedRMSD>  (1) 
1.6033026

$$$$
