
     RDKit          3D

 35 36  0  0  1  0  0  0  0  0999 V2000
   46.3600   34.2020   41.8030 C   0  0  1  0  0  0  0  0  0  0  0  0
   45.1130   35.8400   43.2930 C   0  0  0  0  0  0  0  0  0  0  0  0
   45.7770   34.6040   43.0780 C   0  0  0  0  0  0  0  0  0  0  0  0
   45.8490   33.7550   44.1820 C   0  0  0  0  0  0  0  0  0  0  0  0
   45.2940   34.1590   45.3600 N   0  0  0  0  0  0  0  0  0  0  0  0
   44.6770   35.3290   45.5230 C   0  0  0  0  0  0  0  0  0  0  0  0
   44.5830   36.1910   44.4690 N   0  0  0  0  0  0  0  0  0  0  0  0
   45.3380   34.2010   40.7200 C   0  0  0  0  0  0  0  0  0  0  0  0
   47.5250   35.1200   41.5010 C   0  0  0  0  0  0  0  0  0  0  0  0
   48.8350   34.4050   41.3060 C   0  0  0  0  0  0  0  0  0  0  0  0
   49.4040   34.1530   42.7080 C   0  0  0  0  0  0  0  0  0  0  0  0
   50.8640   33.7940   42.4880 C   0  0  0  0  0  0  0  0  0  0  0  0
   50.9060   32.5200   41.7170 C   0  0  0  0  0  0  0  0  0  0  0  0
   49.5730   32.0020   41.2620 C   0  0  0  0  0  0  0  0  0  0  0  0
   48.6860   33.0590   40.6670 C   0  0  0  0  0  0  0  0  0  0  0  0
   46.7311   33.1683   41.8647 H   0  0  0  0  0  0  0  0  0  0  0  0
   45.0305   36.5431   42.4511 H   0  0  0  0  0  0  0  0  0  0  0  0
   46.3450   32.7763   44.1038 H   0  0  0  0  0  0  0  0  0  0  0  0
   44.2470   35.5978   46.4991 H   0  0  0  0  0  0  0  0  0  0  0  0
   44.3321   34.2000   41.1651 H   0  0  0  0  0  0  0  0  0  0  0  0
   45.4626   35.0993   40.0974 H   0  0  0  0  0  0  0  0  0  0  0  0
   45.4644   33.3030   40.0974 H   0  0  0  0  0  0  0  0  0  0  0  0
   47.2957   35.6783   40.5814 H   0  0  0  0  0  0  0  0  0  0  0  0
   47.6480   35.7754   42.3758 H   0  0  0  0  0  0  0  0  0  0  0  0
   49.4675   35.0261   40.6546 H   0  0  0  0  0  0  0  0  0  0  0  0
   49.3186   35.0582   43.3272 H   0  0  0  0  0  0  0  0  0  0  0  0
   48.8598   33.3553   43.2348 H   0  0  0  0  0  0  0  0  0  0  0  0
   51.3646   34.5922   41.9203 H   0  0  0  0  0  0  0  0  0  0  0  0
   51.3817   33.6784   43.4516 H   0  0  0  0  0  0  0  0  0  0  0  0
   51.5298   32.6825   40.8257 H   0  0  0  0  0  0  0  0  0  0  0  0
   51.3089   31.7615   42.4043 H   0  0  0  0  0  0  0  0  0  0  0  0
   49.7432   31.2239   40.5033 H   0  0  0  0  0  0  0  0  0  0  0  0
   49.0576   31.6136   42.1528 H   0  0  0  0  0  0  0  0  0  0  0  0
   48.9289   33.1539   39.5984 H   0  0  0  0  0  0  0  0  0  0  0  0
   47.6477   32.7377   40.8366 H   0  0  0  0  0  0  0  0  0  0  0  0
  1  3  1  0
  2  7  2  0
  3  2  1  0
  3  4  2  0
  4  5  1  0
  5  6  2  0
  7  6  1  0
  8  1  1  0
  9  1  1  0
 10  9  1  0
 10 11  1  0
 12 11  1  0
 13 12  1  0
 14 13  1  0
 15 14  1  0
 15 10  1  0
  1 16  1  1
  2 17  1  0
  4 18  1  0
  6 19  1  0
  8 20  1  0
  8 21  1  0
  8 22  1  0
  9 23  1  0
  9 24  1  0
 10 25  1  0
 11 26  1  0
 11 27  1  0
 12 28  1  0
 12 29  1  0
 13 30  1  0
 13 31  1  0
 14 32  1  0
 14 33  1  0
 15 34  1  0
 15 35  1  0
M  ISO  8  16   8  17  14  18  14  19  14  20   8  21   8  22   8  23   8
M  ISO  8  24   8  25  13  26  13  27  13  28  13  29  13  30  13  31  13
M  ISO  4  32  13  33  13  34  13  35  13
M  END
>  <minimizedAffinity>  (1) 
-4.74752426

>  <minimizedRMSD>  (1) 
2.10681105

$$$$
