
     RDKit          3D

 43 45  0  0  0  0  0  0  0  0999 V2000
   46.7120   34.3010   41.3580 N   0  0  0  0  0  0  0  0  0  0  0  0
   46.1810   33.5890   40.3590 C   0  0  0  0  0  0  0  0  0  0  0  0
   46.7650   33.4780   39.1260 C   0  0  0  0  0  0  0  0  0  0  0  0
   47.9560   34.1660   38.9960 C   0  0  0  0  0  0  0  0  0  0  0  0
   48.5750   34.1170   37.8700 O   0  0  0  0  0  0  0  0  0  0  0  0
   48.5110   34.8910   39.9900 N   0  0  0  0  0  0  0  0  0  0  0  0
   47.8740   34.9510   41.1820 C   0  0  0  0  0  0  0  0  0  0  0  0
   48.4480   35.6420   42.0550 O   0  0  0  0  0  0  0  0  0  0  0  0
   44.7330   35.7190   44.1340 C   0  0  0  0  0  0  0  0  0  0  0  0
   45.2860   35.5370   42.8250 C   0  0  0  0  0  0  0  0  0  0  0  0
   46.1760   34.4660   42.6560 C   0  0  0  0  0  0  0  0  0  0  0  0
   46.4440   33.6900   43.7310 N   0  0  0  0  0  0  0  0  0  0  0  0
   45.9130   33.8860   44.9340 C   0  0  0  0  0  0  0  0  0  0  0  0
   45.0580   34.8980   45.1430 N   0  0  0  0  0  0  0  0  0  0  0  0
   46.2500   33.0080   46.0420 C   0  0  0  0  0  0  0  0  0  0  0  0
   45.8460   31.8200   46.0860 O   0  0  0  0  0  0  0  0  0  0  0  0
   47.0300   33.4130   47.1110 O   0  0  0  0  0  0  0  0  0  0  0  0
   46.1720   32.6910   38.0290 C   0  0  0  0  0  0  0  0  0  0  0  0
   45.9530   33.5320   36.8920 N   0  0  0  0  0  0  0  0  0  0  0  0
   44.9510   31.2670   33.6830 N   0  0  0  0  0  0  0  0  0  0  0  0
   44.0750   31.1190   34.8220 C   0  0  0  0  0  0  0  0  0  0  0  0
   44.7840   31.5170   36.1170 C   0  0  0  0  0  0  0  0  0  0  0  0
   45.6400   32.7140   35.7580 C   0  0  0  0  0  0  0  0  0  0  0  0
   46.8260   32.2170   34.9870 C   0  0  0  0  0  0  0  0  0  0  0  0
   46.3460   31.1400   34.0380 C   0  0  0  0  0  0  0  0  0  0  0  0
   45.2290   33.0672   40.5363 H   0  0  0  0  0  0  0  0  0  0  0  0
   49.4011   35.3883   39.8440 H   0  0  0  0  0  0  0  0  0  0  0  0
   44.0303   36.5458   44.3142 H   0  0  0  0  0  0  0  0  0  0  0  0
   45.0249   36.2057   41.9915 H   0  0  0  0  0  0  0  0  0  0  0  0
   47.2334   32.7790   47.8436 H   0  0  0  0  0  0  0  0  0  0  0  0
   46.8566   31.8753   37.7533 H   0  0  0  0  0  0  0  0  0  0  0  0
   45.2107   32.2720   38.3612 H   0  0  0  0  0  0  0  0  0  0  0  0
   45.1691   34.1724   37.0824 H   0  0  0  0  0  0  0  0  0  0  0  0
   44.7991   32.1974   33.2681 H   0  0  0  0  0  0  0  0  0  0  0  0
   43.1932   31.7618   34.6830 H   0  0  0  0  0  0  0  0  0  0  0  0
   43.7757   30.0632   34.8978 H   0  0  0  0  0  0  0  0  0  0  0  0
   44.0496   31.7875   36.8899 H   0  0  0  0  0  0  0  0  0  0  0  0
   45.3867   30.6911   36.5228 H   0  0  0  0  0  0  0  0  0  0  0  0
   45.0813   33.4066   35.1114 H   0  0  0  0  0  0  0  0  0  0  0  0
   47.2748   33.0441   34.4174 H   0  0  0  0  0  0  0  0  0  0  0  0
   47.5863   31.8132   35.6718 H   0  0  0  0  0  0  0  0  0  0  0  0
   46.4960   30.1612   34.5170 H   0  0  0  0  0  0  0  0  0  0  0  0
   46.9275   31.2427   33.1100 H   0  0  0  0  0  0  0  0  0  0  0  0
  1 11  1  0
  2  1  1  0
  3  2  2  0
  4  3  1  0
  4  6  1  0
  5  4  2  0
  6  7  1  0
  7  1  1  0
  7  8  2  0
  9 14  2  0
 10  9  1  0
 11 10  2  0
 11 12  1  0
 12 13  2  0
 13 14  1  0
 13 15  1  0
 15 16  2  0
 15 17  1  0
 18  3  1  0
 19 18  1  0
 20 25  1  0
 20 21  1  0
 21 22  1  0
 23 22  1  0
 23 19  1  0
 24 23  1  0
 25 24  1  0
  2 26  1  0
  6 27  1  0
  9 28  1  0
 10 29  1  0
 17 30  1  0
 18 31  1  0
 18 32  1  0
 19 33  1  0
 20 34  1  0
 21 35  1  0
 21 36  1  0
 22 37  1  0
 22 38  1  0
 23 39  1  0
 24 40  1  0
 24 41  1  0
 25 42  1  0
 25 43  1  0
M  ISO  8  26  14  27   9  28  14  29  14  30   3  31   8  32   8  33   5
M  ISO  8  34   5  35  13  36  13  37  13  38  13  39  13  40  13  41  13
M  ISO  2  42  13  43  13
M  END
>  <minimizedAffinity>  (1) 
-6.56086588

>  <minimizedRMSD>  (1) 
0.486222923

$$$$
