
     RDKit          3D

 41 43  0  0  0  0  0  0  0  0999 V2000
   46.8710   34.1870   40.9880 N   0  0  0  0  0  0  0  0  0  0  0  0
   46.4310   33.3850   40.0100 C   0  0  0  0  0  0  0  0  0  0  0  0
   47.0530   33.2640   38.7980 C   0  0  0  0  0  0  0  0  0  0  0  0
   48.1880   34.0460   38.6600 C   0  0  0  0  0  0  0  0  0  0  0  0
   48.8400   33.9960   37.5510 O   0  0  0  0  0  0  0  0  0  0  0  0
   48.6650   34.8670   39.6220 N   0  0  0  0  0  0  0  0  0  0  0  0
   47.9770   34.9240   40.8030 C   0  0  0  0  0  0  0  0  0  0  0  0
   48.4730   35.7060   41.6560 O   0  0  0  0  0  0  0  0  0  0  0  0
   44.7930   35.6250   43.6680 C   0  0  0  0  0  0  0  0  0  0  0  0
   45.3850   35.4310   42.3820 C   0  0  0  0  0  0  0  0  0  0  0  0
   46.2930   34.3700   42.2600 C   0  0  0  0  0  0  0  0  0  0  0  0
   46.5430   33.6110   43.3600 N   0  0  0  0  0  0  0  0  0  0  0  0
   45.9780   33.8170   44.5410 C   0  0  0  0  0  0  0  0  0  0  0  0
   45.1010   34.8210   44.7080 N   0  0  0  0  0  0  0  0  0  0  0  0
   46.2870   32.9720   45.6750 C   0  0  0  0  0  0  0  0  0  0  0  0
   45.9650   31.7590   45.6970 O   0  0  0  0  0  0  0  0  0  0  0  0
   46.9490   33.4350   46.7960 O   0  0  0  0  0  0  0  0  0  0  0  0
   46.5630   32.3830   37.7330 C   0  0  0  0  0  0  0  0  0  0  0  0
   46.4460   33.1110   36.5050 N   0  0  0  0  0  0  0  0  0  0  0  0
   46.3970   32.0920   35.1250 S   0  0  0  0  0  0  0  0  0  0  0  0
   45.2990   32.5930   34.2030 O   0  0  0  0  0  0  0  0  0  0  0  0
   46.0040   30.7090   35.5420 O   0  0  0  0  0  0  0  0  0  0  0  0
   47.8680   32.1070   34.2130 C   0  0  0  0  0  0  0  0  0  0  0  0
   48.9170   31.3570   34.7520 C   0  0  0  0  0  0  0  0  0  0  0  0
   50.1360   31.3000   34.1060 C   0  0  0  0  0  0  0  0  0  0  0  0
   50.2990   32.0010   32.9090 C   0  0  0  0  0  0  0  0  0  0  0  0
   49.2440   32.7320   32.4040 C   0  0  0  0  0  0  0  0  0  0  0  0
   48.0210   32.8020   33.0330 C   0  0  0  0  0  0  0  0  0  0  0  0
   45.5219   32.7927   40.1909 H   0  0  0  0  0  0  0  0  0  0  0  0
   49.5150   35.4289   39.4714 H   0  0  0  0  0  0  0  0  0  0  0  0
   44.0734   36.4442   43.8133 H   0  0  0  0  0  0  0  0  0  0  0  0
   45.1403   36.0821   41.5298 H   0  0  0  0  0  0  0  0  0  0  0  0
   47.1389   32.8198   47.5481 H   0  0  0  0  0  0  0  0  0  0  0  0
   47.2689   31.5505   37.5963 H   0  0  0  0  0  0  0  0  0  0  0  0
   45.5739   31.9934   38.0155 H   0  0  0  0  0  0  0  0  0  0  0  0
   45.5792   33.6667   36.5339 H   0  0  0  0  0  0  0  0  0  0  0  0
   48.7708   30.8098   35.6950 H   0  0  0  0  0  0  0  0  0  0  0  0
   50.9650   30.7123   34.5271 H   0  0  0  0  0  0  0  0  0  0  0  0
   51.2597   31.9704   32.3741 H   0  0  0  0  0  0  0  0  0  0  0  0
   49.3852   33.2809   31.4613 H   0  0  0  0  0  0  0  0  0  0  0  0
   47.1953   33.3919   32.6085 H   0  0  0  0  0  0  0  0  0  0  0  0
  1 11  1  0
  2  1  1  0
  3  2  2  0
  4  3  1  0
  4  6  1  0
  5  4  2  0
  6  7  1  0
  7  1  1  0
  7  8  2  0
  9 14  2  0
 10  9  1  0
 11 10  2  0
 11 12  1  0
 12 13  2  0
 13 14  1  0
 13 15  1  0
 15 16  2  0
 15 17  1  0
 18  3  1  0
 19 18  1  0
 20 22  2  0
 20 19  1  0
 21 20  2  0
 23 24  2  0
 23 20  1  0
 25 24  1  0
 26 25  2  0
 27 26  1  0
 27 28  2  0
 28 23  1  0
  2 29  1  0
  6 30  1  0
  9 31  1  0
 10 32  1  0
 17 33  1  0
 18 34  1  0
 18 35  1  0
 19 36  1  0
 24 37  1  0
 25 38  1  0
 26 39  1  0
 27 40  1  0
 28 41  1  0
M  ISO  8  29  14  30   9  31  14  32  14  33   3  34   8  35   8  36   5
M  ISO  5  37  14  38  14  39  14  40  14  41  14
M  END
>  <minimizedAffinity>  (1) 
-6.55563927

>  <minimizedRMSD>  (1) 
1.25673103

$$$$
