
     RDKit          3D

 38 40  0  0  0  0  0  0  0  0999 V2000
   46.6430   34.3540   41.4810 N   0  0  0  0  0  0  0  0  0  0  0  0
   46.1630   33.5400   40.5300 C   0  0  0  0  0  0  0  0  0  0  0  0
   46.8150   33.3210   39.3360 C   0  0  0  0  0  0  0  0  0  0  0  0
   47.9990   34.0030   39.1940 C   0  0  0  0  0  0  0  0  0  0  0  0
   48.6460   33.8390   38.1070 O   0  0  0  0  0  0  0  0  0  0  0  0
   48.4990   34.8220   40.1280 N   0  0  0  0  0  0  0  0  0  0  0  0
   47.8090   34.9960   41.2850 C   0  0  0  0  0  0  0  0  0  0  0  0
   48.3400   35.7770   42.1130 O   0  0  0  0  0  0  0  0  0  0  0  0
   44.6220   36.1080   44.0280 C   0  0  0  0  0  0  0  0  0  0  0  0
   45.2320   35.7900   42.7770 C   0  0  0  0  0  0  0  0  0  0  0  0
   46.0540   34.6440   42.7320 C   0  0  0  0  0  0  0  0  0  0  0  0
   46.2150   33.9170   43.8680 N   0  0  0  0  0  0  0  0  0  0  0  0
   45.6220   34.2570   45.0160 C   0  0  0  0  0  0  0  0  0  0  0  0
   44.8300   35.3380   45.1160 N   0  0  0  0  0  0  0  0  0  0  0  0
   45.8350   33.4350   46.2020 C   0  0  0  0  0  0  0  0  0  0  0  0
   46.8290   32.6700   46.3000 O   0  0  0  0  0  0  0  0  0  0  0  0
   44.9690   33.4430   47.2870 O   0  0  0  0  0  0  0  0  0  0  0  0
   46.2410   32.4150   38.3250 C   0  0  0  0  0  0  0  0  0  0  0  0
   46.1890   33.0810   37.0580 N   0  0  0  0  0  0  0  0  0  0  0  0
   46.3490   32.3760   35.8490 C   0  0  0  0  0  0  0  0  0  0  0  0
   45.2690   31.8210   35.1960 C   0  0  0  0  0  0  0  0  0  0  0  0
   45.4670   31.1310   34.0030 C   0  0  0  0  0  0  0  0  0  0  0  0
   46.7100   30.9810   33.4480 C   0  0  0  0  0  0  0  0  0  0  0  0
   47.8050   31.5140   34.0600 C   0  0  0  0  0  0  0  0  0  0  0  0
   47.5740   32.1980   35.2530 C   0  0  0  0  0  0  0  0  0  0  0  0
   45.2079   33.0250   40.7106 H   0  0  0  0  0  0  0  0  0  0  0  0
   49.3916   35.3117   39.9717 H   0  0  0  0  0  0  0  0  0  0  0  0
   43.9735   36.9931   44.1058 H   0  0  0  0  0  0  0  0  0  0  0  0
   45.0680   36.4126   41.8851 H   0  0  0  0  0  0  0  0  0  0  0  0
   45.1533   32.8681   48.0716 H   0  0  0  0  0  0  0  0  0  0  0  0
   46.8689   31.5158   38.2405 H   0  0  0  0  0  0  0  0  0  0  0  0
   45.2238   32.1264   38.6283 H   0  0  0  0  0  0  0  0  0  0  0  0
   46.0310   34.0984   37.0303 H   0  0  0  0  0  0  0  0  0  0  0  0
   44.2570   31.9227   35.6150 H   0  0  0  0  0  0  0  0  0  0  0  0
   44.5980   30.6927   33.4903 H   0  0  0  0  0  0  0  0  0  0  0  0
   46.8251   30.4279   32.5042 H   0  0  0  0  0  0  0  0  0  0  0  0
   48.8148   31.4104   33.6364 H   0  0  0  0  0  0  0  0  0  0  0  0
   48.4478   32.6325   35.7606 H   0  0  0  0  0  0  0  0  0  0  0  0
  1 11  1  0
  2  1  1  0
  3  2  2  0
  4  3  1  0
  4  6  1  0
  5  4  2  0
  6  7  1  0
  7  1  1  0
  7  8  2  0
  9 14  2  0
 10  9  1  0
 11 10  2  0
 11 12  1  0
 12 13  2  0
 13 14  1  0
 13 15  1  0
 15 16  2  0
 15 17  1  0
 18  3  1  0
 19 18  1  0
 20 19  1  0
 21 20  2  0
 22 21  1  0
 23 22  2  0
 23 24  1  0
 24 25  2  0
 25 20  1  0
  2 26  1  0
  6 27  1  0
  9 28  1  0
 10 29  1  0
 17 30  1  0
 18 31  1  0
 18 32  1  0
 19 33  1  0
 21 34  1  0
 22 35  1  0
 23 36  1  0
 24 37  1  0
 25 38  1  0
M  ISO  8  26  14  27   9  28  14  29  14  30   3  31   8  32   8  34  14
M  ISO  4  35  14  36  14  37  14  38  14
M  END
>  <minimizedAffinity>  (1) 
-5.9627347

>  <minimizedRMSD>  (1) 
1.33719838

$$$$
