
     RDKit          3D

 41 43  0  0  0  0  0  0  0  0999 V2000
   46.8330   34.3570   41.4010 N   0  0  0  0  0  0  0  0  0  0  0  0
   46.3810   33.5900   40.3840 C   0  0  0  0  0  0  0  0  0  0  0  0
   47.0060   33.5290   39.1720 C   0  0  0  0  0  0  0  0  0  0  0  0
   48.1390   34.3110   39.0590 C   0  0  0  0  0  0  0  0  0  0  0  0
   48.7900   34.3170   37.9590 O   0  0  0  0  0  0  0  0  0  0  0  0
   48.6150   35.0870   40.0550 N   0  0  0  0  0  0  0  0  0  0  0  0
   47.9470   35.1040   41.2370 C   0  0  0  0  0  0  0  0  0  0  0  0
   48.4420   35.8460   42.1220 O   0  0  0  0  0  0  0  0  0  0  0  0
   44.7420   35.6750   44.1310 C   0  0  0  0  0  0  0  0  0  0  0  0
   45.3330   35.5220   42.8440 C   0  0  0  0  0  0  0  0  0  0  0  0
   46.2620   34.4880   42.6820 C   0  0  0  0  0  0  0  0  0  0  0  0
   46.5270   33.7120   43.7550 N   0  0  0  0  0  0  0  0  0  0  0  0
   45.9630   33.8700   44.9510 C   0  0  0  0  0  0  0  0  0  0  0  0
   45.0670   34.8540   45.1420 N   0  0  0  0  0  0  0  0  0  0  0  0
   46.2930   33.0030   46.0570 C   0  0  0  0  0  0  0  0  0  0  0  0
   45.8850   31.8060   46.0980 O   0  0  0  0  0  0  0  0  0  0  0  0
   47.0580   33.3920   47.1270 O   0  0  0  0  0  0  0  0  0  0  0  0
   46.5070   32.6930   38.0740 C   0  0  0  0  0  0  0  0  0  0  0  0
   46.1030   33.5200   36.9760 N   0  0  0  0  0  0  0  0  0  0  0  0
   45.0800   32.9720   36.1480 C   0  0  0  0  0  0  0  0  0  0  0  0
   45.5770   32.3350   34.8710 C   0  0  0  0  0  0  0  0  0  0  0  0
   44.6230   31.1980   34.5760 C   0  0  0  0  0  0  0  0  0  0  0  0
   43.8920   30.8880   35.8650 C   0  0  0  0  0  0  0  0  0  0  0  0
   44.3890   31.8640   36.9080 C   0  0  0  0  0  0  0  0  0  0  0  0
   45.4721   32.9903   40.5394 H   0  0  0  0  0  0  0  0  0  0  0  0
   49.4651   35.6531   39.9218 H   0  0  0  0  0  0  0  0  0  0  0  0
   44.0087   36.4776   44.2988 H   0  0  0  0  0  0  0  0  0  0  0  0
   45.0697   36.1900   42.0107 H   0  0  0  0  0  0  0  0  0  0  0  0
   47.2508   32.7513   47.8567 H   0  0  0  0  0  0  0  0  0  0  0  0
   47.3045   32.0114   37.7431 H   0  0  0  0  0  0  0  0  0  0  0  0
   45.6426   32.1109   38.4261 H   0  0  0  0  0  0  0  0  0  0  0  0
   45.7593   34.4124   37.3587 H   0  0  0  0  0  0  0  0  0  0  0  0
   44.4312   33.8205   35.8851 H   0  0  0  0  0  0  0  0  0  0  0  0
   45.5664   33.0663   34.0493 H   0  0  0  0  0  0  0  0  0  0  0  0
   46.6120   31.9772   34.9744 H   0  0  0  0  0  0  0  0  0  0  0  0
   43.9059   31.4987   33.7980 H   0  0  0  0  0  0  0  0  0  0  0  0
   45.1665   30.3142   34.2106 H   0  0  0  0  0  0  0  0  0  0  0  0
   42.8081   31.0091   35.7219 H   0  0  0  0  0  0  0  0  0  0  0  0
   44.0798   29.8510   36.1803 H   0  0  0  0  0  0  0  0  0  0  0  0
   45.0971   31.3683   37.5883 H   0  0  0  0  0  0  0  0  0  0  0  0
   43.5629   32.2519   37.5221 H   0  0  0  0  0  0  0  0  0  0  0  0
  1 11  1  0
  2  1  1  0
  3  2  2  0
  4  3  1  0
  4  6  1  0
  5  4  2  0
  6  7  1  0
  7  1  1  0
  7  8  2  0
  9 14  2  0
 10  9  1  0
 11 10  2  0
 11 12  1  0
 12 13  2  0
 13 14  1  0
 13 15  1  0
 15 16  2  0
 15 17  1  0
 18  3  1  0
 19 18  1  0
 20 24  1  0
 20 19  1  0
 21 20  1  0
 22 21  1  0
 22 23  1  0
 23 24  1  0
  2 25  1  0
  6 26  1  0
  9 27  1  0
 10 28  1  0
 17 29  1  0
 18 30  1  0
 18 31  1  0
 19 32  1  0
 20 33  1  0
 21 34  1  0
 21 35  1  0
 22 36  1  0
 22 37  1  0
 23 38  1  0
 23 39  1  0
 24 40  1  0
 24 41  1  0
M  ISO  8  25  14  26   9  27  14  28  14  29   3  30   8  31   8  32   5
M  ISO  8  33  13  34  13  35  13  36  13  37  13  38  13  39  13  40  13
M  ISO  1  41  13
M  END
>  <minimizedAffinity>  (1) 
-5.92672586

>  <minimizedRMSD>  (1) 
0.825499237

$$$$
