
     RDKit          3D

 34 35  0  0  0  0  0  0  0  0999 V2000
   46.7490   34.2390   41.1950 N   0  0  0  0  0  0  0  0  0  0  0  0
   46.2750   33.4730   40.2050 C   0  0  0  0  0  0  0  0  0  0  0  0
   46.8740   33.3500   38.9860 C   0  0  0  0  0  0  0  0  0  0  0  0
   48.0310   34.0890   38.8400 C   0  0  0  0  0  0  0  0  0  0  0  0
   48.6590   34.0320   37.7260 O   0  0  0  0  0  0  0  0  0  0  0  0
   48.5480   34.8720   39.8040 N   0  0  0  0  0  0  0  0  0  0  0  0
   47.8940   34.9450   40.9990 C   0  0  0  0  0  0  0  0  0  0  0  0
   48.4240   35.6910   41.8530 O   0  0  0  0  0  0  0  0  0  0  0  0
   44.7330   35.7070   43.9040 C   0  0  0  0  0  0  0  0  0  0  0  0
   45.3050   35.4940   42.6170 C   0  0  0  0  0  0  0  0  0  0  0  0
   46.2020   34.4230   42.4760 C   0  0  0  0  0  0  0  0  0  0  0  0
   46.4520   33.6750   43.5720 N   0  0  0  0  0  0  0  0  0  0  0  0
   45.9040   33.8980   44.7560 C   0  0  0  0  0  0  0  0  0  0  0  0
   45.0450   34.9080   44.9350 N   0  0  0  0  0  0  0  0  0  0  0  0
   46.2370   33.0340   45.8880 C   0  0  0  0  0  0  0  0  0  0  0  0
   45.8940   31.8320   45.9300 O   0  0  0  0  0  0  0  0  0  0  0  0
   46.9490   33.4790   46.9860 O   0  0  0  0  0  0  0  0  0  0  0  0
   46.3370   32.5050   37.9150 C   0  0  0  0  0  0  0  0  0  0  0  0
   46.1700   33.2660   36.7130 N   0  0  0  0  0  0  0  0  0  0  0  0
   46.3150   32.1970   35.3550 S   0  0  0  0  0  0  0  0  0  0  0  0
   47.9350   32.2810   34.6380 C   0  0  0  0  0  0  0  0  0  0  0  0
   45.3120   32.5350   34.2870 O   0  0  0  0  0  0  0  0  0  0  0  0
   46.0850   30.7680   35.8020 O   0  0  0  0  0  0  0  0  0  0  0  0
   45.3477   32.9095   40.3852 H   0  0  0  0  0  0  0  0  0  0  0  0
   49.4159   35.4031   39.6439 H   0  0  0  0  0  0  0  0  0  0  0  0
   44.0268   36.5369   44.0541 H   0  0  0  0  0  0  0  0  0  0  0  0
   45.0535   36.1439   41.7659 H   0  0  0  0  0  0  0  0  0  0  0  0
   47.1515   32.8577   47.7297 H   0  0  0  0  0  0  0  0  0  0  0  0
   47.0336   31.6753   37.7245 H   0  0  0  0  0  0  0  0  0  0  0  0
   45.3578   32.1132   38.2275 H   0  0  0  0  0  0  0  0  0  0  0  0
   45.2396   33.7078   36.7087 H   0  0  0  0  0  0  0  0  0  0  0  0
   48.6886   32.3201   35.4383 H   0  0  0  0  0  0  0  0  0  0  0  0
   48.1071   31.3906   34.0155 H   0  0  0  0  0  0  0  0  0  0  0  0
   48.0141   33.1845   34.0155 H   0  0  0  0  0  0  0  0  0  0  0  0
  1 11  1  0
  2  1  1  0
  3  2  2  0
  4  3  1  0
  4  6  1  0
  5  4  2  0
  6  7  1  0
  7  1  1  0
  7  8  2  0
  9 14  2  0
 10  9  1  0
 11 10  2  0
 11 12  1  0
 12 13  2  0
 13 14  1  0
 13 15  1  0
 15 16  2  0
 15 17  1  0
 18  3  1  0
 19 18  1  0
 20 23  2  0
 20 19  1  0
 21 20  1  0
 22 20  2  0
  2 24  1  0
  6 25  1  0
  9 26  1  0
 10 27  1  0
 17 28  1  0
 18 29  1  0
 18 30  1  0
 19 31  1  0
 21 32  1  0
 21 33  1  0
 21 34  1  0
M  ISO  8  24  14  25   9  26  14  27  14  28   3  29   8  30   8  31   5
M  ISO  3  32   8  33   8  34   8
M  END
>  <minimizedAffinity>  (1) 
-5.87918854

>  <minimizedRMSD>  (1) 
0.736072183

$$$$
