
     RDKit          3D

 38 40  0  0  0  0  0  0  0  0999 V2000
   45.1120   33.9890   41.6290 N   0  0  0  0  0  0  0  0  0  0  0  0
   44.0500   33.7580   40.8400 C   0  0  0  0  0  0  0  0  0  0  0  0
   44.1670   33.4970   39.4810 C   0  0  0  0  0  0  0  0  0  0  0  0
   45.4500   33.4930   39.0050 C   0  0  0  0  0  0  0  0  0  0  0  0
   45.6170   33.2590   37.7730 O   0  0  0  0  0  0  0  0  0  0  0  0
   46.5170   33.7220   39.7700 N   0  0  0  0  0  0  0  0  0  0  0  0
   46.3500   33.9720   41.0930 C   0  0  0  0  0  0  0  0  0  0  0  0
   47.4030   34.1770   41.7410 O   0  0  0  0  0  0  0  0  0  0  0  0
   44.4830   35.7650   44.7910 C   0  0  0  0  0  0  0  0  0  0  0  0
   44.5070   35.4610   43.3980 C   0  0  0  0  0  0  0  0  0  0  0  0
   45.1050   34.2580   43.0030 C   0  0  0  0  0  0  0  0  0  0  0  0
   45.6170   33.4720   43.9720 N   0  0  0  0  0  0  0  0  0  0  0  0
   45.5830   33.7750   45.2610 C   0  0  0  0  0  0  0  0  0  0  0  0
   45.0270   34.9060   45.6920 N   0  0  0  0  0  0  0  0  0  0  0  0
   46.1600   32.8690   46.2460 C   0  0  0  0  0  0  0  0  0  0  0  0
   45.7440   31.6810   46.3760 O   0  0  0  0  0  0  0  0  0  0  0  0
   47.1820   33.2360   47.0920 O   0  0  0  0  0  0  0  0  0  0  0  0
   42.9510   33.2720   38.6630 C   0  0  0  0  0  0  0  0  0  0  0  0
   41.7910   33.5700   39.4220 N   0  0  0  0  0  0  0  0  0  0  0  0
   41.0960   32.8150   40.3560 C   0  0  0  0  0  0  0  0  0  0  0  0
   40.6180   31.5470   40.0920 C   0  0  0  0  0  0  0  0  0  0  0  0
   40.0060   31.0660   41.1690 N   0  0  0  0  0  0  0  0  0  0  0  0
   40.0710   31.9940   42.1370 C   0  0  0  0  0  0  0  0  0  0  0  0
   40.7350   33.0310   41.6080 N   0  0  0  0  0  0  0  0  0  0  0  0
   41.3280   34.9070   39.0640 C   0  0  0  0  0  0  0  0  0  0  0  0
   41.4970   35.7370   40.1210 F   0  0  0  0  0  0  0  0  0  0  0  0
   41.9960   35.2730   37.9290 F   0  0  0  0  0  0  0  0  0  0  0  0
   39.9810   34.9350   38.7570 F   0  0  0  0  0  0  0  0  0  0  0  0
   43.0459   33.7763   41.2888 H   0  0  0  0  0  0  0  0  0  0  0  0
   47.4617   33.7093   39.3598 H   0  0  0  0  0  0  0  0  0  0  0  0
   44.0211   36.7010   45.1382 H   0  0  0  0  0  0  0  0  0  0  0  0
   44.0704   36.1484   42.6585 H   0  0  0  0  0  0  0  0  0  0  0  0
   47.5417   32.5849   47.7453 H   0  0  0  0  0  0  0  0  0  0  0  0
   42.9167   32.2198   38.3440 H   0  0  0  0  0  0  0  0  0  0  0  0
   42.9833   33.9295   37.7817 H   0  0  0  0  0  0  0  0  0  0  0  0
   40.7272   31.0154   39.1352 H   0  0  0  0  0  0  0  0  0  0  0  0
   39.6628   31.9186   43.1557 H   0  0  0  0  0  0  0  0  0  0  0  0
   40.9410   33.9001   42.1209 H   0  0  0  0  0  0  0  0  0  0  0  0
  1 11  1  0
  2  1  1  0
  3  2  2  0
  4  3  1  0
  4  6  1  0
  5  4  2  0
  6  7  1  0
  7  1  1  0
  7  8  2  0
  9 14  2  0
 10  9  1  0
 11 10  2  0
 11 12  1  0
 12 13  2  0
 13 14  1  0
 13 15  1  0
 15 16  2  0
 15 17  1  0
 18 19  1  0
 18  3  1  0
 19 20  1  0
 20 24  1  0
 21 20  2  0
 21 22  1  0
 22 23  2  0
 24 23  1  0
 25 19  1  0
 25 26  1  0
 27 25  1  0
 28 25  1  0
  2 29  1  0
  6 30  1  0
  9 31  1  0
 10 32  1  0
 17 33  1  0
 18 34  1  0
 18 35  1  0
 21 36  1  0
 23 37  1  0
 24 38  1  0
M  ISO  8  29  14  30   9  31  14  32  14  33   3  34   8  35   8  36  14
M  ISO  2  37  14  38   9
M  END
>  <minimizedAffinity>  (1) 
-6.18055868

>  <minimizedRMSD>  (1) 
4.58805847

$$$$
