
     RDKit          3D

 41 43  0  0  0  0  0  0  0  0999 V2000
   46.2780   33.8300   41.7870 N   0  0  0  0  0  0  0  0  0  0  0  0
   45.7900   32.9110   40.9570 C   0  0  0  0  0  0  0  0  0  0  0  0
   46.2720   32.7170   39.6690 C   0  0  0  0  0  0  0  0  0  0  0  0
   47.3000   33.5460   39.3070 C   0  0  0  0  0  0  0  0  0  0  0  0
   47.7870   33.4200   38.1480 O   0  0  0  0  0  0  0  0  0  0  0  0
   47.8070   34.4770   40.1230 N   0  0  0  0  0  0  0  0  0  0  0  0
   47.3000   34.6260   41.3670 C   0  0  0  0  0  0  0  0  0  0  0  0
   47.8340   35.5220   42.0630 O   0  0  0  0  0  0  0  0  0  0  0  0
   44.5560   35.5680   44.5450 C   0  0  0  0  0  0  0  0  0  0  0  0
   45.0040   35.2350   43.2340 C   0  0  0  0  0  0  0  0  0  0  0  0
   45.8670   34.1140   43.0910 C   0  0  0  0  0  0  0  0  0  0  0  0
   46.1890   33.4570   44.2010 N   0  0  0  0  0  0  0  0  0  0  0  0
   45.7600   33.7830   45.4100 C   0  0  0  0  0  0  0  0  0  0  0  0
   44.9460   34.8310   45.6060 N   0  0  0  0  0  0  0  0  0  0  0  0
   46.1730   32.9970   46.5650 C   0  0  0  0  0  0  0  0  0  0  0  0
   45.5580   31.9410   46.9000 O   0  0  0  0  0  0  0  0  0  0  0  0
   47.2420   33.3310   47.3680 O   0  0  0  0  0  0  0  0  0  0  0  0
   45.6560   31.6890   38.7920 C   0  0  0  0  0  0  0  0  0  0  0  0
   44.6610   32.2850   37.9730 N   0  0  0  0  0  0  0  0  0  0  0  0
   43.4180   32.8620   38.2110 C   0  0  0  0  0  0  0  0  0  0  0  0
   43.2580   34.2060   38.4860 C   0  0  0  0  0  0  0  0  0  0  0  0
   42.0640   34.8160   38.7010 C   0  0  0  0  0  0  0  0  0  0  0  0
   40.8860   34.0970   38.6600 C   0  0  0  0  0  0  0  0  0  0  0  0
   40.9550   32.7460   38.3920 C   0  0  0  0  0  0  0  0  0  0  0  0
   42.2060   32.2040   38.1840 C   0  0  0  0  0  0  0  0  0  0  0  0
   45.0960   32.1840   36.5820 C   0  0  0  0  0  0  0  0  0  0  0  0
   45.3400   33.4290   36.1080 F   0  0  0  0  0  0  0  0  0  0  0  0
   46.1670   31.3330   36.5390 F   0  0  0  0  0  0  0  0  0  0  0  0
   44.1440   31.6190   35.7560 F   0  0  0  0  0  0  0  0  0  0  0  0
   44.9648   32.2741   41.3083 H   0  0  0  0  0  0  0  0  0  0  0  0
   48.5806   35.0778   39.8045 H   0  0  0  0  0  0  0  0  0  0  0  0
   43.8890   36.4301   44.6929 H   0  0  0  0  0  0  0  0  0  0  0  0
   44.6922   35.8263   42.3604 H   0  0  0  0  0  0  0  0  0  0  0  0
   47.4780   32.7594   48.1411 H   0  0  0  0  0  0  0  0  0  0  0  0
   46.4324   31.2407   38.1546 H   0  0  0  0  0  0  0  0  0  0  0  0
   45.1924   30.9112   39.4166 H   0  0  0  0  0  0  0  0  0  0  0  0
   44.1641   34.8278   38.5344 H   0  0  0  0  0  0  0  0  0  0  0  0
   42.0350   35.8955   38.9103 H   0  0  0  0  0  0  0  0  0  0  0  0
   39.9180   34.5888   38.8364 H   0  0  0  0  0  0  0  0  0  0  0  0
   40.0481   32.1252   38.3460 H   0  0  0  0  0  0  0  0  0  0  0  0
   42.2412   31.1251   37.9727 H   0  0  0  0  0  0  0  0  0  0  0  0
  1 11  1  0
  2  1  1  0
  3  2  2  0
  4  3  1  0
  4  6  1  0
  5  4  2  0
  6  7  1  0
  7  1  1  0
  7  8  2  0
  9 14  2  0
 10  9  1  0
 11 10  2  0
 11 12  1  0
 12 13  2  0
 13 14  1  0
 13 15  1  0
 15 16  2  0
 15 17  1  0
 18  3  1  0
 19 20  1  0
 19 18  1  0
 20 21  2  0
 21 22  1  0
 23 22  2  0
 24 23  1  0
 25 20  1  0
 25 24  2  0
 26 19  1  0
 27 26  1  0
 28 26  1  0
 29 26  1  0
  2 30  1  0
  6 31  1  0
  9 32  1  0
 10 33  1  0
 17 34  1  0
 18 35  1  0
 18 36  1  0
 21 37  1  0
 22 38  1  0
 23 39  1  0
 24 40  1  0
 25 41  1  0
M  ISO  8  30  14  31   9  32  14  33  14  34   3  35   8  36   8  37  14
M  ISO  4  38  14  39  14  40  14  41  14
M  END
>  <minimizedAffinity>  (1) 
-5.99165678

>  <minimizedRMSD>  (1) 
2.5051887

$$$$
