
     RDKit          3D

 38 40  0  0  0  0  0  0  0  0999 V2000
   46.3810   33.9470   41.8740 N   0  0  0  0  0  0  0  0  0  0  0  0
   45.9040   33.0390   41.0100 C   0  0  0  0  0  0  0  0  0  0  0  0
   46.4170   32.8820   39.7270 C   0  0  0  0  0  0  0  0  0  0  0  0
   47.4450   33.7270   39.4100 C   0  0  0  0  0  0  0  0  0  0  0  0
   47.9520   33.6320   38.2570 O   0  0  0  0  0  0  0  0  0  0  0  0
   47.9300   34.6370   40.2600 N   0  0  0  0  0  0  0  0  0  0  0  0
   47.3970   34.7510   41.5010 C   0  0  0  0  0  0  0  0  0  0  0  0
   47.9130   35.6300   42.2290 O   0  0  0  0  0  0  0  0  0  0  0  0
   44.5880   35.5670   44.6520 C   0  0  0  0  0  0  0  0  0  0  0  0
   45.0570   35.2890   43.3350 C   0  0  0  0  0  0  0  0  0  0  0  0
   45.9430   34.1880   43.1800 C   0  0  0  0  0  0  0  0  0  0  0  0
   46.2720   33.4970   44.2840 N   0  0  0  0  0  0  0  0  0  0  0  0
   45.8160   33.7840   45.4960 C   0  0  0  0  0  0  0  0  0  0  0  0
   44.9820   34.8040   45.7050 N   0  0  0  0  0  0  0  0  0  0  0  0
   46.2260   32.9800   46.6340 C   0  0  0  0  0  0  0  0  0  0  0  0
   45.6050   31.9110   46.9400 O   0  0  0  0  0  0  0  0  0  0  0  0
   47.2910   33.3040   47.4510 O   0  0  0  0  0  0  0  0  0  0  0  0
   45.8400   31.8620   38.8170 C   0  0  0  0  0  0  0  0  0  0  0  0
   44.8210   32.4580   38.0140 N   0  0  0  0  0  0  0  0  0  0  0  0
   41.8570   34.1470   39.1840 N   0  0  0  0  0  0  0  0  0  0  0  0
   43.1760   34.1300   39.1850 N   0  0  0  0  0  0  0  0  0  0  0  0
   43.6350   33.0960   38.4560 C   0  0  0  0  0  0  0  0  0  0  0  0
   42.4980   32.4330   37.9760 C   0  0  0  0  0  0  0  0  0  0  0  0
   41.3660   33.1100   38.4440 C   0  0  0  0  0  0  0  0  0  0  0  0
   45.1900   32.2820   36.6110 C   0  0  0  0  0  0  0  0  0  0  0  0
   45.2600   33.4920   36.0040 F   0  0  0  0  0  0  0  0  0  0  0  0
   46.3500   31.5610   36.5830 F   0  0  0  0  0  0  0  0  0  0  0  0
   44.2510   31.5480   35.9080 F   0  0  0  0  0  0  0  0  0  0  0  0
   45.0734   32.3923   41.3291 H   0  0  0  0  0  0  0  0  0  0  0  0
   48.7065   35.2499   39.9730 H   0  0  0  0  0  0  0  0  0  0  0  0
   43.8994   36.4086   44.8177 H   0  0  0  0  0  0  0  0  0  0  0  0
   44.7465   35.9005   42.4749 H   0  0  0  0  0  0  0  0  0  0  0  0
   47.5258   32.7183   48.2138 H   0  0  0  0  0  0  0  0  0  0  0  0
   46.6317   31.4621   38.1664 H   0  0  0  0  0  0  0  0  0  0  0  0
   45.4051   31.0456   39.4123 H   0  0  0  0  0  0  0  0  0  0  0  0
   41.2785   34.8449   39.6730 H   0  0  0  0  0  0  0  0  0  0  0  0
   42.4954   31.5350   37.3407 H   0  0  0  0  0  0  0  0  0  0  0  0
   40.3111   32.8610   38.2566 H   0  0  0  0  0  0  0  0  0  0  0  0
  1 11  1  0
  2  1  1  0
  3  2  2  0
  4  3  1  0
  4  6  1  0
  5  4  2  0
  6  7  1  0
  7  1  1  0
  7  8  2  0
  9 14  2  0
 10  9  1  0
 11 10  2  0
 11 12  1  0
 12 13  2  0
 13 14  1  0
 13 15  1  0
 15 16  2  0
 15 17  1  0
 18  3  1  0
 19 22  1  0
 19 18  1  0
 20 21  1  0
 22 21  2  0
 23 24  2  0
 23 22  1  0
 24 20  1  0
 25 19  1  0
 26 25  1  0
 27 25  1  0
 28 25  1  0
  2 29  1  0
  6 30  1  0
  9 31  1  0
 10 32  1  0
 17 33  1  0
 18 34  1  0
 18 35  1  0
 20 36  1  0
 23 37  1  0
 24 38  1  0
M  ISO  8  29  14  30   9  31  14  32  14  33   3  34   8  35   8  36   9
M  ISO  2  37  14  38  14
M  END
>  <minimizedAffinity>  (1) 
-5.96464396

>  <minimizedRMSD>  (1) 
2.06734037

$$$$
