
     RDKit          3D

 46 48  0  0  0  0  0  0  0  0999 V2000
   46.7420   34.2500   41.6540 N   0  0  0  0  0  0  0  0  0  0  0  0
   46.3120   33.4370   40.6920 C   0  0  0  0  0  0  0  0  0  0  0  0
   46.8790   33.3300   39.4540 C   0  0  0  0  0  0  0  0  0  0  0  0
   47.9830   34.1690   39.2740 C   0  0  0  0  0  0  0  0  0  0  0  0
   48.6100   34.1640   38.1440 O   0  0  0  0  0  0  0  0  0  0  0  0
   48.4550   35.0130   40.2250 N   0  0  0  0  0  0  0  0  0  0  0  0
   47.8230   35.0480   41.4250 C   0  0  0  0  0  0  0  0  0  0  0  0
   48.3020   35.8450   42.2630 O   0  0  0  0  0  0  0  0  0  0  0  0
   44.7200   35.6530   44.3950 C   0  0  0  0  0  0  0  0  0  0  0  0
   45.2890   35.4600   43.0980 C   0  0  0  0  0  0  0  0  0  0  0  0
   46.2080   34.4060   42.9360 C   0  0  0  0  0  0  0  0  0  0  0  0
   46.4820   33.6560   44.0210 N   0  0  0  0  0  0  0  0  0  0  0  0
   45.9410   33.8530   45.2160 C   0  0  0  0  0  0  0  0  0  0  0  0
   45.0620   34.8440   45.4190 N   0  0  0  0  0  0  0  0  0  0  0  0
   46.2920   32.9990   46.3310 C   0  0  0  0  0  0  0  0  0  0  0  0
   45.7630   31.8570   46.4690 O   0  0  0  0  0  0  0  0  0  0  0  0
   47.2050   33.3490   47.3060 O   0  0  0  0  0  0  0  0  0  0  0  0
   46.4520   32.4470   38.3900 C   0  0  0  0  0  0  0  0  0  0  0  0
   45.2050   32.9300   37.7940 N   0  0  0  0  0  0  0  0  0  0  0  0
   41.3620   32.3640   39.5530 N   0  0  0  0  0  0  0  0  0  0  0  0
   42.0080   33.6630   39.5650 C   0  0  0  0  0  0  0  0  0  0  0  0
   42.9260   33.7330   38.3610 C   0  0  0  0  0  0  0  0  0  0  0  0
   44.1110   32.8440   38.6950 C   0  0  0  0  0  0  0  0  0  0  0  0
   43.6030   31.4980   39.0510 C   0  0  0  0  0  0  0  0  0  0  0  0
   42.0940   31.3720   38.7860 C   0  0  0  0  0  0  0  0  0  0  0  0
   44.9410   32.1690   36.6110 C   0  0  0  0  0  0  0  0  0  0  0  0
   45.3720   32.8340   35.4610 F   0  0  0  0  0  0  0  0  0  0  0  0
   45.7250   31.0050   36.7240 F   0  0  0  0  0  0  0  0  0  0  0  0
   43.6830   31.7550   36.4330 F   0  0  0  0  0  0  0  0  0  0  0  0
   45.4375   32.8062   40.9095 H   0  0  0  0  0  0  0  0  0  0  0  0
   49.2724   35.6121   40.0409 H   0  0  0  0  0  0  0  0  0  0  0  0
   43.9983   36.4667   44.5593 H   0  0  0  0  0  0  0  0  0  0  0  0
   45.0180   36.1128   42.2552 H   0  0  0  0  0  0  0  0  0  0  0  0
   47.4043   32.7218   48.0456 H   0  0  0  0  0  0  0  0  0  0  0  0
   47.2325   32.4088   37.6158 H   0  0  0  0  0  0  0  0  0  0  0  0
   46.2825   31.4431   38.8065 H   0  0  0  0  0  0  0  0  0  0  0  0
   41.2773   32.0308   40.5239 H   0  0  0  0  0  0  0  0  0  0  0  0
   41.2506   34.4585   39.5052 H   0  0  0  0  0  0  0  0  0  0  0  0
   42.5806   33.7996   40.4942 H   0  0  0  0  0  0  0  0  0  0  0  0
   43.2586   34.7678   38.1920 H   0  0  0  0  0  0  0  0  0  0  0  0
   42.4173   33.4033   37.4431 H   0  0  0  0  0  0  0  0  0  0  0  0
   44.6245   33.2259   39.5897 H   0  0  0  0  0  0  0  0  0  0  0  0
   44.1347   30.7457   38.4498 H   0  0  0  0  0  0  0  0  0  0  0  0
   43.7772   31.3386   40.1254 H   0  0  0  0  0  0  0  0  0  0  0  0
   41.8998   31.5265   37.7144 H   0  0  0  0  0  0  0  0  0  0  0  0
   41.7605   30.3686   39.0891 H   0  0  0  0  0  0  0  0  0  0  0  0
  1 11  1  0
  2  1  1  0
  3  2  2  0
  4  3  1  0
  4  6  1  0
  5  4  2  0
  6  7  1  0
  7  1  1  0
  7  8  2  0
  9 14  2  0
 10  9  1  0
 11 10  2  0
 11 12  1  0
 12 13  2  0
 13 14  1  0
 13 15  1  0
 15 16  2  0
 15 17  1  0
 18  3  1  0
 19 18  1  0
 19 23  1  0
 20 21  1  0
 22 23  1  0
 22 21  1  0
 23 24  1  0
 25 24  1  0
 25 20  1  0
 26 28  1  0
 26 19  1  0
 27 26  1  0
 29 26  1  0
  2 30  1  0
  6 31  1  0
  9 32  1  0
 10 33  1  0
 17 34  1  0
 18 35  1  0
 18 36  1  0
 20 37  1  0
 21 38  1  0
 21 39  1  0
 22 40  1  0
 22 41  1  0
 23 42  1  0
 24 43  1  0
 24 44  1  0
 25 45  1  0
 25 46  1  0
M  ISO  8  30  14  31   9  32  14  33  14  34   3  35   8  36   8  37   5
M  ISO  8  38  13  39  13  40  13  41  13  42  13  43  13  44  13  45  13
M  ISO  1  46  13
M  END
>  <minimizedAffinity>  (1) 
-5.92648888

>  <minimizedRMSD>  (1) 
1.66759717

$$$$
