
     RDKit          3D

 39 41  0  0  0  0  0  0  0  0999 V2000
   46.6740   33.9540   41.6440 N   0  0  0  0  0  0  0  0  0  0  0  0
   46.2730   33.0270   40.7660 C   0  0  0  0  0  0  0  0  0  0  0  0
   46.8510   32.8740   39.5100 C   0  0  0  0  0  0  0  0  0  0  0  0
   47.8670   33.7470   39.2360 C   0  0  0  0  0  0  0  0  0  0  0  0
   48.4350   33.6570   38.1110 O   0  0  0  0  0  0  0  0  0  0  0  0
   48.2780   34.6800   40.1050 N   0  0  0  0  0  0  0  0  0  0  0  0
   47.6810   34.7860   41.3100 C   0  0  0  0  0  0  0  0  0  0  0  0
   48.1320   35.6900   42.0550 O   0  0  0  0  0  0  0  0  0  0  0  0
   44.7310   35.5380   44.3390 C   0  0  0  0  0  0  0  0  0  0  0  0
   45.2680   35.2720   43.0460 C   0  0  0  0  0  0  0  0  0  0  0  0
   46.1640   34.1920   42.9250 C   0  0  0  0  0  0  0  0  0  0  0  0
   46.4450   33.4890   44.0430 N   0  0  0  0  0  0  0  0  0  0  0  0
   45.9250   33.7670   45.2300 C   0  0  0  0  0  0  0  0  0  0  0  0
   45.0790   34.7690   45.4050 N   0  0  0  0  0  0  0  0  0  0  0  0
   46.2900   32.9480   46.3880 C   0  0  0  0  0  0  0  0  0  0  0  0
   45.7630   31.8150   46.5920 O   0  0  0  0  0  0  0  0  0  0  0  0
   47.2210   33.3480   47.3230 O   0  0  0  0  0  0  0  0  0  0  0  0
   46.3330   31.8440   38.5780 C   0  0  0  0  0  0  0  0  0  0  0  0
   45.1420   32.2960   37.9570 N   0  0  0  0  0  0  0  0  0  0  0  0
   43.8290   32.5590   38.3520 C   0  0  0  0  0  0  0  0  0  0  0  0
   42.8400   31.6470   38.5680 C   0  0  0  0  0  0  0  0  0  0  0  0
   41.5430   31.8820   38.9700 C   0  0  0  0  0  0  0  0  0  0  0  0
   41.2620   33.2040   39.1630 N   0  0  0  0  0  0  0  0  0  0  0  0
   42.1830   34.1500   38.9690 C   0  0  0  0  0  0  0  0  0  0  0  0
   43.4180   33.8180   38.5770 N   0  0  0  0  0  0  0  0  0  0  0  0
   45.4210   32.4850   36.5290 C   0  0  0  0  0  0  0  0  0  0  0  0
   45.3340   33.7990   36.2230 F   0  0  0  0  0  0  0  0  0  0  0  0
   46.6210   31.8970   36.2640 F   0  0  0  0  0  0  0  0  0  0  0  0
   44.4830   31.8410   35.7350 F   0  0  0  0  0  0  0  0  0  0  0  0
   45.4492   32.3558   41.0504 H   0  0  0  0  0  0  0  0  0  0  0  0
   49.0486   35.3154   39.8535 H   0  0  0  0  0  0  0  0  0  0  0  0
   44.0284   36.3732   44.4759 H   0  0  0  0  0  0  0  0  0  0  0  0
   44.9933   35.8865   42.1760 H   0  0  0  0  0  0  0  0  0  0  0  0
   47.4359   32.7605   48.0903 H   0  0  0  0  0  0  0  0  0  0  0  0
   47.0896   31.6398   37.8061 H   0  0  0  0  0  0  0  0  0  0  0  0
   46.1149   30.9266   39.1444 H   0  0  0  0  0  0  0  0  0  0  0  0
   43.1100   30.5938   38.4010 H   0  0  0  0  0  0  0  0  0  0  0  0
   40.8045   31.0808   39.1210 H   0  0  0  0  0  0  0  0  0  0  0  0
   41.9255   35.2069   39.1321 H   0  0  0  0  0  0  0  0  0  0  0  0
  1 11  1  0
  2  1  1  0
  3  2  2  0
  4  3  1  0
  4  6  1  0
  5  4  2  0
  6  7  1  0
  7  1  1  0
  7  8  2  0
  9 14  2  0
 10  9  1  0
 11 10  2  0
 11 12  1  0
 12 13  2  0
 13 14  1  0
 13 15  1  0
 15 16  2  0
 15 17  1  0
 18  3  1  0
 19 20  1  0
 19 18  1  0
 20 21  2  0
 20 25  1  0
 21 22  1  0
 22 23  2  0
 24 23  1  0
 25 24  2  0
 26 19  1  0
 27 26  1  0
 28 26  1  0
 29 26  1  0
  2 30  1  0
  6 31  1  0
  9 32  1  0
 10 33  1  0
 17 34  1  0
 18 35  1  0
 18 36  1  0
 21 37  1  0
 22 38  1  0
 24 39  1  0
M  ISO  8  30  14  31   9  32  14  33  14  34   3  35   8  36   8  37  14
M  ISO  2  38  14  39  14
M  END
>  <minimizedAffinity>  (1) 
-5.8489151

>  <minimizedRMSD>  (1) 
2.58052707

$$$$
