
     RDKit          3D

 44 46  0  0  0  0  0  0  0  0999 V2000
   46.7870   34.1480   41.5520 N   0  0  0  0  0  0  0  0  0  0  0  0
   46.3770   33.3060   40.6050 C   0  0  0  0  0  0  0  0  0  0  0  0
   46.9430   33.1690   39.3750 C   0  0  0  0  0  0  0  0  0  0  0  0
   48.0330   34.0180   39.1790 C   0  0  0  0  0  0  0  0  0  0  0  0
   48.6650   33.9930   38.0570 O   0  0  0  0  0  0  0  0  0  0  0  0
   48.4950   34.8960   40.1050 N   0  0  0  0  0  0  0  0  0  0  0  0
   47.8560   34.9520   41.3010 C   0  0  0  0  0  0  0  0  0  0  0  0
   48.3240   35.7790   42.1180 O   0  0  0  0  0  0  0  0  0  0  0  0
   44.7490   35.6200   44.2400 C   0  0  0  0  0  0  0  0  0  0  0  0
   45.3240   35.4050   42.9500 C   0  0  0  0  0  0  0  0  0  0  0  0
   46.2450   34.3290   42.8260 C   0  0  0  0  0  0  0  0  0  0  0  0
   46.5010   33.6060   43.9220 N   0  0  0  0  0  0  0  0  0  0  0  0
   45.9500   33.8310   45.1070 C   0  0  0  0  0  0  0  0  0  0  0  0
   45.0750   34.8320   45.2800 N   0  0  0  0  0  0  0  0  0  0  0  0
   46.2840   32.9980   46.2430 C   0  0  0  0  0  0  0  0  0  0  0  0
   45.7720   31.8480   46.3810 O   0  0  0  0  0  0  0  0  0  0  0  0
   47.1600   33.3800   47.2360 O   0  0  0  0  0  0  0  0  0  0  0  0
   46.5220   32.2540   38.3370 C   0  0  0  0  0  0  0  0  0  0  0  0
   45.6230   32.9220   37.3920 N   0  0  0  0  0  0  0  0  0  0  0  0
   44.2410   32.5180   37.6370 C   0  0  0  0  0  0  0  0  0  0  0  0
   43.4630   33.6290   38.2890 C   0  0  0  0  0  0  0  0  0  0  0  0
   42.7840   32.9960   39.5060 C   0  0  0  0  0  0  0  0  0  0  0  0
   42.6890   31.5240   39.1170 C   0  0  0  0  0  0  0  0  0  0  0  0
   44.0540   31.3390   38.4880 C   0  0  0  0  0  0  0  0  0  0  0  0
   45.9640   32.4920   36.0680 C   0  0  0  0  0  0  0  0  0  0  0  0
   47.2540   32.8840   35.7070 F   0  0  0  0  0  0  0  0  0  0  0  0
   45.9690   31.0830   36.1100 F   0  0  0  0  0  0  0  0  0  0  0  0
   45.1130   32.8180   35.0920 F   0  0  0  0  0  0  0  0  0  0  0  0
   45.5102   32.6694   40.8359 H   0  0  0  0  0  0  0  0  0  0  0  0
   49.3049   35.5006   39.9064 H   0  0  0  0  0  0  0  0  0  0  0  0
   44.0306   36.4404   44.3845 H   0  0  0  0  0  0  0  0  0  0  0  0
   45.0659   36.0429   42.0918 H   0  0  0  0  0  0  0  0  0  0  0  0
   47.3507   32.7678   47.9903 H   0  0  0  0  0  0  0  0  0  0  0  0
   47.4077   31.8888   37.7964 H   0  0  0  0  0  0  0  0  0  0  0  0
   45.9857   31.4137   38.8020 H   0  0  0  0  0  0  0  0  0  0  0  0
   43.8813   32.2668   36.6283 H   0  0  0  0  0  0  0  0  0  0  0  0
   44.1388   34.4378   38.6037 H   0  0  0  0  0  0  0  0  0  0  0  0
   42.7304   34.0727   37.5988 H   0  0  0  0  0  0  0  0  0  0  0  0
   43.3938   33.1272   40.4120 H   0  0  0  0  0  0  0  0  0  0  0  0
   41.8086   33.4464   39.7420 H   0  0  0  0  0  0  0  0  0  0  0  0
   42.5514   30.8762   39.9953 H   0  0  0  0  0  0  0  0  0  0  0  0
   41.8379   31.2664   38.4694 H   0  0  0  0  0  0  0  0  0  0  0  0
   44.0809   30.4189   37.8857 H   0  0  0  0  0  0  0  0  0  0  0  0
   44.8481   31.2437   39.2432 H   0  0  0  0  0  0  0  0  0  0  0  0
  1 11  1  0
  2  1  1  0
  3  2  2  0
  4  3  1  0
  4  6  1  0
  5  4  2  0
  6  7  1  0
  7  1  1  0
  7  8  2  0
  9 14  2  0
 10  9  1  0
 11 10  2  0
 11 12  1  0
 12 13  2  0
 13 14  1  0
 13 15  1  0
 15 16  2  0
 15 17  1  0
 18  3  1  0
 19 20  1  0
 19 18  1  0
 20 21  1  0
 20 24  1  0
 21 22  1  0
 23 22  1  0
 24 23  1  0
 25 27  1  0
 25 19  1  0
 26 25  1  0
 28 25  1  0
  2 29  1  0
  6 30  1  0
  9 31  1  0
 10 32  1  0
 17 33  1  0
 18 34  1  0
 18 35  1  0
 20 36  1  0
 21 37  1  0
 21 38  1  0
 22 39  1  0
 22 40  1  0
 23 41  1  0
 23 42  1  0
 24 43  1  0
 24 44  1  0
M  ISO  8  29  14  30   9  31  14  32  14  33   3  34   8  35   8  36  13
M  ISO  8  37  13  38  13  39  13  40  13  41  13  42  13  43  13  44  13
M  END
>  <minimizedAffinity>  (1) 
-5.80401373

>  <minimizedRMSD>  (1) 
0.975599051

$$$$
