
     RDKit          3D

 39 41  0  0  0  0  0  0  0  0999 V2000
   46.7990   33.8910   41.5770 N   0  0  0  0  0  0  0  0  0  0  0  0
   46.4410   32.9480   40.7020 C   0  0  0  0  0  0  0  0  0  0  0  0
   47.0660   32.7760   39.4720 C   0  0  0  0  0  0  0  0  0  0  0  0
   48.0860   33.6500   39.2190 C   0  0  0  0  0  0  0  0  0  0  0  0
   48.6950   33.5430   38.1170 O   0  0  0  0  0  0  0  0  0  0  0  0
   48.4610   34.6010   40.0830 N   0  0  0  0  0  0  0  0  0  0  0  0
   47.8240   34.7310   41.2640 C   0  0  0  0  0  0  0  0  0  0  0  0
   48.2350   35.6460   42.0130 O   0  0  0  0  0  0  0  0  0  0  0  0
   44.7520   35.5070   44.1700 C   0  0  0  0  0  0  0  0  0  0  0  0
   45.3340   35.2200   42.9010 C   0  0  0  0  0  0  0  0  0  0  0  0
   46.2410   34.1500   42.8350 C   0  0  0  0  0  0  0  0  0  0  0  0
   46.4790   33.4910   43.9730 N   0  0  0  0  0  0  0  0  0  0  0  0
   45.9390   33.7600   45.1410 C   0  0  0  0  0  0  0  0  0  0  0  0
   45.0690   34.7660   45.2640 N   0  0  0  0  0  0  0  0  0  0  0  0
   46.2630   32.9800   46.3250 C   0  0  0  0  0  0  0  0  0  0  0  0
   45.6980   31.8610   46.5500 O   0  0  0  0  0  0  0  0  0  0  0  0
   47.1810   33.3780   47.2680 O   0  0  0  0  0  0  0  0  0  0  0  0
   46.6040   31.7140   38.5450 C   0  0  0  0  0  0  0  0  0  0  0  0
   45.4530   32.1710   37.8320 N   0  0  0  0  0  0  0  0  0  0  0  0
   44.0510   32.2890   38.0010 C   0  0  0  0  0  0  0  0  0  0  0  0
   43.7620   33.6060   38.3810 C   0  0  0  0  0  0  0  0  0  0  0  0
   42.4560   34.0260   38.6220 C   0  0  0  0  0  0  0  0  0  0  0  0
   41.4780   33.0980   38.4700 N   0  0  0  0  0  0  0  0  0  0  0  0
   41.7730   31.8410   38.1050 C   0  0  0  0  0  0  0  0  0  0  0  0
   43.0350   31.4480   37.8750 N   0  0  0  0  0  0  0  0  0  0  0  0
   45.8910   32.6120   36.5050 C   0  0  0  0  0  0  0  0  0  0  0  0
   46.1260   33.9460   36.5330 F   0  0  0  0  0  0  0  0  0  0  0  0
   46.9660   31.8420   36.1570 F   0  0  0  0  0  0  0  0  0  0  0  0
   44.9250   32.4050   35.5390 F   0  0  0  0  0  0  0  0  0  0  0  0
   45.6121   32.2752   40.9670 H   0  0  0  0  0  0  0  0  0  0  0  0
   49.2375   35.2345   39.8452 H   0  0  0  0  0  0  0  0  0  0  0  0
   44.0378   36.3382   44.2649 H   0  0  0  0  0  0  0  0  0  0  0  0
   45.0828   35.8129   42.0091 H   0  0  0  0  0  0  0  0  0  0  0  0
   47.3617   32.8057   48.0553 H   0  0  0  0  0  0  0  0  0  0  0  0
   47.4065   31.4757   37.8314 H   0  0  0  0  0  0  0  0  0  0  0  0
   46.3449   30.8129   39.1201 H   0  0  0  0  0  0  0  0  0  0  0  0
   44.5864   34.3258   38.4917 H   0  0  0  0  0  0  0  0  0  0  0  0
   42.2286   35.0599   38.9210 H   0  0  0  0  0  0  0  0  0  0  0  0
   40.9571   31.1121   37.9911 H   0  0  0  0  0  0  0  0  0  0  0  0
  1 11  1  0
  2  1  1  0
  3  2  2  0
  4  3  1  0
  4  6  1  0
  5  4  2  0
  6  7  1  0
  7  1  1  0
  7  8  2  0
  9 14  2  0
 10  9  1  0
 11 10  2  0
 11 12  1  0
 12 13  2  0
 13 14  1  0
 13 15  1  0
 15 16  2  0
 15 17  1  0
 18  3  1  0
 19 20  1  0
 19 18  1  0
 20 21  2  0
 21 22  1  0
 23 22  2  0
 24 23  1  0
 25 20  1  0
 25 24  2  0
 26 27  1  0
 26 19  1  0
 28 26  1  0
 29 26  1  0
  2 30  1  0
  6 31  1  0
  9 32  1  0
 10 33  1  0
 17 34  1  0
 18 35  1  0
 18 36  1  0
 21 37  1  0
 22 38  1  0
 24 39  1  0
M  ISO  8  30  14  31   9  32  14  33  14  34   3  35   8  36   8  37  14
M  ISO  2  38  14  39  14
M  END
>  <minimizedAffinity>  (1) 
-5.78480959

>  <minimizedRMSD>  (1) 
2.52899909

$$$$
