
     RDKit          3D

 38 40  0  0  0  0  0  0  0  0999 V2000
   46.2540   33.8600   41.7760 N   0  0  0  0  0  0  0  0  0  0  0  0
   45.7400   32.9560   40.9360 C   0  0  0  0  0  0  0  0  0  0  0  0
   46.2190   32.7600   39.6470 C   0  0  0  0  0  0  0  0  0  0  0  0
   47.2660   33.5670   39.2950 C   0  0  0  0  0  0  0  0  0  0  0  0
   47.7480   33.4370   38.1340 O   0  0  0  0  0  0  0  0  0  0  0  0
   47.7930   34.4780   40.1250 N   0  0  0  0  0  0  0  0  0  0  0  0
   47.2890   34.6290   41.3690 C   0  0  0  0  0  0  0  0  0  0  0  0
   47.8440   35.5050   42.0720 O   0  0  0  0  0  0  0  0  0  0  0  0
   44.5600   35.5740   44.5620 C   0  0  0  0  0  0  0  0  0  0  0  0
   44.9920   35.2600   43.2400 C   0  0  0  0  0  0  0  0  0  0  0  0
   45.8500   34.1380   43.0880 C   0  0  0  0  0  0  0  0  0  0  0  0
   46.1790   33.4720   44.1950 N   0  0  0  0  0  0  0  0  0  0  0  0
   45.7650   33.7830   45.4110 C   0  0  0  0  0  0  0  0  0  0  0  0
   44.9630   34.8200   45.6180 N   0  0  0  0  0  0  0  0  0  0  0  0
   46.1850   32.9880   46.5590 C   0  0  0  0  0  0  0  0  0  0  0  0
   45.5870   31.9120   46.8730 O   0  0  0  0  0  0  0  0  0  0  0  0
   47.2350   33.3270   47.3720 O   0  0  0  0  0  0  0  0  0  0  0  0
   45.5900   31.7490   38.7660 C   0  0  0  0  0  0  0  0  0  0  0  0
   44.6560   32.3860   37.8930 N   0  0  0  0  0  0  0  0  0  0  0  0
   43.5150   33.1250   38.2990 C   0  0  0  0  0  0  0  0  0  0  0  0
   42.4310   32.2680   38.5310 C   0  0  0  0  0  0  0  0  0  0  0  0
   41.3400   33.0530   38.9280 C   0  0  0  0  0  0  0  0  0  0  0  0
   41.8430   34.3600   38.9090 C   0  0  0  0  0  0  0  0  0  0  0  0
   43.0980   34.3230   38.5390 O   0  0  0  0  0  0  0  0  0  0  0  0
   45.0700   32.1240   36.5180 C   0  0  0  0  0  0  0  0  0  0  0  0
   45.3400   33.2980   35.8980 F   0  0  0  0  0  0  0  0  0  0  0  0
   46.1170   31.2460   36.5700 F   0  0  0  0  0  0  0  0  0  0  0  0
   44.0790   31.5090   35.7750 F   0  0  0  0  0  0  0  0  0  0  0  0
   44.8981   32.3383   41.2819 H   0  0  0  0  0  0  0  0  0  0  0  0
   48.5820   35.0627   39.8143 H   0  0  0  0  0  0  0  0  0  0  0  0
   43.8947   36.4341   44.7284 H   0  0  0  0  0  0  0  0  0  0  0  0
   44.6746   35.8607   42.3749 H   0  0  0  0  0  0  0  0  0  0  0  0
   47.4748   32.7478   48.1382 H   0  0  0  0  0  0  0  0  0  0  0  0
   46.3674   31.2501   38.1687 H   0  0  0  0  0  0  0  0  0  0  0  0
   45.0639   31.0052   39.3824 H   0  0  0  0  0  0  0  0  0  0  0  0
   42.4355   31.1735   38.4211 H   0  0  0  0  0  0  0  0  0  0  0  0
   40.3255   32.7203   39.1927 H   0  0  0  0  0  0  0  0  0  0  0  0
   41.2766   35.2681   39.1632 H   0  0  0  0  0  0  0  0  0  0  0  0
  1 11  1  0
  2  1  1  0
  3  2  2  0
  4  3  1  0
  4  6  1  0
  5  4  2  0
  6  7  1  0
  7  1  1  0
  7  8  2  0
  9 14  2  0
 10  9  1  0
 11 10  2  0
 11 12  1  0
 12 13  2  0
 13 14  1  0
 13 15  1  0
 15 16  2  0
 15 17  1  0
 18  3  1  0
 19 20  1  0
 19 18  1  0
 20 21  2  0
 20 24  1  0
 21 22  1  0
 23 22  2  0
 24 23  1  0
 25 27  1  0
 25 19  1  0
 26 25  1  0
 28 25  1  0
  2 29  1  0
  6 30  1  0
  9 31  1  0
 10 32  1  0
 17 33  1  0
 18 34  1  0
 18 35  1  0
 21 36  1  0
 22 37  1  0
 23 38  1  0
M  ISO  8  29  14  30   9  31  14  32  14  33   3  34   8  35   8  36  14
M  ISO  2  37  14  38  14
M  END
>  <minimizedAffinity>  (1) 
-5.69232559

>  <minimizedRMSD>  (1) 
2.03860617

$$$$
