
     RDKit          3D

 44 46  0  0  0  0  0  0  0  0999 V2000
   46.7400   34.3770   41.4290 N   0  0  0  0  0  0  0  0  0  0  0  0
   46.1720   33.7530   40.3730 C   0  0  0  0  0  0  0  0  0  0  0  0
   46.7600   33.6740   39.1320 C   0  0  0  0  0  0  0  0  0  0  0  0
   47.9840   34.2920   39.0630 C   0  0  0  0  0  0  0  0  0  0  0  0
   48.6220   34.2790   37.9490 O   0  0  0  0  0  0  0  0  0  0  0  0
   48.5820   34.9270   40.1010 N   0  0  0  0  0  0  0  0  0  0  0  0
   47.9450   34.9640   41.2900 C   0  0  0  0  0  0  0  0  0  0  0  0
   48.5420   35.5630   42.2130 O   0  0  0  0  0  0  0  0  0  0  0  0
   44.7190   35.7220   44.2020 C   0  0  0  0  0  0  0  0  0  0  0  0
   45.2870   35.5630   42.9050 C   0  0  0  0  0  0  0  0  0  0  0  0
   46.2040   34.5000   42.7180 C   0  0  0  0  0  0  0  0  0  0  0  0
   46.4580   33.7330   43.7790 N   0  0  0  0  0  0  0  0  0  0  0  0
   45.9120   33.9060   44.9770 C   0  0  0  0  0  0  0  0  0  0  0  0
   45.0500   34.8860   45.2030 N   0  0  0  0  0  0  0  0  0  0  0  0
   46.2570   33.0140   46.0720 C   0  0  0  0  0  0  0  0  0  0  0  0
   45.8470   31.8140   46.0980 O   0  0  0  0  0  0  0  0  0  0  0  0
   47.0370   33.3980   47.1390 O   0  0  0  0  0  0  0  0  0  0  0  0
   46.1570   33.0050   37.9940 C   0  0  0  0  0  0  0  0  0  0  0  0
   45.7940   31.6240   38.3580 N   0  0  0  0  0  0  0  0  0  0  0  0
   44.3870   31.4570   38.0900 C   0  0  0  0  0  0  0  0  0  0  0  0
   43.6000   31.8100   39.1760 F   0  0  0  0  0  0  0  0  0  0  0  0
   44.0790   32.3590   37.0560 F   0  0  0  0  0  0  0  0  0  0  0  0
   44.0200   30.2480   37.6470 F   0  0  0  0  0  0  0  0  0  0  0  0
   46.7520   30.5320   37.4220 S   0  0  0  0  0  0  0  0  0  0  0  0
   46.2700   30.6310   35.9980 O   0  0  0  0  0  0  0  0  0  0  0  0
   46.4410   29.1350   37.8750 O   0  0  0  0  0  0  0  0  0  0  0  0
   48.4410   30.8140   37.4480 C   0  0  0  0  0  0  0  0  0  0  0  0
   49.0190   30.7840   38.7250 C   0  0  0  0  0  0  0  0  0  0  0  0
   50.3870   30.9950   38.8830 C   0  0  0  0  0  0  0  0  0  0  0  0
   51.2070   31.2370   37.7900 C   0  0  0  0  0  0  0  0  0  0  0  0
   50.6560   31.2700   36.5260 C   0  0  0  0  0  0  0  0  0  0  0  0
   49.3160   31.0590   36.4110 C   0  0  0  0  0  0  0  0  0  0  0  0
   45.1872   33.2834   40.5135 H   0  0  0  0  0  0  0  0  0  0  0  0
   49.5036   35.3720   39.9844 H   0  0  0  0  0  0  0  0  0  0  0  0
   44.0028   36.5362   44.3868 H   0  0  0  0  0  0  0  0  0  0  0  0
   45.0231   36.2406   42.0797 H   0  0  0  0  0  0  0  0  0  0  0  0
   47.2430   32.7513   47.8597 H   0  0  0  0  0  0  0  0  0  0  0  0
   46.8742   32.9858   37.1602 H   0  0  0  0  0  0  0  0  0  0  0  0
   45.2504   33.5500   37.6924 H   0  0  0  0  0  0  0  0  0  0  0  0
   48.3893   30.5929   39.6064 H   0  0  0  0  0  0  0  0  0  0  0  0
   50.8248   30.9693   39.8918 H   0  0  0  0  0  0  0  0  0  0  0  0
   52.2856   31.4009   37.9302 H   0  0  0  0  0  0  0  0  0  0  0  0
   51.2790   31.4606   35.6397 H   0  0  0  0  0  0  0  0  0  0  0  0
   48.8919   31.0865   35.3964 H   0  0  0  0  0  0  0  0  0  0  0  0
  1 11  1  0
  2  1  1  0
  3  2  2  0
  4  3  1  0
  4  6  1  0
  5  4  2  0
  6  7  1  0
  7  1  1  0
  7  8  2  0
  9 14  2  0
 10  9  1  0
 11 10  2  0
 11 12  1  0
 12 13  2  0
 13 14  1  0
 13 15  1  0
 15 16  2  0
 15 17  1  0
 18 19  1  0
 18  3  1  0
 20 19  1  0
 20 21  1  0
 22 20  1  0
 23 20  1  0
 24 27  1  0
 24 26  2  0
 24 19  1  0
 25 24  2  0
 27 28  2  0
 28 29  1  0
 30 29  2  0
 31 30  1  0
 32 31  2  0
 32 27  1  0
  2 33  1  0
  6 34  1  0
  9 35  1  0
 10 36  1  0
 17 37  1  0
 18 38  1  0
 18 39  1  0
 28 40  1  0
 29 41  1  0
 30 42  1  0
 31 43  1  0
 32 44  1  0
M  ISO  8  33  14  34   9  35  14  36  14  37   3  38   8  39   8  40  14
M  ISO  4  41  14  42  14  43  14  44  14
M  END
>  <minimizedAffinity>  (1) 
-5.65424204

>  <minimizedRMSD>  (1) 
4.14373732

$$$$
