
     RDKit          3D

 43 44  0  0  0  0  0  0  0  0999 V2000
   46.8510   34.0760   41.4790 N   0  0  0  0  0  0  0  0  0  0  0  0
   46.4890   33.1720   40.5580 C   0  0  0  0  0  0  0  0  0  0  0  0
   47.0760   33.0480   39.3350 C   0  0  0  0  0  0  0  0  0  0  0  0
   48.1110   33.9610   39.1120 C   0  0  0  0  0  0  0  0  0  0  0  0
   48.7460   33.9440   37.9880 O   0  0  0  0  0  0  0  0  0  0  0  0
   48.5070   34.8900   40.0190 N   0  0  0  0  0  0  0  0  0  0  0  0
   47.8640   34.9390   41.2110 C   0  0  0  0  0  0  0  0  0  0  0  0
   48.2700   35.8150   42.0070 O   0  0  0  0  0  0  0  0  0  0  0  0
   44.7610   35.5550   44.1310 C   0  0  0  0  0  0  0  0  0  0  0  0
   45.3610   35.3250   42.8530 C   0  0  0  0  0  0  0  0  0  0  0  0
   46.2940   34.2590   42.7470 C   0  0  0  0  0  0  0  0  0  0  0  0
   46.5390   33.5540   43.8530 N   0  0  0  0  0  0  0  0  0  0  0  0
   45.9700   33.7870   45.0290 C   0  0  0  0  0  0  0  0  0  0  0  0
   45.0830   34.7790   45.1810 N   0  0  0  0  0  0  0  0  0  0  0  0
   46.3000   32.9640   46.1790 C   0  0  0  0  0  0  0  0  0  0  0  0
   45.8430   31.7950   46.3000 O   0  0  0  0  0  0  0  0  0  0  0  0
   47.1180   33.3950   47.1960 O   0  0  0  0  0  0  0  0  0  0  0  0
   46.7210   32.0750   38.3260 C   0  0  0  0  0  0  0  0  0  0  0  0
   45.6580   32.5970   37.4600 N   0  0  0  0  0  0  0  0  0  0  0  0
   46.0570   32.4090   36.0990 C   0  0  0  0  0  0  0  0  0  0  0  0
   47.2880   33.0200   35.8290 F   0  0  0  0  0  0  0  0  0  0  0  0
   46.2720   31.0240   35.9420 F   0  0  0  0  0  0  0  0  0  0  0  0
   45.1870   32.7560   35.1510 F   0  0  0  0  0  0  0  0  0  0  0  0
   44.4080   31.9270   37.7260 C   0  0  0  0  0  0  0  0  0  0  0  0
   43.7550   31.3330   36.4990 C   0  0  0  0  0  0  0  0  0  0  0  0
   43.4970   32.9760   38.3420 C   0  0  0  0  0  0  0  0  0  0  0  0
   44.5090   30.7980   38.7220 C   0  0  0  0  0  0  0  0  0  0  0  0
   45.6652   32.4864   40.8056 H   0  0  0  0  0  0  0  0  0  0  0  0
   49.2764   35.5410   39.8068 H   0  0  0  0  0  0  0  0  0  0  0  0
   44.0330   36.3702   44.2554 H   0  0  0  0  0  0  0  0  0  0  0  0
   45.1091   35.9507   41.9841 H   0  0  0  0  0  0  0  0  0  0  0  0
   47.3143   32.7973   47.9604 H   0  0  0  0  0  0  0  0  0  0  0  0
   47.6069   31.8477   37.7148 H   0  0  0  0  0  0  0  0  0  0  0  0
   46.3590   31.1630   38.8232 H   0  0  0  0  0  0  0  0  0  0  0  0
   42.9738   30.6224   36.8070 H   0  0  0  0  0  0  0  0  0  0  0  0
   43.3036   32.1365   35.8985 H   0  0  0  0  0  0  0  0  0  0  0  0
   44.5123   30.8078   35.8985 H   0  0  0  0  0  0  0  0  0  0  0  0
   43.5528   32.9117   39.4387 H   0  0  0  0  0  0  0  0  0  0  0  0
   43.8175   33.9767   38.0166 H   0  0  0  0  0  0  0  0  0  0  0  0
   42.4613   32.7989   38.0166 H   0  0  0  0  0  0  0  0  0  0  0  0
   44.4725   31.2055   39.7431 H   0  0  0  0  0  0  0  0  0  0  0  0
   43.6695   30.1027   38.5745 H   0  0  0  0  0  0  0  0  0  0  0  0
   45.4586   30.2628   38.5745 H   0  0  0  0  0  0  0  0  0  0  0  0
  1 11  1  0
  2  1  1  0
  3  2  2  0
  4  3  1  0
  4  6  1  0
  5  4  2  0
  6  7  1  0
  7  1  1  0
  7  8  2  0
  9 14  2  0
 10  9  1  0
 11 10  2  0
 11 12  1  0
 12 13  2  0
 13 14  1  0
 13 15  1  0
 15 16  2  0
 15 17  1  0
 18  3  1  0
 19 24  1  0
 19 18  1  0
 20 19  1  0
 21 20  1  0
 22 20  1  0
 23 20  1  0
 24 26  1  0
 24 27  1  0
 25 24  1  0
  2 28  1  0
  6 29  1  0
  9 30  1  0
 10 31  1  0
 17 32  1  0
 18 33  1  0
 18 34  1  0
 25 35  1  0
 25 36  1  0
 25 37  1  0
 26 38  1  0
 26 39  1  0
 26 40  1  0
 27 41  1  0
 27 42  1  0
 27 43  1  0
M  ISO  8  28  14  29   9  30  14  31  14  32   3  33   8  34   8  35   8
M  ISO  8  36   8  37   8  38   8  39   8  40   8  41   8  42   8  43   8
M  END
>  <minimizedAffinity>  (1) 
-5.56694174

>  <minimizedRMSD>  (1) 
1.17790353

$$$$
