
     RDKit          3D

 37 38  0  0  0  0  0  0  0  0999 V2000
   46.8120   34.1520   41.4860 N   0  0  0  0  0  0  0  0  0  0  0  0
   46.4040   33.3120   40.5400 C   0  0  0  0  0  0  0  0  0  0  0  0
   46.9760   33.1910   39.3070 C   0  0  0  0  0  0  0  0  0  0  0  0
   48.0610   34.0510   39.1130 C   0  0  0  0  0  0  0  0  0  0  0  0
   48.6950   34.0420   37.9880 O   0  0  0  0  0  0  0  0  0  0  0  0
   48.5060   34.9220   40.0550 N   0  0  0  0  0  0  0  0  0  0  0  0
   47.8750   34.9690   41.2480 C   0  0  0  0  0  0  0  0  0  0  0  0
   48.3310   35.7900   42.0730 O   0  0  0  0  0  0  0  0  0  0  0  0
   44.7530   35.5970   44.1850 C   0  0  0  0  0  0  0  0  0  0  0  0
   45.3370   35.3840   42.8980 C   0  0  0  0  0  0  0  0  0  0  0  0
   46.2670   34.3180   42.7680 C   0  0  0  0  0  0  0  0  0  0  0  0
   46.5200   33.6030   43.8580 N   0  0  0  0  0  0  0  0  0  0  0  0
   45.9580   33.8290   45.0380 C   0  0  0  0  0  0  0  0  0  0  0  0
   45.0830   34.8100   45.2190 N   0  0  0  0  0  0  0  0  0  0  0  0
   46.3080   32.9770   46.1780 C   0  0  0  0  0  0  0  0  0  0  0  0
   45.8590   31.7920   46.2770 O   0  0  0  0  0  0  0  0  0  0  0  0
   47.1260   33.3870   47.1990 O   0  0  0  0  0  0  0  0  0  0  0  0
   46.5870   32.2760   38.2590 C   0  0  0  0  0  0  0  0  0  0  0  0
   45.6310   32.9300   37.3470 N   0  0  0  0  0  0  0  0  0  0  0  0
   45.8990   32.4730   36.0170 C   0  0  0  0  0  0  0  0  0  0  0  0
   47.2300   32.7020   35.6550 F   0  0  0  0  0  0  0  0  0  0  0  0
   45.7300   31.0740   36.0480 F   0  0  0  0  0  0  0  0  0  0  0  0
   45.0980   32.9230   35.0500 F   0  0  0  0  0  0  0  0  0  0  0  0
   44.2840   32.5150   37.7030 C   0  0  0  0  0  0  0  0  0  0  0  0
   43.4360   33.5670   38.3170 C   0  0  0  0  0  0  0  0  0  0  0  0
   45.5423   32.6673   40.7677 H   0  0  0  0  0  0  0  0  0  0  0  0
   49.3105   35.5359   39.8630 H   0  0  0  0  0  0  0  0  0  0  0  0
   44.0281   36.4119   44.3281 H   0  0  0  0  0  0  0  0  0  0  0  0
   45.0762   36.0215   42.0404 H   0  0  0  0  0  0  0  0  0  0  0  0
   47.3311   32.7713   47.9466 H   0  0  0  0  0  0  0  0  0  0  0  0
   47.4792   31.9700   37.6930 H   0  0  0  0  0  0  0  0  0  0  0  0
   46.1097   31.3932   38.7095 H   0  0  0  0  0  0  0  0  0  0  0  0
   43.7831   32.1664   36.7878 H   0  0  0  0  0  0  0  0  0  0  0  0
   44.3996   31.7334   38.4683 H   0  0  0  0  0  0  0  0  0  0  0  0
   43.4958   33.4929   39.4129 H   0  0  0  0  0  0  0  0  0  0  0  0
   43.7911   34.5576   37.9966 H   0  0  0  0  0  0  0  0  0  0  0  0
   42.3926   33.4303   37.9966 H   0  0  0  0  0  0  0  0  0  0  0  0
  1 11  1  0
  2  1  1  0
  3  2  2  0
  4  3  1  0
  4  6  1  0
  5  4  2  0
  6  7  1  0
  7  1  1  0
  7  8  2  0
  9 14  2  0
 10  9  1  0
 11 10  2  0
 11 12  1  0
 12 13  2  0
 13 14  1  0
 13 15  1  0
 15 16  2  0
 15 17  1  0
 18  3  1  0
 19 24  1  0
 19 18  1  0
 20 22  1  0
 20 19  1  0
 21 20  1  0
 23 20  1  0
 24 25  1  0
  2 26  1  0
  6 27  1  0
  9 28  1  0
 10 29  1  0
 17 30  1  0
 18 31  1  0
 18 32  1  0
 24 33  1  0
 24 34  1  0
 25 35  1  0
 25 36  1  0
 25 37  1  0
M  ISO  8  26  14  27   9  28  14  29  14  30   3  31   8  32   8  33   8
M  ISO  4  34   8  35   8  36   8  37   8
M  END
>  <minimizedAffinity>  (1) 
-5.56417084

>  <minimizedRMSD>  (1) 
0.726258457

$$$$
