
     RDKit          3D

 36 39  0  0  1  0  0  0  0  0999 V2000
   48.5280   32.7860   40.9590 C   0  0  1  0  0  0  0  0  0  0  0  0
   49.9330   32.3130   40.7300 C   0  0  0  0  0  0  0  0  0  0  0  0
   50.5260   32.5070   42.1060 C   0  0  0  0  0  0  0  0  0  0  0  0
   49.9020   33.7970   42.5550 C   0  0  0  0  0  0  0  0  0  0  0  0
   48.7230   34.1020   41.6550 C   0  0  2  0  0  0  0  0  0  0  0  0
   47.2790   33.6370   37.4900 C   0  0  0  0  0  0  0  0  0  0  0  0
   48.1090   33.5930   38.6220 C   0  0  0  0  0  0  0  0  0  0  0  0
   47.6970   32.8690   39.7560 C   0  0  0  0  0  0  0  0  0  0  0  0
   46.5060   32.2400   39.7090 N   0  0  0  0  0  0  0  0  0  0  0  0
   45.7140   32.2970   38.5930 C   0  0  0  0  0  0  0  0  0  0  0  0
   46.1160   32.9990   37.4960 N   0  0  0  0  0  0  0  0  0  0  0  0
   47.5600   34.5200   42.3990 N   0  0  0  0  0  0  0  0  0  0  0  0
   46.6900   35.5140   42.1400 C   0  0  0  0  0  0  0  0  0  0  0  0
   45.7210   35.5940   43.0820 N   0  0  0  0  0  0  0  0  0  0  0  0
   45.9780   34.6280   43.9640 C   0  0  0  0  0  0  0  0  0  0  0  0
   45.3600   34.2000   45.1370 C   0  0  0  0  0  0  0  0  0  0  0  0
   45.8280   33.1740   45.8660 N   0  0  0  0  0  0  0  0  0  0  0  0
   46.9450   32.5510   45.4150 C   0  0  0  0  0  0  0  0  0  0  0  0
   47.5620   32.9350   44.2940 N   0  0  0  0  0  0  0  0  0  0  0  0
   47.1110   33.9620   43.5480 C   0  0  0  0  0  0  0  0  0  0  0  0
   44.2040   34.8770   45.5660 N   0  0  0  0  0  0  0  0  0  0  0  0
   47.9466   32.0662   41.5538 H   0  0  0  0  0  0  0  0  0  0  0  0
   49.9595   31.2570   40.4232 H   0  0  0  0  0  0  0  0  0  0  0  0
   50.4659   32.8420   39.9262 H   0  0  0  0  0  0  0  0  0  0  0  0
   50.2518   31.6792   42.7765 H   0  0  0  0  0  0  0  0  0  0  0  0
   51.6258   32.5298   42.1083 H   0  0  0  0  0  0  0  0  0  0  0  0
   49.5587   33.7002   43.5956 H   0  0  0  0  0  0  0  0  0  0  0  0
   50.6393   34.6113   42.4975 H   0  0  0  0  0  0  0  0  0  0  0  0
   48.8910   34.9425   40.9655 H   0  0  0  0  0  0  0  0  0  0  0  0
   47.5931   34.2002   36.5989 H   0  0  0  0  0  0  0  0  0  0  0  0
   49.0742   34.1207   38.6221 H   0  0  0  0  0  0  0  0  0  0  0  0
   44.7470   31.7727   38.5820 H   0  0  0  0  0  0  0  0  0  0  0  0
   46.7582   36.1810   41.2679 H   0  0  0  0  0  0  0  0  0  0  0  0
   47.3543   31.7060   45.9881 H   0  0  0  0  0  0  0  0  0  0  0  0
   43.7256   34.5830   46.4295 H   0  0  0  0  0  0  0  0  0  0  0  0
   43.8360   35.6667   45.0167 H   0  0  0  0  0  0  0  0  0  0  0  0
  1  5  1  0
  2  1  1  0
  2  3  1  0
  3  4  1  0
  5 12  1  0
  5  4  1  0
  6 11  2  0
  6  7  1  0
  7  8  2  0
  8  1  1  0
  9  8  1  0
 10  9  2  0
 11 10  1  0
 12 20  1  0
 13 12  1  0
 13 14  2  0
 14 15  1  0
 15 16  2  0
 16 21  1  0
 16 17  1  0
 18 17  2  0
 19 18  1  0
 20 15  1  0
 20 19  2  0
  1 22  1  1
  2 23  1  0
  2 24  1  0
  3 25  1  0
  3 26  1  0
  4 27  1  0
  4 28  1  0
  5 29  1  6
  6 30  1  0
  7 31  1  0
 10 32  1  0
 13 33  1  0
 18 34  1  0
 21 35  1  0
 21 36  1  0
M  ISO  8  22  13  23  13  24  13  25  13  26  13  27  13  28  13  29  13
M  ISO  5  30  14  31  14  32  14  33  14  34  14
M  END
>  <minimizedAffinity>  (1) 
-5.20273924

>  <minimizedRMSD>  (1) 
5.47567892

$$$$
