
     RDKit          3D

 27 28  0  0  1  0  0  0  0  0999 V2000
   46.7210   33.7080   43.1740 C   0  0  1  0  0  0  0  0  0  0  0  0
   49.0360   34.6650   42.6950 C   0  0  0  0  0  0  0  0  0  0  0  0
   48.1410   33.5720   42.8660 C   0  0  0  0  0  0  0  0  0  0  0  0
   48.6890   32.3010   42.7230 C   0  0  0  0  0  0  0  0  0  0  0  0
   50.0120   32.1770   42.4360 N   0  0  0  0  0  0  0  0  0  0  0  0
   50.8310   33.2340   42.2800 C   0  0  0  0  0  0  0  0  0  0  0  0
   50.3310   34.4810   42.4130 N   0  0  0  0  0  0  0  0  0  0  0  0
   46.4960   33.6530   44.6640 C   0  0  0  0  0  0  0  0  0  0  0  0
   46.2390   35.0350   42.6090 C   0  0  0  0  0  0  0  0  0  0  0  0
   45.1140   34.7760   41.6720 C   0  0  0  0  0  0  0  0  0  0  0  0
   44.0020   35.5050   42.0530 C   0  0  0  0  0  0  0  0  0  0  0  0
   42.8020   35.4510   41.3490 C   0  0  0  0  0  0  0  0  0  0  0  0
   42.7430   34.6440   40.2490 N   0  0  0  0  0  0  0  0  0  0  0  0
   43.8680   33.9480   39.9190 C   0  0  0  0  0  0  0  0  0  0  0  0
   45.0280   33.9890   40.5840 N   0  0  0  0  0  0  0  0  0  0  0  0
   46.1559   32.8796   42.7218 H   0  0  0  0  0  0  0  0  0  0  0  0
   48.6522   35.6907   42.7976 H   0  0  0  0  0  0  0  0  0  0  0  0
   48.0590   31.4070   42.8408 H   0  0  0  0  0  0  0  0  0  0  0  0
   51.8954   33.0834   42.0468 H   0  0  0  0  0  0  0  0  0  0  0  0
   47.4368   33.8830   45.1856 H   0  0  0  0  0  0  0  0  0  0  0  0
   45.7303   34.3904   44.9467 H   0  0  0  0  0  0  0  0  0  0  0  0
   46.1568   32.6455   44.9467 H   0  0  0  0  0  0  0  0  0  0  0  0
   45.8957   35.6831   43.4288 H   0  0  0  0  0  0  0  0  0  0  0  0
   47.0613   35.5356   42.0767 H   0  0  0  0  0  0  0  0  0  0  0  0
   44.0679   36.1492   42.9422 H   0  0  0  0  0  0  0  0  0  0  0  0
   41.9294   36.0396   41.6687 H   0  0  0  0  0  0  0  0  0  0  0  0
   43.8176   33.2989   39.0324 H   0  0  0  0  0  0  0  0  0  0  0  0
  1  8  1  0
  2  3  2  0
  3  1  1  0
  4  3  1  0
  5  4  2  0
  6  7  2  0
  6  5  1  0
  7  2  1  0
  9  1  1  0
 10 11  2  0
 10  9  1  0
 12 11  1  0
 13 12  2  0
 14 13  1  0
 14 15  2  0
 15 10  1  0
  1 16  1  6
  2 17  1  0
  4 18  1  0
  6 19  1  0
  8 20  1  0
  8 21  1  0
  8 22  1  0
  9 23  1  0
  9 24  1  0
 11 25  1  0
 12 26  1  0
 14 27  1  0
M  ISO  8  16   8  17  14  18  14  19  14  20   8  21   8  22   8  23   8
M  ISO  4  24   8  25  14  26  14  27  14
M  END
>  <minimizedAffinity>  (1) 
-4.08792973

>  <minimizedRMSD>  (1) 
5.71175194

$$$$
