
     RDKit          3D

 37 40  0  0  1  0  0  0  0  0999 V2000
   45.1870   32.9650   39.3550 C   0  0  1  0  0  0  0  0  0  0  0  0
   44.3660   33.1020   38.1200 C   0  0  0  0  0  0  0  0  0  0  0  0
   45.2330   32.3450   37.1260 C   0  0  0  0  0  0  0  0  0  0  0  0
   46.6130   32.8670   37.4700 C   0  0  0  0  0  0  0  0  0  0  0  0
   46.5620   33.3860   38.8880 C   0  0  2  0  0  0  0  0  0  0  0  0
   47.6630   32.9010   39.7220 C   0  0  0  0  0  0  0  0  0  0  0  0
   48.2350   31.6540   39.8630 C   0  0  0  0  0  0  0  0  0  0  0  0
   49.2240   31.7470   40.7680 N   0  0  0  0  0  0  0  0  0  0  0  0
   49.3250   33.0050   41.2280 C   0  0  0  0  0  0  0  0  0  0  0  0
   50.1790   33.5700   42.1510 C   0  0  0  0  0  0  0  0  0  0  0  0
   50.0700   34.9260   42.4530 C   0  0  0  0  0  0  0  0  0  0  0  0
   49.1030   35.6850   41.8180 C   0  0  0  0  0  0  0  0  0  0  0  0
   48.2510   35.1120   40.8930 C   0  0  0  0  0  0  0  0  0  0  0  0
   48.3560   33.7530   40.5870 C   0  0  0  0  0  0  0  0  0  0  0  0
   43.4880   35.5640   41.5230 C   0  0  0  0  0  0  0  0  0  0  0  0
   43.9090   34.8700   40.3790 C   0  0  0  0  0  0  0  0  0  0  0  0
   44.7250   33.7270   40.5140 C   0  0  0  0  0  0  0  0  0  0  0  0
   45.0700   33.3480   41.7580 N   0  0  0  0  0  0  0  0  0  0  0  0
   44.6440   34.0460   42.8560 C   0  0  0  0  0  0  0  0  0  0  0  0
   43.8540   35.1540   42.7300 N   0  0  0  0  0  0  0  0  0  0  0  0
   45.1386   31.9402   39.7519 H   0  0  0  0  0  0  0  0  0  0  0  0
   43.3773   32.6339   38.2355 H   0  0  0  0  0  0  0  0  0  0  0  0
   44.1386   34.1393   37.8332 H   0  0  0  0  0  0  0  0  0  0  0  0
   44.9591   32.5866   36.0884 H   0  0  0  0  0  0  0  0  0  0  0  0
   45.1384   31.2510   37.1905 H   0  0  0  0  0  0  0  0  0  0  0  0
   47.3514   32.0552   37.3935 H   0  0  0  0  0  0  0  0  0  0  0  0
   46.9089   33.6668   36.7752 H   0  0  0  0  0  0  0  0  0  0  0  0
   46.7031   34.4748   38.9565 H   0  0  0  0  0  0  0  0  0  0  0  0
   47.9339   30.7415   39.3275 H   0  0  0  0  0  0  0  0  0  0  0  0
   49.8213   30.9630   41.0672 H   0  0  0  0  0  0  0  0  0  0  0  0
   50.9430   32.9532   42.6468 H   0  0  0  0  0  0  0  0  0  0  0  0
   50.7454   35.3879   43.1882 H   0  0  0  0  0  0  0  0  0  0  0  0
   49.0114   36.7559   42.0519 H   0  0  0  0  0  0  0  0  0  0  0  0
   47.4874   35.7283   40.3959 H   0  0  0  0  0  0  0  0  0  0  0  0
   42.8502   36.4541   41.4183 H   0  0  0  0  0  0  0  0  0  0  0  0
   43.6040   35.2157   39.3802 H   0  0  0  0  0  0  0  0  0  0  0  0
   44.9434   33.7084   43.8592 H   0  0  0  0  0  0  0  0  0  0  0  0
  1 17  1  0
  2  1  1  0
  3  4  1  0
  3  2  1  0
  4  5  1  0
  5  1  1  0
  5  6  1  0
  6  7  2  0
  6 14  1  0
  7  8  1  0
  8  9  1  0
  9 10  2  0
 10 11  1  0
 12 11  2  0
 13 12  1  0
 14 13  2  0
 14  9  1  0
 15 20  2  0
 16 17  2  0
 16 15  1  0
 17 18  1  0
 18 19  2  0
 20 19  1  0
  1 21  1  1
  2 22  1  0
  2 23  1  0
  3 24  1  0
  3 25  1  0
  4 26  1  0
  4 27  1  0
  5 28  1  6
  7 29  1  0
  8 30  1  0
 10 31  1  0
 11 32  1  0
 12 33  1  0
 13 34  1  0
 15 35  1  0
 16 36  1  0
 19 37  1  0
M  ISO  8  21  13  22  13  23  13  24  13  25  13  26  13  27  13  28  13
M  ISO  8  29  14  30   9  31  14  32  14  33  14  34  14  35  14  36  14
M  ISO  1  37  14
M  END
>  <minimizedAffinity>  (1) 
-5.17932558

>  <minimizedRMSD>  (1) 
3.81521845

$$$$
