
     RDKit          3D

 26 27  0  0  1  0  0  0  0  0999 V2000
   47.1570   34.3260   42.0010 C   0  0  1  0  0  0  0  0  0  0  0  0
   46.4460   34.2080   40.7090 C   0  0  0  0  0  0  0  0  0  0  0  0
   47.6150   34.1050   39.7480 C   0  0  0  0  0  0  0  0  0  0  0  0
   48.6020   35.0990   40.3080 C   0  0  0  0  0  0  0  0  0  0  0  0
   48.2090   35.3900   41.7340 C   0  0  2  0  0  0  0  0  0  0  0  0
   44.6820   35.9880   44.3350 C   0  0  0  0  0  0  0  0  0  0  0  0
   45.4610   35.7480   43.1900 C   0  0  0  0  0  0  0  0  0  0  0  0
   46.3190   34.6300   43.1670 C   0  0  0  0  0  0  0  0  0  0  0  0
   46.3510   33.8390   44.2550 N   0  0  0  0  0  0  0  0  0  0  0  0
   45.5820   34.0980   45.3550 C   0  0  0  0  0  0  0  0  0  0  0  0
   44.7540   35.1690   45.3880 N   0  0  0  0  0  0  0  0  0  0  0  0
   49.3740   35.1080   42.6600 C   0  0  0  0  0  0  0  0  0  0  0  0
   47.5788   33.3550   42.2997 H   0  0  0  0  0  0  0  0  0  0  0  0
   45.8143   33.3081   40.6756 H   0  0  0  0  0  0  0  0  0  0  0  0
   45.7522   35.0342   40.4945 H   0  0  0  0  0  0  0  0  0  0  0  0
   47.3129   34.3801   38.7267 H   0  0  0  0  0  0  0  0  0  0  0  0
   48.0228   33.0865   39.6684 H   0  0  0  0  0  0  0  0  0  0  0  0
   49.6165   34.6749   40.2792 H   0  0  0  0  0  0  0  0  0  0  0  0
   48.5940   36.0237   39.7123 H   0  0  0  0  0  0  0  0  0  0  0  0
   47.8837   36.4296   41.8871 H   0  0  0  0  0  0  0  0  0  0  0  0
   44.0079   36.8568   44.3643 H   0  0  0  0  0  0  0  0  0  0  0  0
   45.4019   36.4234   42.3238 H   0  0  0  0  0  0  0  0  0  0  0  0
   45.6365   33.4273   46.2252 H   0  0  0  0  0  0  0  0  0  0  0  0
   49.0398   35.1889   43.7049 H   0  0  0  0  0  0  0  0  0  0  0  0
   49.7528   34.0922   42.4738 H   0  0  0  0  0  0  0  0  0  0  0  0
   50.1754   35.8381   42.4738 H   0  0  0  0  0  0  0  0  0  0  0  0
  1  8  1  0
  2  1  1  0
  3  4  1  0
  3  2  1  0
  4  5  1  0
  5  1  1  0
  5 12  1  0
  6 11  2  0
  7  6  1  0
  8  7  2  0
  8  9  1  0
  9 10  2  0
 10 11  1  0
  1 13  1  1
  2 14  1  0
  2 15  1  0
  3 16  1  0
  3 17  1  0
  4 18  1  0
  4 19  1  0
  5 20  1  6
  6 21  1  0
  7 22  1  0
 10 23  1  0
 12 24  1  0
 12 25  1  0
 12 26  1  0
M  ISO  8  13  13  14  13  15  13  16  13  17  13  18  13  19  13  20  13
M  ISO  6  21  14  22  14  23  14  24   8  25   8  26   8
M  END
>  <minimizedAffinity>  (1) 
-4.96847725

>  <minimizedRMSD>  (1) 
0.195170462

$$$$
