
     RDKit          3D

 30 32  0  0  1  0  0  0  0  0999 V2000
   45.3430   34.0470   41.5870 C   0  0  1  0  0  0  0  0  0  0  0  0
   46.2370   34.1000   40.4010 C   0  0  0  0  0  0  0  0  0  0  0  0
   47.6000   34.1540   41.0660 C   0  0  0  0  0  0  0  0  0  0  0  0
   47.3470   35.0870   42.2320 C   0  0  0  0  0  0  0  0  0  0  0  0
   45.8590   35.1910   42.4340 C   0  0  2  0  0  0  0  0  0  0  0  0
   41.9280   35.3680   40.6500 C   0  0  0  0  0  0  0  0  0  0  0  0
   43.3150   35.3410   40.8960 C   0  0  0  0  0  0  0  0  0  0  0  0
   43.9130   34.1370   41.3210 C   0  0  0  0  0  0  0  0  0  0  0  0
   43.1190   33.0630   41.4750 N   0  0  0  0  0  0  0  0  0  0  0  0
   41.7740   33.1300   41.2250 C   0  0  0  0  0  0  0  0  0  0  0  0
   41.1910   34.2740   40.8180 N   0  0  0  0  0  0  0  0  0  0  0  0
   45.5190   34.9160   43.8310 C   0  0  0  0  0  0  0  0  0  0  0  0
   46.0150   33.8300   44.5360 C   0  0  0  0  0  0  0  0  0  0  0  0
   45.4490   33.9460   45.8040 C   0  0  0  0  0  0  0  0  0  0  0  0
   44.6640   35.0620   45.8010 C   0  0  0  0  0  0  0  0  0  0  0  0
   44.7270   35.6150   44.6150 O   0  0  0  0  0  0  0  0  0  0  0  0
   45.3879   33.0615   42.0736 H   0  0  0  0  0  0  0  0  0  0  0  0
   46.0485   34.9972   39.7932 H   0  0  0  0  0  0  0  0  0  0  0  0
   46.1084   33.2628   39.6992 H   0  0  0  0  0  0  0  0  0  0  0  0
   47.9152   33.1586   41.4122 H   0  0  0  0  0  0  0  0  0  0  0  0
   48.4060   34.4899   40.3970 H   0  0  0  0  0  0  0  0  0  0  0  0
   47.8193   34.6849   43.1404 H   0  0  0  0  0  0  0  0  0  0  0  0
   47.7736   36.0796   42.0251 H   0  0  0  0  0  0  0  0  0  0  0  0
   45.4528   36.1810   42.1791 H   0  0  0  0  0  0  0  0  0  0  0  0
   41.4510   36.3014   40.3164 H   0  0  0  0  0  0  0  0  0  0  0  0
   43.9232   36.2472   40.7583 H   0  0  0  0  0  0  0  0  0  0  0  0
   41.1564   32.2298   41.3596 H   0  0  0  0  0  0  0  0  0  0  0  0
   46.7021   33.0506   44.1748 H   0  0  0  0  0  0  0  0  0  0  0  0
   45.6062   33.2631   46.6519 H   0  0  0  0  0  0  0  0  0  0  0  0
   44.0762   35.4352   46.6525 H   0  0  0  0  0  0  0  0  0  0  0  0
  1  5  1  0
  2  3  1  0
  2  1  1  0
  3  4  1  0
  4  5  1  0
  5 12  1  0
  6 11  2  0
  6  7  1  0
  7  8  2  0
  8  9  1  0
  8  1  1  0
 10  9  2  0
 11 10  1  0
 12 13  2  0
 12 16  1  0
 13 14  1  0
 15 14  2  0
 16 15  1  0
  1 17  1  1
  2 18  1  0
  2 19  1  0
  3 20  1  0
  3 21  1  0
  4 22  1  0
  4 23  1  0
  5 24  1  6
  6 25  1  0
  7 26  1  0
 10 27  1  0
 13 28  1  0
 14 29  1  0
 15 30  1  0
M  ISO  8  17  13  18  13  19  13  20  13  21  13  22  13  23  13  24  13
M  ISO  6  25  14  26  14  27  14  28  14  29  14  30  14
M  END
>  <minimizedAffinity>  (1) 
-4.88672256

>  <minimizedRMSD>  (1) 
4.14477921

$$$$
