
     RDKit          3D

 30 32  0  0  1  0  0  0  0  0999 V2000
   45.4580   33.9660   41.4640 C   0  0  1  0  0  0  0  0  0  0  0  0
   46.3620   34.1050   40.3000 C   0  0  0  0  0  0  0  0  0  0  0  0
   47.7150   34.1540   40.9980 C   0  0  0  0  0  0  0  0  0  0  0  0
   47.4230   35.0260   42.1850 C   0  0  0  0  0  0  0  0  0  0  0  0
   45.9240   35.0760   42.3880 C   0  0  2  0  0  0  0  0  0  0  0  0
   42.0440   35.2080   40.3990 C   0  0  0  0  0  0  0  0  0  0  0  0
   43.4170   35.1750   40.6730 C   0  0  0  0  0  0  0  0  0  0  0  0
   44.0230   34.0310   41.1700 C   0  0  0  0  0  0  0  0  0  0  0  0
   43.2380   32.9570   41.3780 N   0  0  0  0  0  0  0  0  0  0  0  0
   41.8950   32.9930   41.1090 C   0  0  0  0  0  0  0  0  0  0  0  0
   41.3090   34.1140   40.6230 N   0  0  0  0  0  0  0  0  0  0  0  0
   45.5570   34.8890   43.7540 N   0  0  0  0  0  0  0  0  0  0  0  0
   45.8570   33.9370   44.6780 C   0  0  0  0  0  0  0  0  0  0  0  0
   45.2340   34.2310   45.8690 C   0  0  0  0  0  0  0  0  0  0  0  0
   44.5420   35.3720   45.6850 N   0  0  0  0  0  0  0  0  0  0  0  0
   44.7420   35.7620   44.4100 C   0  0  0  0  0  0  0  0  0  0  0  0
   45.5286   32.9592   41.9015 H   0  0  0  0  0  0  0  0  0  0  0  0
   46.1615   35.0298   39.7391 H   0  0  0  0  0  0  0  0  0  0  0  0
   46.2645   33.3079   39.5482 H   0  0  0  0  0  0  0  0  0  0  0  0
   48.0404   33.1505   41.3097 H   0  0  0  0  0  0  0  0  0  0  0  0
   48.5291   34.5302   40.3611 H   0  0  0  0  0  0  0  0  0  0  0  0
   47.9048   34.6068   43.0806 H   0  0  0  0  0  0  0  0  0  0  0  0
   47.8137   36.0397   42.0127 H   0  0  0  0  0  0  0  0  0  0  0  0
   45.4620   36.0469   42.1555 H   0  0  0  0  0  0  0  0  0  0  0  0
   41.5764   36.1222   40.0046 H   0  0  0  0  0  0  0  0  0  0  0  0
   44.0258   36.0729   40.4907 H   0  0  0  0  0  0  0  0  0  0  0  0
   41.2826   32.0974   41.2905 H   0  0  0  0  0  0  0  0  0  0  0  0
   46.5010   33.0632   44.4998 H   0  0  0  0  0  0  0  0  0  0  0  0
   45.2904   33.6441   46.7977 H   0  0  0  0  0  0  0  0  0  0  0  0
   44.3051   36.6652   43.9591 H   0  0  0  0  0  0  0  0  0  0  0  0
  1  5  1  0
  2  3  1  0
  2  1  1  0
  3  4  1  0
  4  5  1  0
  5 12  1  0
  6 11  2  0
  6  7  1  0
  7  8  2  0
  8  9  1  0
  8  1  1  0
 10  9  2  0
 11 10  1  0
 12 16  1  0
 12 13  1  0
 13 14  2  0
 15 14  1  0
 16 15  2  0
  1 17  1  1
  2 18  1  0
  2 19  1  0
  3 20  1  0
  3 21  1  0
  4 22  1  0
  4 23  1  0
  5 24  1  6
  6 25  1  0
  7 26  1  0
 10 27  1  0
 13 28  1  0
 14 29  1  0
 16 30  1  0
M  ISO  8  17  13  18  13  19  13  20  13  21  13  22  13  23  13  24  13
M  ISO  6  25  14  26  14  27  14  28  14  29  14  30  14
M  END
>  <minimizedAffinity>  (1) 
-4.81337833

>  <minimizedRMSD>  (1) 
4.27799273

$$$$
