
     RDKit          3D

 39 41  0  0  1  0  0  0  0  0999 V2000
   45.8320   33.6080   40.5010 C   0  0  1  0  0  0  0  0  0  0  0  0
   46.9640   33.8290   39.5590 C   0  0  0  0  0  0  0  0  0  0  0  0
   48.1240   33.8520   40.5370 C   0  0  0  0  0  0  0  0  0  0  0  0
   47.5530   34.8570   41.5390 C   0  0  0  0  0  0  0  0  0  0  0  0
   46.0680   34.6830   41.5420 C   0  0  2  0  0  0  0  0  0  0  0  0
   42.3170   34.6710   39.5530 C   0  0  0  0  0  0  0  0  0  0  0  0
   43.5740   34.7150   40.2100 C   0  0  0  0  0  0  0  0  0  0  0  0
   44.4920   33.6920   39.8980 C   0  0  0  0  0  0  0  0  0  0  0  0
   44.1050   32.7630   39.0070 N   0  0  0  0  0  0  0  0  0  0  0  0
   42.9020   32.7440   38.3960 C   0  0  0  0  0  0  0  0  0  0  0  0
   42.0070   33.7190   38.6820 N   0  0  0  0  0  0  0  0  0  0  0  0
   45.5010   34.3450   42.8830 C   0  0  0  0  0  0  0  0  0  0  0  0
   46.4010   33.5590   43.7720 C   0  0  0  0  0  0  0  0  0  0  0  0
   45.6150   33.2680   45.0580 C   0  0  0  0  0  0  0  0  0  0  0  0
   45.2450   34.5170   45.7990 C   0  0  0  0  0  0  0  0  0  0  0  0
   44.4990   35.4780   44.9030 C   0  0  0  0  0  0  0  0  0  0  0  0
   45.1310   35.6390   43.5680 C   0  0  0  0  0  0  0  0  0  0  0  0
   45.8258   32.5825   40.8989 H   0  0  0  0  0  0  0  0  0  0  0  0
   47.0579   33.0068   38.8344 H   0  0  0  0  0  0  0  0  0  0  0  0
   46.8727   34.7262   38.9291 H   0  0  0  0  0  0  0  0  0  0  0  0
   48.3017   32.8669   40.9930 H   0  0  0  0  0  0  0  0  0  0  0  0
   49.1051   34.1070   40.1098 H   0  0  0  0  0  0  0  0  0  0  0  0
   47.9576   34.6599   42.5427 H   0  0  0  0  0  0  0  0  0  0  0  0
   47.8252   35.8853   41.2589 H   0  0  0  0  0  0  0  0  0  0  0  0
   45.5439   35.6204   41.3040 H   0  0  0  0  0  0  0  0  0  0  0  0
   41.5746   35.4523   39.7731 H   0  0  0  0  0  0  0  0  0  0  0  0
   43.8204   35.5102   40.9290 H   0  0  0  0  0  0  0  0  0  0  0  0
   42.6525   31.9495   37.6774 H   0  0  0  0  0  0  0  0  0  0  0  0
   44.6336   33.6929   42.7030 H   0  0  0  0  0  0  0  0  0  0  0  0
   46.6874   32.6166   43.2824 H   0  0  0  0  0  0  0  0  0  0  0  0
   47.3228   34.1175   43.9920 H   0  0  0  0  0  0  0  0  0  0  0  0
   44.6936   32.7284   44.7939 H   0  0  0  0  0  0  0  0  0  0  0  0
   46.2606   32.6677   45.7159 H   0  0  0  0  0  0  0  0  0  0  0  0
   44.6053   34.2519   46.6537 H   0  0  0  0  0  0  0  0  0  0  0  0
   46.1679   35.0054   46.1449 H   0  0  0  0  0  0  0  0  0  0  0  0
   43.4746   35.1025   44.7626 H   0  0  0  0  0  0  0  0  0  0  0  0
   44.5127   36.4624   45.3937 H   0  0  0  0  0  0  0  0  0  0  0  0
   46.0474   36.2345   43.6927 H   0  0  0  0  0  0  0  0  0  0  0  0
   44.3813   36.1258   42.9269 H   0  0  0  0  0  0  0  0  0  0  0  0
  1  5  1  0
  2  1  1  0
  2  3  1  0
  3  4  1  0
  4  5  1  0
  5 12  1  0
  6  7  2  0
  8  7  1  0
  8  1  1  0
  9  8  2  0
 10 11  2  0
 10  9  1  0
 11  6  1  0
 12 17  1  0
 12 13  1  0
 13 14  1  0
 14 15  1  0
 16 15  1  0
 17 16  1  0
  1 18  1  1
  2 19  1  0
  2 20  1  0
  3 21  1  0
  3 22  1  0
  4 23  1  0
  4 24  1  0
  5 25  1  6
  6 26  1  0
  7 27  1  0
 10 28  1  0
 12 29  1  0
 13 30  1  0
 13 31  1  0
 14 32  1  0
 14 33  1  0
 15 34  1  0
 15 35  1  0
 16 36  1  0
 16 37  1  0
 17 38  1  0
 17 39  1  0
M  ISO  8  18  13  19  13  20  13  21  13  22  13  23  13  24  13  25  13
M  ISO  8  26  14  27  14  28  14  29  13  30  13  31  13  32  13  33  13
M  ISO  6  34  13  35  13  36  13  37  13  38  13  39  13
M  END
>  <minimizedAffinity>  (1) 
-4.68312263

>  <minimizedRMSD>  (1) 
4.9699564

$$$$
