
     RDKit          3D

 29 31  0  0  1  0  0  0  0  0999 V2000
   46.4940   33.7150   41.4250 C   0  0  1  0  0  0  0  0  0  0  0  0
   45.5420   33.5810   40.2980 C   0  0  0  0  0  0  0  0  0  0  0  0
   46.5280   33.1280   39.2110 C   0  0  0  0  0  0  0  0  0  0  0  0
   47.6180   34.1560   39.3910 C   0  0  0  0  0  0  0  0  0  0  0  0
   47.5970   34.5840   40.8480 C   0  0  2  0  0  0  0  0  0  0  0  0
   44.7970   35.9670   43.9490 C   0  0  0  0  0  0  0  0  0  0  0  0
   45.2940   35.5360   42.7020 C   0  0  0  0  0  0  0  0  0  0  0  0
   45.9310   34.2790   42.6620 C   0  0  0  0  0  0  0  0  0  0  0  0
   46.0180   33.5780   43.8210 N   0  0  0  0  0  0  0  0  0  0  0  0
   45.5310   34.0210   45.0000 C   0  0  0  0  0  0  0  0  0  0  0  0
   44.9140   35.2350   45.0510 N   0  0  0  0  0  0  0  0  0  0  0  0
   48.8280   34.2320   41.5180 N   0  0  0  0  0  0  0  0  0  0  0  0
   49.5400   35.1340   42.2300 C   0  0  0  0  0  0  0  0  0  0  0  0
   50.6300   34.4870   42.7230 N   0  0  0  0  0  0  0  0  0  0  0  0
   50.5710   33.1890   42.3060 C   0  0  0  0  0  0  0  0  0  0  0  0
   49.4470   33.0590   41.5620 N   0  0  0  0  0  0  0  0  0  0  0  0
   46.8351   32.7270   41.7678 H   0  0  0  0  0  0  0  0  0  0  0  0
   44.7696   32.8236   40.4971 H   0  0  0  0  0  0  0  0  0  0  0  0
   44.9551   34.4809   40.0621 H   0  0  0  0  0  0  0  0  0  0  0  0
   46.0802   33.1809   38.2076 H   0  0  0  0  0  0  0  0  0  0  0  0
   46.8612   32.0833   39.2978 H   0  0  0  0  0  0  0  0  0  0  0  0
   48.5951   33.7166   39.1415 H   0  0  0  0  0  0  0  0  0  0  0  0
   47.4537   35.0187   38.7287 H   0  0  0  0  0  0  0  0  0  0  0  0
   47.4594   35.6694   40.9623 H   0  0  0  0  0  0  0  0  0  0  0  0
   44.2948   36.9437   44.0114 H   0  0  0  0  0  0  0  0  0  0  0  0
   45.1891   36.1545   41.7984 H   0  0  0  0  0  0  0  0  0  0  0  0
   45.6312   33.4091   45.9086 H   0  0  0  0  0  0  0  0  0  0  0  0
   49.2854   36.1932   42.3822 H   0  0  0  0  0  0  0  0  0  0  0  0
   51.2999   32.3967   42.5319 H   0  0  0  0  0  0  0  0  0  0  0  0
  1  8  1  0
  2  1  1  0
  3  4  1  0
  3  2  1  0
  4  5  1  0
  5  1  1  0
  5 12  1  0
  6 11  2  0
  7  6  1  0
  8  7  2  0
  8  9  1  0
  9 10  2  0
 10 11  1  0
 12 16  1  0
 12 13  1  0
 13 14  2  0
 15 14  1  0
 16 15  2  0
  1 17  1  1
  2 18  1  0
  2 19  1  0
  3 20  1  0
  3 21  1  0
  4 22  1  0
  4 23  1  0
  5 24  1  6
  6 25  1  0
  7 26  1  0
 10 27  1  0
 13 28  1  0
 15 29  1  0
M  ISO  8  17  13  18  13  19  13  20  13  21  13  22  13  23  13  24  13
M  ISO  5  25  14  26  14  27  14  28  14  29  14
M  END
>  <minimizedAffinity>  (1) 
-4.61206293

>  <minimizedRMSD>  (1) 
1.45517528

$$$$
