
     RDKit          3D

 27 28  0  0  1  0  0  0  0  0999 V2000
   46.9320   33.6170   41.9850 C   0  0  1  0  0  0  0  0  0  0  0  0
   46.9160   34.2980   40.6730 C   0  0  0  0  0  0  0  0  0  0  0  0
   47.9150   33.4210   39.9140 C   0  0  0  0  0  0  0  0  0  0  0  0
   49.0290   33.2940   40.9390 C   0  0  0  0  0  0  0  0  0  0  0  0
   48.4080   33.4840   42.2910 C   0  0  1  0  0  0  0  0  0  0  0  0
   44.8390   36.0550   43.9740 C   0  0  0  0  0  0  0  0  0  0  0  0
   45.5500   35.5070   42.8900 C   0  0  0  0  0  0  0  0  0  0  0  0
   46.1740   34.2550   43.0570 C   0  0  0  0  0  0  0  0  0  0  0  0
   46.0520   33.6520   44.2600 N   0  0  0  0  0  0  0  0  0  0  0  0
   45.3660   34.1940   45.2910 C   0  0  0  0  0  0  0  0  0  0  0  0
   44.7550   35.4040   45.1490 N   0  0  0  0  0  0  0  0  0  0  0  0
   48.9680   34.6420   43.0290 C   0  0  0  0  0  0  0  0  0  0  0  0
   50.1210   35.0800   43.1310 O   0  0  0  0  0  0  0  0  0  0  0  0
   46.4027   32.6545   41.9267 H   0  0  0  0  0  0  0  0  0  0  0  0
   45.9177   34.2745   40.2117 H   0  0  0  0  0  0  0  0  0  0  0  0
   47.1639   35.3693   40.7011 H   0  0  0  0  0  0  0  0  0  0  0  0
   47.4830   32.4408   39.6638 H   0  0  0  0  0  0  0  0  0  0  0  0
   48.2353   33.8334   38.9459 H   0  0  0  0  0  0  0  0  0  0  0  0
   49.4911   32.2980   40.8726 H   0  0  0  0  0  0  0  0  0  0  0  0
   49.8135   34.0439   40.7596 H   0  0  0  0  0  0  0  0  0  0  0  0
   48.6152   32.6472   42.9743 H   0  0  0  0  0  0  0  0  0  0  0  0
   44.3442   37.0307   43.8591 H   0  0  0  0  0  0  0  0  0  0  0  0
   45.6170   36.0448   41.9328 H   0  0  0  0  0  0  0  0  0  0  0  0
   45.3006   33.6563   46.2484 H   0  0  0  0  0  0  0  0  0  0  0  0
   48.4004   35.4981   42.6355 H   0  0  0  0  0  0  0  0  0  0  0  0
   48.9188   34.1873   44.0294 H   0  0  0  0  0  0  0  0  0  0  0  0
   50.3565   35.1695   44.0884 H   0  0  0  0  0  0  0  0  0  0  0  0
  1  5  1  0
  1  8  1  0
  2  1  1  0
  3  2  1  0
  3  4  1  0
  4  5  1  0
  5 12  1  0
  6 11  2  0
  7  8  2  0
  7  6  1  0
  8  9  1  0
  9 10  2  0
 11 10  1  0
 12 13  1  0
  1 14  1  6
  2 15  1  0
  2 16  1  0
  3 17  1  0
  3 18  1  0
  4 19  1  0
  4 20  1  0
  5 21  1  1
  6 22  1  0
  7 23  1  0
 10 24  1  0
 12 25  1  0
 12 26  1  0
 13 27  1  0
M  ISO  8  14  13  15  13  16  13  17  13  18  13  19  13  20  13  21  13
M  ISO  6  22  14  23  14  24  14  25   8  26   8  27   3
M  END
>  <minimizedAffinity>  (1) 
-4.4832859

>  <minimizedRMSD>  (1) 
1.65854025

$$$$
