
     RDKit          3D

 26 27  0  0  1  0  0  0  0  0999 V2000
   47.9270   33.6270   42.7510 C   0  0  1  0  0  0  0  0  0  0  0  0
   48.2130   32.3860   41.9560 C   0  0  0  0  0  0  0  0  0  0  0  0
   49.6270   32.0880   42.4360 C   0  0  0  0  0  0  0  0  0  0  0  0
   50.2550   33.4630   42.2970 C   0  0  0  0  0  0  0  0  0  0  0  0
   49.1430   34.4690   42.5450 C   0  0  1  0  0  0  0  0  0  0  0  0
   44.6840   34.6480   41.1350 C   0  0  0  0  0  0  0  0  0  0  0  0
   45.8810   33.9590   41.3630 C   0  0  0  0  0  0  0  0  0  0  0  0
   46.6640   34.2950   42.4580 C   0  0  0  0  0  0  0  0  0  0  0  0
   46.2120   35.2850   43.2510 N   0  0  0  0  0  0  0  0  0  0  0  0
   45.0580   35.9420   43.0220 C   0  0  0  0  0  0  0  0  0  0  0  0
   44.2950   35.6200   41.9610 N   0  0  0  0  0  0  0  0  0  0  0  0
   49.0620   35.4840   41.4970 C   0  0  0  0  0  0  0  0  0  0  0  0
   49.2180   36.7390   41.6800 O   0  0  0  0  0  0  0  0  0  0  0  0
   48.8100   35.2960   40.1510 O   0  0  0  0  0  0  0  0  0  0  0  0
   47.7575   33.3886   43.8114 H   0  0  0  0  0  0  0  0  0  0  0  0
   48.1808   32.5777   40.8733 H   0  0  0  0  0  0  0  0  0  0  0  0
   47.4922   31.5672   42.0978 H   0  0  0  0  0  0  0  0  0  0  0  0
   49.6378   31.7390   43.4791 H   0  0  0  0  0  0  0  0  0  0  0  0
   50.1421   31.2882   41.8838 H   0  0  0  0  0  0  0  0  0  0  0  0
   51.0571   33.5918   43.0387 H   0  0  0  0  0  0  0  0  0  0  0  0
   50.7013   33.5990   41.3008 H   0  0  0  0  0  0  0  0  0  0  0  0
   49.3075   35.1018   43.4296 H   0  0  0  0  0  0  0  0  0  0  0  0
   44.0597   34.3857   40.2681 H   0  0  0  0  0  0  0  0  0  0  0  0
   46.1983   33.1576   40.6795 H   0  0  0  0  0  0  0  0  0  0  0  0
   44.7387   36.7437   43.7041 H   0  0  0  0  0  0  0  0  0  0  0  0
   48.6585   34.3834   39.7985 H   0  0  0  0  0  0  0  0  0  0  0  0
  2  3  1  0
  2  1  1  0
  4  3  1  0
  4  5  1  0
  5  1  1  0
  6  7  2  0
  6 11  1  0
  7  8  1  0
  8  1  1  0
  8  9  2  0
 10  9  1  0
 11 10  2  0
 12 13  2  0
 12  5  1  0
 14 12  1  0
  1 15  1  1
  2 16  1  0
  2 17  1  0
  3 18  1  0
  3 19  1  0
  4 20  1  0
  4 21  1  0
  5 22  1  1
  6 23  1  0
  7 24  1  0
 10 25  1  0
 14 26  1  0
M  ISO  8  15  13  16  13  17  13  18  13  19  13  20  13  21  13  22  13
M  ISO  4  23  14  24  14  25  14  26   3
M  END
>  <minimizedAffinity>  (1) 
-4.36945868

>  <minimizedRMSD>  (1) 
2.76402092

$$$$
