
     RDKit          3D

 31 32  0  0  1  0  0  0  0  0999 V2000
   46.8750   34.2390   42.3360 C   0  0  1  0  0  0  0  0  0  0  0  0
   46.2400   34.4620   41.0330 C   0  0  0  0  0  0  0  0  0  0  0  0
   47.4190   34.1770   40.1050 C   0  0  0  0  0  0  0  0  0  0  0  0
   48.5040   34.9920   40.7920 C   0  0  0  0  0  0  0  0  0  0  0  0
   48.1310   35.1150   42.2320 C   0  0  2  0  0  0  0  0  0  0  0  0
   44.4640   35.9060   44.7430 C   0  0  0  0  0  0  0  0  0  0  0  0
   45.2010   35.6450   43.5790 C   0  0  0  0  0  0  0  0  0  0  0  0
   46.0900   34.5410   43.5230 C   0  0  0  0  0  0  0  0  0  0  0  0
   46.1750   33.7880   44.6220 N   0  0  0  0  0  0  0  0  0  0  0  0
   45.4690   34.0330   45.7470 C   0  0  0  0  0  0  0  0  0  0  0  0
   44.6140   35.0910   45.8110 N   0  0  0  0  0  0  0  0  0  0  0  0
   49.1480   34.5280   43.0370 N   0  0  0  0  0  0  0  0  0  0  0  0
   50.3940   34.2880   42.4120 C   0  0  0  0  0  0  0  0  0  0  0  0
   50.7930   32.8440   42.3650 C   0  0  0  0  0  0  0  0  0  0  0  0
   47.0530   33.1656   42.4979 H   0  0  0  0  0  0  0  0  0  0  0  0
   45.4078   33.7636   40.8606 H   0  0  0  0  0  0  0  0  0  0  0  0
   45.7828   35.4545   40.9065 H   0  0  0  0  0  0  0  0  0  0  0  0
   47.2278   34.5332   39.0820 H   0  0  0  0  0  0  0  0  0  0  0  0
   47.6558   33.1109   39.9733 H   0  0  0  0  0  0  0  0  0  0  0  0
   49.4735   34.4810   40.6978 H   0  0  0  0  0  0  0  0  0  0  0  0
   48.5926   35.9859   40.3292 H   0  0  0  0  0  0  0  0  0  0  0  0
   47.9884   36.1565   42.5561 H   0  0  0  0  0  0  0  0  0  0  0  0
   43.7739   36.7615   44.7864 H   0  0  0  0  0  0  0  0  0  0  0  0
   45.0890   36.3010   42.7031 H   0  0  0  0  0  0  0  0  0  0  0  0
   45.5856   33.3724   46.6188 H   0  0  0  0  0  0  0  0  0  0  0  0
   49.3154   35.1565   43.8356 H   0  0  0  0  0  0  0  0  0  0  0  0
   50.3396   34.6641   41.3797 H   0  0  0  0  0  0  0  0  0  0  0  0
   51.1540   34.8051   43.0162 H   0  0  0  0  0  0  0  0  0  0  0  0
   50.8993   32.4594   43.3901 H   0  0  0  0  0  0  0  0  0  0  0  0
   50.0206   32.2672   41.8352 H   0  0  0  0  0  0  0  0  0  0  0  0
   51.7520   32.7456   41.8352 H   0  0  0  0  0  0  0  0  0  0  0  0
  1  8  1  0
  2  1  1  0
  3  4  1  0
  3  2  1  0
  4  5  1  0
  5  1  1  0
  5 12  1  0
  6 11  2  0
  7  6  1  0
  8  7  2  0
  8  9  1  0
  9 10  2  0
 10 11  1  0
 13 12  1  0
 14 13  1  0
  1 15  1  1
  2 16  1  0
  2 17  1  0
  3 18  1  0
  3 19  1  0
  4 20  1  0
  4 21  1  0
  5 22  1  1
  6 23  1  0
  7 24  1  0
 10 25  1  0
 12 26  1  0
 13 27  1  0
 13 28  1  0
 14 29  1  0
 14 30  1  0
 14 31  1  0
M  ISO  8  15  13  16  13  17  13  18  13  19  13  20  13  21  13  22  13
M  ISO  8  23  14  24  14  25  14  26   5  27   8  28   8  29   8  30   8
M  ISO  1  31   8
M  END
>  <minimizedAffinity>  (1) 
-5.06168842

>  <minimizedRMSD>  (1) 
0.724671781

$$$$
