
     RDKit          3D

 28 29  0  0  1  0  0  0  0  0999 V2000
   46.9150   34.2390   42.3450 C   0  0  1  0  0  0  0  0  0  0  0  0
   46.2940   34.4470   41.0330 C   0  0  0  0  0  0  0  0  0  0  0  0
   47.4950   34.2080   40.1190 C   0  0  0  0  0  0  0  0  0  0  0  0
   48.5890   34.9790   40.8360 C   0  0  0  0  0  0  0  0  0  0  0  0
   48.1810   35.1010   42.2720 C   0  0  2  0  0  0  0  0  0  0  0  0
   44.4740   35.9180   44.7100 C   0  0  0  0  0  0  0  0  0  0  0  0
   45.2300   35.6490   43.5510 C   0  0  0  0  0  0  0  0  0  0  0  0
   46.1150   34.5390   43.5270 C   0  0  0  0  0  0  0  0  0  0  0  0
   46.1790   33.7970   44.6380 N   0  0  0  0  0  0  0  0  0  0  0  0
   45.4610   34.0480   45.7460 C   0  0  0  0  0  0  0  0  0  0  0  0
   44.6080   35.1070   45.7860 N   0  0  0  0  0  0  0  0  0  0  0  0
   49.1790   34.4670   43.1090 N   0  0  0  0  0  0  0  0  0  0  0  0
   50.3600   34.0530   42.3810 C   0  0  0  0  0  0  0  0  0  0  0  0
   47.0880   33.1639   42.5009 H   0  0  0  0  0  0  0  0  0  0  0  0
   45.4889   33.7215   40.8446 H   0  0  0  0  0  0  0  0  0  0  0  0
   45.8065   35.4247   40.9051 H   0  0  0  0  0  0  0  0  0  0  0  0
   47.3170   34.6096   39.1105 H   0  0  0  0  0  0  0  0  0  0  0  0
   47.7297   33.1451   39.9604 H   0  0  0  0  0  0  0  0  0  0  0  0
   49.5430   34.4365   40.7606 H   0  0  0  0  0  0  0  0  0  0  0  0
   48.7248   35.9727   40.3843 H   0  0  0  0  0  0  0  0  0  0  0  0
   48.0500   36.1447   42.5938 H   0  0  0  0  0  0  0  0  0  0  0  0
   43.7848   36.7748   44.7399 H   0  0  0  0  0  0  0  0  0  0  0  0
   45.1345   36.2974   42.6675 H   0  0  0  0  0  0  0  0  0  0  0  0
   45.5635   33.3941   46.6246 H   0  0  0  0  0  0  0  0  0  0  0  0
   49.4633   35.1340   43.8405 H   0  0  0  0  0  0  0  0  0  0  0  0
   51.1512   33.7756   43.0931 H   0  0  0  0  0  0  0  0  0  0  0  0
   50.1159   33.1868   41.7484 H   0  0  0  0  0  0  0  0  0  0  0  0
   50.7102   34.8820   41.7484 H   0  0  0  0  0  0  0  0  0  0  0  0
  1  8  1  0
  2  1  1  0
  3  4  1  0
  3  2  1  0
  4  5  1  0
  5  1  1  0
  5 12  1  0
  6 11  2  0
  7  6  1  0
  8  7  2  0
  8  9  1  0
  9 10  2  0
 10 11  1  0
 13 12  1  0
  1 14  1  1
  2 15  1  0
  2 16  1  0
  3 17  1  0
  3 18  1  0
  4 19  1  0
  4 20  1  0
  5 21  1  1
  6 22  1  0
  7 23  1  0
 10 24  1  0
 12 25  1  0
 13 26  1  0
 13 27  1  0
 13 28  1  0
M  ISO  8  14  13  15  13  16  13  17  13  18  13  19  13  20  13  21  13
M  ISO  7  22  14  23  14  24  14  25   5  26   8  27   8  28   8
M  END
>  <minimizedAffinity>  (1) 
-4.98053455

>  <minimizedRMSD>  (1) 
0.437265366

$$$$
