
     RDKit          3D

 34 35  0  0  1  0  0  0  0  0999 V2000
   46.7300   34.1720   42.3110 C   0  0  1  0  0  0  0  0  0  0  0  0
   46.0760   34.4900   41.0400 C   0  0  0  0  0  0  0  0  0  0  0  0
   47.2170   34.1740   40.0660 C   0  0  0  0  0  0  0  0  0  0  0  0
   48.3970   34.8390   40.7600 C   0  0  0  0  0  0  0  0  0  0  0  0
   48.0610   34.9300   42.2250 C   0  0  2  0  0  0  0  0  0  0  0  0
   44.4630   35.8960   44.8200 C   0  0  0  0  0  0  0  0  0  0  0  0
   45.1400   35.6320   43.6070 C   0  0  0  0  0  0  0  0  0  0  0  0
   45.9940   34.5020   43.5270 C   0  0  0  0  0  0  0  0  0  0  0  0
   46.1160   33.7270   44.6330 N   0  0  0  0  0  0  0  0  0  0  0  0
   45.4580   33.9960   45.7890 C   0  0  0  0  0  0  0  0  0  0  0  0
   44.6360   35.0780   45.8770 N   0  0  0  0  0  0  0  0  0  0  0  0
   49.0290   34.1770   42.9810 N   0  0  0  0  0  0  0  0  0  0  0  0
   49.6140   33.0900   42.2560 C   0  0  0  0  0  0  0  0  0  0  0  0
   49.1310   31.7990   42.8430 C   0  0  0  0  0  0  0  0  0  0  0  0
   51.1230   33.0770   42.3150 C   0  0  0  0  0  0  0  0  0  0  0  0
   46.8270   33.0814   42.4165 H   0  0  0  0  0  0  0  0  0  0  0  0
   45.1985   33.8512   40.8616 H   0  0  0  0  0  0  0  0  0  0  0  0
   45.6758   35.5121   40.9683 H   0  0  0  0  0  0  0  0  0  0  0  0
   47.0332   34.6139   39.0747 H   0  0  0  0  0  0  0  0  0  0  0  0
   47.3570   33.1006   39.8703 H   0  0  0  0  0  0  0  0  0  0  0  0
   49.3057   34.2354   40.6189 H   0  0  0  0  0  0  0  0  0  0  0  0
   48.5832   35.8385   40.3401 H   0  0  0  0  0  0  0  0  0  0  0  0
   48.0347   35.9634   42.6011 H   0  0  0  0  0  0  0  0  0  0  0  0
   43.7964   36.7673   44.9007 H   0  0  0  0  0  0  0  0  0  0  0  0
   45.0064   36.2932   42.7381 H   0  0  0  0  0  0  0  0  0  0  0  0
   45.5894   33.3365   46.6595 H   0  0  0  0  0  0  0  0  0  0  0  0
   49.7828   34.8165   43.2706 H   0  0  0  0  0  0  0  0  0  0  0  0
   49.3134   33.2145   41.2052 H   0  0  0  0  0  0  0  0  0  0  0  0
   49.1552   31.8636   43.9408 H   0  0  0  0  0  0  0  0  0  0  0  0
   48.1004   31.6075   42.5096 H   0  0  0  0  0  0  0  0  0  0  0  0
   49.7828   30.9780   42.5096 H   0  0  0  0  0  0  0  0  0  0  0  0
   51.4489   33.0742   43.3656 H   0  0  0  0  0  0  0  0  0  0  0  0
   51.5019   32.1756   41.8112 H   0  0  0  0  0  0  0  0  0  0  0  0
   51.5174   33.9718   41.8112 H   0  0  0  0  0  0  0  0  0  0  0  0
  1  8  1  0
  2  1  1  0
  3  4  1  0
  3  2  1  0
  4  5  1  0
  5  1  1  0
  5 12  1  0
  6 11  2  0
  7  6  1  0
  8  7  2  0
  8  9  1  0
  9 10  2  0
 10 11  1  0
 13 15  1  0
 13 14  1  0
 13 12  1  0
  1 16  1  6
  2 17  1  0
  2 18  1  0
  3 19  1  0
  3 20  1  0
  4 21  1  0
  4 22  1  0
  5 23  1  1
  6 24  1  0
  7 25  1  0
 10 26  1  0
 12 27  1  0
 13 28  1  0
 14 29  1  0
 14 30  1  0
 14 31  1  0
 15 32  1  0
 15 33  1  0
 15 34  1  0
M  ISO  8  16  13  17  13  18  13  19  13  20  13  21  13  22  13  23  13
M  ISO  8  24  14  25  14  26  14  27   5  28   8  29   8  30   8  31   8
M  ISO  3  32   8  33   8  34   8
M  END
>  <minimizedAffinity>  (1) 
-4.94210052

>  <minimizedRMSD>  (1) 
1.48218274

$$$$
