
     RDKit          3D

 44 47  0  0  1  0  0  0  0  0999 V2000
   46.1240   33.6520   41.2920 C   0  0  1  0  0  0  0  0  0  0  0  0
   45.1820   33.4790   40.1930 C   0  0  0  0  0  0  0  0  0  0  0  0
   46.0500   32.8070   39.1690 C   0  0  0  0  0  0  0  0  0  0  0  0
   47.3460   33.6060   39.2780 C   0  0  0  0  0  0  0  0  0  0  0  0
   47.3610   34.2690   40.6050 C   0  0  2  0  0  0  0  0  0  0  0  0
   45.0710   36.5170   43.5090 C   0  0  0  0  0  0  0  0  0  0  0  0
   45.5020   35.7980   42.3770 C   0  0  0  0  0  0  0  0  0  0  0  0
   45.6860   34.4120   42.4410 C   0  0  0  0  0  0  0  0  0  0  0  0
   45.4250   33.8600   43.6290 N   0  0  0  0  0  0  0  0  0  0  0  0
   45.0170   34.5190   44.7110 C   0  0  0  0  0  0  0  0  0  0  0  0
   44.8380   35.8700   44.6460 N   0  0  0  0  0  0  0  0  0  0  0  0
   48.5290   33.8740   41.3510 N   0  0  0  0  0  0  0  0  0  0  0  0
   49.3040   32.7270   41.5240 C   0  0  0  0  0  0  0  0  0  0  0  0
   50.3900   32.3180   40.7860 C   0  0  0  0  0  0  0  0  0  0  0  0
   51.1230   31.1680   40.9760 C   0  0  0  0  0  0  0  0  0  0  0  0
   50.7110   30.3700   42.0040 C   0  0  0  0  0  0  0  0  0  0  0  0
   49.6370   30.6740   42.8120 C   0  0  0  0  0  0  0  0  0  0  0  0
   49.3260   29.7880   43.7990 C   0  0  0  0  0  0  0  0  0  0  0  0
   48.2690   30.0440   44.6140 C   0  0  0  0  0  0  0  0  0  0  0  0
   47.5340   31.1790   44.4390 C   0  0  0  0  0  0  0  0  0  0  0  0
   47.8860   32.0300   43.4400 C   0  0  0  0  0  0  0  0  0  0  0  0
   48.9430   31.8610   42.5550 C   0  0  0  0  0  0  0  0  0  0  0  0
   49.0560   34.9180   42.1930 C   0  0  0  0  0  0  0  0  0  0  0  0
   48.4830   34.7420   43.4440 F   0  0  0  0  0  0  0  0  0  0  0  0
   48.8320   36.1610   41.6990 F   0  0  0  0  0  0  0  0  0  0  0  0
   50.4060   34.8240   42.4500 F   0  0  0  0  0  0  0  0  0  0  0  0
   46.3019   32.6814   41.7781 H   0  0  0  0  0  0  0  0  0  0  0  0
   44.3348   32.8409   40.4847 H   0  0  0  0  0  0  0  0  0  0  0  0
   44.7153   34.4130   39.8468 H   0  0  0  0  0  0  0  0  0  0  0  0
   45.6148   32.8867   38.1619 H   0  0  0  0  0  0  0  0  0  0  0  0
   46.1791   31.7275   39.3366 H   0  0  0  0  0  0  0  0  0  0  0  0
   48.2101   32.9313   39.1872 H   0  0  0  0  0  0  0  0  0  0  0  0
   47.4040   34.3547   38.4742 H   0  0  0  0  0  0  0  0  0  0  0  0
   47.3620   35.3670   40.5382 H   0  0  0  0  0  0  0  0  0  0  0  0
   44.9283   37.6062   43.4522 H   0  0  0  0  0  0  0  0  0  0  0  0
   45.6957   36.3306   41.4342 H   0  0  0  0  0  0  0  0  0  0  0  0
   44.8257   33.9788   45.6499 H   0  0  0  0  0  0  0  0  0  0  0  0
   50.7044   32.9751   39.9617 H   0  0  0  0  0  0  0  0  0  0  0  0
   51.9835   30.9095   40.3415 H   0  0  0  0  0  0  0  0  0  0  0  0
   51.2635   29.4386   42.1969 H   0  0  0  0  0  0  0  0  0  0  0  0
   49.9242   28.8749   43.9349 H   0  0  0  0  0  0  0  0  0  0  0  0
   48.0067   29.3362   45.4141 H   0  0  0  0  0  0  0  0  0  0  0  0
   46.6763   31.4005   45.0912 H   0  0  0  0  0  0  0  0  0  0  0  0
   47.2766   32.9380   43.3210 H   0  0  0  0  0  0  0  0  0  0  0  0
  1  8  1  0
  2  1  1  0
  3  4  1  0
  3  2  1  0
  4  5  1  0
  5  1  1  0
  5 12  1  0
  6 11  2  0
  7  8  2  0
  7  6  1  0
  8  9  1  0
  9 10  2  0
 11 10  1  0
 12 13  1  0
 12 23  1  0
 13 22  2  0
 14 15  2  0
 14 13  1  0
 15 16  1  0
 16 17  2  0
 17 18  1  0
 18 19  2  0
 20 19  1  0
 21 20  2  0
 22 17  1  0
 22 21  1  0
 23 26  1  0
 23 24  1  0
 25 23  1  0
  1 27  1  1
  2 28  1  0
  2 29  1  0
  3 30  1  0
  3 31  1  0
  4 32  1  0
  4 33  1  0
  5 34  1  6
  6 35  1  0
  7 36  1  0
 10 37  1  0
 14 38  1  0
 15 39  1  0
 16 40  1  0
 18 41  1  0
 19 42  1  0
 20 43  1  0
 21 44  1  0
M  ISO  8  27  13  28  13  29  13  30  13  31  13  32  13  33  13  34  13
M  ISO  8  35  14  36  14  37  14  38  14  39  14  40  14  41  14  42  14
M  ISO  2  43  14  44  14
M  END
>  <minimizedAffinity>  (1) 
-5.64552498

>  <minimizedRMSD>  (1) 
0.517028034

$$$$
