
     RDKit          3D

 31 32  0  0  1  0  0  0  0  0999 V2000
   46.4230   33.6180   41.2120 C   0  0  1  0  0  0  0  0  0  0  0  0
   45.5130   33.6050   40.0700 C   0  0  0  0  0  0  0  0  0  0  0  0
   46.4380   33.2090   38.9440 C   0  0  0  0  0  0  0  0  0  0  0  0
   47.6760   34.0400   39.2420 C   0  0  0  0  0  0  0  0  0  0  0  0
   47.6120   34.4510   40.6830 C   0  0  2  0  0  0  0  0  0  0  0  0
   44.8990   35.9620   43.7800 C   0  0  0  0  0  0  0  0  0  0  0  0
   45.3710   35.4670   42.5550 C   0  0  0  0  0  0  0  0  0  0  0  0
   45.9240   34.1630   42.4650 C   0  0  0  0  0  0  0  0  0  0  0  0
   45.9660   33.4490   43.6020 N   0  0  0  0  0  0  0  0  0  0  0  0
   45.5050   33.9440   44.7740 C   0  0  0  0  0  0  0  0  0  0  0  0
   44.9720   35.1980   44.8640 N   0  0  0  0  0  0  0  0  0  0  0  0
   48.8000   33.9980   41.3340 N   0  0  0  0  0  0  0  0  0  0  0  0
   49.3860   32.6850   41.1750 C   0  0  0  0  0  0  0  0  0  0  0  0
   48.7490   31.6000   41.1850 O   0  0  0  0  0  0  0  0  0  0  0  0
   49.4560   34.9640   42.1480 C   0  0  0  0  0  0  0  0  0  0  0  0
   48.8740   34.9220   43.4170 F   0  0  0  0  0  0  0  0  0  0  0  0
   49.3350   36.2210   41.6500 F   0  0  0  0  0  0  0  0  0  0  0  0
   50.7940   34.6950   42.3790 F   0  0  0  0  0  0  0  0  0  0  0  0
   50.7570   32.5710   40.9940 O   0  0  0  0  0  0  0  0  0  0  0  0
   46.6478   32.5840   41.5126 H   0  0  0  0  0  0  0  0  0  0  0  0
   44.7091   32.8667   40.2066 H   0  0  0  0  0  0  0  0  0  0  0  0
   44.9918   34.5594   39.9042 H   0  0  0  0  0  0  0  0  0  0  0  0
   46.0091   33.4684   37.9649 H   0  0  0  0  0  0  0  0  0  0  0  0
   46.6329   32.1277   38.8907 H   0  0  0  0  0  0  0  0  0  0  0  0
   48.5813   33.4414   39.0628 H   0  0  0  0  0  0  0  0  0  0  0  0
   47.7127   34.9250   38.5898 H   0  0  0  0  0  0  0  0  0  0  0  0
   47.5114   35.5352   40.8390 H   0  0  0  0  0  0  0  0  0  0  0  0
   44.4722   36.9739   43.8421 H   0  0  0  0  0  0  0  0  0  0  0  0
   45.3118   36.0963   41.6547 H   0  0  0  0  0  0  0  0  0  0  0  0
   45.5611   33.3198   45.6780 H   0  0  0  0  0  0  0  0  0  0  0  0
   51.3230   33.3830   40.9752 H   0  0  0  0  0  0  0  0  0  0  0  0
  1  8  1  0
  2  1  1  0
  3  4  1  0
  3  2  1  0
  4  5  1  0
  5  1  1  0
  5 12  1  0
  6 11  2  0
  7  6  1  0
  8  7  2  0
  8  9  1  0
  9 10  2  0
 10 11  1  0
 12 15  1  0
 13 14  2  0
 13 12  1  0
 15 18  1  0
 15 16  1  0
 17 15  1  0
 19 13  1  0
  1 20  1  1
  2 21  1  0
  2 22  1  0
  3 23  1  0
  3 24  1  0
  4 25  1  0
  4 26  1  0
  5 27  1  6
  6 28  1  0
  7 29  1  0
 10 30  1  0
 19 31  1  0
M  ISO  8  20  13  21  13  22  13  23  13  24  13  25  13  26  13  27  13
M  ISO  4  28  14  29  14  30  14  31   3
M  END
>  <minimizedAffinity>  (1) 
-5.43336725

>  <minimizedRMSD>  (1) 
0.194971845

$$$$
