
     RDKit          3D

 35 37  0  0  1  0  0  0  0  0999 V2000
   46.5040   33.6250   41.1100 C   0  0  1  0  0  0  0  0  0  0  0  0
   45.6160   33.5680   39.9570 C   0  0  0  0  0  0  0  0  0  0  0  0
   46.5830   33.1880   38.8610 C   0  0  0  0  0  0  0  0  0  0  0  0
   47.7670   34.0880   39.1700 C   0  0  0  0  0  0  0  0  0  0  0  0
   47.6840   34.4850   40.6010 C   0  0  2  0  0  0  0  0  0  0  0  0
   44.9170   35.8260   43.7300 C   0  0  0  0  0  0  0  0  0  0  0  0
   45.4270   35.3810   42.4990 C   0  0  0  0  0  0  0  0  0  0  0  0
   45.9730   34.1000   42.3660 C   0  0  0  0  0  0  0  0  0  0  0  0
   45.9690   33.3570   43.4820 N   0  0  0  0  0  0  0  0  0  0  0  0
   45.4880   33.7660   44.6600 C   0  0  0  0  0  0  0  0  0  0  0  0
   44.9570   35.0110   44.7850 N   0  0  0  0  0  0  0  0  0  0  0  0
   48.8640   34.0390   41.3080 N   0  0  0  0  0  0  0  0  0  0  0  0
   49.3300   32.7020   41.2130 C   0  0  0  0  0  0  0  0  0  0  0  0
   49.1960   31.8090   42.2710 C   0  0  0  0  0  0  0  0  0  0  0  0
   49.7370   30.5870   41.8930 C   0  0  0  0  0  0  0  0  0  0  0  0
   50.1830   30.8010   40.5960 C   0  0  0  0  0  0  0  0  0  0  0  0
   49.9310   32.0290   40.2400 O   0  0  0  0  0  0  0  0  0  0  0  0
   49.4570   35.0540   42.1340 C   0  0  0  0  0  0  0  0  0  0  0  0
   48.8260   34.9560   43.3710 F   0  0  0  0  0  0  0  0  0  0  0  0
   49.3530   36.3020   41.6130 F   0  0  0  0  0  0  0  0  0  0  0  0
   50.7920   34.8320   42.4030 F   0  0  0  0  0  0  0  0  0  0  0  0
   46.7636   32.6002   41.4141 H   0  0  0  0  0  0  0  0  0  0  0  0
   44.8344   32.8051   40.0874 H   0  0  0  0  0  0  0  0  0  0  0  0
   45.0617   34.4990   39.7674 H   0  0  0  0  0  0  0  0  0  0  0  0
   46.1656   33.4018   37.8660 H   0  0  0  0  0  0  0  0  0  0  0  0
   46.8309   32.1166   38.8356 H   0  0  0  0  0  0  0  0  0  0  0  0
   48.7060   33.5448   38.9875 H   0  0  0  0  0  0  0  0  0  0  0  0
   47.7471   34.9791   38.5253 H   0  0  0  0  0  0  0  0  0  0  0  0
   47.5797   35.5713   40.7393 H   0  0  0  0  0  0  0  0  0  0  0  0
   44.4895   36.8353   43.8227 H   0  0  0  0  0  0  0  0  0  0  0  0
   45.3965   36.0501   41.6264 H   0  0  0  0  0  0  0  0  0  0  0  0
   45.5219   33.0938   45.5300 H   0  0  0  0  0  0  0  0  0  0  0  0
   48.7376   32.0334   43.2454 H   0  0  0  0  0  0  0  0  0  0  0  0
   49.7980   29.6621   42.4853 H   0  0  0  0  0  0  0  0  0  0  0  0
   50.6752   30.0473   39.9638 H   0  0  0  0  0  0  0  0  0  0  0  0
  1  8  1  0
  2  1  1  0
  3  4  1  0
  3  2  1  0
  4  5  1  0
  5  1  1  0
  5 12  1  0
  6 11  2  0
  7  6  1  0
  8  7  2  0
  8  9  1  0
  9 10  2  0
 10 11  1  0
 12 18  1  0
 13 12  1  0
 13 14  2  0
 15 14  1  0
 16 15  2  0
 17 16  1  0
 17 13  1  0
 18 21  1  0
 18 19  1  0
 20 18  1  0
  1 22  1  1
  2 23  1  0
  2 24  1  0
  3 25  1  0
  3 26  1  0
  4 27  1  0
  4 28  1  0
  5 29  1  6
  6 30  1  0
  7 31  1  0
 10 32  1  0
 14 33  1  0
 15 34  1  0
 16 35  1  0
M  ISO  8  22  13  23  13  24  13  25  13  26  13  27  13  28  13  29  13
M  ISO  6  30  14  31  14  32  14  33  14  34  14  35  14
M  END
>  <minimizedAffinity>  (1) 
-5.22455215

>  <minimizedRMSD>  (1) 
0.568304121

$$$$
