
     RDKit          3D

 34 36  0  0  1  0  0  0  0  0999 V2000
   46.3640   33.6550   41.2250 C   0  0  1  0  0  0  0  0  0  0  0  0
   45.4720   33.6340   40.0790 C   0  0  0  0  0  0  0  0  0  0  0  0
   46.4200   33.1960   38.9760 C   0  0  0  0  0  0  0  0  0  0  0  0
   47.6600   34.0150   39.2760 C   0  0  0  0  0  0  0  0  0  0  0  0
   47.6050   34.4180   40.7070 C   0  0  2  0  0  0  0  0  0  0  0  0
   44.8320   35.9510   43.7960 C   0  0  0  0  0  0  0  0  0  0  0  0
   45.3040   35.4510   42.5690 C   0  0  0  0  0  0  0  0  0  0  0  0
   45.8770   34.1740   42.4820 C   0  0  0  0  0  0  0  0  0  0  0  0
   45.9360   33.4880   43.6300 N   0  0  0  0  0  0  0  0  0  0  0  0
   45.4880   33.9550   44.8040 C   0  0  0  0  0  0  0  0  0  0  0  0
   44.9330   35.1920   44.8860 N   0  0  0  0  0  0  0  0  0  0  0  0
   48.7560   33.9120   41.4140 N   0  0  0  0  0  0  0  0  0  0  0  0
   49.2290   32.5750   41.5040 C   0  0  0  0  0  0  0  0  0  0  0  0
   48.9370   31.6350   42.6750 C   0  0  0  0  0  0  0  0  0  0  0  0
   49.8250   30.1690   42.1060 S   0  0  0  0  0  0  0  0  0  0  0  0
   50.4220   30.9900   40.4750 C   0  0  0  0  0  0  0  0  0  0  0  0
   49.9740   32.1490   40.4730 N   0  0  0  0  0  0  0  0  0  0  0  0
   49.4730   34.9130   42.1540 C   0  0  0  0  0  0  0  0  0  0  0  0
   48.9180   34.9200   43.4310 F   0  0  0  0  0  0  0  0  0  0  0  0
   49.4320   36.1410   41.5780 F   0  0  0  0  0  0  0  0  0  0  0  0
   50.8040   34.5970   42.3540 F   0  0  0  0  0  0  0  0  0  0  0  0
   46.5481   32.6171   41.5393 H   0  0  0  0  0  0  0  0  0  0  0  0
   44.6540   32.9118   40.2179 H   0  0  0  0  0  0  0  0  0  0  0  0
   44.9638   34.5900   39.8846 H   0  0  0  0  0  0  0  0  0  0  0  0
   46.0140   33.4363   37.9823 H   0  0  0  0  0  0  0  0  0  0  0  0
   46.6016   32.1113   38.9546 H   0  0  0  0  0  0  0  0  0  0  0  0
   48.5607   33.4110   39.0919 H   0  0  0  0  0  0  0  0  0  0  0  0
   47.6991   34.9033   38.6284 H   0  0  0  0  0  0  0  0  0  0  0  0
   47.5734   35.5094   40.8408 H   0  0  0  0  0  0  0  0  0  0  0  0
   44.3857   36.9547   43.8547 H   0  0  0  0  0  0  0  0  0  0  0  0
   45.2225   36.0710   41.6640 H   0  0  0  0  0  0  0  0  0  0  0  0
   45.5704   33.3322   45.7070 H   0  0  0  0  0  0  0  0  0  0  0  0
   48.3564   31.8028   43.5941 H   0  0  0  0  0  0  0  0  0  0  0  0
   51.0408   30.5242   39.6939 H   0  0  0  0  0  0  0  0  0  0  0  0
  1  8  1  0
  2  1  1  0
  3  4  1  0
  3  2  1  0
  4  5  1  0
  5  1  1  0
  5 12  1  0
  6 11  2  0
  7  6  1  0
  8  7  2  0
  8  9  1  0
  9 10  2  0
 10 11  1  0
 12 13  1  0
 12 18  1  0
 13 14  2  0
 15 14  1  0
 16 15  1  0
 17 16  2  0
 17 13  1  0
 18 21  1  0
 18 19  1  0
 20 18  1  0
  1 22  1  1
  2 23  1  0
  2 24  1  0
  3 25  1  0
  3 26  1  0
  4 27  1  0
  4 28  1  0
  5 29  1  6
  6 30  1  0
  7 31  1  0
 10 32  1  0
 14 33  1  0
 16 34  1  0
M  ISO  8  22  13  23  13  24  13  25  13  26  13  27  13  28  13  29  13
M  ISO  5  30  14  31  14  32  14  33  14  34  14
M  END
>  <minimizedAffinity>  (1) 
-5.1883502

>  <minimizedRMSD>  (1) 
0.562068403

$$$$
