
     RDKit          3D

 31 32  0  0  1  0  0  0  0  0999 V2000
   46.4020   33.6570   41.2070 C   0  0  1  0  0  0  0  0  0  0  0  0
   45.4900   33.6060   40.0620 C   0  0  0  0  0  0  0  0  0  0  0  0
   46.4330   33.1950   38.9560 C   0  0  0  0  0  0  0  0  0  0  0  0
   47.6420   34.0690   39.2310 C   0  0  0  0  0  0  0  0  0  0  0  0
   47.6120   34.4030   40.6800 C   0  0  2  0  0  0  0  0  0  0  0  0
   44.8490   35.9210   43.7850 C   0  0  0  0  0  0  0  0  0  0  0  0
   45.3290   35.4380   42.5450 C   0  0  0  0  0  0  0  0  0  0  0  0
   45.9010   34.1650   42.4650 C   0  0  0  0  0  0  0  0  0  0  0  0
   45.9540   33.4750   43.6080 N   0  0  0  0  0  0  0  0  0  0  0  0
   45.5060   33.9180   44.7860 C   0  0  0  0  0  0  0  0  0  0  0  0
   44.9470   35.1540   44.8740 N   0  0  0  0  0  0  0  0  0  0  0  0
   48.7820   34.0350   41.3500 N   0  0  0  0  0  0  0  0  0  0  0  0
   49.4220   35.0210   42.1500 C   0  0  0  0  0  0  0  0  0  0  0  0
   48.8150   34.9960   43.3870 F   0  0  0  0  0  0  0  0  0  0  0  0
   49.3580   36.2540   41.5720 F   0  0  0  0  0  0  0  0  0  0  0  0
   50.7580   34.7700   42.3880 F   0  0  0  0  0  0  0  0  0  0  0  0
   49.2080   32.7260   41.5000 C   0  0  0  0  0  0  0  0  0  0  0  0
   50.5790   32.6210   41.2140 F   0  0  0  0  0  0  0  0  0  0  0  0
   49.1920   32.4770   42.8970 F   0  0  0  0  0  0  0  0  0  0  0  0
   48.4720   31.7170   40.9850 F   0  0  0  0  0  0  0  0  0  0  0  0
   46.6191   32.6302   41.5366 H   0  0  0  0  0  0  0  0  0  0  0  0
   44.6952   32.8605   40.2123 H   0  0  0  0  0  0  0  0  0  0  0  0
   44.9513   34.5458   39.8709 H   0  0  0  0  0  0  0  0  0  0  0  0
   46.0038   33.4067   37.9656 H   0  0  0  0  0  0  0  0  0  0  0  0
   46.6580   32.1184   38.9424 H   0  0  0  0  0  0  0  0  0  0  0  0
   48.5660   33.5243   38.9873 H   0  0  0  0  0  0  0  0  0  0  0  0
   47.6174   34.9806   38.6159 H   0  0  0  0  0  0  0  0  0  0  0  0
   47.5464   35.4889   40.8431 H   0  0  0  0  0  0  0  0  0  0  0  0
   44.3979   36.9220   43.8519 H   0  0  0  0  0  0  0  0  0  0  0  0
   45.2521   36.0641   41.6438 H   0  0  0  0  0  0  0  0  0  0  0  0
   45.5892   33.2848   45.6816 H   0  0  0  0  0  0  0  0  0  0  0  0
  1  8  1  0
  2  1  1  0
  3  4  1  0
  3  2  1  0
  4  5  1  0
  5  1  1  0
  5 12  1  0
  6 11  2  0
  7  6  1  0
  8  7  2  0
  8  9  1  0
  9 10  2  0
 10 11  1  0
 12 17  1  0
 12 13  1  0
 13 16  1  0
 13 14  1  0
 15 13  1  0
 17 19  1  0
 18 17  1  0
 20 17  1  0
  1 21  1  1
  2 22  1  0
  2 23  1  0
  3 24  1  0
  3 25  1  0
  4 26  1  0
  4 27  1  0
  5 28  1  6
  6 29  1  0
  7 30  1  0
 10 31  1  0
M  ISO  8  21  13  22  13  23  13  24  13  25  13  26  13  27  13  28  13
M  ISO  3  29  14  30  14  31  14
M  END
>  <minimizedAffinity>  (1) 
-5.18401289

>  <minimizedRMSD>  (1) 
0.226989284

$$$$
