
     RDKit          3D

 35 37  0  0  1  0  0  0  0  0999 V2000
   46.4040   33.6830   41.2210 C   0  0  1  0  0  0  0  0  0  0  0  0
   45.5090   33.6510   40.0660 C   0  0  0  0  0  0  0  0  0  0  0  0
   46.4550   33.2260   38.9610 C   0  0  0  0  0  0  0  0  0  0  0  0
   47.7020   34.0320   39.2660 C   0  0  0  0  0  0  0  0  0  0  0  0
   47.6430   34.4250   40.6950 C   0  0  2  0  0  0  0  0  0  0  0  0
   44.8780   35.9950   43.7740 C   0  0  0  0  0  0  0  0  0  0  0  0
   45.3600   35.5010   42.5470 C   0  0  0  0  0  0  0  0  0  0  0  0
   45.9010   34.2170   42.4670 C   0  0  0  0  0  0  0  0  0  0  0  0
   45.9240   33.5240   43.6100 N   0  0  0  0  0  0  0  0  0  0  0  0
   45.4710   33.9780   44.7790 C   0  0  0  0  0  0  0  0  0  0  0  0
   44.9410   35.2320   44.8610 N   0  0  0  0  0  0  0  0  0  0  0  0
   48.7960   33.9650   41.4100 N   0  0  0  0  0  0  0  0  0  0  0  0
   49.4400   34.8780   42.2410 C   0  0  0  0  0  0  0  0  0  0  0  0
   48.9390   34.7370   43.5200 F   0  0  0  0  0  0  0  0  0  0  0  0
   49.2450   36.1940   41.8000 F   0  0  0  0  0  0  0  0  0  0  0  0
   50.8020   34.7720   42.3600 F   0  0  0  0  0  0  0  0  0  0  0  0
   49.0340   32.6110   41.4700 C   0  0  0  0  0  0  0  0  0  0  0  0
   50.3240   32.0420   40.9010 C   0  0  0  0  0  0  0  0  0  0  0  0
   49.9370   31.8620   42.3610 C   0  0  0  0  0  0  0  0  0  0  0  0
   46.5952   32.6531   41.5569 H   0  0  0  0  0  0  0  0  0  0  0  0
   44.6996   32.9193   40.2053 H   0  0  0  0  0  0  0  0  0  0  0  0
   44.9929   34.6030   39.8725 H   0  0  0  0  0  0  0  0  0  0  0  0
   46.0494   33.4812   37.9709 H   0  0  0  0  0  0  0  0  0  0  0  0
   46.6320   32.1408   38.9296 H   0  0  0  0  0  0  0  0  0  0  0  0
   48.5980   33.4211   39.0816 H   0  0  0  0  0  0  0  0  0  0  0  0
   47.7539   34.9223   38.6221 H   0  0  0  0  0  0  0  0  0  0  0  0
   47.6036   35.5172   40.8198 H   0  0  0  0  0  0  0  0  0  0  0  0
   44.4514   37.0072   43.8331 H   0  0  0  0  0  0  0  0  0  0  0  0
   45.3099   36.1305   41.6463 H   0  0  0  0  0  0  0  0  0  0  0  0
   45.5246   33.3426   45.6753 H   0  0  0  0  0  0  0  0  0  0  0  0
   47.9487   32.5257   41.3125 H   0  0  0  0  0  0  0  0  0  0  0  0
   50.2967   31.1870   40.2095 H   0  0  0  0  0  0  0  0  0  0  0  0
   51.1923   32.4434   40.3579 H   0  0  0  0  0  0  0  0  0  0  0  0
   50.4967   32.3931   43.1450 H   0  0  0  0  0  0  0  0  0  0  0  0
   49.8195   30.9945   43.0271 H   0  0  0  0  0  0  0  0  0  0  0  0
  1  8  1  0
  2  1  1  0
  3  4  1  0
  3  2  1  0
  4  5  1  0
  5  1  1  0
  5 12  1  0
  6 11  2  0
  7  6  1  0
  8  7  2  0
  8  9  1  0
  9 10  2  0
 10 11  1  0
 12 17  1  0
 12 13  1  0
 13 16  1  0
 13 14  1  0
 15 13  1  0
 17 19  1  0
 18 17  1  0
 18 19  1  0
  1 20  1  1
  2 21  1  0
  2 22  1  0
  3 23  1  0
  3 24  1  0
  4 25  1  0
  4 26  1  0
  5 27  1  6
  6 28  1  0
  7 29  1  0
 10 30  1  0
 17 31  1  0
 18 32  1  0
 18 33  1  0
 19 34  1  0
 19 35  1  0
M  ISO  8  20  13  21  13  22  13  23  13  24  13  25  13  26  13  27  13
M  ISO  8  28  14  29  14  30  14  31  13  32  13  33  13  34  13  35  13
M  END
>  <minimizedAffinity>  (1) 
-4.9844346

>  <minimizedRMSD>  (1) 
0.428208411

$$$$
