
     RDKit          3D

 37 38  0  0  1  0  0  0  0  0999 V2000
   46.3290   33.6390   41.1910 C   0  0  1  0  0  0  0  0  0  0  0  0
   45.3970   33.5530   40.0580 C   0  0  0  0  0  0  0  0  0  0  0  0
   46.3260   33.1060   38.9530 C   0  0  0  0  0  0  0  0  0  0  0  0
   47.5470   33.9570   39.1950 C   0  0  0  0  0  0  0  0  0  0  0  0
   47.5260   34.3780   40.6240 C   0  0  2  0  0  0  0  0  0  0  0  0
   44.9610   36.0770   43.7190 C   0  0  0  0  0  0  0  0  0  0  0  0
   45.4280   35.5430   42.5030 C   0  0  0  0  0  0  0  0  0  0  0  0
   45.8420   34.2100   42.4240 C   0  0  0  0  0  0  0  0  0  0  0  0
   45.7560   33.5280   43.5670 N   0  0  0  0  0  0  0  0  0  0  0  0
   45.3190   34.0070   44.7290 C   0  0  0  0  0  0  0  0  0  0  0  0
   44.9160   35.3020   44.8050 N   0  0  0  0  0  0  0  0  0  0  0  0
   48.7080   34.0170   41.2790 N   0  0  0  0  0  0  0  0  0  0  0  0
   49.2610   34.9520   42.1910 C   0  0  0  0  0  0  0  0  0  0  0  0
   48.7190   34.7070   43.4390 F   0  0  0  0  0  0  0  0  0  0  0  0
   49.0180   36.2380   41.7990 F   0  0  0  0  0  0  0  0  0  0  0  0
   50.6260   34.8560   42.3700 F   0  0  0  0  0  0  0  0  0  0  0  0
   49.2320   32.7220   41.2000 C   0  0  0  0  0  0  0  0  0  0  0  0
   48.2490   31.7310   41.8700 C   0  0  0  0  0  0  0  0  0  0  0  0
   49.4420   32.2070   39.7940 C   0  0  0  0  0  0  0  0  0  0  0  0
   46.5537   32.6234   41.5490 H   0  0  0  0  0  0  0  0  0  0  0  0
   44.6039   32.8135   40.2427 H   0  0  0  0  0  0  0  0  0  0  0  0
   44.8553   34.4863   39.8449 H   0  0  0  0  0  0  0  0  0  0  0  0
   45.8915   33.3055   37.9623 H   0  0  0  0  0  0  0  0  0  0  0  0
   46.5334   32.0258   38.9623 H   0  0  0  0  0  0  0  0  0  0  0  0
   48.4571   33.3746   38.9888 H   0  0  0  0  0  0  0  0  0  0  0  0
   47.5432   34.8356   38.5331 H   0  0  0  0  0  0  0  0  0  0  0  0
   47.4518   35.4685   40.7481 H   0  0  0  0  0  0  0  0  0  0  0  0
   44.6352   37.1262   43.7739 H   0  0  0  0  0  0  0  0  0  0  0  0
   45.4675   36.1801   41.6072 H   0  0  0  0  0  0  0  0  0  0  0  0
   45.2845   33.3611   45.6187 H   0  0  0  0  0  0  0  0  0  0  0  0
   50.2118   32.7841   41.6961 H   0  0  0  0  0  0  0  0  0  0  0  0
   48.3323   31.8149   42.9636 H   0  0  0  0  0  0  0  0  0  0  0  0
   47.2205   31.9695   41.5612 H   0  0  0  0  0  0  0  0  0  0  0  0
   48.4958   30.7045   41.5612 H   0  0  0  0  0  0  0  0  0  0  0  0
   49.8571   31.1891   39.8345 H   0  0  0  0  0  0  0  0  0  0  0  0
   48.4792   32.1895   39.2623 H   0  0  0  0  0  0  0  0  0  0  0  0
   50.1425   32.8677   39.2623 H   0  0  0  0  0  0  0  0  0  0  0  0
  1  8  1  0
  2  1  1  0
  3  4  1  0
  3  2  1  0
  4  5  1  0
  5  1  1  0
  5 12  1  0
  6 11  2  0
  7  6  1  0
  8  7  2  0
  8  9  1  0
  9 10  2  0
 10 11  1  0
 12 13  1  0
 13 16  1  0
 13 14  1  0
 15 13  1  0
 17 12  1  0
 17 18  1  0
 19 17  1  0
  1 20  1  1
  2 21  1  0
  2 22  1  0
  3 23  1  0
  3 24  1  0
  4 25  1  0
  4 26  1  0
  5 27  1  6
  6 28  1  0
  7 29  1  0
 10 30  1  0
 17 31  1  0
 18 32  1  0
 18 33  1  0
 18 34  1  0
 19 35  1  0
 19 36  1  0
 19 37  1  0
M  ISO  8  20  13  21  13  22  13  23  13  24  13  25  13  26  13  27  13
M  ISO  8  28  14  29  14  30  14  31   8  32   8  33   8  34   8  35   8
M  ISO  2  36   8  37   8
M  END
>  <minimizedAffinity>  (1) 
-4.96522093

>  <minimizedRMSD>  (1) 
0.42734471

$$$$
