
     RDKit          3D

 24 26  0  0  0  0  0  0  0  0999 V2000
   44.4470   33.5740   40.1680 N   0  0  0  0  0  0  0  0  0  0  0  0
   45.0880   32.8060   39.2710 N   0  0  0  0  0  0  0  0  0  0  0  0
   44.3650   32.8540   38.1260 C   0  0  0  0  0  0  0  0  0  0  0  0
   43.2670   33.6960   38.4150 C   0  0  0  0  0  0  0  0  0  0  0  0
   43.3120   34.1730   39.7620 C   0  0  0  0  0  0  0  0  0  0  0  0
   46.0770   34.6630   41.5770 C   0  0  0  0  0  0  0  0  0  0  0  0
   45.0210   33.7280   41.4640 C   0  0  0  0  0  0  0  0  0  0  0  0
   44.5680   32.9970   42.5950 C   0  0  0  0  0  0  0  0  0  0  0  0
   45.2030   33.2490   43.7770 N   0  0  0  0  0  0  0  0  0  0  0  0
   46.2160   34.1620   43.8440 C   0  0  0  0  0  0  0  0  0  0  0  0
   46.6580   34.8690   42.7610 N   0  0  0  0  0  0  0  0  0  0  0  0
   42.2940   34.9900   40.3380 C   0  0  0  0  0  0  0  0  0  0  0  0
   41.1130   35.2710   39.6660 C   0  0  0  0  0  0  0  0  0  0  0  0
   40.2790   36.0620   40.3830 C   0  0  0  0  0  0  0  0  0  0  0  0
   40.9510   36.2770   41.5170 N   0  0  0  0  0  0  0  0  0  0  0  0
   42.0690   35.6590   41.4460 N   0  0  0  0  0  0  0  0  0  0  0  0
   44.5853   32.3465   37.1753 H   0  0  0  0  0  0  0  0  0  0  0  0
   42.4769   33.9521   37.6938 H   0  0  0  0  0  0  0  0  0  0  0  0
   46.4184   35.2188   40.6913 H   0  0  0  0  0  0  0  0  0  0  0  0
   43.7488   32.2665   42.5221 H   0  0  0  0  0  0  0  0  0  0  0  0
   46.6997   34.3370   44.8164 H   0  0  0  0  0  0  0  0  0  0  0  0
   40.8792   34.8925   38.6600 H   0  0  0  0  0  0  0  0  0  0  0  0
   39.2850   36.4377   40.0988 H   0  0  0  0  0  0  0  0  0  0  0  0
   40.6248   36.8436   42.3129 H   0  0  0  0  0  0  0  0  0  0  0  0
  1  7  1  0
  2  1  1  0
  3  4  1  0
  3  2  2  0
  4  5  2  0
  5  1  1  0
  5 12  1  0
  6 11  2  0
  7  6  1  0
  7  8  2  0
  8  9  1  0
  9 10  2  0
 11 10  1  0
 12 16  2  0
 13 12  1  0
 13 14  2  0
 14 15  1  0
 16 15  1  0
  3 17  1  0
  4 18  1  0
  6 19  1  0
  8 20  1  0
 10 21  1  0
 13 22  1  0
 14 23  1  0
 15 24  1  0
M  ISO  8  17  14  18  14  19  14  20  14  21  14  22  14  23  14  24   9
M  END
>  <minimizedAffinity>  (1) 
-4.15008211

>  <minimizedRMSD>  (1) 
2.2342608

$$$$
