
     RDKit          3D

 24 26  0  0  0  0  0  0  0  0999 V2000
   44.5500   33.7680   40.5550 N   0  0  0  0  0  0  0  0  0  0  0  0
   45.6170   33.2960   39.9020 N   0  0  0  0  0  0  0  0  0  0  0  0
   45.2220   33.0500   38.6090 C   0  0  0  0  0  0  0  0  0  0  0  0
   43.8560   33.4110   38.5710 C   0  0  0  0  0  0  0  0  0  0  0  0
   43.4280   33.8760   39.8500 C   0  0  0  0  0  0  0  0  0  0  0  0
   44.6070   35.5520   42.1710 C   0  0  0  0  0  0  0  0  0  0  0  0
   44.7070   34.1680   41.9010 C   0  0  0  0  0  0  0  0  0  0  0  0
   44.9560   33.2690   42.9620 C   0  0  0  0  0  0  0  0  0  0  0  0
   45.0890   33.7990   44.2280 N   0  0  0  0  0  0  0  0  0  0  0  0
   44.9830   35.1400   44.4380 C   0  0  0  0  0  0  0  0  0  0  0  0
   44.7430   36.0260   43.4260 N   0  0  0  0  0  0  0  0  0  0  0  0
   42.0830   34.2540   40.0310 C   0  0  0  0  0  0  0  0  0  0  0  0
   41.3650   35.4160   40.0850 C   0  0  0  0  0  0  0  0  0  0  0  0
   40.0470   35.4680   40.3660 C   0  0  0  0  0  0  0  0  0  0  0  0
   39.4170   34.1510   40.6180 C   0  0  0  0  0  0  0  0  0  0  0  0
   40.8410   32.9840   40.4110 S   0  0  0  0  0  0  0  0  0  0  0  0
   45.8349   32.6579   37.7840 H   0  0  0  0  0  0  0  0  0  0  0  0
   43.2135   33.3430   37.6807 H   0  0  0  0  0  0  0  0  0  0  0  0
   44.4154   36.2527   41.3450 H   0  0  0  0  0  0  0  0  0  0  0  0
   45.0406   32.1867   42.7848 H   0  0  0  0  0  0  0  0  0  0  0  0
   45.0949   35.5251   45.4623 H   0  0  0  0  0  0  0  0  0  0  0  0
   41.8917   36.3615   39.8883 H   0  0  0  0  0  0  0  0  0  0  0  0
   39.4847   36.4126   40.4050 H   0  0  0  0  0  0  0  0  0  0  0  0
   38.3695   33.9237   40.8653 H   0  0  0  0  0  0  0  0  0  0  0  0
  1  7  1  0
  2  1  1  0
  3  2  2  0
  4  3  1  0
  4  5  2  0
  5 12  1  0
  5  1  1  0
  6 11  2  0
  7  6  1  0
  7  8  2  0
  8  9  1  0
  9 10  2  0
 11 10  1  0
 12 13  2  0
 12 16  1  0
 13 14  1  0
 14 15  2  0
 16 15  1  0
  3 17  1  0
  4 18  1  0
  6 19  1  0
  8 20  1  0
 10 21  1  0
 13 22  1  0
 14 23  1  0
 15 24  1  0
M  ISO  8  17  14  18  14  19  14  20  14  21  14  22  14  23  14  24  14
M  END
>  <minimizedAffinity>  (1) 
-4.12434101

>  <minimizedRMSD>  (1) 
2.43395162

$$$$
