
     RDKit          3D

 26 27  0  0  0  0  0  0  0  0999 V2000
   43.3410   34.3600   40.6930 N   0  0  0  0  0  0  0  0  0  0  0  0
   43.9230   33.9160   39.5840 N   0  0  0  0  0  0  0  0  0  0  0  0
   42.9700   34.0390   38.5890 C   0  0  0  0  0  0  0  0  0  0  0  0
   41.8120   34.5770   39.1940 C   0  0  0  0  0  0  0  0  0  0  0  0
   42.0680   34.7760   40.5480 C   0  0  0  0  0  0  0  0  0  0  0  0
   44.4410   35.6310   42.3910 C   0  0  0  0  0  0  0  0  0  0  0  0
   44.0620   34.3820   41.9030 C   0  0  0  0  0  0  0  0  0  0  0  0
   44.4040   33.2100   42.6140 C   0  0  0  0  0  0  0  0  0  0  0  0
   45.1140   33.3650   43.7870 N   0  0  0  0  0  0  0  0  0  0  0  0
   45.4640   34.5990   44.2320 C   0  0  0  0  0  0  0  0  0  0  0  0
   45.1350   35.7290   43.5490 N   0  0  0  0  0  0  0  0  0  0  0  0
   40.9750   35.2920   41.3820 C   0  0  0  0  0  0  0  0  0  0  0  0
   39.9780   34.1900   41.7420 C   0  0  0  0  0  0  0  0  0  0  0  0
   40.2100   36.3310   40.5820 C   0  0  0  0  0  0  0  0  0  0  0  0
   43.0906   33.7695   37.5294 H   0  0  0  0  0  0  0  0  0  0  0  0
   40.8654   34.8014   38.6805 H   0  0  0  0  0  0  0  0  0  0  0  0
   44.1751   36.5409   41.8330 H   0  0  0  0  0  0  0  0  0  0  0  0
   44.1158   32.2138   42.2472 H   0  0  0  0  0  0  0  0  0  0  0  0
   46.0296   34.6878   45.1713 H   0  0  0  0  0  0  0  0  0  0  0  0
   41.4151   35.7065   42.3009 H   0  0  0  0  0  0  0  0  0  0  0  0
   39.9027   34.1068   42.8363 H   0  0  0  0  0  0  0  0  0  0  0  0
   38.9910   34.4378   41.3244 H   0  0  0  0  0  0  0  0  0  0  0  0
   40.3230   33.2326   41.3244 H   0  0  0  0  0  0  0  0  0  0  0  0
   39.7012   37.0220   41.2702 H   0  0  0  0  0  0  0  0  0  0  0  0
   40.9105   36.8944   39.9481 H   0  0  0  0  0  0  0  0  0  0  0  0
   39.4640   35.8294   39.9481 H   0  0  0  0  0  0  0  0  0  0  0  0
  1  7  1  0
  2  1  1  0
  3  4  1  0
  3  2  2  0
  4  5  2  0
  5  1  1  0
  5 12  1  0
  6 11  2  0
  7  6  1  0
  7  8  2  0
  8  9  1  0
  9 10  2  0
 11 10  1  0
 12 13  1  0
 14 12  1  0
  3 15  1  0
  4 16  1  0
  6 17  1  0
  8 18  1  0
 10 19  1  0
 12 20  1  0
 13 21  1  0
 13 22  1  0
 13 23  1  0
 14 24  1  0
 14 25  1  0
 14 26  1  0
M  ISO  8  15  14  16  14  17  14  18  14  19  14  20   8  21   8  22   8
M  ISO  4  23   8  24   8  25   8  26   8
M  END
>  <minimizedAffinity>  (1) 
-4.11402273

>  <minimizedRMSD>  (1) 
1.33237064

$$$$
