
     RDKit          3D

 23 24  0  0  0  0  0  0  0  0999 V2000
   45.8090   34.8050   41.8330 N   0  0  0  0  0  0  0  0  0  0  0  0
   45.2610   34.2880   40.7290 N   0  0  0  0  0  0  0  0  0  0  0  0
   43.9610   34.5710   40.7250 C   0  0  0  0  0  0  0  0  0  0  0  0
   43.8060   35.2870   41.9040 C   0  0  0  0  0  0  0  0  0  0  0  0
   44.9780   35.4530   42.6380 C   0  0  0  0  0  0  0  0  0  0  0  0
   48.1000   35.5170   41.6640 C   0  0  0  0  0  0  0  0  0  0  0  0
   47.2000   34.5960   42.0980 C   0  0  0  0  0  0  0  0  0  0  0  0
   47.6360   33.4620   42.8240 C   0  0  0  0  0  0  0  0  0  0  0  0
   48.9630   33.3490   43.0560 N   0  0  0  0  0  0  0  0  0  0  0  0
   49.8240   34.2830   42.6090 C   0  0  0  0  0  0  0  0  0  0  0  0
   49.3910   35.3640   41.9140 N   0  0  0  0  0  0  0  0  0  0  0  0
   44.9800   36.1980   43.8570 C   0  0  0  0  0  0  0  0  0  0  0  0
   44.6130   35.4730   45.1240 C   0  0  0  0  0  0  0  0  0  0  0  0
   43.2006   34.3047   39.9761 H   0  0  0  0  0  0  0  0  0  0  0  0
   42.8366   35.6904   42.2319 H   0  0  0  0  0  0  0  0  0  0  0  0
   47.7533   36.3960   41.1009 H   0  0  0  0  0  0  0  0  0  0  0  0
   46.9248   32.7042   43.1844 H   0  0  0  0  0  0  0  0  0  0  0  0
   50.8990   34.1669   42.8115 H   0  0  0  0  0  0  0  0  0  0  0  0
   45.9939   36.6024   43.9925 H   0  0  0  0  0  0  0  0  0  0  0  0
   44.1840   36.9457   43.7256 H   0  0  0  0  0  0  0  0  0  0  0  0
   44.9179   36.0753   45.9925 H   0  0  0  0  0  0  0  0  0  0  0  0
   43.5251   35.3126   45.1527 H   0  0  0  0  0  0  0  0  0  0  0  0
   45.1278   34.5013   45.1527 H   0  0  0  0  0  0  0  0  0  0  0  0
  1  7  1  0
  1  5  1  0
  2  1  1  0
  3  2  2  0
  3  4  1  0
  4  5  2  0
  5 12  1  0
  6 11  2  0
  6  7  1  0
  7  8  2  0
  8  9  1  0
 10  9  2  0
 11 10  1  0
 12 13  1  0
  3 14  1  0
  4 15  1  0
  6 16  1  0
  8 17  1  0
 10 18  1  0
 12 19  1  0
 12 20  1  0
 13 21  1  0
 13 22  1  0
 13 23  1  0
M  ISO  8  14  14  15  14  16  14  17  14  18  14  19   8  20   8  21   8
M  ISO  2  22   8  23   8
M  END
>  <minimizedAffinity>  (1) 
-4.07266617

>  <minimizedRMSD>  (1) 
3.60718107

$$$$
