
     RDKit          3D

 24 26  0  0  0  0  0  0  0  0999 V2000
   40.9060   34.1910   39.2350 N   0  0  0  0  0  0  0  0  0  0  0  0
   40.1480   34.5940   38.2320 N   0  0  0  0  0  0  0  0  0  0  0  0
   40.8310   35.5900   37.5640 C   0  0  0  0  0  0  0  0  0  0  0  0
   42.0520   35.7350   38.2620 C   0  0  0  0  0  0  0  0  0  0  0  0
   42.0870   34.8260   39.3380 C   0  0  0  0  0  0  0  0  0  0  0  0
   40.3300   31.8850   39.5700 C   0  0  0  0  0  0  0  0  0  0  0  0
   40.4670   33.1730   40.1010 C   0  0  0  0  0  0  0  0  0  0  0  0
   40.1670   33.3920   41.4610 C   0  0  0  0  0  0  0  0  0  0  0  0
   39.7560   32.3260   42.1930 N   0  0  0  0  0  0  0  0  0  0  0  0
   39.6360   31.0930   41.6430 C   0  0  0  0  0  0  0  0  0  0  0  0
   39.9220   30.8710   40.3360 N   0  0  0  0  0  0  0  0  0  0  0  0
   43.1960   34.7960   40.1800 N   0  0  0  0  0  0  0  0  0  0  0  0
   44.3460   34.0550   40.1970 C   0  0  0  0  0  0  0  0  0  0  0  0
   45.1520   34.3900   41.2630 C   0  0  0  0  0  0  0  0  0  0  0  0
   44.5020   35.3570   41.9310 N   0  0  0  0  0  0  0  0  0  0  0  0
   43.3470   35.5910   41.2840 C   0  0  0  0  0  0  0  0  0  0  0  0
   40.4971   36.1507   36.6785 H   0  0  0  0  0  0  0  0  0  0  0  0
   42.8504   36.4467   38.0050 H   0  0  0  0  0  0  0  0  0  0  0  0
   40.5612   31.7066   38.5095 H   0  0  0  0  0  0  0  0  0  0  0  0
   40.2626   34.3906   41.9122 H   0  0  0  0  0  0  0  0  0  0  0  0
   39.2994   30.2544   42.2702 H   0  0  0  0  0  0  0  0  0  0  0  0
   44.5963   33.2862   39.4512 H   0  0  0  0  0  0  0  0  0  0  0  0
   46.1297   33.9539   41.5158 H   0  0  0  0  0  0  0  0  0  0  0  0
   42.6062   36.3378   41.6058 H   0  0  0  0  0  0  0  0  0  0  0  0
  1  5  1  0
  1  7  1  0
  2  1  1  0
  3  2  2  0
  3  4  1  0
  4  5  2  0
  5 12  1  0
  6  7  2  0
  6 11  1  0
  7  8  1  0
  8  9  2  0
 10  9  1  0
 11 10  2  0
 12 13  1  0
 12 16  1  0
 13 14  2  0
 14 15  1  0
 16 15  2  0
  3 17  1  0
  4 18  1  0
  6 19  1  0
  8 20  1  0
 10 21  1  0
 13 22  1  0
 14 23  1  0
 16 24  1  0
M  ISO  8  17  14  18  14  19  14  20  14  21  14  22  14  23  14  24  14
M  END
>  <minimizedAffinity>  (1) 
-4.06575537

>  <minimizedRMSD>  (1) 
5.07179689

$$$$
