
     RDKit          3D

 30 32  0  0  0  0  0  0  0  0999 V2000
   46.5730   34.5040   41.2130 N   0  0  0  0  0  0  0  0  0  0  0  0
   47.0780   35.1540   42.2540 N   0  0  0  0  0  0  0  0  0  0  0  0
   48.3860   35.4610   41.9220 C   0  0  0  0  0  0  0  0  0  0  0  0
   48.5930   34.9430   40.6230 C   0  0  0  0  0  0  0  0  0  0  0  0
   47.4110   34.3260   40.1790 C   0  0  0  0  0  0  0  0  0  0  0  0
   45.0130   32.7130   41.4790 C   0  0  0  0  0  0  0  0  0  0  0  0
   45.2380   34.0670   41.2440 C   0  0  0  0  0  0  0  0  0  0  0  0
   44.1300   34.9200   41.0550 C   0  0  0  0  0  0  0  0  0  0  0  0
   42.8720   34.3640   41.1150 N   0  0  0  0  0  0  0  0  0  0  0  0
   42.7160   33.0360   41.3500 C   0  0  0  0  0  0  0  0  0  0  0  0
   43.7770   32.2040   41.5330 N   0  0  0  0  0  0  0  0  0  0  0  0
   47.4370   33.6970   38.8800 C   0  0  0  0  0  0  0  0  0  0  0  0
   48.2880   34.4220   37.8610 C   0  0  0  0  0  0  0  0  0  0  0  0
   48.4900   33.3390   36.7900 C   0  0  0  0  0  0  0  0  0  0  0  0
   48.0490   32.0430   37.4010 C   0  0  0  0  0  0  0  0  0  0  0  0
   48.1920   32.3530   38.8840 C   0  0  0  0  0  0  0  0  0  0  0  0
   49.1169   35.9993   42.5433 H   0  0  0  0  0  0  0  0  0  0  0  0
   49.5300   35.0119   40.0509 H   0  0  0  0  0  0  0  0  0  0  0  0
   45.8743   32.0443   41.6241 H   0  0  0  0  0  0  0  0  0  0  0  0
   44.2670   35.9949   40.8658 H   0  0  0  0  0  0  0  0  0  0  0  0
   41.6990   32.6191   41.3939 H   0  0  0  0  0  0  0  0  0  0  0  0
   46.3639   33.6522   38.6426 H   0  0  0  0  0  0  0  0  0  0  0  0
   47.7628   35.2973   37.4510 H   0  0  0  0  0  0  0  0  0  0  0  0
   49.2268   34.8234   38.2703 H   0  0  0  0  0  0  0  0  0  0  0  0
   49.5505   33.2819   36.5036 H   0  0  0  0  0  0  0  0  0  0  0  0
   47.9113   33.5664   35.8826 H   0  0  0  0  0  0  0  0  0  0  0  0
   47.0077   31.8064   37.1370 H   0  0  0  0  0  0  0  0  0  0  0  0
   48.6227   31.1666   37.0651 H   0  0  0  0  0  0  0  0  0  0  0  0
   49.2429   32.4636   39.1896 H   0  0  0  0  0  0  0  0  0  0  0  0
   47.8216   31.5869   39.5810 H   0  0  0  0  0  0  0  0  0  0  0  0
  1  7  1  0
  1  2  1  0
  3  2  2  0
  4  3  1  0
  5  4  2  0
  5  1  1  0
  6 11  2  0
  7  6  1  0
  8  9  1  0
  8  7  2  0
  9 10  2  0
 10 11  1  0
 12 16  1  0
 12  5  1  0
 13 12  1  0
 14 15  1  0
 14 13  1  0
 15 16  1  0
  3 17  1  0
  4 18  1  0
  6 19  1  0
  8 20  1  0
 10 21  1  0
 12 22  1  0
 13 23  1  0
 13 24  1  0
 14 25  1  0
 14 26  1  0
 15 27  1  0
 15 28  1  0
 16 29  1  0
 16 30  1  0
M  ISO  8  17  14  18  14  19  14  20  14  21  14  22  13  23  13  24  13
M  ISO  6  25  13  26  13  27  13  28  13  29  13  30  13
M  END
>  <minimizedAffinity>  (1) 
-4.05302429

>  <minimizedRMSD>  (1) 
6.35101795

$$$$
