
     RDKit          3D

 24 26  0  0  0  0  0  0  0  0999 V2000
   43.4960   34.1230   40.4900 N   0  0  0  0  0  0  0  0  0  0  0  0
   44.2270   33.6910   39.4790 N   0  0  0  0  0  0  0  0  0  0  0  0
   43.4190   33.5470   38.3820 C   0  0  0  0  0  0  0  0  0  0  0  0
   42.1380   33.9330   38.8310 C   0  0  0  0  0  0  0  0  0  0  0  0
   42.1980   34.3020   40.1910 C   0  0  0  0  0  0  0  0  0  0  0  0
   44.2580   35.7110   42.1160 C   0  0  0  0  0  0  0  0  0  0  0  0
   44.0710   34.3640   41.7520 C   0  0  0  0  0  0  0  0  0  0  0  0
   44.4420   33.3270   42.6290 C   0  0  0  0  0  0  0  0  0  0  0  0
   44.9830   33.7040   43.8340 N   0  0  0  0  0  0  0  0  0  0  0  0
   45.1440   35.0130   44.1460 C   0  0  0  0  0  0  0  0  0  0  0  0
   44.7920   36.0210   43.3080 N   0  0  0  0  0  0  0  0  0  0  0  0
   41.0030   34.7370   40.9510 C   0  0  0  0  0  0  0  0  0  0  0  0
   39.7760   35.2260   40.3080 C   0  0  0  0  0  0  0  0  0  0  0  0
   40.6790   36.2380   40.9330 C   0  0  0  0  0  0  0  0  0  0  0  0
   43.7049   33.2065   37.3759 H   0  0  0  0  0  0  0  0  0  0  0  0
   41.2284   33.9444   38.2126 H   0  0  0  0  0  0  0  0  0  0  0  0
   43.9656   36.5122   41.4213 H   0  0  0  0  0  0  0  0  0  0  0  0
   44.3055   32.2685   42.3627 H   0  0  0  0  0  0  0  0  0  0  0  0
   45.5797   35.2702   45.1227 H   0  0  0  0  0  0  0  0  0  0  0  0
   41.1886   33.9496   41.6964 H   0  0  0  0  0  0  0  0  0  0  0  0
   38.7997   35.0120   40.7674 H   0  0  0  0  0  0  0  0  0  0  0  0
   39.3409   35.1077   39.3046 H   0  0  0  0  0  0  0  0  0  0  0  0
   41.2636   36.9249   40.3034 H   0  0  0  0  0  0  0  0  0  0  0  0
   40.5729   37.0317   41.6871 H   0  0  0  0  0  0  0  0  0  0  0  0
  1  7  1  0
  2  1  1  0
  3  4  1  0
  3  2  2  0
  4  5  2  0
  5  1  1  0
  5 12  1  0
  6 11  2  0
  7  6  1  0
  7  8  2  0
  8  9  1  0
  9 10  2  0
 11 10  1  0
 13 14  1  0
 13 12  1  0
 14 12  1  0
  3 15  1  0
  4 16  1  0
  6 17  1  0
  8 18  1  0
 10 19  1  0
 12 20  1  0
 13 21  1  0
 13 22  1  0
 14 23  1  0
 14 24  1  0
M  ISO  8  15  14  16  14  17  14  18  14  19  14  20  13  21  13  22  13
M  ISO  2  23  13  24  13
M  END
>  <minimizedAffinity>  (1) 
-3.97102904

>  <minimizedRMSD>  (1) 
1.49364126

$$$$
