
     RDKit          3D

 12 12  0  0  0  0  0  0  0  0999 V2000
   44.6630   36.0540   44.2860 C   0  0  0  0  0  0  0  0  0  0  0  0
   45.4910   35.5350   43.2670 C   0  0  0  0  0  0  0  0  0  0  0  0
   46.2020   34.3510   43.5110 C   0  0  0  0  0  0  0  0  0  0  0  0
   46.0510   33.7680   44.7280 N   0  0  0  0  0  0  0  0  0  0  0  0
   45.2550   34.2880   45.6780 C   0  0  0  0  0  0  0  0  0  0  0  0
   44.5600   35.4190   45.4780 N   0  0  0  0  0  0  0  0  0  0  0  0
   45.1570   33.6220   46.9040 N   0  0  0  0  0  0  0  0  0  0  0  0
   44.0973   36.9810   44.1106 H   0  0  0  0  0  0  0  0  0  0  0  0
   45.5769   36.0501   42.2989 H   0  0  0  0  0  0  0  0  0  0  0  0
   46.8575   33.9110   42.7450 H   0  0  0  0  0  0  0  0  0  0  0  0
   44.5538   33.9998   47.6485 H   0  0  0  0  0  0  0  0  0  0  0  0
   45.6880   32.7537   47.0623 H   0  0  0  0  0  0  0  0  0  0  0  0
  1  6  2  0
  2  3  2  0
  2  1  1  0
  3  4  1  0
  4  5  2  0
  5  7  1  0
  6  5  1  0
  1  8  1  0
  2  9  1  0
  3 10  1  0
  7 11  1  0
  7 12  1  0
M  ISO  3   8  14   9  14  10  14
M  END
>  <minimizedAffinity>  (1) 
-3.32426786

>  <minimizedRMSD>  (1) 
0.325221688

$$$$
