
     RDKit          3D

 19 20  0  0  0  0  0  0  0  0999 V2000
   43.1290   34.6970   40.7440 N   0  0  0  0  0  0  0  0  0  0  0  0
   43.4820   34.1770   39.5830 N   0  0  0  0  0  0  0  0  0  0  0  0
   42.5160   34.4650   38.6530 C   0  0  0  0  0  0  0  0  0  0  0  0
   41.5530   35.2070   39.3660 C   0  0  0  0  0  0  0  0  0  0  0  0
   41.9560   35.3500   40.7070 C   0  0  0  0  0  0  0  0  0  0  0  0
   44.4900   35.7040   42.4280 C   0  0  0  0  0  0  0  0  0  0  0  0
   43.9450   34.5500   41.8790 C   0  0  0  0  0  0  0  0  0  0  0  0
   44.2250   33.3050   42.4700 C   0  0  0  0  0  0  0  0  0  0  0  0
   45.0350   33.2980   43.5770 N   0  0  0  0  0  0  0  0  0  0  0  0
   45.5420   34.4490   44.0750 C   0  0  0  0  0  0  0  0  0  0  0  0
   45.2790   35.6540   43.5140 N   0  0  0  0  0  0  0  0  0  0  0  0
   41.2040   36.0390   41.6840 N   0  0  0  0  0  0  0  0  0  0  0  0
   42.4971   34.1810   37.5905 H   0  0  0  0  0  0  0  0  0  0  0  0
   40.6248   35.6137   38.9382 H   0  0  0  0  0  0  0  0  0  0  0  0
   44.2712   36.6773   41.9645 H   0  0  0  0  0  0  0  0  0  0  0  0
   43.8102   32.3723   42.0601 H   0  0  0  0  0  0  0  0  0  0  0  0
   46.1885   34.4053   44.9639 H   0  0  0  0  0  0  0  0  0  0  0  0
   41.5549   36.1081   42.6499 H   0  0  0  0  0  0  0  0  0  0  0  0
   40.3046   36.4724   41.4306 H   0  0  0  0  0  0  0  0  0  0  0  0
  1  7  1  0
  2  1  1  0
  3  4  1  0
  3  2  2  0
  4  5  2  0
  5  1  1  0
  5 12  1  0
  6 11  2  0
  7  6  1  0
  7  8  2  0
  8  9  1  0
  9 10  2  0
 11 10  1  0
  3 13  1  0
  4 14  1  0
  6 15  1  0
  8 16  1  0
 10 17  1  0
 12 18  1  0
 12 19  1  0
M  ISO  5  13  14  14  14  15  14  16  14  17  14
M  END
>  <minimizedAffinity>  (1) 
-3.55550742

>  <minimizedRMSD>  (1) 
1.25947571

$$$$
