
     RDKit          3D

 27 29  0  0  0  0  0  0  0  0999 V2000
   42.2860   35.1530   40.4280 C   0  0  0  0  0  0  0  0  0  0  0  0
   41.9630   34.0660   39.6100 C   0  0  0  0  0  0  0  0  0  0  0  0
   42.9660   33.1330   39.3100 C   0  0  0  0  0  0  0  0  0  0  0  0
   44.2290   33.3320   39.8380 N   0  0  0  0  0  0  0  0  0  0  0  0
   44.4790   34.4010   40.6200 C   0  0  0  0  0  0  0  0  0  0  0  0
   43.5300   35.3160   40.9250 N   0  0  0  0  0  0  0  0  0  0  0  0
   40.6510   33.9840   39.1440 N   0  0  0  0  0  0  0  0  0  0  0  0
   40.3310   34.5090   37.9710 N   0  0  0  0  0  0  0  0  0  0  0  0
   38.9890   34.2830   37.7710 C   0  0  0  0  0  0  0  0  0  0  0  0
   38.5520   33.5840   38.9210 C   0  0  0  0  0  0  0  0  0  0  0  0
   39.6380   33.4010   39.7970 C   0  0  0  0  0  0  0  0  0  0  0  0
   39.4130   32.6880   41.0750 C   0  0  0  0  0  0  0  0  0  0  0  0
   40.0660   31.4430   41.1150 F   0  0  0  0  0  0  0  0  0  0  0  0
   38.0550   32.2840   41.1690 F   0  0  0  0  0  0  0  0  0  0  0  0
   39.5860   33.4300   42.2020 F   0  0  0  0  0  0  0  0  0  0  0  0
   45.8250   34.5800   41.1600 C   0  0  0  0  0  0  0  0  0  0  0  0
   46.1630   34.9160   42.4540 C   0  0  0  0  0  0  0  0  0  0  0  0
   47.5170   34.9780   42.5330 N   0  0  0  0  0  0  0  0  0  0  0  0
   48.0130   34.6820   41.2960 C   0  0  0  0  0  0  0  0  0  0  0  0
   46.9810   34.4460   40.4860 N   0  0  0  0  0  0  0  0  0  0  0  0
   41.5085   35.8920   40.6719 H   0  0  0  0  0  0  0  0  0  0  0  0
   42.7535   32.2638   38.6702 H   0  0  0  0  0  0  0  0  0  0  0  0
   38.3843   34.5820   36.9021 H   0  0  0  0  0  0  0  0  0  0  0  0
   37.5238   33.2377   39.1020 H   0  0  0  0  0  0  0  0  0  0  0  0
   45.4586   35.1014   43.2783 H   0  0  0  0  0  0  0  0  0  0  0  0
   49.0764   34.6448   41.0170 H   0  0  0  0  0  0  0  0  0  0  0  0
   47.0577   34.1973   39.4894 H   0  0  0  0  0  0  0  0  0  0  0  0
  1  6  2  0
  2  1  1  0
  3  2  2  0
  3  4  1  0
  4  5  2  0
  5  6  1  0
  5 16  1  0
  7  2  1  0
  7 11  1  0
  8  7  1  0
  9  8  2  0
  9 10  1  0
 10 11  2  0
 11 12  1  0
 12 13  1  0
 12 14  1  0
 12 15  1  0
 16 17  2  0
 17 18  1  0
 19 18  2  0
 20 16  1  0
 20 19  1  0
  1 21  1  0
  3 22  1  0
  9 23  1  0
 10 24  1  0
 17 25  1  0
 19 26  1  0
 20 27  1  0
M  ISO  7  21  14  22  14  23  14  24  14  25  14  26  14  27   9
M  END
>  <minimizedAffinity>  (1) 
-5.17088079

>  <minimizedRMSD>  (1) 
3.41773915

$$$$
