
     RDKit          3D

 23 24  0  0  0  0  0  0  0  0999 V2000
   42.7710   35.1540   40.4170 C   0  0  0  0  0  0  0  0  0  0  0  0
   42.5450   33.7860   40.4790 C   0  0  0  0  0  0  0  0  0  0  0  0
   43.2030   33.0340   41.4690 C   0  0  0  0  0  0  0  0  0  0  0  0
   44.0450   33.7040   42.3300 N   0  0  0  0  0  0  0  0  0  0  0  0
   44.2240   35.0380   42.2220 C   0  0  0  0  0  0  0  0  0  0  0  0
   43.5990   35.7750   41.2760 N   0  0  0  0  0  0  0  0  0  0  0  0
   41.6640   33.2360   39.5380 N   0  0  0  0  0  0  0  0  0  0  0  0
   42.1270   32.4480   38.5770 N   0  0  0  0  0  0  0  0  0  0  0  0
   41.0540   32.0590   37.8080 C   0  0  0  0  0  0  0  0  0  0  0  0
   39.9340   32.6810   38.4000 C   0  0  0  0  0  0  0  0  0  0  0  0
   40.3370   33.4370   39.5130 C   0  0  0  0  0  0  0  0  0  0  0  0
   39.3210   34.1810   40.2920 C   0  0  0  0  0  0  0  0  0  0  0  0
   39.3790   33.8770   41.6630 F   0  0  0  0  0  0  0  0  0  0  0  0
   38.0240   33.6990   39.9720 F   0  0  0  0  0  0  0  0  0  0  0  0
   39.2330   35.5080   40.0350 F   0  0  0  0  0  0  0  0  0  0  0  0
   45.1320   35.6790   43.1700 C   0  0  0  0  0  0  0  0  0  0  0  0
   46.2590   35.1570   43.3730 O   0  0  0  0  0  0  0  0  0  0  0  0
   44.8250   36.8260   43.8610 O   0  0  0  0  0  0  0  0  0  0  0  0
   42.2591   35.7464   39.6444 H   0  0  0  0  0  0  0  0  0  0  0  0
   43.0506   31.9479   41.5531 H   0  0  0  0  0  0  0  0  0  0  0  0
   41.0666   31.4050   36.9236 H   0  0  0  0  0  0  0  0  0  0  0  0
   38.8980   32.5875   38.0424 H   0  0  0  0  0  0  0  0  0  0  0  0
   45.4819   37.2149   44.4913 H   0  0  0  0  0  0  0  0  0  0  0  0
  1  2  2  0
  1  6  1  0
  2  3  1  0
  3  4  2  0
  5  4  1  0
  5 16  1  0
  6  5  2  0
  7  2  1  0
  8  7  1  0
  9 10  1  0
  9  8  2  0
 10 11  2  0
 11  7  1  0
 11 12  1  0
 12 13  1  0
 14 12  1  0
 15 12  1  0
 16 17  2  0
 16 18  1  0
  1 19  1  0
  3 20  1  0
  9 21  1  0
 10 22  1  0
 18 23  1  0
M  ISO  5  19  14  20  14  21  14  22  14  23   3
M  END
>  <minimizedAffinity>  (1) 
-5.03980112

>  <minimizedRMSD>  (1) 
1.88597381

$$$$
