
     RDKit          3D

 23 24  0  0  0  0  0  0  0  0999 V2000
   43.7480   35.7490   41.6340 C   0  0  0  0  0  0  0  0  0  0  0  0
   43.2330   34.6670   40.9260 C   0  0  0  0  0  0  0  0  0  0  0  0
   43.4720   33.3660   41.3950 C   0  0  0  0  0  0  0  0  0  0  0  0
   44.2130   33.2210   42.5440 N   0  0  0  0  0  0  0  0  0  0  0  0
   44.6920   34.3060   43.1960 C   0  0  0  0  0  0  0  0  0  0  0  0
   44.4690   35.5700   42.7550 N   0  0  0  0  0  0  0  0  0  0  0  0
   42.4950   34.9620   39.7710 N   0  0  0  0  0  0  0  0  0  0  0  0
   43.0700   34.8540   38.5750 N   0  0  0  0  0  0  0  0  0  0  0  0
   42.1280   35.2000   37.6330 C   0  0  0  0  0  0  0  0  0  0  0  0
   40.9680   35.5160   38.3620 C   0  0  0  0  0  0  0  0  0  0  0  0
   41.2170   35.3590   39.7410 C   0  0  0  0  0  0  0  0  0  0  0  0
   40.1340   35.6370   40.7110 C   0  0  0  0  0  0  0  0  0  0  0  0
   40.1740   34.7670   41.8170 F   0  0  0  0  0  0  0  0  0  0  0  0
   38.8810   35.2770   40.1390 F   0  0  0  0  0  0  0  0  0  0  0  0
   39.9680   36.9390   41.0520 F   0  0  0  0  0  0  0  0  0  0  0  0
   45.5000   34.1070   44.4510 C   0  0  0  0  0  0  0  0  0  0  0  0
   46.8560   34.2780   44.1410 F   0  0  0  0  0  0  0  0  0  0  0  0
   45.1260   34.9450   45.4600 F   0  0  0  0  0  0  0  0  0  0  0  0
   45.3700   32.8150   44.8880 F   0  0  0  0  0  0  0  0  0  0  0  0
   43.5617   36.7701   41.2697 H   0  0  0  0  0  0  0  0  0  0  0  0
   43.0786   32.4892   40.8598 H   0  0  0  0  0  0  0  0  0  0  0  0
   42.2557   35.2242   36.5407 H   0  0  0  0  0  0  0  0  0  0  0  0
   40.0117   35.8369   37.9233 H   0  0  0  0  0  0  0  0  0  0  0  0
  1  6  2  0
  2  3  2  0
  2  1  1  0
  3  4  1  0
  4  5  2  0
  5 16  1  0
  6  5  1  0
  7  2  1  0
  8  7  1  0
  9 10  1  0
  9  8  2  0
 10 11  2  0
 11  7  1  0
 11 12  1  0
 12 15  1  0
 12 13  1  0
 14 12  1  0
 16 19  1  0
 16 18  1  0
 17 16  1  0
  1 20  1  0
  3 21  1  0
  9 22  1  0
 10 23  1  0
M  ISO  4  20  14  21  14  22  14  23  14
M  END
>  <minimizedAffinity>  (1) 
-4.98682451

>  <minimizedRMSD>  (1) 
1.13416755

$$$$
