
     RDKit          3D

 22 23  0  0  0  0  0  0  0  0999 V2000
   41.7190   33.2820   39.6170 N   0  0  0  0  0  0  0  0  0  0  0  0
   42.1700   32.5030   38.6360 N   0  0  0  0  0  0  0  0  0  0  0  0
   41.0840   32.1280   37.8820 C   0  0  0  0  0  0  0  0  0  0  0  0
   39.9750   32.7440   38.4950 C   0  0  0  0  0  0  0  0  0  0  0  0
   40.3930   33.4840   39.6100 C   0  0  0  0  0  0  0  0  0  0  0  0
   42.8640   35.1800   40.4810 C   0  0  0  0  0  0  0  0  0  0  0  0
   42.6180   33.8130   40.5470 C   0  0  0  0  0  0  0  0  0  0  0  0
   43.2810   33.0650   41.5320 C   0  0  0  0  0  0  0  0  0  0  0  0
   44.1370   33.7120   42.3790 N   0  0  0  0  0  0  0  0  0  0  0  0
   44.3380   35.0520   42.2670 C   0  0  0  0  0  0  0  0  0  0  0  0
   43.7070   35.7880   41.3230 N   0  0  0  0  0  0  0  0  0  0  0  0
   45.2520   35.7420   43.1720 C   0  0  0  0  0  0  0  0  0  0  0  0
   45.2240   36.9820   43.3560 O   0  0  0  0  0  0  0  0  0  0  0  0
   39.3900   34.2200   40.4140 C   0  0  0  0  0  0  0  0  0  0  0  0
   39.4690   33.9050   41.7800 F   0  0  0  0  0  0  0  0  0  0  0  0
   38.0900   33.7470   40.0980 F   0  0  0  0  0  0  0  0  0  0  0  0
   39.3090   35.5550   40.1710 F   0  0  0  0  0  0  0  0  0  0  0  0
   41.0812   31.4842   36.9901 H   0  0  0  0  0  0  0  0  0  0  0  0
   38.9343   32.6571   38.1496 H   0  0  0  0  0  0  0  0  0  0  0  0
   42.3505   35.7787   39.7142 H   0  0  0  0  0  0  0  0  0  0  0  0
   43.1154   31.9812   41.6207 H   0  0  0  0  0  0  0  0  0  0  0  0
   45.9994   35.1471   43.7174 H   0  0  0  0  0  0  0  0  0  0  0  0
  1  7  1  0
  2  1  1  0
  3  4  1  0
  3  2  2  0
  4  5  2  0
  5  1  1  0
  5 14  1  0
  6  7  2  0
  6 11  1  0
  7  8  1  0
  8  9  2  0
 10  9  1  0
 10 12  1  0
 11 10  2  0
 12 13  2  0
 14 15  1  0
 16 14  1  0
 17 14  1  0
  3 18  1  0
  4 19  1  0
  6 20  1  0
  8 21  1  0
 12 22  1  0
M  ISO  5  18  14  19  14  20  14  21  14  22   6
M  END
>  <minimizedAffinity>  (1) 
-4.57876015

>  <minimizedRMSD>  (1) 
1.77994907

$$$$
