
     RDKit          3D

 21 22  0  0  0  0  0  0  0  0999 V2000
   41.6190   33.2110   39.4920 N   0  0  0  0  0  0  0  0  0  0  0  0
   42.0700   32.4200   38.5270 N   0  0  0  0  0  0  0  0  0  0  0  0
   40.9870   32.0440   37.7700 C   0  0  0  0  0  0  0  0  0  0  0  0
   39.8770   32.6760   38.3710 C   0  0  0  0  0  0  0  0  0  0  0  0
   40.2990   33.4280   39.4830 C   0  0  0  0  0  0  0  0  0  0  0  0
   42.7860   35.1080   40.3540 C   0  0  0  0  0  0  0  0  0  0  0  0
   42.5170   33.7490   40.4250 C   0  0  0  0  0  0  0  0  0  0  0  0
   43.1590   32.9990   41.4260 C   0  0  0  0  0  0  0  0  0  0  0  0
   44.0190   33.6350   42.2850 N   0  0  0  0  0  0  0  0  0  0  0  0
   44.2380   34.9750   42.1570 C   0  0  0  0  0  0  0  0  0  0  0  0
   43.6300   35.7140   41.2000 N   0  0  0  0  0  0  0  0  0  0  0  0
   45.3470   35.8590   43.2450 S   0  0  0  0  0  0  0  0  0  0  0  0
   39.3020   34.1840   40.2770 C   0  0  0  0  0  0  0  0  0  0  0  0
   39.3450   33.8490   41.6330 F   0  0  0  0  0  0  0  0  0  0  0  0
   37.9900   33.7300   39.9420 F   0  0  0  0  0  0  0  0  0  0  0  0
   39.2530   35.5220   40.0360 F   0  0  0  0  0  0  0  0  0  0  0  0
   40.9852   31.3905   36.8852 H   0  0  0  0  0  0  0  0  0  0  0  0
   38.8371   32.5930   38.0221 H   0  0  0  0  0  0  0  0  0  0  0  0
   42.2898   35.7082   39.5772 H   0  0  0  0  0  0  0  0  0  0  0  0
   42.9745   31.9186   41.5190 H   0  0  0  0  0  0  0  0  0  0  0  0
   45.0155   35.5948   44.5478 H   0  0  0  0  0  0  0  0  0  0  0  0
  1  7  1  0
  2  1  1  0
  3  4  1  0
  3  2  2  0
  4  5  2  0
  5  1  1  0
  5 13  1  0
  6  7  2  0
  6 11  1  0
  7  8  1  0
  8  9  2  0
 10  9  1  0
 10 12  1  0
 11 10  2  0
 13 14  1  0
 15 13  1  0
 16 13  1  0
  3 17  1  0
  4 18  1  0
  6 19  1  0
  8 20  1  0
 12 21  1  0
M  ISO  5  17  14  18  14  19  14  20  14  21  11
M  END
>  <minimizedAffinity>  (1) 
-4.40198135

>  <minimizedRMSD>  (1) 
1.88598406

$$$$
