
     RDKit          3D

 26 28  0  0  0  0  0  0  0  0999 V2000
   40.8600   32.7440   39.3500 C   0  0  0  0  0  0  0  0  0  0  0  0
   40.6780   31.4570   39.8430 C   0  0  0  0  0  0  0  0  0  0  0  0
   41.4850   31.0150   40.9040 C   0  0  0  0  0  0  0  0  0  0  0  0
   42.4230   31.8980   41.4030 N   0  0  0  0  0  0  0  0  0  0  0  0
   42.5630   33.1390   40.8920 C   0  0  0  0  0  0  0  0  0  0  0  0
   41.7830   33.5740   39.8610 N   0  0  0  0  0  0  0  0  0  0  0  0
   43.5410   34.0240   41.4310 N   0  0  0  0  0  0  0  0  0  0  0  0
   43.2480   35.2350   41.9380 C   0  0  0  0  0  0  0  0  0  0  0  0
   44.3600   35.8510   42.3750 N   0  0  0  0  0  0  0  0  0  0  0  0
   45.3710   35.0000   42.1320 C   0  0  0  0  0  0  0  0  0  0  0  0
   44.8530   33.8810   41.5510 N   0  0  0  0  0  0  0  0  0  0  0  0
   39.6820   30.6710   39.2320 N   0  0  0  0  0  0  0  0  0  0  0  0
   39.8800   30.1990   38.0150 N   0  0  0  0  0  0  0  0  0  0  0  0
   38.7550   29.4730   37.6720 C   0  0  0  0  0  0  0  0  0  0  0  0
   37.8990   29.5690   38.7930 C   0  0  0  0  0  0  0  0  0  0  0  0
   38.5130   30.3440   39.7860 C   0  0  0  0  0  0  0  0  0  0  0  0
   37.7970   30.5840   41.0640 C   0  0  0  0  0  0  0  0  0  0  0  0
   38.2970   29.8040   42.1160 F   0  0  0  0  0  0  0  0  0  0  0  0
   36.4710   30.0840   40.9700 F   0  0  0  0  0  0  0  0  0  0  0  0
   37.6060   31.8850   41.3970 F   0  0  0  0  0  0  0  0  0  0  0  0
   40.2301   33.0919   38.5180 H   0  0  0  0  0  0  0  0  0  0  0  0
   41.3744   30.0036   41.3221 H   0  0  0  0  0  0  0  0  0  0  0  0
   42.2359   35.6631   41.9882 H   0  0  0  0  0  0  0  0  0  0  0  0
   46.4322   35.1758   42.3620 H   0  0  0  0  0  0  0  0  0  0  0  0
   38.5665   28.9365   36.7304 H   0  0  0  0  0  0  0  0  0  0  0  0
   36.9042   29.1066   38.8734 H   0  0  0  0  0  0  0  0  0  0  0  0
  1  2  2  0
  1  6  1  0
  2  3  1  0
  3  4  2  0
  5  4  1  0
  5  7  1  0
  6  5  2  0
  7 11  1  0
  7  8  1  0
  8  9  2  0
 10  9  1  0
 11 10  2  0
 12 16  1  0
 12  2  1  0
 13 12  1  0
 14 13  2  0
 14 15  1  0
 15 16  2  0
 16 17  1  0
 17 20  1  0
 17 18  1  0
 19 17  1  0
  1 21  1  0
  3 22  1  0
  8 23  1  0
 10 24  1  0
 14 25  1  0
 15 26  1  0
M  ISO  6  21  14  22  14  23  14  24  14  25  14  26  14
M  END
>  <minimizedAffinity>  (1) 
-4.11118269

>  <minimizedRMSD>  (1) 
4.93421173

$$$$
