
     RDKit          3D

 39 41  0  0  0  0  0  0  0  0999 V2000
   42.8080   35.2420   40.5520 C   0  0  0  0  0  0  0  0  0  0  0  0
   42.6270   33.8680   40.3730 C   0  0  0  0  0  0  0  0  0  0  0  0
   43.4360   32.9840   41.0940 C   0  0  0  0  0  0  0  0  0  0  0  0
   44.3670   33.5040   41.9420 N   0  0  0  0  0  0  0  0  0  0  0  0
   44.5050   34.8410   42.0820 C   0  0  0  0  0  0  0  0  0  0  0  0
   43.7300   35.7220   41.3920 N   0  0  0  0  0  0  0  0  0  0  0  0
   41.6310   33.4640   39.4680 N   0  0  0  0  0  0  0  0  0  0  0  0
   41.9480   32.7100   38.4320 N   0  0  0  0  0  0  0  0  0  0  0  0
   40.7930   32.4710   37.7280 C   0  0  0  0  0  0  0  0  0  0  0  0
   39.7830   33.1440   38.4360 C   0  0  0  0  0  0  0  0  0  0  0  0
   40.3290   33.7810   39.5540 C   0  0  0  0  0  0  0  0  0  0  0  0
   39.4500   34.5620   40.4610 C   0  0  0  0  0  0  0  0  0  0  0  0
   39.5190   34.1140   41.7860 F   0  0  0  0  0  0  0  0  0  0  0  0
   38.0890   34.2740   40.1660 F   0  0  0  0  0  0  0  0  0  0  0  0
   39.5090   35.9130   40.3270 F   0  0  0  0  0  0  0  0  0  0  0  0
   45.5630   35.2810   43.0420 C   0  0  0  0  0  0  0  0  0  0  0  0
   45.0940   34.8970   44.4360 C   0  0  0  0  0  0  0  0  0  0  0  0
   45.5060   33.5590   44.7940 N   0  0  0  0  0  0  0  0  0  0  0  0
   45.5210   33.5380   46.2630 C   0  0  0  0  0  0  0  0  0  0  0  0
   46.7130   32.8300   46.8220 C   0  0  0  0  0  0  0  0  0  0  0  0
   46.8670   31.6280   46.1350 O   0  0  0  0  0  0  0  0  0  0  0  0
   47.3130   31.9410   44.8550 C   0  0  0  0  0  0  0  0  0  0  0  0
   46.8790   33.2960   44.3980 C   0  0  0  0  0  0  0  0  0  0  0  0
   42.1769   35.9449   39.9884 H   0  0  0  0  0  0  0  0  0  0  0  0
   43.3235   31.8958   40.9793 H   0  0  0  0  0  0  0  0  0  0  0  0
   40.6824   31.8795   36.8072 H   0  0  0  0  0  0  0  0  0  0  0  0
   38.7204   33.1663   38.1525 H   0  0  0  0  0  0  0  0  0  0  0  0
   46.5134   34.7771   42.8121 H   0  0  0  0  0  0  0  0  0  0  0  0
   45.7275   36.3663   42.9708 H   0  0  0  0  0  0  0  0  0  0  0  0
   45.5187   35.6060   45.1619 H   0  0  0  0  0  0  0  0  0  0  0  0
   43.9945   34.9293   44.4465 H   0  0  0  0  0  0  0  0  0  0  0  0
   45.5253   34.5753   46.6289 H   0  0  0  0  0  0  0  0  0  0  0  0
   44.6262   32.9909   46.5947 H   0  0  0  0  0  0  0  0  0  0  0  0
   47.6109   33.4517   46.6906 H   0  0  0  0  0  0  0  0  0  0  0  0
   46.5721   32.6385   47.8960 H   0  0  0  0  0  0  0  0  0  0  0  0
   48.4124   31.9049   44.8488 H   0  0  0  0  0  0  0  0  0  0  0  0
   46.8729   31.2057   44.1654 H   0  0  0  0  0  0  0  0  0  0  0  0
   46.9544   33.3482   43.3018 H   0  0  0  0  0  0  0  0  0  0  0  0
   47.5307   34.0504   44.8631 H   0  0  0  0  0  0  0  0  0  0  0  0
  1  6  2  0
  2  1  1  0
  2  3  2  0
  3  4  1  0
  4  5  2  0
  5 16  1  0
  6  5  1  0
  7 11  1  0
  7  2  1  0
  8  7  1  0
  9  8  2  0
  9 10  1  0
 10 11  2  0
 11 12  1  0
 12 13  1  0
 14 12  1  0
 15 12  1  0
 16 17  1  0
 17 18  1  0
 18 19  1  0
 19 20  1  0
 21 20  1  0
 22 21  1  0
 23 18  1  0
 23 22  1  0
  1 24  1  0
  3 25  1  0
  9 26  1  0
 10 27  1  0
 16 28  1  0
 16 29  1  0
 17 30  1  0
 17 31  1  0
 19 32  1  0
 19 33  1  0
 20 34  1  0
 20 35  1  0
 22 36  1  0
 22 37  1  0
 23 38  1  0
 23 39  1  0
M  ISO  8  24  14  25  14  26  14  27  14  28   8  29   8  30   8  31   8
M  ISO  8  32  13  33  13  34  13  35  13  36  13  37  13  38  13  39  13
M  END
>  <minimizedAffinity>  (1) 
-5.44936657

>  <minimizedRMSD>  (1) 
1.25786674

$$$$
