
     RDKit          3D

 27 28  0  0  0  0  0  0  0  0999 V2000
   43.0140   35.1280   40.4200 C   0  0  0  0  0  0  0  0  0  0  0  0
   42.6540   33.7700   40.5080 C   0  0  0  0  0  0  0  0  0  0  0  0
   43.2560   32.9900   41.4910 C   0  0  0  0  0  0  0  0  0  0  0  0
   44.1720   33.5700   42.3330 N   0  0  0  0  0  0  0  0  0  0  0  0
   44.4830   34.8980   42.1990 C   0  0  0  0  0  0  0  0  0  0  0  0
   43.9070   35.6840   41.2450 N   0  0  0  0  0  0  0  0  0  0  0  0
   41.7060   33.3030   39.5880 N   0  0  0  0  0  0  0  0  0  0  0  0
   42.0820   32.5100   38.5970 N   0  0  0  0  0  0  0  0  0  0  0  0
   40.9630   32.2110   37.8620 C   0  0  0  0  0  0  0  0  0  0  0  0
   39.9120   32.8900   38.5020 C   0  0  0  0  0  0  0  0  0  0  0  0
   40.3970   33.5890   39.6110 C   0  0  0  0  0  0  0  0  0  0  0  0
   39.4600   34.3830   40.4430 C   0  0  0  0  0  0  0  0  0  0  0  0
   39.5240   34.0300   41.8000 F   0  0  0  0  0  0  0  0  0  0  0  0
   38.1160   34.0010   40.1530 F   0  0  0  0  0  0  0  0  0  0  0  0
   39.4610   35.7270   40.2270 F   0  0  0  0  0  0  0  0  0  0  0  0
   45.4870   35.4060   43.1690 C   0  0  0  0  0  0  0  0  0  0  0  0
   44.7160   35.9250   44.3770 C   0  0  0  0  0  0  0  0  0  0  0  0
   43.3580   35.7960   44.2240 O   0  0  0  0  0  0  0  0  0  0  0  0
   42.5446   35.7530   39.6460 H   0  0  0  0  0  0  0  0  0  0  0  0
   43.0016   31.9246   41.5917 H   0  0  0  0  0  0  0  0  0  0  0  0
   40.9016   31.5768   36.9654 H   0  0  0  0  0  0  0  0  0  0  0  0
   38.8611   32.8737   38.1775 H   0  0  0  0  0  0  0  0  0  0  0  0
   46.1634   34.5936   43.4730 H   0  0  0  0  0  0  0  0  0  0  0  0
   46.0978   36.2035   42.7207 H   0  0  0  0  0  0  0  0  0  0  0  0
   45.0272   35.3567   45.2659 H   0  0  0  0  0  0  0  0  0  0  0  0
   44.9418   36.9961   44.4850 H   0  0  0  0  0  0  0  0  0  0  0  0
   42.9280   35.7551   45.1148 H   0  0  0  0  0  0  0  0  0  0  0  0
  1  2  2  0
  1  6  1  0
  2  3  1  0
  3  4  2  0
  5  4  1  0
  5 16  1  0
  6  5  2  0
  7 11  1  0
  7  2  1  0
  8  7  1  0
  9 10  1  0
  9  8  2  0
 10 11  2  0
 11 12  1  0
 12 13  1  0
 14 12  1  0
 15 12  1  0
 16 17  1  0
 18 17  1  0
  1 19  1  0
  3 20  1  0
  9 21  1  0
 10 22  1  0
 16 23  1  0
 16 24  1  0
 17 25  1  0
 17 26  1  0
 18 27  1  0
M  ISO  8  19  14  20  14  21  14  22  14  23   8  24   8  25   8  26   8
M  ISO  1  27   3
M  END
>  <minimizedAffinity>  (1) 
-5.28709698

>  <minimizedRMSD>  (1) 
0.336061954

$$$$
