
     RDKit          3D

 33 35  0  0  0  0  0  0  0  0999 V2000
   42.7550   35.5530   41.2350 C   0  0  0  0  0  0  0  0  0  0  0  0
   42.6810   34.6430   40.1750 C   0  0  0  0  0  0  0  0  0  0  0  0
   43.8020   33.8620   39.9080 C   0  0  0  0  0  0  0  0  0  0  0  0
   44.9260   34.0170   40.6960 N   0  0  0  0  0  0  0  0  0  0  0  0
   44.9380   34.9140   41.7070 C   0  0  0  0  0  0  0  0  0  0  0  0
   43.8600   35.6850   41.9840 N   0  0  0  0  0  0  0  0  0  0  0  0
   41.4860   34.5900   39.4630 N   0  0  0  0  0  0  0  0  0  0  0  0
   41.4280   35.0570   38.2240 N   0  0  0  0  0  0  0  0  0  0  0  0
   40.1350   34.8710   37.7800 C   0  0  0  0  0  0  0  0  0  0  0  0
   39.4500   34.2610   38.8540 C   0  0  0  0  0  0  0  0  0  0  0  0
   40.3220   34.0860   39.9230 C   0  0  0  0  0  0  0  0  0  0  0  0
   39.8280   33.4600   41.1730 C   0  0  0  0  0  0  0  0  0  0  0  0
   40.3880   32.1940   41.3990 F   0  0  0  0  0  0  0  0  0  0  0  0
   38.4560   33.1040   41.0120 F   0  0  0  0  0  0  0  0  0  0  0  0
   39.8190   34.2600   42.2780 F   0  0  0  0  0  0  0  0  0  0  0  0
   46.2060   34.9830   42.4750 C   0  0  0  0  0  0  0  0  0  0  0  0
   46.4140   33.6230   43.1230 C   0  0  0  0  0  0  0  0  0  0  0  0
   46.5680   33.7140   44.6060 C   0  0  0  0  0  0  0  0  0  0  0  0
   45.9700   32.6650   45.4670 C   0  0  0  0  0  0  0  0  0  0  0  0
   45.4440   34.0710   45.5100 C   0  0  0  0  0  0  0  0  0  0  0  0
   41.8798   36.1798   41.4613 H   0  0  0  0  0  0  0  0  0  0  0  0
   43.7929   33.1338   39.0836 H   0  0  0  0  0  0  0  0  0  0  0  0
   39.7239   35.1411   36.7961 H   0  0  0  0  0  0  0  0  0  0  0  0
   38.3895   33.9691   38.8461 H   0  0  0  0  0  0  0  0  0  0  0  0
   47.0438   35.2107   41.7995 H   0  0  0  0  0  0  0  0  0  0  0  0
   46.1585   35.7752   43.2367 H   0  0  0  0  0  0  0  0  0  0  0  0
   45.5449   32.9878   42.8968 H   0  0  0  0  0  0  0  0  0  0  0  0
   47.3429   33.1971   42.7158 H   0  0  0  0  0  0  0  0  0  0  0  0
   47.5726   34.1341   44.4500 H   0  0  0  0  0  0  0  0  0  0  0  0
   45.3642   31.8637   45.0187 H   0  0  0  0  0  0  0  0  0  0  0  0
   46.3566   31.9542   46.2122 H   0  0  0  0  0  0  0  0  0  0  0  0
   45.6256   34.7008   46.3934 H   0  0  0  0  0  0  0  0  0  0  0  0
   44.4572   34.5396   45.3812 H   0  0  0  0  0  0  0  0  0  0  0  0
  1  6  2  0
  2  1  1  0
  3  2  2  0
  3  4  1  0
  4  5  2  0
  5  6  1  0
  5 16  1  0
  7 11  1  0
  7  2  1  0
  8  7  1  0
  9  8  2  0
  9 10  1  0
 10 11  2  0
 11 12  1  0
 12 13  1  0
 12 15  1  0
 14 12  1  0
 16 17  1  0
 17 18  1  0
 18 19  1  0
 18 20  1  0
 19 20  1  0
  1 21  1  0
  3 22  1  0
  9 23  1  0
 10 24  1  0
 16 25  1  0
 16 26  1  0
 17 27  1  0
 17 28  1  0
 18 29  1  0
 19 30  1  0
 19 31  1  0
 20 32  1  0
 20 33  1  0
M  ISO  8  21  14  22  14  23  14  24  14  25   8  26   8  27   8  28   8
M  ISO  5  29  13  30  13  31  13  32  13  33  13
M  END
>  <minimizedAffinity>  (1) 
-5.1167326

>  <minimizedRMSD>  (1) 
2.14800572

$$$$
