
     RDKit          3D

 33 34  0  0  0  0  0  0  0  0999 V2000
   42.6180   35.5170   41.2490 C   0  0  0  0  0  0  0  0  0  0  0  0
   42.6030   34.6990   40.1270 C   0  0  0  0  0  0  0  0  0  0  0  0
   43.7580   33.9700   39.8170 C   0  0  0  0  0  0  0  0  0  0  0  0
   44.8490   34.0960   40.6310 N   0  0  0  0  0  0  0  0  0  0  0  0
   44.8140   34.9090   41.7150 C   0  0  0  0  0  0  0  0  0  0  0  0
   43.6950   35.6270   42.0320 N   0  0  0  0  0  0  0  0  0  0  0  0
   41.4210   34.6590   39.3780 N   0  0  0  0  0  0  0  0  0  0  0  0
   41.3970   35.1570   38.1490 N   0  0  0  0  0  0  0  0  0  0  0  0
   40.1200   34.9800   37.6600 C   0  0  0  0  0  0  0  0  0  0  0  0
   39.4150   34.3470   38.6960 C   0  0  0  0  0  0  0  0  0  0  0  0
   40.2520   34.1440   39.7880 C   0  0  0  0  0  0  0  0  0  0  0  0
   39.7180   33.4860   41.0060 C   0  0  0  0  0  0  0  0  0  0  0  0
   40.1900   32.1650   41.1510 F   0  0  0  0  0  0  0  0  0  0  0  0
   38.3260   33.2200   40.8380 F   0  0  0  0  0  0  0  0  0  0  0  0
   39.7650   34.2080   42.1530 F   0  0  0  0  0  0  0  0  0  0  0  0
   46.0520   34.9740   42.5330 C   0  0  0  0  0  0  0  0  0  0  0  0
   45.9750   33.8360   43.5450 C   0  0  0  0  0  0  0  0  0  0  0  0
   44.6620   33.2590   43.6050 N   0  0  0  0  0  0  0  0  0  0  0  0
   44.4770   32.0190   42.9460 C   0  0  0  0  0  0  0  0  0  0  0  0
   45.3960   31.2640   42.4470 N   0  0  0  0  0  0  0  0  0  0  0  0
   43.1330   31.5370   42.8090 N   0  0  0  0  0  0  0  0  0  0  0  0
   46.3750   31.5750   42.5240 H   0  0  0  0  0  0  0  0  0  0  0  0
   41.7150   36.0924   41.5010 H   0  0  0  0  0  0  0  0  0  0  0  0
   43.7866   33.3102   38.9373 H   0  0  0  0  0  0  0  0  0  0  0  0
   39.7363   35.2719   36.6713 H   0  0  0  0  0  0  0  0  0  0  0  0
   38.3556   34.0544   38.6507 H   0  0  0  0  0  0  0  0  0  0  0  0
   46.9365   34.8499   41.8909 H   0  0  0  0  0  0  0  0  0  0  0  0
   46.1381   35.9464   43.0400 H   0  0  0  0  0  0  0  0  0  0  0  0
   46.6936   33.0547   43.2565 H   0  0  0  0  0  0  0  0  0  0  0  0
   46.2118   34.2468   44.5376 H   0  0  0  0  0  0  0  0  0  0  0  0
   43.8906   33.7248   44.1039 H   0  0  0  0  0  0  0  0  0  0  0  0
   42.9534   30.6396   42.3364 H   0  0  0  0  0  0  0  0  0  0  0  0
   42.3475   32.0882   43.1832 H   0  0  0  0  0  0  0  0  0  0  0  0
  1  6  2  0
  2  1  1  0
  3  2  2  0
  3  4  1  0
  4  5  2  0
  5  6  1  0
  5 16  1  0
  7 11  1  0
  7  2  1  0
  8  7  1  0
  9  8  2  0
  9 10  1  0
 10 11  2  0
 11 12  1  0
 12 13  1  0
 12 15  1  0
 14 12  1  0
 16 17  1  0
 17 18  1  0
 19 18  1  0
 20 22  1  0
 20 19  2  0
 21 19  1  0
  1 23  1  0
  3 24  1  0
  9 25  1  0
 10 26  1  0
 16 27  1  0
 16 28  1  0
 17 29  1  0
 17 30  1  0
 18 31  1  0
 21 32  1  0
 21 33  1  0
M  ISO  8  23  14  24  14  25  14  26  14  27   8  28   8  29   8  30   8
M  END
>  <minimizedAffinity>  (1) 
-5.41228867

>  <minimizedRMSD>  (1) 
2.62566304

$$$$
