
     RDKit          3D

 41 43  0  0  1  0  0  0  0  0999 V2000
   43.7360   31.7740   39.2990 C   0  0  0  0  0  0  0  0  0  0  0  0
   46.4160   33.1500   41.4190 C   0  0  0  0  0  0  0  0  0  0  0  0
   47.5540   32.5390   40.9410 C   0  0  0  0  0  0  0  0  0  0  0  0
   47.4280   31.6340   39.8940 C   0  0  0  0  0  0  0  0  0  0  0  0
   46.2090   31.3690   39.3640 N   0  0  0  0  0  0  0  0  0  0  0  0
   45.1200   31.9800   39.8500 C   0  0  0  0  0  0  0  0  0  0  0  0
   45.2140   32.8840   40.8910 N   0  0  0  0  0  0  0  0  0  0  0  0
   48.7700   32.8780   41.5480 N   0  0  0  0  0  0  0  0  0  0  0  0
   49.5780   31.9260   41.9890 N   0  0  0  0  0  0  0  0  0  0  0  0
   50.6830   32.5480   42.5330 C   0  0  0  0  0  0  0  0  0  0  0  0
   50.4490   33.9220   42.3710 C   0  0  0  0  0  0  0  0  0  0  0  0
   49.2250   34.1330   41.7410 C   0  0  0  0  0  0  0  0  0  0  0  0
   48.7660   35.5200   41.4650 C   0  0  0  0  0  0  0  0  0  0  0  0
   48.7780   35.8280   40.0960 F   0  0  0  0  0  0  0  0  0  0  0  0
   49.7420   36.4530   41.9260 F   0  0  0  0  0  0  0  0  0  0  0  0
   47.6410   35.9080   42.0980 F   0  0  0  0  0  0  0  0  0  0  0  0
   43.4920   32.8900   38.3390 C   0  0  2  0  0  0  0  0  0  0  0  0
   44.6580   33.6240   38.0780 N   0  0  0  0  0  0  0  0  0  0  0  0
   45.3230   33.3790   36.8460 C   0  0  0  0  0  0  0  0  0  0  0  0
   44.8460   32.6800   35.8610 N   0  0  0  0  0  0  0  0  0  0  0  0
   46.6380   33.9270   36.6540 N   0  0  0  0  0  0  0  0  0  0  0  0
   43.9340   32.2450   35.9480 H   0  0  0  0  0  0  0  0  0  0  0  0
   42.2350   33.5200   38.3420 C   0  0  0  0  0  0  0  0  0  0  0  0
   41.1620   32.6420   38.1630 C   0  0  0  0  0  0  0  0  0  0  0  0
   39.8230   33.0480   38.1310 C   0  0  0  0  0  0  0  0  0  0  0  0
   39.5690   34.3620   38.2830 N   0  0  0  0  0  0  0  0  0  0  0  0
   40.5940   35.2400   38.4600 C   0  0  0  0  0  0  0  0  0  0  0  0
   41.8410   34.7970   38.4810 N   0  0  0  0  0  0  0  0  0  0  0  0
   43.6736   30.8060   38.7803 H   0  0  0  0  0  0  0  0  0  0  0  0
   42.9846   31.7688   40.1024 H   0  0  0  0  0  0  0  0  0  0  0  0
   46.4955   33.8684   42.2482 H   0  0  0  0  0  0  0  0  0  0  0  0
   48.3207   31.1309   39.4940 H   0  0  0  0  0  0  0  0  0  0  0  0
   51.5593   32.0694   42.9946 H   0  0  0  0  0  0  0  0  0  0  0  0
   51.1345   34.7188   42.6953 H   0  0  0  0  0  0  0  0  0  0  0  0
   43.2786   32.4177   37.3687 H   0  0  0  0  0  0  0  0  0  0  0  0
   45.0184   34.3137   38.7527 H   0  0  0  0  0  0  0  0  0  0  0  0
   47.1401   33.7632   35.7697 H   0  0  0  0  0  0  0  0  0  0  0  0
   47.0781   34.4835   37.4007 H   0  0  0  0  0  0  0  0  0  0  0  0
   41.3826   31.5713   38.0403 H   0  0  0  0  0  0  0  0  0  0  0  0
   39.0093   32.3219   37.9872 H   0  0  0  0  0  0  0  0  0  0  0  0
   40.3868   36.3131   38.5850 H   0  0  0  0  0  0  0  0  0  0  0  0
  1  6  1  0
  3  2  2  0
  3  8  1  0
  4  3  1  0
  5  6  1  0
  5  4  2  0
  6  7  2  0
  7  2  1  0
  8 12  1  0
  8  9  1  0
  9 10  2  0
 11 10  1  0
 12 11  2  0
 13 12  1  0
 13 15  1  0
 13 16  1  0
 14 13  1  0
 17 23  1  0
 17  1  1  0
 18 17  1  0
 19 18  1  0
 20 22  1  0
 20 19  2  0
 21 19  1  0
 23 28  1  0
 24 23  2  0
 25 24  1  0
 25 26  2  0
 26 27  1  0
 27 28  2  0
  1 29  1  0
  1 30  1  0
  2 31  1  0
  4 32  1  0
 10 33  1  0
 11 34  1  0
 17 35  1  6
 18 36  1  0
 21 37  1  0
 21 38  1  0
 24 39  1  0
 25 40  1  0
 27 41  1  0
M  ISO  8  29   8  30   8  31  14  32  14  33  14  34  14  35   8  39  14
M  ISO  2  40  14  41  14
M  END
>  <minimizedAffinity>  (1) 
-5.95435333

>  <minimizedRMSD>  (1) 
8.33101749

$$$$
