
     RDKit          3D

 38 40  0  0  1  0  0  0  0  0999 V2000
   42.0560   35.4910   41.2760 C   0  0  0  0  0  0  0  0  0  0  0  0
   42.1790   34.6490   40.1910 C   0  0  0  0  0  0  0  0  0  0  0  0
   43.4230   34.0840   39.9370 C   0  0  0  0  0  0  0  0  0  0  0  0
   44.4790   34.3590   40.7390 N   0  0  0  0  0  0  0  0  0  0  0  0
   44.3280   35.1800   41.7840 C   0  0  0  0  0  0  0  0  0  0  0  0
   43.1030   35.7600   42.0660 N   0  0  0  0  0  0  0  0  0  0  0  0
   41.0340   34.4230   39.4210 N   0  0  0  0  0  0  0  0  0  0  0  0
   40.9360   34.9460   38.2070 N   0  0  0  0  0  0  0  0  0  0  0  0
   39.7160   34.5620   37.6930 C   0  0  0  0  0  0  0  0  0  0  0  0
   39.1220   33.7810   38.6990 C   0  0  0  0  0  0  0  0  0  0  0  0
   39.9650   33.6920   39.8050 C   0  0  0  0  0  0  0  0  0  0  0  0
   39.5410   32.9140   40.9960 C   0  0  0  0  0  0  0  0  0  0  0  0
   40.0680   31.6180   41.0090 F   0  0  0  0  0  0  0  0  0  0  0  0
   38.1500   32.6040   40.9000 F   0  0  0  0  0  0  0  0  0  0  0  0
   39.6360   33.5520   42.1820 F   0  0  0  0  0  0  0  0  0  0  0  0
   45.4300   35.5150   42.7510 C   0  0  0  0  0  0  0  0  0  0  0  0
   46.3250   34.3180   42.8080 C   0  0  2  0  0  0  0  0  0  0  0  0
   45.8550   33.3540   43.7150 N   0  0  0  0  0  0  0  0  0  0  0  0
   45.4560   32.0990   43.1830 C   0  0  0  0  0  0  0  0  0  0  0  0
   45.6630   31.7000   41.9630 N   0  0  0  0  0  0  0  0  0  0  0  0
   44.7520   31.1780   44.0350 N   0  0  0  0  0  0  0  0  0  0  0  0
   46.1320   32.3110   41.3050 H   0  0  0  0  0  0  0  0  0  0  0  0
   47.7030   34.5150   42.6220 C   0  0  0  0  0  0  0  0  0  0  0  0
   48.0700   35.5090   41.7820 N   0  0  0  0  0  0  0  0  0  0  0  0
   49.3670   35.5930   41.6910 O   0  0  0  0  0  0  0  0  0  0  0  0
   49.9180   34.6770   42.4490 C   0  0  0  0  0  0  0  0  0  0  0  0
   48.8900   34.0210   43.0140 N   0  0  0  0  0  0  0  0  0  0  0  0
   41.0808   35.9497   41.4963 H   0  0  0  0  0  0  0  0  0  0  0  0
   43.5508   33.4085   39.0783 H   0  0  0  0  0  0  0  0  0  0  0  0
   39.2974   34.8130   36.7072 H   0  0  0  0  0  0  0  0  0  0  0  0
   38.1321   33.3072   38.6240 H   0  0  0  0  0  0  0  0  0  0  0  0
   45.9914   36.3925   42.3979 H   0  0  0  0  0  0  0  0  0  0  0  0
   45.0262   35.7569   43.7452 H   0  0  0  0  0  0  0  0  0  0  0  0
   46.2270   33.8011   41.8420 H   0  0  0  0  0  0  0  0  0  0  0  0
   45.8019   33.5493   44.7249 H   0  0  0  0  0  0  0  0  0  0  0  0
   44.4538   30.2627   43.6687 H   0  0  0  0  0  0  0  0  0  0  0  0
   44.5462   31.4339   45.0112 H   0  0  0  0  0  0  0  0  0  0  0  0
   50.9918   34.4859   42.5922 H   0  0  0  0  0  0  0  0  0  0  0  0
  1  6  2  0
  2  1  1  0
  3  2  2  0
  3  4  1  0
  4  5  2  0
  5  6  1  0
  5 16  1  0
  7 11  1  0
  7  2  1  0
  8  7  1  0
  9  8  2  0
  9 10  1  0
 10 11  2  0
 11 12  1  0
 12 13  1  0
 12 15  1  0
 14 12  1  0
 16 17  1  0
 17 18  1  0
 19 18  1  0
 19 21  1  0
 20 19  2  0
 22 20  1  0
 23 17  1  0
 23 27  1  0
 24 23  2  0
 25 24  1  0
 25 26  1  0
 26 27  2  0
  1 28  1  0
  3 29  1  0
  9 30  1  0
 10 31  1  0
 16 32  1  0
 16 33  1  0
 17 34  1  6
 18 35  1  0
 21 36  1  0
 21 37  1  0
 26 38  1  0
M  ISO  8  28  14  29  14  30  14  31  14  32   8  33   8  34   8  38  14
M  END
>  <minimizedAffinity>  (1) 
-5.84650707

>  <minimizedRMSD>  (1) 
1.75603008

$$$$
