
     RDKit          3D

 47 49  0  0  1  0  0  0  0  0999 V2000
   45.8550   34.3270   42.9330 C   0  0  0  0  0  0  0  0  0  0  0  0
   42.7930   35.4990   41.2520 C   0  0  0  0  0  0  0  0  0  0  0  0
   42.7720   34.7730   40.0820 C   0  0  0  0  0  0  0  0  0  0  0  0
   43.8090   33.8780   39.8430 C   0  0  0  0  0  0  0  0  0  0  0  0
   44.8100   33.7340   40.7480 N   0  0  0  0  0  0  0  0  0  0  0  0
   44.7980   34.4560   41.8760 C   0  0  0  0  0  0  0  0  0  0  0  0
   43.7830   35.3540   42.1410 N   0  0  0  0  0  0  0  0  0  0  0  0
   41.7010   34.9860   39.2090 N   0  0  0  0  0  0  0  0  0  0  0  0
   41.8910   35.6280   38.0670 N   0  0  0  0  0  0  0  0  0  0  0  0
   40.6710   35.6890   37.4250 C   0  0  0  0  0  0  0  0  0  0  0  0
   39.7630   35.0340   38.2790 C   0  0  0  0  0  0  0  0  0  0  0  0
   40.4270   34.5850   39.4210 C   0  0  0  0  0  0  0  0  0  0  0  0
   39.6680   33.8590   40.4720 C   0  0  0  0  0  0  0  0  0  0  0  0
   39.8420   32.4710   40.3920 F   0  0  0  0  0  0  0  0  0  0  0  0
   38.2710   33.9360   40.1960 F   0  0  0  0  0  0  0  0  0  0  0  0
   39.7710   34.3500   41.7240 F   0  0  0  0  0  0  0  0  0  0  0  0
   45.6190   33.0140   43.6130 C   0  0  2  0  0  0  0  0  0  0  0  0
   44.2660   32.6410   43.5860 N   0  0  0  0  0  0  0  0  0  0  0  0
   43.9290   31.4710   42.8460 C   0  0  0  0  0  0  0  0  0  0  0  0
   44.7720   30.6180   42.3570 N   0  0  0  0  0  0  0  0  0  0  0  0
   42.5370   31.2000   42.6010 N   0  0  0  0  0  0  0  0  0  0  0  0
   45.7670   30.7660   42.4790 H   0  0  0  0  0  0  0  0  0  0  0  0
   46.4440   32.6890   44.6310 N   0  0  0  0  0  0  0  0  0  0  0  0
   46.3860   33.3960   45.8700 C   0  0  0  0  0  0  0  0  0  0  0  0
   46.9800   32.4560   46.9190 C   0  0  0  0  0  0  0  0  0  0  0  0
   46.7500   31.0640   46.5450 N   0  0  0  0  0  0  0  0  0  0  0  0
   47.4730   30.7050   45.3390 C   0  0  0  0  0  0  0  0  0  0  0  0
   47.6480   31.9630   44.4780 C   0  0  0  0  0  0  0  0  0  0  0  0
   45.7705   35.1506   43.6573 H   0  0  0  0  0  0  0  0  0  0  0  0
   46.8630   34.3723   42.4949 H   0  0  0  0  0  0  0  0  0  0  0  0
   41.9810   36.2114   41.4598 H   0  0  0  0  0  0  0  0  0  0  0  0
   43.8180   33.2845   38.9169 H   0  0  0  0  0  0  0  0  0  0  0  0
   40.4536   36.1519   36.4511 H   0  0  0  0  0  0  0  0  0  0  0  0
   38.6906   34.8968   38.0761 H   0  0  0  0  0  0  0  0  0  0  0  0
   46.0449   32.2056   43.0005 H   0  0  0  0  0  0  0  0  0  0  0  0
   43.5477   33.1896   44.0799 H   0  0  0  0  0  0  0  0  0  0  0  0
   42.2613   30.3621   42.0691 H   0  0  0  0  0  0  0  0  0  0  0  0
   41.8165   31.8439   42.9575 H   0  0  0  0  0  0  0  0  0  0  0  0
   46.9756   34.3227   45.8094 H   0  0  0  0  0  0  0  0  0  0  0  0
   45.3544   33.6821   46.1230 H   0  0  0  0  0  0  0  0  0  0  0  0
   48.0624   32.6364   46.9956 H   0  0  0  0  0  0  0  0  0  0  0  0
   46.4945   32.6498   47.8868 H   0  0  0  0  0  0  0  0  0  0  0  0
   47.0626   30.4556   47.3151 H   0  0  0  0  0  0  0  0  0  0  0  0
   48.4598   30.2989   45.6060 H   0  0  0  0  0  0  0  0  0  0  0  0
   46.9124   29.9422   44.7788 H   0  0  0  0  0  0  0  0  0  0  0  0
   47.8023   31.6901   43.4236 H   0  0  0  0  0  0  0  0  0  0  0  0
   48.5246   32.5522   44.7853 H   0  0  0  0  0  0  0  0  0  0  0  0
  1 17  1  0
  2  7  2  0
  3  2  1  0
  4  3  2  0
  4  5  1  0
  5  6  2  0
  6  7  1  0
  6  1  1  0
  8 12  1  0
  8  3  1  0
  9  8  1  0
 10  9  2  0
 10 11  1  0
 11 12  2  0
 12 13  1  0
 13 16  1  0
 14 13  1  0
 15 13  1  0
 17 23  1  0
 18 17  1  0
 19 18  1  0
 20 22  1  0
 20 19  2  0
 21 19  1  0
 23 24  1  0
 24 25  1  0
 26 25  1  0
 27 26  1  0
 28 23  1  0
 28 27  1  0
  1 29  1  0
  1 30  1  0
  2 31  1  0
  4 32  1  0
 10 33  1  0
 11 34  1  0
 17 35  1  6
 18 36  1  0
 21 37  1  0
 21 38  1  0
 24 39  1  0
 24 40  1  0
 25 41  1  0
 25 42  1  0
 26 43  1  0
 27 44  1  0
 27 45  1  0
 28 46  1  0
 28 47  1  0
M  ISO  8  29   8  30   8  31  14  32  14  33  14  34  14  35   8  39  13
M  ISO  8  40  13  41  13  42  13  43   5  44  13  45  13  46  13  47  13
M  END
>  <minimizedAffinity>  (1) 
-5.65236235

>  <minimizedRMSD>  (1) 
1.23913205

$$$$
