
     RDKit          3D

 42 44  0  0  1  0  0  0  0  0999 V2000
   45.9000   34.0220   43.0270 C   0  0  0  0  0  0  0  0  0  0  0  0
   42.8370   35.2590   41.4010 C   0  0  0  0  0  0  0  0  0  0  0  0
   42.8670   34.6720   40.1540 C   0  0  0  0  0  0  0  0  0  0  0  0
   43.9420   33.8500   39.8410 C   0  0  0  0  0  0  0  0  0  0  0  0
   44.9290   33.6400   40.7460 N   0  0  0  0  0  0  0  0  0  0  0  0
   44.8710   34.2260   41.9500 C   0  0  0  0  0  0  0  0  0  0  0  0
   43.8120   35.0490   42.2900 N   0  0  0  0  0  0  0  0  0  0  0  0
   41.8030   34.9440   39.2880 N   0  0  0  0  0  0  0  0  0  0  0  0
   42.0150   35.6110   38.1640 N   0  0  0  0  0  0  0  0  0  0  0  0
   40.8000   35.7330   37.5250 C   0  0  0  0  0  0  0  0  0  0  0  0
   39.8740   35.0900   38.3650 C   0  0  0  0  0  0  0  0  0  0  0  0
   40.5170   34.5860   39.4920 C   0  0  0  0  0  0  0  0  0  0  0  0
   39.7310   33.8630   40.5260 C   0  0  0  0  0  0  0  0  0  0  0  0
   39.9230   32.4770   40.4740 F   0  0  0  0  0  0  0  0  0  0  0  0
   38.3420   33.9230   40.2070 F   0  0  0  0  0  0  0  0  0  0  0  0
   39.7860   34.3730   41.7750 F   0  0  0  0  0  0  0  0  0  0  0  0
   45.5250   32.7630   43.7400 C   0  0  2  0  0  0  0  0  0  0  0  0
   44.1950   32.3950   43.4820 N   0  0  0  0  0  0  0  0  0  0  0  0
   43.9790   31.3090   42.5890 C   0  0  0  0  0  0  0  0  0  0  0  0
   44.8990   30.5110   42.1390 N   0  0  0  0  0  0  0  0  0  0  0  0
   42.6440   31.0610   42.1170 N   0  0  0  0  0  0  0  0  0  0  0  0
   45.8640   30.6500   42.4140 H   0  0  0  0  0  0  0  0  0  0  0  0
   46.1280   32.4910   44.9850 C   0  0  0  0  0  0  0  0  0  0  0  0
   46.7130   31.2450   45.0610 C   0  0  0  0  0  0  0  0  0  0  0  0
   47.3700   30.7550   46.1980 C   0  0  0  0  0  0  0  0  0  0  0  0
   47.4520   31.5450   47.3240 C   0  0  0  0  0  0  0  0  0  0  0  0
   46.8640   32.7870   47.2320 C   0  0  0  0  0  0  0  0  0  0  0  0
   46.2450   33.2100   46.1180 N   0  0  0  0  0  0  0  0  0  0  0  0
   45.8919   34.8713   43.7260 H   0  0  0  0  0  0  0  0  0  0  0  0
   46.9120   33.9517   42.6017 H   0  0  0  0  0  0  0  0  0  0  0  0
   41.9941   35.9129   41.6692 H   0  0  0  0  0  0  0  0  0  0  0  0
   43.9926   33.3671   38.8539 H   0  0  0  0  0  0  0  0  0  0  0  0
   40.5980   36.2276   36.5635 H   0  0  0  0  0  0  0  0  0  0  0  0
   38.7970   34.9984   38.1611 H   0  0  0  0  0  0  0  0  0  0  0  0
   46.0923   31.9456   43.2708 H   0  0  0  0  0  0  0  0  0  0  0  0
   43.4070   32.8916   43.9218 H   0  0  0  0  0  0  0  0  0  0  0  0
   42.4633   30.2804   41.4698 H   0  0  0  0  0  0  0  0  0  0  0  0
   41.8682   31.6639   42.4260 H   0  0  0  0  0  0  0  0  0  0  0  0
   46.6610   30.5954   44.1748 H   0  0  0  0  0  0  0  0  0  0  0  0
   47.8159   29.7494   46.1915 H   0  0  0  0  0  0  0  0  0  0  0  0
   47.9563   31.2045   48.2404 H   0  0  0  0  0  0  0  0  0  0  0  0
   46.9029   33.4573   48.1033 H   0  0  0  0  0  0  0  0  0  0  0  0
  1 17  1  0
  2  7  2  0
  3  2  1  0
  4  3  2  0
  4  5  1  0
  5  6  2  0
  6  7  1  0
  6  1  1  0
  8 12  1  0
  8  3  1  0
  9  8  1  0
 10  9  2  0
 10 11  1  0
 11 12  2  0
 12 13  1  0
 13 16  1  0
 14 13  1  0
 15 13  1  0
 17 23  1  0
 18 17  1  0
 19 18  1  0
 20 22  1  0
 20 19  2  0
 21 19  1  0
 23 24  2  0
 23 28  1  0
 24 25  1  0
 25 26  2  0
 27 26  1  0
 28 27  2  0
  1 29  1  0
  1 30  1  0
  2 31  1  0
  4 32  1  0
 10 33  1  0
 11 34  1  0
 17 35  1  6
 18 36  1  0
 21 37  1  0
 21 38  1  0
 24 39  1  0
 25 40  1  0
 26 41  1  0
 27 42  1  0
M  ISO  8  29   8  30   8  31  14  32  14  33  14  34  14  35   8  39  14
M  ISO  3  40  14  41  14  42  14
M  END
>  <minimizedAffinity>  (1) 
-5.59627867

>  <minimizedRMSD>  (1) 
1.13077366

$$$$
