
     RDKit          3D

 40 42  0  0  1  0  0  0  0  0999 V2000
   45.8080   34.2070   43.0610 C   0  0  0  0  0  0  0  0  0  0  0  0
   42.7550   35.3760   41.3680 C   0  0  0  0  0  0  0  0  0  0  0  0
   42.7830   34.7190   40.1580 C   0  0  0  0  0  0  0  0  0  0  0  0
   43.8530   33.8720   39.8940 C   0  0  0  0  0  0  0  0  0  0  0  0
   44.8370   33.7050   40.8110 N   0  0  0  0  0  0  0  0  0  0  0  0
   44.7790   34.3570   41.9750 C   0  0  0  0  0  0  0  0  0  0  0  0
   43.7290   35.2080   42.2700 N   0  0  0  0  0  0  0  0  0  0  0  0
   41.7220   34.9490   39.2740 N   0  0  0  0  0  0  0  0  0  0  0  0
   41.9330   35.5980   38.1390 N   0  0  0  0  0  0  0  0  0  0  0  0
   40.7220   35.6740   37.4820 C   0  0  0  0  0  0  0  0  0  0  0  0
   39.7930   35.0180   38.3250 C   0  0  0  0  0  0  0  0  0  0  0  0
   40.4400   34.5590   39.4660 C   0  0  0  0  0  0  0  0  0  0  0  0
   39.6650   33.8350   40.5040 C   0  0  0  0  0  0  0  0  0  0  0  0
   39.8310   32.4440   40.4300 F   0  0  0  0  0  0  0  0  0  0  0  0
   38.2720   33.9200   40.2110 F   0  0  0  0  0  0  0  0  0  0  0  0
   39.7520   34.3220   41.7580 F   0  0  0  0  0  0  0  0  0  0  0  0
   45.5310   32.8960   43.7310 C   0  0  2  0  0  0  0  0  0  0  0  0
   44.2700   32.3850   43.3840 N   0  0  0  0  0  0  0  0  0  0  0  0
   44.2320   31.0650   42.8520 C   0  0  0  0  0  0  0  0  0  0  0  0
   45.2240   30.2270   42.8380 N   0  0  0  0  0  0  0  0  0  0  0  0
   43.0050   30.5930   42.2610 N   0  0  0  0  0  0  0  0  0  0  0  0
   46.1250   30.5040   43.2120 H   0  0  0  0  0  0  0  0  0  0  0  0
   46.0600   32.6950   44.9790 N   0  0  0  0  0  0  0  0  0  0  0  0
   46.7700   31.5950   45.1850 N   0  0  0  0  0  0  0  0  0  0  0  0
   47.2210   31.5460   46.4690 C   0  0  0  0  0  0  0  0  0  0  0  0
   46.7790   32.6740   47.1280 C   0  0  0  0  0  0  0  0  0  0  0  0
   46.0600   33.3440   46.1320 C   0  0  0  0  0  0  0  0  0  0  0  0
   45.7190   35.0302   43.7852 H   0  0  0  0  0  0  0  0  0  0  0  0
   46.8278   34.2360   42.6496 H   0  0  0  0  0  0  0  0  0  0  0  0
   41.9171   36.0509   41.5971 H   0  0  0  0  0  0  0  0  0  0  0  0
   43.9014   33.3343   38.9356 H   0  0  0  0  0  0  0  0  0  0  0  0
   40.5209   36.1450   36.5085 H   0  0  0  0  0  0  0  0  0  0  0  0
   38.7218   34.8909   38.1096 H   0  0  0  0  0  0  0  0  0  0  0  0
   46.2030   32.1472   43.2864 H   0  0  0  0  0  0  0  0  0  0  0  0
   43.4114   32.9400   43.5087 H   0  0  0  0  0  0  0  0  0  0  0  0
   42.9544   29.6415   41.8699 H   0  0  0  0  0  0  0  0  0  0  0  0
   42.1788   31.2072   42.2298 H   0  0  0  0  0  0  0  0  0  0  0  0
   47.8334   30.7435   46.9060 H   0  0  0  0  0  0  0  0  0  0  0  0
   46.9489   32.9719   48.1732 H   0  0  0  0  0  0  0  0  0  0  0  0
   45.5502   34.3058   46.2904 H   0  0  0  0  0  0  0  0  0  0  0  0
  1 17  1  0
  2  7  2  0
  3  2  1  0
  4  3  2  0
  4  5  1  0
  5  6  2  0
  6  7  1  0
  6  1  1  0
  8 12  1  0
  8  3  1  0
  9  8  1  0
 10  9  2  0
 10 11  1  0
 11 12  2  0
 12 13  1  0
 13 16  1  0
 14 13  1  0
 15 13  1  0
 17 23  1  0
 18 17  1  0
 19 18  1  0
 20 19  2  0
 20 22  1  0
 21 19  1  0
 23 24  1  0
 23 27  1  0
 24 25  2  0
 25 26  1  0
 27 26  2  0
  1 28  1  0
  1 29  1  0
  2 30  1  0
  4 31  1  0
 10 32  1  0
 11 33  1  0
 17 34  1  6
 18 35  1  0
 21 36  1  0
 21 37  1  0
 25 38  1  0
 26 39  1  0
 27 40  1  0
M  ISO  8  28   8  29   8  30  14  31  14  32  14  33  14  34   8  38  14
M  ISO  2  39  14  40  14
M  END
>  <minimizedAffinity>  (1) 
-5.53265524

>  <minimizedRMSD>  (1) 
1.0380336

$$$$
