
     RDKit          3D

 49 52  0  0  1  0  0  0  0  0999 V2000
   44.4130   35.9090   42.6260 C   0  0  0  0  0  0  0  0  0  0  0  0
   43.6910   35.6650   41.4550 C   0  0  0  0  0  0  0  0  0  0  0  0
   43.6560   34.3490   40.9990 C   0  0  0  0  0  0  0  0  0  0  0  0
   44.3090   33.3670   41.6920 N   0  0  0  0  0  0  0  0  0  0  0  0
   44.9870   33.6320   42.8040 C   0  0  0  0  0  0  0  0  0  0  0  0
   45.0500   34.9190   43.2920 N   0  0  0  0  0  0  0  0  0  0  0  0
   45.6400   32.5600   43.4590 N   0  0  0  0  0  0  0  0  0  0  0  0
   46.2040   31.5000   42.8000 C   0  0  0  0  0  0  0  0  0  0  0  0
   46.7520   30.6460   43.6320 N   0  0  0  0  0  0  0  0  0  0  0  0
   46.5700   31.1110   44.9010 C   0  0  0  0  0  0  0  0  0  0  0  0
   46.9290   30.6300   46.1190 C   0  0  0  0  0  0  0  0  0  0  0  0
   47.5460   29.5650   46.1750 O   0  0  0  0  0  0  0  0  0  0  0  0
   46.5830   31.3630   47.2230 N   0  0  0  0  0  0  0  0  0  0  0  0
   45.9080   32.5170   47.0710 C   0  0  0  0  0  0  0  0  0  0  0  0
   45.6020   33.1820   48.2750 N   0  0  0  0  0  0  0  0  0  0  0  0
   45.5370   33.0170   45.8500 N   0  0  0  0  0  0  0  0  0  0  0  0
   45.8810   32.2910   44.7490 C   0  0  0  0  0  0  0  0  0  0  0  0
   46.9750   30.8440   48.5140 C   0  0  2  0  0  0  0  0  0  0  0  0
   45.7480   30.8300   49.3940 C   0  0  0  0  0  0  0  0  0  0  0  0
   48.1770   31.5130   49.0910 C   0  0  0  0  0  0  0  0  0  0  0  0
   49.2430   30.7080   49.6950 C   0  0  0  0  0  0  0  0  0  0  0  0
   50.2180   31.3190   50.6250 C   0  0  0  0  0  0  0  0  0  0  0  0
   51.1550   32.3070   49.9510 C   0  0  0  0  0  0  0  0  0  0  0  0
   52.0660   31.4930   49.0550 C   0  0  0  0  0  0  0  0  0  0  0  0
   51.5160   30.1360   48.7550 C   0  0  0  0  0  0  0  0  0  0  0  0
   50.0380   30.0730   48.5560 C   0  0  0  0  0  0  0  0  0  0  0  0
   44.4649   36.9357   43.0175 H   0  0  0  0  0  0  0  0  0  0  0  0
   43.1743   36.4742   40.9181 H   0  0  0  0  0  0  0  0  0  0  0  0
   43.1031   34.0996   40.0814 H   0  0  0  0  0  0  0  0  0  0  0  0
   46.1983   31.3793   41.7067 H   0  0  0  0  0  0  0  0  0  0  0  0
   45.0867   34.0736   48.2543 H   0  0  0  0  0  0  0  0  0  0  0  0
   45.8936   32.7765   49.1758 H   0  0  0  0  0  0  0  0  0  0  0  0
   47.3353   29.8094   48.4148 H   0  0  0  0  0  0  0  0  0  0  0  0
   46.0544   30.8335   50.4505 H   0  0  0  0  0  0  0  0  0  0  0  0
   45.1376   31.7212   49.1863 H   0  0  0  0  0  0  0  0  0  0  0  0
   45.1581   29.9251   49.1863 H   0  0  0  0  0  0  0  0  0  0  0  0
   48.6385   32.0934   48.2785 H   0  0  0  0  0  0  0  0  0  0  0  0
   47.7693   32.0750   49.9442 H   0  0  0  0  0  0  0  0  0  0  0  0
   48.6807   30.0289   50.3528 H   0  0  0  0  0  0  0  0  0  0  0  0
   49.6634   31.8470   51.4147 H   0  0  0  0  0  0  0  0  0  0  0  0
   50.8384   30.5046   51.0273 H   0  0  0  0  0  0  0  0  0  0  0  0
   50.5797   33.0289   49.3528 H   0  0  0  0  0  0  0  0  0  0  0  0
   51.7329   32.8772   50.6933 H   0  0  0  0  0  0  0  0  0  0  0  0
   52.2035   32.0346   48.1075 H   0  0  0  0  0  0  0  0  0  0  0  0
   53.0192   31.3556   49.5865 H   0  0  0  0  0  0  0  0  0  0  0  0
   51.9979   29.7702   47.8363 H   0  0  0  0  0  0  0  0  0  0  0  0
   51.7286   29.5204   49.6415 H   0  0  0  0  0  0  0  0  0  0  0  0
   49.7895   30.5989   47.6224 H   0  0  0  0  0  0  0  0  0  0  0  0
   49.7609   29.0090   48.5215 H   0  0  0  0  0  0  0  0  0  0  0  0
  1  6  2  0
  2  1  1  0
  3  2  2  0
  3  4  1  0
  4  5  2  0
  5  6  1  0
  5  7  1  0
  7 17  1  0
  8  7  1  0
  8  9  2  0
  9 10  1  0
 10 11  1  0
 11 12  2  0
 11 13  1  0
 13 18  1  0
 14 13  1  0
 14 15  1  0
 16 14  2  0
 17 10  2  0
 17 16  1  0
 18 20  1  0
 18 19  1  0
 20 21  1  0
 21 22  1  0
 23 22  1  0
 24 23  1  0
 25 24  1  0
 26 25  1  0
 26 21  1  0
  1 27  1  0
  2 28  1  0
  3 29  1  0
  8 30  1  0
 15 31  1  0
 15 32  1  0
 18 33  1  6
 19 34  1  0
 19 35  1  0
 19 36  1  0
 20 37  1  0
 20 38  1  0
 21 39  1  0
 22 40  1  0
 22 41  1  0
 23 42  1  0
 23 43  1  0
 24 44  1  0
 24 45  1  0
 25 46  1  0
 25 47  1  0
 26 48  1  0
 26 49  1  0
M  ISO  8  27  14  28  14  29  14  30  14  33   8  34   8  35   8  36   8
M  ISO  8  37   8  38   8  39  13  40  13  41  13  42  13  43  13  44  13
M  ISO  5  45  13  46  13  47  13  48  13  49  13
M  END
>  <minimizedAffinity>  (1) 
-6.16099977

>  <minimizedRMSD>  (1) 
0.978233457

$$$$
