
     RDKit          3D

 40 43  0  0  1  0  0  0  0  0999 V2000
   44.2560   35.9320   42.5040 C   0  0  0  0  0  0  0  0  0  0  0  0
   43.7010   35.6190   41.2590 C   0  0  0  0  0  0  0  0  0  0  0  0
   43.9360   34.3270   40.7350 C   0  0  0  0  0  0  0  0  0  0  0  0
   44.6880   33.4580   41.4650 N   0  0  0  0  0  0  0  0  0  0  0  0
   45.2060   33.7820   42.6520 C   0  0  0  0  0  0  0  0  0  0  0  0
   44.9960   35.0270   43.1880 N   0  0  0  0  0  0  0  0  0  0  0  0
   45.9690   32.8030   43.3230 N   0  0  0  0  0  0  0  0  0  0  0  0
   46.7470   31.8670   42.6880 C   0  0  0  0  0  0  0  0  0  0  0  0
   47.3570   31.0720   43.5320 N   0  0  0  0  0  0  0  0  0  0  0  0
   47.0080   31.4480   44.7960 C   0  0  0  0  0  0  0  0  0  0  0  0
   47.3460   30.9750   46.0190 C   0  0  0  0  0  0  0  0  0  0  0  0
   48.1170   30.0130   46.1060 O   0  0  0  0  0  0  0  0  0  0  0  0
   46.8230   31.5780   47.1050 N   0  0  0  0  0  0  0  0  0  0  0  0
   45.9770   32.6360   46.9350 C   0  0  0  0  0  0  0  0  0  0  0  0
   45.4810   33.2100   48.1350 N   0  0  0  0  0  0  0  0  0  0  0  0
   45.6210   33.1310   45.7120 N   0  0  0  0  0  0  0  0  0  0  0  0
   46.1530   32.5170   44.6170 C   0  0  0  0  0  0  0  0  0  0  0  0
   47.1640   31.1040   48.4080 C   0  0  2  0  0  0  0  0  0  0  0  0
   45.9280   31.0540   49.2760 C   0  0  0  0  0  0  0  0  0  0  0  0
   48.3220   31.8150   49.0440 C   0  0  0  0  0  0  0  0  0  0  0  0
   49.2770   30.8510   49.6340 C   0  0  0  0  0  0  0  0  0  0  0  0
   50.2250   31.2870   50.5450 C   0  0  0  0  0  0  0  0  0  0  0  0
   50.9840   30.2290   50.9450 C   0  0  0  0  0  0  0  0  0  0  0  0
   50.4900   29.1630   50.2730 N   0  0  0  0  0  0  0  0  0  0  0  0
   49.4800   29.5170   49.4940 N   0  0  0  0  0  0  0  0  0  0  0  0
   44.0887   36.9301   42.9350 H   0  0  0  0  0  0  0  0  0  0  0  0
   43.1003   36.3551   40.7047 H   0  0  0  0  0  0  0  0  0  0  0  0
   43.5209   34.0309   39.7603 H   0  0  0  0  0  0  0  0  0  0  0  0
   46.8469   31.7929   41.5950 H   0  0  0  0  0  0  0  0  0  0  0  0
   44.8367   34.0126   48.0941 H   0  0  0  0  0  0  0  0  0  0  0  0
   45.7654   32.8239   49.0465 H   0  0  0  0  0  0  0  0  0  0  0  0
   47.5425   30.0775   48.2941 H   0  0  0  0  0  0  0  0  0  0  0  0
   46.2233   31.0659   50.3356 H   0  0  0  0  0  0  0  0  0  0  0  0
   45.2942   31.9272   49.0621 H   0  0  0  0  0  0  0  0  0  0  0  0
   45.3668   30.1324   49.0621 H   0  0  0  0  0  0  0  0  0  0  0  0
   48.8404   32.4131   48.2801 H   0  0  0  0  0  0  0  0  0  0  0  0
   47.9379   32.4629   49.8456 H   0  0  0  0  0  0  0  0  0  0  0  0
   50.3459   32.3242   50.8909 H   0  0  0  0  0  0  0  0  0  0  0  0
   51.8193   30.2388   51.6607 H   0  0  0  0  0  0  0  0  0  0  0  0
   50.8524   28.2025   50.3568 H   0  0  0  0  0  0  0  0  0  0  0  0
  1  6  2  0
  2  1  1  0
  3  2  2  0
  3  4  1  0
  4  5  2  0
  5  6  1  0
  5  7  1  0
  7 17  1  0
  8  7  1  0
  8  9  2  0
  9 10  1  0
 10 11  1  0
 11 12  2  0
 11 13  1  0
 13 18  1  0
 14 13  1  0
 14 15  1  0
 16 14  2  0
 17 10  2  0
 17 16  1  0
 18 20  1  0
 18 19  1  0
 20 21  1  0
 21 22  1  0
 22 23  2  0
 24 23  1  0
 25 21  2  0
 25 24  1  0
  1 26  1  0
  2 27  1  0
  3 28  1  0
  8 29  1  0
 15 30  1  0
 15 31  1  0
 18 32  1  6
 19 33  1  0
 19 34  1  0
 19 35  1  0
 20 36  1  0
 20 37  1  0
 22 38  1  0
 23 39  1  0
 24 40  1  0
M  ISO  8  26  14  27  14  28  14  29  14  32   8  33   8  34   8  35   8
M  ISO  5  36   8  37   8  38  14  39  14  40   9
M  END
>  <minimizedAffinity>  (1) 
-5.76799631

>  <minimizedRMSD>  (1) 
1.08386433

$$$$
