
     RDKit          3D

 47 50  0  0  1  0  0  0  0  0999 V2000
   44.4320   35.9320   42.6330 C   0  0  0  0  0  0  0  0  0  0  0  0
   43.7360   35.6900   41.4460 C   0  0  0  0  0  0  0  0  0  0  0  0
   43.7060   34.3710   40.9660 C   0  0  0  0  0  0  0  0  0  0  0  0
   44.3510   33.3940   41.6720 N   0  0  0  0  0  0  0  0  0  0  0  0
   45.0070   33.6580   42.8030 C   0  0  0  0  0  0  0  0  0  0  0  0
   45.0610   34.9390   43.3090 N   0  0  0  0  0  0  0  0  0  0  0  0
   45.6440   32.5730   43.4570 N   0  0  0  0  0  0  0  0  0  0  0  0
   46.1990   31.5070   42.8020 C   0  0  0  0  0  0  0  0  0  0  0  0
   46.7270   30.6420   43.6350 N   0  0  0  0  0  0  0  0  0  0  0  0
   46.5400   31.1070   44.9030 C   0  0  0  0  0  0  0  0  0  0  0  0
   46.8890   30.6100   46.1130 C   0  0  0  0  0  0  0  0  0  0  0  0
   47.4900   29.5340   46.1860 O   0  0  0  0  0  0  0  0  0  0  0  0
   46.5520   31.3370   47.2200 N   0  0  0  0  0  0  0  0  0  0  0  0
   45.8930   32.5040   47.0680 C   0  0  0  0  0  0  0  0  0  0  0  0
   45.5840   33.1800   48.2740 N   0  0  0  0  0  0  0  0  0  0  0  0
   45.5360   33.0150   45.8490 N   0  0  0  0  0  0  0  0  0  0  0  0
   45.8690   32.2990   44.7490 C   0  0  0  0  0  0  0  0  0  0  0  0
   46.9220   30.8370   48.5190 C   0  0  2  0  0  0  0  0  0  0  0  0
   45.7160   30.8750   49.4120 C   0  0  0  0  0  0  0  0  0  0  0  0
   48.1700   31.4420   49.0760 C   0  0  0  0  0  0  0  0  0  0  0  0
   49.0250   30.6400   49.8590 N   0  0  0  0  0  0  0  0  0  0  0  0
   50.1800   31.2960   50.3830 C   0  0  0  0  0  0  0  0  0  0  0  0
   51.3440   30.2850   50.5480 C   0  0  0  0  0  0  0  0  0  0  0  0
   51.8440   29.9370   49.2370 N   0  0  0  0  0  0  0  0  0  0  0  0
   50.7100   29.8600   48.3370 C   0  0  0  0  0  0  0  0  0  0  0  0
   49.4600   29.4980   49.0800 C   0  0  0  0  0  0  0  0  0  0  0  0
   44.4708   36.9570   43.0304 H   0  0  0  0  0  0  0  0  0  0  0  0
   43.2295   36.5040   40.9067 H   0  0  0  0  0  0  0  0  0  0  0  0
   43.1716   34.1273   40.0359 H   0  0  0  0  0  0  0  0  0  0  0  0
   46.2019   31.3897   41.7083 H   0  0  0  0  0  0  0  0  0  0  0  0
   45.0815   34.0787   48.2465 H   0  0  0  0  0  0  0  0  0  0  0  0
   45.8618   32.7728   49.1784 H   0  0  0  0  0  0  0  0  0  0  0  0
   47.2272   29.7839   48.4301 H   0  0  0  0  0  0  0  0  0  0  0  0
   46.0381   30.8649   50.4637 H   0  0  0  0  0  0  0  0  0  0  0  0
   45.1414   31.7917   49.2133 H   0  0  0  0  0  0  0  0  0  0  0  0
   45.0848   29.9963   49.2133 H   0  0  0  0  0  0  0  0  0  0  0  0
   48.7609   31.8063   48.2227 H   0  0  0  0  0  0  0  0  0  0  0  0
   47.8038   32.2042   49.7795 H   0  0  0  0  0  0  0  0  0  0  0  0
   50.4882   32.0949   49.6925 H   0  0  0  0  0  0  0  0  0  0  0  0
   49.9341   31.7225   51.3667 H   0  0  0  0  0  0  0  0  0  0  0  0
   52.1493   30.7413   51.1423 H   0  0  0  0  0  0  0  0  0  0  0  0
   50.9863   29.3823   51.0649 H   0  0  0  0  0  0  0  0  0  0  0  0
   52.5025   30.6584   48.9102 H   0  0  0  0  0  0  0  0  0  0  0  0
   50.9087   29.0946   47.5723 H   0  0  0  0  0  0  0  0  0  0  0  0
   50.5668   30.8445   47.8678 H   0  0  0  0  0  0  0  0  0  0  0  0
   48.6731   29.2192   48.3637 H   0  0  0  0  0  0  0  0  0  0  0  0
   49.6588   28.6471   49.7482 H   0  0  0  0  0  0  0  0  0  0  0  0
  1  6  2  0
  2  1  1  0
  3  2  2  0
  3  4  1  0
  4  5  2  0
  5  6  1  0
  5  7  1  0
  7 17  1  0
  8  7  1  0
  8  9  2  0
  9 10  1  0
 10 11  1  0
 11 12  2  0
 11 13  1  0
 13 18  1  0
 14 13  1  0
 14 15  1  0
 16 14  2  0
 17 10  2  0
 17 16  1  0
 18 20  1  0
 18 19  1  0
 20 21  1  0
 21 22  1  0
 22 23  1  0
 24 23  1  0
 25 26  1  0
 25 24  1  0
 26 21  1  0
  1 27  1  0
  2 28  1  0
  3 29  1  0
  8 30  1  0
 15 31  1  0
 15 32  1  0
 18 33  1  6
 19 34  1  0
 19 35  1  0
 19 36  1  0
 20 37  1  0
 20 38  1  0
 22 39  1  0
 22 40  1  0
 23 41  1  0
 23 42  1  0
 24 43  1  0
 25 44  1  0
 25 45  1  0
 26 46  1  0
 26 47  1  0
M  ISO  8  27  14  28  14  29  14  30  14  33   8  34   8  35   8  36   8
M  ISO  8  37   8  38   8  39  13  40  13  41  13  42  13  43   5  44  13
M  ISO  3  45  13  46  13  47  13
M  END
>  <minimizedAffinity>  (1) 
-5.74706173

>  <minimizedRMSD>  (1) 
0.706961274

$$$$
