
     RDKit          3D

 42 45  0  0  1  0  0  0  0  0999 V2000
   44.4890   35.9690   42.6620 C   0  0  0  0  0  0  0  0  0  0  0  0
   43.7830   35.7420   41.4650 C   0  0  0  0  0  0  0  0  0  0  0  0
   43.7190   34.4260   40.9830 C   0  0  0  0  0  0  0  0  0  0  0  0
   44.3460   33.4600   41.7040 N   0  0  0  0  0  0  0  0  0  0  0  0
   45.0090   33.6850   42.8280 C   0  0  0  0  0  0  0  0  0  0  0  0
   45.0870   34.9520   43.3210 N   0  0  0  0  0  0  0  0  0  0  0  0
   45.6180   32.5980   43.4850 N   0  0  0  0  0  0  0  0  0  0  0  0
   46.1570   31.5170   42.8270 C   0  0  0  0  0  0  0  0  0  0  0  0
   46.6660   30.6320   43.6580 N   0  0  0  0  0  0  0  0  0  0  0  0
   46.4780   31.1110   44.9280 C   0  0  0  0  0  0  0  0  0  0  0  0
   46.8100   30.5990   46.1290 C   0  0  0  0  0  0  0  0  0  0  0  0
   47.3960   29.4990   46.2180 O   0  0  0  0  0  0  0  0  0  0  0  0
   46.4950   31.2990   47.2340 N   0  0  0  0  0  0  0  0  0  0  0  0
   45.8570   32.4900   47.0890 C   0  0  0  0  0  0  0  0  0  0  0  0
   45.5470   33.1930   48.2930 N   0  0  0  0  0  0  0  0  0  0  0  0
   45.5080   33.0360   45.8840 N   0  0  0  0  0  0  0  0  0  0  0  0
   45.8370   32.3080   44.7730 C   0  0  0  0  0  0  0  0  0  0  0  0
   46.8260   30.7980   48.5420 C   0  0  2  0  0  0  0  0  0  0  0  0
   45.6420   30.9450   49.4580 C   0  0  0  0  0  0  0  0  0  0  0  0
   48.1000   31.3410   49.0990 C   0  0  0  0  0  0  0  0  0  0  0  0
   48.6800   30.3340   49.9730 N   0  0  0  0  0  0  0  0  0  0  0  0
   51.8630   30.9990   51.5090 N   0  0  0  0  0  0  0  0  0  0  0  0
   50.8400   30.1650   51.3410 N   0  0  0  0  0  0  0  0  0  0  0  0
   49.9360   30.7430   50.5020 C   0  0  0  0  0  0  0  0  0  0  0  0
   50.4360   31.9970   50.1380 C   0  0  0  0  0  0  0  0  0  0  0  0
   51.6650   32.1420   50.7910 C   0  0  0  0  0  0  0  0  0  0  0  0
   44.5548   36.9897   43.0668 H   0  0  0  0  0  0  0  0  0  0  0  0
   43.2978   36.5690   40.9258 H   0  0  0  0  0  0  0  0  0  0  0  0
   43.1805   34.1849   40.0546 H   0  0  0  0  0  0  0  0  0  0  0  0
   46.1621   31.4050   41.7327 H   0  0  0  0  0  0  0  0  0  0  0  0
   45.0638   34.1015   48.2490 H   0  0  0  0  0  0  0  0  0  0  0  0
   45.8067   32.7914   49.2053 H   0  0  0  0  0  0  0  0  0  0  0  0
   47.0431   29.7240   48.4447 H   0  0  0  0  0  0  0  0  0  0  0  0
   45.9801   30.9030   50.5039 H   0  0  0  0  0  0  0  0  0  0  0  0
   45.1507   31.9110   49.2700 H   0  0  0  0  0  0  0  0  0  0  0  0
   44.9293   30.1284   49.2700 H   0  0  0  0  0  0  0  0  0  0  0  0
   48.7974   31.5689   48.2794 H   0  0  0  0  0  0  0  0  0  0  0  0
   47.9047   32.2656   49.6621 H   0  0  0  0  0  0  0  0  0  0  0  0
   48.2337   29.4301   50.1845 H   0  0  0  0  0  0  0  0  0  0  0  0
   52.6869   30.8088   52.0972 H   0  0  0  0  0  0  0  0  0  0  0  0
   49.9568   32.7269   49.4690 H   0  0  0  0  0  0  0  0  0  0  0  0
   52.3400   33.0088   50.7361 H   0  0  0  0  0  0  0  0  0  0  0  0
  1  6  2  0
  2  1  1  0
  3  2  2  0
  3  4  1  0
  4  5  2  0
  5  6  1  0
  5  7  1  0
  7 17  1  0
  8  7  1  0
  8  9  2  0
  9 10  1  0
 10 11  1  0
 11 12  2  0
 11 13  1  0
 13 18  1  0
 14 13  1  0
 14 15  1  0
 16 14  2  0
 17 10  2  0
 17 16  1  0
 18 20  1  0
 18 19  1  0
 20 21  1  0
 21 24  1  0
 23 22  1  0
 24 23  2  0
 25 24  1  0
 25 26  2  0
 26 22  1  0
  1 27  1  0
  2 28  1  0
  3 29  1  0
  8 30  1  0
 15 31  1  0
 15 32  1  0
 18 33  1  6
 19 34  1  0
 19 35  1  0
 19 36  1  0
 20 37  1  0
 20 38  1  0
 21 39  1  0
 22 40  1  0
 25 41  1  0
 26 42  1  0
M  ISO  8  27  14  28  14  29  14  30  14  33   8  34   8  35   8  36   8
M  ISO  5  37   8  38   8  40   9  41  14  42  14
M  END
>  <minimizedAffinity>  (1) 
-6.39737463

>  <minimizedRMSD>  (1) 
0.140256226

$$$$
