
     RDKit          3D

 47 49  0  0  1  0  0  0  0  0999 V2000
   45.3090   33.6840   41.2590 N   0  0  0  0  0  0  0  0  0  0  0  0
   44.9450   32.8370   42.3100 C   0  0  0  0  0  0  0  0  0  0  0  0
   45.5830   33.1510   43.6140 C   0  0  0  0  0  0  0  0  0  0  0  0
   45.9360   34.5520   43.8800 C   0  0  0  0  0  0  0  0  0  0  0  0
   45.9230   35.4460   42.6730 C   0  0  0  0  0  0  0  0  0  0  0  0
   46.3200   34.6720   41.4790 C   0  0  1  0  0  0  0  0  0  0  0  0
   47.5800   34.0260   41.5050 N   0  0  0  0  0  0  0  0  0  0  0  0
   47.6780   32.6670   41.3490 C   0  0  0  0  0  0  0  0  0  0  0  0
   48.8490   31.9510   41.3580 C   0  0  0  0  0  0  0  0  0  0  0  0
   48.8320   30.4760   41.1790 C   0  0  0  0  0  0  0  0  0  0  0  0
   50.0350   32.6360   41.5350 C   0  0  0  0  0  0  0  0  0  0  0  0
   51.0790   31.9450   41.5360 O   0  0  0  0  0  0  0  0  0  0  0  0
   49.9650   33.9700   41.6900 N   0  0  0  0  0  0  0  0  0  0  0  0
   48.7780   34.5880   41.6690 C   0  0  0  0  0  0  0  0  0  0  0  0
   48.8220   35.8350   41.8220 O   0  0  0  0  0  0  0  0  0  0  0  0
   44.1590   34.2650   40.6540 C   0  0  0  0  0  0  0  0  0  0  0  0
   43.3210   33.3060   39.8450 C   0  0  1  0  0  0  0  0  0  0  0  0
   41.2870   34.2140   38.5830 C   0  0  0  0  0  0  0  0  0  0  0  0
   41.9450   33.8250   39.7760 C   0  0  0  0  0  0  0  0  0  0  0  0
   41.2370   33.9610   40.9680 C   0  0  0  0  0  0  0  0  0  0  0  0
   39.9720   34.4490   40.9430 N   0  0  0  0  0  0  0  0  0  0  0  0
   39.3700   34.8120   39.7870 C   0  0  0  0  0  0  0  0  0  0  0  0
   40.0410   34.6910   38.5900 N   0  0  0  0  0  0  0  0  0  0  0  0
   43.9170   33.2380   38.4570 C   0  0  0  0  0  0  0  0  0  0  0  0
   43.8544   32.9009   42.4387 H   0  0  0  0  0  0  0  0  0  0  0  0
   45.2915   31.8311   42.0306 H   0  0  0  0  0  0  0  0  0  0  0  0
   44.8891   32.8308   44.4052 H   0  0  0  0  0  0  0  0  0  0  0  0
   46.5465   32.6209   43.5877 H   0  0  0  0  0  0  0  0  0  0  0  0
   45.2177   34.9529   44.6103 H   0  0  0  0  0  0  0  0  0  0  0  0
   46.9724   34.5451   44.2485 H   0  0  0  0  0  0  0  0  0  0  0  0
   44.9102   35.8499   42.5274 H   0  0  0  0  0  0  0  0  0  0  0  0
   46.6313   36.2740   42.8239 H   0  0  0  0  0  0  0  0  0  0  0  0
   46.4224   35.4160   40.6753 H   0  0  0  0  0  0  0  0  0  0  0  0
   46.7430   32.1057   41.2051 H   0  0  0  0  0  0  0  0  0  0  0  0
   48.8264   29.9871   42.1644 H   0  0  0  0  0  0  0  0  0  0  0  0
   47.9304   30.1848   40.6201 H   0  0  0  0  0  0  0  0  0  0  0  0
   49.7266   30.1641   40.6201 H   0  0  0  0  0  0  0  0  0  0  0  0
   50.8269   34.5174   41.8252 H   0  0  0  0  0  0  0  0  0  0  0  0
   43.5272   34.6842   41.4509 H   0  0  0  0  0  0  0  0  0  0  0  0
   44.5283   35.0255   39.9502 H   0  0  0  0  0  0  0  0  0  0  0  0
   43.3051   32.3047   40.3000 H   0  0  0  0  0  0  0  0  0  0  0  0
   41.8182   34.1201   37.6244 H   0  0  0  0  0  0  0  0  0  0  0  0
   41.7010   33.6744   41.9233 H   0  0  0  0  0  0  0  0  0  0  0  0
   38.3426   35.2046   39.8030 H   0  0  0  0  0  0  0  0  0  0  0  0
   45.0074   33.1136   38.5319 H   0  0  0  0  0  0  0  0  0  0  0  0
   43.4868   32.3831   37.9147 H   0  0  0  0  0  0  0  0  0  0  0  0
   43.6904   34.1678   37.9147 H   0  0  0  0  0  0  0  0  0  0  0  0
  1  6  1  0
  1  2  1  0
  2  3  1  0
  3  4  1  0
  5  4  1  0
  6  7  1  0
  6  5  1  0
  7 14  1  0
  8  9  2  0
  8  7  1  0
  9 11  1  0
 10  9  1  0
 11 12  2  0
 11 13  1  0
 14 13  1  0
 14 15  2  0
 16  1  1  0
 17 16  1  0
 18 23  2  0
 18 19  1  0
 19 17  1  0
 19 20  2  0
 21 20  1  0
 22 21  2  0
 23 22  1  0
 24 17  1  0
  2 25  1  0
  2 26  1  0
  3 27  1  0
  3 28  1  0
  4 29  1  0
  4 30  1  0
  5 31  1  0
  5 32  1  0
  6 33  1  6
  8 34  1  0
 10 35  1  0
 10 36  1  0
 10 37  1  0
 13 38  1  0
 16 39  1  0
 16 40  1  0
 17 41  1  1
 18 42  1  0
 20 43  1  0
 22 44  1  0
 24 45  1  0
 24 46  1  0
 24 47  1  0
M  ISO  8  25  13  26  13  27  13  28  13  29  13  30  13  31  13  32  13
M  ISO  8  33  13  34  14  35   8  36   8  37   8  38   9  39   8  40   8
M  ISO  7  41   8  42  14  43  14  44  14  45   8  46   8  47   8
M  END
>  <minimizedAffinity>  (1) 
-5.21003389

>  <minimizedRMSD>  (1) 
4.96586084

$$$$
