
     RDKit          3D

 40 43  0  0  1  0  0  0  0  0999 V2000
   44.3930   35.8970   42.4910 C   0  0  0  0  0  0  0  0  0  0  0  0
   43.6900   35.6280   41.2980 C   0  0  0  0  0  0  0  0  0  0  0  0
   43.6520   34.3000   40.8460 C   0  0  0  0  0  0  0  0  0  0  0  0
   44.2910   33.3450   41.5790 N   0  0  0  0  0  0  0  0  0  0  0  0
   44.9500   33.6270   42.7070 C   0  0  0  0  0  0  0  0  0  0  0  0
   45.0080   34.9080   43.1740 N   0  0  0  0  0  0  0  0  0  0  0  0
   45.5770   32.5510   43.3840 N   0  0  0  0  0  0  0  0  0  0  0  0
   46.1340   31.4740   42.7560 C   0  0  0  0  0  0  0  0  0  0  0  0
   46.6540   30.6120   43.6090 N   0  0  0  0  0  0  0  0  0  0  0  0
   46.4460   31.1140   44.8670 C   0  0  0  0  0  0  0  0  0  0  0  0
   46.7770   30.6310   46.0800 C   0  0  0  0  0  0  0  0  0  0  0  0
   47.3800   29.5430   46.1960 O   0  0  0  0  0  0  0  0  0  0  0  0
   46.4440   31.3440   47.1660 N   0  0  0  0  0  0  0  0  0  0  0  0
   45.7860   32.5260   46.9930 C   0  0  0  0  0  0  0  0  0  0  0  0
   45.4550   33.2470   48.1820 N   0  0  0  0  0  0  0  0  0  0  0  0
   45.4370   33.0410   45.7760 N   0  0  0  0  0  0  0  0  0  0  0  0
   45.7860   32.2980   44.6840 C   0  0  0  0  0  0  0  0  0  0  0  0
   46.7690   30.8800   48.4900 C   0  0  2  0  0  0  0  0  0  0  0  0
   45.5440   30.9180   49.3630 C   0  0  0  0  0  0  0  0  0  0  0  0
   47.9670   31.5380   49.0870 C   0  0  0  0  0  0  0  0  0  0  0  0
   48.6730   30.5520   49.8890 N   0  0  0  0  0  0  0  0  0  0  0  0
   49.9400   31.0090   50.3690 C   0  0  0  0  0  0  0  0  0  0  0  0
   50.3550   32.1150   49.7240 N   0  0  0  0  0  0  0  0  0  0  0  0
   51.5140   32.4990   50.1920 O   0  0  0  0  0  0  0  0  0  0  0  0
   51.8640   31.6590   51.1370 C   0  0  0  0  0  0  0  0  0  0  0  0
   50.9150   30.7330   51.2680 N   0  0  0  0  0  0  0  0  0  0  0  0
   44.4409   36.9283   42.8706 H   0  0  0  0  0  0  0  0  0  0  0  0
   43.1882   36.4326   40.7404 H   0  0  0  0  0  0  0  0  0  0  0  0
   43.1185   34.0358   39.9210 H   0  0  0  0  0  0  0  0  0  0  0  0
   46.1476   31.3403   41.6642 H   0  0  0  0  0  0  0  0  0  0  0  0
   44.9578   34.1467   48.1171 H   0  0  0  0  0  0  0  0  0  0  0  0
   45.7137   32.8668   49.1037 H   0  0  0  0  0  0  0  0  0  0  0  0
   47.0842   29.8293   48.4086 H   0  0  0  0  0  0  0  0  0  0  0  0
   45.8469   30.9086   50.4204 H   0  0  0  0  0  0  0  0  0  0  0  0
   44.9726   31.8343   49.1534 H   0  0  0  0  0  0  0  0  0  0  0  0
   44.9169   30.0389   49.1534 H   0  0  0  0  0  0  0  0  0  0  0  0
   48.6255   31.9088   48.2877 H   0  0  0  0  0  0  0  0  0  0  0  0
   47.6612   32.3892   49.7130 H   0  0  0  0  0  0  0  0  0  0  0  0
   48.2968   29.6148   50.0918 H   0  0  0  0  0  0  0  0  0  0  0  0
   52.7914   31.7108   51.7262 H   0  0  0  0  0  0  0  0  0  0  0  0
  1  6  2  0
  2  1  1  0
  3  2  2  0
  3  4  1  0
  4  5  2  0
  5  6  1  0
  5  7  1  0
  7 17  1  0
  8  7  1  0
  8  9  2  0
  9 10  1  0
 10 11  1  0
 11 12  2  0
 11 13  1  0
 13 18  1  0
 14 13  1  0
 14 15  1  0
 16 14  2  0
 17 10  2  0
 17 16  1  0
 18 20  1  0
 18 19  1  0
 20 21  1  0
 21 22  1  0
 22 26  1  0
 23 24  1  0
 23 22  2  0
 24 25  1  0
 25 26  2  0
  1 27  1  0
  2 28  1  0
  3 29  1  0
  8 30  1  0
 15 31  1  0
 15 32  1  0
 18 33  1  6
 19 34  1  0
 19 35  1  0
 19 36  1  0
 20 37  1  0
 20 38  1  0
 21 39  1  0
 25 40  1  0
M  ISO  8  27  14  28  14  29  14  30  14  33   8  34   8  35   8  36   8
M  ISO  3  37   8  38   8  40  14
M  END
>  <minimizedAffinity>  (1) 
-6.30266953

>  <minimizedRMSD>  (1) 
1.93161535

$$$$
