
     RDKit          3D

 42 45  0  0  1  0  0  0  0  0999 V2000
   44.5030   35.9920   42.6330 C   0  0  0  0  0  0  0  0  0  0  0  0
   43.7830   35.7550   41.4300 C   0  0  0  0  0  0  0  0  0  0  0  0
   43.7130   34.4460   40.9660 C   0  0  0  0  0  0  0  0  0  0  0  0
   44.3270   33.4570   41.6750 N   0  0  0  0  0  0  0  0  0  0  0  0
   45.0010   33.7010   42.8070 C   0  0  0  0  0  0  0  0  0  0  0  0
   45.0950   34.9740   43.2970 N   0  0  0  0  0  0  0  0  0  0  0  0
   45.6040   32.6060   43.4680 N   0  0  0  0  0  0  0  0  0  0  0  0
   46.1440   31.5310   42.8210 C   0  0  0  0  0  0  0  0  0  0  0  0
   46.6410   30.6520   43.6570 N   0  0  0  0  0  0  0  0  0  0  0  0
   46.4480   31.1180   44.9250 C   0  0  0  0  0  0  0  0  0  0  0  0
   46.7600   30.6170   46.1310 C   0  0  0  0  0  0  0  0  0  0  0  0
   47.3440   29.5150   46.2210 O   0  0  0  0  0  0  0  0  0  0  0  0
   46.4370   31.3170   47.2340 N   0  0  0  0  0  0  0  0  0  0  0  0
   45.8040   32.5090   47.0810 C   0  0  0  0  0  0  0  0  0  0  0  0
   45.4860   33.2110   48.2720 N   0  0  0  0  0  0  0  0  0  0  0  0
   45.4730   33.0440   45.8640 N   0  0  0  0  0  0  0  0  0  0  0  0
   45.8110   32.3140   44.7600 C   0  0  0  0  0  0  0  0  0  0  0  0
   46.7540   30.8150   48.5410 C   0  0  2  0  0  0  0  0  0  0  0  0
   45.5630   30.9510   49.4570 C   0  0  0  0  0  0  0  0  0  0  0  0
   48.0060   31.3690   49.1280 C   0  0  0  0  0  0  0  0  0  0  0  0
   48.6700   30.3140   49.8680 N   0  0  0  0  0  0  0  0  0  0  0  0
   49.8930   30.6070   50.5360 C   0  0  0  0  0  0  0  0  0  0  0  0
   50.5850   31.7490   50.5390 C   0  0  0  0  0  0  0  0  0  0  0  0
   51.7480   31.8750   51.2320 C   0  0  0  0  0  0  0  0  0  0  0  0
   52.1380   30.6300   51.9580 C   0  0  0  0  0  0  0  0  0  0  0  0
   50.7680   29.4580   51.5330 S   0  0  0  0  0  0  0  0  0  0  0  0
   44.5792   37.0158   43.0281 H   0  0  0  0  0  0  0  0  0  0  0  0
   43.2982   36.5786   40.8853 H   0  0  0  0  0  0  0  0  0  0  0  0
   43.1692   34.2118   40.0389 H   0  0  0  0  0  0  0  0  0  0  0  0
   46.1600   31.4164   41.7271 H   0  0  0  0  0  0  0  0  0  0  0  0
   45.0057   34.1207   48.2210 H   0  0  0  0  0  0  0  0  0  0  0  0
   45.7354   32.8110   49.1878 H   0  0  0  0  0  0  0  0  0  0  0  0
   46.9779   29.7447   48.4213 H   0  0  0  0  0  0  0  0  0  0  0  0
   45.8992   30.9126   50.5037 H   0  0  0  0  0  0  0  0  0  0  0  0
   45.0626   31.9121   49.2676 H   0  0  0  0  0  0  0  0  0  0  0  0
   44.8588   30.1274   49.2676 H   0  0  0  0  0  0  0  0  0  0  0  0
   48.6647   31.7306   48.3247 H   0  0  0  0  0  0  0  0  0  0  0  0
   47.7701   32.2095   49.7973 H   0  0  0  0  0  0  0  0  0  0  0  0
   48.2640   29.3683   49.9099 H   0  0  0  0  0  0  0  0  0  0  0  0
   50.2051   32.6084   49.9671 H   0  0  0  0  0  0  0  0  0  0  0  0
   52.3417   32.8008   51.2554 H   0  0  0  0  0  0  0  0  0  0  0  0
   53.0210   30.4525   52.5895 H   0  0  0  0  0  0  0  0  0  0  0  0
  1  6  2  0
  2  1  1  0
  3  2  2  0
  3  4  1  0
  4  5  2  0
  5  6  1  0
  5  7  1  0
  7 17  1  0
  8  7  1  0
  8  9  2  0
  9 10  1  0
 10 11  1  0
 11 12  2  0
 11 13  1  0
 13 18  1  0
 14 13  1  0
 14 15  1  0
 16 14  2  0
 17 10  2  0
 17 16  1  0
 18 20  1  0
 18 19  1  0
 20 21  1  0
 21 22  1  0
 22 23  2  0
 22 26  1  0
 23 24  1  0
 24 25  2  0
 26 25  1  0
  1 27  1  0
  2 28  1  0
  3 29  1  0
  8 30  1  0
 15 31  1  0
 15 32  1  0
 18 33  1  6
 19 34  1  0
 19 35  1  0
 19 36  1  0
 20 37  1  0
 20 38  1  0
 21 39  1  0
 23 40  1  0
 24 41  1  0
 25 42  1  0
M  ISO  8  27  14  28  14  29  14  30  14  33   8  34   8  35   8  36   8
M  ISO  5  37   8  38   8  40  14  41  14  42  14
M  END
>  <minimizedAffinity>  (1) 
-6.16108131

>  <minimizedRMSD>  (1) 
0.156253278

$$$$
