
     RDKit          3D

 47 50  0  0  1  0  0  0  0  0999 V2000
   44.4650   35.9510   42.6330 C   0  0  0  0  0  0  0  0  0  0  0  0
   43.7580   35.7070   41.4400 C   0  0  0  0  0  0  0  0  0  0  0  0
   43.7030   34.3920   40.9620 C   0  0  0  0  0  0  0  0  0  0  0  0
   44.3320   33.4200   41.6700 N   0  0  0  0  0  0  0  0  0  0  0  0
   44.9970   33.6690   42.7970 C   0  0  0  0  0  0  0  0  0  0  0  0
   45.0690   34.9350   43.2880 N   0  0  0  0  0  0  0  0  0  0  0  0
   45.6240   32.5710   43.4580 N   0  0  0  0  0  0  0  0  0  0  0  0
   46.1650   31.5090   42.8050 C   0  0  0  0  0  0  0  0  0  0  0  0
   46.6910   30.6290   43.6400 N   0  0  0  0  0  0  0  0  0  0  0  0
   46.5060   31.0980   44.9100 C   0  0  0  0  0  0  0  0  0  0  0  0
   46.8380   30.6090   46.1170 C   0  0  0  0  0  0  0  0  0  0  0  0
   47.4340   29.5270   46.2100 O   0  0  0  0  0  0  0  0  0  0  0  0
   46.5080   31.3240   47.2260 N   0  0  0  0  0  0  0  0  0  0  0  0
   45.8580   32.5010   47.0710 C   0  0  0  0  0  0  0  0  0  0  0  0
   45.5360   33.1960   48.2740 N   0  0  0  0  0  0  0  0  0  0  0  0
   45.5050   33.0280   45.8590 N   0  0  0  0  0  0  0  0  0  0  0  0
   45.8460   32.2950   44.7570 C   0  0  0  0  0  0  0  0  0  0  0  0
   46.8420   30.8410   48.5300 C   0  0  2  0  0  0  0  0  0  0  0  0
   45.6500   30.9040   49.4310 C   0  0  0  0  0  0  0  0  0  0  0  0
   48.1020   31.4260   49.0950 C   0  0  0  0  0  0  0  0  0  0  0  0
   48.7620   30.4120   49.9050 N   0  0  0  0  0  0  0  0  0  0  0  0
   50.5700   30.3520   51.5640 N   0  0  0  0  0  0  0  0  0  0  0  0
   51.6530   31.3370   51.8170 C   0  0  0  0  0  0  0  0  0  0  0  0
   52.0290   31.8920   50.4410 C   0  0  0  0  0  0  0  0  0  0  0  0
   51.1200   31.0890   49.5020 C   0  0  0  0  0  0  0  0  0  0  0  0
   49.9160   30.9900   50.4600 C   0  0  1  0  0  0  0  0  0  0  0  0
   44.5260   36.9736   43.0337 H   0  0  0  0  0  0  0  0  0  0  0  0
   43.2627   36.5265   40.8986 H   0  0  0  0  0  0  0  0  0  0  0  0
   43.1626   34.1524   40.0343 H   0  0  0  0  0  0  0  0  0  0  0  0
   46.1653   31.3950   41.7109 H   0  0  0  0  0  0  0  0  0  0  0  0
   45.0413   34.0984   48.2308 H   0  0  0  0  0  0  0  0  0  0  0  0
   45.7982   32.7956   49.1860 H   0  0  0  0  0  0  0  0  0  0  0  0
   47.1051   29.7770   48.4369 H   0  0  0  0  0  0  0  0  0  0  0  0
   45.9817   30.8865   50.4797 H   0  0  0  0  0  0  0  0  0  0  0  0
   45.0932   31.8328   49.2380 H   0  0  0  0  0  0  0  0  0  0  0  0
   44.9984   30.0390   49.2380 H   0  0  0  0  0  0  0  0  0  0  0  0
   48.7668   31.7361   48.2753 H   0  0  0  0  0  0  0  0  0  0  0  0
   47.8645   32.3047   49.7127 H   0  0  0  0  0  0  0  0  0  0  0  0
   48.1311   30.0984   50.6564 H   0  0  0  0  0  0  0  0  0  0  0  0
   50.9448   29.4280   51.3057 H   0  0  0  0  0  0  0  0  0  0  0  0
   51.2935   32.1441   52.4722 H   0  0  0  0  0  0  0  0  0  0  0  0
   52.5151   30.8758   52.3211 H   0  0  0  0  0  0  0  0  0  0  0  0
   51.8169   32.9693   50.3750 H   0  0  0  0  0  0  0  0  0  0  0  0
   53.0991   31.7952   50.2056 H   0  0  0  0  0  0  0  0  0  0  0  0
   50.8803   31.6349   48.5776 H   0  0  0  0  0  0  0  0  0  0  0  0
   51.5225   30.1423   49.1125 H   0  0  0  0  0  0  0  0  0  0  0  0
   49.4231   31.9292   50.7515 H   0  0  0  0  0  0  0  0  0  0  0  0
  1  6  2  0
  2  1  1  0
  3  2  2  0
  3  4  1  0
  4  5  2  0
  5  6  1  0
  5  7  1  0
  7 17  1  0
  8  7  1  0
  8  9  2  0
  9 10  1  0
 10 11  1  0
 11 12  2  0
 11 13  1  0
 13 18  1  0
 14 13  1  0
 14 15  1  0
 16 14  2  0
 17 10  2  0
 17 16  1  0
 18 20  1  0
 18 19  1  0
 20 21  1  0
 22 23  1  0
 24 23  1  0
 25 24  1  0
 25 26  1  0
 26 21  1  0
 26 22  1  0
  1 27  1  0
  2 28  1  0
  3 29  1  0
  8 30  1  0
 15 31  1  0
 15 32  1  0
 18 33  1  6
 19 34  1  0
 19 35  1  0
 19 36  1  0
 20 37  1  0
 20 38  1  0
 21 39  1  0
 22 40  1  0
 23 41  1  0
 23 42  1  0
 24 43  1  0
 24 44  1  0
 25 45  1  0
 25 46  1  0
 26 47  1  1
M  ISO  8  27  14  28  14  29  14  30  14  33   8  34   8  35   8  36   8
M  ISO  8  37   8  38   8  39   5  40   5  41  13  42  13  43  13  44  13
M  ISO  3  45  13  46  13  47  13
M  END
>  <minimizedAffinity>  (1) 
-6.1283288

>  <minimizedRMSD>  (1) 
0.282801449

$$$$
