
     RDKit          3D

 47 49  0  0  1  0  0  0  0  0999 V2000
   44.4540   35.9730   42.6050 C   0  0  0  0  0  0  0  0  0  0  0  0
   43.7510   35.7220   41.3920 C   0  0  0  0  0  0  0  0  0  0  0  0
   43.7110   34.4080   40.9170 C   0  0  0  0  0  0  0  0  0  0  0  0
   44.3460   33.4460   41.6390 N   0  0  0  0  0  0  0  0  0  0  0  0
   45.0000   33.6850   42.7670 C   0  0  0  0  0  0  0  0  0  0  0  0
   45.0600   34.9610   43.2640 N   0  0  0  0  0  0  0  0  0  0  0  0
   45.6220   32.6120   43.4310 N   0  0  0  0  0  0  0  0  0  0  0  0
   46.1810   31.5450   42.7820 C   0  0  0  0  0  0  0  0  0  0  0  0
   46.7020   30.6690   43.6200 N   0  0  0  0  0  0  0  0  0  0  0  0
   46.4970   31.1400   44.8840 C   0  0  0  0  0  0  0  0  0  0  0  0
   46.8270   30.6390   46.0880 C   0  0  0  0  0  0  0  0  0  0  0  0
   47.4330   29.5510   46.1850 O   0  0  0  0  0  0  0  0  0  0  0  0
   46.4920   31.3330   47.1920 N   0  0  0  0  0  0  0  0  0  0  0  0
   45.8360   32.5120   47.0420 C   0  0  0  0  0  0  0  0  0  0  0  0
   45.5070   33.2110   48.2360 N   0  0  0  0  0  0  0  0  0  0  0  0
   45.4850   33.0490   45.8230 N   0  0  0  0  0  0  0  0  0  0  0  0
   45.8360   32.3250   44.7220 C   0  0  0  0  0  0  0  0  0  0  0  0
   46.8210   30.8430   48.5020 C   0  0  2  0  0  0  0  0  0  0  0  0
   45.6100   30.9300   49.3960 C   0  0  0  0  0  0  0  0  0  0  0  0
   48.0600   31.4270   49.0910 C   0  0  0  0  0  0  0  0  0  0  0  0
   48.6170   30.4600   50.0210 N   0  0  0  0  0  0  0  0  0  0  0  0
   50.0290   30.5330   50.1680 C   0  0  0  0  0  0  0  0  0  0  0  0
   50.5710   31.8920   50.4350 C   0  0  0  0  0  0  0  0  0  0  0  0
   50.4750   29.5990   51.2850 C   0  0  0  0  0  0  0  0  0  0  0  0
   50.6480   29.9690   48.9060 C   0  0  0  0  0  0  0  0  0  0  0  0
   44.5038   36.9956   43.0072 H   0  0  0  0  0  0  0  0  0  0  0  0
   43.2546   36.5375   40.8456 H   0  0  0  0  0  0  0  0  0  0  0  0
   43.1810   34.1590   39.9858 H   0  0  0  0  0  0  0  0  0  0  0  0
   46.1945   31.4307   41.6880 H   0  0  0  0  0  0  0  0  0  0  0  0
   45.0091   34.1112   48.1852 H   0  0  0  0  0  0  0  0  0  0  0  0
   45.7666   32.8170   49.1516 H   0  0  0  0  0  0  0  0  0  0  0  0
   47.0911   29.7816   48.3996 H   0  0  0  0  0  0  0  0  0  0  0  0
   45.9289   30.9071   50.4485 H   0  0  0  0  0  0  0  0  0  0  0  0
   45.0732   31.8690   49.1959 H   0  0  0  0  0  0  0  0  0  0  0  0
   44.9445   30.0774   49.1959 H   0  0  0  0  0  0  0  0  0  0  0  0
   48.7875   31.6394   48.2938 H   0  0  0  0  0  0  0  0  0  0  0  0
   47.8274   32.3671   49.6127 H   0  0  0  0  0  0  0  0  0  0  0  0
   48.1884   30.6171   50.9443 H   0  0  0  0  0  0  0  0  0  0  0  0
   50.6357   32.0541   51.5211 H   0  0  0  0  0  0  0  0  0  0  0  0
   51.5734   31.9808   49.9907 H   0  0  0  0  0  0  0  0  0  0  0  0
   49.9049   32.6462   49.9907 H   0  0  0  0  0  0  0  0  0  0  0  0
   50.2546   30.0606   52.2588 H   0  0  0  0  0  0  0  0  0  0  0  0
   49.9358   28.6439   51.2015 H   0  0  0  0  0  0  0  0  0  0  0  0
   51.5568   29.4179   51.2015 H   0  0  0  0  0  0  0  0  0  0  0  0
   51.4366   29.2505   49.1739 H   0  0  0  0  0  0  0  0  0  0  0  0
   49.8736   29.4596   48.3138 H   0  0  0  0  0  0  0  0  0  0  0  0
   51.0834   30.7874   48.3138 H   0  0  0  0  0  0  0  0  0  0  0  0
  1  6  2  0
  2  1  1  0
  3  2  2  0
  3  4  1  0
  4  5  2  0
  5  6  1  0
  5  7  1  0
  7 17  1  0
  8  7  1  0
  8  9  2  0
  9 10  1  0
 10 11  1  0
 11 12  2  0
 11 13  1  0
 13 18  1  0
 14 13  1  0
 14 15  1  0
 16 14  2  0
 17 10  2  0
 17 16  1  0
 18 20  1  0
 18 19  1  0
 20 21  1  0
 21 22  1  0
 22 23  1  0
 22 24  1  0
 25 22  1  0
  1 26  1  0
  2 27  1  0
  3 28  1  0
  8 29  1  0
 15 30  1  0
 15 31  1  0
 18 32  1  6
 19 33  1  0
 19 34  1  0
 19 35  1  0
 20 36  1  0
 20 37  1  0
 21 38  1  0
 23 39  1  0
 23 40  1  0
 23 41  1  0
 24 42  1  0
 24 43  1  0
 24 44  1  0
 25 45  1  0
 25 46  1  0
 25 47  1  0
M  ISO  8  26  14  27  14  28  14  29  14  32   8  33   8  34   8  35   8
M  ISO  8  36   8  37   8  38   5  39   8  40   8  41   8  42   8  43   8
M  ISO  4  44   8  45   8  46   8  47   8
M  END
>  <minimizedAffinity>  (1) 
-5.9587388

>  <minimizedRMSD>  (1) 
0.335103273

$$$$
