
     RDKit          3D

 38 40  0  0  1  0  0  0  0  0999 V2000
   44.3860   35.8990   42.4870 C   0  0  0  0  0  0  0  0  0  0  0  0
   43.6860   35.6250   41.2830 C   0  0  0  0  0  0  0  0  0  0  0  0
   43.6540   34.2980   40.8330 C   0  0  0  0  0  0  0  0  0  0  0  0
   44.2930   33.3440   41.5660 N   0  0  0  0  0  0  0  0  0  0  0  0
   44.9460   33.6220   42.6970 C   0  0  0  0  0  0  0  0  0  0  0  0
   44.9960   34.9040   43.1650 N   0  0  0  0  0  0  0  0  0  0  0  0
   45.5730   32.5570   43.3810 N   0  0  0  0  0  0  0  0  0  0  0  0
   46.1390   31.4750   42.7540 C   0  0  0  0  0  0  0  0  0  0  0  0
   46.6580   30.6220   43.6150 N   0  0  0  0  0  0  0  0  0  0  0  0
   46.4500   31.1180   44.8670 C   0  0  0  0  0  0  0  0  0  0  0  0
   46.7740   30.6500   46.0830 C   0  0  0  0  0  0  0  0  0  0  0  0
   47.3830   29.5650   46.2010 O   0  0  0  0  0  0  0  0  0  0  0  0
   46.4330   31.3710   47.1760 N   0  0  0  0  0  0  0  0  0  0  0  0
   45.7750   32.5400   46.9930 C   0  0  0  0  0  0  0  0  0  0  0  0
   45.4430   33.2560   48.1750 N   0  0  0  0  0  0  0  0  0  0  0  0
   45.4290   33.0460   45.7650 N   0  0  0  0  0  0  0  0  0  0  0  0
   45.7870   32.2960   44.6800 C   0  0  0  0  0  0  0  0  0  0  0  0
   46.7660   30.8950   48.4900 C   0  0  2  0  0  0  0  0  0  0  0  0
   45.5320   30.9310   49.3700 C   0  0  0  0  0  0  0  0  0  0  0  0
   47.9520   31.5600   49.1020 C   0  0  0  0  0  0  0  0  0  0  0  0
   48.6580   30.5740   49.9050 N   0  0  0  0  0  0  0  0  0  0  0  0
   50.0260   31.0830   50.0730 C   0  0  0  0  0  0  0  0  0  0  0  0
   50.9130   30.2750   49.4110 F   0  0  0  0  0  0  0  0  0  0  0  0
   50.0990   32.3770   49.6000 F   0  0  0  0  0  0  0  0  0  0  0  0
   50.3940   31.1110   51.4040 F   0  0  0  0  0  0  0  0  0  0  0  0
   44.4317   36.9291   42.8701 H   0  0  0  0  0  0  0  0  0  0  0  0
   43.1852   36.4276   40.7217 H   0  0  0  0  0  0  0  0  0  0  0  0
   43.1236   34.0323   39.9067 H   0  0  0  0  0  0  0  0  0  0  0  0
   46.1574   31.3361   41.6630 H   0  0  0  0  0  0  0  0  0  0  0  0
   44.9419   34.1535   48.1098 H   0  0  0  0  0  0  0  0  0  0  0  0
   45.7035   32.8773   49.0968 H   0  0  0  0  0  0  0  0  0  0  0  0
   47.0928   29.8494   48.3904 H   0  0  0  0  0  0  0  0  0  0  0  0
   45.8353   30.9222   50.4273 H   0  0  0  0  0  0  0  0  0  0  0  0
   44.9589   31.8462   49.1606 H   0  0  0  0  0  0  0  0  0  0  0  0
   44.9065   30.0507   49.1606 H   0  0  0  0  0  0  0  0  0  0  0  0
   48.6151   31.9411   48.3114 H   0  0  0  0  0  0  0  0  0  0  0  0
   47.6335   32.4054   49.7295 H   0  0  0  0  0  0  0  0  0  0  0  0
   48.2016   30.4680   50.8223 H   0  0  0  0  0  0  0  0  0  0  0  0
  1  6  2  0
  2  1  1  0
  3  2  2  0
  3  4  1  0
  4  5  2  0
  5  6  1  0
  5  7  1  0
  7 17  1  0
  8  7  1  0
  8  9  2  0
  9 10  1  0
 10 11  1  0
 11 12  2  0
 11 13  1  0
 13 18  1  0
 14 13  1  0
 14 15  1  0
 16 14  2  0
 17 10  2  0
 17 16  1  0
 18 20  1  0
 18 19  1  0
 20 21  1  0
 21 22  1  0
 22 25  1  0
 23 22  1  0
 24 22  1  0
  1 26  1  0
  2 27  1  0
  3 28  1  0
  8 29  1  0
 15 30  1  0
 15 31  1  0
 18 32  1  6
 19 33  1  0
 19 34  1  0
 19 35  1  0
 20 36  1  0
 20 37  1  0
 21 38  1  0
M  ISO  8  26  14  27  14  28  14  29  14  32   8  33   8  34   8  35   8
M  ISO  3  36   8  37   8  38   5
M  END
>  <minimizedAffinity>  (1) 
-5.87046051

>  <minimizedRMSD>  (1) 
0.330178142

$$$$
