
     RDKit          3D

 44 46  0  0  1  0  0  0  0  0999 V2000
   44.4790   35.9690   42.6300 C   0  0  0  0  0  0  0  0  0  0  0  0
   43.7610   35.7400   41.4400 C   0  0  0  0  0  0  0  0  0  0  0  0
   43.7010   34.4370   40.9750 C   0  0  0  0  0  0  0  0  0  0  0  0
   44.3290   33.4580   41.6820 N   0  0  0  0  0  0  0  0  0  0  0  0
   45.0040   33.6940   42.8070 C   0  0  0  0  0  0  0  0  0  0  0  0
   45.0880   34.9610   43.2990 N   0  0  0  0  0  0  0  0  0  0  0  0
   45.6190   32.6000   43.4610 N   0  0  0  0  0  0  0  0  0  0  0  0
   46.1610   31.5280   42.8120 C   0  0  0  0  0  0  0  0  0  0  0  0
   46.6680   30.6540   43.6490 N   0  0  0  0  0  0  0  0  0  0  0  0
   46.4760   31.1210   44.9180 C   0  0  0  0  0  0  0  0  0  0  0  0
   46.7990   30.6200   46.1210 C   0  0  0  0  0  0  0  0  0  0  0  0
   47.3900   29.5220   46.2070 O   0  0  0  0  0  0  0  0  0  0  0  0
   46.4790   31.3150   47.2220 N   0  0  0  0  0  0  0  0  0  0  0  0
   45.8350   32.5070   47.0770 C   0  0  0  0  0  0  0  0  0  0  0  0
   45.5160   33.2070   48.2720 N   0  0  0  0  0  0  0  0  0  0  0  0
   45.4910   33.0460   45.8600 N   0  0  0  0  0  0  0  0  0  0  0  0
   45.8320   32.3130   44.7520 C   0  0  0  0  0  0  0  0  0  0  0  0
   46.8030   30.8180   48.5310 C   0  0  2  0  0  0  0  0  0  0  0  0
   45.6070   30.9400   49.4410 C   0  0  0  0  0  0  0  0  0  0  0  0
   48.0610   31.3800   49.1070 C   0  0  0  0  0  0  0  0  0  0  0  0
   48.6350   30.4000   49.9930 N   0  0  0  0  0  0  0  0  0  0  0  0
   50.0400   30.5310   50.2010 C   0  0  0  0  0  0  0  0  0  0  0  0
   50.5550   31.9120   50.4090 C   0  0  0  0  0  0  0  0  0  0  0  0
   50.4780   29.6090   51.3440 C   0  0  0  0  0  0  0  0  0  0  0  0
   44.5469   36.9929   43.0262 H   0  0  0  0  0  0  0  0  0  0  0  0
   43.2679   36.5629   40.9018 H   0  0  0  0  0  0  0  0  0  0  0  0
   43.1554   34.1973   40.0504 H   0  0  0  0  0  0  0  0  0  0  0  0
   46.1714   31.4111   41.7183 H   0  0  0  0  0  0  0  0  0  0  0  0
   45.0292   34.1134   48.2236 H   0  0  0  0  0  0  0  0  0  0  0  0
   45.7716   32.8079   49.1865 H   0  0  0  0  0  0  0  0  0  0  0  0
   47.0378   29.7484   48.4266 H   0  0  0  0  0  0  0  0  0  0  0  0
   45.9388   30.9061   50.4892 H   0  0  0  0  0  0  0  0  0  0  0  0
   45.0959   31.8949   49.2488 H   0  0  0  0  0  0  0  0  0  0  0  0
   44.9137   30.1079   49.2488 H   0  0  0  0  0  0  0  0  0  0  0  0
   48.7699   31.6090   48.2976 H   0  0  0  0  0  0  0  0  0  0  0  0
   47.8422   32.3057   49.6595 H   0  0  0  0  0  0  0  0  0  0  0  0
   48.1669   30.4813   50.9069 H   0  0  0  0  0  0  0  0  0  0  0  0
   50.4957   30.2287   49.2466 H   0  0  0  0  0  0  0  0  0  0  0  0
   50.6312   32.1164   51.4872 H   0  0  0  0  0  0  0  0  0  0  0  0
   51.5487   32.0063   49.9468 H   0  0  0  0  0  0  0  0  0  0  0  0
   49.8656   32.6339   49.9468 H   0  0  0  0  0  0  0  0  0  0  0  0
   50.2509   30.0871   52.3083 H   0  0  0  0  0  0  0  0  0  0  0  0
   49.9375   28.6537   51.2721 H   0  0  0  0  0  0  0  0  0  0  0  0
   51.5600   29.4244   51.2721 H   0  0  0  0  0  0  0  0  0  0  0  0
  1  6  2  0
  2  1  1  0
  3  2  2  0
  3  4  1  0
  4  5  2  0
  5  6  1  0
  5  7  1  0
  7 17  1  0
  8  7  1  0
  8  9  2  0
  9 10  1  0
 10 11  1  0
 11 12  2  0
 11 13  1  0
 13 18  1  0
 14 13  1  0
 14 15  1  0
 16 14  2  0
 17 10  2  0
 17 16  1  0
 18 20  1  0
 18 19  1  0
 20 21  1  0
 21 22  1  0
 22 23  1  0
 22 24  1  0
  1 25  1  0
  2 26  1  0
  3 27  1  0
  8 28  1  0
 15 29  1  0
 15 30  1  0
 18 31  1  6
 19 32  1  0
 19 33  1  0
 19 34  1  0
 20 35  1  0
 20 36  1  0
 21 37  1  0
 22 38  1  0
 23 39  1  0
 23 40  1  0
 23 41  1  0
 24 42  1  0
 24 43  1  0
 24 44  1  0
M  ISO  8  25  14  26  14  27  14  28  14  31   8  32   8  33   8  34   8
M  ISO  8  35   8  36   8  37   5  38   8  39   8  40   8  41   8  42   8
M  ISO  2  43   8  44   8
M  END
>  <minimizedAffinity>  (1) 
-5.81792831

>  <minimizedRMSD>  (1) 
0.254407436

$$$$
