
     RDKit          3D

 37 40  0  0  1  0  0  0  0  0999 V2000
   47.0480   34.3300   42.2020 C   0  0  1  0  0  0  0  0  0  0  0  0
   46.3790   34.3580   40.8710 C   0  0  1  0  0  0  0  0  0  0  0  0
   47.5220   34.1590   39.9380 C   0  0  0  0  0  0  0  0  0  0  0  0
   48.5210   35.1730   40.5260 C   0  0  0  0  0  0  0  0  0  0  0  0
   48.1560   35.3520   41.9820 C   0  0  0  0  0  0  0  0  0  0  0  0
   45.1630   33.6260   40.6840 C   0  0  0  0  0  0  0  0  0  0  0  0
   45.0530   32.2230   40.6210 C   0  0  0  0  0  0  0  0  0  0  0  0
   43.7830   31.8230   40.4540 N   0  0  0  0  0  0  0  0  0  0  0  0
   42.9820   32.8980   40.3950 C   0  0  0  0  0  0  0  0  0  0  0  0
   41.6270   33.0610   40.2350 C   0  0  0  0  0  0  0  0  0  0  0  0
   41.0490   34.3140   40.2050 C   0  0  0  0  0  0  0  0  0  0  0  0
   41.8930   35.3970   40.3450 C   0  0  0  0  0  0  0  0  0  0  0  0
   43.2370   35.2120   40.5040 C   0  0  0  0  0  0  0  0  0  0  0  0
   43.8240   33.9710   40.5340 C   0  0  0  0  0  0  0  0  0  0  0  0
   44.6130   36.0410   44.5500 C   0  0  0  0  0  0  0  0  0  0  0  0
   45.3900   35.8060   43.4030 C   0  0  0  0  0  0  0  0  0  0  0  0
   46.2060   34.6570   43.3510 C   0  0  0  0  0  0  0  0  0  0  0  0
   46.1930   33.8370   44.4210 N   0  0  0  0  0  0  0  0  0  0  0  0
   45.4310   34.0880   45.5190 C   0  0  0  0  0  0  0  0  0  0  0  0
   44.6470   35.1890   45.5750 N   0  0  0  0  0  0  0  0  0  0  0  0
   47.3778   33.3183   42.4807 H   0  0  0  0  0  0  0  0  0  0  0  0
   45.8547   35.3053   40.6769 H   0  0  0  0  0  0  0  0  0  0  0  0
   47.2511   34.4061   38.9009 H   0  0  0  0  0  0  0  0  0  0  0  0
   47.8933   33.1257   39.8713 H   0  0  0  0  0  0  0  0  0  0  0  0
   49.5476   34.7880   40.4376 H   0  0  0  0  0  0  0  0  0  0  0  0
   48.4745   36.1307   39.9869 H   0  0  0  0  0  0  0  0  0  0  0  0
   49.0185   35.1422   42.6317 H   0  0  0  0  0  0  0  0  0  0  0  0
   47.8435   36.3792   42.2211 H   0  0  0  0  0  0  0  0  0  0  0  0
   45.9082   31.5357   40.6995 H   0  0  0  0  0  0  0  0  0  0  0  0
   43.4717   30.8438   40.3823 H   0  0  0  0  0  0  0  0  0  0  0  0
   40.9880   32.1720   40.1283 H   0  0  0  0  0  0  0  0  0  0  0  0
   39.9644   34.4436   40.0753 H   0  0  0  0  0  0  0  0  0  0  0  0
   41.4804   36.4165   40.3284 H   0  0  0  0  0  0  0  0  0  0  0  0
   43.8790   36.0985   40.6131 H   0  0  0  0  0  0  0  0  0  0  0  0
   43.9725   36.9337   44.6026 H   0  0  0  0  0  0  0  0  0  0  0  0
   45.3621   36.5087   42.5572 H   0  0  0  0  0  0  0  0  0  0  0  0
   45.4523   33.3899   46.3688 H   0  0  0  0  0  0  0  0  0  0  0  0
  1 17  1  0
  2  1  1  0
  3  4  1  0
  3  2  1  0
  4  5  1  0
  5  1  1  0
  6  2  1  0
  7  6  2  0
  8  7  1  0
  9  8  1  0
  9 14  2  0
 10  9  1  0
 11 10  2  0
 11 12  1  0
 12 13  2  0
 13 14  1  0
 14  6  1  0
 15 20  2  0
 16 15  1  0
 17 16  2  0
 17 18  1  0
 18 19  2  0
 19 20  1  0
  1 21  1  1
  2 22  1  6
  3 23  1  0
  3 24  1  0
  4 25  1  0
  4 26  1  0
  5 27  1  0
  5 28  1  0
  7 29  1  0
  8 30  1  0
 10 31  1  0
 11 32  1  0
 12 33  1  0
 13 34  1  0
 15 35  1  0
 16 36  1  0
 19 37  1  0
M  ISO  8  21  13  22  13  23  13  24  13  25  13  26  13  27  13  28  13
M  ISO  8  29  14  30   9  31  14  32  14  33  14  34  14  35  14  36  14
M  ISO  1  37  14
M  END
>  <minimizedAffinity>  (1) 
-6.16013288

>  <minimizedRMSD>  (1) 
0.184646294

$$$$
