
     RDKit          3D

 37 40  0  0  1  0  0  0  0  0999 V2000
   46.8440   34.1760   42.3810 C   0  0  1  0  0  0  0  0  0  0  0  0
   46.2610   34.6020   41.0910 C   0  0  1  0  0  0  0  0  0  0  0  0
   47.4070   34.2970   40.1410 C   0  0  0  0  0  0  0  0  0  0  0  0
   48.6120   34.7750   40.9290 C   0  0  0  0  0  0  0  0  0  0  0  0
   48.2230   34.8080   42.3860 C   0  0  0  0  0  0  0  0  0  0  0  0
   45.2080   33.6420   40.7240 N   0  0  0  0  0  0  0  0  0  0  0  0
   45.4720   32.3560   40.4240 C   0  0  0  0  0  0  0  0  0  0  0  0
   44.3350   31.7050   40.1260 N   0  0  0  0  0  0  0  0  0  0  0  0
   43.3360   32.5950   40.2380 C   0  0  0  0  0  0  0  0  0  0  0  0
   41.9590   32.5430   40.0650 C   0  0  0  0  0  0  0  0  0  0  0  0
   41.4160   31.4510   39.7220 O   0  0  0  0  0  0  0  0  0  0  0  0
   41.2370   33.6740   40.2710 N   0  0  0  0  0  0  0  0  0  0  0  0
   41.7870   34.8450   40.6340 C   0  0  0  0  0  0  0  0  0  0  0  0
   40.9930   36.0080   40.8410 N   0  0  0  0  0  0  0  0  0  0  0  0
   43.1260   34.8780   40.7990 N   0  0  0  0  0  0  0  0  0  0  0  0
   43.8830   33.8010   40.6100 C   0  0  0  0  0  0  0  0  0  0  0  0
   44.5130   35.9100   44.8150 C   0  0  0  0  0  0  0  0  0  0  0  0
   45.2330   35.6460   43.6400 C   0  0  0  0  0  0  0  0  0  0  0  0
   46.0690   34.5130   43.5750 C   0  0  0  0  0  0  0  0  0  0  0  0
   46.1340   33.7260   44.6710 N   0  0  0  0  0  0  0  0  0  0  0  0
   45.4170   34.0130   45.8020 C   0  0  0  0  0  0  0  0  0  0  0  0
   44.6140   35.1020   45.8640 N   0  0  0  0  0  0  0  0  0  0  0  0
   46.8617   33.0779   42.4433 H   0  0  0  0  0  0  0  0  0  0  0  0
   45.8709   35.6305   41.0928 H   0  0  0  0  0  0  0  0  0  0  0  0
   47.3015   34.8525   39.1974 H   0  0  0  0  0  0  0  0  0  0  0  0
   47.4648   33.2395   39.8438 H   0  0  0  0  0  0  0  0  0  0  0  0
   49.4545   34.0833   40.7817 H   0  0  0  0  0  0  0  0  0  0  0  0
   48.9223   35.7745   40.5902 H   0  0  0  0  0  0  0  0  0  0  0  0
   48.1839   35.8409   42.7622 H   0  0  0  0  0  0  0  0  0  0  0  0
   48.9382   34.2867   43.0392 H   0  0  0  0  0  0  0  0  0  0  0  0
   46.4746   31.9034   40.4230 H   0  0  0  0  0  0  0  0  0  0  0  0
   40.2159   33.6324   40.1425 H   0  0  0  0  0  0  0  0  0  0  0  0
   41.4395   36.8936   41.1190 H   0  0  0  0  0  0  0  0  0  0  0  0
   39.9720   35.9640   40.7128 H   0  0  0  0  0  0  0  0  0  0  0  0
   43.8596   36.7934   44.8677 H   0  0  0  0  0  0  0  0  0  0  0  0
   45.1456   36.3193   42.7746 H   0  0  0  0  0  0  0  0  0  0  0  0
   45.4946   33.3479   46.6747 H   0  0  0  0  0  0  0  0  0  0  0  0
  1  5  1  0
  1 19  1  0
  2  1  1  0
  3  4  1  0
  3  2  1  0
  4  5  1  0
  6  2  1  0
  7  6  1  0
  8  9  1  0
  8  7  2  0
  9 16  2  0
 10  9  1  0
 10 12  1  0
 11 10  2  0
 12 13  1  0
 13 15  2  0
 13 14  1  0
 16  6  1  0
 16 15  1  0
 17 22  2  0
 18 17  1  0
 19 18  2  0
 19 20  1  0
 20 21  2  0
 21 22  1  0
  1 23  1  6
  2 24  1  1
  3 25  1  0
  3 26  1  0
  4 27  1  0
  4 28  1  0
  5 29  1  0
  5 30  1  0
  7 31  1  0
 12 32  1  0
 14 33  1  0
 14 34  1  0
 17 35  1  0
 18 36  1  0
 21 37  1  0
M  ISO  8  23  13  24  13  25  13  26  13  27  13  28  13  29  13  30  13
M  ISO  5  31  14  32   9  35  14  36  14  37  14
M  END
>  <minimizedAffinity>  (1) 
-5.90285587

>  <minimizedRMSD>  (1) 
1.32257545

$$$$
