
     RDKit          3D

 41 42  0  0  1  0  0  0  0  0999 V2000
   46.7410   33.8450   40.2710 N   0  0  0  0  0  0  0  0  0  0  0  0
   45.8120   32.8460   39.9110 C   0  0  0  0  0  0  0  0  0  0  0  0
   46.2930   31.4540   40.1470 C   0  0  0  0  0  0  0  0  0  0  0  0
   47.2180   31.2240   41.2730 C   0  0  0  0  0  0  0  0  0  0  0  0
   47.8640   32.4550   41.8140 C   0  0  0  0  0  0  0  0  0  0  0  0
   48.0260   33.4420   40.6960 C   0  0  2  0  0  0  0  0  0  0  0  0
   48.8320   34.5580   41.0910 N   0  0  0  0  0  0  0  0  0  0  0  0
   49.8640   34.2220   42.0490 C   0  0  0  0  0  0  0  0  0  0  0  0
   50.3350   32.9970   42.0820 N   0  0  0  0  0  0  0  0  0  0  0  0
   50.3850   35.2090   42.9690 N   0  0  0  0  0  0  0  0  0  0  0  0
   51.0740   32.7770   42.7740 H   0  0  0  0  0  0  0  0  0  0  0  0
   46.1370   34.7450   41.1920 C   0  0  0  0  0  0  0  0  0  0  0  0
   44.8030   34.2900   41.7410 C   0  0  1  0  0  0  0  0  0  0  0  0
   44.4750   35.5070   43.9690 C   0  0  0  0  0  0  0  0  0  0  0  0
   44.8630   34.3760   43.2100 C   0  0  0  0  0  0  0  0  0  0  0  0
   45.3570   33.2830   43.9100 C   0  0  0  0  0  0  0  0  0  0  0  0
   45.4560   33.3250   45.2580 N   0  0  0  0  0  0  0  0  0  0  0  0
   45.0790   34.4190   45.9610 C   0  0  0  0  0  0  0  0  0  0  0  0
   44.5830   35.5220   45.3020 N   0  0  0  0  0  0  0  0  0  0  0  0
   43.7520   35.2540   41.2270 C   0  0  0  0  0  0  0  0  0  0  0  0
   45.5839   32.9559   38.8405 H   0  0  0  0  0  0  0  0  0  0  0  0
   44.9284   32.9891   40.5504 H   0  0  0  0  0  0  0  0  0  0  0  0
   45.4064   30.8258   40.3181 H   0  0  0  0  0  0  0  0  0  0  0  0
   46.8836   31.2111   39.2513 H   0  0  0  0  0  0  0  0  0  0  0  0
   46.6532   30.7477   42.0879 H   0  0  0  0  0  0  0  0  0  0  0  0
   48.0308   30.5943   40.8821 H   0  0  0  0  0  0  0  0  0  0  0  0
   47.2319   32.8891   42.6027 H   0  0  0  0  0  0  0  0  0  0  0  0
   48.8468   32.2066   42.2411 H   0  0  0  0  0  0  0  0  0  0  0  0
   48.5564   32.9681   39.8569 H   0  0  0  0  0  0  0  0  0  0  0  0
   48.6905   35.5112   40.7272 H   0  0  0  0  0  0  0  0  0  0  0  0
   51.1194   34.9483   43.6425 H   0  0  0  0  0  0  0  0  0  0  0  0
   50.0217   36.1726   42.9506 H   0  0  0  0  0  0  0  0  0  0  0  0
   46.8263   34.8826   42.0381 H   0  0  0  0  0  0  0  0  0  0  0  0
   45.9424   35.6736   40.6354 H   0  0  0  0  0  0  0  0  0  0  0  0
   44.5657   33.2603   41.4353 H   0  0  0  0  0  0  0  0  0  0  0  0
   44.0764   36.3919   43.4512 H   0  0  0  0  0  0  0  0  0  0  0  0
   45.6690   32.3794   43.3657 H   0  0  0  0  0  0  0  0  0  0  0  0
   45.1688   34.4269   47.0573 H   0  0  0  0  0  0  0  0  0  0  0  0
   43.2387   35.7249   42.0783 H   0  0  0  0  0  0  0  0  0  0  0  0
   44.2345   36.0302   40.6148 H   0  0  0  0  0  0  0  0  0  0  0  0
   43.0203   34.7064   40.6148 H   0  0  0  0  0  0  0  0  0  0  0  0
  1  6  1  0
  1 12  1  0
  2  3  1  0
  2  1  1  0
  3  4  1  0
  4  5  1  0
  6  7  1  0
  6  5  1  0
  7  8  1  0
  8  9  2  0
  8 10  1  0
  9 11  1  0
 12 13  1  0
 13 15  1  0
 14 19  2  0
 15 16  2  0
 15 14  1  0
 16 17  1  0
 17 18  2  0
 19 18  1  0
 20 13  1  0
  2 21  1  0
  2 22  1  0
  3 23  1  0
  3 24  1  0
  4 25  1  0
  4 26  1  0
  5 27  1  0
  5 28  1  0
  6 29  1  6
  7 30  1  0
 10 31  1  0
 10 32  1  0
 12 33  1  0
 12 34  1  0
 13 35  1  1
 14 36  1  0
 16 37  1  0
 18 38  1  0
 20 39  1  0
 20 40  1  0
 20 41  1  0
M  ISO  8  21  13  22  13  23  13  24  13  25  13  26  13  27  13  28  13
M  ISO  8  29  13  33   8  34   8  35   8  36  14  37  14  38  14  39   8
M  ISO  2  40   8  41   8
M  END
>  <minimizedAffinity>  (1) 
-4.90901995

>  <minimizedRMSD>  (1) 
2.51706362

$$$$
