
     RDKit          3D

 36 38  0  0  1  0  0  0  0  0999 V2000
   46.8010   34.2120   42.2960 C   0  0  1  0  0  0  0  0  0  0  0  0
   46.0930   34.3720   41.0160 C   0  0  1  0  0  0  0  0  0  0  0  0
   47.2480   34.1260   40.0380 C   0  0  0  0  0  0  0  0  0  0  0  0
   48.3360   34.9760   40.6520 C   0  0  0  0  0  0  0  0  0  0  0  0
   48.0190   35.1070   42.1210 C   0  0  0  0  0  0  0  0  0  0  0  0
   44.9920   33.4860   40.7630 N   0  0  0  0  0  0  0  0  0  0  0  0
   44.9760   32.1500   40.7140 C   0  0  0  0  0  0  0  0  0  0  0  0
   43.8140   31.4610   40.4560 C   0  0  0  0  0  0  0  0  0  0  0  0
   43.8230   29.9820   40.4080 C   0  0  0  0  0  0  0  0  0  0  0  0
   42.6320   32.1210   40.2380 C   0  0  0  0  0  0  0  0  0  0  0  0
   41.5410   31.5390   39.9980 O   0  0  0  0  0  0  0  0  0  0  0  0
   42.6850   33.4690   40.2940 N   0  0  0  0  0  0  0  0  0  0  0  0
   43.8190   34.1500   40.5470 C   0  0  0  0  0  0  0  0  0  0  0  0
   43.6990   35.4120   40.5660 O   0  0  0  0  0  0  0  0  0  0  0  0
   44.5460   35.9520   44.7960 C   0  0  0  0  0  0  0  0  0  0  0  0
   45.2350   35.7200   43.5880 C   0  0  0  0  0  0  0  0  0  0  0  0
   46.0330   34.5630   43.5020 C   0  0  0  0  0  0  0  0  0  0  0  0
   46.0780   33.7640   44.5850 N   0  0  0  0  0  0  0  0  0  0  0  0
   45.4130   34.0060   45.7310 C   0  0  0  0  0  0  0  0  0  0  0  0
   44.6380   35.1180   45.8280 N   0  0  0  0  0  0  0  0  0  0  0  0
   47.0301   33.1526   42.4837 H   0  0  0  0  0  0  0  0  0  0  0  0
   45.5806   35.3434   40.9548 H   0  0  0  0  0  0  0  0  0  0  0  0
   46.9959   34.4652   39.0224 H   0  0  0  0  0  0  0  0  0  0  0  0
   47.5176   33.0668   39.9138 H   0  0  0  0  0  0  0  0  0  0  0  0
   49.3143   34.4912   40.5187 H   0  0  0  0  0  0  0  0  0  0  0  0
   48.3800   35.9642   40.1708 H   0  0  0  0  0  0  0  0  0  0  0  0
   48.8587   34.7553   42.7384 H   0  0  0  0  0  0  0  0  0  0  0  0
   47.8382   36.1466   42.4319 H   0  0  0  0  0  0  0  0  0  0  0  0
   45.9088   31.5920   40.8830 H   0  0  0  0  0  0  0  0  0  0  0  0
   43.8254   29.5819   41.4327 H   0  0  0  0  0  0  0  0  0  0  0  0
   42.9270   29.6269   39.8778 H   0  0  0  0  0  0  0  0  0  0  0  0
   44.7233   29.6378   39.8778 H   0  0  0  0  0  0  0  0  0  0  0  0
   41.8176   34.0014   40.1358 H   0  0  0  0  0  0  0  0  0  0  0  0
   43.9145   36.8480   44.8876 H   0  0  0  0  0  0  0  0  0  0  0  0
   45.1521   36.4184   42.7422 H   0  0  0  0  0  0  0  0  0  0  0  0
   45.4964   33.3109   46.5794 H   0  0  0  0  0  0  0  0  0  0  0  0
  1 17  1  0
  2  1  1  0
  3  4  1  0
  3  2  1  0
  4  5  1  0
  5  1  1  0
  6  2  1  0
  7  6  1  0
  8  7  2  0
  9  8  1  0
 10 12  1  0
 10  8  1  0
 11 10  2  0
 12 13  1  0
 13 14  2  0
 13  6  1  0
 15 20  2  0
 16 15  1  0
 17 16  2  0
 17 18  1  0
 18 19  2  0
 19 20  1  0
  1 21  1  1
  2 22  1  1
  3 23  1  0
  3 24  1  0
  4 25  1  0
  4 26  1  0
  5 27  1  0
  5 28  1  0
  7 29  1  0
  9 30  1  0
  9 31  1  0
  9 32  1  0
 12 33  1  0
 15 34  1  0
 16 35  1  0
 19 36  1  0
M  ISO  8  21  13  22  13  23  13  24  13  25  13  26  13  27  13  28  13
M  ISO  8  29  14  30   8  31   8  32   8  33   9  34  14  35  14  36  14
M  END
>  <minimizedAffinity>  (1) 
-5.38837433

>  <minimizedRMSD>  (1) 
1.61802649

$$$$
