
     RDKit          3D

 32 34  0  0  1  0  0  0  0  0999 V2000
   46.7820   34.1960   42.3060 C   0  0  1  0  0  0  0  0  0  0  0  0
   46.1410   34.5170   41.0210 C   0  0  1  0  0  0  0  0  0  0  0  0
   47.2900   34.1720   40.0630 C   0  0  0  0  0  0  0  0  0  0  0  0
   48.4470   34.8710   40.7500 C   0  0  0  0  0  0  0  0  0  0  0  0
   48.1070   34.9390   42.2200 C   0  0  0  0  0  0  0  0  0  0  0  0
   44.5260   35.9560   44.7860 C   0  0  0  0  0  0  0  0  0  0  0  0
   45.2220   35.6920   43.5900 C   0  0  0  0  0  0  0  0  0  0  0  0
   46.0280   34.5360   43.5160 C   0  0  0  0  0  0  0  0  0  0  0  0
   46.0890   33.7370   44.6000 N   0  0  0  0  0  0  0  0  0  0  0  0
   45.3950   34.0290   45.7440 C   0  0  0  0  0  0  0  0  0  0  0  0
   44.6190   35.1370   45.8270 N   0  0  0  0  0  0  0  0  0  0  0  0
   44.9110   33.7990   40.6790 C   0  0  0  0  0  0  0  0  0  0  0  0
   43.7380   34.4330   40.3930 C   0  0  0  0  0  0  0  0  0  0  0  0
   42.5660   33.7790   40.0670 C   0  0  0  0  0  0  0  0  0  0  0  0
   42.5670   32.3860   40.0250 C   0  0  0  0  0  0  0  0  0  0  0  0
   43.7590   31.7520   40.3140 C   0  0  0  0  0  0  0  0  0  0  0  0
   44.8590   32.4370   40.6220 N   0  0  0  0  0  0  0  0  0  0  0  0
   46.8740   33.1066   42.4270 H   0  0  0  0  0  0  0  0  0  0  0  0
   45.7603   35.5489   41.0035 H   0  0  0  0  0  0  0  0  0  0  0  0
   47.1129   34.5760   39.0553 H   0  0  0  0  0  0  0  0  0  0  0  0
   47.4398   33.0948   39.8983 H   0  0  0  0  0  0  0  0  0  0  0  0
   49.3755   34.3000   40.6024 H   0  0  0  0  0  0  0  0  0  0  0  0
   48.6020   35.8776   40.3344 H   0  0  0  0  0  0  0  0  0  0  0  0
   48.8781   34.4415   42.8265 H   0  0  0  0  0  0  0  0  0  0  0  0
   48.0492   35.9690   42.6019 H   0  0  0  0  0  0  0  0  0  0  0  0
   43.8957   36.8546   44.8586 H   0  0  0  0  0  0  0  0  0  0  0  0
   45.1388   36.3736   42.7306 H   0  0  0  0  0  0  0  0  0  0  0  0
   45.4686   33.3536   46.6091 H   0  0  0  0  0  0  0  0  0  0  0  0
   43.7244   35.5325   40.4238 H   0  0  0  0  0  0  0  0  0  0  0  0
   41.6501   34.3463   39.8450 H   0  0  0  0  0  0  0  0  0  0  0  0
   41.6596   31.8176   39.7731 H   0  0  0  0  0  0  0  0  0  0  0  0
   43.8013   30.6531   40.2892 H   0  0  0  0  0  0  0  0  0  0  0  0
  1  8  1  0
  2  1  1  0
  3  4  1  0
  3  2  1  0
  4  5  1  0
  5  1  1  0
  6 11  2  0
  7  6  1  0
  8  7  2  0
  8  9  1  0
  9 10  2  0
 10 11  1  0
 12  2  1  0
 13 12  2  0
 14 13  1  0
 15 14  2  0
 15 16  1  0
 16 17  2  0
 17 12  1  0
  1 18  1  6
  2 19  1  1
  3 20  1  0
  3 21  1  0
  4 22  1  0
  4 23  1  0
  5 24  1  0
  5 25  1  0
  6 26  1  0
  7 27  1  0
 10 28  1  0
 13 29  1  0
 14 30  1  0
 15 31  1  0
 16 32  1  0
M  ISO  8  18  13  19  13  20  13  21  13  22  13  23  13  24  13  25  13
M  ISO  7  26  14  27  14  28  14  29  14  30  14  31  14  32  14
M  END
>  <minimizedAffinity>  (1) 
-5.16498089

>  <minimizedRMSD>  (1) 
0.96068424

$$$$
