
     RDKit          3D

 39 41  0  0  1  0  0  0  0  0999 V2000
   46.7870   34.1810   42.3330 C   0  0  1  0  0  0  0  0  0  0  0  0
   46.1380   34.5020   41.0430 C   0  0  1  0  0  0  0  0  0  0  0  0
   47.2780   34.2130   40.0740 C   0  0  0  0  0  0  0  0  0  0  0  0
   48.4670   34.8040   40.7970 C   0  0  0  0  0  0  0  0  0  0  0  0
   48.0930   34.9490   42.2380 C   0  0  0  0  0  0  0  0  0  0  0  0
   44.5300   35.9570   44.8050 C   0  0  0  0  0  0  0  0  0  0  0  0
   45.2180   35.7130   43.6040 C   0  0  0  0  0  0  0  0  0  0  0  0
   46.0130   34.5520   43.5340 C   0  0  0  0  0  0  0  0  0  0  0  0
   46.0550   33.7590   44.6260 N   0  0  0  0  0  0  0  0  0  0  0  0
   45.3810   34.0220   45.7670 C   0  0  0  0  0  0  0  0  0  0  0  0
   44.6150   35.1340   45.8450 N   0  0  0  0  0  0  0  0  0  0  0  0
   44.9480   33.6170   40.7860 C   0  0  0  0  0  0  0  0  0  0  0  0
   43.7680   34.4920   40.4860 C   0  0  0  0  0  0  0  0  0  0  0  0
   42.5330   33.7850   40.0720 C   0  0  0  0  0  0  0  0  0  0  0  0
   42.6750   32.4360   39.4950 C   0  0  0  0  0  0  0  0  0  0  0  0
   43.9190   31.6920   39.8120 C   0  0  0  0  0  0  0  0  0  0  0  0
   45.1210   32.6360   39.6750 C   0  0  0  0  0  0  0  0  0  0  0  0
   46.9015   33.0953   42.4679 H   0  0  0  0  0  0  0  0  0  0  0  0
   45.7317   35.5220   40.9759 H   0  0  0  0  0  0  0  0  0  0  0  0
   47.1136   34.7077   39.1054 H   0  0  0  0  0  0  0  0  0  0  0  0
   47.3931   33.1461   39.8322 H   0  0  0  0  0  0  0  0  0  0  0  0
   49.3352   34.1356   40.7001 H   0  0  0  0  0  0  0  0  0  0  0  0
   48.7347   35.7804   40.3670 H   0  0  0  0  0  0  0  0  0  0  0  0
   48.8596   34.5070   42.8914 H   0  0  0  0  0  0  0  0  0  0  0  0
   48.0026   35.9975   42.5581 H   0  0  0  0  0  0  0  0  0  0  0  0
   43.9021   36.8565   44.8866 H   0  0  0  0  0  0  0  0  0  0  0  0
   45.1387   36.4026   42.7507 H   0  0  0  0  0  0  0  0  0  0  0  0
   45.4546   33.3377   46.6251 H   0  0  0  0  0  0  0  0  0  0  0  0
   44.8076   33.0133   41.6947 H   0  0  0  0  0  0  0  0  0  0  0  0
   43.5380   35.0718   41.3921 H   0  0  0  0  0  0  0  0  0  0  0  0
   44.0634   35.1093   39.6248 H   0  0  0  0  0  0  0  0  0  0  0  0
   41.8920   33.6958   40.9614 H   0  0  0  0  0  0  0  0  0  0  0  0
   42.1251   34.3956   39.2530 H   0  0  0  0  0  0  0  0  0  0  0  0
   42.6186   32.5361   38.4010 H   0  0  0  0  0  0  0  0  0  0  0  0
   41.8666   31.8454   39.9508 H   0  0  0  0  0  0  0  0  0  0  0  0
   43.8668   31.3101   40.8423 H   0  0  0  0  0  0  0  0  0  0  0  0
   44.0316   30.8473   39.1164 H   0  0  0  0  0  0  0  0  0  0  0  0
   46.0654   32.0831   39.7869 H   0  0  0  0  0  0  0  0  0  0  0  0
   45.1639   33.1213   38.6888 H   0  0  0  0  0  0  0  0  0  0  0  0
  1  8  1  0
  2  1  1  0
  3  4  1  0
  3  2  1  0
  4  5  1  0
  5  1  1  0
  6 11  2  0
  7  6  1  0
  8  7  2  0
  8  9  1  0
  9 10  2  0
 10 11  1  0
 12  2  1  0
 13 12  1  0
 14 13  1  0
 15 16  1  0
 15 14  1  0
 17 16  1  0
 17 12  1  0
  1 18  1  6
  2 19  1  1
  3 20  1  0
  3 21  1  0
  4 22  1  0
  4 23  1  0
  5 24  1  0
  5 25  1  0
  6 26  1  0
  7 27  1  0
 10 28  1  0
 12 29  1  0
 13 30  1  0
 13 31  1  0
 14 32  1  0
 14 33  1  0
 15 34  1  0
 15 35  1  0
 16 36  1  0
 16 37  1  0
 17 38  1  0
 17 39  1  0
M  ISO  8  18  13  19  13  20  13  21  13  22  13  23  13  24  13  25  13
M  ISO  8  26  14  27  14  28  14  29  13  30  13  31  13  32  13  33  13
M  ISO  6  34  13  35  13  36  13  37  13  38  13  39  13
M  END
>  <minimizedAffinity>  (1) 
-5.16453695

>  <minimizedRMSD>  (1) 
1.07219791

$$$$
