
     RDKit          3D

 37 40  0  0  1  0  0  0  0  0999 V2000
   45.1330   33.2070   43.7970 C   0  0  1  0  0  0  0  0  0  0  0  0
   46.4070   32.4870   43.6810 C   0  0  2  0  0  0  0  0  0  0  0  0
   46.6920   32.1950   45.1660 C   0  0  0  0  0  0  0  0  0  0  0  0
   46.2820   33.4740   45.8320 C   0  0  0  0  0  0  0  0  0  0  0  0
   45.3520   34.2020   44.9050 C   0  0  0  0  0  0  0  0  0  0  0  0
   47.5820   33.1560   43.1520 C   0  0  0  0  0  0  0  0  0  0  0  0
   47.5130   34.5080   42.9730 N   0  0  0  0  0  0  0  0  0  0  0  0
   48.5550   35.2100   42.4940 C   0  0  0  0  0  0  0  0  0  0  0  0
   49.7400   34.6460   42.1550 N   0  0  0  0  0  0  0  0  0  0  0  0
   49.8840   33.3160   42.3030 C   0  0  0  0  0  0  0  0  0  0  0  0
   51.0530   32.6540   41.9810 C   0  0  0  0  0  0  0  0  0  0  0  0
   51.1420   31.2780   42.1530 C   0  0  0  0  0  0  0  0  0  0  0  0
   50.0610   30.5540   42.6490 C   0  0  0  0  0  0  0  0  0  0  0  0
   48.9110   31.2370   42.9610 C   0  0  0  0  0  0  0  0  0  0  0  0
   48.8170   32.5960   42.7940 C   0  0  0  0  0  0  0  0  0  0  0  0
   43.5480   35.6600   41.4300 C   0  0  0  0  0  0  0  0  0  0  0  0
   44.1070   35.0920   42.5840 C   0  0  0  0  0  0  0  0  0  0  0  0
   44.5420   33.7800   42.5940 C   0  0  0  0  0  0  0  0  0  0  0  0
   44.4070   33.0720   41.4600 N   0  0  0  0  0  0  0  0  0  0  0  0
   43.8650   33.6160   40.3360 C   0  0  0  0  0  0  0  0  0  0  0  0
   43.4410   34.8970   40.3240 N   0  0  0  0  0  0  0  0  0  0  0  0
   44.3425   32.4740   44.0157 H   0  0  0  0  0  0  0  0  0  0  0  0
   46.2717   31.6721   42.9546 H   0  0  0  0  0  0  0  0  0  0  0  0
   46.0904   31.3479   45.5273 H   0  0  0  0  0  0  0  0  0  0  0  0
   47.7361   31.9118   45.3650 H   0  0  0  0  0  0  0  0  0  0  0  0
   45.7680   33.2536   46.7793 H   0  0  0  0  0  0  0  0  0  0  0  0
   47.1656   34.0919   46.0499 H   0  0  0  0  0  0  0  0  0  0  0  0
   45.8155   35.1236   44.5231 H   0  0  0  0  0  0  0  0  0  0  0  0
   44.4187   34.5232   45.3906 H   0  0  0  0  0  0  0  0  0  0  0  0
   48.4399   36.2970   42.3710 H   0  0  0  0  0  0  0  0  0  0  0  0
   51.9132   33.2161   41.5885 H   0  0  0  0  0  0  0  0  0  0  0  0
   52.0751   30.7558   41.8949 H   0  0  0  0  0  0  0  0  0  0  0  0
   50.1263   29.4647   42.7872 H   0  0  0  0  0  0  0  0  0  0  0  0
   48.0459   30.6824   43.3535 H   0  0  0  0  0  0  0  0  0  0  0  0
   43.2045   36.7050   41.4275 H   0  0  0  0  0  0  0  0  0  0  0  0
   44.2008   35.7003   43.4957 H   0  0  0  0  0  0  0  0  0  0  0  0
   43.7716   33.0041   39.4267 H   0  0  0  0  0  0  0  0  0  0  0  0
  1  5  1  0
  2  1  1  0
  2  3  1  0
  3  4  1  0
  5  4  1  0
  6  2  1  0
  7  6  2  0
  8  7  1  0
  9 10  1  0
  9  8  2  0
 10 15  2  0
 11 12  2  0
 11 10  1  0
 12 13  1  0
 13 14  2  0
 15 14  1  0
 15  6  1  0
 16 17  2  0
 17 18  1  0
 18  1  1  0
 19 18  2  0
 20 19  1  0
 21 20  2  0
 21 16  1  0
  1 22  1  1
  2 23  1  6
  3 24  1  0
  3 25  1  0
  4 26  1  0
  4 27  1  0
  5 28  1  0
  5 29  1  0
  8 30  1  0
 11 31  1  0
 12 32  1  0
 13 33  1  0
 14 34  1  0
 16 35  1  0
 17 36  1  0
 20 37  1  0
M  ISO  8  22  13  23  13  24  13  25  13  26  13  27  13  28  13  29  13
M  ISO  8  30  14  31  14  32  14  33  14  34  14  35  14  36  14  37  14
M  END
>  <minimizedAffinity>  (1) 
-5.13472891

>  <minimizedRMSD>  (1) 
5.79307032

$$$$
