
     RDKit          3D

 31 33  0  0  1  0  0  0  0  0999 V2000
   46.8400   34.2280   42.3190 C   0  0  1  0  0  0  0  0  0  0  0  0
   46.2300   34.5930   41.0200 C   0  0  1  0  0  0  0  0  0  0  0  0
   47.3920   34.2090   40.0930 C   0  0  0  0  0  0  0  0  0  0  0  0
   48.5550   34.8450   40.8160 C   0  0  0  0  0  0  0  0  0  0  0  0
   48.1760   34.9500   42.2760 C   0  0  0  0  0  0  0  0  0  0  0  0
   44.5370   35.9410   44.7750 C   0  0  0  0  0  0  0  0  0  0  0  0
   45.2420   35.7220   43.5680 C   0  0  0  0  0  0  0  0  0  0  0  0
   46.0540   34.5710   43.5110 C   0  0  0  0  0  0  0  0  0  0  0  0
   46.1050   33.7620   44.6010 N   0  0  0  0  0  0  0  0  0  0  0  0
   45.4110   34.0140   45.7350 C   0  0  0  0  0  0  0  0  0  0  0  0
   44.6260   35.1100   45.8140 N   0  0  0  0  0  0  0  0  0  0  0  0
   45.0250   33.7870   40.7010 C   0  0  0  0  0  0  0  0  0  0  0  0
   43.8030   34.3570   40.4050 C   0  0  0  0  0  0  0  0  0  0  0  0
   42.7630   33.4870   40.1270 C   0  0  0  0  0  0  0  0  0  0  0  0
   42.8710   32.1400   40.1300 N   0  0  0  0  0  0  0  0  0  0  0  0
   44.0950   31.6380   40.4270 C   0  0  0  0  0  0  0  0  0  0  0  0
   45.1480   32.4500   40.7080 N   0  0  0  0  0  0  0  0  0  0  0  0
   46.9175   33.1360   42.4262 H   0  0  0  0  0  0  0  0  0  0  0  0
   45.8732   35.6319   40.9615 H   0  0  0  0  0  0  0  0  0  0  0  0
   47.2623   34.6311   39.0855 H   0  0  0  0  0  0  0  0  0  0  0  0
   47.4992   33.1277   39.9221 H   0  0  0  0  0  0  0  0  0  0  0  0
   49.4539   34.2208   40.7047 H   0  0  0  0  0  0  0  0  0  0  0  0
   48.7753   35.8388   40.3992 H   0  0  0  0  0  0  0  0  0  0  0  0
   48.9184   34.4517   42.9167 H   0  0  0  0  0  0  0  0  0  0  0  0
   48.1281   35.9854   42.6442 H   0  0  0  0  0  0  0  0  0  0  0  0
   43.8925   36.8284   44.8593 H   0  0  0  0  0  0  0  0  0  0  0  0
   45.1607   36.4146   42.7173 H   0  0  0  0  0  0  0  0  0  0  0  0
   45.4861   33.3273   46.5910 H   0  0  0  0  0  0  0  0  0  0  0  0
   43.6628   35.4479   40.3908 H   0  0  0  0  0  0  0  0  0  0  0  0
   41.7814   33.9218   39.8872 H   0  0  0  0  0  0  0  0  0  0  0  0
   44.2392   30.5476   40.4408 H   0  0  0  0  0  0  0  0  0  0  0  0
  1  8  1  0
  2  1  1  0
  3  4  1  0
  3  2  1  0
  4  5  1  0
  5  1  1  0
  6 11  2  0
  7  6  1  0
  8  7  2  0
  8  9  1  0
  9 10  2  0
 10 11  1  0
 12 17  1  0
 12  2  1  0
 13 12  2  0
 14 15  2  0
 14 13  1  0
 15 16  1  0
 16 17  2  0
  1 18  1  6
  2 19  1  1
  3 20  1  0
  3 21  1  0
  4 22  1  0
  4 23  1  0
  5 24  1  0
  5 25  1  0
  6 26  1  0
  7 27  1  0
 10 28  1  0
 13 29  1  0
 14 30  1  0
 16 31  1  0
M  ISO  8  18  13  19  13  20  13  21  13  22  13  23  13  24  13  25  13
M  ISO  6  26  14  27  14  28  14  29  14  30  14  31  14
M  END
>  <minimizedAffinity>  (1) 
-5.03928423

>  <minimizedRMSD>  (1) 
1.02095008

$$$$
