
     RDKit          3D

 30 32  0  0  1  0  0  0  0  0999 V2000
   47.0350   34.1940   42.4500 C   0  0  1  0  0  0  0  0  0  0  0  0
   46.6170   34.7690   41.1510 C   0  0  1  0  0  0  0  0  0  0  0  0
   47.7940   34.3860   40.2740 C   0  0  0  0  0  0  0  0  0  0  0  0
   48.9600   34.7350   41.1940 C   0  0  0  0  0  0  0  0  0  0  0  0
   48.4500   34.7120   42.6060 C   0  0  0  0  0  0  0  0  0  0  0  0
   44.5420   35.8980   44.7410 C   0  0  0  0  0  0  0  0  0  0  0  0
   45.3280   35.6510   43.6040 C   0  0  0  0  0  0  0  0  0  0  0  0
   46.1770   34.5280   43.5960 C   0  0  0  0  0  0  0  0  0  0  0  0
   46.1890   33.7460   44.6940 N   0  0  0  0  0  0  0  0  0  0  0  0
   45.4170   34.0050   45.7880 C   0  0  0  0  0  0  0  0  0  0  0  0
   44.6000   35.0790   45.8030 N   0  0  0  0  0  0  0  0  0  0  0  0
   45.3870   34.0560   40.7090 C   0  0  0  0  0  0  0  0  0  0  0  0
   45.1600   32.6940   40.6030 C   0  0  0  0  0  0  0  0  0  0  0  0
   43.9050   32.4490   40.1620 N   0  0  0  0  0  0  0  0  0  0  0  0
   43.3650   33.6890   40.0000 C   0  0  0  0  0  0  0  0  0  0  0  0
   44.2460   34.6550   40.3260 N   0  0  0  0  0  0  0  0  0  0  0  0
   46.9569   33.0968   42.4439 H   0  0  0  0  0  0  0  0  0  0  0  0
   46.3938   35.8461   41.1489 H   0  0  0  0  0  0  0  0  0  0  0  0
   47.7815   33.3147   40.0245 H   0  0  0  0  0  0  0  0  0  0  0  0
   47.8176   34.8905   39.2968 H   0  0  0  0  0  0  0  0  0  0  0  0
   49.7657   33.9957   41.0746 H   0  0  0  0  0  0  0  0  0  0  0  0
   49.3626   35.7281   40.9459 H   0  0  0  0  0  0  0  0  0  0  0  0
   48.4554   35.7208   43.0446 H   0  0  0  0  0  0  0  0  0  0  0  0
   49.0650   34.0960   43.2786 H   0  0  0  0  0  0  0  0  0  0  0  0
   43.8726   36.7706   44.7617 H   0  0  0  0  0  0  0  0  0  0  0  0
   45.2812   36.3233   42.7346 H   0  0  0  0  0  0  0  0  0  0  0  0
   45.4604   33.3366   46.6606 H   0  0  0  0  0  0  0  0  0  0  0  0
   45.9000   31.9168   40.8447 H   0  0  0  0  0  0  0  0  0  0  0  0
   42.3401   33.8777   39.6479 H   0  0  0  0  0  0  0  0  0  0  0  0
   44.0758   35.6702   40.2885 H   0  0  0  0  0  0  0  0  0  0  0  0
  1  5  1  0
  1  8  1  0
  2  1  1  0
  3  2  1  0
  3  4  1  0
  4  5  1  0
  6 11  2  0
  7  6  1  0
  8  7  2  0
  8  9  1  0
  9 10  2  0
 10 11  1  0
 12  2  1  0
 13 12  2  0
 14 13  1  0
 15 14  2  0
 15 16  1  0
 16 12  1  0
  1 17  1  6
  2 18  1  1
  3 19  1  0
  3 20  1  0
  4 21  1  0
  4 22  1  0
  5 23  1  0
  5 24  1  0
  6 25  1  0
  7 26  1  0
 10 27  1  0
 13 28  1  0
 15 29  1  0
 16 30  1  0
M  ISO  8  17  13  18  13  19  13  20  13  21  13  22  13  23  13  24  13
M  ISO  6  25  14  26  14  27  14  28  14  29  14  30   9
M  END
>  <minimizedAffinity>  (1) 
-5.01607704

>  <minimizedRMSD>  (1) 
1.12012768

$$$$
