
     RDKit          3D

 35 37  0  0  1  0  0  0  0  0999 V2000
   47.0090   34.3250   42.2040 C   0  0  1  0  0  0  0  0  0  0  0  0
   46.3190   34.3720   40.8930 C   0  0  1  0  0  0  0  0  0  0  0  0
   47.5090   34.1740   39.9560 C   0  0  0  0  0  0  0  0  0  0  0  0
   48.5250   35.1070   40.5720 C   0  0  0  0  0  0  0  0  0  0  0  0
   48.1590   35.2940   42.0200 C   0  0  0  0  0  0  0  0  0  0  0  0
   44.5790   36.0340   44.5590 C   0  0  0  0  0  0  0  0  0  0  0  0
   45.3340   35.8090   43.3960 C   0  0  0  0  0  0  0  0  0  0  0  0
   46.1660   34.6710   43.3640 C   0  0  0  0  0  0  0  0  0  0  0  0
   46.1750   33.8780   44.4600 N   0  0  0  0  0  0  0  0  0  0  0  0
   45.4390   34.1190   45.5640 C   0  0  0  0  0  0  0  0  0  0  0  0
   44.6390   35.2050   45.6070 N   0  0  0  0  0  0  0  0  0  0  0  0
   45.3310   33.4110   40.8020 N   0  0  0  0  0  0  0  0  0  0  0  0
   44.0180   33.7090   40.4770 C   0  0  0  0  0  0  0  0  0  0  0  0
   43.2470   32.6660   41.3000 C   0  0  0  0  0  0  0  0  0  0  0  0
   44.2660   31.5780   41.6270 C   0  0  0  0  0  0  0  0  0  0  0  0
   45.5550   32.0500   40.9430 C   0  0  0  0  0  0  0  0  0  0  0  0
   47.3233   33.3005   42.4523 H   0  0  0  0  0  0  0  0  0  0  0  0
   45.7526   35.2891   40.6735 H   0  0  0  0  0  0  0  0  0  0  0  0
   47.2638   34.4688   38.9250 H   0  0  0  0  0  0  0  0  0  0  0  0
   47.8474   33.1309   39.8698 H   0  0  0  0  0  0  0  0  0  0  0  0
   49.5310   34.6691   40.4938 H   0  0  0  0  0  0  0  0  0  0  0  0
   48.5262   36.0741   40.0479 H   0  0  0  0  0  0  0  0  0  0  0  0
   49.0023   35.0375   42.6781 H   0  0  0  0  0  0  0  0  0  0  0  0
   47.8979   36.3323   42.2724 H   0  0  0  0  0  0  0  0  0  0  0  0
   43.9216   36.9145   44.6092 H   0  0  0  0  0  0  0  0  0  0  0  0
   45.2781   36.4970   42.5396 H   0  0  0  0  0  0  0  0  0  0  0  0
   45.4904   33.4349   46.4238 H   0  0  0  0  0  0  0  0  0  0  0  0
   43.7531   34.7331   40.7788 H   0  0  0  0  0  0  0  0  0  0  0  0
   43.8061   33.6710   39.3983 H   0  0  0  0  0  0  0  0  0  0  0  0
   42.8550   33.1170   42.2236 H   0  0  0  0  0  0  0  0  0  0  0  0
   42.3827   32.2663   40.7494 H   0  0  0  0  0  0  0  0  0  0  0  0
   44.4102   31.4929   42.7142 H   0  0  0  0  0  0  0  0  0  0  0  0
   43.9459   30.5840   41.2813 H   0  0  0  0  0  0  0  0  0  0  0  0
   45.6883   31.5644   39.9650 H   0  0  0  0  0  0  0  0  0  0  0  0
   46.4678   31.8092   41.5075 H   0  0  0  0  0  0  0  0  0  0  0  0
  1  8  1  0
  2  1  1  0
  3  4  1  0
  3  2  1  0
  4  5  1  0
  5  1  1  0
  6 11  2  0
  7  6  1  0
  8  7  2  0
  8  9  1  0
  9 10  2  0
 10 11  1  0
 12 13  1  0
 12  2  1  0
 12 16  1  0
 13 14  1  0
 14 15  1  0
 16 15  1  0
  1 17  1  1
  2 18  1  6
  3 19  1  0
  3 20  1  0
  4 21  1  0
  4 22  1  0
  5 23  1  0
  5 24  1  0
  6 25  1  0
  7 26  1  0
 10 27  1  0
 13 28  1  0
 13 29  1  0
 14 30  1  0
 14 31  1  0
 15 32  1  0
 15 33  1  0
 16 34  1  0
 16 35  1  0
M  ISO  8  17  13  18  13  19  13  20  13  21  13  22  13  23  13  24  13
M  ISO  8  25  14  26  14  27  14  28  13  29  13  30  13  31  13  32  13
M  ISO  3  33  13  34  13  35  13
M  END
>  <minimizedAffinity>  (1) 
-4.91161394

>  <minimizedRMSD>  (1) 
0.898609102

$$$$
