
     RDKit          3D

 41 43  0  0  1  0  0  0  0  0999 V2000
   47.4330   33.9100   42.3650 N   0  0  0  0  0  0  0  0  0  0  0  0
   48.2920   32.9490   42.9410 C   0  0  0  0  0  0  0  0  0  0  0  0
   49.6910   32.9630   42.4470 C   0  0  0  0  0  0  0  0  0  0  0  0
   50.2410   34.2680   42.0740 C   0  0  0  0  0  0  0  0  0  0  0  0
   49.2430   35.3510   41.8740 C   0  0  0  0  0  0  0  0  0  0  0  0
   47.9600   34.8120   41.3880 C   0  0  1  0  0  0  0  0  0  0  0  0
   47.9010   34.4170   39.9980 C   0  0  0  0  0  0  0  0  0  0  0  0
   47.2010   33.4380   39.3240 C   0  0  0  0  0  0  0  0  0  0  0  0
   47.4660   33.4310   37.9720 C   0  0  0  0  0  0  0  0  0  0  0  0
   48.3710   34.4670   37.8650 C   0  0  0  0  0  0  0  0  0  0  0  0
   48.5800   34.9870   39.0290 O   0  0  0  0  0  0  0  0  0  0  0  0
   46.8350   34.6830   43.4230 C   0  0  0  0  0  0  0  0  0  0  0  0
   45.4100   34.2970   43.7380 C   0  0  1  0  0  0  0  0  0  0  0  0
   44.8170   34.4340   46.2250 C   0  0  0  0  0  0  0  0  0  0  0  0
   45.3670   33.7790   45.0960 C   0  0  0  0  0  0  0  0  0  0  0  0
   45.9240   32.5260   45.3450 C   0  0  0  0  0  0  0  0  0  0  0  0
   45.9200   32.0080   46.5990 N   0  0  0  0  0  0  0  0  0  0  0  0
   45.3870   32.6640   47.6450 C   0  0  0  0  0  0  0  0  0  0  0  0
   44.8270   33.9000   47.4460 N   0  0  0  0  0  0  0  0  0  0  0  0
   44.5720   35.5580   43.6460 C   0  0  0  0  0  0  0  0  0  0  0  0
   48.3146   33.1227   44.0270 H   0  0  0  0  0  0  0  0  0  0  0  0
   47.8817   31.9689   42.6563 H   0  0  0  0  0  0  0  0  0  0  0  0
   50.3292   32.5460   43.2400 H   0  0  0  0  0  0  0  0  0  0  0  0
   49.6760   32.3774   41.5159 H   0  0  0  0  0  0  0  0  0  0  0  0
   50.9300   34.5853   42.8706 H   0  0  0  0  0  0  0  0  0  0  0  0
   50.7273   34.1223   41.0981 H   0  0  0  0  0  0  0  0  0  0  0  0
   49.0759   35.8660   42.8315 H   0  0  0  0  0  0  0  0  0  0  0  0
   49.6345   36.0499   41.1202 H   0  0  0  0  0  0  0  0  0  0  0  0
   47.2461   35.6450   41.3080 H   0  0  0  0  0  0  0  0  0  0  0  0
   46.5066   32.7388   39.8129 H   0  0  0  0  0  0  0  0  0  0  0  0
   47.0633   32.7743   37.1868 H   0  0  0  0  0  0  0  0  0  0  0  0
   48.8435   34.8001   36.9292 H   0  0  0  0  0  0  0  0  0  0  0  0
   47.4386   34.5486   44.3328 H   0  0  0  0  0  0  0  0  0  0  0  0
   46.8123   35.7276   43.0790 H   0  0  0  0  0  0  0  0  0  0  0  0
   45.0316   33.5329   43.0431 H   0  0  0  0  0  0  0  0  0  0  0  0
   44.3620   35.4261   46.0881 H   0  0  0  0  0  0  0  0  0  0  0  0
   46.3701   31.9528   44.5189 H   0  0  0  0  0  0  0  0  0  0  0  0
   45.4000   32.2143   48.6488 H   0  0  0  0  0  0  0  0  0  0  0  0
   44.3346   35.9152   44.6589 H   0  0  0  0  0  0  0  0  0  0  0  0
   45.1349   36.3337   43.1062 H   0  0  0  0  0  0  0  0  0  0  0  0
   43.6388   35.3395   43.1062 H   0  0  0  0  0  0  0  0  0  0  0  0
  1  2  1  0
  1 12  1  0
  3  2  1  0
  4  3  1  0
  5  4  1  0
  6  5  1  0
  6  1  1  0
  7  6  1  0
  8  7  2  0
  9  8  1  0
 10  9  2  0
 10 11  1  0
 11  7  1  0
 12 13  1  0
 13 15  1  0
 14 19  2  0
 15 16  2  0
 15 14  1  0
 16 17  1  0
 17 18  2  0
 19 18  1  0
 20 13  1  0
  2 21  1  0
  2 22  1  0
  3 23  1  0
  3 24  1  0
  4 25  1  0
  4 26  1  0
  5 27  1  0
  5 28  1  0
  6 29  1  6
  8 30  1  0
  9 31  1  0
 10 32  1  0
 12 33  1  0
 12 34  1  0
 13 35  1  6
 14 36  1  0
 16 37  1  0
 18 38  1  0
 20 39  1  0
 20 40  1  0
 20 41  1  0
M  ISO  8  21  13  22  13  23  13  24  13  25  13  26  13  27  13  28  13
M  ISO  8  29  13  30  14  31  14  32  14  33   8  34   8  35   8  36  14
M  ISO  5  37  14  38  14  39   8  40   8  41   8
M  END
>  <minimizedAffinity>  (1) 
-4.75190878

>  <minimizedRMSD>  (1) 
2.09379745

$$$$
