
     RDKit          3D

 29 30  0  0  1  0  0  0  0  0999 V2000
   47.0660   34.3570   42.1690 C   0  0  1  0  0  0  0  0  0  0  0  0
   46.3730   34.3460   40.8550 C   0  0  1  0  0  0  0  0  0  0  0  0
   47.5610   34.1970   39.9160 C   0  0  0  0  0  0  0  0  0  0  0  0
   48.5730   35.1450   40.5240 C   0  0  0  0  0  0  0  0  0  0  0  0
   48.1950   35.3420   41.9740 C   0  0  0  0  0  0  0  0  0  0  0  0
   44.5820   36.0120   44.4970 C   0  0  0  0  0  0  0  0  0  0  0  0
   45.3700   35.7790   43.3560 C   0  0  0  0  0  0  0  0  0  0  0  0
   46.2250   34.6590   43.3290 C   0  0  0  0  0  0  0  0  0  0  0  0
   46.2440   33.8580   44.4110 N   0  0  0  0  0  0  0  0  0  0  0  0
   45.4690   34.1070   45.5050 C   0  0  0  0  0  0  0  0  0  0  0  0
   44.6400   35.1900   45.5360 N   0  0  0  0  0  0  0  0  0  0  0  0
   45.5320   33.0830   40.8130 C   0  0  0  0  0  0  0  0  0  0  0  0
   44.0910   33.3190   40.5160 C   0  0  0  0  0  0  0  0  0  0  0  0
   47.4145   33.3473   42.4317 H   0  0  0  0  0  0  0  0  0  0  0  0
   45.7260   35.2070   40.6313 H   0  0  0  0  0  0  0  0  0  0  0  0
   47.2989   34.4979   38.8909 H   0  0  0  0  0  0  0  0  0  0  0  0
   47.9246   33.1627   39.8260 H   0  0  0  0  0  0  0  0  0  0  0  0
   49.5821   34.7128   40.4541 H   0  0  0  0  0  0  0  0  0  0  0  0
   48.5742   36.1063   39.9893 H   0  0  0  0  0  0  0  0  0  0  0  0
   49.0408   35.1101   42.6379 H   0  0  0  0  0  0  0  0  0  0  0  0
   47.9114   36.3781   42.2106 H   0  0  0  0  0  0  0  0  0  0  0  0
   43.9117   36.8836   44.5280 H   0  0  0  0  0  0  0  0  0  0  0  0
   45.3197   36.4622   42.4954 H   0  0  0  0  0  0  0  0  0  0  0  0
   45.5126   33.4288   46.3699 H   0  0  0  0  0  0  0  0  0  0  0  0
   45.9409   32.4218   40.0348 H   0  0  0  0  0  0  0  0  0  0  0  0
   45.5791   32.6380   41.8178 H   0  0  0  0  0  0  0  0  0  0  0  0
   43.5324   33.4105   41.4592 H   0  0  0  0  0  0  0  0  0  0  0  0
   43.9836   34.2467   39.9348 H   0  0  0  0  0  0  0  0  0  0  0  0
   43.6932   32.4740   39.9348 H   0  0  0  0  0  0  0  0  0  0  0  0
  1  8  1  0
  2  1  1  0
  3  4  1  0
  3  2  1  0
  4  5  1  0
  5  1  1  0
  6 11  2  0
  7  6  1  0
  8  7  2  0
  8  9  1  0
  9 10  2  0
 10 11  1  0
 12  2  1  0
 13 12  1  0
  1 14  1  1
  2 15  1  6
  3 16  1  0
  3 17  1  0
  4 18  1  0
  4 19  1  0
  5 20  1  0
  5 21  1  0
  6 22  1  0
  7 23  1  0
 10 24  1  0
 12 25  1  0
 12 26  1  0
 13 27  1  0
 13 28  1  0
 13 29  1  0
M  ISO  8  14  13  15  13  16  13  17  13  18  13  19  13  20  13  21  13
M  ISO  8  22  14  23  14  24  14  25   8  26   8  27   8  28   8  29   8
M  END
>  <minimizedAffinity>  (1) 
-4.62144756

>  <minimizedRMSD>  (1) 
0.442949742

$$$$
