
     RDKit          3D

 33 34  0  0  1  0  0  0  0  0999 V2000
   47.3380   34.3910   41.9420 C   0  0  1  0  0  0  0  0  0  0  0  0
   46.6930   34.3090   40.6230 C   0  0  1  0  0  0  0  0  0  0  0  0
   47.8890   34.2670   39.7010 C   0  0  0  0  0  0  0  0  0  0  0  0
   48.7980   35.3100   40.3200 C   0  0  0  0  0  0  0  0  0  0  0  0
   48.3430   35.5210   41.7390 C   0  0  0  0  0  0  0  0  0  0  0  0
   44.7780   35.9060   44.2790 C   0  0  0  0  0  0  0  0  0  0  0  0
   45.5890   35.7410   43.1490 C   0  0  0  0  0  0  0  0  0  0  0  0
   46.4660   34.6270   43.0830 C   0  0  0  0  0  0  0  0  0  0  0  0
   46.4530   33.7930   44.1350 N   0  0  0  0  0  0  0  0  0  0  0  0
   45.6650   33.9630   45.2200 C   0  0  0  0  0  0  0  0  0  0  0  0
   44.8270   35.0280   45.2830 N   0  0  0  0  0  0  0  0  0  0  0  0
   45.7050   33.0360   46.3000 N   0  0  0  0  0  0  0  0  0  0  0  0
   45.1340   33.3700   47.5490 C   0  0  0  0  0  0  0  0  0  0  0  0
   44.1390   34.2230   47.5550 N   0  0  0  0  0  0  0  0  0  0  0  0
   45.6180   32.8030   48.7680 N   0  0  0  0  0  0  0  0  0  0  0  0
   43.6810   34.5040   48.4460 H   0  0  0  0  0  0  0  0  0  0  0  0
   45.9480   32.9670   40.5860 C   0  0  0  0  0  0  0  0  0  0  0  0
   46.5780   32.0270   41.3470 F   0  0  0  0  0  0  0  0  0  0  0  0
   45.8410   32.6280   39.2490 F   0  0  0  0  0  0  0  0  0  0  0  0
   44.6620   33.1270   41.0710 F   0  0  0  0  0  0  0  0  0  0  0  0
   47.7724   33.4205   42.2238 H   0  0  0  0  0  0  0  0  0  0  0  0
   45.9850   35.1130   40.3735 H   0  0  0  0  0  0  0  0  0  0  0  0
   47.6107   34.5388   38.6721 H   0  0  0  0  0  0  0  0  0  0  0  0
   48.3489   33.2715   39.6149 H   0  0  0  0  0  0  0  0  0  0  0  0
   49.8392   34.9555   40.3081 H   0  0  0  0  0  0  0  0  0  0  0  0
   48.7498   36.2516   39.7534 H   0  0  0  0  0  0  0  0  0  0  0  0
   49.1844   35.4342   42.4422 H   0  0  0  0  0  0  0  0  0  0  0  0
   47.9177   36.5198   41.9165 H   0  0  0  0  0  0  0  0  0  0  0  0
   44.0951   36.7662   44.3395 H   0  0  0  0  0  0  0  0  0  0  0  0
   45.5467   36.4660   42.3228 H   0  0  0  0  0  0  0  0  0  0  0  0
   46.1523   32.1173   46.1704 H   0  0  0  0  0  0  0  0  0  0  0  0
   45.1840   33.0634   49.6651 H   0  0  0  0  0  0  0  0  0  0  0  0
   46.4009   32.1339   48.7496 H   0  0  0  0  0  0  0  0  0  0  0  0
  1  8  1  0
  2  1  1  0
  3  4  1  0
  3  2  1  0
  4  5  1  0
  5  1  1  0
  6 11  2  0
  7  6  1  0
  8  7  2  0
  8  9  1  0
  9 10  2  0
 10 11  1  0
 10 12  1  0
 12 13  1  0
 13 14  2  0
 13 15  1  0
 14 16  1  0
 17  2  1  0
 17 20  1  0
 17 18  1  0
 19 17  1  0
  1 21  1  1
  2 22  1  6
  3 23  1  0
  3 24  1  0
  4 25  1  0
  4 26  1  0
  5 27  1  0
  5 28  1  0
  6 29  1  0
  7 30  1  0
 12 31  1  0
 15 32  1  0
 15 33  1  0
M  ISO  8  21  13  22  13  23  13  24  13  25  13  26  13  27  13  28  13
M  ISO  2  29  14  30  14
M  END
>  <minimizedAffinity>  (1) 
-6.69666767

>  <minimizedRMSD>  (1) 
0.388866693

$$$$
