
     RDKit          3D

 43 44  0  0  1  0  0  0  0  0999 V2000
   46.4210   35.1740   42.1070 C   0  0  0  0  0  0  0  0  0  0  0  0
   47.0400   34.5190   40.9940 N   0  0  0  0  0  0  0  0  0  0  0  0
   46.1210   33.6510   40.3950 C   0  0  0  0  0  0  0  0  0  0  0  0
   46.5880   32.2430   40.2560 C   0  0  0  0  0  0  0  0  0  0  0  0
   47.4570   31.7170   41.3230 C   0  0  0  0  0  0  0  0  0  0  0  0
   48.0860   32.7580   42.1860 C   0  0  0  0  0  0  0  0  0  0  0  0
   48.3060   33.9930   41.3630 C   0  0  2  0  0  0  0  0  0  0  0  0
   49.1350   34.9180   42.2000 C   0  0  0  0  0  0  0  0  0  0  0  0
   49.3840   36.2220   41.4890 C   0  0  0  0  0  0  0  0  0  0  0  0
   50.4780   34.2890   42.5140 C   0  0  0  0  0  0  0  0  0  0  0  0
   45.0720   34.5840   42.4850 C   0  0  1  0  0  0  0  0  0  0  0  0
   44.5120   35.3730   44.8510 C   0  0  0  0  0  0  0  0  0  0  0  0
   45.0390   34.4170   43.9450 C   0  0  0  0  0  0  0  0  0  0  0  0
   45.5770   33.2540   44.4900 C   0  0  0  0  0  0  0  0  0  0  0  0
   45.5820   33.0760   45.8320 N   0  0  0  0  0  0  0  0  0  0  0  0
   45.0710   34.0070   46.6720 C   0  0  0  0  0  0  0  0  0  0  0  0
   44.5290   35.1700   46.1710 N   0  0  0  0  0  0  0  0  0  0  0  0
   43.9850   35.5440   42.0540 C   0  0  0  0  0  0  0  0  0  0  0  0
   46.2778   36.2342   41.8513 H   0  0  0  0  0  0  0  0  0  0  0  0
   47.0866   35.0394   42.9724 H   0  0  0  0  0  0  0  0  0  0  0  0
   45.2053   33.6489   41.0045 H   0  0  0  0  0  0  0  0  0  0  0  0
   45.9624   34.0262   39.3732 H   0  0  0  0  0  0  0  0  0  0  0  0
   45.6961   31.6010   40.2081 H   0  0  0  0  0  0  0  0  0  0  0  0
   47.2130   32.2379   39.3508 H   0  0  0  0  0  0  0  0  0  0  0  0
   46.8517   31.0601   41.9649 H   0  0  0  0  0  0  0  0  0  0  0  0
   48.2820   31.1912   40.8201 H   0  0  0  0  0  0  0  0  0  0  0  0
   47.4215   32.9896   43.0314 H   0  0  0  0  0  0  0  0  0  0  0  0
   49.0463   32.3914   42.5777 H   0  0  0  0  0  0  0  0  0  0  0  0
   48.8447   33.8098   40.4216 H   0  0  0  0  0  0  0  0  0  0  0  0
   48.5744   35.1056   43.1277 H   0  0  0  0  0  0  0  0  0  0  0  0
   49.5365   37.0204   42.2301 H   0  0  0  0  0  0  0  0  0  0  0  0
   50.2809   36.1306   40.8588 H   0  0  0  0  0  0  0  0  0  0  0  0
   48.5165   36.4675   40.8588 H   0  0  0  0  0  0  0  0  0  0  0  0
   50.6083   34.2280   43.6045 H   0  0  0  0  0  0  0  0  0  0  0  0
   50.5192   33.2779   42.0827 H   0  0  0  0  0  0  0  0  0  0  0  0
   51.2811   34.9047   42.0827 H   0  0  0  0  0  0  0  0  0  0  0  0
   44.9154   33.6124   41.9936 H   0  0  0  0  0  0  0  0  0  0  0  0
   44.0788   36.3041   44.4568 H   0  0  0  0  0  0  0  0  0  0  0  0
   45.9976   32.4805   43.8306 H   0  0  0  0  0  0  0  0  0  0  0  0
   45.0888   33.8340   47.7582 H   0  0  0  0  0  0  0  0  0  0  0  0
   43.5001   35.9722   42.9437 H   0  0  0  0  0  0  0  0  0  0  0  0
   44.4268   36.3521   41.4525 H   0  0  0  0  0  0  0  0  0  0  0  0
   43.2377   35.0057   41.4525 H   0  0  0  0  0  0  0  0  0  0  0  0
  1 11  1  0
  2  7  1  0
  2  1  1  0
  3  2  1  0
  4  3  1  0
  4  5  1  0
  5  6  1  0
  7  6  1  0
  7  8  1  0
  8 10  1  0
  9  8  1  0
 11 13  1  0
 12 17  2  0
 13 14  2  0
 13 12  1  0
 14 15  1  0
 15 16  2  0
 17 16  1  0
 18 11  1  0
  1 19  1  0
  1 20  1  0
  3 21  1  0
  3 22  1  0
  4 23  1  0
  4 24  1  0
  5 25  1  0
  5 26  1  0
  6 27  1  0
  6 28  1  0
  7 29  1  6
  8 30  1  0
  9 31  1  0
  9 32  1  0
  9 33  1  0
 10 34  1  0
 10 35  1  0
 10 36  1  0
 11 37  1  6
 12 38  1  0
 14 39  1  0
 16 40  1  0
 18 41  1  0
 18 42  1  0
 18 43  1  0
M  ISO  8  19   8  20   8  21  13  22  13  23  13  24  13  25  13  26  13
M  ISO  8  27  13  28  13  29  13  30   8  31   8  32   8  33   8  34   8
M  ISO  8  35   8  36   8  37   8  38  14  39  14  40  14  41   8  42   8
M  ISO  1  43   8
M  END
>  <minimizedAffinity>  (1) 
-4.58936071

>  <minimizedRMSD>  (1) 
1.89769661

$$$$
