
     RDKit          3D

 36 38  0  0  1  0  0  0  0  0999 V2000
   47.0110   34.1910   42.3930 C   0  0  1  0  0  0  0  0  0  0  0  0
   46.2840   34.3520   41.1270 C   0  0  1  0  0  0  0  0  0  0  0  0
   47.4140   34.2770   40.1240 C   0  0  0  0  0  0  0  0  0  0  0  0
   48.4740   35.1410   40.7970 C   0  0  0  0  0  0  0  0  0  0  0  0
   48.1420   35.2030   42.2580 C   0  0  0  0  0  0  0  0  0  0  0  0
   44.5700   35.5350   44.9600 C   0  0  0  0  0  0  0  0  0  0  0  0
   45.2640   35.4220   43.7410 C   0  0  0  0  0  0  0  0  0  0  0  0
   46.2330   34.3940   43.6160 C   0  0  0  0  0  0  0  0  0  0  0  0
   46.4120   33.6030   44.6870 N   0  0  0  0  0  0  0  0  0  0  0  0
   45.7460   33.7170   45.8470 C   0  0  0  0  0  0  0  0  0  0  0  0
   44.8200   34.6900   45.9800 N   0  0  0  0  0  0  0  0  0  0  0  0
   46.0130   32.8050   46.9540 C   0  0  0  0  0  0  0  0  0  0  0  0
   45.0470   32.6150   47.9210 C   0  0  0  0  0  0  0  0  0  0  0  0
   45.3340   31.7420   48.9570 C   0  0  0  0  0  0  0  0  0  0  0  0
   46.5570   31.0960   48.9950 C   0  0  0  0  0  0  0  0  0  0  0  0
   47.5390   31.2810   48.0250 C   0  0  0  0  0  0  0  0  0  0  0  0
   47.2240   32.1460   47.0190 C   0  0  0  0  0  0  0  0  0  0  0  0
   45.3780   33.1140   40.9890 C   0  0  0  0  0  0  0  0  0  0  0  0
   45.8580   32.0690   41.7200 F   0  0  0  0  0  0  0  0  0  0  0  0
   45.3080   32.8650   39.6290 F   0  0  0  0  0  0  0  0  0  0  0  0
   44.1090   33.4270   41.4250 F   0  0  0  0  0  0  0  0  0  0  0  0
   47.3358   33.1483   42.5244 H   0  0  0  0  0  0  0  0  0  0  0  0
   45.6688   35.2581   41.0241 H   0  0  0  0  0  0  0  0  0  0  0  0
   47.1155   34.6926   39.1503 H   0  0  0  0  0  0  0  0  0  0  0  0
   47.7465   33.2531   39.8981 H   0  0  0  0  0  0  0  0  0  0  0  0
   49.4688   34.6931   40.6563 H   0  0  0  0  0  0  0  0  0  0  0  0
   48.4876   36.1500   40.3590 H   0  0  0  0  0  0  0  0  0  0  0  0
   49.0070   34.9142   42.8731 H   0  0  0  0  0  0  0  0  0  0  0  0
   47.8653   36.2118   42.5983 H   0  0  0  0  0  0  0  0  0  0  0  0
   43.8131   36.3238   45.0821 H   0  0  0  0  0  0  0  0  0  0  0  0
   45.0606   36.1116   42.9085 H   0  0  0  0  0  0  0  0  0  0  0  0
   44.0814   33.1394   47.8706 H   0  0  0  0  0  0  0  0  0  0  0  0
   44.5911   31.5625   49.7482 H   0  0  0  0  0  0  0  0  0  0  0  0
   46.7625   30.4066   49.8272 H   0  0  0  0  0  0  0  0  0  0  0  0
   48.5079   30.7620   48.0677 H   0  0  0  0  0  0  0  0  0  0  0  0
   47.9655   32.3260   46.2267 H   0  0  0  0  0  0  0  0  0  0  0  0
  1  8  1  0
  2  1  1  0
  3  4  1  0
  3  2  1  0
  4  5  1  0
  5  1  1  0
  6 11  2  0
  7  6  1  0
  8  7  2  0
  8  9  1  0
  9 10  2  0
 10 11  1  0
 10 12  1  0
 12 17  1  0
 12 13  2  0
 13 14  1  0
 14 15  2  0
 16 15  1  0
 17 16  2  0
 18  2  1  0
 18 21  1  0
 18 19  1  0
 20 18  1  0
  1 22  1  1
  2 23  1  1
  3 24  1  0
  3 25  1  0
  4 26  1  0
  4 27  1  0
  5 28  1  0
  5 29  1  0
  6 30  1  0
  7 31  1  0
 13 32  1  0
 14 33  1  0
 15 34  1  0
 16 35  1  0
 17 36  1  0
M  ISO  8  22  13  23  13  24  13  25  13  26  13  27  13  28  13  29  13
M  ISO  7  30  14  31  14  32  14  33  14  34  14  35  14  36  14
M  END
>  <minimizedAffinity>  (1) 
-6.43693066

>  <minimizedRMSD>  (1) 
0.652059913

$$$$
