
     RDKit          3D

 38 40  0  0  1  0  0  0  0  0999 V2000
   47.1240   34.2970   42.1710 C   0  0  1  0  0  0  0  0  0  0  0  0
   46.4190   34.3200   40.8820 C   0  0  1  0  0  0  0  0  0  0  0  0
   47.5810   34.2370   39.9120 C   0  0  0  0  0  0  0  0  0  0  0  0
   48.5580   35.2250   40.5380 C   0  0  0  0  0  0  0  0  0  0  0  0
   48.1820   35.3770   41.9830 C   0  0  0  0  0  0  0  0  0  0  0  0
   44.6160   35.7240   44.6330 C   0  0  0  0  0  0  0  0  0  0  0  0
   45.3600   35.5710   43.4480 C   0  0  0  0  0  0  0  0  0  0  0  0
   46.3100   34.5290   43.3590 C   0  0  0  0  0  0  0  0  0  0  0  0
   46.4320   33.7430   44.4460 N   0  0  0  0  0  0  0  0  0  0  0  0
   45.7190   33.8910   45.5760 C   0  0  0  0  0  0  0  0  0  0  0  0
   44.8070   34.8830   45.6740 N   0  0  0  0  0  0  0  0  0  0  0  0
   45.9470   32.9880   46.6570 N   0  0  0  0  0  0  0  0  0  0  0  0
   45.0390   32.8480   47.7830 C   0  0  0  0  0  0  0  0  0  0  0  0
   45.9130   32.2500   48.8590 C   0  0  0  0  0  0  0  0  0  0  0  0
   47.3140   32.1950   48.3160 C   0  0  0  0  0  0  0  0  0  0  0  0
   47.0770   32.0880   46.8110 C   0  0  0  0  0  0  0  0  0  0  0  0
   45.5970   33.0160   40.8160 C   0  0  0  0  0  0  0  0  0  0  0  0
   46.1590   32.0380   41.5720 F   0  0  0  0  0  0  0  0  0  0  0  0
   45.4930   32.7070   39.4710 F   0  0  0  0  0  0  0  0  0  0  0  0
   44.3110   33.2550   41.2810 F   0  0  0  0  0  0  0  0  0  0  0  0
   47.5150   33.2909   42.3830 H   0  0  0  0  0  0  0  0  0  0  0  0
   45.7521   35.1757   40.7001 H   0  0  0  0  0  0  0  0  0  0  0  0
   47.2846   34.5492   38.8998 H   0  0  0  0  0  0  0  0  0  0  0  0
   47.9866   33.2233   39.7781 H   0  0  0  0  0  0  0  0  0  0  0  0
   49.5853   34.8406   40.4557 H   0  0  0  0  0  0  0  0  0  0  0  0
   48.5122   36.1952   40.0216 H   0  0  0  0  0  0  0  0  0  0  0  0
   49.0479   35.2019   42.6384 H   0  0  0  0  0  0  0  0  0  0  0  0
   47.8247   36.3860   42.2365 H   0  0  0  0  0  0  0  0  0  0  0  0
   43.8747   36.5328   44.7125 H   0  0  0  0  0  0  0  0  0  0  0  0
   45.2036   36.2549   42.6008 H   0  0  0  0  0  0  0  0  0  0  0  0
   44.6433   33.8259   48.0945 H   0  0  0  0  0  0  0  0  0  0  0  0
   44.1572   32.2323   47.5520 H   0  0  0  0  0  0  0  0  0  0  0  0
   45.8831   32.8787   49.7611 H   0  0  0  0  0  0  0  0  0  0  0  0
   45.5612   31.2444   49.1330 H   0  0  0  0  0  0  0  0  0  0  0  0
   47.8744   33.1077   48.5669 H   0  0  0  0  0  0  0  0  0  0  0  0
   47.9131   31.3690   48.7269 H   0  0  0  0  0  0  0  0  0  0  0  0
   46.8218   31.0606   46.5120 H   0  0  0  0  0  0  0  0  0  0  0  0
   47.9501   32.3377   46.1903 H   0  0  0  0  0  0  0  0  0  0  0  0
  1  8  1  0
  2  1  1  0
  3  4  1  0
  3  2  1  0
  4  5  1  0
  5  1  1  0
  6 11  2  0
  7  6  1  0
  8  7  2  0
  8  9  1  0
  9 10  2  0
 10 11  1  0
 10 12  1  0
 12 16  1  0
 12 13  1  0
 13 14  1  0
 15 14  1  0
 16 15  1  0
 17  2  1  0
 17 20  1  0
 17 18  1  0
 19 17  1  0
  1 21  1  1
  2 22  1  6
  3 23  1  0
  3 24  1  0
  4 25  1  0
  4 26  1  0
  5 27  1  0
  5 28  1  0
  6 29  1  0
  7 30  1  0
 13 31  1  0
 13 32  1  0
 14 33  1  0
 14 34  1  0
 15 35  1  0
 15 36  1  0
 16 37  1  0
 16 38  1  0
M  ISO  8  21  13  22  13  23  13  24  13  25  13  26  13  27  13  28  13
M  ISO  8  29  14  30  14  31  13  32  13  33  13  34  13  35  13  36  13
M  ISO  2  37  13  38  13
M  END
>  <minimizedAffinity>  (1) 
-6.43548632

>  <minimizedRMSD>  (1) 
0.310565263

$$$$
