
     RDKit          3D

 34 36  0  0  1  0  0  0  0  0999 V2000
   47.2260   34.2840   42.1880 C   0  0  1  0  0  0  0  0  0  0  0  0
   46.5180   34.3060   40.9000 C   0  0  1  0  0  0  0  0  0  0  0  0
   47.6820   34.2900   39.9280 C   0  0  0  0  0  0  0  0  0  0  0  0
   48.6220   35.2880   40.5690 C   0  0  0  0  0  0  0  0  0  0  0  0
   48.2500   35.4010   42.0200 C   0  0  0  0  0  0  0  0  0  0  0  0
   44.6650   35.5600   44.6750 C   0  0  0  0  0  0  0  0  0  0  0  0
   45.4150   35.4480   43.4910 C   0  0  0  0  0  0  0  0  0  0  0  0
   46.4090   34.4600   43.3800 C   0  0  0  0  0  0  0  0  0  0  0  0
   46.5670   33.6720   44.4560 N   0  0  0  0  0  0  0  0  0  0  0  0
   45.8550   33.7720   45.5910 C   0  0  0  0  0  0  0  0  0  0  0  0
   44.8980   34.7170   45.7080 N   0  0  0  0  0  0  0  0  0  0  0  0
   46.1080   32.8630   46.7040 C   0  0  0  0  0  0  0  0  0  0  0  0
   45.2340   32.8090   47.7700 C   0  0  0  0  0  0  0  0  0  0  0  0
   45.5040   31.9320   48.8150 C   0  0  0  0  0  0  0  0  0  0  0  0
   46.6180   31.1430   48.7800 N   0  0  0  0  0  0  0  0  0  0  0  0
   47.4530   31.2160   47.7280 C   0  0  0  0  0  0  0  0  0  0  0  0
   47.1950   32.0710   46.7040 N   0  0  0  0  0  0  0  0  0  0  0  0
   45.7420   32.9790   40.8050 C   0  0  0  0  0  0  0  0  0  0  0  0
   46.3430   32.0050   41.5580 F   0  0  0  0  0  0  0  0  0  0  0  0
   45.6730   32.6830   39.4610 F   0  0  0  0  0  0  0  0  0  0  0  0
   44.4570   33.1610   41.2660 F   0  0  0  0  0  0  0  0  0  0  0  0
   47.6517   33.2881   42.3802 H   0  0  0  0  0  0  0  0  0  0  0  0
   45.8182   35.1389   40.7370 H   0  0  0  0  0  0  0  0  0  0  0  0
   47.3722   34.6166   38.9243 H   0  0  0  0  0  0  0  0  0  0  0  0
   48.1227   33.2944   39.7715 H   0  0  0  0  0  0  0  0  0  0  0  0
   49.6606   34.9380   40.4749 H   0  0  0  0  0  0  0  0  0  0  0  0
   48.5402   36.2667   40.0735 H   0  0  0  0  0  0  0  0  0  0  0  0
   49.1241   35.2393   42.6679 H   0  0  0  0  0  0  0  0  0  0  0  0
   47.8648   36.3934   42.2972 H   0  0  0  0  0  0  0  0  0  0  0  0
   43.8879   36.3337   44.7619 H   0  0  0  0  0  0  0  0  0  0  0  0
   45.2241   36.1331   42.6519 H   0  0  0  0  0  0  0  0  0  0  0  0
   44.3392   33.4484   47.7930 H   0  0  0  0  0  0  0  0  0  0  0  0
   44.8178   31.8737   49.6727 H   0  0  0  0  0  0  0  0  0  0  0  0
   48.3499   30.5799   47.6965 H   0  0  0  0  0  0  0  0  0  0  0  0
  1  8  1  0
  2  1  1  0
  3  4  1  0
  3  2  1  0
  4  5  1  0
  5  1  1  0
  6 11  2  0
  7  6  1  0
  8  7  2  0
  8  9  1  0
  9 10  2  0
 10 11  1  0
 10 12  1  0
 12 17  1  0
 12 13  2  0
 13 14  1  0
 15 14  2  0
 16 15  1  0
 17 16  2  0
 18  2  1  0
 18 21  1  0
 18 19  1  0
 20 18  1  0
  1 22  1  1
  2 23  1  1
  3 24  1  0
  3 25  1  0
  4 26  1  0
  4 27  1  0
  5 28  1  0
  5 29  1  0
  6 30  1  0
  7 31  1  0
 13 32  1  0
 14 33  1  0
 16 34  1  0
M  ISO  8  22  13  23  13  24  13  25  13  26  13  27  13  28  13  29  13
M  ISO  5  30  14  31  14  32  14  33  14  34  14
M  END
>  <minimizedAffinity>  (1) 
-6.17934322

>  <minimizedRMSD>  (1) 
0.643802047

$$$$
