
     RDKit          3D

 33 35  0  0  1  0  0  0  0  0999 V2000
   47.2290   34.3120   42.2100 C   0  0  1  0  0  0  0  0  0  0  0  0
   46.5370   34.3120   40.9130 C   0  0  1  0  0  0  0  0  0  0  0  0
   47.7150   34.3080   39.9560 C   0  0  0  0  0  0  0  0  0  0  0  0
   48.6490   35.3220   40.6130 C   0  0  0  0  0  0  0  0  0  0  0  0
   48.2420   35.4370   42.0450 C   0  0  0  0  0  0  0  0  0  0  0  0
   44.6530   35.6310   44.6610 C   0  0  0  0  0  0  0  0  0  0  0  0
   45.4160   35.5280   43.4830 C   0  0  0  0  0  0  0  0  0  0  0  0
   46.3860   34.4980   43.3920 C   0  0  0  0  0  0  0  0  0  0  0  0
   46.5000   33.6900   44.4550 N   0  0  0  0  0  0  0  0  0  0  0  0
   45.7640   33.7960   45.5800 C   0  0  0  0  0  0  0  0  0  0  0  0
   44.8350   34.7770   45.6780 N   0  0  0  0  0  0  0  0  0  0  0  0
   45.9910   32.8310   46.6930 C   0  0  0  0  0  0  0  0  0  0  0  0
   45.1420   32.8160   47.8380 C   0  0  0  0  0  0  0  0  0  0  0  0
   45.4460   31.8840   48.7970 C   0  0  0  0  0  0  0  0  0  0  0  0
   46.5060   31.0060   48.6780 C   0  0  0  0  0  0  0  0  0  0  0  0
   47.1950   31.5500   46.9710 S   0  0  0  0  0  0  0  0  0  0  0  0
   45.7830   32.9850   40.8170 C   0  0  0  0  0  0  0  0  0  0  0  0
   46.4200   31.9970   41.5340 F   0  0  0  0  0  0  0  0  0  0  0  0
   45.6640   32.7010   39.4730 F   0  0  0  0  0  0  0  0  0  0  0  0
   44.5110   33.1370   41.3240 F   0  0  0  0  0  0  0  0  0  0  0  0
   47.6644   33.3237   42.4190 H   0  0  0  0  0  0  0  0  0  0  0  0
   45.8263   35.1325   40.7349 H   0  0  0  0  0  0  0  0  0  0  0  0
   47.4148   34.6328   38.9488 H   0  0  0  0  0  0  0  0  0  0  0  0
   48.1661   33.3160   39.8063 H   0  0  0  0  0  0  0  0  0  0  0  0
   49.6904   34.9744   40.5443 H   0  0  0  0  0  0  0  0  0  0  0  0
   48.5815   36.2975   40.1092 H   0  0  0  0  0  0  0  0  0  0  0  0
   49.1040   35.2927   42.7129 H   0  0  0  0  0  0  0  0  0  0  0  0
   47.8335   36.4262   42.2994 H   0  0  0  0  0  0  0  0  0  0  0  0
   43.8959   36.4242   44.7485 H   0  0  0  0  0  0  0  0  0  0  0  0
   45.2632   36.2312   42.6511 H   0  0  0  0  0  0  0  0  0  0  0  0
   44.2950   33.5095   47.9457 H   0  0  0  0  0  0  0  0  0  0  0  0
   44.8191   31.8334   49.6995 H   0  0  0  0  0  0  0  0  0  0  0  0
   46.8550   30.2206   49.3645 H   0  0  0  0  0  0  0  0  0  0  0  0
  1  8  1  0
  2  1  1  0
  3  4  1  0
  3  2  1  0
  4  5  1  0
  5  1  1  0
  6 11  2  0
  7  6  1  0
  8  7  2  0
  8  9  1  0
  9 10  2  0
 10 11  1  0
 10 12  1  0
 12 16  1  0
 12 13  2  0
 13 14  1  0
 15 14  2  0
 16 15  1  0
 17  2  1  0
 17 20  1  0
 17 18  1  0
 19 17  1  0
  1 21  1  1
  2 22  1  6
  3 23  1  0
  3 24  1  0
  4 25  1  0
  4 26  1  0
  5 27  1  0
  5 28  1  0
  6 29  1  0
  7 30  1  0
 13 31  1  0
 14 32  1  0
 15 33  1  0
M  ISO  8  21  13  22  13  23  13  24  13  25  13  26  13  27  13  28  13
M  ISO  5  29  14  30  14  31  14  32  14  33  14
M  END
>  <minimizedAffinity>  (1) 
-6.04235077

>  <minimizedRMSD>  (1) 
0.466978967

$$$$
