
     RDKit          3D

 38 39  0  0  1  0  0  0  0  0999 V2000
   47.1930   34.1960   42.4800 C   0  0  1  0  0  0  0  0  0  0  0  0
   46.4990   34.4580   41.2100 C   0  0  1  0  0  0  0  0  0  0  0  0
   47.6480   34.4540   40.2280 C   0  0  0  0  0  0  0  0  0  0  0  0
   48.7020   35.2510   40.9970 C   0  0  0  0  0  0  0  0  0  0  0  0
   48.3240   35.2210   42.4510 C   0  0  0  0  0  0  0  0  0  0  0  0
   44.7100   35.3790   45.0940 C   0  0  0  0  0  0  0  0  0  0  0  0
   45.4420   35.3450   43.8970 C   0  0  0  0  0  0  0  0  0  0  0  0
   46.3870   34.3080   43.6960 C   0  0  0  0  0  0  0  0  0  0  0  0
   46.5090   33.4240   44.6900 N   0  0  0  0  0  0  0  0  0  0  0  0
   45.8150   33.4430   45.8410 C   0  0  0  0  0  0  0  0  0  0  0  0
   44.9010   34.4390   46.0440 N   0  0  0  0  0  0  0  0  0  0  0  0
   46.0310   32.4020   46.8890 C   0  0  0  0  0  0  0  0  0  0  0  0
   45.9240   31.0160   46.2950 C   0  0  0  0  0  0  0  0  0  0  0  0
   47.3770   32.5780   47.5650 C   0  0  0  0  0  0  0  0  0  0  0  0
   44.9780   32.6080   47.9830 C   0  0  0  0  0  0  0  0  0  0  0  0
   45.5920   33.2350   40.9580 C   0  0  0  0  0  0  0  0  0  0  0  0
   46.0580   32.1320   41.6020 F   0  0  0  0  0  0  0  0  0  0  0  0
   45.5220   33.1010   39.5800 F   0  0  0  0  0  0  0  0  0  0  0  0
   44.3110   33.5090   41.4070 F   0  0  0  0  0  0  0  0  0  0  0  0
   47.5129   33.1451   42.5383 H   0  0  0  0  0  0  0  0  0  0  0  0
   45.8923   35.3743   41.1624 H   0  0  0  0  0  0  0  0  0  0  0  0
   47.3745   34.9520   39.2861 H   0  0  0  0  0  0  0  0  0  0  0  0
   47.9766   33.4495   39.9231 H   0  0  0  0  0  0  0  0  0  0  0  0
   49.6929   34.7942   40.8577 H   0  0  0  0  0  0  0  0  0  0  0  0
   48.7455   36.2873   40.6308 H   0  0  0  0  0  0  0  0  0  0  0  0
   49.1701   34.8965   43.0746 H   0  0  0  0  0  0  0  0  0  0  0  0
   48.0331   36.2048   42.8478 H   0  0  0  0  0  0  0  0  0  0  0  0
   43.9736   36.1792   45.2597 H   0  0  0  0  0  0  0  0  0  0  0  0
   45.2844   36.1128   43.1252 H   0  0  0  0  0  0  0  0  0  0  0  0
   45.8667   30.2735   47.1046 H   0  0  0  0  0  0  0  0  0  0  0  0
   45.0182   30.9521   45.6741 H   0  0  0  0  0  0  0  0  0  0  0  0
   46.8092   30.8138   45.6741 H   0  0  0  0  0  0  0  0  0  0  0  0
   47.2440   32.5606   48.6568 H   0  0  0  0  0  0  0  0  0  0  0  0
   48.0481   31.7600   47.2643 H   0  0  0  0  0  0  0  0  0  0  0  0
   47.8152   33.5411   47.2643 H   0  0  0  0  0  0  0  0  0  0  0  0
   45.4527   32.5151   48.9710 H   0  0  0  0  0  0  0  0  0  0  0  0
   44.5351   33.6098   47.8817 H   0  0  0  0  0  0  0  0  0  0  0  0
   44.1903   31.8469   47.8817 H   0  0  0  0  0  0  0  0  0  0  0  0
  1  8  1  0
  2  1  1  0
  3  4  1  0
  3  2  1  0
  4  5  1  0
  5  1  1  0
  6 11  2  0
  7  6  1  0
  8  7  2  0
  8  9  1  0
  9 10  2  0
 10 11  1  0
 10 12  1  0
 12 14  1  0
 12 15  1  0
 13 12  1  0
 16  2  1  0
 16 19  1  0
 16 17  1  0
 18 16  1  0
  1 20  1  6
  2 21  1  1
  3 22  1  0
  3 23  1  0
  4 24  1  0
  4 25  1  0
  5 26  1  0
  5 27  1  0
  6 28  1  0
  7 29  1  0
 13 30  1  0
 13 31  1  0
 13 32  1  0
 14 33  1  0
 14 34  1  0
 14 35  1  0
 15 36  1  0
 15 37  1  0
 15 38  1  0
M  ISO  8  20  13  21  13  22  13  23  13  24  13  25  13  26  13  27  13
M  ISO  8  28  14  29  14  30   8  31   8  32   8  33   8  34   8  35   8
M  ISO  3  36   8  37   8  38   8
M  END
>  <minimizedAffinity>  (1) 
-5.3315711

>  <minimizedRMSD>  (1) 
0.818417668

$$$$
