
     RDKit          3D

 40 42  0  0  1  0  0  0  0  0999 V2000
   46.4000   33.3840   40.0650 N   0  0  0  0  0  0  0  0  0  0  0  0
   46.4030   32.1330   40.7190 C   0  0  0  0  0  0  0  0  0  0  0  0
   47.6780   31.3850   40.6740 C   0  0  0  0  0  0  0  0  0  0  0  0
   48.9090   32.1800   40.6130 C   0  0  0  0  0  0  0  0  0  0  0  0
   48.7370   33.6260   40.2910 C   0  0  0  0  0  0  0  0  0  0  0  0
   47.5750   33.8300   39.4000 C   0  0  1  0  0  0  0  0  0  0  0  0
   47.7530   33.4270   38.0130 C   0  0  0  0  0  0  0  0  0  0  0  0
   48.9630   33.5680   37.2430 C   0  0  0  0  0  0  0  0  0  0  0  0
   48.4510   32.8550   35.5670 S   0  0  0  0  0  0  0  0  0  0  0  0
   46.7190   32.5120   36.2410 C   0  0  0  0  0  0  0  0  0  0  0  0
   46.8110   32.8830   37.2830 N   0  0  0  0  0  0  0  0  0  0  0  0
   45.9920   34.4000   41.0010 C   0  0  0  0  0  0  0  0  0  0  0  0
   44.6380   34.1860   41.6130 C   0  0  1  0  0  0  0  0  0  0  0  0
   44.3590   35.6270   43.7140 C   0  0  0  0  0  0  0  0  0  0  0  0
   44.7350   34.4320   43.0550 C   0  0  0  0  0  0  0  0  0  0  0  0
   45.2530   33.4170   43.8570 C   0  0  0  0  0  0  0  0  0  0  0  0
   45.3720   33.6070   45.1970 N   0  0  0  0  0  0  0  0  0  0  0  0
   45.0020   34.7610   45.7910 C   0  0  0  0  0  0  0  0  0  0  0  0
   44.4870   35.7860   45.0310 N   0  0  0  0  0  0  0  0  0  0  0  0
   43.7030   35.2020   40.9850 C   0  0  0  0  0  0  0  0  0  0  0  0
   46.1495   32.3042   41.7756 H   0  0  0  0  0  0  0  0  0  0  0  0
   45.6737   31.5120   40.1782 H   0  0  0  0  0  0  0  0  0  0  0  0
   47.7296   30.7605   41.5781 H   0  0  0  0  0  0  0  0  0  0  0  0
   47.6499   30.8247   39.7278 H   0  0  0  0  0  0  0  0  0  0  0  0
   49.4041   32.1098   41.5928 H   0  0  0  0  0  0  0  0  0  0  0  0
   49.4940   31.7583   39.7824 H   0  0  0  0  0  0  0  0  0  0  0  0
   48.5792   34.1871   41.2239 H   0  0  0  0  0  0  0  0  0  0  0  0
   49.6421   33.9835   39.7781 H   0  0  0  0  0  0  0  0  0  0  0  0
   47.4536   34.9094   39.2262 H   0  0  0  0  0  0  0  0  0  0  0  0
   49.9341   33.9832   37.5505 H   0  0  0  0  0  0  0  0  0  0  0  0
   45.8509   32.0640   35.7353 H   0  0  0  0  0  0  0  0  0  0  0  0
   46.7330   34.4342   41.8133 H   0  0  0  0  0  0  0  0  0  0  0  0
   45.9289   35.3385   40.4308 H   0  0  0  0  0  0  0  0  0  0  0  0
   44.2709   33.1629   41.4440 H   0  0  0  0  0  0  0  0  0  0  0  0
   43.9463   36.4541   43.1177 H   0  0  0  0  0  0  0  0  0  0  0  0
   45.5650   32.4635   43.4059 H   0  0  0  0  0  0  0  0  0  0  0  0
   45.1117   34.8818   46.8788 H   0  0  0  0  0  0  0  0  0  0  0  0
   43.1862   35.7635   41.7772 H   0  0  0  0  0  0  0  0  0  0  0  0
   44.2832   35.8978   40.3612 H   0  0  0  0  0  0  0  0  0  0  0  0
   42.9615   34.6814   40.3612 H   0  0  0  0  0  0  0  0  0  0  0  0
  1  2  1  0
  1 12  1  0
  3  2  1  0
  4  3  1  0
  5  4  1  0
  6  1  1  0
  6  5  1  0
  7  6  1  0
  8  7  2  0
  9 10  1  0
  9  8  1  0
 10 11  2  0
 11  7  1  0
 12 13  1  0
 13 15  1  0
 14 19  2  0
 15 14  1  0
 15 16  2  0
 16 17  1  0
 17 18  2  0
 19 18  1  0
 20 13  1  0
  2 21  1  0
  2 22  1  0
  3 23  1  0
  3 24  1  0
  4 25  1  0
  4 26  1  0
  5 27  1  0
  5 28  1  0
  6 29  1  6
  8 30  1  0
 10 31  1  0
 12 32  1  0
 12 33  1  0
 13 34  1  1
 14 35  1  0
 16 36  1  0
 18 37  1  0
 20 38  1  0
 20 39  1  0
 20 40  1  0
M  ISO  8  21  13  22  13  23  13  24  13  25  13  26  13  27  13  28  13
M  ISO  8  29  13  30  14  31  14  32   8  33   8  34   8  35  14  36  14
M  ISO  4  37  14  38   8  39   8  40   8
M  END
>  <minimizedAffinity>  (1) 
-4.34531546

>  <minimizedRMSD>  (1) 
2.71449852

$$$$
