
     RDKit          3D

 28 29  0  0  1  0  0  0  0  0999 V2000
   47.0740   34.3000   42.2000 C   0  0  1  0  0  0  0  0  0  0  0  0
   46.3780   34.3140   40.9040 C   0  0  1  0  0  0  0  0  0  0  0  0
   47.5430   34.2160   39.9480 C   0  0  0  0  0  0  0  0  0  0  0  0
   48.5310   35.1920   40.5660 C   0  0  0  0  0  0  0  0  0  0  0  0
   48.1430   35.3710   42.0070 C   0  0  0  0  0  0  0  0  0  0  0  0
   44.5880   35.8090   44.6290 C   0  0  0  0  0  0  0  0  0  0  0  0
   45.3420   35.6310   43.4610 C   0  0  0  0  0  0  0  0  0  0  0  0
   46.2560   34.5480   43.3840 C   0  0  0  0  0  0  0  0  0  0  0  0
   46.3310   33.7600   44.4610 N   0  0  0  0  0  0  0  0  0  0  0  0
   45.6070   33.9330   45.5830 C   0  0  0  0  0  0  0  0  0  0  0  0
   44.7340   34.9610   45.6670 N   0  0  0  0  0  0  0  0  0  0  0  0
   45.7620   33.0170   46.7080 C   0  0  0  0  0  0  0  0  0  0  0  0
   44.9750   33.0880   47.6860 O   0  0  0  0  0  0  0  0  0  0  0  0
   45.5520   33.0140   40.8480 C   0  0  0  0  0  0  0  0  0  0  0  0
   46.1220   32.0300   41.5960 F   0  0  0  0  0  0  0  0  0  0  0  0
   45.4260   32.7130   39.5080 F   0  0  0  0  0  0  0  0  0  0  0  0
   44.2750   33.2570   41.3320 F   0  0  0  0  0  0  0  0  0  0  0  0
   47.4540   33.2925   42.4248 H   0  0  0  0  0  0  0  0  0  0  0  0
   45.7167   35.1706   40.7065 H   0  0  0  0  0  0  0  0  0  0  0  0
   47.2555   34.5255   38.9323 H   0  0  0  0  0  0  0  0  0  0  0  0
   47.9379   33.1964   39.8281 H   0  0  0  0  0  0  0  0  0  0  0  0
   49.5516   34.7872   40.4988 H   0  0  0  0  0  0  0  0  0  0  0  0
   48.5097   36.1552   40.0351 H   0  0  0  0  0  0  0  0  0  0  0  0
   49.0013   35.1999   42.6734 H   0  0  0  0  0  0  0  0  0  0  0  0
   47.7920   36.3866   42.2424 H   0  0  0  0  0  0  0  0  0  0  0  0
   43.8747   36.6434   44.6991 H   0  0  0  0  0  0  0  0  0  0  0  0
   45.2267   36.3228   42.6136 H   0  0  0  0  0  0  0  0  0  0  0  0
   46.5656   32.2659   46.7006 H   0  0  0  0  0  0  0  0  0  0  0  0
  1  8  1  0
  2  1  1  0
  3  4  1  0
  3  2  1  0
  4  5  1  0
  5  1  1  0
  6 11  2  0
  7  6  1  0
  8  7  2  0
  8  9  1  0
  9 10  2  0
 10 11  1  0
 10 12  1  0
 12 13  2  0
 14  2  1  0
 14 17  1  0
 14 15  1  0
 16 14  1  0
  1 18  1  1
  2 19  1  6
  3 20  1  0
  3 21  1  0
  4 22  1  0
  4 23  1  0
  5 24  1  0
  5 25  1  0
  6 26  1  0
  7 27  1  0
 12 28  1  0
M  ISO  8  18  13  19  13  20  13  21  13  22  13  23  13  24  13  25  13
M  ISO  3  26  14  27  14  28   6
M  END
>  <minimizedAffinity>  (1) 
-5.1769824

>  <minimizedRMSD>  (1) 
0.18407926

$$$$
