
     RDKit          3D

 27 28  0  0  1  0  0  0  0  0999 V2000
   47.0470   34.2930   42.2170 C   0  0  1  0  0  0  0  0  0  0  0  0
   46.3540   34.3300   40.9210 C   0  0  1  0  0  0  0  0  0  0  0  0
   47.5230   34.2010   39.9650 C   0  0  0  0  0  0  0  0  0  0  0  0
   48.5170   35.1800   40.5830 C   0  0  0  0  0  0  0  0  0  0  0  0
   48.1450   35.3360   42.0310 C   0  0  0  0  0  0  0  0  0  0  0  0
   44.5770   35.8420   44.6410 C   0  0  0  0  0  0  0  0  0  0  0  0
   45.3260   35.6530   43.4690 C   0  0  0  0  0  0  0  0  0  0  0  0
   46.2280   34.5630   43.3950 C   0  0  0  0  0  0  0  0  0  0  0  0
   46.3000   33.7710   44.4810 N   0  0  0  0  0  0  0  0  0  0  0  0
   45.5800   33.9520   45.6090 C   0  0  0  0  0  0  0  0  0  0  0  0
   44.7160   34.9970   45.6780 N   0  0  0  0  0  0  0  0  0  0  0  0
   45.7920   32.8010   46.9790 S   0  0  0  0  0  0  0  0  0  0  0  0
   45.4930   33.0530   40.8560 C   0  0  0  0  0  0  0  0  0  0  0  0
   46.0250   32.0560   41.6140 F   0  0  0  0  0  0  0  0  0  0  0  0
   45.3840   32.7370   39.5140 F   0  0  0  0  0  0  0  0  0  0  0  0
   44.2240   33.3410   41.3080 F   0  0  0  0  0  0  0  0  0  0  0  0
   47.4028   33.2764   42.4406 H   0  0  0  0  0  0  0  0  0  0  0  0
   45.7163   35.2049   40.7265 H   0  0  0  0  0  0  0  0  0  0  0  0
   47.2441   34.4998   38.9438 H   0  0  0  0  0  0  0  0  0  0  0  0
   47.9065   33.1759   39.8547 H   0  0  0  0  0  0  0  0  0  0  0  0
   49.5395   34.7836   40.4971 H   0  0  0  0  0  0  0  0  0  0  0  0
   48.4839   36.1496   40.0646 H   0  0  0  0  0  0  0  0  0  0  0  0
   49.0044   35.1264   42.6849 H   0  0  0  0  0  0  0  0  0  0  0  0
   47.8227   36.3557   42.2885 H   0  0  0  0  0  0  0  0  0  0  0  0
   43.8735   36.6847   44.7116 H   0  0  0  0  0  0  0  0  0  0  0  0
   45.2141   36.3422   42.6190 H   0  0  0  0  0  0  0  0  0  0  0  0
   45.6678   33.4751   48.1652 H   0  0  0  0  0  0  0  0  0  0  0  0
  1  8  1  0
  2  1  1  0
  3  4  1  0
  3  2  1  0
  4  5  1  0
  5  1  1  0
  6 11  2  0
  7  6  1  0
  8  7  2  0
  8  9  1  0
  9 10  2  0
 10 11  1  0
 10 12  1  0
 13  2  1  0
 13 16  1  0
 13 14  1  0
 15 13  1  0
  1 17  1  1
  2 18  1  6
  3 19  1  0
  3 20  1  0
  4 21  1  0
  4 22  1  0
  5 23  1  0
  5 24  1  0
  6 25  1  0
  7 26  1  0
 12 27  1  0
M  ISO  8  17  13  18  13  19  13  20  13  21  13  22  13  23  13  24  13
M  ISO  3  25  14  26  14  27  11
M  END
>  <minimizedAffinity>  (1) 
-5.05165386

>  <minimizedRMSD>  (1) 
0.152054265

$$$$
