
     RDKit          3D

 39 41  0  0  1  0  0  0  0  0999 V2000
   44.8540   35.9300   42.8850 C   0  0  0  0  0  0  0  0  0  0  0  0
   45.4410   35.4740   41.6910 C   0  0  0  0  0  0  0  0  0  0  0  0
   46.2210   34.2900   41.7250 C   0  0  0  0  0  0  0  0  0  0  0  0
   46.3380   33.6840   42.9220 N   0  0  0  0  0  0  0  0  0  0  0  0
   45.7690   34.1320   44.0610 C   0  0  0  0  0  0  0  0  0  0  0  0
   45.0250   35.2610   44.0320 N   0  0  0  0  0  0  0  0  0  0  0  0
   46.8700   33.7400   40.5410 C   0  0  1  0  0  0  0  0  0  0  0  0
   46.0270   33.5870   39.3460 C   0  0  1  0  0  0  0  0  0  0  0  0
   47.0560   33.2030   38.3000 C   0  0  0  0  0  0  0  0  0  0  0  0
   48.1960   34.1670   38.6280 C   0  0  0  0  0  0  0  0  0  0  0  0
   47.9980   34.6330   40.0360 C   0  0  0  0  0  0  0  0  0  0  0  0
   45.0960   32.3960   39.6250 C   0  0  0  0  0  0  0  0  0  0  0  0
   45.6690   31.5050   40.4860 F   0  0  0  0  0  0  0  0  0  0  0  0
   44.8010   31.8610   38.3820 F   0  0  0  0  0  0  0  0  0  0  0  0
   43.9200   32.8570   40.1670 F   0  0  0  0  0  0  0  0  0  0  0  0
   46.2750   32.0540   47.7090 C   0  0  0  0  0  0  0  0  0  0  0  0
   47.0510   31.7270   46.6010 C   0  0  0  0  0  0  0  0  0  0  0  0
   46.8840   32.4110   45.4030 C   0  0  0  0  0  0  0  0  0  0  0  0
   45.9480   33.4160   45.3070 C   0  0  0  0  0  0  0  0  0  0  0  0
   45.1830   33.7330   46.4090 C   0  0  0  0  0  0  0  0  0  0  0  0
   45.3520   33.0530   47.5960 C   0  0  0  0  0  0  0  0  0  0  0  0
   46.3750   31.2850   49.2700 S   0  0  0  0  0  0  0  0  0  0  0  0
   47.7220   30.6630   49.4520 O   0  0  0  0  0  0  0  0  0  0  0  0
   45.2950   30.2300   49.3400 O   0  0  0  0  0  0  0  0  0  0  0  0
   44.2471   36.8474   42.8763 H   0  0  0  0  0  0  0  0  0  0  0  0
   45.2980   36.0247   40.7496 H   0  0  0  0  0  0  0  0  0  0  0  0
   47.1887   32.7579   40.9204 H   0  0  0  0  0  0  0  0  0  0  0  0
   45.4184   34.4572   39.0591 H   0  0  0  0  0  0  0  0  0  0  0  0
   46.6734   33.3644   37.2814 H   0  0  0  0  0  0  0  0  0  0  0  0
   47.3447   32.1418   38.3224 H   0  0  0  0  0  0  0  0  0  0  0  0
   49.1630   33.6509   38.5354 H   0  0  0  0  0  0  0  0  0  0  0  0
   48.1950   35.0198   37.9333 H   0  0  0  0  0  0  0  0  0  0  0  0
   48.9117   34.4897   40.6315 H   0  0  0  0  0  0  0  0  0  0  0  0
   47.7650   35.7057   40.1075 H   0  0  0  0  0  0  0  0  0  0  0  0
   47.7993   30.9241   46.6738 H   0  0  0  0  0  0  0  0  0  0  0  0
   47.5004   32.1492   44.5304 H   0  0  0  0  0  0  0  0  0  0  0  0
   44.4324   34.5342   46.3406 H   0  0  0  0  0  0  0  0  0  0  0  0
   44.7334   33.3196   48.4656 H   0  0  0  0  0  0  0  0  0  0  0  0
   46.1979   32.2075   50.2673 H   0  0  0  0  0  0  0  0  0  0  0  0
  1  6  2  0
  2  3  2  0
  2  1  1  0
  3  4  1  0
  4  5  2  0
  5 19  1  0
  6  5  1  0
  7  3  1  0
  8 12  1  0
  8  7  1  0
  9 10  1  0
  9  8  1  0
 10 11  1  0
 11  7  1  0
 12 15  1  0
 12 13  1  0
 14 12  1  0
 16 22  1  0
 17 16  2  0
 18 17  1  0
 19 18  2  0
 19 20  1  0
 20 21  2  0
 21 16  1  0
 22 24  2  0
 22 23  2  0
  1 25  1  0
  2 26  1  0
  7 27  1  1
  8 28  1  6
  9 29  1  0
  9 30  1  0
 10 31  1  0
 10 32  1  0
 11 33  1  0
 11 34  1  0
 17 35  1  0
 18 36  1  0
 20 37  1  0
 21 38  1  0
 22 39  1  0
M  ISO  8  25  14  26  14  27  13  28  13  29  13  30  13  31  13  32  13
M  ISO  7  33  13  34  13  35  14  36  14  37  14  38  14  39  11
M  END
>  <minimizedAffinity>  (1) 
-4.92901087

>  <minimizedRMSD>  (1) 
1.58569443

$$$$
