
     RDKit          3D

 36 37  0  0  0  0  0  0  0  0999 V2000
   46.5260   32.6870   44.6100 C   0  0  0  0  0  0  0  0  0  0  0  0
   46.2240   34.6560   43.0980 C   0  0  0  0  0  0  0  0  0  0  0  0
   45.9040   34.0240   44.3380 C   0  0  0  0  0  0  0  0  0  0  0  0
   45.0470   34.7010   45.1940 C   0  0  0  0  0  0  0  0  0  0  0  0
   44.5580   35.9100   44.8260 N   0  0  0  0  0  0  0  0  0  0  0  0
   44.8940   36.4750   43.6240 C   0  0  0  0  0  0  0  0  0  0  0  0
   45.7190   35.8530   42.7730 N   0  0  0  0  0  0  0  0  0  0  0  0
   47.7930   32.5860   43.7650 C   0  0  0  0  0  0  0  0  0  0  0  0
   45.5970   31.6230   44.1290 C   0  0  0  0  0  0  0  0  0  0  0  0
   46.8720   32.5980   46.0600 C   0  0  0  0  0  0  0  0  0  0  0  0
   46.1590   31.6960   46.8650 N   0  0  0  0  0  0  0  0  0  0  0  0
   45.3210   32.1900   47.9060 C   0  0  0  0  0  0  0  0  0  0  0  0
   45.1320   31.1120   48.9970 C   0  0  0  0  0  0  0  0  0  0  0  0
   46.3460   30.8150   49.6940 N   0  0  0  0  0  0  0  0  0  0  0  0
   47.4730   31.1140   48.8400 C   0  0  0  0  0  0  0  0  0  0  0  0
   47.0620   30.7150   47.4260 C   0  0  0  0  0  0  0  0  0  0  0  0
   46.9002   34.1484   42.3943 H   0  0  0  0  0  0  0  0  0  0  0  0
   44.7672   34.2604   46.1623 H   0  0  0  0  0  0  0  0  0  0  0  0
   44.4785   37.4570   43.3535 H   0  0  0  0  0  0  0  0  0  0  0  0
   48.6697   32.5161   44.4256 H   0  0  0  0  0  0  0  0  0  0  0  0
   47.7398   31.6892   43.1302 H   0  0  0  0  0  0  0  0  0  0  0  0
   47.8826   33.4799   43.1302 H   0  0  0  0  0  0  0  0  0  0  0  0
   45.1488   31.1097   44.9925 H   0  0  0  0  0  0  0  0  0  0  0  0
   44.8021   32.0782   43.5199 H   0  0  0  0  0  0  0  0  0  0  0  0
   46.1552   30.8967   43.5199 H   0  0  0  0  0  0  0  0  0  0  0  0
   47.9344   32.3202   46.1238 H   0  0  0  0  0  0  0  0  0  0  0  0
   46.6044   33.5865   46.4616 H   0  0  0  0  0  0  0  0  0  0  0  0
   45.7845   33.0818   48.3530 H   0  0  0  0  0  0  0  0  0  0  0  0
   44.3389   32.4486   47.4834 H   0  0  0  0  0  0  0  0  0  0  0  0
   44.3882   31.4722   49.7229 H   0  0  0  0  0  0  0  0  0  0  0  0
   44.7996   30.1891   48.4991 H   0  0  0  0  0  0  0  0  0  0  0  0
   46.4007   31.3872   50.5487 H   0  0  0  0  0  0  0  0  0  0  0  0
   47.7053   32.1885   48.8794 H   0  0  0  0  0  0  0  0  0  0  0  0
   48.3723   30.5685   49.1620 H   0  0  0  0  0  0  0  0  0  0  0  0
   46.5597   29.7369   47.4574 H   0  0  0  0  0  0  0  0  0  0  0  0
   47.9622   30.6590   46.7963 H   0  0  0  0  0  0  0  0  0  0  0  0
  1 10  1  0
  2  3  2  0
  3  1  1  0
  3  4  1  0
  5  4  2  0
  6  5  1  0
  7  2  1  0
  7  6  2  0
  8  1  1  0
  9  1  1  0
 10 11  1  0
 11 16  1  0
 11 12  1  0
 12 13  1  0
 13 14  1  0
 15 14  1  0
 16 15  1  0
  2 17  1  0
  4 18  1  0
  6 19  1  0
  8 20  1  0
  8 21  1  0
  8 22  1  0
  9 23  1  0
  9 24  1  0
  9 25  1  0
 10 26  1  0
 10 27  1  0
 12 28  1  0
 12 29  1  0
 13 30  1  0
 13 31  1  0
 14 32  1  0
 15 33  1  0
 15 34  1  0
 16 35  1  0
 16 36  1  0
M  ISO  8  17  14  18  14  19  14  20   8  21   8  22   8  23   8  24   8
M  ISO  8  25   8  26   8  27   8  28  13  29  13  30  13  31  13  32   5
M  ISO  4  33  13  34  13  35  13  36  13
M  END
>  <minimizedAffinity>  (1) 
-4.81375122

>  <minimizedRMSD>  (1) 
6.84657192

$$$$
