
     RDKit          3D

 35 36  0  0  0  0  0  0  0  0999 V2000
   46.4840   32.6380   44.6930 C   0  0  0  0  0  0  0  0  0  0  0  0
   46.1900   34.6030   43.1650 C   0  0  0  0  0  0  0  0  0  0  0  0
   45.8740   33.9820   44.4120 C   0  0  0  0  0  0  0  0  0  0  0  0
   45.0340   34.6840   45.2540 C   0  0  0  0  0  0  0  0  0  0  0  0
   44.5570   35.8920   44.8860 N   0  0  0  0  0  0  0  0  0  0  0  0
   44.8840   36.4460   43.6880 C   0  0  0  0  0  0  0  0  0  0  0  0
   45.7000   35.8000   42.8310 N   0  0  0  0  0  0  0  0  0  0  0  0
   47.7990   32.5590   43.9110 C   0  0  0  0  0  0  0  0  0  0  0  0
   45.5870   31.5870   44.1350 C   0  0  0  0  0  0  0  0  0  0  0  0
   46.7800   32.5490   46.1450 C   0  0  0  0  0  0  0  0  0  0  0  0
   46.0370   31.5970   46.9840 C   0  0  0  0  0  0  0  0  0  0  0  0
   45.2180   32.2150   48.0570 C   0  0  0  0  0  0  0  0  0  0  0  0
   45.5090   31.3990   49.3230 C   0  0  0  0  0  0  0  0  0  0  0  0
   46.9610   31.0740   49.1590 C   0  0  0  0  0  0  0  0  0  0  0  0
   47.0760   30.7260   47.7030 C   0  0  0  0  0  0  0  0  0  0  0  0
   46.8548   34.0814   42.4607 H   0  0  0  0  0  0  0  0  0  0  0  0
   44.7526   34.2572   46.2280 H   0  0  0  0  0  0  0  0  0  0  0  0
   44.4785   37.4315   43.4153 H   0  0  0  0  0  0  0  0  0  0  0  0
   48.6422   32.5083   44.6156 H   0  0  0  0  0  0  0  0  0  0  0  0
   47.7957   31.6594   43.2779 H   0  0  0  0  0  0  0  0  0  0  0  0
   47.9034   33.4525   43.2779 H   0  0  0  0  0  0  0  0  0  0  0  0
   45.1142   31.0330   44.9593 H   0  0  0  0  0  0  0  0  0  0  0  0
   44.8092   32.0591   43.5169 H   0  0  0  0  0  0  0  0  0  0  0  0
   46.1755   30.8930   43.5169 H   0  0  0  0  0  0  0  0  0  0  0  0
   47.8454   32.2917   46.2379 H   0  0  0  0  0  0  0  0  0  0  0  0
   46.4648   33.5298   46.5307 H   0  0  0  0  0  0  0  0  0  0  0  0
   45.3532   31.0590   46.3110 H   0  0  0  0  0  0  0  0  0  0  0  0
   45.5074   33.2661   48.2032 H   0  0  0  0  0  0  0  0  0  0  0  0
   44.1470   32.2071   47.8060 H   0  0  0  0  0  0  0  0  0  0  0  0
   45.3331   31.9943   50.2311 H   0  0  0  0  0  0  0  0  0  0  0  0
   44.8669   30.5130   49.4361 H   0  0  0  0  0  0  0  0  0  0  0  0
   47.5894   31.9420   49.4073 H   0  0  0  0  0  0  0  0  0  0  0  0
   47.2979   30.2640   49.8226 H   0  0  0  0  0  0  0  0  0  0  0  0
   46.8575   29.6595   47.5452 H   0  0  0  0  0  0  0  0  0  0  0  0
   48.0916   30.9075   47.3214 H   0  0  0  0  0  0  0  0  0  0  0  0
  1 10  1  0
  2  3  2  0
  3  1  1  0
  3  4  1  0
  5  4  2  0
  6  5  1  0
  7  2  1  0
  7  6  2  0
  8  1  1  0
  9  1  1  0
 10 11  1  0
 11 15  1  0
 11 12  1  0
 12 13  1  0
 14 13  1  0
 15 14  1  0
  2 16  1  0
  4 17  1  0
  6 18  1  0
  8 19  1  0
  8 20  1  0
  8 21  1  0
  9 22  1  0
  9 23  1  0
  9 24  1  0
 10 25  1  0
 10 26  1  0
 11 27  1  0
 12 28  1  0
 12 29  1  0
 13 30  1  0
 13 31  1  0
 14 32  1  0
 14 33  1  0
 15 34  1  0
 15 35  1  0
M  ISO  8  16  14  17  14  18  14  19   8  20   8  21   8  22   8  23   8
M  ISO  8  24   8  25   8  26   8  27  13  28  13  29  13  30  13  31  13
M  ISO  4  32  13  33  13  34  13  35  13
M  END
>  <minimizedAffinity>  (1) 
-4.62989283

>  <minimizedRMSD>  (1) 
6.39166975

$$$$
