
     RDKit          3D

 36 37  0  0  1  0  0  0  0  0999 V2000
   46.9220   35.2110   41.9970 C   0  0  0  0  0  0  0  0  0  0  0  0
   47.8310   34.5450   41.1060 N   0  0  0  0  0  0  0  0  0  0  0  0
   47.5450   33.1740   41.0820 C   0  0  0  0  0  0  0  0  0  0  0  0
   48.7140   32.3060   41.4010 C   0  0  0  0  0  0  0  0  0  0  0  0
   49.6860   32.8030   42.3950 C   0  0  0  0  0  0  0  0  0  0  0  0
   49.6210   34.2680   42.6410 C   0  0  0  0  0  0  0  0  0  0  0  0
   49.1640   34.9550   41.3880 C   0  0  2  0  0  0  0  0  0  0  0  0
   49.2070   36.3760   41.6430 N   0  0  0  0  0  0  0  0  0  0  0  0
   45.6500   34.4150   42.2520 C   0  0  1  0  0  0  0  0  0  0  0  0
   44.6990   35.4280   44.3990 C   0  0  0  0  0  0  0  0  0  0  0  0
   45.3940   34.4110   43.6970 C   0  0  0  0  0  0  0  0  0  0  0  0
   45.8820   33.3440   44.4460 C   0  0  0  0  0  0  0  0  0  0  0  0
   45.6850   33.3110   45.7830 N   0  0  0  0  0  0  0  0  0  0  0  0
   45.0150   34.2990   46.4240 C   0  0  0  0  0  0  0  0  0  0  0  0
   44.5150   35.3710   45.7210 N   0  0  0  0  0  0  0  0  0  0  0  0
   44.5200   35.1300   41.5370 C   0  0  0  0  0  0  0  0  0  0  0  0
   46.6465   36.1806   41.5566 H   0  0  0  0  0  0  0  0  0  0  0  0
   47.4352   35.3300   42.9626 H   0  0  0  0  0  0  0  0  0  0  0  0
   46.7533   32.9727   41.8186 H   0  0  0  0  0  0  0  0  0  0  0  0
   47.2384   32.9304   40.0541 H   0  0  0  0  0  0  0  0  0  0  0  0
   48.3206   31.3495   41.7757 H   0  0  0  0  0  0  0  0  0  0  0  0
   49.2823   32.2479   40.4609 H   0  0  0  0  0  0  0  0  0  0  0  0
   49.4983   32.2859   43.3476 H   0  0  0  0  0  0  0  0  0  0  0  0
   50.6859   32.5985   41.9846 H   0  0  0  0  0  0  0  0  0  0  0  0
   48.9099   34.4739   43.4546 H   0  0  0  0  0  0  0  0  0  0  0  0
   50.6156   34.6408   42.9271 H   0  0  0  0  0  0  0  0  0  0  0  0
   49.8013   34.7035   40.5274 H   0  0  0  0  0  0  0  0  0  0  0  0
   49.2120   36.5424   42.6595 H   0  0  0  0  0  0  0  0  0  0  0  0
   50.0604   36.7740   41.2257 H   0  0  0  0  0  0  0  0  0  0  0  0
   45.7376   33.3796   41.8912 H   0  0  0  0  0  0  0  0  0  0  0  0
   44.3004   36.2874   43.8399 H   0  0  0  0  0  0  0  0  0  0  0  0
   46.4278   32.5278   43.9501 H   0  0  0  0  0  0  0  0  0  0  0  0
   44.8699   34.2438   47.5130 H   0  0  0  0  0  0  0  0  0  0  0  0
   43.8335   35.5644   42.2787 H   0  0  0  0  0  0  0  0  0  0  0  0
   44.9336   35.9311   40.9068 H   0  0  0  0  0  0  0  0  0  0  0  0
   43.9731   34.4132   40.9068 H   0  0  0  0  0  0  0  0  0  0  0  0
  1  9  1  0
  2  7  1  0
  2  1  1  0
  3  2  1  0
  3  4  1  0
  4  5  1  0
  5  6  1  0
  7  8  1  0
  7  6  1  0
  9 11  1  0
 10 15  2  0
 11 10  1  0
 11 12  2  0
 12 13  1  0
 13 14  2  0
 15 14  1  0
 16  9  1  0
  1 17  1  0
  1 18  1  0
  3 19  1  0
  3 20  1  0
  4 21  1  0
  4 22  1  0
  5 23  1  0
  5 24  1  0
  6 25  1  0
  6 26  1  0
  7 27  1  6
  8 28  1  0
  8 29  1  0
  9 30  1  6
 10 31  1  0
 12 32  1  0
 14 33  1  0
 16 34  1  0
 16 35  1  0
 16 36  1  0
M  ISO  8  17   8  18   8  19  13  20  13  21  13  22  13  23  13  24  13
M  ISO  8  25  13  26  13  27  13  28   5  29   5  30   8  31  14  32  14
M  ISO  4  33  14  34   8  35   8  36   8
M  END
>  <minimizedAffinity>  (1) 
-4.32646322

>  <minimizedRMSD>  (1) 
0.56365478

$$$$
