
     RDKit          3D

 37 38  0  0  0  0  0  0  0  0999 V2000
   45.4080   34.5330   43.6160 C   0  0  0  0  0  0  0  0  0  0  0  0
   44.8640   34.4780   46.0500 C   0  0  0  0  0  0  0  0  0  0  0  0
   45.4580   33.8260   44.9300 C   0  0  0  0  0  0  0  0  0  0  0  0
   46.0250   32.5850   45.1450 C   0  0  0  0  0  0  0  0  0  0  0  0
   46.0000   32.0370   46.3840 N   0  0  0  0  0  0  0  0  0  0  0  0
   45.4160   32.7040   47.4300 C   0  0  0  0  0  0  0  0  0  0  0  0
   44.8490   33.9210   47.2690 N   0  0  0  0  0  0  0  0  0  0  0  0
   44.5880   35.8080   43.8030 C   0  0  0  0  0  0  0  0  0  0  0  0
   44.6490   33.6740   42.6410 C   0  0  0  0  0  0  0  0  0  0  0  0
   46.7860   34.8940   43.1820 C   0  0  0  0  0  0  0  0  0  0  0  0
   47.2720   34.3130   41.9930 N   0  0  0  0  0  0  0  0  0  0  0  0
   47.8620   33.0210   42.0340 C   0  0  0  0  0  0  0  0  0  0  0  0
   49.1230   32.9600   42.8720 C   0  0  0  0  0  0  0  0  0  0  0  0
   50.1010   33.9100   42.1800 C   0  0  0  0  0  0  0  0  0  0  0  0
   49.4740   35.2830   41.9990 C   0  0  0  0  0  0  0  0  0  0  0  0
   48.1670   35.1740   41.2410 C   0  0  0  0  0  0  0  0  0  0  0  0
   44.4044   35.4675   45.9096 H   0  0  0  0  0  0  0  0  0  0  0  0
   46.4960   32.0426   44.3120 H   0  0  0  0  0  0  0  0  0  0  0  0
   45.4085   32.2370   48.4259 H   0  0  0  0  0  0  0  0  0  0  0  0
   44.4598   36.0073   44.8772 H   0  0  0  0  0  0  0  0  0  0  0  0
   45.1122   36.6533   43.3332 H   0  0  0  0  0  0  0  0  0  0  0  0
   43.6014   35.6816   43.3332 H   0  0  0  0  0  0  0  0  0  0  0  0
   44.0192   32.9612   43.1934 H   0  0  0  0  0  0  0  0  0  0  0  0
   44.0135   34.3112   42.0084 H   0  0  0  0  0  0  0  0  0  0  0  0
   45.3596   33.1218   42.0084 H   0  0  0  0  0  0  0  0  0  0  0  0
   46.8132   35.9856   43.0492 H   0  0  0  0  0  0  0  0  0  0  0  0
   47.4395   34.4969   43.9727 H   0  0  0  0  0  0  0  0  0  0  0  0
   47.1295   32.3167   42.4551 H   0  0  0  0  0  0  0  0  0  0  0  0
   48.1450   32.7611   41.0033 H   0  0  0  0  0  0  0  0  0  0  0  0
   48.9209   33.2941   43.9004 H   0  0  0  0  0  0  0  0  0  0  0  0
   49.5216   31.9375   42.9469 H   0  0  0  0  0  0  0  0  0  0  0  0
   51.0087   34.0050   42.7940 H   0  0  0  0  0  0  0  0  0  0  0  0
   50.3528   33.5013   41.1903 H   0  0  0  0  0  0  0  0  0  0  0  0
   49.2833   35.7269   42.9872 H   0  0  0  0  0  0  0  0  0  0  0  0
   50.1660   35.9171   41.4253 H   0  0  0  0  0  0  0  0  0  0  0  0
   48.3494   34.7419   40.2460 H   0  0  0  0  0  0  0  0  0  0  0  0
   47.7176   36.1703   41.1169 H   0  0  0  0  0  0  0  0  0  0  0  0
  1  8  1  0
  1  3  1  0
  2  7  2  0
  3  4  2  0
  3  2  1  0
  4  5  1  0
  5  6  2  0
  7  6  1  0
  9  1  1  0
 10  1  1  0
 11 12  1  0
 11 10  1  0
 12 13  1  0
 14 13  1  0
 15 14  1  0
 16 11  1  0
 16 15  1  0
  2 17  1  0
  4 18  1  0
  6 19  1  0
  8 20  1  0
  8 21  1  0
  8 22  1  0
  9 23  1  0
  9 24  1  0
  9 25  1  0
 10 26  1  0
 10 27  1  0
 12 28  1  0
 12 29  1  0
 13 30  1  0
 13 31  1  0
 14 32  1  0
 14 33  1  0
 15 34  1  0
 15 35  1  0
 16 36  1  0
 16 37  1  0
M  ISO  8  17  14  18  14  19  14  20   8  21   8  22   8  23   8  24   8
M  ISO  8  25   8  26   8  27   8  28  13  29  13  30  13  31  13  32  13
M  ISO  5  33  13  34  13  35  13  36  13  37  13
M  END
>  <minimizedAffinity>  (1) 
-4.19809437

>  <minimizedRMSD>  (1) 
2.19739628

$$$$
