
     RDKit          3D

 36 37  0  0  1  0  0  0  0  0999 V2000
   46.4310   35.0020   42.9040 C   0  0  0  0  0  0  0  0  0  0  0  0
   46.3780   34.9420   41.4860 N   0  0  0  0  0  0  0  0  0  0  0  0
   45.2450   34.1780   41.0780 C   0  0  0  0  0  0  0  0  0  0  0  0
   45.5730   33.0410   40.1700 C   0  0  0  0  0  0  0  0  0  0  0  0
   46.8870   32.3910   40.3360 C   0  0  0  0  0  0  0  0  0  0  0  0
   47.8820   33.1600   41.1360 C   0  0  0  0  0  0  0  0  0  0  0  0
   47.6220   34.6210   40.9180 C   0  0  2  0  0  0  0  0  0  0  0  0
   48.7220   35.3800   41.5070 C   0  0  0  0  0  0  0  0  0  0  0  0
   49.3470   36.4150   41.5660 O   0  0  0  0  0  0  0  0  0  0  0  0
   45.1470   34.5990   43.6000 C   0  0  1  0  0  0  0  0  0  0  0  0
   45.4840   33.8350   46.0140 C   0  0  0  0  0  0  0  0  0  0  0  0
   45.4600   33.5940   44.6170 C   0  0  0  0  0  0  0  0  0  0  0  0
   45.7710   32.3070   44.1860 C   0  0  0  0  0  0  0  0  0  0  0  0
   46.0780   31.3500   45.0950 N   0  0  0  0  0  0  0  0  0  0  0  0
   46.0930   31.6100   46.4220 C   0  0  0  0  0  0  0  0  0  0  0  0
   45.7920   32.8710   46.8850 N   0  0  0  0  0  0  0  0  0  0  0  0
   44.5680   35.8420   44.2530 C   0  0  0  0  0  0  0  0  0  0  0  0
   46.6694   36.0356   43.1951 H   0  0  0  0  0  0  0  0  0  0  0  0
   47.1970   34.2780   43.2186 H   0  0  0  0  0  0  0  0  0  0  0  0
   44.7593   33.7726   41.9779 H   0  0  0  0  0  0  0  0  0  0  0  0
   44.5908   34.8576   40.5122 H   0  0  0  0  0  0  0  0  0  0  0  0
   45.5206   33.4183   39.1381 H   0  0  0  0  0  0  0  0  0  0  0  0
   44.8412   32.2603   40.4247 H   0  0  0  0  0  0  0  0  0  0  0  0
   46.7268   31.4228   40.8330 H   0  0  0  0  0  0  0  0  0  0  0  0
   47.3124   32.3029   39.3254 H   0  0  0  0  0  0  0  0  0  0  0  0
   47.7717   32.9163   42.2030 H   0  0  0  0  0  0  0  0  0  0  0  0
   48.9048   32.9029   40.8232 H   0  0  0  0  0  0  0  0  0  0  0  0
   47.5761   34.8745   39.8486 H   0  0  0  0  0  0  0  0  0  0  0  0
   49.2023   34.7000   42.2260 H   0  0  0  0  0  0  0  0  0  0  0  0
   44.4216   34.1747   42.8902 H   0  0  0  0  0  0  0  0  0  0  0  0
   45.2430   34.8405   46.3894 H   0  0  0  0  0  0  0  0  0  0  0  0
   45.7675   32.0681   43.1123 H   0  0  0  0  0  0  0  0  0  0  0  0
   46.3467   30.8109   47.1341 H   0  0  0  0  0  0  0  0  0  0  0  0
   44.6165   35.7379   45.3470 H   0  0  0  0  0  0  0  0  0  0  0  0
   45.1482   36.7234   43.9425 H   0  0  0  0  0  0  0  0  0  0  0  0
   43.5199   35.9649   43.9425 H   0  0  0  0  0  0  0  0  0  0  0  0
  1 10  1  0
  2  1  1  0
  3  2  1  0
  4  5  1  0
  4  3  1  0
  5  6  1  0
  7  6  1  0
  7  2  1  0
  7  8  1  0
  8  9  2  0
 10 17  1  0
 10 12  1  0
 11 16  2  0
 12 11  1  0
 13 12  2  0
 13 14  1  0
 14 15  2  0
 15 16  1  0
  1 18  1  0
  1 19  1  0
  3 20  1  0
  3 21  1  0
  4 22  1  0
  4 23  1  0
  5 24  1  0
  5 25  1  0
  6 26  1  0
  6 27  1  0
  7 28  1  6
  8 29  1  0
 10 30  1  6
 11 31  1  0
 13 32  1  0
 15 33  1  0
 17 34  1  0
 17 35  1  0
 17 36  1  0
M  ISO  8  18   8  19   8  20  13  21  13  22  13  23  13  24  13  25  13
M  ISO  8  26  13  27  13  28  13  29   6  30   8  31  14  32  14  33  14
M  ISO  3  34   8  35   8  36   8
M  END
>  <minimizedAffinity>  (1) 
-4.28901911

>  <minimizedRMSD>  (1) 
2.43987536

$$$$
