
     RDKit          3D

 52 55  0  0  1  0  0  0  0  0999 V2000
   42.4390   34.1420   40.5780 C   0  0  2  0  0  0  0  0  0  0  0  0
   42.3360   34.6440   39.1710 C   0  0  0  0  0  0  0  0  0  0  0  0
   40.8900   34.6910   38.6860 C   0  0  0  0  0  0  0  0  0  0  0  0
   40.0100   35.6150   39.4280 C   0  0  0  0  0  0  0  0  0  0  0  0
   40.6500   35.8090   40.7980 C   0  0  0  0  0  0  0  0  0  0  0  0
   41.1170   34.4720   41.2450 C   0  0  1  0  0  0  0  0  0  0  0  0
   40.1390   33.4430   41.1980 N   0  0  0  0  0  0  0  0  0  0  0  0
   38.8830   33.3920   40.6600 C   0  0  0  0  0  0  0  0  0  0  0  0
   38.3180   32.1870   40.8500 N   0  0  0  0  0  0  0  0  0  0  0  0
   39.2450   31.4510   41.5310 C   0  0  0  0  0  0  0  0  0  0  0  0
   39.0940   30.1420   41.9400 C   0  0  0  0  0  0  0  0  0  0  0  0
   38.0480   29.4880   41.7160 O   0  0  0  0  0  0  0  0  0  0  0  0
   40.1250   29.5840   42.5980 N   0  0  0  0  0  0  0  0  0  0  0  0
   41.2140   30.3450   42.8020 C   0  0  0  0  0  0  0  0  0  0  0  0
   42.3110   29.7300   43.5110 N   0  0  0  0  0  0  0  0  0  0  0  0
   41.3770   31.6190   42.4110 N   0  0  0  0  0  0  0  0  0  0  0  0
   40.3810   32.2340   41.7480 C   0  0  0  0  0  0  0  0  0  0  0  0
   43.5070   34.8250   41.3790 C   0  0  0  0  0  0  0  0  0  0  0  0
   44.6570   34.0470   41.8460 C   0  0  0  0  0  0  0  0  0  0  0  0
   45.4810   33.0270   43.9440 C   0  0  0  0  0  0  0  0  0  0  0  0
   44.8800   34.1210   43.2900 C   0  0  0  0  0  0  0  0  0  0  0  0
   44.5420   35.1850   44.0800 C   0  0  0  0  0  0  0  0  0  0  0  0
   44.7760   35.1740   45.4090 N   0  0  0  0  0  0  0  0  0  0  0  0
   45.3620   34.0910   45.9990 C   0  0  0  0  0  0  0  0  0  0  0  0
   45.7070   33.0340   45.2650 N   0  0  0  0  0  0  0  0  0  0  0  0
   44.5930   32.6090   41.4100 C   0  0  0  0  0  0  0  0  0  0  0  0
   45.9300   34.5620   41.1370 C   0  0  0  0  0  0  0  0  0  0  0  0
   42.6815   33.0697   40.5416 H   0  0  0  0  0  0  0  0  0  0  0  0
   42.7597   35.6580   39.1237 H   0  0  0  0  0  0  0  0  0  0  0  0
   42.8903   33.9508   38.5212 H   0  0  0  0  0  0  0  0  0  0  0  0
   40.8947   34.9992   37.6301 H   0  0  0  0  0  0  0  0  0  0  0  0
   40.4803   33.6828   38.8466 H   0  0  0  0  0  0  0  0  0  0  0  0
   39.9385   36.5781   38.9013 H   0  0  0  0  0  0  0  0  0  0  0  0
   38.9907   35.2111   39.5168 H   0  0  0  0  0  0  0  0  0  0  0  0
   41.5008   36.5024   40.7241 H   0  0  0  0  0  0  0  0  0  0  0  0
   39.9315   36.2362   41.5130 H   0  0  0  0  0  0  0  0  0  0  0  0
   41.3012   34.5303   42.3279 H   0  0  0  0  0  0  0  0  0  0  0  0
   38.3970   34.2297   40.1384 H   0  0  0  0  0  0  0  0  0  0  0  0
   40.0821   28.6109   42.9329 H   0  0  0  0  0  0  0  0  0  0  0  0
   43.1706   30.2667   43.6953 H   0  0  0  0  0  0  0  0  0  0  0  0
   42.2341   28.7545   43.8325 H   0  0  0  0  0  0  0  0  0  0  0  0
   43.9025   35.6417   40.7572 H   0  0  0  0  0  0  0  0  0  0  0  0
   42.9929   35.1153   42.3071 H   0  0  0  0  0  0  0  0  0  0  0  0
   45.7721   32.1446   43.3552 H   0  0  0  0  0  0  0  0  0  0  0  0
   44.0700   36.0673   43.6230 H   0  0  0  0  0  0  0  0  0  0  0  0
   45.5497   34.0912   47.0829 H   0  0  0  0  0  0  0  0  0  0  0  0
   44.5640   31.9581   42.2963 H   0  0  0  0  0  0  0  0  0  0  0  0
   43.6868   32.4485   40.8074 H   0  0  0  0  0  0  0  0  0  0  0  0
   45.4813   32.3687   40.8074 H   0  0  0  0  0  0  0  0  0  0  0  0
   46.6731   34.8626   41.8903 H   0  0  0  0  0  0  0  0  0  0  0  0
   46.3483   33.7624   40.5080 H   0  0  0  0  0  0  0  0  0  0  0  0
   45.6747   35.4276   40.5080 H   0  0  0  0  0  0  0  0  0  0  0  0
  1  6  1  0
  1 18  1  0
  2  1  1  0
  3  2  1  0
  3  4  1  0
  4  5  1  0
  5  6  1  0
  7  6  1  0
  7 17  1  0
  8  9  2  0
  8  7  1  0
  9 10  1  0
 10 17  2  0
 10 11  1  0
 11 13  1  0
 12 11  2  0
 13 14  1  0
 14 15  1  0
 16 14  2  0
 17 16  1  0
 18 19  1  0
 19 21  1  0
 20 25  2  0
 21 20  1  0
 21 22  2  0
 22 23  1  0
 23 24  2  0
 25 24  1  0
 26 19  1  0
 27 19  1  0
  1 28  1  6
  2 29  1  0
  2 30  1  0
  3 31  1  0
  3 32  1  0
  4 33  1  0
  4 34  1  0
  5 35  1  0
  5 36  1  0
  6 37  1  1
  8 38  1  0
 13 39  1  0
 15 40  1  0
 15 41  1  0
 18 42  1  0
 18 43  1  0
 20 44  1  0
 22 45  1  0
 24 46  1  0
 26 47  1  0
 26 48  1  0
 26 49  1  0
 27 50  1  0
 27 51  1  0
 27 52  1  0
M  ISO  8  28  13  29  13  30  13  31  13  32  13  33  13  34  13  35  13
M  ISO  8  36  13  37  13  38  14  39   9  42   8  43   8  44  14  45  14
M  ISO  7  46  14  47   8  48   8  49   8  50   8  51   8  52   8
M  END
>  <minimizedAffinity>  (1) 
-6.69535065

>  <minimizedRMSD>  (1) 
0.813541293

$$$$
