
     RDKit          3D

 52 55  0  0  1  0  0  0  0  0999 V2000
   42.5350   33.8350   40.0690 C   0  0  2  0  0  0  0  0  0  0  0  0
   42.5990   33.7950   38.5790 C   0  0  0  0  0  0  0  0  0  0  0  0
   41.1840   33.7380   37.9830 C   0  0  0  0  0  0  0  0  0  0  0  0
   40.4450   35.0240   38.1800 C   0  0  0  0  0  0  0  0  0  0  0  0
   40.9610   35.5950   39.4810 C   0  0  0  0  0  0  0  0  0  0  0  0
   41.2040   34.4970   40.4420 C   0  0  1  0  0  0  0  0  0  0  0  0
   40.1470   33.5430   40.7000 C   0  0  0  0  0  0  0  0  0  0  0  0
   38.7910   33.8400   40.5230 C   0  0  0  0  0  0  0  0  0  0  0  0
   38.0340   32.7790   40.8540 N   0  0  0  0  0  0  0  0  0  0  0  0
   38.8190   31.7380   41.2610 C   0  0  0  0  0  0  0  0  0  0  0  0
   38.6130   30.4420   41.6930 C   0  0  0  0  0  0  0  0  0  0  0  0
   39.6640   29.6140   42.0270 C   0  0  0  0  0  0  0  0  0  0  0  0
   40.9430   30.1110   41.9200 C   0  0  0  0  0  0  0  0  0  0  0  0
   41.1150   31.3860   41.4950 C   0  0  0  0  0  0  0  0  0  0  0  0
   40.0960   32.2480   41.1510 C   0  0  0  0  0  0  0  0  0  0  0  0
   43.6180   34.6460   40.7010 C   0  0  0  0  0  0  0  0  0  0  0  0
   44.6810   33.9730   41.4620 C   0  0  0  0  0  0  0  0  0  0  0  0
   45.2400   33.4690   43.8140 C   0  0  0  0  0  0  0  0  0  0  0  0
   44.7300   34.3820   42.8660 C   0  0  0  0  0  0  0  0  0  0  0  0
   44.3260   35.5930   43.3520 C   0  0  0  0  0  0  0  0  0  0  0  0
   44.4150   35.8880   44.6630 N   0  0  0  0  0  0  0  0  0  0  0  0
   44.9150   34.9770   45.5470 C   0  0  0  0  0  0  0  0  0  0  0  0
   45.3260   33.7720   45.1210 N   0  0  0  0  0  0  0  0  0  0  0  0
   44.6320   32.4760   41.3570 C   0  0  0  0  0  0  0  0  0  0  0  0
   46.0440   34.3010   40.8240 C   0  0  0  0  0  0  0  0  0  0  0  0
   42.6443   32.8020   40.4308 H   0  0  0  0  0  0  0  0  0  0  0  0
   43.1099   34.6982   38.2139 H   0  0  0  0  0  0  0  0  0  0  0  0
   43.1527   32.8962   38.2698 H   0  0  0  0  0  0  0  0  0  0  0  0
   40.6242   32.9273   38.4722 H   0  0  0  0  0  0  0  0  0  0  0  0
   41.2758   33.5591   36.9015 H   0  0  0  0  0  0  0  0  0  0  0  0
   40.6497   35.7155   37.3494 H   0  0  0  0  0  0  0  0  0  0  0  0
   39.3565   34.8675   38.2078 H   0  0  0  0  0  0  0  0  0  0  0  0
   41.9014   36.1351   39.2965 H   0  0  0  0  0  0  0  0  0  0  0  0
   40.2149   36.2875   39.8979 H   0  0  0  0  0  0  0  0  0  0  0  0
   41.2403   34.9793   41.4299 H   0  0  0  0  0  0  0  0  0  0  0  0
   38.4002   34.8037   40.1644 H   0  0  0  0  0  0  0  0  0  0  0  0
   37.0054   32.7547   40.8071 H   0  0  0  0  0  0  0  0  0  0  0  0
   37.5842   30.0608   41.7726 H   0  0  0  0  0  0  0  0  0  0  0  0
   39.4850   28.5842   42.3697 H   0  0  0  0  0  0  0  0  0  0  0  0
   41.8102   29.4842   42.1750 H   0  0  0  0  0  0  0  0  0  0  0  0
   42.1461   31.7616   41.4187 H   0  0  0  0  0  0  0  0  0  0  0  0
   44.1101   35.2066   39.8926 H   0  0  0  0  0  0  0  0  0  0  0  0
   43.0869   35.2321   41.4654 H   0  0  0  0  0  0  0  0  0  0  0  0
   45.5775   32.4792   43.4729 H   0  0  0  0  0  0  0  0  0  0  0  0
   43.9193   36.3432   42.6578 H   0  0  0  0  0  0  0  0  0  0  0  0
   44.9818   35.2313   46.6151 H   0  0  0  0  0  0  0  0  0  0  0  0
   44.6177   32.0379   42.3659 H   0  0  0  0  0  0  0  0  0  0  0  0
   43.7236   32.1761   40.8141 H   0  0  0  0  0  0  0  0  0  0  0  0
   45.5189   32.1173   40.8141 H   0  0  0  0  0  0  0  0  0  0  0  0
   46.7861   34.4796   41.6161 H   0  0  0  0  0  0  0  0  0  0  0  0
   46.3698   33.4556   40.2002 H   0  0  0  0  0  0  0  0  0  0  0  0
   45.9495   35.2020   40.2002 H   0  0  0  0  0  0  0  0  0  0  0  0
  1  6  1  0
  1 16  1  0
  2  1  1  0
  3  4  1  0
  3  2  1  0
  4  5  1  0
  5  6  1  0
  6  7  1  0
  7 15  1  0
  8  7  2  0
  8  9  1  0
  9 10  1  0
 10 11  2  0
 11 12  1  0
 13 12  2  0
 14 13  1  0
 15 10  1  0
 15 14  2  0
 16 17  1  0
 17 19  1  0
 18 23  2  0
 19 20  2  0
 19 18  1  0
 20 21  1  0
 21 22  2  0
 23 22  1  0
 24 17  1  0
 25 17  1  0
  1 26  1  1
  2 27  1  0
  2 28  1  0
  3 29  1  0
  3 30  1  0
  4 31  1  0
  4 32  1  0
  5 33  1  0
  5 34  1  0
  6 35  1  1
  8 36  1  0
  9 37  1  0
 11 38  1  0
 12 39  1  0
 13 40  1  0
 14 41  1  0
 16 42  1  0
 16 43  1  0
 18 44  1  0
 20 45  1  0
 22 46  1  0
 24 47  1  0
 24 48  1  0
 24 49  1  0
 25 50  1  0
 25 51  1  0
 25 52  1  0
M  ISO  8  26  13  27  13  28  13  29  13  30  13  31  13  32  13  33  13
M  ISO  8  34  13  35  13  36  14  37   9  38  14  39  14  40  14  41  14
M  ISO  8  42   8  43   8  44  14  45  14  46  14  47   8  48   8  49   8
M  ISO  3  50   8  51   8  52   8
M  END
>  <minimizedAffinity>  (1) 
-6.53012943

>  <minimizedRMSD>  (1) 
1.08711231

$$$$
