
     RDKit          3D

 51 54  0  0  1  0  0  0  0  0999 V2000
   42.6580   34.3080   40.3700 C   0  0  2  0  0  0  0  0  0  0  0  0
   42.3120   34.8770   39.0310 C   0  0  0  0  0  0  0  0  0  0  0  0
   40.8100   34.9540   38.7980 C   0  0  0  0  0  0  0  0  0  0  0  0
   40.0450   35.7930   39.7420 C   0  0  0  0  0  0  0  0  0  0  0  0
   40.9150   35.9230   40.9850 C   0  0  0  0  0  0  0  0  0  0  0  0
   41.4690   34.5770   41.2640 C   0  0  1  0  0  0  0  0  0  0  0  0
   40.4940   33.5210   41.2930 N   0  0  0  0  0  0  0  0  0  0  0  0
   39.1800   33.4440   40.9270 C   0  0  0  0  0  0  0  0  0  0  0  0
   38.7050   32.2340   41.1440 N   0  0  0  0  0  0  0  0  0  0  0  0
   39.7100   31.5090   41.6560 C   0  0  0  0  0  0  0  0  0  0  0  0
   39.6370   30.1810   42.0250 C   0  0  0  0  0  0  0  0  0  0  0  0
   40.7480   29.6060   42.5220 N   0  0  0  0  0  0  0  0  0  0  0  0
   41.8580   30.3560   42.6280 C   0  0  0  0  0  0  0  0  0  0  0  0
   41.8960   31.6490   42.2580 N   0  0  0  0  0  0  0  0  0  0  0  0
   40.8340   32.3040   41.7530 C   0  0  0  0  0  0  0  0  0  0  0  0
   38.4520   29.4070   41.9040 N   0  0  0  0  0  0  0  0  0  0  0  0
   43.8470   34.9660   41.0010 C   0  0  0  0  0  0  0  0  0  0  0  0
   44.8650   34.1360   41.6500 C   0  0  0  0  0  0  0  0  0  0  0  0
   45.4530   33.2520   43.8830 C   0  0  0  0  0  0  0  0  0  0  0  0
   44.9300   34.2980   43.1000 C   0  0  0  0  0  0  0  0  0  0  0  0
   44.5090   35.4050   43.7840 C   0  0  0  0  0  0  0  0  0  0  0  0
   44.5960   35.4770   45.1260 N   0  0  0  0  0  0  0  0  0  0  0  0
   45.1100   34.4390   45.8460 C   0  0  0  0  0  0  0  0  0  0  0  0
   45.5310   33.3440   45.2180 N   0  0  0  0  0  0  0  0  0  0  0  0
   44.7200   32.6800   41.2990 C   0  0  0  0  0  0  0  0  0  0  0  0
   46.2500   34.4840   41.0610 C   0  0  0  0  0  0  0  0  0  0  0  0
   42.8977   33.2418   40.2448 H   0  0  0  0  0  0  0  0  0  0  0  0
   42.7319   35.8912   38.9600 H   0  0  0  0  0  0  0  0  0  0  0  0
   42.7339   34.2086   38.2660 H   0  0  0  0  0  0  0  0  0  0  0  0
   40.6476   35.3540   37.7863 H   0  0  0  0  0  0  0  0  0  0  0  0
   40.4367   33.9299   38.9460 H   0  0  0  0  0  0  0  0  0  0  0  0
   39.8529   36.7837   39.3042 H   0  0  0  0  0  0  0  0  0  0  0  0
   39.0677   35.3467   39.9781 H   0  0  0  0  0  0  0  0  0  0  0  0
   41.7310   36.6378   40.8028 H   0  0  0  0  0  0  0  0  0  0  0  0
   40.3291   36.2930   41.8393 H   0  0  0  0  0  0  0  0  0  0  0  0
   41.8320   34.5829   42.3024 H   0  0  0  0  0  0  0  0  0  0  0  0
   38.5979   34.2782   40.5083 H   0  0  0  0  0  0  0  0  0  0  0  0
   42.7709   29.8949   43.0330 H   0  0  0  0  0  0  0  0  0  0  0  0
   38.4505   28.4187   42.1942 H   0  0  0  0  0  0  0  0  0  0  0  0
   37.5943   29.8341   41.5261 H   0  0  0  0  0  0  0  0  0  0  0  0
   44.3551   35.5372   40.2101 H   0  0  0  0  0  0  0  0  0  0  0  0
   43.4149   35.5448   41.8306 H   0  0  0  0  0  0  0  0  0  0  0  0
   45.8066   32.3360   43.3870 H   0  0  0  0  0  0  0  0  0  0  0  0
   44.0901   36.2552   43.2257 H   0  0  0  0  0  0  0  0  0  0  0  0
   45.1763   34.5067   46.9419 H   0  0  0  0  0  0  0  0  0  0  0  0
   44.6607   32.0845   42.2220 H   0  0  0  0  0  0  0  0  0  0  0  0
   43.8029   32.5346   40.7092 H   0  0  0  0  0  0  0  0  0  0  0  0
   45.5904   32.3566   40.7092 H   0  0  0  0  0  0  0  0  0  0  0  0
   46.9623   34.6630   41.8799 H   0  0  0  0  0  0  0  0  0  0  0  0
   46.6059   33.6474   40.4418 H   0  0  0  0  0  0  0  0  0  0  0  0
   46.1681   35.3895   40.4418 H   0  0  0  0  0  0  0  0  0  0  0  0
  1 17  1  0
  1  6  1  0
  2  1  1  0
  3  2  1  0
  3  4  1  0
  4  5  1  0
  5  6  1  0
  6  7  1  0
  7 15  1  0
  8  9  2  0
  8  7  1  0
  9 10  1  0
 10 15  2  0
 10 11  1  0
 11 12  2  0
 12 13  1  0
 14 13  2  0
 15 14  1  0
 16 11  1  0
 17 18  1  0
 18 20  1  0
 19 24  2  0
 20 21  2  0
 20 19  1  0
 21 22  1  0
 22 23  2  0
 24 23  1  0
 25 18  1  0
 26 18  1  0
  1 27  1  6
  2 28  1  0
  2 29  1  0
  3 30  1  0
  3 31  1  0
  4 32  1  0
  4 33  1  0
  5 34  1  0
  5 35  1  0
  6 36  1  1
  8 37  1  0
 13 38  1  0
 16 39  1  0
 16 40  1  0
 17 41  1  0
 17 42  1  0
 19 43  1  0
 21 44  1  0
 23 45  1  0
 25 46  1  0
 25 47  1  0
 25 48  1  0
 26 49  1  0
 26 50  1  0
 26 51  1  0
M  ISO  8  27  13  28  13  29  13  30  13  31  13  32  13  33  13  34  13
M  ISO  8  35  13  36  13  37  14  38  14  41   8  42   8  43  14  44  14
M  ISO  7  45  14  46   8  47   8  48   8  49   8  50   8  51   8
M  END
>  <minimizedAffinity>  (1) 
-6.51191425

>  <minimizedRMSD>  (1) 
0.342609346

$$$$
