
     RDKit          3D

 54 57  0  0  1  0  0  0  0  0999 V2000
   42.7470   34.6100   40.1690 C   0  0  2  0  0  0  0  0  0  0  0  0
   42.2340   35.5880   39.1550 C   0  0  0  0  0  0  0  0  0  0  0  0
   40.7390   35.5960   39.0120 C   0  0  0  0  0  0  0  0  0  0  0  0
   39.9130   35.7410   40.2200 C   0  0  0  0  0  0  0  0  0  0  0  0
   40.9060   35.6340   41.3780 C   0  0  0  0  0  0  0  0  0  0  0  0
   41.6180   34.3500   41.1340 C   0  0  1  0  0  0  0  0  0  0  0  0
   40.8380   33.1460   40.9660 C   0  0  0  0  0  0  0  0  0  0  0  0
   39.7700   32.7140   41.7260 C   0  0  0  0  0  0  0  0  0  0  0  0
   39.0250   31.5800   41.5290 C   0  0  0  0  0  0  0  0  0  0  0  0
   39.3340   30.7480   40.4720 C   0  0  0  0  0  0  0  0  0  0  0  0
   40.3890   31.1110   39.6620 C   0  0  0  0  0  0  0  0  0  0  0  0
   40.6540   30.2500   38.6200 C   0  0  0  0  0  0  0  0  0  0  0  0
   41.6840   30.5240   37.7520 C   0  0  0  0  0  0  0  0  0  0  0  0
   42.4380   31.6630   37.9440 C   0  0  0  0  0  0  0  0  0  0  0  0
   42.1150   32.4760   39.0070 C   0  0  0  0  0  0  0  0  0  0  0  0
   41.1000   32.2630   39.9130 C   0  0  0  0  0  0  0  0  0  0  0  0
   43.9100   35.1650   40.9530 C   0  0  0  0  0  0  0  0  0  0  0  0
   44.8010   34.2320   41.6300 C   0  0  0  0  0  0  0  0  0  0  0  0
   45.4150   33.3100   43.8360 C   0  0  0  0  0  0  0  0  0  0  0  0
   44.8780   34.3770   43.0770 C   0  0  0  0  0  0  0  0  0  0  0  0
   44.4670   35.4760   43.7810 C   0  0  0  0  0  0  0  0  0  0  0  0
   44.5840   35.5010   45.1360 N   0  0  0  0  0  0  0  0  0  0  0  0
   45.1000   34.4670   45.8200 C   0  0  0  0  0  0  0  0  0  0  0  0
   45.5060   33.3920   45.1720 N   0  0  0  0  0  0  0  0  0  0  0  0
   44.5090   32.7990   41.2770 C   0  0  0  0  0  0  0  0  0  0  0  0
   46.2320   34.3980   41.0540 C   0  0  0  0  0  0  0  0  0  0  0  0
   43.0896   33.7020   39.6512 H   0  0  0  0  0  0  0  0  0  0  0  0
   42.5579   36.5962   39.4528 H   0  0  0  0  0  0  0  0  0  0  0  0
   42.6440   35.2801   38.1818 H   0  0  0  0  0  0  0  0  0  0  0  0
   40.4826   36.4306   38.3428 H   0  0  0  0  0  0  0  0  0  0  0  0
   40.5011   34.5861   38.6465 H   0  0  0  0  0  0  0  0  0  0  0  0
   39.4074   36.7179   40.2304 H   0  0  0  0  0  0  0  0  0  0  0  0
   39.1196   34.9813   40.2778 H   0  0  0  0  0  0  0  0  0  0  0  0
   41.6106   36.4786   41.3665 H   0  0  0  0  0  0  0  0  0  0  0  0
   40.4111   35.6602   42.3600 H   0  0  0  0  0  0  0  0  0  0  0  0
   42.0533   34.0246   42.0903 H   0  0  0  0  0  0  0  0  0  0  0  0
   39.4865   33.3464   42.5802 H   0  0  0  0  0  0  0  0  0  0  0  0
   38.1918   31.3364   42.2046 H   0  0  0  0  0  0  0  0  0  0  0  0
   38.7597   29.8291   40.2828 H   0  0  0  0  0  0  0  0  0  0  0  0
   40.0430   29.3456   38.4829 H   0  0  0  0  0  0  0  0  0  0  0  0
   41.9040   29.8442   36.9156 H   0  0  0  0  0  0  0  0  0  0  0  0
   43.2702   31.9135   37.2697 H   0  0  0  0  0  0  0  0  0  0  0  0
   42.7250   33.3808   39.1457 H   0  0  0  0  0  0  0  0  0  0  0  0
   44.5240   35.7501   40.2525 H   0  0  0  0  0  0  0  0  0  0  0  0
   43.4383   35.7286   41.7714 H   0  0  0  0  0  0  0  0  0  0  0  0
   45.7626   32.4009   43.3234 H   0  0  0  0  0  0  0  0  0  0  0  0
   44.0414   36.3405   43.2504 H   0  0  0  0  0  0  0  0  0  0  0  0
   45.1838   34.5161   46.9157 H   0  0  0  0  0  0  0  0  0  0  0  0
   44.3892   32.2113   42.1991 H   0  0  0  0  0  0  0  0  0  0  0  0
   43.5821   32.7483   40.6869 H   0  0  0  0  0  0  0  0  0  0  0  0
   45.3422   32.3896   40.6869 H   0  0  0  0  0  0  0  0  0  0  0  0
   46.9527   34.4816   41.8808 H   0  0  0  0  0  0  0  0  0  0  0  0
   46.4825   33.5229   40.4364 H   0  0  0  0  0  0  0  0  0  0  0  0
   46.2755   35.3072   40.4364 H   0  0  0  0  0  0  0  0  0  0  0  0
  1 17  1  0
  1  6  1  0
  2  1  1  0
  3  2  1  0
  3  4  1  0
  4  5  1  0
  6  5  1  0
  7  6  1  0
  7  8  2  0
  9  8  1  0
 10  9  2  0
 11 16  2  0
 11 10  1  0
 12 11  1  0
 13 14  1  0
 13 12  2  0
 14 15  2  0
 15 16  1  0
 16  7  1  0
 17 18  1  0
 18 20  1  0
 19 24  2  0
 20 21  2  0
 20 19  1  0
 21 22  1  0
 22 23  2  0
 24 23  1  0
 25 18  1  0
 26 18  1  0
  1 27  1  6
  2 28  1  0
  2 29  1  0
  3 30  1  0
  3 31  1  0
  4 32  1  0
  4 33  1  0
  5 34  1  0
  5 35  1  0
  6 36  1  1
  8 37  1  0
  9 38  1  0
 10 39  1  0
 12 40  1  0
 13 41  1  0
 14 42  1  0
 15 43  1  0
 17 44  1  0
 17 45  1  0
 19 46  1  0
 21 47  1  0
 23 48  1  0
 25 49  1  0
 25 50  1  0
 25 51  1  0
 26 52  1  0
 26 53  1  0
 26 54  1  0
M  ISO  8  27  13  28  13  29  13  30  13  31  13  32  13  33  13  34  13
M  ISO  8  35  13  36  13  37  14  38  14  39  14  40  14  41  14  42  14
M  ISO  8  43  14  44   8  45   8  46  14  47  14  48  14  49   8  50   8
M  ISO  4  51   8  52   8  53   8  54   8
M  END
>  <minimizedAffinity>  (1) 
-6.34443474

>  <minimizedRMSD>  (1) 
0.750787735

$$$$
