
     RDKit          3D

 51 53  0  0  1  0  0  0  0  0999 V2000
   43.8320   34.9920   40.7740 C   0  0  0  0  0  0  0  0  0  0  0  0
   42.5570   34.3990   40.2490 C   0  0  2  0  0  0  0  0  0  0  0  0
   42.0900   35.1110   39.0240 C   0  0  0  0  0  0  0  0  0  0  0  0
   40.5980   35.2530   38.9590 C   0  0  0  0  0  0  0  0  0  0  0  0
   39.9530   35.9760   40.0670 C   0  0  0  0  0  0  0  0  0  0  0  0
   40.9490   35.9680   41.2200 C   0  0  0  0  0  0  0  0  0  0  0  0
   41.5030   34.5860   41.3050 C   0  0  1  0  0  0  0  0  0  0  0  0
   40.4630   33.5890   41.5040 C   0  0  0  0  0  0  0  0  0  0  0  0
   40.9410   32.2780   40.9010 C   0  0  0  0  0  0  0  0  0  0  0  0
   39.7190   31.3910   40.8410 C   0  0  0  0  0  0  0  0  0  0  0  0
   38.5630   32.3280   40.7390 C   0  0  0  0  0  0  0  0  0  0  0  0
   39.1750   33.7420   40.7420 C   0  0  0  0  0  0  0  0  0  0  0  0
   44.7820   34.1460   41.4970 C   0  0  0  0  0  0  0  0  0  0  0  0
   45.3450   33.4000   43.7900 C   0  0  0  0  0  0  0  0  0  0  0  0
   44.8390   34.3990   42.9340 C   0  0  0  0  0  0  0  0  0  0  0  0
   44.4300   35.5570   43.5420 C   0  0  0  0  0  0  0  0  0  0  0  0
   44.5130   35.7150   44.8790 N   0  0  0  0  0  0  0  0  0  0  0  0
   45.0100   34.7190   45.6660 C   0  0  0  0  0  0  0  0  0  0  0  0
   45.4170   33.5820   45.1170 N   0  0  0  0  0  0  0  0  0  0  0  0
   44.5490   32.6820   41.2470 C   0  0  0  0  0  0  0  0  0  0  0  0
   46.1980   34.3570   40.9180 C   0  0  0  0  0  0  0  0  0  0  0  0
   43.5475   35.8068   41.4560 H   0  0  0  0  0  0  0  0  0  0  0  0
   44.3798   35.2696   39.8614 H   0  0  0  0  0  0  0  0  0  0  0  0
   42.7317   33.3410   40.0039 H   0  0  0  0  0  0  0  0  0  0  0  0
   42.5382   36.1154   39.0105 H   0  0  0  0  0  0  0  0  0  0  0  0
   42.4005   34.5099   38.1567 H   0  0  0  0  0  0  0  0  0  0  0  0
   40.3543   35.7849   38.0275 H   0  0  0  0  0  0  0  0  0  0  0  0
   40.2075   34.2264   39.0181 H   0  0  0  0  0  0  0  0  0  0  0  0
   39.7264   37.0096   39.7666 H   0  0  0  0  0  0  0  0  0  0  0  0
   39.0037   35.5011   40.3554 H   0  0  0  0  0  0  0  0  0  0  0  0
   41.7575   36.6883   41.0263 H   0  0  0  0  0  0  0  0  0  0  0  0
   40.4613   36.2552   42.1633 H   0  0  0  0  0  0  0  0  0  0  0  0
   42.0751   34.4127   42.2284 H   0  0  0  0  0  0  0  0  0  0  0  0
   40.2826   33.6673   42.5863 H   0  0  0  0  0  0  0  0  0  0  0  0
   41.3452   32.4441   39.8915 H   0  0  0  0  0  0  0  0  0  0  0  0
   41.7456   31.8239   41.4981 H   0  0  0  0  0  0  0  0  0  0  0  0
   39.7620   30.7335   39.9602 H   0  0  0  0  0  0  0  0  0  0  0  0
   39.6419   30.7358   41.7212 H   0  0  0  0  0  0  0  0  0  0  0  0
   37.8878   32.1999   41.5979 H   0  0  0  0  0  0  0  0  0  0  0  0
   37.9681   32.1436   39.8323 H   0  0  0  0  0  0  0  0  0  0  0  0
   39.3685   34.0849   39.7149 H   0  0  0  0  0  0  0  0  0  0  0  0
   38.5055   34.4883   41.1946 H   0  0  0  0  0  0  0  0  0  0  0  0
   45.6892   32.4481   43.3594 H   0  0  0  0  0  0  0  0  0  0  0  0
   44.0257   36.3745   42.9270 H   0  0  0  0  0  0  0  0  0  0  0  0
   45.0735   34.8580   46.7553 H   0  0  0  0  0  0  0  0  0  0  0  0
   44.4651   32.1546   42.2087 H   0  0  0  0  0  0  0  0  0  0  0  0
   43.6187   32.5513   40.6747 H   0  0  0  0  0  0  0  0  0  0  0  0
   45.3927   32.2689   40.6747 H   0  0  0  0  0  0  0  0  0  0  0  0
   46.9188   34.4644   41.7420 H   0  0  0  0  0  0  0  0  0  0  0  0
   46.4743   33.4901   40.2998 H   0  0  0  0  0  0  0  0  0  0  0  0
   46.2095   35.2668   40.2998 H   0  0  0  0  0  0  0  0  0  0  0  0
  1 13  1  0
  2  1  1  0
  2  7  1  0
  3  2  1  0
  4  3  1  0
  4  5  1  0
  5  6  1  0
  6  7  1  0
  7  8  1  0
  9  8  1  0
 10  9  1  0
 11 12  1  0
 11 10  1  0
 12  8  1  0
 13 15  1  0
 14 19  2  0
 15 16  2  0
 15 14  1  0
 16 17  1  0
 17 18  2  0
 19 18  1  0
 20 13  1  0
 21 13  1  0
  1 22  1  0
  1 23  1  0
  2 24  1  6
  3 25  1  0
  3 26  1  0
  4 27  1  0
  4 28  1  0
  5 29  1  0
  5 30  1  0
  6 31  1  0
  6 32  1  0
  7 33  1  1
  8 34  1  0
  9 35  1  0
  9 36  1  0
 10 37  1  0
 10 38  1  0
 11 39  1  0
 11 40  1  0
 12 41  1  0
 12 42  1  0
 14 43  1  0
 16 44  1  0
 18 45  1  0
 20 46  1  0
 20 47  1  0
 20 48  1  0
 21 49  1  0
 21 50  1  0
 21 51  1  0
M  ISO  8  22   8  23   8  24  13  25  13  26  13  27  13  28  13  29  13
M  ISO  8  30  13  31  13  32  13  33  13  34  13  35  13  36  13  37  13
M  ISO  8  38  13  39  13  40  13  41  13  42  13  43  14  44  14  45  14
M  ISO  6  46   8  47   8  48   8  49   8  50   8  51   8
M  END
>  <minimizedAffinity>  (1) 
-6.00206614

>  <minimizedRMSD>  (1) 
0.54544127

$$$$
