
     RDKit          3D

 48 50  0  0  1  0  0  0  0  0999 V2000
   42.7560   34.4720   40.1610 C   0  0  2  0  0  0  0  0  0  0  0  0
   42.3300   35.3500   39.0230 C   0  0  0  0  0  0  0  0  0  0  0  0
   40.8330   35.3210   38.7810 C   0  0  0  0  0  0  0  0  0  0  0  0
   39.9970   35.7500   39.9110 C   0  0  0  0  0  0  0  0  0  0  0  0
   40.8650   35.6770   41.1610 C   0  0  0  0  0  0  0  0  0  0  0  0
   41.5820   34.3400   41.0600 C   0  0  1  0  0  0  0  0  0  0  0  0
   40.6980   33.2100   40.9490 C   0  0  0  0  0  0  0  0  0  0  0  0
   39.4160   32.9560   41.3890 C   0  0  0  0  0  0  0  0  0  0  0  0
   38.6770   31.8320   41.2360 C   0  0  0  0  0  0  0  0  0  0  0  0
   39.2550   30.7840   40.5540 C   0  0  0  0  0  0  0  0  0  0  0  0
   40.5310   30.9410   40.0750 C   0  0  0  0  0  0  0  0  0  0  0  0
   41.2360   32.1110   40.2610 C   0  0  0  0  0  0  0  0  0  0  0  0
   43.8740   35.0860   40.9650 C   0  0  0  0  0  0  0  0  0  0  0  0
   44.8280   34.2050   41.6430 C   0  0  0  0  0  0  0  0  0  0  0  0
   45.4200   33.3550   43.8910 C   0  0  0  0  0  0  0  0  0  0  0  0
   44.8810   34.3940   43.0930 C   0  0  0  0  0  0  0  0  0  0  0  0
   44.4390   35.5000   43.7620 C   0  0  0  0  0  0  0  0  0  0  0  0
   44.5180   35.5860   45.1040 N   0  0  0  0  0  0  0  0  0  0  0  0
   45.0420   34.5650   45.8340 C   0  0  0  0  0  0  0  0  0  0  0  0
   45.4830   33.4740   45.2240 N   0  0  0  0  0  0  0  0  0  0  0  0
   44.5930   32.7540   41.3160 C   0  0  0  0  0  0  0  0  0  0  0  0
   46.2370   34.4620   41.0750 C   0  0  0  0  0  0  0  0  0  0  0  0
   43.1102   33.5118   39.7577 H   0  0  0  0  0  0  0  0  0  0  0  0
   42.6289   36.3845   39.2474 H   0  0  0  0  0  0  0  0  0  0  0  0
   42.8180   34.9700   38.1134 H   0  0  0  0  0  0  0  0  0  0  0  0
   40.6153   35.9822   37.9292 H   0  0  0  0  0  0  0  0  0  0  0  0
   40.5782   34.2659   38.6027 H   0  0  0  0  0  0  0  0  0  0  0  0
   39.6486   36.7813   39.7529 H   0  0  0  0  0  0  0  0  0  0  0  0
   39.1111   35.1056   40.0104 H   0  0  0  0  0  0  0  0  0  0  0  0
   41.5894   36.5046   41.1783 H   0  0  0  0  0  0  0  0  0  0  0  0
   40.2716   35.7607   42.0834 H   0  0  0  0  0  0  0  0  0  0  0  0
   42.0409   34.0555   42.0184 H   0  0  0  0  0  0  0  0  0  0  0  0
   38.9289   33.7758   41.9373 H   0  0  0  0  0  0  0  0  0  0  0  0
   37.6565   31.7586   41.6399 H   0  0  0  0  0  0  0  0  0  0  0  0
   38.7065   29.8435   40.3972 H   0  0  0  0  0  0  0  0  0  0  0  0
   41.0038   30.1118   39.5283 H   0  0  0  0  0  0  0  0  0  0  0  0
   42.2560   32.1860   39.8560 H   0  0  0  0  0  0  0  0  0  0  0  0
   44.4533   35.7212   40.2788 H   0  0  0  0  0  0  0  0  0  0  0  0
   43.3558   35.5979   41.7893 H   0  0  0  0  0  0  0  0  0  0  0  0
   45.7917   32.4383   43.4098 H   0  0  0  0  0  0  0  0  0  0  0  0
   44.0096   36.3378   43.1930 H   0  0  0  0  0  0  0  0  0  0  0  0
   45.0997   34.6446   46.9296 H   0  0  0  0  0  0  0  0  0  0  0  0
   44.4998   32.1784   42.2487 H   0  0  0  0  0  0  0  0  0  0  0  0
   43.6672   32.6554   40.7302 H   0  0  0  0  0  0  0  0  0  0  0  0
   45.4404   32.3683   40.7302 H   0  0  0  0  0  0  0  0  0  0  0  0
   46.9484   34.5918   41.9039 H   0  0  0  0  0  0  0  0  0  0  0  0
   46.5454   33.6053   40.4578 H   0  0  0  0  0  0  0  0  0  0  0  0
   46.2231   35.3724   40.4578 H   0  0  0  0  0  0  0  0  0  0  0  0
  1 13  1  0
  1  6  1  0
  2  1  1  0
  3  2  1  0
  3  4  1  0
  4  5  1  0
  6  5  1  0
  7  6  1  0
  7  8  2  0
  9  8  1  0
 10  9  2  0
 11 12  2  0
 11 10  1  0
 12  7  1  0
 13 14  1  0
 14 16  1  0
 15 20  2  0
 16 17  2  0
 16 15  1  0
 17 18  1  0
 18 19  2  0
 20 19  1  0
 21 14  1  0
 22 14  1  0
  1 23  1  6
  2 24  1  0
  2 25  1  0
  3 26  1  0
  3 27  1  0
  4 28  1  0
  4 29  1  0
  5 30  1  0
  5 31  1  0
  6 32  1  1
  8 33  1  0
  9 34  1  0
 10 35  1  0
 11 36  1  0
 12 37  1  0
 13 38  1  0
 13 39  1  0
 15 40  1  0
 17 41  1  0
 19 42  1  0
 21 43  1  0
 21 44  1  0
 21 45  1  0
 22 46  1  0
 22 47  1  0
 22 48  1  0
M  ISO  8  23  13  24  13  25  13  26  13  27  13  28  13  29  13  30  13
M  ISO  8  31  13  32  13  33  14  34  14  35  14  36  14  37  14  38   8
M  ISO  8  39   8  40  14  41  14  42  14  43   8  44   8  45   8  46   8
M  ISO  2  47   8  48   8
M  END
>  <minimizedAffinity>  (1) 
-5.96026182

>  <minimizedRMSD>  (1) 
0.826440454

$$$$
