
     RDKit          3D

 46 48  0  0  1  0  0  0  0  0999 V2000
   42.7550   34.4490   40.4180 C   0  0  2  0  0  0  0  0  0  0  0  0
   42.4640   35.1300   39.1180 C   0  0  0  0  0  0  0  0  0  0  0  0
   40.9820   35.1760   38.7900 C   0  0  0  0  0  0  0  0  0  0  0  0
   40.0910   35.8120   39.7700 C   0  0  0  0  0  0  0  0  0  0  0  0
   40.9050   35.9250   41.0650 C   0  0  0  0  0  0  0  0  0  0  0  0
   41.5010   34.5780   41.2650 C   0  0  1  0  0  0  0  0  0  0  0  0
   40.6080   33.4320   41.2790 C   0  0  0  0  0  0  0  0  0  0  0  0
   41.1720   32.1640   41.5070 C   0  0  0  0  0  0  0  0  0  0  0  0
   40.5260   30.9190   41.5760 C   0  0  0  0  0  0  0  0  0  0  0  0
   39.1710   30.9750   41.3940 N   0  0  0  0  0  0  0  0  0  0  0  0
   38.5840   32.1670   41.1720 C   0  0  0  0  0  0  0  0  0  0  0  0
   39.2910   33.2720   41.1290 N   0  0  0  0  0  0  0  0  0  0  0  0
   43.8620   35.1020   41.1990 C   0  0  0  0  0  0  0  0  0  0  0  0
   44.8850   34.2680   41.8280 C   0  0  0  0  0  0  0  0  0  0  0  0
   45.4750   33.3100   44.0380 C   0  0  0  0  0  0  0  0  0  0  0  0
   44.9390   34.3850   43.2850 C   0  0  0  0  0  0  0  0  0  0  0  0
   44.4960   35.4620   44.0010 C   0  0  0  0  0  0  0  0  0  0  0  0
   44.5730   35.4750   45.3550 N   0  0  0  0  0  0  0  0  0  0  0  0
   45.0890   34.4290   46.0310 C   0  0  0  0  0  0  0  0  0  0  0  0
   45.5380   33.3530   45.3770 N   0  0  0  0  0  0  0  0  0  0  0  0
   44.7510   32.8190   41.4360 C   0  0  0  0  0  0  0  0  0  0  0  0
   46.2670   34.6500   41.2660 C   0  0  0  0  0  0  0  0  0  0  0  0
   43.0567   33.4145   40.1970 H   0  0  0  0  0  0  0  0  0  0  0  0
   42.8435   36.1611   39.1700 H   0  0  0  0  0  0  0  0  0  0  0  0
   42.9583   34.5495   38.3250 H   0  0  0  0  0  0  0  0  0  0  0  0
   40.8711   35.7211   37.8410 H   0  0  0  0  0  0  0  0  0  0  0  0
   40.6668   34.1224   38.7662 H   0  0  0  0  0  0  0  0  0  0  0  0
   39.7874   36.8098   39.4204 H   0  0  0  0  0  0  0  0  0  0  0  0
   39.1716   35.2270   39.9200 H   0  0  0  0  0  0  0  0  0  0  0  0
   41.6935   36.6848   40.9607 H   0  0  0  0  0  0  0  0  0  0  0  0
   40.2823   36.2316   41.9184 H   0  0  0  0  0  0  0  0  0  0  0  0
   41.7955   34.5276   42.3236 H   0  0  0  0  0  0  0  0  0  0  0  0
   42.2625   32.1449   41.6501 H   0  0  0  0  0  0  0  0  0  0  0  0
   41.0642   29.9776   41.7609 H   0  0  0  0  0  0  0  0  0  0  0  0
   37.4950   32.2150   41.0244 H   0  0  0  0  0  0  0  0  0  0  0  0
   44.3828   35.7823   40.5091 H   0  0  0  0  0  0  0  0  0  0  0  0
   43.3415   35.5619   42.0520 H   0  0  0  0  0  0  0  0  0  0  0  0
   45.8482   32.4193   43.5114 H   0  0  0  0  0  0  0  0  0  0  0  0
   44.0720   36.3286   43.4726 H   0  0  0  0  0  0  0  0  0  0  0  0
   45.1410   34.4611   47.1293 H   0  0  0  0  0  0  0  0  0  0  0  0
   44.6936   32.1979   42.3420 H   0  0  0  0  0  0  0  0  0  0  0  0
   43.8365   32.6835   40.8399 H   0  0  0  0  0  0  0  0  0  0  0  0
   45.6251   32.5181   40.8399 H   0  0  0  0  0  0  0  0  0  0  0  0
   46.9608   34.8418   42.0978 H   0  0  0  0  0  0  0  0  0  0  0  0
   46.6529   33.8249   40.6494 H   0  0  0  0  0  0  0  0  0  0  0  0
   46.1744   35.5562   40.6494 H   0  0  0  0  0  0  0  0  0  0  0  0
  1 13  1  0
  1  6  1  0
  2  1  1  0
  3  2  1  0
  3  4  1  0
  4  5  1  0
  5  6  1  0
  6  7  1  0
  7  8  2  0
  8  9  1  0
 10  9  2  0
 11 10  1  0
 12 11  2  0
 12  7  1  0
 13 14  1  0
 14 16  1  0
 15 20  2  0
 16 17  2  0
 16 15  1  0
 17 18  1  0
 18 19  2  0
 20 19  1  0
 21 14  1  0
 22 14  1  0
  1 23  1  6
  2 24  1  0
  2 25  1  0
  3 26  1  0
  3 27  1  0
  4 28  1  0
  4 29  1  0
  5 30  1  0
  5 31  1  0
  6 32  1  1
  8 33  1  0
  9 34  1  0
 11 35  1  0
 13 36  1  0
 13 37  1  0
 15 38  1  0
 17 39  1  0
 19 40  1  0
 21 41  1  0
 21 42  1  0
 21 43  1  0
 22 44  1  0
 22 45  1  0
 22 46  1  0
M  ISO  8  23  13  24  13  25  13  26  13  27  13  28  13  29  13  30  13
M  ISO  8  31  13  32  13  33  14  34  14  35  14  36   8  37   8  38  14
M  ISO  8  39  14  40  14  41   8  42   8  43   8  44   8  45   8  46   8
M  END
>  <minimizedAffinity>  (1) 
-5.91287899

>  <minimizedRMSD>  (1) 
0.334285676

$$$$
