
     RDKit          3D

 45 47  0  0  1  0  0  0  0  0999 V2000
   42.7140   34.4770   40.1080 C   0  0  2  0  0  0  0  0  0  0  0  0
   42.1420   35.3520   39.0360 C   0  0  0  0  0  0  0  0  0  0  0  0
   40.6120   35.2040   38.9670 C   0  0  0  0  0  0  0  0  0  0  0  0
   39.9060   35.7170   40.1710 C   0  0  0  0  0  0  0  0  0  0  0  0
   40.9060   35.6110   41.3190 C   0  0  0  0  0  0  0  0  0  0  0  0
   41.6230   34.3230   41.1580 C   0  0  1  0  0  0  0  0  0  0  0  0
   40.7960   33.1660   40.9590 N   0  0  0  0  0  0  0  0  0  0  0  0
   40.7900   32.1730   40.1040 N   0  0  0  0  0  0  0  0  0  0  0  0
   39.8030   31.3220   40.3310 C   0  0  0  0  0  0  0  0  0  0  0  0
   39.1220   31.8150   41.4240 C   0  0  0  0  0  0  0  0  0  0  0  0
   39.7640   32.9800   41.8060 C   0  0  0  0  0  0  0  0  0  0  0  0
   43.8960   35.0770   40.8010 C   0  0  0  0  0  0  0  0  0  0  0  0
   44.8280   34.1990   41.5130 C   0  0  0  0  0  0  0  0  0  0  0  0
   45.3750   33.4140   43.7990 C   0  0  0  0  0  0  0  0  0  0  0  0
   44.8720   34.4290   42.9590 C   0  0  0  0  0  0  0  0  0  0  0  0
   44.4510   35.5730   43.5850 C   0  0  0  0  0  0  0  0  0  0  0  0
   44.5180   35.7070   44.9250 N   0  0  0  0  0  0  0  0  0  0  0  0
   45.0130   34.6960   45.6950 C   0  0  0  0  0  0  0  0  0  0  0  0
   45.4340   33.5660   45.1300 N   0  0  0  0  0  0  0  0  0  0  0  0
   44.5770   32.7400   41.2390 C   0  0  0  0  0  0  0  0  0  0  0  0
   46.2530   34.4100   40.9550 C   0  0  0  0  0  0  0  0  0  0  0  0
   43.0424   33.5359   39.6427 H   0  0  0  0  0  0  0  0  0  0  0  0
   42.3932   36.4004   39.2543 H   0  0  0  0  0  0  0  0  0  0  0  0
   42.5691   35.0488   38.0687 H   0  0  0  0  0  0  0  0  0  0  0  0
   40.2489   35.7585   38.0891 H   0  0  0  0  0  0  0  0  0  0  0  0
   40.3962   34.1273   38.9027 H   0  0  0  0  0  0  0  0  0  0  0  0
   39.6053   36.7644   40.0210 H   0  0  0  0  0  0  0  0  0  0  0  0
   38.9910   35.1426   40.3780 H   0  0  0  0  0  0  0  0  0  0  0  0
   41.6192   36.4474   41.2761 H   0  0  0  0  0  0  0  0  0  0  0  0
   40.3915   35.6529   42.2903 H   0  0  0  0  0  0  0  0  0  0  0  0
   42.0860   34.1013   42.1309 H   0  0  0  0  0  0  0  0  0  0  0  0
   39.5726   30.4081   39.7639 H   0  0  0  0  0  0  0  0  0  0  0  0
   38.2375   31.3678   41.9011 H   0  0  0  0  0  0  0  0  0  0  0  0
   39.4839   33.6333   42.6455 H   0  0  0  0  0  0  0  0  0  0  0  0
   44.4788   35.6127   40.0372 H   0  0  0  0  0  0  0  0  0  0  0  0
   43.4493   35.6875   41.5996 H   0  0  0  0  0  0  0  0  0  0  0  0
   45.7280   32.4735   43.3509 H   0  0  0  0  0  0  0  0  0  0  0  0
   44.0496   36.4001   42.9811 H   0  0  0  0  0  0  0  0  0  0  0  0
   45.0647   34.8145   46.7874 H   0  0  0  0  0  0  0  0  0  0  0  0
   44.4839   32.1987   42.1920 H   0  0  0  0  0  0  0  0  0  0  0  0
   43.6467   32.6300   40.6624 H   0  0  0  0  0  0  0  0  0  0  0  0
   45.4170   32.3254   40.6624 H   0  0  0  0  0  0  0  0  0  0  0  0
   46.9618   34.5149   41.7896 H   0  0  0  0  0  0  0  0  0  0  0  0
   46.5375   33.5442   40.3390 H   0  0  0  0  0  0  0  0  0  0  0  0
   46.2744   35.3211   40.3390 H   0  0  0  0  0  0  0  0  0  0  0  0
  1 12  1  0
  1  6  1  0
  2  1  1  0
  3  2  1  0
  3  4  1  0
  4  5  1  0
  6  5  1  0
  7  6  1  0
  7 11  1  0
  8  9  2  0
  8  7  1  0
  9 10  1  0
 10 11  2  0
 12 13  1  0
 13 15  1  0
 14 19  2  0
 15 16  2  0
 15 14  1  0
 16 17  1  0
 17 18  2  0
 19 18  1  0
 20 13  1  0
 21 13  1  0
  1 22  1  6
  2 23  1  0
  2 24  1  0
  3 25  1  0
  3 26  1  0
  4 27  1  0
  4 28  1  0
  5 29  1  0
  5 30  1  0
  6 31  1  1
  9 32  1  0
 10 33  1  0
 11 34  1  0
 12 35  1  0
 12 36  1  0
 14 37  1  0
 16 38  1  0
 18 39  1  0
 20 40  1  0
 20 41  1  0
 20 42  1  0
 21 43  1  0
 21 44  1  0
 21 45  1  0
M  ISO  8  22  13  23  13  24  13  25  13  26  13  27  13  28  13  29  13
M  ISO  8  30  13  31  13  32  14  33  14  34  14  35   8  36   8  37  14
M  ISO  8  38  14  39  14  40   8  41   8  42   8  43   8  44   8  45   8
M  END
>  <minimizedAffinity>  (1) 
-5.81670904

>  <minimizedRMSD>  (1) 
0.530004501

$$$$
