
     RDKit          3D

 45 47  0  0  1  0  0  0  0  0999 V2000
   42.7070   34.4720   40.3150 C   0  0  2  0  0  0  0  0  0  0  0  0
   42.3060   35.1680   39.0550 C   0  0  0  0  0  0  0  0  0  0  0  0
   40.7970   35.2280   38.8780 C   0  0  0  0  0  0  0  0  0  0  0  0
   40.0320   35.9010   39.9400 C   0  0  0  0  0  0  0  0  0  0  0  0
   40.9760   36.0070   41.1450 C   0  0  0  0  0  0  0  0  0  0  0  0
   41.5630   34.6480   41.2860 C   0  0  1  0  0  0  0  0  0  0  0  0
   40.6250   33.5290   41.3790 C   0  0  0  0  0  0  0  0  0  0  0  0
   41.0550   32.2240   41.0830 C   0  0  0  0  0  0  0  0  0  0  0  0
   40.0220   31.2820   41.2330 C   0  0  0  0  0  0  0  0  0  0  0  0
   38.9990   32.0630   41.6170 N   0  0  0  0  0  0  0  0  0  0  0  0
   39.3540   33.3010   41.6910 N   0  0  0  0  0  0  0  0  0  0  0  0
   43.9200   35.0960   40.9590 C   0  0  0  0  0  0  0  0  0  0  0  0
   44.8490   34.2330   41.6750 C   0  0  0  0  0  0  0  0  0  0  0  0
   45.4200   33.3710   43.9170 C   0  0  0  0  0  0  0  0  0  0  0  0
   44.8890   34.4140   43.1190 C   0  0  0  0  0  0  0  0  0  0  0  0
   44.4470   35.5240   43.7830 C   0  0  0  0  0  0  0  0  0  0  0  0
   44.5300   35.5850   45.1380 N   0  0  0  0  0  0  0  0  0  0  0  0
   45.0390   34.5760   45.8650 C   0  0  0  0  0  0  0  0  0  0  0  0
   45.4740   33.4900   45.2510 N   0  0  0  0  0  0  0  0  0  0  0  0
   44.6440   32.7750   41.3540 C   0  0  0  0  0  0  0  0  0  0  0  0
   46.2800   34.4560   41.1170 C   0  0  0  0  0  0  0  0  0  0  0  0
   42.9401   33.4237   40.0767 H   0  0  0  0  0  0  0  0  0  0  0  0
   42.6995   36.1949   39.0786 H   0  0  0  0  0  0  0  0  0  0  0  0
   42.7191   34.5960   38.2111 H   0  0  0  0  0  0  0  0  0  0  0  0
   40.5930   35.7561   37.9348 H   0  0  0  0  0  0  0  0  0  0  0  0
   40.4620   34.1805   38.9006 H   0  0  0  0  0  0  0  0  0  0  0  0
   39.7211   36.9031   39.6096 H   0  0  0  0  0  0  0  0  0  0  0  0
   39.1195   35.3413   40.1933 H   0  0  0  0  0  0  0  0  0  0  0  0
   41.7632   36.7518   40.9566 H   0  0  0  0  0  0  0  0  0  0  0  0
   40.4522   36.3305   42.0566 H   0  0  0  0  0  0  0  0  0  0  0  0
   41.9829   34.5989   42.3015 H   0  0  0  0  0  0  0  0  0  0  0  0
   42.0787   31.9697   40.7709 H   0  0  0  0  0  0  0  0  0  0  0  0
   40.0455   30.1934   41.0771 H   0  0  0  0  0  0  0  0  0  0  0  0
   38.0515   31.7174   41.8259 H   0  0  0  0  0  0  0  0  0  0  0  0
   44.4899   35.5956   40.1617 H   0  0  0  0  0  0  0  0  0  0  0  0
   43.5036   35.7493   41.7399 H   0  0  0  0  0  0  0  0  0  0  0  0
   45.7919   32.4538   43.4369 H   0  0  0  0  0  0  0  0  0  0  0  0
   44.0237   36.3688   43.2199 H   0  0  0  0  0  0  0  0  0  0  0  0
   45.0930   34.6535   46.9609 H   0  0  0  0  0  0  0  0  0  0  0  0
   44.5634   32.2015   42.2892 H   0  0  0  0  0  0  0  0  0  0  0  0
   43.7201   32.6547   40.7692 H   0  0  0  0  0  0  0  0  0  0  0  0
   45.4989   32.4046   40.7692 H   0  0  0  0  0  0  0  0  0  0  0  0
   46.9865   34.5661   41.9529 H   0  0  0  0  0  0  0  0  0  0  0  0
   46.5722   33.5925   40.5013 H   0  0  0  0  0  0  0  0  0  0  0  0
   46.2956   35.3674   40.5013 H   0  0  0  0  0  0  0  0  0  0  0  0
  1 12  1  0
  1  6  1  0
  2  1  1  0
  3  2  1  0
  3  4  1  0
  4  5  1  0
  5  6  1  0
  6  7  1  0
  7 11  2  0
  8  9  2  0
  8  7  1  0
  9 10  1  0
 10 11  1  0
 12 13  1  0
 13 15  1  0
 14 19  2  0
 15 16  2  0
 15 14  1  0
 16 17  1  0
 17 18  2  0
 19 18  1  0
 20 13  1  0
 21 13  1  0
  1 22  1  6
  2 23  1  0
  2 24  1  0
  3 25  1  0
  3 26  1  0
  4 27  1  0
  4 28  1  0
  5 29  1  0
  5 30  1  0
  6 31  1  1
  8 32  1  0
  9 33  1  0
 10 34  1  0
 12 35  1  0
 12 36  1  0
 14 37  1  0
 16 38  1  0
 18 39  1  0
 20 40  1  0
 20 41  1  0
 20 42  1  0
 21 43  1  0
 21 44  1  0
 21 45  1  0
M  ISO  8  22  13  23  13  24  13  25  13  26  13  27  13  28  13  29  13
M  ISO  8  30  13  31  13  32  14  33  14  34   9  35   8  36   8  37  14
M  ISO  8  38  14  39  14  40   8  41   8  42   8  43   8  44   8  45   8
M  END
>  <minimizedAffinity>  (1) 
-5.7883935

>  <minimizedRMSD>  (1) 
0.457006216

$$$$
