
     RDKit          3D

 45 47  0  0  1  0  0  0  0  0999 V2000
   43.9240   35.1020   40.9210 C   0  0  0  0  0  0  0  0  0  0  0  0
   42.7550   34.4950   40.2000 C   0  0  2  0  0  0  0  0  0  0  0  0
   42.2540   35.3460   39.0760 C   0  0  0  0  0  0  0  0  0  0  0  0
   40.7420   35.3110   38.9350 C   0  0  0  0  0  0  0  0  0  0  0  0
   39.9900   35.8000   40.0980 C   0  0  0  0  0  0  0  0  0  0  0  0
   40.9270   35.7350   41.2920 C   0  0  0  0  0  0  0  0  0  0  0  0
   41.6260   34.4120   41.2020 C   0  0  1  0  0  0  0  0  0  0  0  0
   40.8000   33.2300   41.1520 C   0  0  0  0  0  0  0  0  0  0  0  0
   39.6810   32.8190   41.7280 C   0  0  0  0  0  0  0  0  0  0  0  0
   39.1150   31.5960   41.5020 C   0  0  0  0  0  0  0  0  0  0  0  0
   39.8330   30.7860   40.5820 C   0  0  0  0  0  0  0  0  0  0  0  0
   41.3000   31.8930   40.1150 S   0  0  0  0  0  0  0  0  0  0  0  0
   44.8720   34.2250   41.6120 C   0  0  0  0  0  0  0  0  0  0  0  0
   45.4260   33.3780   43.8700 C   0  0  0  0  0  0  0  0  0  0  0  0
   44.9060   34.4130   43.0620 C   0  0  0  0  0  0  0  0  0  0  0  0
   44.4610   35.5270   43.7190 C   0  0  0  0  0  0  0  0  0  0  0  0
   44.5250   35.6140   45.0670 N   0  0  0  0  0  0  0  0  0  0  0  0
   45.0330   34.5950   45.8040 C   0  0  0  0  0  0  0  0  0  0  0  0
   45.4770   33.4900   45.2060 N   0  0  0  0  0  0  0  0  0  0  0  0
   44.6330   32.7710   41.2920 C   0  0  0  0  0  0  0  0  0  0  0  0
   46.2860   34.4660   41.0540 C   0  0  0  0  0  0  0  0  0  0  0  0
   43.5142   35.7898   41.6753 H   0  0  0  0  0  0  0  0  0  0  0  0
   44.5232   35.5512   40.1153 H   0  0  0  0  0  0  0  0  0  0  0  0
   43.0747   33.5269   39.7870 H   0  0  0  0  0  0  0  0  0  0  0  0
   42.5654   36.3853   39.2572 H   0  0  0  0  0  0  0  0  0  0  0  0
   42.6812   34.9465   38.1444 H   0  0  0  0  0  0  0  0  0  0  0  0
   40.4674   35.9303   38.0683 H   0  0  0  0  0  0  0  0  0  0  0  0
   40.4722   34.2505   38.8233 H   0  0  0  0  0  0  0  0  0  0  0  0
   39.6650   36.8372   39.9288 H   0  0  0  0  0  0  0  0  0  0  0  0
   39.0918   35.1887   40.2701 H   0  0  0  0  0  0  0  0  0  0  0  0
   41.6576   36.5562   41.2488 H   0  0  0  0  0  0  0  0  0  0  0  0
   40.3772   35.8348   42.2395 H   0  0  0  0  0  0  0  0  0  0  0  0
   42.0777   34.2290   42.1881 H   0  0  0  0  0  0  0  0  0  0  0  0
   39.1779   33.5014   42.4289 H   0  0  0  0  0  0  0  0  0  0  0  0
   38.1852   31.2676   41.9895 H   0  0  0  0  0  0  0  0  0  0  0  0
   39.5971   29.7712   40.2291 H   0  0  0  0  0  0  0  0  0  0  0  0
   45.7977   32.4591   43.3931 H   0  0  0  0  0  0  0  0  0  0  0  0
   44.0444   36.3656   43.1417 H   0  0  0  0  0  0  0  0  0  0  0  0
   45.0787   34.6811   46.8997 H   0  0  0  0  0  0  0  0  0  0  0  0
   44.5392   32.2003   42.2277 H   0  0  0  0  0  0  0  0  0  0  0  0
   43.7065   32.6717   40.7075 H   0  0  0  0  0  0  0  0  0  0  0  0
   45.4790   32.3803   40.7075 H   0  0  0  0  0  0  0  0  0  0  0  0
   46.9935   34.5866   41.8876 H   0  0  0  0  0  0  0  0  0  0  0  0
   46.5884   33.6065   40.4378 H   0  0  0  0  0  0  0  0  0  0  0  0
   46.2866   35.3772   40.4378 H   0  0  0  0  0  0  0  0  0  0  0  0
  1 13  1  0
  2  1  1  0
  2  7  1  0
  3  2  1  0
  4  3  1  0
  4  5  1  0
  5  6  1  0
  7  6  1  0
  8  7  1  0
  8  9  2  0
 10  9  1  0
 11 10  2  0
 12 11  1  0
 12  8  1  0
 13 15  1  0
 14 19  2  0
 15 16  2  0
 15 14  1  0
 16 17  1  0
 17 18  2  0
 19 18  1  0
 20 13  1  0
 21 13  1  0
  1 22  1  0
  1 23  1  0
  2 24  1  6
  3 25  1  0
  3 26  1  0
  4 27  1  0
  4 28  1  0
  5 29  1  0
  5 30  1  0
  6 31  1  0
  6 32  1  0
  7 33  1  1
  9 34  1  0
 10 35  1  0
 11 36  1  0
 14 37  1  0
 16 38  1  0
 18 39  1  0
 20 40  1  0
 20 41  1  0
 20 42  1  0
 21 43  1  0
 21 44  1  0
 21 45  1  0
M  ISO  8  22   8  23   8  24  13  25  13  26  13  27  13  28  13  29  13
M  ISO  8  30  13  31  13  32  13  33  13  34  14  35  14  36  14  37  14
M  ISO  8  38  14  39  14  40   8  41   8  42   8  43   8  44   8  45   8
M  END
>  <minimizedAffinity>  (1) 
-5.7790947

>  <minimizedRMSD>  (1) 
0.241163

$$$$
