
     RDKit          3D

 52 54  0  0  1  0  0  0  0  0999 V2000
   42.6740   34.4500   40.0750 C   0  0  2  0  0  0  0  0  0  0  0  0
   42.1390   35.3100   38.9760 C   0  0  0  0  0  0  0  0  0  0  0  0
   40.6160   35.1670   38.8540 C   0  0  0  0  0  0  0  0  0  0  0  0
   39.8780   35.6750   40.0500 C   0  0  0  0  0  0  0  0  0  0  0  0
   40.8350   35.5810   41.2280 C   0  0  0  0  0  0  0  0  0  0  0  0
   41.5560   34.2590   41.0640 C   0  0  1  0  0  0  0  0  0  0  0  0
   40.6340   33.1960   40.7820 N   0  0  0  0  0  0  0  0  0  0  0  0
   41.1780   32.0060   40.2230 C   0  0  0  0  0  0  0  0  0  0  0  0
   39.9760   31.0590   40.0400 C   0  0  0  0  0  0  0  0  0  0  0  0
   39.6140   30.4990   41.3280 N   0  0  0  0  0  0  0  0  0  0  0  0
   40.2080   31.3160   42.3480 C   0  0  0  0  0  0  0  0  0  0  0  0
   40.0720   32.8050   42.0880 C   0  0  0  0  0  0  0  0  0  0  0  0
   43.8340   35.0610   40.8000 C   0  0  0  0  0  0  0  0  0  0  0  0
   44.7910   34.1950   41.5010 C   0  0  0  0  0  0  0  0  0  0  0  0
   45.3600   33.4170   43.7830 C   0  0  0  0  0  0  0  0  0  0  0  0
   44.8510   34.4330   42.9450 C   0  0  0  0  0  0  0  0  0  0  0  0
   44.4360   35.5770   43.5730 C   0  0  0  0  0  0  0  0  0  0  0  0
   44.5150   35.7050   44.9160 N   0  0  0  0  0  0  0  0  0  0  0  0
   45.0100   34.7030   45.6800 C   0  0  0  0  0  0  0  0  0  0  0  0
   45.4280   33.5700   45.1180 N   0  0  0  0  0  0  0  0  0  0  0  0
   44.5480   32.7350   41.2340 C   0  0  0  0  0  0  0  0  0  0  0  0
   46.1980   34.4100   40.9210 C   0  0  0  0  0  0  0  0  0  0  0  0
   43.0325   33.5102   39.6297 H   0  0  0  0  0  0  0  0  0  0  0  0
   42.3852   36.3606   39.1897 H   0  0  0  0  0  0  0  0  0  0  0  0
   42.5969   34.9906   38.0282 H   0  0  0  0  0  0  0  0  0  0  0  0
   40.2817   35.7318   37.9713 H   0  0  0  0  0  0  0  0  0  0  0  0
   40.3951   34.0930   38.7662 H   0  0  0  0  0  0  0  0  0  0  0  0
   39.5736   36.7201   39.8916 H   0  0  0  0  0  0  0  0  0  0  0  0
   38.9676   35.0852   40.2325 H   0  0  0  0  0  0  0  0  0  0  0  0
   41.5524   36.4146   41.2071 H   0  0  0  0  0  0  0  0  0  0  0  0
   40.3033   35.6376   42.1893 H   0  0  0  0  0  0  0  0  0  0  0  0
   42.0286   33.9330   42.0023 H   0  0  0  0  0  0  0  0  0  0  0  0
   41.6535   32.2174   39.2539 H   0  0  0  0  0  0  0  0  0  0  0  0
   41.9533   31.5662   40.8676 H   0  0  0  0  0  0  0  0  0  0  0  0
   39.1237   31.6203   39.6295 H   0  0  0  0  0  0  0  0  0  0  0  0
   40.2440   30.2492   39.3454 H   0  0  0  0  0  0  0  0  0  0  0  0
   38.5894   30.4977   41.4334 H   0  0  0  0  0  0  0  0  0  0  0  0
   39.7212   31.0843   43.3068 H   0  0  0  0  0  0  0  0  0  0  0  0
   41.2838   31.0870   42.3596 H   0  0  0  0  0  0  0  0  0  0  0  0
   40.6029   33.3529   42.8804 H   0  0  0  0  0  0  0  0  0  0  0  0
   38.9997   33.0501   42.0812 H   0  0  0  0  0  0  0  0  0  0  0  0
   44.4077   35.6353   40.0576 H   0  0  0  0  0  0  0  0  0  0  0  0
   43.3580   35.6283   41.6134 H   0  0  0  0  0  0  0  0  0  0  0  0
   45.7099   32.4763   43.3329 H   0  0  0  0  0  0  0  0  0  0  0  0
   44.0313   36.4061   42.9739 H   0  0  0  0  0  0  0  0  0  0  0  0
   45.0674   34.8252   46.7717 H   0  0  0  0  0  0  0  0  0  0  0  0
   44.4585   32.1974   42.1895 H   0  0  0  0  0  0  0  0  0  0  0  0
   43.6179   32.6173   40.6586 H   0  0  0  0  0  0  0  0  0  0  0  0
   45.3898   32.3224   40.6586 H   0  0  0  0  0  0  0  0  0  0  0  0
   46.9205   34.5204   41.7430 H   0  0  0  0  0  0  0  0  0  0  0  0
   46.4759   33.5439   40.3024 H   0  0  0  0  0  0  0  0  0  0  0  0
   46.2046   35.3196   40.3024 H   0  0  0  0  0  0  0  0  0  0  0  0
  1 13  1  0
  1  6  1  0
  2  1  1  0
  3  2  1  0
  3  4  1  0
  4  5  1  0
  6  5  1  0
  7  6  1  0
  7 12  1  0
  8  7  1  0
  9  8  1  0
  9 10  1  0
 10 11  1  0
 12 11  1  0
 13 14  1  0
 14 16  1  0
 15 20  2  0
 16 17  2  0
 16 15  1  0
 17 18  1  0
 18 19  2  0
 20 19  1  0
 21 14  1  0
 22 14  1  0
  1 23  1  6
  2 24  1  0
  2 25  1  0
  3 26  1  0
  3 27  1  0
  4 28  1  0
  4 29  1  0
  5 30  1  0
  5 31  1  0
  6 32  1  1
  8 33  1  0
  8 34  1  0
  9 35  1  0
  9 36  1  0
 10 37  1  0
 11 38  1  0
 11 39  1  0
 12 40  1  0
 12 41  1  0
 13 42  1  0
 13 43  1  0
 15 44  1  0
 17 45  1  0
 19 46  1  0
 21 47  1  0
 21 48  1  0
 21 49  1  0
 22 50  1  0
 22 51  1  0
 22 52  1  0
M  ISO  8  23  13  24  13  25  13  26  13  27  13  28  13  29  13  30  13
M  ISO  8  31  13  32  13  33  13  34  13  35  13  36  13  37   5  38  13
M  ISO  8  39  13  40  13  41  13  42   8  43   8  44  14  45  14  46  14
M  ISO  6  47   8  48   8  49   8  50   8  51   8  52   8
M  END
>  <minimizedAffinity>  (1) 
-5.77588081

>  <minimizedRMSD>  (1) 
0.305413753

$$$$
