
     RDKit          3D

 41 42  0  0  1  0  0  0  0  0999 V2000
   43.9170   35.0200   40.7580 C   0  0  0  0  0  0  0  0  0  0  0  0
   42.6830   34.4000   40.1570 C   0  0  2  0  0  0  0  0  0  0  0  0
   42.1210   35.2580   39.0570 C   0  0  0  0  0  0  0  0  0  0  0  0
   40.6220   35.3120   39.0250 C   0  0  0  0  0  0  0  0  0  0  0  0
   39.9440   35.7480   40.2460 C   0  0  0  0  0  0  0  0  0  0  0  0
   40.9630   35.6540   41.3660 C   0  0  0  0  0  0  0  0  0  0  0  0
   41.6400   34.3370   41.2250 C   0  0  1  0  0  0  0  0  0  0  0  0
   40.7840   33.1440   41.3480 C   0  0  0  0  0  0  0  0  0  0  0  0
   41.3100   32.1070   42.0960 F   0  0  0  0  0  0  0  0  0  0  0  0
   39.6280   33.4550   42.1370 F   0  0  0  0  0  0  0  0  0  0  0  0
   40.1680   32.6810   40.2050 F   0  0  0  0  0  0  0  0  0  0  0  0
   44.8520   34.1750   41.4970 C   0  0  0  0  0  0  0  0  0  0  0  0
   45.3750   33.4140   43.7940 C   0  0  0  0  0  0  0  0  0  0  0  0
   44.8820   34.4230   42.9370 C   0  0  0  0  0  0  0  0  0  0  0  0
   44.4580   35.5790   43.5390 C   0  0  0  0  0  0  0  0  0  0  0  0
   44.5180   35.7240   44.8820 N   0  0  0  0  0  0  0  0  0  0  0  0
   45.0000   34.7260   45.6690 C   0  0  0  0  0  0  0  0  0  0  0  0
   45.4200   33.5890   45.1240 N   0  0  0  0  0  0  0  0  0  0  0  0
   44.6130   32.7100   41.2340 C   0  0  0  0  0  0  0  0  0  0  0  0
   46.2720   34.3890   40.9400 C   0  0  0  0  0  0  0  0  0  0  0  0
   43.5778   35.8051   41.4498 H   0  0  0  0  0  0  0  0  0  0  0  0
   44.4971   35.3486   39.8831 H   0  0  0  0  0  0  0  0  0  0  0  0
   42.9485   33.4112   39.7547 H   0  0  0  0  0  0  0  0  0  0  0  0
   42.5004   36.2819   39.1899 H   0  0  0  0  0  0  0  0  0  0  0  0
   42.4416   34.8050   38.1073 H   0  0  0  0  0  0  0  0  0  0  0  0
   40.3326   36.0039   38.2203 H   0  0  0  0  0  0  0  0  0  0  0  0
   40.3030   34.2694   38.8795 H   0  0  0  0  0  0  0  0  0  0  0  0
   39.5953   36.7855   40.1365 H   0  0  0  0  0  0  0  0  0  0  0  0
   39.0649   35.1212   40.4565 H   0  0  0  0  0  0  0  0  0  0  0  0
   41.6975   36.4682   41.2784 H   0  0  0  0  0  0  0  0  0  0  0  0
   40.4772   35.7437   42.3488 H   0  0  0  0  0  0  0  0  0  0  0  0
   42.2165   34.1360   42.1400 H   0  0  0  0  0  0  0  0  0  0  0  0
   45.7291   32.4660   43.3628 H   0  0  0  0  0  0  0  0  0  0  0  0
   44.0637   36.3995   42.9215 H   0  0  0  0  0  0  0  0  0  0  0  0
   45.0425   34.8598   46.7600 H   0  0  0  0  0  0  0  0  0  0  0  0
   44.5257   32.1751   42.1912 H   0  0  0  0  0  0  0  0  0  0  0  0
   43.6830   32.5876   40.6594 H   0  0  0  0  0  0  0  0  0  0  0  0
   45.4559   32.2983   40.6594 H   0  0  0  0  0  0  0  0  0  0  0  0
   46.9809   34.4958   41.7743 H   0  0  0  0  0  0  0  0  0  0  0  0
   46.5585   33.5239   40.3240 H   0  0  0  0  0  0  0  0  0  0  0  0
   46.2908   35.3001   40.3240 H   0  0  0  0  0  0  0  0  0  0  0  0
  1 12  1  0
  2  1  1  0
  2  7  1  0
  3  2  1  0
  4  3  1  0
  4  5  1  0
  5  6  1  0
  7  8  1  0
  7  6  1  0
  8  9  1  0
  8 10  1  0
 11  8  1  0
 12 14  1  0
 13 18  2  0
 14 15  2  0
 14 13  1  0
 15 16  1  0
 16 17  2  0
 18 17  1  0
 19 12  1  0
 20 12  1  0
  1 21  1  0
  1 22  1  0
  2 23  1  6
  3 24  1  0
  3 25  1  0
  4 26  1  0
  4 27  1  0
  5 28  1  0
  5 29  1  0
  6 30  1  0
  6 31  1  0
  7 32  1  1
 13 33  1  0
 15 34  1  0
 17 35  1  0
 19 36  1  0
 19 37  1  0
 19 38  1  0
 20 39  1  0
 20 40  1  0
 20 41  1  0
M  ISO  8  21   8  22   8  23  13  24  13  25  13  26  13  27  13  28  13
M  ISO  8  29  13  30  13  31  13  32  13  33  14  34  14  35  14  36   8
M  ISO  5  37   8  38   8  39   8  40   8  41   8
M  END
>  <minimizedAffinity>  (1) 
-5.65399981

>  <minimizedRMSD>  (1) 
0.264264464

$$$$
