
     RDKit          3D

 45 47  0  0  1  0  0  0  0  0999 V2000
   43.8790   35.0710   40.9660 C   0  0  0  0  0  0  0  0  0  0  0  0
   42.7450   34.4680   40.1980 C   0  0  2  0  0  0  0  0  0  0  0  0
   42.1860   35.3550   39.1330 C   0  0  0  0  0  0  0  0  0  0  0  0
   40.6780   35.2280   38.9930 C   0  0  0  0  0  0  0  0  0  0  0  0
   39.9580   35.7190   40.1810 C   0  0  0  0  0  0  0  0  0  0  0  0
   40.8500   35.5010   41.3750 C   0  0  0  0  0  0  0  0  0  0  0  0
   41.6060   34.2380   41.1850 C   0  0  1  0  0  0  0  0  0  0  0  0
   40.8470   32.9910   40.9980 C   0  0  0  0  0  0  0  0  0  0  0  0
   39.7890   32.4750   41.8720 C   0  0  0  0  0  0  0  0  0  0  0  0
   41.1310   31.8100   41.9880 C   0  0  0  0  0  0  0  0  0  0  0  0
   44.8400   34.1880   41.6260 C   0  0  0  0  0  0  0  0  0  0  0  0
   45.4360   33.3020   43.8560 C   0  0  0  0  0  0  0  0  0  0  0  0
   44.9060   34.3490   43.0750 C   0  0  0  0  0  0  0  0  0  0  0  0
   44.4850   35.4550   43.7610 C   0  0  0  0  0  0  0  0  0  0  0  0
   44.5760   35.5250   45.1040 N   0  0  0  0  0  0  0  0  0  0  0  0
   45.0940   34.4860   45.8190 C   0  0  0  0  0  0  0  0  0  0  0  0
   45.5170   33.3910   45.1910 N   0  0  0  0  0  0  0  0  0  0  0  0
   44.6110   32.7400   41.2790 C   0  0  0  0  0  0  0  0  0  0  0  0
   46.2480   34.4600   41.0460 C   0  0  0  0  0  0  0  0  0  0  0  0
   43.4367   35.7066   41.7472 H   0  0  0  0  0  0  0  0  0  0  0  0
   44.4764   35.5806   40.1957 H   0  0  0  0  0  0  0  0  0  0  0  0
   43.1355   33.5593   39.7166 H   0  0  0  0  0  0  0  0  0  0  0  0
   42.4294   36.3986   39.3812 H   0  0  0  0  0  0  0  0  0  0  0  0
   42.6346   35.0479   38.1767 H   0  0  0  0  0  0  0  0  0  0  0  0
   40.3545   35.8113   38.1183 H   0  0  0  0  0  0  0  0  0  0  0  0
   40.4418   34.1600   38.8766 H   0  0  0  0  0  0  0  0  0  0  0  0
   39.7360   36.7905   40.0690 H   0  0  0  0  0  0  0  0  0  0  0  0
   39.0063   35.1818   40.3059 H   0  0  0  0  0  0  0  0  0  0  0  0
   41.5530   36.3417   41.4693 H   0  0  0  0  0  0  0  0  0  0  0  0
   40.2411   35.4374   42.2889 H   0  0  0  0  0  0  0  0  0  0  0  0
   42.0305   34.0020   42.1720 H   0  0  0  0  0  0  0  0  0  0  0  0
   40.8667   33.1970   39.9176 H   0  0  0  0  0  0  0  0  0  0  0  0
   39.4223   33.0982   42.7010 H   0  0  0  0  0  0  0  0  0  0  0  0
   38.7726   32.0977   41.6859 H   0  0  0  0  0  0  0  0  0  0  0  0
   41.2822   30.7884   41.6092 H   0  0  0  0  0  0  0  0  0  0  0  0
   41.8493   31.6049   42.7954 H   0  0  0  0  0  0  0  0  0  0  0  0
   45.7922   32.3886   43.3572 H   0  0  0  0  0  0  0  0  0  0  0  0
   44.0633   36.3052   43.2049 H   0  0  0  0  0  0  0  0  0  0  0  0
   45.1624   34.5525   46.9149 H   0  0  0  0  0  0  0  0  0  0  0  0
   44.5179   32.1516   42.2038 H   0  0  0  0  0  0  0  0  0  0  0  0
   43.6868   32.6458   40.6899 H   0  0  0  0  0  0  0  0  0  0  0  0
   45.4610   32.3652   40.6899 H   0  0  0  0  0  0  0  0  0  0  0  0
   46.9635   34.5982   41.8700 H   0  0  0  0  0  0  0  0  0  0  0  0
   46.5612   33.6058   40.4278 H   0  0  0  0  0  0  0  0  0  0  0  0
   46.2205   35.3694   40.4278 H   0  0  0  0  0  0  0  0  0  0  0  0
  1 11  1  0
  2  1  1  0
  2  7  1  0
  3  2  1  0
  4  3  1  0
  4  5  1  0
  5  6  1  0
  7  6  1  0
  8  7  1  0
  8  9  1  0
  8 10  1  0
  9 10  1  0
 11 13  1  0
 12 17  2  0
 13 14  2  0
 13 12  1  0
 14 15  1  0
 15 16  2  0
 17 16  1  0
 18 11  1  0
 19 11  1  0
  1 20  1  0
  1 21  1  0
  2 22  1  6
  3 23  1  0
  3 24  1  0
  4 25  1  0
  4 26  1  0
  5 27  1  0
  5 28  1  0
  6 29  1  0
  6 30  1  0
  7 31  1  1
  8 32  1  0
  9 33  1  0
  9 34  1  0
 10 35  1  0
 10 36  1  0
 12 37  1  0
 14 38  1  0
 16 39  1  0
 18 40  1  0
 18 41  1  0
 18 42  1  0
 19 43  1  0
 19 44  1  0
 19 45  1  0
M  ISO  8  20   8  21   8  22  13  23  13  24  13  25  13  26  13  27  13
M  ISO  8  28  13  29  13  30  13  31  13  32  13  33  13  34  13  35  13
M  ISO  8  36  13  37  14  38  14  39  14  40   8  41   8  42   8  43   8
M  ISO  2  44   8  45   8
M  END
>  <minimizedAffinity>  (1) 
-5.40665054

>  <minimizedRMSD>  (1) 
0.266927928

$$$$
