
     RDKit          3D

 41 42  0  0  1  0  0  0  0  0999 V2000
   43.8810   35.0240   40.7730 C   0  0  0  0  0  0  0  0  0  0  0  0
   42.6390   34.3980   40.2070 C   0  0  2  0  0  0  0  0  0  0  0  0
   42.0990   35.1820   39.0500 C   0  0  0  0  0  0  0  0  0  0  0  0
   40.5890   35.2200   39.0040 C   0  0  0  0  0  0  0  0  0  0  0  0
   39.8850   35.7190   40.1850 C   0  0  0  0  0  0  0  0  0  0  0  0
   40.9430   35.8090   41.2960 C   0  0  0  0  0  0  0  0  0  0  0  0
   41.5800   34.4590   41.2680 C   0  0  1  0  0  0  0  0  0  0  0  0
   40.6510   33.3100   41.3430 C   0  0  0  0  0  0  0  0  0  0  0  0
   44.8290   34.1770   41.5020 C   0  0  0  0  0  0  0  0  0  0  0  0
   45.3610   33.4220   43.7990 C   0  0  0  0  0  0  0  0  0  0  0  0
   44.8680   34.4300   42.9430 C   0  0  0  0  0  0  0  0  0  0  0  0
   44.4520   35.5840   43.5500 C   0  0  0  0  0  0  0  0  0  0  0  0
   44.5140   35.7350   44.8890 N   0  0  0  0  0  0  0  0  0  0  0  0
   44.9990   34.7320   45.6750 C   0  0  0  0  0  0  0  0  0  0  0  0
   45.4170   33.5890   45.1280 N   0  0  0  0  0  0  0  0  0  0  0  0
   44.6050   32.7090   41.2450 C   0  0  0  0  0  0  0  0  0  0  0  0
   46.2500   34.4030   40.9380 C   0  0  0  0  0  0  0  0  0  0  0  0
   43.5576   35.8163   41.4641 H   0  0  0  0  0  0  0  0  0  0  0  0
   44.4432   35.3495   39.8853 H   0  0  0  0  0  0  0  0  0  0  0  0
   42.8880   33.3769   39.8823 H   0  0  0  0  0  0  0  0  0  0  0  0
   42.4718   36.2143   39.1238 H   0  0  0  0  0  0  0  0  0  0  0  0
   42.4396   34.6819   38.1314 H   0  0  0  0  0  0  0  0  0  0  0  0
   40.3022   35.8593   38.1561 H   0  0  0  0  0  0  0  0  0  0  0  0
   40.2867   34.1653   38.9252 H   0  0  0  0  0  0  0  0  0  0  0  0
   39.4553   36.7114   39.9839 H   0  0  0  0  0  0  0  0  0  0  0  0
   39.0535   35.0577   40.4703 H   0  0  0  0  0  0  0  0  0  0  0  0
   41.6786   36.5972   41.0777 H   0  0  0  0  0  0  0  0  0  0  0  0
   40.5181   36.0661   42.2775 H   0  0  0  0  0  0  0  0  0  0  0  0
   42.1040   34.3284   42.2263 H   0  0  0  0  0  0  0  0  0  0  0  0
   40.4538   33.0661   42.3973 H   0  0  0  0  0  0  0  0  0  0  0  0
   39.7058   33.5695   40.8437 H   0  0  0  0  0  0  0  0  0  0  0  0
   41.1027   32.4401   40.8437 H   0  0  0  0  0  0  0  0  0  0  0  0
   45.7088   32.4735   43.3638 H   0  0  0  0  0  0  0  0  0  0  0  0
   44.0589   36.4055   42.9331 H   0  0  0  0  0  0  0  0  0  0  0  0
   45.0459   34.8658   46.7658 H   0  0  0  0  0  0  0  0  0  0  0  0
   44.5238   32.1770   42.2044 H   0  0  0  0  0  0  0  0  0  0  0  0
   43.6760   32.5747   40.6715 H   0  0  0  0  0  0  0  0  0  0  0  0
   45.4517   32.3038   40.6715 H   0  0  0  0  0  0  0  0  0  0  0  0
   46.9609   34.5161   41.7698 H   0  0  0  0  0  0  0  0  0  0  0  0
   46.5413   33.5399   40.3214 H   0  0  0  0  0  0  0  0  0  0  0  0
   46.2592   35.3139   40.3214 H   0  0  0  0  0  0  0  0  0  0  0  0
  1  9  1  0
  2  1  1  0
  2  7  1  0
  3  2  1  0
  4  3  1  0
  4  5  1  0
  5  6  1  0
  7  6  1  0
  7  8  1  0
  9 11  1  0
 10 15  2  0
 11 12  2  0
 11 10  1  0
 12 13  1  0
 13 14  2  0
 15 14  1  0
 16  9  1  0
 17  9  1  0
  1 18  1  0
  1 19  1  0
  2 20  1  6
  3 21  1  0
  3 22  1  0
  4 23  1  0
  4 24  1  0
  5 25  1  0
  5 26  1  0
  6 27  1  0
  6 28  1  0
  7 29  1  1
  8 30  1  0
  8 31  1  0
  8 32  1  0
 10 33  1  0
 12 34  1  0
 14 35  1  0
 16 36  1  0
 16 37  1  0
 16 38  1  0
 17 39  1  0
 17 40  1  0
 17 41  1  0
M  ISO  8  18   8  19   8  20  13  21  13  22  13  23  13  24  13  25  13
M  ISO  8  26  13  27  13  28  13  29  13  30   8  31   8  32   8  33  14
M  ISO  8  34  14  35  14  36   8  37   8  38   8  39   8  40   8  41   8
M  END
>  <minimizedAffinity>  (1) 
-5.24855185

>  <minimizedRMSD>  (1) 
0.267829627

$$$$
