
     RDKit          3D

 44 45  0  0  1  0  0  0  0  0999 V2000
   43.8060   35.0250   40.7940 C   0  0  0  0  0  0  0  0  0  0  0  0
   42.6610   34.3930   40.0580 C   0  0  2  0  0  0  0  0  0  0  0  0
   42.1280   35.2870   38.9820 C   0  0  0  0  0  0  0  0  0  0  0  0
   40.6270   35.2620   38.8540 C   0  0  0  0  0  0  0  0  0  0  0  0
   39.8310   35.5610   40.0490 C   0  0  0  0  0  0  0  0  0  0  0  0
   40.8090   35.5020   41.2280 C   0  0  0  0  0  0  0  0  0  0  0  0
   41.5480   34.1970   41.0400 C   0  0  1  0  0  0  0  0  0  0  0  0
   40.6520   33.0340   40.8710 C   0  0  0  0  0  0  0  0  0  0  0  0
   40.0200   32.4470   42.0790 C   0  0  0  0  0  0  0  0  0  0  0  0
   44.7590   34.1740   41.5040 C   0  0  0  0  0  0  0  0  0  0  0  0
   45.3390   33.4110   43.7850 C   0  0  0  0  0  0  0  0  0  0  0  0
   44.8240   34.4190   42.9440 C   0  0  0  0  0  0  0  0  0  0  0  0
   44.4160   35.5710   43.5620 C   0  0  0  0  0  0  0  0  0  0  0  0
   44.5090   35.7150   44.9030 N   0  0  0  0  0  0  0  0  0  0  0  0
   45.0130   34.7130   45.6730 C   0  0  0  0  0  0  0  0  0  0  0  0
   45.4260   33.5680   45.1140 N   0  0  0  0  0  0  0  0  0  0  0  0
   44.5050   32.7120   41.2480 C   0  0  0  0  0  0  0  0  0  0  0  0
   46.1650   34.3810   40.9110 C   0  0  0  0  0  0  0  0  0  0  0  0
   43.3707   35.7086   41.5378 H   0  0  0  0  0  0  0  0  0  0  0  0
   44.4093   35.4797   39.9945 H   0  0  0  0  0  0  0  0  0  0  0  0
   43.0166   33.4552   39.6062 H   0  0  0  0  0  0  0  0  0  0  0  0
   42.4394   36.3185   39.2032 H   0  0  0  0  0  0  0  0  0  0  0  0
   42.5354   34.9173   38.0294 H   0  0  0  0  0  0  0  0  0  0  0  0
   40.3516   35.9981   38.0844 H   0  0  0  0  0  0  0  0  0  0  0  0
   40.3878   34.2145   38.6184 H   0  0  0  0  0  0  0  0  0  0  0  0
   39.3850   36.5635   39.9711 H   0  0  0  0  0  0  0  0  0  0  0  0
   39.0036   34.8469   40.1733 H   0  0  0  0  0  0  0  0  0  0  0  0
   41.5066   36.3520   41.1977 H   0  0  0  0  0  0  0  0  0  0  0  0
   40.2970   35.5571   42.2000 H   0  0  0  0  0  0  0  0  0  0  0  0
   42.0545   33.8985   41.9697 H   0  0  0  0  0  0  0  0  0  0  0  0
   39.8396   33.3448   40.1977 H   0  0  0  0  0  0  0  0  0  0  0  0
   41.3118   32.2371   40.4973 H   0  0  0  0  0  0  0  0  0  0  0  0
   40.4823   32.8764   42.9801 H   0  0  0  0  0  0  0  0  0  0  0  0
   38.9434   32.6729   42.0761 H   0  0  0  0  0  0  0  0  0  0  0  0
   40.1659   31.3567   42.0761 H   0  0  0  0  0  0  0  0  0  0  0  0
   45.6801   32.4661   43.3368 H   0  0  0  0  0  0  0  0  0  0  0  0
   44.0057   36.3930   42.9571 H   0  0  0  0  0  0  0  0  0  0  0  0
   45.0819   34.8442   46.7630 H   0  0  0  0  0  0  0  0  0  0  0  0
   44.4130   32.1823   42.2077 H   0  0  0  0  0  0  0  0  0  0  0  0
   43.5734   32.5966   40.6747 H   0  0  0  0  0  0  0  0  0  0  0  0
   45.3431   32.2891   40.6747 H   0  0  0  0  0  0  0  0  0  0  0  0
   46.8949   34.4885   41.7269 H   0  0  0  0  0  0  0  0  0  0  0  0
   46.4330   33.5126   40.2912 H   0  0  0  0  0  0  0  0  0  0  0  0
   46.1714   35.2898   40.2912 H   0  0  0  0  0  0  0  0  0  0  0  0
  1 10  1  0
  2  1  1  0
  2  7  1  0
  3  2  1  0
  4  3  1  0
  4  5  1  0
  5  6  1  0
  7  6  1  0
  8  7  1  0
  8  9  1  0
 10 12  1  0
 11 16  2  0
 12 13  2  0
 12 11  1  0
 13 14  1  0
 14 15  2  0
 16 15  1  0
 17 10  1  0
 18 10  1  0
  1 19  1  0
  1 20  1  0
  2 21  1  6
  3 22  1  0
  3 23  1  0
  4 24  1  0
  4 25  1  0
  5 26  1  0
  5 27  1  0
  6 28  1  0
  6 29  1  0
  7 30  1  1
  8 31  1  0
  8 32  1  0
  9 33  1  0
  9 34  1  0
  9 35  1  0
 11 36  1  0
 13 37  1  0
 15 38  1  0
 17 39  1  0
 17 40  1  0
 17 41  1  0
 18 42  1  0
 18 43  1  0
 18 44  1  0
M  ISO  8  19   8  20   8  21  13  22  13  23  13  24  13  25  13  26  13
M  ISO  8  27  13  28  13  29  13  30  13  31   8  32   8  33   8  34   8
M  ISO  8  35   8  36  14  37  14  38  14  39   8  40   8  41   8  42   8
M  ISO  2  43   8  44   8
M  END
>  <minimizedAffinity>  (1) 
-5.22226143

>  <minimizedRMSD>  (1) 
0.590954185

$$$$
