
     RDKit          3D

 53 56  0  0  1  0  0  0  0  0999 V2000
   45.0000   34.4030   41.7790 C   0  0  1  0  0  0  0  0  0  0  0  0
   45.5040   33.4300   44.0070 C   0  0  0  0  0  0  0  0  0  0  0  0
   44.9870   34.4930   43.2410 C   0  0  0  0  0  0  0  0  0  0  0  0
   44.5060   35.5390   43.9610 C   0  0  0  0  0  0  0  0  0  0  0  0
   44.5270   35.5530   45.3050 N   0  0  0  0  0  0  0  0  0  0  0  0
   45.0370   34.5040   46.0010 C   0  0  0  0  0  0  0  0  0  0  0  0
   45.5200   33.4560   45.3430 N   0  0  0  0  0  0  0  0  0  0  0  0
   44.9930   32.9610   41.3800 C   0  0  0  0  0  0  0  0  0  0  0  0
   43.9980   35.1830   41.0910 C   0  0  0  0  0  0  0  0  0  0  0  0
   42.8310   34.4760   40.4550 C   0  0  2  0  0  0  0  0  0  0  0  0
   42.3800   35.1600   39.1950 C   0  0  0  0  0  0  0  0  0  0  0  0
   40.8660   35.0120   39.0020 C   0  0  0  0  0  0  0  0  0  0  0  0
   40.0730   35.7110   40.0400 C   0  0  0  0  0  0  0  0  0  0  0  0
   40.9950   35.8880   41.2540 C   0  0  0  0  0  0  0  0  0  0  0  0
   41.6580   34.5540   41.4080 C   0  0  1  0  0  0  0  0  0  0  0  0
   40.5510   33.1540   41.2150 S   0  0  0  0  0  0  0  0  0  0  0  0
   46.4070   34.8480   41.3150 C   0  0  0  0  0  0  0  0  0  0  0  0
   47.0630   33.9160   40.4100 C   0  0  0  0  0  0  0  0  0  0  0  0
   46.7080   33.4090   39.2180 N   0  0  0  0  0  0  0  0  0  0  0  0
   47.4800   32.5520   38.5420 C   0  0  0  0  0  0  0  0  0  0  0  0
   48.6640   32.1490   39.0210 N   0  0  0  0  0  0  0  0  0  0  0  0
   49.1000   32.6140   40.2240 C   0  0  0  0  0  0  0  0  0  0  0  0
   50.3270   32.1450   40.6310 C   0  0  0  0  0  0  0  0  0  0  0  0
   50.8010   32.5980   41.8420 C   0  0  0  0  0  0  0  0  0  0  0  0
   50.0630   33.4830   42.5980 C   0  0  0  0  0  0  0  0  0  0  0  0
   48.8430   33.9020   42.1130 C   0  0  0  0  0  0  0  0  0  0  0  0
   48.2930   33.4960   40.9060 C   0  0  0  0  0  0  0  0  0  0  0  0
   45.9083   32.5485   43.4879 H   0  0  0  0  0  0  0  0  0  0  0  0
   44.0852   36.4036   43.4267 H   0  0  0  0  0  0  0  0  0  0  0  0
   45.0500   34.5222   47.1008 H   0  0  0  0  0  0  0  0  0  0  0  0
   44.9899   32.3311   42.2818 H   0  0  0  0  0  0  0  0  0  0  0  0
   44.0938   32.7503   40.7825 H   0  0  0  0  0  0  0  0  0  0  0  0
   45.8901   32.7415   40.7825 H   0  0  0  0  0  0  0  0  0  0  0  0
   43.5847   35.8934   41.8221 H   0  0  0  0  0  0  0  0  0  0  0  0
   44.5409   35.6152   40.2375 H   0  0  0  0  0  0  0  0  0  0  0  0
   43.1472   33.4468   40.2296 H   0  0  0  0  0  0  0  0  0  0  0  0
   42.6322   36.2290   39.2558 H   0  0  0  0  0  0  0  0  0  0  0  0
   42.8900   34.6921   38.3400 H   0  0  0  0  0  0  0  0  0  0  0  0
   40.5970   35.4260   38.0190 H   0  0  0  0  0  0  0  0  0  0  0  0
   40.6306   33.9402   39.0781 H   0  0  0  0  0  0  0  0  0  0  0  0
   39.7430   36.6923   39.6683 H   0  0  0  0  0  0  0  0  0  0  0  0
   39.1743   35.1352   40.3061 H   0  0  0  0  0  0  0  0  0  0  0  0
   41.7403   36.6750   41.0666 H   0  0  0  0  0  0  0  0  0  0  0  0
   40.4480   36.1940   42.1580 H   0  0  0  0  0  0  0  0  0  0  0  0
   42.0098   34.4806   42.4476 H   0  0  0  0  0  0  0  0  0  0  0  0
   40.1833   32.6889   42.4501 H   0  0  0  0  0  0  0  0  0  0  0  0
   46.3100   35.8159   40.8015 H   0  0  0  0  0  0  0  0  0  0  0  0
   47.0331   34.9031   42.2178 H   0  0  0  0  0  0  0  0  0  0  0  0
   47.1349   32.1692   37.5702 H   0  0  0  0  0  0  0  0  0  0  0  0
   50.9045   31.4390   40.0162 H   0  0  0  0  0  0  0  0  0  0  0  0
   51.7778   32.2502   42.2094 H   0  0  0  0  0  0  0  0  0  0  0  0
   50.4389   33.8464   43.5658 H   0  0  0  0  0  0  0  0  0  0  0  0
   48.2644   34.6084   42.7264 H   0  0  0  0  0  0  0  0  0  0  0  0
  1  9  1  6
  1  3  1  0
  2  7  2  0
  3  4  2  0
  3  2  1  0
  4  5  1  0
  5  6  2  0
  7  6  1  0
  8  1  1  0
 10  9  1  0
 10 15  1  0
 11 10  1  0
 12 11  1  0
 12 13  1  0
 13 14  1  0
 14 15  1  0
 16 15  1  0
 17  1  1  0
 18 27  1  0
 18 17  1  0
 19 18  2  0
 20 21  2  0
 20 19  1  0
 21 22  1  0
 22 23  1  0
 22 27  2  0
 23 24  2  0
 24 25  1  0
 26 25  2  0
 27 26  1  0
  2 28  1  0
  4 29  1  0
  6 30  1  0
  8 31  1  0
  8 32  1  0
  8 33  1  0
  9 34  1  0
  9 35  1  0
 10 36  1  6
 11 37  1  0
 11 38  1  0
 12 39  1  0
 12 40  1  0
 13 41  1  0
 13 42  1  0
 14 43  1  0
 14 44  1  0
 15 45  1  1
 16 46  1  0
 17 47  1  0
 17 48  1  0
 20 49  1  0
 23 50  1  0
 24 51  1  0
 25 52  1  0
 26 53  1  0
M  ISO  8  28  14  29  14  30  14  31   8  32   8  33   8  34   8  35   8
M  ISO  8  36  13  37  13  38  13  39  13  40  13  41  13  42  13  43  13
M  ISO  8  44  13  45  13  46  11  47   8  48   8  49  14  50  14  51  14
M  ISO  2  52  14  53  14
M  END
>  <minimizedAffinity>  (1) 
-6.52829504

>  <minimizedRMSD>  (1) 
1.9494946

$$$$
