
     RDKit          3D

 52 55  0  0  1  0  0  0  0  0999 V2000
   45.0840   34.5330   41.8830 C   0  0  1  0  0  0  0  0  0  0  0  0
   45.5680   33.4500   44.0670 C   0  0  0  0  0  0  0  0  0  0  0  0
   45.0420   34.5380   43.3430 C   0  0  0  0  0  0  0  0  0  0  0  0
   44.5300   35.5350   44.1030 C   0  0  0  0  0  0  0  0  0  0  0  0
   44.5360   35.4650   45.4520 N   0  0  0  0  0  0  0  0  0  0  0  0
   45.0440   34.4140   46.1020 C   0  0  0  0  0  0  0  0  0  0  0  0
   45.5610   33.4050   45.4040 N   0  0  0  0  0  0  0  0  0  0  0  0
   45.1650   33.0930   41.4070 C   0  0  0  0  0  0  0  0  0  0  0  0
   44.0250   35.2430   41.2130 C   0  0  0  0  0  0  0  0  0  0  0  0
   42.9150   34.4690   40.5480 C   0  0  2  0  0  0  0  0  0  0  0  0
   42.4880   35.1150   39.2550 C   0  0  0  0  0  0  0  0  0  0  0  0
   40.9930   34.9300   39.0100 C   0  0  0  0  0  0  0  0  0  0  0  0
   40.1310   35.6100   40.0110 C   0  0  0  0  0  0  0  0  0  0  0  0
   41.0020   35.8330   41.2520 C   0  0  0  0  0  0  0  0  0  0  0  0
   41.7130   34.5320   41.4420 C   0  0  1  0  0  0  0  0  0  0  0  0
   40.6560   33.0970   41.2450 S   0  0  0  0  0  0  0  0  0  0  0  0
   46.4720   35.0440   41.4680 C   0  0  0  0  0  0  0  0  0  0  0  0
   47.3120   34.1280   40.7940 N   0  0  0  0  0  0  0  0  0  0  0  0
   47.0170   33.6690   39.5420 C   0  0  0  0  0  0  0  0  0  0  0  0
   47.9490   32.8170   39.0830 N   0  0  0  0  0  0  0  0  0  0  0  0
   48.9060   32.6810   40.0310 C   0  0  0  0  0  0  0  0  0  0  0  0
   50.0740   31.9550   40.1450 C   0  0  0  0  0  0  0  0  0  0  0  0
   50.8280   32.0300   41.2770 N   0  0  0  0  0  0  0  0  0  0  0  0
   50.3900   32.8380   42.2760 C   0  0  0  0  0  0  0  0  0  0  0  0
   49.2520   33.5300   42.1370 N   0  0  0  0  0  0  0  0  0  0  0  0
   48.4710   33.4930   41.0430 C   0  0  0  0  0  0  0  0  0  0  0  0
   50.4790   31.1240   39.0560 N   0  0  0  0  0  0  0  0  0  0  0  0
   46.0011   32.6050   43.5116 H   0  0  0  0  0  0  0  0  0  0  0  0
   44.1002   36.4203   43.6116 H   0  0  0  0  0  0  0  0  0  0  0  0
   45.0352   34.3827   47.2015 H   0  0  0  0  0  0  0  0  0  0  0  0
   45.2028   32.4208   42.2769 H   0  0  0  0  0  0  0  0  0  0  0  0
   44.2787   32.8572   40.7997 H   0  0  0  0  0  0  0  0  0  0  0  0
   46.0722   32.9581   40.7997 H   0  0  0  0  0  0  0  0  0  0  0  0
   43.5545   35.8967   41.9622 H   0  0  0  0  0  0  0  0  0  0  0  0
   44.5361   35.7344   40.3720 H   0  0  0  0  0  0  0  0  0  0  0  0
   43.2772   33.4472   40.3617 H   0  0  0  0  0  0  0  0  0  0  0  0
   42.7133   36.1907   39.3004 H   0  0  0  0  0  0  0  0  0  0  0  0
   43.0368   34.6370   38.4302 H   0  0  0  0  0  0  0  0  0  0  0  0
   40.7525   35.3327   38.0150 H   0  0  0  0  0  0  0  0  0  0  0  0
   40.7869   33.8525   39.0901 H   0  0  0  0  0  0  0  0  0  0  0  0
   39.7773   36.5739   39.6163 H   0  0  0  0  0  0  0  0  0  0  0  0
   39.2440   35.0050   40.2499 H   0  0  0  0  0  0  0  0  0  0  0  0
   41.7203   36.6487   41.0826 H   0  0  0  0  0  0  0  0  0  0  0  0
   40.4114   36.1222   42.1338 H   0  0  0  0  0  0  0  0  0  0  0  0
   42.0444   34.4967   42.4903 H   0  0  0  0  0  0  0  0  0  0  0  0
   40.3026   32.6173   42.4787 H   0  0  0  0  0  0  0  0  0  0  0  0
   46.3238   35.9096   40.8056 H   0  0  0  0  0  0  0  0  0  0  0  0
   46.9901   35.2699   42.4117 H   0  0  0  0  0  0  0  0  0  0  0  0
   46.1210   33.9626   38.9755 H   0  0  0  0  0  0  0  0  0  0  0  0
   50.9730   32.9248   43.2047 H   0  0  0  0  0  0  0  0  0  0  0  0
   51.3478   30.5747   39.1227 H   0  0  0  0  0  0  0  0  0  0  0  0
   49.9023   31.0741   38.2041 H   0  0  0  0  0  0  0  0  0  0  0  0
  1  9  1  6
  1  3  1  0
  2  7  2  0
  3  2  1  0
  3  4  2  0
  4  5  1  0
  5  6  2  0
  7  6  1  0
  8  1  1  0
 10  9  1  0
 10 15  1  0
 11 10  1  0
 12 11  1  0
 12 13  1  0
 13 14  1  0
 14 15  1  0
 16 15  1  0
 17  1  1  0
 18 26  1  0
 18 17  1  0
 19 18  1  0
 20 19  2  0
 20 21  1  0
 21 22  2  0
 21 26  1  0
 22 23  1  0
 23 24  2  0
 25 24  1  0
 26 25  2  0
 27 22  1  0
  2 28  1  0
  4 29  1  0
  6 30  1  0
  8 31  1  0
  8 32  1  0
  8 33  1  0
  9 34  1  0
  9 35  1  0
 10 36  1  6
 11 37  1  0
 11 38  1  0
 12 39  1  0
 12 40  1  0
 13 41  1  0
 13 42  1  0
 14 43  1  0
 14 44  1  0
 15 45  1  1
 16 46  1  0
 17 47  1  0
 17 48  1  0
 19 49  1  0
 24 50  1  0
 27 51  1  0
 27 52  1  0
M  ISO  8  28  14  29  14  30  14  31   8  32   8  33   8  34   8  35   8
M  ISO  8  36  13  37  13  38  13  39  13  40  13  41  13  42  13  43  13
M  ISO  7  44  13  45  13  46  11  47   8  48   8  49  14  50  14
M  END
>  <minimizedAffinity>  (1) 
-6.18276834

>  <minimizedRMSD>  (1) 
2.09787583

$$$$
