
     RDKit          3D

 50 52  0  0  1  0  0  0  0  0999 V2000
   45.0530   33.9190   41.8580 C   0  0  1  0  0  0  0  0  0  0  0  0
   45.4020   33.4180   44.2650 C   0  0  0  0  0  0  0  0  0  0  0  0
   44.9530   34.3210   43.2620 C   0  0  0  0  0  0  0  0  0  0  0  0
   44.4640   35.4980   43.7410 C   0  0  0  0  0  0  0  0  0  0  0  0
   44.4210   35.7560   45.0590 N   0  0  0  0  0  0  0  0  0  0  0  0
   44.8540   34.8800   45.9710 C   0  0  0  0  0  0  0  0  0  0  0  0
   45.3440   33.7110   45.5650 N   0  0  0  0  0  0  0  0  0  0  0  0
   44.6790   32.4780   41.7220 C   0  0  0  0  0  0  0  0  0  0  0  0
   44.2900   34.7540   40.9320 C   0  0  0  0  0  0  0  0  0  0  0  0
   43.0150   34.1970   40.3450 C   0  0  2  0  0  0  0  0  0  0  0  0
   42.5860   34.9920   39.1340 C   0  0  0  0  0  0  0  0  0  0  0  0
   41.0660   35.0480   39.0240 C   0  0  0  0  0  0  0  0  0  0  0  0
   40.4200   35.7960   40.1300 C   0  0  0  0  0  0  0  0  0  0  0  0
   41.4160   35.7970   41.2950 C   0  0  0  0  0  0  0  0  0  0  0  0
   41.9260   34.3900   41.3520 C   0  0  1  0  0  0  0  0  0  0  0  0
   40.6340   33.1590   41.1980 S   0  0  0  0  0  0  0  0  0  0  0  0
   46.5450   33.9320   41.4970 C   0  0  0  0  0  0  0  0  0  0  0  0
   46.9270   33.8400   40.1540 N   0  0  0  0  0  0  0  0  0  0  0  0
   46.3310   33.0460   39.2160 C   0  0  0  0  0  0  0  0  0  0  0  0
   46.6560   32.9300   37.8810 C   0  0  0  0  0  0  0  0  0  0  0  0
   47.6900   33.6770   37.3870 C   0  0  0  0  0  0  0  0  0  0  0  0
   48.0590   33.5890   36.0240 N   0  0  0  0  0  0  0  0  0  0  0  0
   48.3230   34.4890   38.2750 N   0  0  0  0  0  0  0  0  0  0  0  0
   47.9230   34.5290   39.5690 C   0  0  0  0  0  0  0  0  0  0  0  0
   48.6570   35.3510   40.1710 O   0  0  0  0  0  0  0  0  0  0  0  0
   45.8113   32.4442   43.9580 H   0  0  0  0  0  0  0  0  0  0  0  0
   44.0957   36.2549   43.0329 H   0  0  0  0  0  0  0  0  0  0  0  0
   44.8060   35.1220   47.0430 H   0  0  0  0  0  0  0  0  0  0  0  0
   44.5636   32.0332   42.7214 H   0  0  0  0  0  0  0  0  0  0  0  0
   43.7298   32.3959   41.1722 H   0  0  0  0  0  0  0  0  0  0  0  0
   45.4685   31.9446   41.1722 H   0  0  0  0  0  0  0  0  0  0  0  0
   44.0246   35.6764   41.4694 H   0  0  0  0  0  0  0  0  0  0  0  0
   44.9564   34.8740   40.0651 H   0  0  0  0  0  0  0  0  0  0  0  0
   43.1874   33.1441   40.0773 H   0  0  0  0  0  0  0  0  0  0  0  0
   42.9780   36.0162   39.2194 H   0  0  0  0  0  0  0  0  0  0  0  0
   42.9834   34.4996   38.2342 H   0  0  0  0  0  0  0  0  0  0  0  0
   40.8034   35.5359   38.0737 H   0  0  0  0  0  0  0  0  0  0  0  0
   40.6994   34.0122   39.0764 H   0  0  0  0  0  0  0  0  0  0  0  0
   40.2026   36.8273   39.8151 H   0  0  0  0  0  0  0  0  0  0  0  0
   39.4671   35.3302   40.4218 H   0  0  0  0  0  0  0  0  0  0  0  0
   42.2387   36.5015   41.1029 H   0  0  0  0  0  0  0  0  0  0  0  0
   40.9531   36.1133   42.2414 H   0  0  0  0  0  0  0  0  0  0  0  0
   42.3465   34.2348   42.3565 H   0  0  0  0  0  0  0  0  0  0  0  0
   40.2242   32.7686   42.4456 H   0  0  0  0  0  0  0  0  0  0  0  0
   46.9604   34.8739   41.8846 H   0  0  0  0  0  0  0  0  0  0  0  0
   46.9276   33.0008   41.9402 H   0  0  0  0  0  0  0  0  0  0  0  0
   45.4929   32.4260   39.5669 H   0  0  0  0  0  0  0  0  0  0  0  0
   46.0939   32.2490   37.2250 H   0  0  0  0  0  0  0  0  0  0  0  0
   48.8394   34.1567   35.6641 H   0  0  0  0  0  0  0  0  0  0  0  0
   47.5472   32.9573   35.3917 H   0  0  0  0  0  0  0  0  0  0  0  0
  1  9  1  6
  1  3  1  0
  2  7  2  0
  3  4  2  0
  3  2  1  0
  4  5  1  0
  5  6  2  0
  7  6  1  0
  8  1  1  0
 10  9  1  0
 10 15  1  0
 11 10  1  0
 12 11  1  0
 12 13  1  0
 13 14  1  0
 14 15  1  0
 16 15  1  0
 17  1  1  0
 18 17  1  0
 19 18  1  0
 20 19  2  0
 21 20  1  0
 21 23  2  0
 22 21  1  0
 23 24  1  0
 24 18  1  0
 24 25  2  0
  2 26  1  0
  4 27  1  0
  6 28  1  0
  8 29  1  0
  8 30  1  0
  8 31  1  0
  9 32  1  0
  9 33  1  0
 10 34  1  6
 11 35  1  0
 11 36  1  0
 12 37  1  0
 12 38  1  0
 13 39  1  0
 13 40  1  0
 14 41  1  0
 14 42  1  0
 15 43  1  1
 16 44  1  0
 17 45  1  0
 17 46  1  0
 19 47  1  0
 20 48  1  0
 22 49  1  0
 22 50  1  0
M  ISO  8  26  14  27  14  28  14  29   8  30   8  31   8  32   8  33   8
M  ISO  8  34  13  35  13  36  13  37  13  38  13  39  13  40  13  41  13
M  ISO  7  42  13  43  13  44  11  45   8  46   8  47  14  48  14
M  END
>  <minimizedAffinity>  (1) 
-6.14024496

>  <minimizedRMSD>  (1) 
0.565862119

$$$$
