
     RDKit          3D

 52 54  0  0  1  0  0  0  0  0999 V2000
   44.8440   34.1590   41.6440 C   0  0  1  0  0  0  0  0  0  0  0  0
   45.3690   33.4450   43.9640 C   0  0  0  0  0  0  0  0  0  0  0  0
   44.8610   34.4210   43.0850 C   0  0  0  0  0  0  0  0  0  0  0  0
   44.4240   35.5570   43.6820 C   0  0  0  0  0  0  0  0  0  0  0  0
   44.4820   35.7180   45.0270 N   0  0  0  0  0  0  0  0  0  0  0  0
   44.9740   34.7630   45.8240 C   0  0  0  0  0  0  0  0  0  0  0  0
   45.4220   33.6160   45.2860 N   0  0  0  0  0  0  0  0  0  0  0  0
   44.5810   32.6900   41.4290 C   0  0  0  0  0  0  0  0  0  0  0  0
   43.9370   34.9830   40.8730 C   0  0  0  0  0  0  0  0  0  0  0  0
   42.6630   34.3670   40.3380 C   0  0  2  0  0  0  0  0  0  0  0  0
   42.1760   35.0930   39.1110 C   0  0  0  0  0  0  0  0  0  0  0  0
   40.6510   35.1000   39.0380 C   0  0  0  0  0  0  0  0  0  0  0  0
   40.0070   35.8630   40.1310 C   0  0  0  0  0  0  0  0  0  0  0  0
   41.0320   35.9440   41.2710 C   0  0  0  0  0  0  0  0  0  0  0  0
   41.5890   34.5560   41.3640 C   0  0  1  0  0  0  0  0  0  0  0  0
   40.3430   33.2680   41.2750 S   0  0  0  0  0  0  0  0  0  0  0  0
   46.2830   34.2960   41.1410 C   0  0  0  0  0  0  0  0  0  0  0  0
   47.2930   32.8510   37.2230 C   0  0  0  0  0  0  0  0  0  0  0  0
   46.0780   32.5190   37.7770 C   0  0  0  0  0  0  0  0  0  0  0  0
   45.7820   33.0050   39.0330 C   0  0  0  0  0  0  0  0  0  0  0  0
   46.5900   33.8090   39.8160 C   0  0  0  0  0  0  0  0  0  0  0  0
   47.8080   34.1070   39.1910 C   0  0  0  0  0  0  0  0  0  0  0  0
   48.1590   33.6510   37.9380 C   0  0  0  0  0  0  0  0  0  0  0  0
   47.6980   32.2510   35.6310 S   0  0  0  0  0  0  0  0  0  0  0  0
   48.2100   30.8540   35.7940 O   0  0  0  0  0  0  0  0  0  0  0  0
   48.7900   33.0760   34.9820 O   0  0  0  0  0  0  0  0  0  0  0  0
   45.7387   32.4991   43.5415 H   0  0  0  0  0  0  0  0  0  0  0  0
   44.0130   36.3666   43.0610 H   0  0  0  0  0  0  0  0  0  0  0  0
   45.0116   34.9156   46.9127 H   0  0  0  0  0  0  0  0  0  0  0  0
   44.4910   32.1872   42.4032 H   0  0  0  0  0  0  0  0  0  0  0  0
   43.6460   32.5638   40.8635 H   0  0  0  0  0  0  0  0  0  0  0  0
   45.4142   32.2473   40.8635 H   0  0  0  0  0  0  0  0  0  0  0  0
   43.6427   35.8264   41.5149 H   0  0  0  0  0  0  0  0  0  0  0  0
   44.5106   35.2318   39.9680 H   0  0  0  0  0  0  0  0  0  0  0  0
   42.8692   33.3120   40.1048 H   0  0  0  0  0  0  0  0  0  0  0  0
   42.5378   36.1313   39.1420 H   0  0  0  0  0  0  0  0  0  0  0  0
   42.5633   34.5717   38.2231 H   0  0  0  0  0  0  0  0  0  0  0  0
   40.3512   35.5471   38.0787 H   0  0  0  0  0  0  0  0  0  0  0  0
   40.3194   34.0557   39.1358 H   0  0  0  0  0  0  0  0  0  0  0  0
   39.7435   36.8733   39.7848 H   0  0  0  0  0  0  0  0  0  0  0  0
   39.0801   35.3735   40.4644 H   0  0  0  0  0  0  0  0  0  0  0  0
   41.8253   36.6675   41.0317 H   0  0  0  0  0  0  0  0  0  0  0  0
   40.5841   36.2825   42.2170 H   0  0  0  0  0  0  0  0  0  0  0  0
   42.0282   34.4525   42.3672 H   0  0  0  0  0  0  0  0  0  0  0  0
   39.9813   32.8941   42.5424 H   0  0  0  0  0  0  0  0  0  0  0  0
   46.5359   35.3663   41.1623 H   0  0  0  0  0  0  0  0  0  0  0  0
   46.8699   33.6517   41.8121 H   0  0  0  0  0  0  0  0  0  0  0  0
   45.3631   31.8839   37.2333 H   0  0  0  0  0  0  0  0  0  0  0  0
   44.8052   32.7251   39.4544 H   0  0  0  0  0  0  0  0  0  0  0  0
   48.5259   34.7416   39.7313 H   0  0  0  0  0  0  0  0  0  0  0  0
   49.1331   33.9263   37.5074 H   0  0  0  0  0  0  0  0  0  0  0  0
   46.5823   32.3122   34.8383 H   0  0  0  0  0  0  0  0  0  0  0  0
  1  9  1  6
  1  3  1  0
  2  7  2  0
  3  4  2  0
  3  2  1  0
  4  5  1  0
  5  6  2  0
  7  6  1  0
  8  1  1  0
 10  9  1  0
 10 15  1  0
 11 10  1  0
 12 11  1  0
 12 13  1  0
 13 14  1  0
 14 15  1  0
 16 15  1  0
 17  1  1  0
 18 19  2  0
 18 23  1  0
 19 20  1  0
 20 21  2  0
 21 17  1  0
 22 21  1  0
 23 22  2  0
 24 25  2  0
 24 18  1  0
 26 24  2  0
  2 27  1  0
  4 28  1  0
  6 29  1  0
  8 30  1  0
  8 31  1  0
  8 32  1  0
  9 33  1  0
  9 34  1  0
 10 35  1  6
 11 36  1  0
 11 37  1  0
 12 38  1  0
 12 39  1  0
 13 40  1  0
 13 41  1  0
 14 42  1  0
 14 43  1  0
 15 44  1  1
 16 45  1  0
 17 46  1  0
 17 47  1  0
 19 48  1  0
 20 49  1  0
 22 50  1  0
 23 51  1  0
 24 52  1  0
M  ISO  8  27  14  28  14  29  14  30   8  31   8  32   8  33   8  34   8
M  ISO  8  35  13  36  13  37  13  38  13  39  13  40  13  41  13  42  13
M  ISO  8  43  13  44  13  45  11  46   8  47   8  48  14  49  14  50  14
M  ISO  2  51  14  52  11
M  END
>  <minimizedAffinity>  (1) 
-6.02664614

>  <minimizedRMSD>  (1) 
0.591844678

$$$$
