
     RDKit          3D

 52 54  0  0  1  0  0  0  0  0999 V2000
   44.7430   34.1010   41.5020 C   0  0  1  0  0  0  0  0  0  0  0  0
   45.3130   33.4150   43.8200 C   0  0  0  0  0  0  0  0  0  0  0  0
   44.8010   34.4050   42.9430 C   0  0  0  0  0  0  0  0  0  0  0  0
   44.4130   35.5690   43.5560 C   0  0  0  0  0  0  0  0  0  0  0  0
   44.5240   35.7210   44.8840 N   0  0  0  0  0  0  0  0  0  0  0  0
   45.0120   34.7620   45.6760 C   0  0  0  0  0  0  0  0  0  0  0  0
   45.4050   33.6100   45.1370 N   0  0  0  0  0  0  0  0  0  0  0  0
   44.4760   32.6510   41.3290 C   0  0  0  0  0  0  0  0  0  0  0  0
   43.8120   34.9470   40.7580 C   0  0  0  0  0  0  0  0  0  0  0  0
   42.5110   34.3410   40.2930 C   0  0  2  0  0  0  0  0  0  0  0  0
   41.9860   35.0420   39.0690 C   0  0  0  0  0  0  0  0  0  0  0  0
   40.4580   35.0480   39.0610 C   0  0  0  0  0  0  0  0  0  0  0  0
   39.8650   35.8530   40.1660 C   0  0  0  0  0  0  0  0  0  0  0  0
   40.9430   35.9560   41.2540 C   0  0  0  0  0  0  0  0  0  0  0  0
   41.4860   34.5740   41.3620 C   0  0  1  0  0  0  0  0  0  0  0  0
   40.2180   33.3000   41.3650 S   0  0  0  0  0  0  0  0  0  0  0  0
   46.1580   34.2920   40.9650 C   0  0  0  0  0  0  0  0  0  0  0  0
   46.9140   33.2290   40.3630 C   0  0  0  0  0  0  0  0  0  0  0  0
   48.3320   33.0100   40.7640 C   0  0  0  0  0  0  0  0  0  0  0  0
   49.0130   32.4360   39.4990 C   0  0  0  0  0  0  0  0  0  0  0  0
   48.4380   33.3500   38.4610 C   0  0  0  0  0  0  0  0  0  0  0  0
   47.0150   33.5690   38.8490 C   0  0  0  0  0  0  0  0  0  0  0  0
   45.6455   32.4540   43.4005 H   0  0  0  0  0  0  0  0  0  0  0  0
   44.0045   36.3905   42.9492 H   0  0  0  0  0  0  0  0  0  0  0  0
   45.0882   34.9226   46.7615 H   0  0  0  0  0  0  0  0  0  0  0  0
   44.3882   32.1740   42.3163 H   0  0  0  0  0  0  0  0  0  0  0  0
   43.5377   32.5149   40.7713 H   0  0  0  0  0  0  0  0  0  0  0  0
   45.3043   32.1896   40.7713 H   0  0  0  0  0  0  0  0  0  0  0  0
   43.5610   35.8014   41.4037 H   0  0  0  0  0  0  0  0  0  0  0  0
   44.3475   35.1876   39.8278 H   0  0  0  0  0  0  0  0  0  0  0  0
   42.6880   33.2771   40.0767 H   0  0  0  0  0  0  0  0  0  0  0  0
   42.3508   36.0797   39.0633 H   0  0  0  0  0  0  0  0  0  0  0  0
   42.3413   34.5065   38.1762 H   0  0  0  0  0  0  0  0  0  0  0  0
   40.1157   35.4654   38.1026 H   0  0  0  0  0  0  0  0  0  0  0  0
   40.1278   34.0083   39.2024 H   0  0  0  0  0  0  0  0  0  0  0  0
   39.5937   36.8554   39.8032 H   0  0  0  0  0  0  0  0  0  0  0  0
   38.9496   35.3831   40.5549 H   0  0  0  0  0  0  0  0  0  0  0  0
   41.7315   36.6628   40.9563 H   0  0  0  0  0  0  0  0  0  0  0  0
   40.5435   36.3276   42.2092 H   0  0  0  0  0  0  0  0  0  0  0  0
   41.9711   34.4935   42.3460 H   0  0  0  0  0  0  0  0  0  0  0  0
   39.8974   32.9779   42.6574 H   0  0  0  0  0  0  0  0  0  0  0  0
   46.0899   35.0843   40.2050 H   0  0  0  0  0  0  0  0  0  0  0  0
   46.7242   34.4691   41.8913 H   0  0  0  0  0  0  0  0  0  0  0  0
   46.3691   32.3275   40.6800 H   0  0  0  0  0  0  0  0  0  0  0  0
   48.8022   33.9590   41.0611 H   0  0  0  0  0  0  0  0  0  0  0  0
   48.4210   32.3346   41.6277 H   0  0  0  0  0  0  0  0  0  0  0  0
   50.1088   32.5162   39.5525 H   0  0  0  0  0  0  0  0  0  0  0  0
   48.8381   31.3644   39.3228 H   0  0  0  0  0  0  0  0  0  0  0  0
   48.4955   32.8832   37.4666 H   0  0  0  0  0  0  0  0  0  0  0  0
   48.9919   34.2989   38.4084 H   0  0  0  0  0  0  0  0  0  0  0  0
   46.7305   34.6172   38.6749 H   0  0  0  0  0  0  0  0  0  0  0  0
   46.3383   32.9387   38.2533 H   0  0  0  0  0  0  0  0  0  0  0  0
  1  9  1  6
  1  3  1  0
  2  7  2  0
  3  4  2  0
  3  2  1  0
  4  5  1  0
  5  6  2  0
  7  6  1  0
  8  1  1  0
 10  9  1  0
 10 15  1  0
 11 10  1  0
 12 11  1  0
 12 13  1  0
 13 14  1  0
 14 15  1  0
 15 16  1  0
 17  1  1  0
 18 19  1  0
 18 17  1  0
 20 19  1  0
 21 22  1  0
 21 20  1  0
 22 18  1  0
  2 23  1  0
  4 24  1  0
  6 25  1  0
  8 26  1  0
  8 27  1  0
  8 28  1  0
  9 29  1  0
  9 30  1  0
 10 31  1  6
 11 32  1  0
 11 33  1  0
 12 34  1  0
 12 35  1  0
 13 36  1  0
 13 37  1  0
 14 38  1  0
 14 39  1  0
 15 40  1  1
 16 41  1  0
 17 42  1  0
 17 43  1  0
 18 44  1  0
 19 45  1  0
 19 46  1  0
 20 47  1  0
 20 48  1  0
 21 49  1  0
 21 50  1  0
 22 51  1  0
 22 52  1  0
M  ISO  8  23  14  24  14  25  14  26   8  27   8  28   8  29   8  30   8
M  ISO  8  31  13  32  13  33  13  34  13  35  13  36  13  37  13  38  13
M  ISO  8  39  13  40  13  41  11  42   8  43   8  44  13  45  13  46  13
M  ISO  6  47  13  48  13  49  13  50  13  51  13  52  13
M  END
>  <minimizedAffinity>  (1) 
-5.5185113

>  <minimizedRMSD>  (1) 
0.927196085

$$$$
