
     RDKit          3D

 52 54  0  0  1  0  0  0  0  0999 V2000
   44.5500   33.6450   41.5940 C   0  0  1  0  0  0  0  0  0  0  0  0
   45.2090   33.3320   43.9500 C   0  0  0  0  0  0  0  0  0  0  0  0
   44.6700   34.1460   42.9420 C   0  0  0  0  0  0  0  0  0  0  0  0
   44.3100   35.3910   43.3360 C   0  0  0  0  0  0  0  0  0  0  0  0
   44.4710   35.7970   44.6150 N   0  0  0  0  0  0  0  0  0  0  0  0
   44.9880   34.9890   45.5470 C   0  0  0  0  0  0  0  0  0  0  0  0
   45.3570   33.7570   45.2120 N   0  0  0  0  0  0  0  0  0  0  0  0
   43.9010   32.2530   41.6430 C   0  0  0  0  0  0  0  0  0  0  0  0
   43.8620   34.4870   40.6370 C   0  0  0  0  0  0  0  0  0  0  0  0
   42.4780   34.1040   40.1660 C   0  0  2  0  0  0  0  0  0  0  0  0
   42.0250   34.9310   38.9900 C   0  0  0  0  0  0  0  0  0  0  0  0
   40.5210   35.2020   39.0310 C   0  0  0  0  0  0  0  0  0  0  0  0
   40.0720   36.0000   40.1850 C   0  0  0  0  0  0  0  0  0  0  0  0
   41.1710   35.8740   41.2550 C   0  0  0  0  0  0  0  0  0  0  0  0
   41.5040   34.4180   41.2750 C   0  0  1  0  0  0  0  0  0  0  0  0
   40.0670   33.3480   41.2370 S   0  0  0  0  0  0  0  0  0  0  0  0
   45.9250   33.2550   41.0540 C   0  0  0  0  0  0  0  0  0  0  0  0
   46.5870   34.1640   40.2050 N   0  0  0  0  0  0  0  0  0  0  0  0
   47.1540   33.4250   39.0390 C   0  0  0  0  0  0  0  0  0  0  0  0
   48.5750   33.0470   39.1880 C   0  0  0  0  0  0  0  0  0  0  0  0
   48.8860   32.4960   40.4360 O   0  0  0  0  0  0  0  0  0  0  0  0
   48.7000   33.5280   41.3610 C   0  0  0  0  0  0  0  0  0  0  0  0
   47.8250   34.6280   40.8670 C   0  0  0  0  0  0  0  0  0  0  0  0
   45.5211   32.3085   43.6950 H   0  0  0  0  0  0  0  0  0  0  0  0
   43.8780   36.0854   42.6003 H   0  0  0  0  0  0  0  0  0  0  0  0
   45.1068   35.3413   46.5823 H   0  0  0  0  0  0  0  0  0  0  0  0
   43.7601   31.9508   42.6913 H   0  0  0  0  0  0  0  0  0  0  0  0
   42.9251   32.2854   41.1364 H   0  0  0  0  0  0  0  0  0  0  0  0
   44.5532   31.5263   41.1364 H   0  0  0  0  0  0  0  0  0  0  0  0
   43.7802   35.4857   41.0908 H   0  0  0  0  0  0  0  0  0  0  0  0
   44.4764   34.3997   39.7288 H   0  0  0  0  0  0  0  0  0  0  0  0
   42.5098   33.0408   39.8856 H   0  0  0  0  0  0  0  0  0  0  0  0
   42.2641   34.3910   38.0620 H   0  0  0  0  0  0  0  0  0  0  0  0
   42.5475   35.8981   39.0311 H   0  0  0  0  0  0  0  0  0  0  0  0
   40.2445   35.7411   38.1129 H   0  0  0  0  0  0  0  0  0  0  0  0
   40.0303   34.2216   39.1206 H   0  0  0  0  0  0  0  0  0  0  0  0
   39.9445   37.0528   39.8929 H   0  0  0  0  0  0  0  0  0  0  0  0
   39.1035   35.6422   40.5644 H   0  0  0  0  0  0  0  0  0  0  0  0
   42.0527   36.4713   40.9797 H   0  0  0  0  0  0  0  0  0  0  0  0
   40.8436   36.2430   42.2382 H   0  0  0  0  0  0  0  0  0  0  0  0
   41.9812   34.2047   42.2429 H   0  0  0  0  0  0  0  0  0  0  0  0
   39.6788   33.0590   42.5187 H   0  0  0  0  0  0  0  0  0  0  0  0
   46.5794   33.0821   41.9211 H   0  0  0  0  0  0  0  0  0  0  0  0
   45.7307   32.3786   40.4182 H   0  0  0  0  0  0  0  0  0  0  0  0
   47.0594   34.0633   38.1481 H   0  0  0  0  0  0  0  0  0  0  0  0
   46.5865   32.4863   38.9563 H   0  0  0  0  0  0  0  0  0  0  0  0
   48.8201   32.3072   38.4117 H   0  0  0  0  0  0  0  0  0  0  0  0
   49.1637   33.9711   39.0907 H   0  0  0  0  0  0  0  0  0  0  0  0
   48.2445   33.1031   42.2676 H   0  0  0  0  0  0  0  0  0  0  0  0
   49.6897   33.9679   41.5535 H   0  0  0  0  0  0  0  0  0  0  0  0
   48.3986   35.2279   40.1452 H   0  0  0  0  0  0  0  0  0  0  0  0
   47.5148   35.2070   41.7494 H   0  0  0  0  0  0  0  0  0  0  0  0
  1  9  1  6
  1  8  1  0
  1  3  1  0
  2  7  2  0
  3  4  2  0
  3  2  1  0
  4  5  1  0
  5  6  2  0
  7  6  1  0
 10  9  1  0
 10 15  1  0
 11 12  1  0
 11 10  1  0
 12 13  1  0
 13 14  1  0
 14 15  1  0
 16 15  1  0
 17  1  1  0
 18 23  1  0
 18 17  1  0
 19 20  1  0
 19 18  1  0
 20 21  1  0
 21 22  1  0
 23 22  1  0
  2 24  1  0
  4 25  1  0
  6 26  1  0
  8 27  1  0
  8 28  1  0
  8 29  1  0
  9 30  1  0
  9 31  1  0
 10 32  1  6
 11 33  1  0
 11 34  1  0
 12 35  1  0
 12 36  1  0
 13 37  1  0
 13 38  1  0
 14 39  1  0
 14 40  1  0
 15 41  1  1
 16 42  1  0
 17 43  1  0
 17 44  1  0
 19 45  1  0
 19 46  1  0
 20 47  1  0
 20 48  1  0
 22 49  1  0
 22 50  1  0
 23 51  1  0
 23 52  1  0
M  ISO  8  24  14  25  14  26  14  27   8  28   8  29   8  30   8  31   8
M  ISO  8  32  13  33  13  34  13  35  13  36  13  37  13  38  13  39  13
M  ISO  8  40  13  41  13  42  11  43   8  44   8  45  13  46  13  47  13
M  ISO  5  48  13  49  13  50  13  51  13  52  13
M  END
>  <minimizedAffinity>  (1) 
-5.50727463

>  <minimizedRMSD>  (1) 
1.24074292

$$$$
