
     RDKit          3D

 45 47  0  0  1  0  0  0  0  0999 V2000
   45.0620   34.2010   41.8290 C   0  0  1  0  0  0  0  0  0  0  0  0
   45.4720   33.4270   44.1290 C   0  0  0  0  0  0  0  0  0  0  0  0
   44.9900   34.4150   43.2560 C   0  0  0  0  0  0  0  0  0  0  0  0
   44.4870   35.5170   43.8630 C   0  0  0  0  0  0  0  0  0  0  0  0
   44.4610   35.6350   45.2150 N   0  0  0  0  0  0  0  0  0  0  0  0
   44.9310   34.6660   46.0080 C   0  0  0  0  0  0  0  0  0  0  0  0
   45.4420   33.5500   45.4570 N   0  0  0  0  0  0  0  0  0  0  0  0
   44.9170   32.7390   41.5190 C   0  0  0  0  0  0  0  0  0  0  0  0
   44.1550   34.9950   40.9960 C   0  0  0  0  0  0  0  0  0  0  0  0
   42.9420   34.3380   40.4060 C   0  0  2  0  0  0  0  0  0  0  0  0
   42.4790   35.0650   39.1670 C   0  0  0  0  0  0  0  0  0  0  0  0
   40.9630   34.9940   39.0140 C   0  0  0  0  0  0  0  0  0  0  0  0
   40.2270   35.7210   40.0910 C   0  0  0  0  0  0  0  0  0  0  0  0
   41.1990   35.8450   41.2710 C   0  0  0  0  0  0  0  0  0  0  0  0
   41.8050   34.4710   41.3900 C   0  0  1  0  0  0  0  0  0  0  0  0
   40.6250   33.1360   41.2290 S   0  0  0  0  0  0  0  0  0  0  0  0
   46.5220   34.4580   41.3950 C   0  0  0  0  0  0  0  0  0  0  0  0
   46.8440   34.0390   40.0870 N   0  0  0  0  0  0  0  0  0  0  0  0
   48.0230   34.3320   39.4620 C   0  0  0  0  0  0  0  0  0  0  0  0
   48.0560   33.8070   38.2240 N   0  0  0  0  0  0  0  0  0  0  0  0
   46.8790   33.1730   38.0690 C   0  0  0  0  0  0  0  0  0  0  0  0
   46.1720   33.3200   39.1820 N   0  0  0  0  0  0  0  0  0  0  0  0
   45.8945   32.5076   43.6975 H   0  0  0  0  0  0  0  0  0  0  0  0
   44.0901   36.3359   43.2451 H   0  0  0  0  0  0  0  0  0  0  0  0
   44.9000   34.7805   47.1016 H   0  0  0  0  0  0  0  0  0  0  0  0
   44.8605   32.1689   42.4580 H   0  0  0  0  0  0  0  0  0  0  0  0
   43.9984   32.5772   40.9359 H   0  0  0  0  0  0  0  0  0  0  0  0
   45.7859   32.3999   40.9359 H   0  0  0  0  0  0  0  0  0  0  0  0
   43.7987   35.8314   41.6152 H   0  0  0  0  0  0  0  0  0  0  0  0
   44.7651   35.2557   40.1186 H   0  0  0  0  0  0  0  0  0  0  0  0
   43.2024   33.2948   40.1739 H   0  0  0  0  0  0  0  0  0  0  0  0
   42.7827   36.1200   39.2365 H   0  0  0  0  0  0  0  0  0  0  0  0
   42.9383   34.5835   38.2911 H   0  0  0  0  0  0  0  0  0  0  0  0
   40.6887   35.4351   38.0444 H   0  0  0  0  0  0  0  0  0  0  0  0
   40.6775   33.9339   39.0821 H   0  0  0  0  0  0  0  0  0  0  0  0
   39.9260   36.7189   39.7394 H   0  0  0  0  0  0  0  0  0  0  0  0
   39.3124   35.1836   40.3821 H   0  0  0  0  0  0  0  0  0  0  0  0
   41.9738   36.5973   41.0619 H   0  0  0  0  0  0  0  0  0  0  0  0
   40.7017   36.1700   42.1968 H   0  0  0  0  0  0  0  0  0  0  0  0
   42.1906   34.3738   42.4156 H   0  0  0  0  0  0  0  0  0  0  0  0
   40.2468   32.7081   42.4743 H   0  0  0  0  0  0  0  0  0  0  0  0
   46.7112   35.5396   41.4618 H   0  0  0  0  0  0  0  0  0  0  0  0
   47.1504   33.8586   42.0701 H   0  0  0  0  0  0  0  0  0  0  0  0
   48.8372   34.9193   39.9115 H   0  0  0  0  0  0  0  0  0  0  0  0
   46.5574   32.6253   37.1709 H   0  0  0  0  0  0  0  0  0  0  0  0
  1  9  1  6
  1  3  1  0
  2  7  2  0
  3  4  2  0
  3  2  1  0
  4  5  1  0
  5  6  2  0
  7  6  1  0
  8  1  1  0
 10  9  1  0
 10 15  1  0
 11 10  1  0
 12 11  1  0
 12 13  1  0
 13 14  1  0
 14 15  1  0
 16 15  1  0
 17  1  1  0
 18 17  1  0
 19 18  1  0
 20 19  2  0
 21 20  1  0
 21 22  2  0
 22 18  1  0
  2 23  1  0
  4 24  1  0
  6 25  1  0
  8 26  1  0
  8 27  1  0
  8 28  1  0
  9 29  1  0
  9 30  1  0
 10 31  1  6
 11 32  1  0
 11 33  1  0
 12 34  1  0
 12 35  1  0
 13 36  1  0
 13 37  1  0
 14 38  1  0
 14 39  1  0
 15 40  1  1
 16 41  1  0
 17 42  1  0
 17 43  1  0
 19 44  1  0
 21 45  1  0
M  ISO  8  23  14  24  14  25  14  26   8  27   8  28   8  29   8  30   8
M  ISO  8  31  13  32  13  33  13  34  13  35  13  36  13  37  13  38  13
M  ISO  7  39  13  40  13  41  11  42   8  43   8  44  14  45  14
M  END
>  <minimizedAffinity>  (1) 
-5.47538996

>  <minimizedRMSD>  (1) 
0.41548875

$$$$
