
     RDKit          3D

 46 48  0  0  1  0  0  0  0  0999 V2000
   45.0940   34.2260   41.8310 C   0  0  1  0  0  0  0  0  0  0  0  0
   45.4730   33.4360   44.1530 C   0  0  0  0  0  0  0  0  0  0  0  0
   45.0060   34.4270   43.2720 C   0  0  0  0  0  0  0  0  0  0  0  0
   44.4980   35.5320   43.8680 C   0  0  0  0  0  0  0  0  0  0  0  0
   44.4540   35.6470   45.2170 N   0  0  0  0  0  0  0  0  0  0  0  0
   44.9100   34.6790   46.0190 C   0  0  0  0  0  0  0  0  0  0  0  0
   45.4190   33.5730   45.4820 N   0  0  0  0  0  0  0  0  0  0  0  0
   44.9590   32.7380   41.5420 C   0  0  0  0  0  0  0  0  0  0  0  0
   44.1940   34.9940   41.0030 C   0  0  0  0  0  0  0  0  0  0  0  0
   42.9790   34.3370   40.4180 C   0  0  2  0  0  0  0  0  0  0  0  0
   42.5120   35.0620   39.1800 C   0  0  0  0  0  0  0  0  0  0  0  0
   40.9960   35.0010   39.0360 C   0  0  0  0  0  0  0  0  0  0  0  0
   40.2720   35.7250   40.1090 C   0  0  0  0  0  0  0  0  0  0  0  0
   41.2330   35.8310   41.2980 C   0  0  0  0  0  0  0  0  0  0  0  0
   41.8520   34.4800   41.3990 C   0  0  1  0  0  0  0  0  0  0  0  0
   40.6650   33.1390   41.2490 S   0  0  0  0  0  0  0  0  0  0  0  0
   46.5630   34.4510   41.4240 C   0  0  0  0  0  0  0  0  0  0  0  0
   46.8910   34.0390   40.1090 N   0  0  0  0  0  0  0  0  0  0  0  0
   47.9880   34.3480   39.3720 C   0  0  0  0  0  0  0  0  0  0  0  0
   47.9640   33.7820   38.1150 C   0  0  0  0  0  0  0  0  0  0  0  0
   46.8110   33.0910   38.0560 N   0  0  0  0  0  0  0  0  0  0  0  0
   46.2070   33.2620   39.2400 C   0  0  0  0  0  0  0  0  0  0  0  0
   45.8990   32.5128   43.7331 H   0  0  0  0  0  0  0  0  0  0  0  0
   44.1135   36.3524   43.2442 H   0  0  0  0  0  0  0  0  0  0  0  0
   44.8648   34.7958   47.1118 H   0  0  0  0  0  0  0  0  0  0  0  0
   44.9087   32.1833   42.4906 H   0  0  0  0  0  0  0  0  0  0  0  0
   44.0409   32.5587   40.9633 H   0  0  0  0  0  0  0  0  0  0  0  0
   45.8298   32.3964   40.9633 H   0  0  0  0  0  0  0  0  0  0  0  0
   43.8380   35.8360   41.6147 H   0  0  0  0  0  0  0  0  0  0  0  0
   44.8033   35.2379   40.1203 H   0  0  0  0  0  0  0  0  0  0  0  0
   43.2369   33.2926   40.1883 H   0  0  0  0  0  0  0  0  0  0  0  0
   42.8230   36.1152   39.2438 H   0  0  0  0  0  0  0  0  0  0  0  0
   42.9621   34.5734   38.3032 H   0  0  0  0  0  0  0  0  0  0  0  0
   40.7197   35.4450   38.0683 H   0  0  0  0  0  0  0  0  0  0  0  0
   40.7058   33.9423   39.1062 H   0  0  0  0  0  0  0  0  0  0  0  0
   39.9864   36.7291   39.7622 H   0  0  0  0  0  0  0  0  0  0  0  0
   39.3513   35.1936   40.3918 H   0  0  0  0  0  0  0  0  0  0  0  0
   41.9999   36.5970   41.1109 H   0  0  0  0  0  0  0  0  0  0  0  0
   40.7202   36.1264   42.2252 H   0  0  0  0  0  0  0  0  0  0  0  0
   42.2629   34.3971   42.4160 H   0  0  0  0  0  0  0  0  0  0  0  0
   40.2919   32.7175   42.4980 H   0  0  0  0  0  0  0  0  0  0  0  0
   46.7794   35.5262   41.5084 H   0  0  0  0  0  0  0  0  0  0  0  0
   47.1675   33.8287   42.1003 H   0  0  0  0  0  0  0  0  0  0  0  0
   48.8086   34.9823   39.7384 H   0  0  0  0  0  0  0  0  0  0  0  0
   48.7260   33.8755   37.3273 H   0  0  0  0  0  0  0  0  0  0  0  0
   45.2354   32.8078   39.4843 H   0  0  0  0  0  0  0  0  0  0  0  0
  1  9  1  6
  1  3  1  0
  2  7  2  0
  3  4  2  0
  3  2  1  0
  4  5  1  0
  5  6  2  0
  7  6  1  0
  8  1  1  0
 10  9  1  0
 10 15  1  0
 11 10  1  0
 12 11  1  0
 12 13  1  0
 13 14  1  0
 14 15  1  0
 16 15  1  0
 17  1  1  0
 18 17  1  0
 19 18  1  0
 20 19  2  0
 21 20  1  0
 21 22  2  0
 22 18  1  0
  2 23  1  0
  4 24  1  0
  6 25  1  0
  8 26  1  0
  8 27  1  0
  8 28  1  0
  9 29  1  0
  9 30  1  0
 10 31  1  6
 11 32  1  0
 11 33  1  0
 12 34  1  0
 12 35  1  0
 13 36  1  0
 13 37  1  0
 14 38  1  0
 14 39  1  0
 15 40  1  1
 16 41  1  0
 17 42  1  0
 17 43  1  0
 19 44  1  0
 20 45  1  0
 22 46  1  0
M  ISO  8  23  14  24  14  25  14  26   8  27   8  28   8  29   8  30   8
M  ISO  8  31  13  32  13  33  13  34  13  35  13  36  13  37  13  38  13
M  ISO  8  39  13  40  13  41  11  42   8  43   8  44  14  45  14  46  14
M  END
>  <minimizedAffinity>  (1) 
-5.45377827

>  <minimizedRMSD>  (1) 
0.446886063

$$$$
