
     RDKit          3D

 41 42  0  0  1  0  0  0  0  0999 V2000
   43.8740   34.9880   40.7500 C   0  0  0  0  0  0  0  0  0  0  0  0
   42.5910   34.3460   40.2700 C   0  0  2  0  0  0  0  0  0  0  0  0
   42.0280   35.0720   39.0750 C   0  0  0  0  0  0  0  0  0  0  0  0
   40.5020   35.0260   39.0690 C   0  0  0  0  0  0  0  0  0  0  0  0
   39.8800   35.7600   40.2080 C   0  0  0  0  0  0  0  0  0  0  0  0
   40.9630   35.8740   41.2890 C   0  0  0  0  0  0  0  0  0  0  0  0
   41.5560   34.4980   41.3490 C   0  0  1  0  0  0  0  0  0  0  0  0
   40.3390   33.1790   41.3110 S   0  0  0  0  0  0  0  0  0  0  0  0
   44.8030   34.1930   41.5280 C   0  0  1  0  0  0  0  0  0  0  0  0
   45.3480   33.4260   43.8090 C   0  0  0  0  0  0  0  0  0  0  0  0
   44.8560   34.4200   42.9500 C   0  0  0  0  0  0  0  0  0  0  0  0
   44.4520   35.5610   43.5600 C   0  0  0  0  0  0  0  0  0  0  0  0
   44.5190   35.7270   44.9010 N   0  0  0  0  0  0  0  0  0  0  0  0
   45.0040   34.7340   45.6880 C   0  0  0  0  0  0  0  0  0  0  0  0
   45.4170   33.5850   45.1320 N   0  0  0  0  0  0  0  0  0  0  0  0
   44.6140   32.7100   41.2560 C   0  0  0  0  0  0  0  0  0  0  0  0
   46.2380   34.3890   40.9620 C   0  0  0  0  0  0  0  0  0  0  0  0
   46.4020   33.9440   39.6540 N   0  0  0  0  0  0  0  0  0  0  0  0
   44.4148   35.3365   39.8578 H   0  0  0  0  0  0  0  0  0  0  0  0
   43.5367   35.7656   41.4511 H   0  0  0  0  0  0  0  0  0  0  0  0
   42.8137   33.2987   40.0179 H   0  0  0  0  0  0  0  0  0  0  0  0
   42.3551   36.1218   39.1062 H   0  0  0  0  0  0  0  0  0  0  0  0
   42.3947   34.5781   38.1631 H   0  0  0  0  0  0  0  0  0  0  0  0
   40.1440   35.4729   38.1298 H   0  0  0  0  0  0  0  0  0  0  0  0
   40.2099   33.9700   39.1667 H   0  0  0  0  0  0  0  0  0  0  0  0
   39.5569   36.7608   39.8854 H   0  0  0  0  0  0  0  0  0  0  0  0
   38.9915   35.2331   40.5860 H   0  0  0  0  0  0  0  0  0  0  0  0
   41.7235   36.6162   41.0049 H   0  0  0  0  0  0  0  0  0  0  0  0
   40.5629   36.2070   42.2580 H   0  0  0  0  0  0  0  0  0  0  0  0
   42.0409   34.3951   42.3310 H   0  0  0  0  0  0  0  0  0  0  0  0
   40.0109   32.8234   42.5927 H   0  0  0  0  0  0  0  0  0  0  0  0
   45.6912   32.4759   43.3737 H   0  0  0  0  0  0  0  0  0  0  0  0
   44.0557   36.3809   42.9430 H   0  0  0  0  0  0  0  0  0  0  0  0
   45.0584   34.8705   46.7781 H   0  0  0  0  0  0  0  0  0  0  0  0
   44.5449   32.1680   42.2107 H   0  0  0  0  0  0  0  0  0  0  0  0
   43.6892   32.5578   40.6802 H   0  0  0  0  0  0  0  0  0  0  0  0
   45.4711   32.3307   40.6802 H   0  0  0  0  0  0  0  0  0  0  0  0
   46.4775   35.4621   40.9936 H   0  0  0  0  0  0  0  0  0  0  0  0
   46.9096   33.7832   41.5880 H   0  0  0  0  0  0  0  0  0  0  0  0
   46.7582   32.9776   39.6622 H   0  0  0  0  0  0  0  0  0  0  0  0
   45.4955   33.9717   39.1657 H   0  0  0  0  0  0  0  0  0  0  0  0
  2  1  1  0
  2  7  1  0
  3  2  1  0
  4  3  1  0
  4  5  1  0
  5  6  1  0
  6  7  1  0
  8  7  1  0
  9  1  1  6
  9 11  1  0
 10 15  2  0
 11 12  2  0
 11 10  1  0
 12 13  1  0
 13 14  2  0
 15 14  1  0
 16  9  1  0
 17  9  1  0
 18 17  1  0
  1 19  1  0
  1 20  1  0
  2 21  1  6
  3 22  1  0
  3 23  1  0
  4 24  1  0
  4 25  1  0
  5 26  1  0
  5 27  1  0
  6 28  1  0
  6 29  1  0
  7 30  1  1
  8 31  1  0
 10 32  1  0
 12 33  1  0
 14 34  1  0
 16 35  1  0
 16 36  1  0
 16 37  1  0
 17 38  1  0
 17 39  1  0
 18 40  1  0
 18 41  1  0
M  ISO  8  19   8  20   8  21  13  22  13  23  13  24  13  25  13  26  13
M  ISO  8  27  13  28  13  29  13  30  13  31  11  32  14  33  14  34  14
M  ISO  7  35   8  36   8  37   8  38   8  39   8  40   5  41   5
M  END
>  <minimizedAffinity>  (1) 
-5.23052597

>  <minimizedRMSD>  (1) 
0.551174462

$$$$
