
     RDKit          3D

 54 57  0  0  1  0  0  0  0  0999 V2000
   44.8260   34.2670   41.7350 C   0  0  1  0  0  0  0  0  0  0  0  0
   45.3350   33.4150   43.9900 C   0  0  0  0  0  0  0  0  0  0  0  0
   44.8620   34.4260   43.1520 C   0  0  0  0  0  0  0  0  0  0  0  0
   44.4530   35.5330   43.7920 C   0  0  0  0  0  0  0  0  0  0  0  0
   44.4850   35.6830   45.1360 N   0  0  0  0  0  0  0  0  0  0  0  0
   44.9590   34.6590   45.9000 C   0  0  0  0  0  0  0  0  0  0  0  0
   45.3830   33.5230   45.3150 N   0  0  0  0  0  0  0  0  0  0  0  0
   44.6590   32.7860   41.3810 C   0  0  0  0  0  0  0  0  0  0  0  0
   43.9260   35.0640   40.9370 C   0  0  0  0  0  0  0  0  0  0  0  0
   42.6620   34.4150   40.3830 C   0  0  2  0  0  0  0  0  0  0  0  0
   42.1710   35.2030   39.1810 C   0  0  0  0  0  0  0  0  0  0  0  0
   40.6480   35.1260   39.0750 C   0  0  0  0  0  0  0  0  0  0  0  0
   39.9420   35.7750   40.1970 C   0  0  0  0  0  0  0  0  0  0  0  0
   40.9580   35.8760   41.3520 C   0  0  0  0  0  0  0  0  0  0  0  0
   41.5750   34.5250   41.4040 C   0  0  1  0  0  0  0  0  0  0  0  0
   40.3830   33.1880   41.2410 S   0  0  0  0  0  0  0  0  0  0  0  0
   46.2770   34.4620   41.2010 C   0  0  0  0  0  0  0  0  0  0  0  0
   47.0150   35.1690   42.1670 O   0  0  0  0  0  0  0  0  0  0  0  0
   48.3730   34.8630   42.2440 C   0  0  0  0  0  0  0  0  0  0  0  0
   49.4940   35.6720   42.2960 C   0  0  0  0  0  0  0  0  0  0  0  0
   50.6040   34.8990   42.3650 N   0  0  0  0  0  0  0  0  0  0  0  0
   50.2180   33.5960   42.3570 C   0  0  0  0  0  0  0  0  0  0  0  0
   50.9780   32.4460   42.4100 C   0  0  0  0  0  0  0  0  0  0  0  0
   50.3710   31.1860   42.3910 C   0  0  0  0  0  0  0  0  0  0  0  0
   48.9920   31.2140   42.3150 C   0  0  0  0  0  0  0  0  0  0  0  0
   48.1940   32.3370   42.2600 C   0  0  0  0  0  0  0  0  0  0  0  0
   48.8390   33.5620   42.2830 C   0  0  0  0  0  0  0  0  0  0  0  0
   45.6867   32.4795   43.5305 H   0  0  0  0  0  0  0  0  0  0  0  0
   44.0689   36.3679   43.1874 H   0  0  0  0  0  0  0  0  0  0  0  0
   44.9952   34.7606   46.9947 H   0  0  0  0  0  0  0  0  0  0  0  0
   44.5922   32.1934   42.3053 H   0  0  0  0  0  0  0  0  0  0  0  0
   43.7400   32.6512   40.7918 H   0  0  0  0  0  0  0  0  0  0  0  0
   45.5249   32.4499   40.7918 H   0  0  0  0  0  0  0  0  0  0  0  0
   43.6069   35.9124   41.5602 H   0  0  0  0  0  0  0  0  0  0  0  0
   44.5134   35.3091   40.0398 H   0  0  0  0  0  0  0  0  0  0  0  0
   42.8891   33.3709   40.1218 H   0  0  0  0  0  0  0  0  0  0  0  0
   42.4734   36.2550   39.2899 H   0  0  0  0  0  0  0  0  0  0  0  0
   42.6128   34.7734   38.2698 H   0  0  0  0  0  0  0  0  0  0  0  0
   40.3396   35.6168   38.1401 H   0  0  0  0  0  0  0  0  0  0  0  0
   40.3774   34.0600   39.0982 H   0  0  0  0  0  0  0  0  0  0  0  0
   39.6006   36.7782   39.9021 H   0  0  0  0  0  0  0  0  0  0  0  0
   39.0547   35.1979   40.4964 H   0  0  0  0  0  0  0  0  0  0  0  0
   41.7160   36.6446   41.1405 H   0  0  0  0  0  0  0  0  0  0  0  0
   40.4903   36.1658   42.3045 H   0  0  0  0  0  0  0  0  0  0  0  0
   42.0107   34.4106   42.4075 H   0  0  0  0  0  0  0  0  0  0  0  0
   40.0025   32.7612   42.4859 H   0  0  0  0  0  0  0  0  0  0  0  0
   46.7421   33.4812   41.0229 H   0  0  0  0  0  0  0  0  0  0  0  0
   46.2590   35.0226   40.2547 H   0  0  0  0  0  0  0  0  0  0  0  0
   49.4852   36.7719   42.2833 H   0  0  0  0  0  0  0  0  0  0  0  0
   51.5745   35.2403   42.4150 H   0  0  0  0  0  0  0  0  0  0  0  0
   52.0739   32.5207   42.4679 H   0  0  0  0  0  0  0  0  0  0  0  0
   50.9452   30.2487   42.4332 H   0  0  0  0  0  0  0  0  0  0  0  0
   48.4783   30.2415   42.2965 H   0  0  0  0  0  0  0  0  0  0  0  0
   47.0981   32.2633   42.2007 H   0  0  0  0  0  0  0  0  0  0  0  0
  1  9  1  6
  1  3  1  0
  2  7  2  0
  3  4  2  0
  3  2  1  0
  4  5  1  0
  5  6  2  0
  7  6  1  0
  8  1  1  0
 10  9  1  0
 10 15  1  0
 11 10  1  0
 12 11  1  0
 12 13  1  0
 13 14  1  0
 14 15  1  0
 16 15  1  0
 17  1  1  0
 17 18  1  0
 18 19  1  0
 19 27  1  0
 19 20  2  0
 20 21  1  0
 22 21  1  0
 22 23  2  0
 24 23  1  0
 25 24  2  0
 26 27  2  0
 26 25  1  0
 27 22  1  0
  2 28  1  0
  4 29  1  0
  6 30  1  0
  8 31  1  0
  8 32  1  0
  8 33  1  0
  9 34  1  0
  9 35  1  0
 10 36  1  6
 11 37  1  0
 11 38  1  0
 12 39  1  0
 12 40  1  0
 13 41  1  0
 13 42  1  0
 14 43  1  0
 14 44  1  0
 15 45  1  1
 16 46  1  0
 17 47  1  0
 17 48  1  0
 20 49  1  0
 21 50  1  0
 23 51  1  0
 24 52  1  0
 25 53  1  0
 26 54  1  0
M  ISO  8  28  14  29  14  30  14  31   8  32   8  33   8  34   8  35   8
M  ISO  8  36  13  37  13  38  13  39  13  40  13  41  13  42  13  43  13
M  ISO  8  44  13  45  13  46  11  47   8  48   8  49  14  50   9  51  14
M  ISO  3  52  14  53  14  54  14
M  END
>  <minimizedAffinity>  (1) 
-6.76094913

>  <minimizedRMSD>  (1) 
1.18894947

$$$$
