
     RDKit          3D

 54 57  0  0  1  0  0  0  0  0999 V2000
   44.4280   33.5080   41.5110 C   0  0  1  0  0  0  0  0  0  0  0  0
   45.2610   33.0850   43.7940 C   0  0  0  0  0  0  0  0  0  0  0  0
   44.6900   33.9380   42.8480 C   0  0  0  0  0  0  0  0  0  0  0  0
   44.4160   35.1700   43.3050 C   0  0  0  0  0  0  0  0  0  0  0  0
   44.6620   35.5760   44.5710 N   0  0  0  0  0  0  0  0  0  0  0  0
   45.2210   34.6960   45.4480 C   0  0  0  0  0  0  0  0  0  0  0  0
   45.5190   33.4460   45.0490 N   0  0  0  0  0  0  0  0  0  0  0  0
   43.6800   32.1720   41.5370 C   0  0  0  0  0  0  0  0  0  0  0  0
   43.8030   34.4030   40.5710 C   0  0  0  0  0  0  0  0  0  0  0  0
   42.3670   34.1310   40.1420 C   0  0  2  0  0  0  0  0  0  0  0  0
   41.9650   35.1220   39.0650 C   0  0  0  0  0  0  0  0  0  0  0  0
   40.4760   35.4360   39.1460 C   0  0  0  0  0  0  0  0  0  0  0  0
   40.0740   36.1240   40.3840 C   0  0  0  0  0  0  0  0  0  0  0  0
   41.1920   35.8650   41.4100 C   0  0  0  0  0  0  0  0  0  0  0  0
   41.4560   34.4060   41.2950 C   0  0  1  0  0  0  0  0  0  0  0  0
   39.9540   33.4260   41.1970 S   0  0  0  0  0  0  0  0  0  0  0  0
   45.7750   33.0020   40.9110 C   0  0  0  0  0  0  0  0  0  0  0  0
   46.5740   34.1070   40.6160 O   0  0  0  0  0  0  0  0  0  0  0  0
   47.7990   34.2900   41.2440 C   0  0  0  0  0  0  0  0  0  0  0  0
   48.1690   35.3800   41.9540 N   0  0  0  0  0  0  0  0  0  0  0  0
   49.3960   35.4450   42.5250 C   0  0  0  0  0  0  0  0  0  0  0  0
   50.3170   34.4570   42.4290 N   0  0  0  0  0  0  0  0  0  0  0  0
   50.0100   33.3460   41.7360 C   0  0  0  0  0  0  0  0  0  0  0  0
   50.9120   32.3110   41.6100 C   0  0  0  0  0  0  0  0  0  0  0  0
   50.5760   31.1660   40.8860 C   0  0  0  0  0  0  0  0  0  0  0  0
   49.3340   31.0920   40.3050 C   0  0  0  0  0  0  0  0  0  0  0  0
   48.4510   32.1420   40.4480 C   0  0  0  0  0  0  0  0  0  0  0  0
   48.7600   33.3020   41.1670 C   0  0  0  0  0  0  0  0  0  0  0  0
   45.5113   32.0592   43.4857 H   0  0  0  0  0  0  0  0  0  0  0  0
   43.9647   35.8919   42.6084 H   0  0  0  0  0  0  0  0  0  0  0  0
   45.4287   35.0074   46.4824 H   0  0  0  0  0  0  0  0  0  0  0  0
   43.5095   31.8675   42.5802 H   0  0  0  0  0  0  0  0  0  0  0  0
   42.7129   32.2832   41.0248 H   0  0  0  0  0  0  0  0  0  0  0  0
   44.2803   31.4057   41.0248 H   0  0  0  0  0  0  0  0  0  0  0  0
   43.8217   35.4073   41.0194 H   0  0  0  0  0  0  0  0  0  0  0  0
   44.3862   34.2689   39.6480 H   0  0  0  0  0  0  0  0  0  0  0  0
   42.2968   33.0911   39.7904 H   0  0  0  0  0  0  0  0  0  0  0  0
   42.1896   34.6922   38.0777 H   0  0  0  0  0  0  0  0  0  0  0  0
   42.5301   36.0537   39.2150 H   0  0  0  0  0  0  0  0  0  0  0  0
   40.2112   36.0774   38.2925 H   0  0  0  0  0  0  0  0  0  0  0  0
   39.9469   34.4717   39.1325 H   0  0  0  0  0  0  0  0  0  0  0  0
   39.9680   37.2036   40.2017 H   0  0  0  0  0  0  0  0  0  0  0  0
   39.1050   35.7528   40.7490 H   0  0  0  0  0  0  0  0  0  0  0  0
   42.0925   36.4459   41.1618 H   0  0  0  0  0  0  0  0  0  0  0  0
   40.9081   36.1645   42.4297 H   0  0  0  0  0  0  0  0  0  0  0  0
   41.9574   34.0942   42.2231 H   0  0  0  0  0  0  0  0  0  0  0  0
   39.5131   33.1383   42.4618 H   0  0  0  0  0  0  0  0  0  0  0  0
   46.2875   32.3586   41.6413 H   0  0  0  0  0  0  0  0  0  0  0  0
   45.5843   32.4213   39.9964 H   0  0  0  0  0  0  0  0  0  0  0  0
   49.6577   36.3477   43.0965 H   0  0  0  0  0  0  0  0  0  0  0  0
   51.9022   32.3880   42.0828 H   0  0  0  0  0  0  0  0  0  0  0  0
   51.2929   30.3381   40.7827 H   0  0  0  0  0  0  0  0  0  0  0  0
   49.0449   30.2006   39.7289 H   0  0  0  0  0  0  0  0  0  0  0  0
   47.4604   32.0640   39.9761 H   0  0  0  0  0  0  0  0  0  0  0  0
  1  9  1  6
  1  8  1  0
  1  3  1  0
  2  7  2  0
  3  4  2  0
  3  2  1  0
  4  5  1  0
  5  6  2  0
  7  6  1  0
 10  9  1  0
 10 15  1  0
 11 12  1  0
 11 10  1  0
 12 13  1  0
 13 14  1  0
 15 14  1  0
 16 15  1  0
 17  1  1  0
 18 17  1  0
 18 19  1  0
 19 20  2  0
 20 21  1  0
 22 21  2  0
 23 22  1  0
 24 23  2  0
 25 24  1  0
 26 27  1  0
 26 25  2  0
 27 28  2  0
 28 19  1  0
 28 23  1  0
  2 29  1  0
  4 30  1  0
  6 31  1  0
  8 32  1  0
  8 33  1  0
  8 34  1  0
  9 35  1  0
  9 36  1  0
 10 37  1  6
 11 38  1  0
 11 39  1  0
 12 40  1  0
 12 41  1  0
 13 42  1  0
 13 43  1  0
 14 44  1  0
 14 45  1  0
 15 46  1  1
 16 47  1  0
 17 48  1  0
 17 49  1  0
 21 50  1  0
 24 51  1  0
 25 52  1  0
 26 53  1  0
 27 54  1  0
M  ISO  8  29  14  30  14  31  14  32   8  33   8  34   8  35   8  36   8
M  ISO  8  37  13  38  13  39  13  40  13  41  13  42  13  43  13  44  13
M  ISO  8  45  13  46  13  47  11  48   8  49   8  50  14  51  14  52  14
M  ISO  2  53  14  54  14
M  END
>  <minimizedAffinity>  (1) 
-6.23444557

>  <minimizedRMSD>  (1) 
1.25610685

$$$$
