
     RDKit          3D

 47 49  0  0  1  0  0  0  0  0999 V2000
   44.5460   33.7450   41.5950 C   0  0  1  0  0  0  0  0  0  0  0  0
   45.1620   33.3660   43.9530 C   0  0  0  0  0  0  0  0  0  0  0  0
   44.6710   34.1960   42.9460 C   0  0  0  0  0  0  0  0  0  0  0  0
   44.3330   35.4300   43.3560 C   0  0  0  0  0  0  0  0  0  0  0  0
   44.4470   35.8560   44.6330 N   0  0  0  0  0  0  0  0  0  0  0  0
   44.9340   34.9950   45.5740 C   0  0  0  0  0  0  0  0  0  0  0  0
   45.2880   33.7520   45.2180 N   0  0  0  0  0  0  0  0  0  0  0  0
   43.9900   32.3190   41.5770 C   0  0  0  0  0  0  0  0  0  0  0  0
   43.8530   34.5540   40.6230 C   0  0  0  0  0  0  0  0  0  0  0  0
   42.4490   34.1460   40.1890 C   0  0  2  0  0  0  0  0  0  0  0  0
   42.0040   35.0080   39.0210 C   0  0  0  0  0  0  0  0  0  0  0  0
   40.4890   35.2090   39.0470 C   0  0  0  0  0  0  0  0  0  0  0  0
   40.0150   35.9800   40.2130 C   0  0  0  0  0  0  0  0  0  0  0  0
   41.1280   35.8970   41.2730 C   0  0  0  0  0  0  0  0  0  0  0  0
   41.4930   34.4560   41.2980 C   0  0  1  0  0  0  0  0  0  0  0  0
   40.0670   33.3600   41.2630 S   0  0  0  0  0  0  0  0  0  0  0  0
   45.9790   33.4420   41.0600 C   0  0  0  0  0  0  0  0  0  0  0  0
   46.7030   34.6470   41.0230 O   0  0  0  0  0  0  0  0  0  0  0  0
   47.8850   34.7530   41.7520 C   0  0  0  0  0  0  0  0  0  0  0  0
   48.8590   35.6650   41.3370 C   0  0  0  0  0  0  0  0  0  0  0  0
   49.8790   35.5230   42.2540 C   0  0  0  0  0  0  0  0  0  0  0  0
   49.5520   34.5890   43.1630 N   0  0  0  0  0  0  0  0  0  0  0  0
   48.3510   34.1240   42.8610 N   0  0  0  0  0  0  0  0  0  0  0  0
   45.4597   32.3410   43.6870 H   0  0  0  0  0  0  0  0  0  0  0  0
   43.9405   36.1347   42.6081 H   0  0  0  0  0  0  0  0  0  0  0  0
   45.0355   35.3199   46.6200 H   0  0  0  0  0  0  0  0  0  0  0  0
   43.8524   31.9660   42.6097 H   0  0  0  0  0  0  0  0  0  0  0  0
   43.0222   32.3094   41.0542 H   0  0  0  0  0  0  0  0  0  0  0  0
   44.6958   31.6568   41.0542 H   0  0  0  0  0  0  0  0  0  0  0  0
   43.7792   35.5686   41.0416 H   0  0  0  0  0  0  0  0  0  0  0  0
   44.4549   34.4426   39.7091 H   0  0  0  0  0  0  0  0  0  0  0  0
   42.4606   33.0779   39.9264 H   0  0  0  0  0  0  0  0  0  0  0  0
   42.2871   34.5149   38.0793 H   0  0  0  0  0  0  0  0  0  0  0  0
   42.4933   35.9901   39.0985 H   0  0  0  0  0  0  0  0  0  0  0  0
   40.1935   35.7444   38.1327 H   0  0  0  0  0  0  0  0  0  0  0  0
   40.0323   34.2105   39.1133 H   0  0  0  0  0  0  0  0  0  0  0  0
   39.8378   37.0279   39.9292 H   0  0  0  0  0  0  0  0  0  0  0  0
   39.0673   35.5761   40.5986 H   0  0  0  0  0  0  0  0  0  0  0  0
   41.9911   36.5142   40.9830 H   0  0  0  0  0  0  0  0  0  0  0  0
   40.8052   36.2694   42.2564 H   0  0  0  0  0  0  0  0  0  0  0  0
   41.9883   34.2665   42.2617 H   0  0  0  0  0  0  0  0  0  0  0  0
   39.6851   33.0665   42.5455 H   0  0  0  0  0  0  0  0  0  0  0  0
   46.4815   32.7270   41.7281 H   0  0  0  0  0  0  0  0  0  0  0  0
   45.9216   33.0045   40.0524 H   0  0  0  0  0  0  0  0  0  0  0  0
   48.8206   36.3441   40.4725 H   0  0  0  0  0  0  0  0  0  0  0  0
   50.8212   36.0905   42.2430 H   0  0  0  0  0  0  0  0  0  0  0  0
   50.1350   34.2876   43.9568 H   0  0  0  0  0  0  0  0  0  0  0  0
  1  9  1  6
  1  3  1  0
  2  7  2  0
  3  4  2  0
  3  2  1  0
  4  5  1  0
  5  6  2  0
  7  6  1  0
  8  1  1  0
 10  9  1  0
 10 15  1  0
 11 12  1  0
 11 10  1  0
 12 13  1  0
 13 14  1  0
 14 15  1  0
 16 15  1  0
 17  1  1  0
 18 17  1  0
 18 19  1  0
 19 23  2  0
 20 19  1  0
 20 21  2  0
 21 22  1  0
 23 22  1  0
  2 24  1  0
  4 25  1  0
  6 26  1  0
  8 27  1  0
  8 28  1  0
  8 29  1  0
  9 30  1  0
  9 31  1  0
 10 32  1  6
 11 33  1  0
 11 34  1  0
 12 35  1  0
 12 36  1  0
 13 37  1  0
 13 38  1  0
 14 39  1  0
 14 40  1  0
 15 41  1  1
 16 42  1  0
 17 43  1  0
 17 44  1  0
 20 45  1  0
 21 46  1  0
 22 47  1  0
M  ISO  8  24  14  25  14  26  14  27   8  28   8  29   8  30   8  31   8
M  ISO  8  32  13  33  13  34  13  35  13  36  13  37  13  38  13  39  13
M  ISO  8  40  13  41  13  42  11  43   8  44   8  45  14  46  14  47   9
M  END
>  <minimizedAffinity>  (1) 
-6.20409775

>  <minimizedRMSD>  (1) 
0.926553071

$$$$
