
     RDKit          3D

 52 54  0  0  1  0  0  0  0  0999 V2000
   44.5580   33.7590   41.5830 C   0  0  1  0  0  0  0  0  0  0  0  0
   45.1830   33.3710   43.9390 C   0  0  0  0  0  0  0  0  0  0  0  0
   44.6790   34.2010   42.9370 C   0  0  0  0  0  0  0  0  0  0  0  0
   44.3280   35.4270   43.3590 C   0  0  0  0  0  0  0  0  0  0  0  0
   44.4410   35.8440   44.6390 N   0  0  0  0  0  0  0  0  0  0  0  0
   44.9410   34.9850   45.5720 C   0  0  0  0  0  0  0  0  0  0  0  0
   45.3100   33.7450   45.2100 N   0  0  0  0  0  0  0  0  0  0  0  0
   44.0190   32.3270   41.5570 C   0  0  0  0  0  0  0  0  0  0  0  0
   43.8590   34.5690   40.6180 C   0  0  0  0  0  0  0  0  0  0  0  0
   42.4610   34.1470   40.1910 C   0  0  2  0  0  0  0  0  0  0  0  0
   42.0180   35.0040   39.0180 C   0  0  0  0  0  0  0  0  0  0  0  0
   40.5040   35.2110   39.0420 C   0  0  0  0  0  0  0  0  0  0  0  0
   40.0200   35.9840   40.2090 C   0  0  0  0  0  0  0  0  0  0  0  0
   41.1260   35.8960   41.2650 C   0  0  0  0  0  0  0  0  0  0  0  0
   41.5020   34.4590   41.2940 C   0  0  1  0  0  0  0  0  0  0  0  0
   40.0790   33.3570   41.2590 S   0  0  0  0  0  0  0  0  0  0  0  0
   45.9990   33.4650   41.0580 C   0  0  0  0  0  0  0  0  0  0  0  0
   46.6730   34.6780   40.8930 O   0  0  0  0  0  0  0  0  0  0  0  0
   48.4390   33.4590   41.8630 N   0  0  0  0  0  0  0  0  0  0  0  0
   49.6910   33.7960   42.5070 C   0  0  0  0  0  0  0  0  0  0  0  0
   49.8920   35.2900   42.3570 C   0  0  0  0  0  0  0  0  0  0  0  0
   48.8420   35.6430   41.2950 C   0  0  0  0  0  0  0  0  0  0  0  0
   47.7290   34.7040   41.7750 C   0  0  1  0  0  0  0  0  0  0  0  0
   45.4922   32.3520   43.6634 H   0  0  0  0  0  0  0  0  0  0  0  0
   43.9246   36.1333   42.6184 H   0  0  0  0  0  0  0  0  0  0  0  0
   45.0421   35.3065   46.6191 H   0  0  0  0  0  0  0  0  0  0  0  0
   43.8836   31.9674   42.5877 H   0  0  0  0  0  0  0  0  0  0  0  0
   43.0524   32.3085   41.0323 H   0  0  0  0  0  0  0  0  0  0  0  0
   44.7335   31.6757   41.0323 H   0  0  0  0  0  0  0  0  0  0  0  0
   43.7773   35.5807   41.0419 H   0  0  0  0  0  0  0  0  0  0  0  0
   44.4601   34.4741   39.7016 H   0  0  0  0  0  0  0  0  0  0  0  0
   42.4758   33.0762   39.9399 H   0  0  0  0  0  0  0  0  0  0  0  0
   42.2994   34.5045   38.0792 H   0  0  0  0  0  0  0  0  0  0  0  0
   42.5104   35.9850   39.0907 H   0  0  0  0  0  0  0  0  0  0  0  0
   40.2138   35.7481   38.1269 H   0  0  0  0  0  0  0  0  0  0  0  0
   40.0474   34.2126   39.1101 H   0  0  0  0  0  0  0  0  0  0  0  0
   39.8446   37.0325   39.9263 H   0  0  0  0  0  0  0  0  0  0  0  0
   39.0685   35.5841   40.5893 H   0  0  0  0  0  0  0  0  0  0  0  0
   41.9873   36.5172   40.9781 H   0  0  0  0  0  0  0  0  0  0  0  0
   40.7942   36.2606   42.2484 H   0  0  0  0  0  0  0  0  0  0  0  0
   42.0005   34.2775   42.2576 H   0  0  0  0  0  0  0  0  0  0  0  0
   39.6982   33.0621   42.5415 H   0  0  0  0  0  0  0  0  0  0  0  0
   46.5370   32.8387   41.7849 H   0  0  0  0  0  0  0  0  0  0  0  0
   45.9459   32.9325   40.0969 H   0  0  0  0  0  0  0  0  0  0  0  0
   48.6065   33.0690   40.9245 H   0  0  0  0  0  0  0  0  0  0  0  0
   49.6493   33.5277   43.5730 H   0  0  0  0  0  0  0  0  0  0  0  0
   50.5243   33.2447   42.0469 H   0  0  0  0  0  0  0  0  0  0  0  0
   49.6980   35.8172   43.3028 H   0  0  0  0  0  0  0  0  0  0  0  0
   50.9178   35.5760   42.0815 H   0  0  0  0  0  0  0  0  0  0  0  0
   49.1813   35.4009   40.2770 H   0  0  0  0  0  0  0  0  0  0  0  0
   48.5749   36.7071   41.2152 H   0  0  0  0  0  0  0  0  0  0  0  0
   47.2488   34.9939   42.7213 H   0  0  0  0  0  0  0  0  0  0  0  0
  1  9  1  6
  1  3  1  0
  2  7  2  0
  3  4  2  0
  3  2  1  0
  4  5  1  0
  5  6  2  0
  7  6  1  0
  8  1  1  0
 10  9  1  0
 10 15  1  0
 11 12  1  0
 11 10  1  0
 12 13  1  0
 13 14  1  0
 14 15  1  0
 16 15  1  0
 17  1  1  0
 18 17  1  0
 19 20  1  0
 21 20  1  0
 22 23  1  0
 22 21  1  0
 23 18  1  0
 23 19  1  0
  2 24  1  0
  4 25  1  0
  6 26  1  0
  8 27  1  0
  8 28  1  0
  8 29  1  0
  9 30  1  0
  9 31  1  0
 10 32  1  6
 11 33  1  0
 11 34  1  0
 12 35  1  0
 12 36  1  0
 13 37  1  0
 13 38  1  0
 14 39  1  0
 14 40  1  0
 15 41  1  1
 16 42  1  0
 17 43  1  0
 17 44  1  0
 19 45  1  0
 20 46  1  0
 20 47  1  0
 21 48  1  0
 21 49  1  0
 22 50  1  0
 22 51  1  0
 23 52  1  1
M  ISO  8  24  14  25  14  26  14  27   8  28   8  29   8  30   8  31   8
M  ISO  8  32  13  33  13  34  13  35  13  36  13  37  13  38  13  39  13
M  ISO  8  40  13  41  13  42  11  43   8  44   8  45   5  46  13  47  13
M  ISO  5  48  13  49  13  50  13  51  13  52  13
M  END
>  <minimizedAffinity>  (1) 
-6.06003761

>  <minimizedRMSD>  (1) 
1.10299242

$$$$
