
     RDKit          3D

 48 50  0  0  1  0  0  0  0  0999 V2000
   44.6330   34.1090   41.3920 C   0  0  1  0  0  0  0  0  0  0  0  0
   45.2210   33.3950   43.6800 C   0  0  0  0  0  0  0  0  0  0  0  0
   44.7670   34.3690   42.7910 C   0  0  0  0  0  0  0  0  0  0  0  0
   44.4730   35.5480   43.3630 C   0  0  0  0  0  0  0  0  0  0  0  0
   44.5950   35.7930   44.6870 N   0  0  0  0  0  0  0  0  0  0  0  0
   45.0450   34.7980   45.5030 C   0  0  0  0  0  0  0  0  0  0  0  0
   45.3550   33.6000   44.9870 N   0  0  0  0  0  0  0  0  0  0  0  0
   44.3690   32.6160   41.1710 C   0  0  0  0  0  0  0  0  0  0  0  0
   43.7260   34.8910   40.5940 C   0  0  0  0  0  0  0  0  0  0  0  0
   42.3740   34.2950   40.2260 C   0  0  2  0  0  0  0  0  0  0  0  0
   41.8070   35.0300   39.0240 C   0  0  0  0  0  0  0  0  0  0  0  0
   40.2850   35.0620   39.0760 C   0  0  0  0  0  0  0  0  0  0  0  0
   39.7410   35.8340   40.2120 C   0  0  0  0  0  0  0  0  0  0  0  0
   40.8790   35.9450   41.2450 C   0  0  0  0  0  0  0  0  0  0  0  0
   41.4100   34.5610   41.3420 C   0  0  1  0  0  0  0  0  0  0  0  0
   40.1210   33.3060   41.4060 S   0  0  0  0  0  0  0  0  0  0  0  0
   46.0590   34.1850   40.7610 C   0  0  0  0  0  0  0  0  0  0  0  0
   46.9300   34.7610   41.7000 O   0  0  0  0  0  0  0  0  0  0  0  0
   48.2190   34.2670   41.8430 C   0  0  0  0  0  0  0  0  0  0  0  0
   49.2340   34.9360   42.4950 C   0  0  0  0  0  0  0  0  0  0  0  0
   50.5120   34.4350   42.6320 C   0  0  0  0  0  0  0  0  0  0  0  0
   50.7860   33.2320   42.1030 N   0  0  0  0  0  0  0  0  0  0  0  0
   49.8000   32.5490   41.4540 C   0  0  0  0  0  0  0  0  0  0  0  0
   48.5530   33.0470   41.3250 N   0  0  0  0  0  0  0  0  0  0  0  0
   45.4821   32.4047   43.2787 H   0  0  0  0  0  0  0  0  0  0  0  0
   44.1120   36.3616   42.7167 H   0  0  0  0  0  0  0  0  0  0  0  0
   45.1536   34.9777   46.5828 H   0  0  0  0  0  0  0  0  0  0  0  0
   44.2798   32.1114   42.1444 H   0  0  0  0  0  0  0  0  0  0  0  0
   43.4344   32.4887   40.6050 H   0  0  0  0  0  0  0  0  0  0  0  0
   45.2033   32.1760   40.6050 H   0  0  0  0  0  0  0  0  0  0  0  0
   43.5297   35.8220   41.1460 H   0  0  0  0  0  0  0  0  0  0  0  0
   44.2428   34.9958   39.6286 H   0  0  0  0  0  0  0  0  0  0  0  0
   42.5053   33.2211   40.0271 H   0  0  0  0  0  0  0  0  0  0  0  0
   42.1254   34.5167   38.1047 H   0  0  0  0  0  0  0  0  0  0  0  0
   42.1813   36.0643   39.0353 H   0  0  0  0  0  0  0  0  0  0  0  0
   39.9160   35.5124   38.1428 H   0  0  0  0  0  0  0  0  0  0  0  0
   39.9480   34.0229   39.2055 H   0  0  0  0  0  0  0  0  0  0  0  0
   39.4308   36.8352   39.8782 H   0  0  0  0  0  0  0  0  0  0  0  0
   38.8569   35.3413   40.6430 H   0  0  0  0  0  0  0  0  0  0  0  0
   41.6577   36.6393   40.8963 H   0  0  0  0  0  0  0  0  0  0  0  0
   40.5356   36.3364   42.2140 H   0  0  0  0  0  0  0  0  0  0  0  0
   41.9430   34.4904   42.3016 H   0  0  0  0  0  0  0  0  0  0  0  0
   39.8269   33.0197   42.7131 H   0  0  0  0  0  0  0  0  0  0  0  0
   46.4060   33.1732   40.5045 H   0  0  0  0  0  0  0  0  0  0  0  0
   46.0347   34.7940   39.8453 H   0  0  0  0  0  0  0  0  0  0  0  0
   49.0124   35.9221   42.9291 H   0  0  0  0  0  0  0  0  0  0  0  0
   51.2877   35.0074   43.1618 H   0  0  0  0  0  0  0  0  0  0  0  0
   50.0283   31.5630   41.0230 H   0  0  0  0  0  0  0  0  0  0  0  0
  1  9  1  6
  1  3  1  0
  2  7  2  0
  3  4  2  0
  3  2  1  0
  4  5  1  0
  5  6  2  0
  7  6  1  0
  8  1  1  0
 10  9  1  0
 10 15  1  0
 11 12  1  0
 11 10  1  0
 12 13  1  0
 13 14  1  0
 14 15  1  0
 15 16  1  0
 17  1  1  0
 17 18  1  0
 18 19  1  0
 19 20  2  0
 20 21  1  0
 22 21  2  0
 23 22  1  0
 24 23  2  0
 24 19  1  0
  2 25  1  0
  4 26  1  0
  6 27  1  0
  8 28  1  0
  8 29  1  0
  8 30  1  0
  9 31  1  0
  9 32  1  0
 10 33  1  6
 11 34  1  0
 11 35  1  0
 12 36  1  0
 12 37  1  0
 13 38  1  0
 13 39  1  0
 14 40  1  0
 14 41  1  0
 15 42  1  1
 16 43  1  0
 17 44  1  0
 17 45  1  0
 20 46  1  0
 21 47  1  0
 23 48  1  0
M  ISO  8  25  14  26  14  27  14  28   8  29   8  30   8  31   8  32   8
M  ISO  8  33  13  34  13  35  13  36  13  37  13  38  13  39  13  40  13
M  ISO  8  41  13  42  13  43  11  44   8  45   8  46  14  47  14  48  14
M  END
>  <minimizedAffinity>  (1) 
-5.99382305

>  <minimizedRMSD>  (1) 
1.17920113

$$$$
