
     RDKit          3D

 48 50  0  0  1  0  0  0  0  0999 V2000
   44.6400   34.1120   41.3890 C   0  0  1  0  0  0  0  0  0  0  0  0
   45.2190   33.3980   43.6790 C   0  0  0  0  0  0  0  0  0  0  0  0
   44.7710   34.3720   42.7880 C   0  0  0  0  0  0  0  0  0  0  0  0
   44.4810   35.5530   43.3580 C   0  0  0  0  0  0  0  0  0  0  0  0
   44.6020   35.8010   44.6820 N   0  0  0  0  0  0  0  0  0  0  0  0
   45.0450   34.8030   45.5020 C   0  0  0  0  0  0  0  0  0  0  0  0
   45.3530   33.5980   44.9860 N   0  0  0  0  0  0  0  0  0  0  0  0
   44.3810   32.6150   41.1710 C   0  0  0  0  0  0  0  0  0  0  0  0
   43.7260   34.8840   40.5910 C   0  0  0  0  0  0  0  0  0  0  0  0
   42.3760   34.2920   40.2240 C   0  0  2  0  0  0  0  0  0  0  0  0
   41.8070   35.0200   39.0190 C   0  0  0  0  0  0  0  0  0  0  0  0
   40.2850   35.0630   39.0810 C   0  0  0  0  0  0  0  0  0  0  0  0
   39.7420   35.8310   40.2120 C   0  0  0  0  0  0  0  0  0  0  0  0
   40.8810   35.9420   41.2390 C   0  0  0  0  0  0  0  0  0  0  0  0
   41.4130   34.5570   41.3400 C   0  0  1  0  0  0  0  0  0  0  0  0
   40.1270   33.3010   41.4090 S   0  0  0  0  0  0  0  0  0  0  0  0
   46.0610   34.1950   40.7560 C   0  0  0  0  0  0  0  0  0  0  0  0
   46.9410   34.7360   41.7090 O   0  0  0  0  0  0  0  0  0  0  0  0
   48.2120   34.1890   41.8130 C   0  0  0  0  0  0  0  0  0  0  0  0
   49.1500   34.9700   42.4930 C   0  0  0  0  0  0  0  0  0  0  0  0
   50.4340   34.4700   42.6250 C   0  0  0  0  0  0  0  0  0  0  0  0
   50.7630   33.2530   42.1040 N   0  0  0  0  0  0  0  0  0  0  0  0
   49.8400   32.5190   41.4530 C   0  0  0  0  0  0  0  0  0  0  0  0
   48.5740   32.9760   41.3050 N   0  0  0  0  0  0  0  0  0  0  0  0
   45.4764   32.4069   43.2772 H   0  0  0  0  0  0  0  0  0  0  0  0
   44.1239   36.3667   42.7096 H   0  0  0  0  0  0  0  0  0  0  0  0
   45.1501   34.9831   46.5821 H   0  0  0  0  0  0  0  0  0  0  0  0
   44.2940   32.1122   42.1455 H   0  0  0  0  0  0  0  0  0  0  0  0
   43.4467   32.4831   40.6056 H   0  0  0  0  0  0  0  0  0  0  0  0
   45.2167   32.1768   40.6056 H   0  0  0  0  0  0  0  0  0  0  0  0
   43.5288   35.8162   41.1406 H   0  0  0  0  0  0  0  0  0  0  0  0
   44.2407   34.9781   39.6234 H   0  0  0  0  0  0  0  0  0  0  0  0
   42.5084   33.2182   40.0257 H   0  0  0  0  0  0  0  0  0  0  0  0
   42.1158   34.4961   38.1024 H   0  0  0  0  0  0  0  0  0  0  0  0
   42.1889   36.0516   39.0179 H   0  0  0  0  0  0  0  0  0  0  0  0
   39.9159   35.5162   38.1492 H   0  0  0  0  0  0  0  0  0  0  0  0
   39.9480   34.0248   39.2173 H   0  0  0  0  0  0  0  0  0  0  0  0
   39.4296   36.8317   39.8789 H   0  0  0  0  0  0  0  0  0  0  0  0
   38.8582   35.3389   40.6441 H   0  0  0  0  0  0  0  0  0  0  0  0
   41.6592   36.6347   40.8860 H   0  0  0  0  0  0  0  0  0  0  0  0
   40.5396   36.3353   42.2079 H   0  0  0  0  0  0  0  0  0  0  0  0
   41.9454   34.4873   42.3000 H   0  0  0  0  0  0  0  0  0  0  0  0
   39.8360   33.0168   42.7172 H   0  0  0  0  0  0  0  0  0  0  0  0
   46.3986   33.1885   40.4679 H   0  0  0  0  0  0  0  0  0  0  0  0
   46.0382   34.8312   39.8589 H   0  0  0  0  0  0  0  0  0  0  0  0
   48.8769   35.9506   42.9100 H   0  0  0  0  0  0  0  0  0  0  0  0
   51.1964   35.0597   43.1551 H   0  0  0  0  0  0  0  0  0  0  0  0
   50.1174   31.5389   41.0376 H   0  0  0  0  0  0  0  0  0  0  0  0
  1  9  1  6
  1  3  1  0
  2  7  2  0
  3  4  2  0
  3  2  1  0
  4  5  1  0
  5  6  2  0
  7  6  1  0
  8  1  1  0
 10  9  1  0
 10 15  1  0
 11 12  1  0
 11 10  1  0
 12 13  1  0
 13 14  1  0
 14 15  1  0
 15 16  1  0
 17  1  1  0
 17 18  1  0
 18 19  1  0
 19 20  2  0
 20 21  1  0
 22 21  2  0
 23 22  1  0
 24 23  2  0
 24 19  1  0
  2 25  1  0
  4 26  1  0
  6 27  1  0
  8 28  1  0
  8 29  1  0
  8 30  1  0
  9 31  1  0
  9 32  1  0
 10 33  1  6
 11 34  1  0
 11 35  1  0
 12 36  1  0
 12 37  1  0
 13 38  1  0
 13 39  1  0
 14 40  1  0
 14 41  1  0
 15 42  1  1
 16 43  1  0
 17 44  1  0
 17 45  1  0
 20 46  1  0
 21 47  1  0
 23 48  1  0
M  ISO  8  25  14  26  14  27  14  28   8  29   8  30   8  31   8  32   8
M  ISO  8  33  13  34  13  35  13  36  13  37  13  38  13  39  13  40  13
M  ISO  8  41  13  42  13  43  11  44   8  45   8  46  14  47  14  48  14
M  END
>  <minimizedAffinity>  (1) 
-5.99316978

>  <minimizedRMSD>  (1) 
1.26277387

$$$$
