
     RDKit          3D

 52 53  0  0  1  0  0  0  0  0999 V2000
   44.7040   34.1330   41.5240 C   0  0  1  0  0  0  0  0  0  0  0  0
   45.2880   33.3770   43.7880 C   0  0  0  0  0  0  0  0  0  0  0  0
   44.8040   34.3630   42.9290 C   0  0  0  0  0  0  0  0  0  0  0  0
   44.4560   35.5090   43.5370 C   0  0  0  0  0  0  0  0  0  0  0  0
   44.5610   35.6980   44.8750 N   0  0  0  0  0  0  0  0  0  0  0  0
   45.0340   34.7110   45.6580 C   0  0  0  0  0  0  0  0  0  0  0  0
   45.4020   33.5340   45.1030 N   0  0  0  0  0  0  0  0  0  0  0  0
   44.4150   32.6570   41.2510 C   0  0  0  0  0  0  0  0  0  0  0  0
   43.8080   34.9480   40.7220 C   0  0  0  0  0  0  0  0  0  0  0  0
   42.4860   34.3740   40.2680 C   0  0  2  0  0  0  0  0  0  0  0  0
   41.9470   35.1930   39.1080 C   0  0  0  0  0  0  0  0  0  0  0  0
   40.4210   35.1950   39.1160 C   0  0  0  0  0  0  0  0  0  0  0  0
   39.8350   35.8850   40.2880 C   0  0  0  0  0  0  0  0  0  0  0  0
   40.9310   35.9190   41.3620 C   0  0  0  0  0  0  0  0  0  0  0  0
   41.4790   34.5340   41.3710 C   0  0  1  0  0  0  0  0  0  0  0  0
   40.2200   33.2580   41.2840 S   0  0  0  0  0  0  0  0  0  0  0  0
   46.1390   34.2080   40.9210 C   0  0  0  0  0  0  0  0  0  0  0  0
   46.9110   35.0330   41.7230 O   0  0  0  0  0  0  0  0  0  0  0  0
   48.2560   34.8260   41.6910 C   0  0  0  0  0  0  0  0  0  0  0  0
   48.5110   33.8580   40.5270 C   0  0  0  0  0  0  0  0  0  0  0  0
   48.7560   34.1040   42.9250 C   0  0  0  0  0  0  0  0  0  0  0  0
   49.0860   36.0580   41.4350 C   0  0  0  0  0  0  0  0  0  0  0  0
   45.5930   32.4140   43.3525 H   0  0  0  0  0  0  0  0  0  0  0  0
   44.0676   36.3327   42.9201 H   0  0  0  0  0  0  0  0  0  0  0  0
   45.1209   34.8609   46.7443 H   0  0  0  0  0  0  0  0  0  0  0  0
   44.3101   32.1212   42.2059 H   0  0  0  0  0  0  0  0  0  0  0  0
   43.4821   32.5664   40.6753 H   0  0  0  0  0  0  0  0  0  0  0  0
   45.2449   32.2213   40.6753 H   0  0  0  0  0  0  0  0  0  0  0  0
   43.5803   35.8482   41.3117 H   0  0  0  0  0  0  0  0  0  0  0  0
   44.3623   35.0940   39.7832 H   0  0  0  0  0  0  0  0  0  0  0  0
   42.6404   33.3210   39.9897 H   0  0  0  0  0  0  0  0  0  0  0  0
   42.3031   34.7585   38.1623 H   0  0  0  0  0  0  0  0  0  0  0  0
   42.3038   36.2286   39.2088 H   0  0  0  0  0  0  0  0  0  0  0  0
   40.0692   35.6992   38.2039 H   0  0  0  0  0  0  0  0  0  0  0  0
   40.0974   34.1448   39.1650 H   0  0  0  0  0  0  0  0  0  0  0  0
   39.5358   36.9082   40.0170 H   0  0  0  0  0  0  0  0  0  0  0  0
   38.9369   35.3635   40.6505 H   0  0  0  0  0  0  0  0  0  0  0  0
   41.7131   36.6460   41.0980 H   0  0  0  0  0  0  0  0  0  0  0  0
   40.5465   36.2257   42.3459 H   0  0  0  0  0  0  0  0  0  0  0  0
   41.9716   34.3953   42.3447 H   0  0  0  0  0  0  0  0  0  0  0  0
   39.8557   32.8887   42.5520 H   0  0  0  0  0  0  0  0  0  0  0  0
   46.5814   33.2013   40.8899 H   0  0  0  0  0  0  0  0  0  0  0  0
   46.0970   34.6095   39.8978 H   0  0  0  0  0  0  0  0  0  0  0  0
   48.7722   32.8664   40.9252 H   0  0  0  0  0  0  0  0  0  0  0  0
   47.6032   33.7782   39.9109 H   0  0  0  0  0  0  0  0  0  0  0  0
   49.3403   34.2358   39.9109 H   0  0  0  0  0  0  0  0  0  0  0  0
   48.3960   34.6239   43.8251 H   0  0  0  0  0  0  0  0  0  0  0  0
   48.3792   33.0706   42.9231 H   0  0  0  0  0  0  0  0  0  0  0  0
   49.8559   34.0932   42.9231 H   0  0  0  0  0  0  0  0  0  0  0  0
   49.3863   36.5037   42.3948 H   0  0  0  0  0  0  0  0  0  0  0  0
   49.9836   35.7828   40.8617 H   0  0  0  0  0  0  0  0  0  0  0  0
   48.4938   36.7865   40.8617 H   0  0  0  0  0  0  0  0  0  0  0  0
  1  9  1  6
  1  3  1  0
  2  7  2  0
  3  4  2  0
  3  2  1  0
  4  5  1  0
  5  6  2  0
  7  6  1  0
  8  1  1  0
 10  9  1  0
 10 15  1  0
 11 12  1  0
 11 10  1  0
 12 13  1  0
 13 14  1  0
 14 15  1  0
 16 15  1  0
 17  1  1  0
 17 18  1  0
 19 18  1  0
 19 21  1  0
 20 19  1  0
 22 19  1  0
  2 23  1  0
  4 24  1  0
  6 25  1  0
  8 26  1  0
  8 27  1  0
  8 28  1  0
  9 29  1  0
  9 30  1  0
 10 31  1  6
 11 32  1  0
 11 33  1  0
 12 34  1  0
 12 35  1  0
 13 36  1  0
 13 37  1  0
 14 38  1  0
 14 39  1  0
 15 40  1  1
 16 41  1  0
 17 42  1  0
 17 43  1  0
 20 44  1  0
 20 45  1  0
 20 46  1  0
 21 47  1  0
 21 48  1  0
 21 49  1  0
 22 50  1  0
 22 51  1  0
 22 52  1  0
M  ISO  8  23  14  24  14  25  14  26   8  27   8  28   8  29   8  30   8
M  ISO  8  31  13  32  13  33  13  34  13  35  13  36  13  37  13  38  13
M  ISO  8  39  13  40  13  41  11  42   8  43   8  44   8  45   8  46   8
M  ISO  6  47   8  48   8  49   8  50   8  51   8  52   8
M  END
>  <minimizedAffinity>  (1) 
-5.95439482

>  <minimizedRMSD>  (1) 
0.441352159

$$$$
