
     RDKit          3D

 47 49  0  0  1  0  0  0  0  0999 V2000
   44.7360   34.1330   41.5120 C   0  0  1  0  0  0  0  0  0  0  0  0
   45.3050   33.3570   43.7850 C   0  0  0  0  0  0  0  0  0  0  0  0
   44.8320   34.3470   42.9220 C   0  0  0  0  0  0  0  0  0  0  0  0
   44.4810   35.4960   43.5280 C   0  0  0  0  0  0  0  0  0  0  0  0
   44.5690   35.7000   44.8610 N   0  0  0  0  0  0  0  0  0  0  0  0
   45.0410   34.6940   45.6550 C   0  0  0  0  0  0  0  0  0  0  0  0
   45.4100   33.5160   45.1010 N   0  0  0  0  0  0  0  0  0  0  0  0
   44.4650   32.6490   41.2350 C   0  0  0  0  0  0  0  0  0  0  0  0
   43.8640   34.9420   40.7120 C   0  0  0  0  0  0  0  0  0  0  0  0
   42.5340   34.3760   40.2510 C   0  0  2  0  0  0  0  0  0  0  0  0
   41.9770   35.1980   39.1040 C   0  0  0  0  0  0  0  0  0  0  0  0
   40.4600   35.2100   39.1220 C   0  0  0  0  0  0  0  0  0  0  0  0
   39.8780   35.8830   40.3090 C   0  0  0  0  0  0  0  0  0  0  0  0
   40.9820   35.9020   41.3740 C   0  0  0  0  0  0  0  0  0  0  0  0
   41.5370   34.5130   41.3540 C   0  0  1  0  0  0  0  0  0  0  0  0
   40.2700   33.2450   41.2700 S   0  0  0  0  0  0  0  0  0  0  0  0
   46.1820   34.2190   40.9250 C   0  0  0  0  0  0  0  0  0  0  0  0
   46.9690   34.9870   41.7770 O   0  0  0  0  0  0  0  0  0  0  0  0
   48.2930   34.6570   42.0400 C   0  0  0  0  0  0  0  0  0  0  0  0
   49.4570   35.3700   42.2530 C   0  0  0  0  0  0  0  0  0  0  0  0
   50.4300   34.4640   42.4590 N   0  0  0  0  0  0  0  0  0  0  0  0
   49.8960   33.2260   42.3770 C   0  0  0  0  0  0  0  0  0  0  0  0
   48.5630   33.3370   42.1160 N   0  0  0  0  0  0  0  0  0  0  0  0
   45.6076   32.3919   43.3525 H   0  0  0  0  0  0  0  0  0  0  0  0
   44.1004   36.3167   42.9022 H   0  0  0  0  0  0  0  0  0  0  0  0
   45.1210   34.8411   46.7422 H   0  0  0  0  0  0  0  0  0  0  0  0
   44.3666   32.1100   42.1888 H   0  0  0  0  0  0  0  0  0  0  0  0
   43.5335   32.5477   40.6588 H   0  0  0  0  0  0  0  0  0  0  0  0
   45.3006   32.2250   40.6588 H   0  0  0  0  0  0  0  0  0  0  0  0
   43.6413   35.8469   41.2964 H   0  0  0  0  0  0  0  0  0  0  0  0
   44.4251   35.0788   39.7758 H   0  0  0  0  0  0  0  0  0  0  0  0
   42.6984   33.3299   39.9532 H   0  0  0  0  0  0  0  0  0  0  0  0
   42.3209   34.7656   38.1528 H   0  0  0  0  0  0  0  0  0  0  0  0
   42.3343   36.2327   39.2120 H   0  0  0  0  0  0  0  0  0  0  0  0
   40.1071   35.7319   38.2203 H   0  0  0  0  0  0  0  0  0  0  0  0
   40.1329   34.1604   39.1579 H   0  0  0  0  0  0  0  0  0  0  0  0
   39.5753   36.9096   40.0551 H   0  0  0  0  0  0  0  0  0  0  0  0
   38.9821   35.3563   40.6695 H   0  0  0  0  0  0  0  0  0  0  0  0
   41.7595   36.6363   41.1165 H   0  0  0  0  0  0  0  0  0  0  0  0
   40.6046   36.1901   42.3662 H   0  0  0  0  0  0  0  0  0  0  0  0
   42.0466   34.3510   42.3153 H   0  0  0  0  0  0  0  0  0  0  0  0
   39.9048   32.8795   42.5389 H   0  0  0  0  0  0  0  0  0  0  0  0
   46.6071   33.2080   40.8407 H   0  0  0  0  0  0  0  0  0  0  0  0
   46.1524   34.6811   39.9272 H   0  0  0  0  0  0  0  0  0  0  0  0
   49.5668   36.4645   42.2540 H   0  0  0  0  0  0  0  0  0  0  0  0
   50.4472   32.2821   42.5007 H   0  0  0  0  0  0  0  0  0  0  0  0
   47.8923   32.5640   41.9995 H   0  0  0  0  0  0  0  0  0  0  0  0
  1  9  1  6
  1  3  1  0
  2  7  2  0
  3  4  2  0
  3  2  1  0
  4  5  1  0
  5  6  2  0
  7  6  1  0
  8  1  1  0
 10  9  1  0
 10 15  1  0
 11 12  1  0
 11 10  1  0
 12 13  1  0
 13 14  1  0
 15 14  1  0
 16 15  1  0
 17  1  1  0
 17 18  1  0
 18 19  1  0
 19 23  1  0
 19 20  2  0
 20 21  1  0
 22 21  2  0
 23 22  1  0
  2 24  1  0
  4 25  1  0
  6 26  1  0
  8 27  1  0
  8 28  1  0
  8 29  1  0
  9 30  1  0
  9 31  1  0
 10 32  1  6
 11 33  1  0
 11 34  1  0
 12 35  1  0
 12 36  1  0
 13 37  1  0
 13 38  1  0
 14 39  1  0
 14 40  1  0
 15 41  1  1
 16 42  1  0
 17 43  1  0
 17 44  1  0
 20 45  1  0
 22 46  1  0
 23 47  1  0
M  ISO  8  24  14  25  14  26  14  27   8  28   8  29   8  30   8  31   8
M  ISO  8  32  13  33  13  34  13  35  13  36  13  37  13  38  13  39  13
M  ISO  8  40  13  41  13  42  11  43   8  44   8  45  14  46  14  47   9
M  END
>  <minimizedAffinity>  (1) 
-5.83004475

>  <minimizedRMSD>  (1) 
0.872602463

$$$$
