
     RDKit          3D

 47 49  0  0  1  0  0  0  0  0999 V2000
   43.7940   34.9680   40.8190 C   0  0  0  0  0  0  0  0  0  0  0  0
   42.4730   34.3900   40.3400 C   0  0  2  0  0  0  0  0  0  0  0  0
   41.9690   35.1890   39.1520 C   0  0  0  0  0  0  0  0  0  0  0  0
   40.4460   35.2140   39.1250 C   0  0  0  0  0  0  0  0  0  0  0  0
   39.8290   35.9050   40.2670 C   0  0  0  0  0  0  0  0  0  0  0  0
   40.9000   35.9550   41.3690 C   0  0  0  0  0  0  0  0  0  0  0  0
   41.4440   34.5770   41.4120 C   0  0  1  0  0  0  0  0  0  0  0  0
   40.1670   33.3150   41.3290 S   0  0  0  0  0  0  0  0  0  0  0  0
   44.6710   34.1420   41.6060 C   0  0  1  0  0  0  0  0  0  0  0  0
   45.3130   33.3760   43.8620 C   0  0  0  0  0  0  0  0  0  0  0  0
   44.7860   34.3500   43.0150 C   0  0  0  0  0  0  0  0  0  0  0  0
   44.4020   35.4760   43.6360 C   0  0  0  0  0  0  0  0  0  0  0  0
   44.5050   35.6730   44.9700 N   0  0  0  0  0  0  0  0  0  0  0  0
   45.0300   34.6810   45.7450 C   0  0  0  0  0  0  0  0  0  0  0  0
   45.4360   33.5250   45.1780 N   0  0  0  0  0  0  0  0  0  0  0  0
   44.3780   32.6630   41.3290 C   0  0  0  0  0  0  0  0  0  0  0  0
   46.1090   34.2080   41.0020 C   0  0  0  0  0  0  0  0  0  0  0  0
   46.8930   35.0430   41.8130 O   0  0  0  0  0  0  0  0  0  0  0  0
   48.2430   34.9360   41.5750 C   0  0  0  0  0  0  0  0  0  0  0  0
   49.1280   36.1370   41.6320 C   0  0  0  0  0  0  0  0  0  0  0  0
   48.8680   35.4140   40.3260 C   0  0  0  0  0  0  0  0  0  0  0  0
   44.3558   35.2738   39.9241 H   0  0  0  0  0  0  0  0  0  0  0  0
   43.4964   35.7708   41.5097 H   0  0  0  0  0  0  0  0  0  0  0  0
   42.6267   33.3310   40.0851 H   0  0  0  0  0  0  0  0  0  0  0  0
   42.3455   36.2200   39.2247 H   0  0  0  0  0  0  0  0  0  0  0  0
   42.3307   34.7140   38.2281 H   0  0  0  0  0  0  0  0  0  0  0  0
   40.1266   35.7212   38.2027 H   0  0  0  0  0  0  0  0  0  0  0  0
   40.1141   34.1665   39.1756 H   0  0  0  0  0  0  0  0  0  0  0  0
   39.5299   36.9238   39.9797 H   0  0  0  0  0  0  0  0  0  0  0  0
   38.9248   35.3815   40.6109 H   0  0  0  0  0  0  0  0  0  0  0  0
   41.6889   36.6778   41.1135 H   0  0  0  0  0  0  0  0  0  0  0  0
   40.4916   36.2766   42.3384 H   0  0  0  0  0  0  0  0  0  0  0  0
   41.9277   34.4498   42.3917 H   0  0  0  0  0  0  0  0  0  0  0  0
   39.8001   32.9524   42.5982 H   0  0  0  0  0  0  0  0  0  0  0  0
   45.6470   32.4279   43.4153 H   0  0  0  0  0  0  0  0  0  0  0  0
   43.9787   36.2862   43.0241 H   0  0  0  0  0  0  0  0  0  0  0  0
   45.1226   34.8228   46.8319 H   0  0  0  0  0  0  0  0  0  0  0  0
   44.2715   32.1254   42.2828 H   0  0  0  0  0  0  0  0  0  0  0  0
   43.4451   32.5757   40.7527 H   0  0  0  0  0  0  0  0  0  0  0  0
   45.2071   32.2266   40.7527 H   0  0  0  0  0  0  0  0  0  0  0  0
   46.5469   33.1993   40.9746 H   0  0  0  0  0  0  0  0  0  0  0  0
   46.0702   34.6053   39.9770 H   0  0  0  0  0  0  0  0  0  0  0  0
   48.2153   33.9629   42.0872 H   0  0  0  0  0  0  0  0  0  0  0  0
   48.6974   37.1338   41.8079 H   0  0  0  0  0  0  0  0  0  0  0  0
   50.0215   36.4272   42.2042 H   0  0  0  0  0  0  0  0  0  0  0  0
   49.6694   34.8280   39.8523 H   0  0  0  0  0  0  0  0  0  0  0  0
   48.4974   35.7089   39.3332 H   0  0  0  0  0  0  0  0  0  0  0  0
  2  1  1  0
  2  7  1  0
  3  2  1  0
  4  3  1  0
  4  5  1  0
  5  6  1  0
  6  7  1  0
  8  7  1  0
  9  1  1  6
  9 11  1  0
 10 15  2  0
 11 12  2  0
 11 10  1  0
 12 13  1  0
 13 14  2  0
 15 14  1  0
 16  9  1  0
 17  9  1  0
 17 18  1  0
 19 20  1  0
 19 18  1  0
 21 19  1  0
 21 20  1  0
  1 22  1  0
  1 23  1  0
  2 24  1  6
  3 25  1  0
  3 26  1  0
  4 27  1  0
  4 28  1  0
  5 29  1  0
  5 30  1  0
  6 31  1  0
  6 32  1  0
  7 33  1  1
  8 34  1  0
 10 35  1  0
 12 36  1  0
 14 37  1  0
 16 38  1  0
 16 39  1  0
 16 40  1  0
 17 41  1  0
 17 42  1  0
 19 43  1  0
 20 44  1  0
 20 45  1  0
 21 46  1  0
 21 47  1  0
M  ISO  8  22   8  23   8  24  13  25  13  26  13  27  13  28  13  29  13
M  ISO  8  30  13  31  13  32  13  33  13  34  11  35  14  36  14  37  14
M  ISO  8  38   8  39   8  40   8  41   8  42   8  43  13  44  13  45  13
M  ISO  2  46  13  47  13
M  END
>  <minimizedAffinity>  (1) 
-5.75616693

>  <minimizedRMSD>  (1) 
0.301505566

$$$$
