
     RDKit          3D

 42 43  0  0  1  0  0  0  0  0999 V2000
   43.9950   34.9230   40.8470 C   0  0  0  0  0  0  0  0  0  0  0  0
   42.6900   34.3690   40.3210 C   0  0  2  0  0  0  0  0  0  0  0  0
   42.2260   35.1890   39.1310 C   0  0  0  0  0  0  0  0  0  0  0  0
   40.7000   35.2270   39.0590 C   0  0  0  0  0  0  0  0  0  0  0  0
   40.0640   35.9170   40.1940 C   0  0  0  0  0  0  0  0  0  0  0  0
   41.0950   35.9260   41.3280 C   0  0  0  0  0  0  0  0  0  0  0  0
   41.6250   34.5410   41.3650 C   0  0  1  0  0  0  0  0  0  0  0  0
   40.3500   33.2830   41.2030 S   0  0  0  0  0  0  0  0  0  0  0  0
   44.8450   34.0810   41.6660 C   0  0  1  0  0  0  0  0  0  0  0  0
   45.4290   33.3210   43.9330 C   0  0  0  0  0  0  0  0  0  0  0  0
   44.9050   34.2890   43.0760 C   0  0  0  0  0  0  0  0  0  0  0  0
   44.4740   35.4000   43.6980 C   0  0  0  0  0  0  0  0  0  0  0  0
   44.5420   35.5690   45.0400 N   0  0  0  0  0  0  0  0  0  0  0  0
   45.0580   34.6020   45.8190 C   0  0  0  0  0  0  0  0  0  0  0  0
   45.5080   33.4620   45.2520 N   0  0  0  0  0  0  0  0  0  0  0  0
   44.5350   32.6110   41.3740 C   0  0  0  0  0  0  0  0  0  0  0  0
   46.2970   34.1260   41.1140 C   0  0  0  0  0  0  0  0  0  0  0  0
   46.9610   35.2060   41.7110 O   0  0  0  0  0  0  0  0  0  0  0  0
   48.3470   35.2500   41.9170 C   0  0  0  0  0  0  0  0  0  0  0  0
   48.9620   35.8970   41.0150 O   0  0  0  0  0  0  0  0  0  0  0  0
   44.5902   35.2263   39.9731 H   0  0  0  0  0  0  0  0  0  0  0  0
   43.6803   35.7221   41.5343 H   0  0  0  0  0  0  0  0  0  0  0  0
   42.8472   33.3138   40.0531 H   0  0  0  0  0  0  0  0  0  0  0  0
   42.6079   36.2158   39.2299 H   0  0  0  0  0  0  0  0  0  0  0  0
   42.6105   34.7239   38.2113 H   0  0  0  0  0  0  0  0  0  0  0  0
   40.4102   35.7449   38.1329 H   0  0  0  0  0  0  0  0  0  0  0  0
   40.3539   34.1832   39.0865 H   0  0  0  0  0  0  0  0  0  0  0  0
   39.7988   36.9469   39.9129 H   0  0  0  0  0  0  0  0  0  0  0  0
   39.1379   35.4091   40.5012 H   0  0  0  0  0  0  0  0  0  0  0  0
   41.9004   36.6441   41.1145 H   0  0  0  0  0  0  0  0  0  0  0  0
   40.6543   36.2291   42.2892 H   0  0  0  0  0  0  0  0  0  0  0  0
   42.0643   34.3938   42.3627 H   0  0  0  0  0  0  0  0  0  0  0  0
   39.9434   32.8819   42.4483 H   0  0  0  0  0  0  0  0  0  0  0  0
   45.7991   32.3845   43.4902 H   0  0  0  0  0  0  0  0  0  0  0  0
   44.0461   36.2096   43.0886 H   0  0  0  0  0  0  0  0  0  0  0  0
   45.1131   34.7384   46.9091 H   0  0  0  0  0  0  0  0  0  0  0  0
   44.4199   32.0652   42.3221 H   0  0  0  0  0  0  0  0  0  0  0  0
   43.6023   32.5409   40.7950 H   0  0  0  0  0  0  0  0  0  0  0  0
   45.3600   32.1703   40.7950 H   0  0  0  0  0  0  0  0  0  0  0  0
   46.8172   33.1882   41.3587 H   0  0  0  0  0  0  0  0  0  0  0  0
   46.2834   34.2467   40.0207 H   0  0  0  0  0  0  0  0  0  0  0  0
   48.8492   34.7732   42.7717 H   0  0  0  0  0  0  0  0  0  0  0  0
  2  1  1  0
  2  7  1  0
  3  2  1  0
  4  3  1  0
  4  5  1  0
  5  6  1  0
  6  7  1  0
  8  7  1  0
  9  1  1  6
  9 11  1  0
 10 15  2  0
 11 12  2  0
 11 10  1  0
 12 13  1  0
 13 14  2  0
 15 14  1  0
 16  9  1  0
 17  9  1  0
 17 18  1  0
 18 19  1  0
 20 19  2  0
  1 21  1  0
  1 22  1  0
  2 23  1  6
  3 24  1  0
  3 25  1  0
  4 26  1  0
  4 27  1  0
  5 28  1  0
  5 29  1  0
  6 30  1  0
  6 31  1  0
  7 32  1  1
  8 33  1  0
 10 34  1  0
 12 35  1  0
 14 36  1  0
 16 37  1  0
 16 38  1  0
 16 39  1  0
 17 40  1  0
 17 41  1  0
 19 42  1  0
M  ISO  8  21   8  22   8  23  13  24  13  25  13  26  13  27  13  28  13
M  ISO  8  29  13  30  13  31  13  32  13  33  11  34  14  35  14  36  14
M  ISO  6  37   8  38   8  39   8  40   8  41   8  42   6
M  END
>  <minimizedAffinity>  (1) 
-5.21423483

>  <minimizedRMSD>  (1) 
0.384418517

$$$$
