
     RDKit          3D

 27 29  0  0  0  0  0  0  0  0999 V2000
   46.7690   32.9140   46.2030 O   0  0  0  0  0  0  0  0  0  0  0  0
   46.1070   33.8400   45.4110 C   0  0  0  0  0  0  0  0  0  0  0  0
   45.0260   34.6420   45.7200 C   0  0  0  0  0  0  0  0  0  0  0  0
   44.5090   35.5040   44.7900 C   0  0  0  0  0  0  0  0  0  0  0  0
   45.0080   35.6350   43.5140 C   0  0  0  0  0  0  0  0  0  0  0  0
   46.0770   34.8500   43.1890 C   0  0  0  0  0  0  0  0  0  0  0  0
   46.5950   34.9620   41.9190 C   0  0  0  0  0  0  0  0  0  0  0  0
   47.6740   34.1950   41.5320 C   0  0  0  0  0  0  0  0  0  0  0  0
   48.2390   33.3100   42.4220 C   0  0  0  0  0  0  0  0  0  0  0  0
   47.6990   33.2210   43.6850 C   0  0  0  0  0  0  0  0  0  0  0  0
   46.6220   33.9650   44.1160 C   0  0  0  0  0  0  0  0  0  0  0  0
   46.1270   32.4100   48.4040 C   0  0  0  0  0  0  0  0  0  0  0  0
   46.1810   32.0230   47.0530 C   0  0  0  0  0  0  0  0  0  0  0  0
   45.6450   30.7950   46.6980 C   0  0  0  0  0  0  0  0  0  0  0  0
   45.0950   30.0230   47.6670 N   0  0  0  0  0  0  0  0  0  0  0  0
   45.0530   30.4110   48.9550 C   0  0  0  0  0  0  0  0  0  0  0  0
   45.5670   31.6060   49.3400 N   0  0  0  0  0  0  0  0  0  0  0  0
   44.5761   34.5879   46.7223 H   0  0  0  0  0  0  0  0  0  0  0  0
   43.6483   36.1254   45.0784 H   0  0  0  0  0  0  0  0  0  0  0  0
   44.5673   36.3376   42.7914 H   0  0  0  0  0  0  0  0  0  0  0  0
   46.1448   35.6690   41.2067 H   0  0  0  0  0  0  0  0  0  0  0  0
   48.0819   34.2903   40.5149 H   0  0  0  0  0  0  0  0  0  0  0  0
   49.0998   32.6899   42.1315 H   0  0  0  0  0  0  0  0  0  0  0  0
   48.1547   32.5132   44.3931 H   0  0  0  0  0  0  0  0  0  0  0  0
   46.5462   33.3812   48.7058 H   0  0  0  0  0  0  0  0  0  0  0  0
   45.6655   30.4542   45.6523 H   0  0  0  0  0  0  0  0  0  0  0  0
   44.5956   29.7500   49.7059 H   0  0  0  0  0  0  0  0  0  0  0  0
  1 13  1  0
  2  3  2  0
  2  1  1  0
  4  3  1  0
  5  4  2  0
  6  5  1  0
  6 11  2  0
  7  6  1  0
  8  7  2  0
  8  9  1  0
  9 10  2  0
 10 11  1  0
 11  2  1  0
 12 17  2  0
 13 12  1  0
 14 13  2  0
 14 15  1  0
 15 16  2  0
 16 17  1  0
  3 18  1  0
  4 19  1  0
  5 20  1  0
  7 21  1  0
  8 22  1  0
  9 23  1  0
 10 24  1  0
 12 25  1  0
 14 26  1  0
 16 27  1  0
M  ISO  8  18  14  19  14  20  14  21  14  22  14  23  14  24  14  25  14
M  ISO  2  26  14  27  14
M  END
>  <minimizedAffinity>  (1) 
-5.59201241

>  <minimizedRMSD>  (1) 
5.01543665

$$$$
