
     RDKit          3D

 22 24  0  0  0  0  0  0  0  0999 V2000
   47.6000   34.0170   42.5590 O   0  0  0  0  0  0  0  0  0  0  0  0
   45.0450   33.9400   46.4440 N   0  0  0  0  0  0  0  0  0  0  0  0
   45.9890   32.9610   46.4290 C   0  0  0  0  0  0  0  0  0  0  0  0
   46.7250   33.0030   45.2850 N   0  0  0  0  0  0  0  0  0  0  0  0
   46.2010   34.0370   44.5980 C   0  0  0  0  0  0  0  0  0  0  0  0
   46.5940   34.5020   43.3610 C   0  0  0  0  0  0  0  0  0  0  0  0
   45.9380   35.5630   42.8320 N   0  0  0  0  0  0  0  0  0  0  0  0
   44.9220   36.1260   43.5390 C   0  0  0  0  0  0  0  0  0  0  0  0
   44.5070   35.6920   44.7650 N   0  0  0  0  0  0  0  0  0  0  0  0
   45.1670   34.6250   45.2950 C   0  0  0  0  0  0  0  0  0  0  0  0
   46.4300   32.8430   40.9050 C   0  0  0  0  0  0  0  0  0  0  0  0
   47.3930   33.7990   41.2280 C   0  0  0  0  0  0  0  0  0  0  0  0
   48.0590   34.4470   40.1790 C   0  0  0  0  0  0  0  0  0  0  0  0
   47.7240   34.1030   38.9040 N   0  0  0  0  0  0  0  0  0  0  0  0
   46.7950   33.1820   38.6300 C   0  0  0  0  0  0  0  0  0  0  0  0
   46.1380   32.5420   39.6170 N   0  0  0  0  0  0  0  0  0  0  0  0
   44.3644   34.1220   47.1953 H   0  0  0  0  0  0  0  0  0  0  0  0
   46.1383   32.2298   47.2371 H   0  0  0  0  0  0  0  0  0  0  0  0
   44.4009   36.9867   43.0944 H   0  0  0  0  0  0  0  0  0  0  0  0
   45.8962   32.3223   41.7137 H   0  0  0  0  0  0  0  0  0  0  0  0
   48.8272   35.2086   40.3785 H   0  0  0  0  0  0  0  0  0  0  0  0
   46.5630   32.9426   37.5817 H   0  0  0  0  0  0  0  0  0  0  0  0
  1  6  1  0
  3  2  1  0
  4  3  2  0
  5  4  1  0
  5 10  2  0
  6  5  1  0
  7  6  2  0
  7  8  1  0
  8  9  2  0
  9 10  1  0
 10  2  1  0
 11 12  2  0
 12  1  1  0
 13 12  1  0
 14 13  2  0
 15 14  1  0
 15 16  2  0
 16 11  1  0
  2 17  1  0
  3 18  1  0
  8 19  1  0
 11 20  1  0
 13 21  1  0
 15 22  1  0
M  ISO  6  17   9  18  14  19  14  20  14  21  14  22  14
M  END
>  <minimizedAffinity>  (1) 
-4.72067118

>  <minimizedRMSD>  (1) 
5.40409136

$$$$
