
     RDKit          3D

 20 21  0  0  0  0  0  0  0  0999 V2000
   46.1040   32.4060   48.4130 C   0  0  0  0  0  0  0  0  0  0  0  0
   46.1710   32.0150   47.0780 C   0  0  0  0  0  0  0  0  0  0  0  0
   45.6480   30.7760   46.7280 C   0  0  0  0  0  0  0  0  0  0  0  0
   45.0990   30.0060   47.7000 N   0  0  0  0  0  0  0  0  0  0  0  0
   45.0460   30.4060   48.9800 C   0  0  0  0  0  0  0  0  0  0  0  0
   45.5430   31.6010   49.3570 N   0  0  0  0  0  0  0  0  0  0  0  0
   46.7590   32.9180   46.2390 O   0  0  0  0  0  0  0  0  0  0  0  0
   46.1050   33.8190   45.4640 C   0  0  0  0  0  0  0  0  0  0  0  0
   46.5730   33.9160   44.1550 C   0  0  0  0  0  0  0  0  0  0  0  0
   46.0330   34.7780   43.2180 C   0  0  0  0  0  0  0  0  0  0  0  0
   44.9800   35.5880   43.5810 C   0  0  0  0  0  0  0  0  0  0  0  0
   44.5220   35.4820   44.8900 C   0  0  0  0  0  0  0  0  0  0  0  0
   45.0780   34.6280   45.7660 N   0  0  0  0  0  0  0  0  0  0  0  0
   46.5119   33.3834   48.7103 H   0  0  0  0  0  0  0  0  0  0  0  0
   45.6787   30.4274   45.6852 H   0  0  0  0  0  0  0  0  0  0  0  0
   44.5895   29.7478   49.7339 H   0  0  0  0  0  0  0  0  0  0  0  0
   47.4139   33.2749   43.8519 H   0  0  0  0  0  0  0  0  0  0  0  0
   46.4391   34.8161   42.1964 H   0  0  0  0  0  0  0  0  0  0  0  0
   44.5214   36.2880   42.8671 H   0  0  0  0  0  0  0  0  0  0  0  0
   43.6828   36.1137   45.2167 H   0  0  0  0  0  0  0  0  0  0  0  0
  1  6  2  0
  2  1  1  0
  3  2  2  0
  3  4  1  0
  4  5  2  0
  5  6  1  0
  7  2  1  0
  8 13  1  0
  8  7  1  0
  9  8  2  0
 10 11  2  0
 10  9  1  0
 11 12  1  0
 12 13  2  0
  1 14  1  0
  3 15  1  0
  5 16  1  0
  9 17  1  0
 10 18  1  0
 11 19  1  0
 12 20  1  0
M  ISO  7  14  14  15  14  16  14  17  14  18  14  19  14  20  14
M  END
>  <minimizedAffinity>  (1) 
-4.37170982

>  <minimizedRMSD>  (1) 
5.22033739

$$$$
