
     RDKit          3D

 16 17  0  0  0  0  0  0  0  0999 V2000
   44.4000   35.8240   44.4440 C   0  0  0  0  0  0  0  0  0  0  0  0
   44.6360   35.1300   43.2450 C   0  0  0  0  0  0  0  0  0  0  0  0
   45.2210   33.8770   43.3150 C   0  0  0  0  0  0  0  0  0  0  0  0
   45.5400   33.3660   44.5260 N   0  0  0  0  0  0  0  0  0  0  0  0
   45.3050   34.0460   45.6690 C   0  0  0  0  0  0  0  0  0  0  0  0
   44.7400   35.2670   45.6420 N   0  0  0  0  0  0  0  0  0  0  0  0
   44.2400   35.8210   42.1280 O   0  0  0  0  0  0  0  0  0  0  0  0
   43.2090   35.4560   41.3020 C   0  0  0  0  0  0  0  0  0  0  0  0
   41.9420   35.4310   41.7520 N   0  0  0  0  0  0  0  0  0  0  0  0
   41.1220   35.0580   40.8160 O   0  0  0  0  0  0  0  0  0  0  0  0
   41.8220   34.8280   39.7310 C   0  0  0  0  0  0  0  0  0  0  0  0
   43.1390   35.0690   40.0010 N   0  0  0  0  0  0  0  0  0  0  0  0
   43.9385   36.8221   44.4164 H   0  0  0  0  0  0  0  0  0  0  0  0
   45.4237   33.3046   42.3978 H   0  0  0  0  0  0  0  0  0  0  0  0
   45.5790   33.5959   46.6346 H   0  0  0  0  0  0  0  0  0  0  0  0
   41.4159   34.4961   38.7641 H   0  0  0  0  0  0  0  0  0  0  0  0
  1  6  2  0
  2  3  2  0
  2  1  1  0
  3  4  1  0
  4  5  2  0
  6  5  1  0
  7  2  1  0
  8  9  2  0
  8  7  1  0
 10  9  1  0
 11 12  2  0
 11 10  1  0
 12  8  1  0
  1 13  1  0
  3 14  1  0
  5 15  1  0
 11 16  1  0
M  ISO  4  13  14  14  14  15  14  16  14
M  END
>  <minimizedAffinity>  (1) 
-3.68762445

>  <minimizedRMSD>  (1) 
1.54599106

$$$$
