
     RDKit          3D

 19 20  0  0  0  0  0  0  0  0999 V2000
   45.0340   32.5470   47.8840 C   0  0  0  0  0  0  0  0  0  0  0  0
   45.5930   33.2630   46.8100 C   0  0  0  0  0  0  0  0  0  0  0  0
   46.8130   32.8210   46.3110 C   0  0  0  0  0  0  0  0  0  0  0  0
   47.4080   31.7370   46.8650 N   0  0  0  0  0  0  0  0  0  0  0  0
   46.8440   31.0820   47.8870 C   0  0  0  0  0  0  0  0  0  0  0  0
   45.6700   31.4780   48.3950 N   0  0  0  0  0  0  0  0  0  0  0  0
   44.8710   34.3370   46.3600 O   0  0  0  0  0  0  0  0  0  0  0  0
   44.9590   34.7850   45.0490 C   0  0  0  0  0  0  0  0  0  0  0  0
   45.1600   33.7520   44.1510 C   0  0  0  0  0  0  0  0  0  0  0  0
   45.2760   33.9930   42.7810 C   0  0  0  0  0  0  0  0  0  0  0  0
   45.1870   35.2680   42.3290 N   0  0  0  0  0  0  0  0  0  0  0  0
   44.9880   36.2580   43.2480 C   0  0  0  0  0  0  0  0  0  0  0  0
   44.8750   36.0370   44.5700 N   0  0  0  0  0  0  0  0  0  0  0  0
   44.0700   32.8637   48.3088 H   0  0  0  0  0  0  0  0  0  0  0  0
   47.2919   33.3476   45.4723 H   0  0  0  0  0  0  0  0  0  0  0  0
   47.3522   30.2057   48.3158 H   0  0  0  0  0  0  0  0  0  0  0  0
   45.2298   32.7196   44.5242 H   0  0  0  0  0  0  0  0  0  0  0  0
   45.4371   33.1614   42.0792 H   0  0  0  0  0  0  0  0  0  0  0  0
   44.9160   37.2946   42.8870 H   0  0  0  0  0  0  0  0  0  0  0  0
  1  6  2  0
  2  1  1  0
  3  2  2  0
  3  4  1  0
  4  5  2  0
  5  6  1  0
  7  2  1  0
  8  7  1  0
  9  8  2  0
 10  9  1  0
 11 10  2  0
 11 12  1  0
 12 13  2  0
 13  8  1  0
  1 14  1  0
  3 15  1  0
  5 16  1  0
  9 17  1  0
 10 18  1  0
 12 19  1  0
M  ISO  6  14  14  15  14  16  14  17  14  18  14  19  14
M  END
>  <minimizedAffinity>  (1) 
-3.68330717

>  <minimizedRMSD>  (1) 
4.41126394

$$$$
