
     RDKit          3D

 15 15  0  0  0  0  0  0  0  0999 V2000
   44.4090   35.8000   44.4990 C   0  0  0  0  0  0  0  0  0  0  0  0
   44.6230   35.1300   43.2940 C   0  0  0  0  0  0  0  0  0  0  0  0
   45.2180   33.8620   43.3260 C   0  0  0  0  0  0  0  0  0  0  0  0
   45.5600   33.3440   44.5410 N   0  0  0  0  0  0  0  0  0  0  0  0
   45.3460   34.0030   45.6860 C   0  0  0  0  0  0  0  0  0  0  0  0
   44.7700   35.2340   45.6820 N   0  0  0  0  0  0  0  0  0  0  0  0
   44.2130   35.8120   42.1750 O   0  0  0  0  0  0  0  0  0  0  0  0
   43.0920   35.4770   41.4380 C   0  0  0  0  0  0  0  0  0  0  0  0
   41.8390   35.5370   42.1440 N   0  0  0  0  0  0  0  0  0  0  0  0
   43.2380   35.1500   40.2260 O   0  0  0  0  0  0  0  0  0  0  0  0
   43.9434   36.7966   44.4922 H   0  0  0  0  0  0  0  0  0  0  0  0
   45.4040   33.3005   42.3986 H   0  0  0  0  0  0  0  0  0  0  0  0
   45.6396   33.5431   46.6411 H   0  0  0  0  0  0  0  0  0  0  0  0
   40.9622   35.3007   41.6580 H   0  0  0  0  0  0  0  0  0  0  0  0
   41.8192   35.8163   43.1352 H   0  0  0  0  0  0  0  0  0  0  0  0
  1  6  2  0
  2  3  2  0
  2  1  1  0
  3  4  1  0
  4  5  2  0
  6  5  1  0
  7  2  1  0
  8  9  1  0
  8  7  1  0
 10  8  2  0
  1 11  1  0
  3 12  1  0
  5 13  1  0
  9 14  1  0
  9 15  1  0
M  ISO  3  11  14  12  14  13  14
M  END
>  <minimizedAffinity>  (1) 
-3.55409098

>  <minimizedRMSD>  (1) 
1.31955898

$$$$
