
     RDKit          3D

 14 14  0  0  0  0  0  0  0  0999 V2000
   44.8170   34.9540   45.1860 C   0  0  0  0  0  0  0  0  0  0  0  0
   45.3990   34.9700   43.9130 C   0  0  0  0  0  0  0  0  0  0  0  0
   46.4570   34.1090   43.6490 C   0  0  0  0  0  0  0  0  0  0  0  0
   46.8830   33.2870   44.6400 N   0  0  0  0  0  0  0  0  0  0  0  0
   46.3190   33.2810   45.8530 C   0  0  0  0  0  0  0  0  0  0  0  0
   45.2850   34.1100   46.1380 N   0  0  0  0  0  0  0  0  0  0  0  0
   44.8490   35.8620   43.0260 O   0  0  0  0  0  0  0  0  0  0  0  0
   43.8310   35.5510   42.1310 C   0  0  0  0  0  0  0  0  0  0  0  0
   43.9730   35.2490   40.9000 O   0  0  0  0  0  0  0  0  0  0  0  0
   42.5110   35.5620   42.6020 O   0  0  0  0  0  0  0  0  0  0  0  0
   43.9780   35.6278   45.4144 H   0  0  0  0  0  0  0  0  0  0  0  0
   46.9377   34.0944   42.6597 H   0  0  0  0  0  0  0  0  0  0  0  0
   46.6979   32.5968   46.6266 H   0  0  0  0  0  0  0  0  0  0  0  0
   41.7648   35.3449   41.9887 H   0  0  0  0  0  0  0  0  0  0  0  0
  1  6  2  0
  2  1  1  0
  3  2  2  0
  3  4  1  0
  4  5  2  0
  5  6  1  0
  7  2  1  0
  8 10  1  0
  8  7  1  0
  9  8  2  0
  1 11  1  0
  3 12  1  0
  5 13  1  0
 10 14  1  0
M  ISO  4  11  14  12  14  13  14  14   3
M  END
>  <minimizedAffinity>  (1) 
-3.48055482

>  <minimizedRMSD>  (1) 
2.42671657

$$$$
