
     RDKit          3D

 20 20  0  0  0  0  0  0  0  0999 V2000
   44.4100   35.8520   44.4930 C   0  0  0  0  0  0  0  0  0  0  0  0
   44.8040   35.2050   43.2960 C   0  0  0  0  0  0  0  0  0  0  0  0
   45.4480   33.9810   43.4010 C   0  0  0  0  0  0  0  0  0  0  0  0
   45.6670   33.4640   44.6270 N   0  0  0  0  0  0  0  0  0  0  0  0
   45.2850   34.0960   45.7530 C   0  0  0  0  0  0  0  0  0  0  0  0
   44.6540   35.2930   45.7010 N   0  0  0  0  0  0  0  0  0  0  0  0
   44.4760   35.9170   42.1720 O   0  0  0  0  0  0  0  0  0  0  0  0
   43.6340   35.4850   41.1390 C   0  0  0  0  0  0  0  0  0  0  0  0
   42.2880   35.1550   41.7650 C   0  0  0  0  0  0  0  0  0  0  0  0
   44.1310   34.2000   40.5110 C   0  0  0  0  0  0  0  0  0  0  0  0
   43.8977   36.8240   44.4397 H   0  0  0  0  0  0  0  0  0  0  0  0
   45.7744   33.4414   42.4997 H   0  0  0  0  0  0  0  0  0  0  0  0
   45.4886   33.6329   46.7298 H   0  0  0  0  0  0  0  0  0  0  0  0
   43.5880   36.2741   40.3740 H   0  0  0  0  0  0  0  0  0  0  0  0
   42.3781   35.1771   42.8611 H   0  0  0  0  0  0  0  0  0  0  0  0
   41.5423   35.8969   41.4434 H   0  0  0  0  0  0  0  0  0  0  0  0
   41.9700   34.1523   41.4434 H   0  0  0  0  0  0  0  0  0  0  0  0
   44.4065   33.4876   41.3026 H   0  0  0  0  0  0  0  0  0  0  0  0
   43.3361   33.7654   39.8871 H   0  0  0  0  0  0  0  0  0  0  0  0
   45.0114   34.4134   39.8871 H   0  0  0  0  0  0  0  0  0  0  0  0
  1  6  2  0
  2  3  2  0
  2  1  1  0
  3  4  1  0
  4  5  2  0
  6  5  1  0
  7  2  1  0
  8  9  1  0
  8  7  1  0
 10  8  1  0
  1 11  1  0
  3 12  1  0
  5 13  1  0
  8 14  1  0
  9 15  1  0
  9 16  1  0
  9 17  1  0
 10 18  1  0
 10 19  1  0
 10 20  1  0
M  ISO  8  11  14  12  14  13  14  14   8  15   8  16   8  17   8  18   8
M  ISO  2  19   8  20   8
M  END
>  <minimizedAffinity>  (1) 
-3.23003483

>  <minimizedRMSD>  (1) 
1.78404415

$$$$
