
     RDKit          3D

 18 19  0  0  0  0  0  0  0  0999 V2000
   44.7430   35.5560   44.8870 C   0  0  0  0  0  0  0  0  0  0  0  0
   45.3790   35.8590   43.6840 C   0  0  0  0  0  0  0  0  0  0  0  0
   46.2940   34.9690   43.1490 C   0  0  0  0  0  0  0  0  0  0  0  0
   46.5400   33.8290   43.8230 N   0  0  0  0  0  0  0  0  0  0  0  0
   45.9220   33.5420   44.9870 C   0  0  0  0  0  0  0  0  0  0  0  0
   45.0290   34.3890   45.5270 N   0  0  0  0  0  0  0  0  0  0  0  0
   44.9910   37.0720   43.1510 O   0  0  0  0  0  0  0  0  0  0  0  0
   45.1620   38.2280   43.8910 C   0  0  0  0  0  0  0  0  0  0  0  0
   45.4970   39.3970   43.2350 C   0  0  0  0  0  0  0  0  0  0  0  0
   45.5970   40.3680   44.2240 C   0  0  0  0  0  0  0  0  0  0  0  0
   45.3260   39.7610   45.4130 C   0  0  0  0  0  0  0  0  0  0  0  0
   45.0740   38.4970   45.1690 O   0  0  0  0  0  0  0  0  0  0  0  0
   44.0129   36.2572   45.3174 H   0  0  0  0  0  0  0  0  0  0  0  0
   46.8060   35.1865   42.2000 H   0  0  0  0  0  0  0  0  0  0  0  0
   46.1528   32.5985   45.5032 H   0  0  0  0  0  0  0  0  0  0  0  0
   45.6523   39.5312   42.1543 H   0  0  0  0  0  0  0  0  0  0  0  0
   45.8481   41.4285   44.0747 H   0  0  0  0  0  0  0  0  0  0  0  0
   45.3196   40.2444   46.4011 H   0  0  0  0  0  0  0  0  0  0  0  0
  1  6  2  0
  2  1  1  0
  3  2  2  0
  3  4  1  0
  4  5  2  0
  5  6  1  0
  7  2  1  0
  7  8  1  0
  8 12  1  0
  9  8  2  0
  9 10  1  0
 10 11  2  0
 12 11  1  0
  1 13  1  0
  3 14  1  0
  5 15  1  0
  9 16  1  0
 10 17  1  0
 11 18  1  0
M  ISO  6  13  14  14  14  15  14  16  14  17  14  18  14
M  END
>  <minimizedAffinity>  (1) 
-2.77911282

>  <minimizedRMSD>  (1) 
1.10089505

$$$$
