
     RDKit          3D

 13 13  0  0  0  0  0  0  0  0999 V2000
   44.6210   36.1570   44.8090 C   0  0  0  0  0  0  0  0  0  0  0  0
   45.1990   36.5020   43.5710 C   0  0  0  0  0  0  0  0  0  0  0  0
   45.9440   35.5550   42.8900 C   0  0  0  0  0  0  0  0  0  0  0  0
   46.0820   34.3280   43.4540 N   0  0  0  0  0  0  0  0  0  0  0  0
   45.5300   34.0070   44.6280 C   0  0  0  0  0  0  0  0  0  0  0  0
   44.7970   34.9070   45.3200 N   0  0  0  0  0  0  0  0  0  0  0  0
   44.9290   37.8080   43.1870 O   0  0  0  0  0  0  0  0  0  0  0  0
   45.5340   38.9140   43.8070 C   0  0  0  0  0  0  0  0  0  0  0  0
   45.2480   39.6110   44.8350 O   0  0  0  0  0  0  0  0  0  0  0  0
   44.0268   36.8984   45.3634 H   0  0  0  0  0  0  0  0  0  0  0  0
   46.4099   35.7894   41.9215 H   0  0  0  0  0  0  0  0  0  0  0  0
   45.6743   32.9960   45.0368 H   0  0  0  0  0  0  0  0  0  0  0  0
   46.4489   39.2497   43.2968 H   0  0  0  0  0  0  0  0  0  0  0  0
  1  6  2  0
  2  1  1  0
  3  4  1  0
  3  2  2  0
  4  5  2  0
  5  6  1  0
  7  2  1  0
  7  8  1  0
  8  9  2  0
  1 10  1  0
  3 11  1  0
  5 12  1  0
  8 13  1  0
M  ISO  4  10  14  11  14  12  14  13   6
M  END
>  <minimizedAffinity>  (1) 
-2.66964936

>  <minimizedRMSD>  (1) 
0.874524832

$$$$
