
     RDKit          3D

 30 31  0  0  1  0  0  0  0  0999 V2000
   47.4990   34.5950   41.2970 C   0  0  0  0  0  0  0  0  0  0  0  0
   48.7560   35.2790   41.8080 C   0  0  0  0  0  0  0  0  0  0  0  0
   49.9690   34.0710   42.3500 S   0  0  0  0  0  0  0  0  0  0  0  0
   50.4390   32.2160   40.4160 N   0  0  0  0  0  0  0  0  0  0  0  0
   51.7260   31.8400   40.9400 C   0  0  0  0  0  0  0  0  0  0  0  0
   51.3710   30.8510   42.0240 C   0  0  0  0  0  0  0  0  0  0  0  0
   50.0550   31.3610   42.5500 C   0  0  0  0  0  0  0  0  0  0  0  0
   49.6550   32.4480   41.6040 C   0  0  1  0  0  0  0  0  0  0  0  0
   46.3440   35.1820   41.7940 O   0  0  0  0  0  0  0  0  0  0  0  0
   45.0440   36.1190   43.4890 C   0  0  0  0  0  0  0  0  0  0  0  0
   45.8590   35.0640   43.0560 C   0  0  0  0  0  0  0  0  0  0  0  0
   46.0810   34.0220   43.9540 C   0  0  0  0  0  0  0  0  0  0  0  0
   45.5040   34.0880   45.1790 N   0  0  0  0  0  0  0  0  0  0  0  0
   44.7350   35.0980   45.5680 C   0  0  0  0  0  0  0  0  0  0  0  0
   44.5150   36.0990   44.7220 N   0  0  0  0  0  0  0  0  0  0  0  0
   47.5203   33.5391   41.6045 H   0  0  0  0  0  0  0  0  0  0  0  0
   47.4830   34.6926   40.2015 H   0  0  0  0  0  0  0  0  0  0  0  0
   49.1892   35.8864   40.9997 H   0  0  0  0  0  0  0  0  0  0  0  0
   48.4864   35.9144   42.6645 H   0  0  0  0  0  0  0  0  0  0  0  0
   50.5077   33.0711   39.8459 H   0  0  0  0  0  0  0  0  0  0  0  0
   52.3479   31.3704   40.1636 H   0  0  0  0  0  0  0  0  0  0  0  0
   52.3133   32.6949   41.3064 H   0  0  0  0  0  0  0  0  0  0  0  0
   51.2628   29.8373   41.6109 H   0  0  0  0  0  0  0  0  0  0  0  0
   52.1431   30.7754   42.8038 H   0  0  0  0  0  0  0  0  0  0  0  0
   49.3036   30.5577   42.5558 H   0  0  0  0  0  0  0  0  0  0  0  0
   50.1365   31.7236   43.5853 H   0  0  0  0  0  0  0  0  0  0  0  0
   48.5815   32.4402   41.3639 H   0  0  0  0  0  0  0  0  0  0  0  0
   44.8377   36.9649   42.8168 H   0  0  0  0  0  0  0  0  0  0  0  0
   46.7108   33.1644   43.6750 H   0  0  0  0  0  0  0  0  0  0  0  0
   44.2878   35.1061   46.5730 H   0  0  0  0  0  0  0  0  0  0  0  0
  1  9  1  0
  1  2  1  0
  2  3  1  0
  4  5  1  0
  4  8  1  0
  5  6  1  0
  6  7  1  0
  8  3  1  0
  8  7  1  0
  9 11  1  0
 10 15  2  0
 11 10  1  0
 11 12  2  0
 12 13  1  0
 13 14  2  0
 15 14  1  0
  1 16  1  0
  1 17  1  0
  2 18  1  0
  2 19  1  0
  4 20  1  0
  5 21  1  0
  5 22  1  0
  6 23  1  0
  6 24  1  0
  7 25  1  0
  7 26  1  0
  8 27  1  6
 10 28  1  0
 12 29  1  0
 14 30  1  0
M  ISO  8  16   8  17   8  18   8  19   8  20   5  21  13  22  13  23  13
M  ISO  7  24  13  25  13  26  13  27  13  28  14  29  14  30  14
M  END
>  <minimizedAffinity>  (1) 
-3.95641279

>  <minimizedRMSD>  (1) 
1.14835525

$$$$
