
     RDKit          3D

 21 21  0  0  0  0  0  0  0  0999 V2000
   47.2750   34.5100   41.1800 C   0  0  0  0  0  0  0  0  0  0  0  0
   48.5060   35.3930   41.2280 C   0  0  0  0  0  0  0  0  0  0  0  0
   49.6880   34.7520   42.4340 S   0  0  0  0  0  0  0  0  0  0  0  0
   50.2200   33.0770   42.0380 C   0  0  0  0  0  0  0  0  0  0  0  0
   49.9730   32.6990   40.7470 F   0  0  0  0  0  0  0  0  0  0  0  0
   49.6370   32.1410   42.8760 F   0  0  0  0  0  0  0  0  0  0  0  0
   51.6100   33.0550   42.2230 F   0  0  0  0  0  0  0  0  0  0  0  0
   46.1500   35.1220   41.7410 O   0  0  0  0  0  0  0  0  0  0  0  0
   44.9490   36.0810   43.4950 C   0  0  0  0  0  0  0  0  0  0  0  0
   45.7370   35.0170   43.0470 C   0  0  0  0  0  0  0  0  0  0  0  0
   46.0230   33.9830   43.9240 C   0  0  0  0  0  0  0  0  0  0  0  0
   45.5190   34.0580   45.1820 N   0  0  0  0  0  0  0  0  0  0  0  0
   44.7710   35.0700   45.6030 C   0  0  0  0  0  0  0  0  0  0  0  0
   44.4950   36.0630   44.7650 N   0  0  0  0  0  0  0  0  0  0  0  0
   47.0566   34.2674   40.1295 H   0  0  0  0  0  0  0  0  0  0  0  0
   47.4907   33.6068   41.7696 H   0  0  0  0  0  0  0  0  0  0  0  0
   48.9767   35.4143   40.2340 H   0  0  0  0  0  0  0  0  0  0  0  0
   48.2070   36.4093   41.5242 H   0  0  0  0  0  0  0  0  0  0  0  0
   44.7036   36.9176   42.8242 H   0  0  0  0  0  0  0  0  0  0  0  0
   46.6395   33.1277   43.6103 H   0  0  0  0  0  0  0  0  0  0  0  0
   44.3845   35.0864   46.6327 H   0  0  0  0  0  0  0  0  0  0  0  0
  1  2  1  0
  1  8  1  0
  2  3  1  0
  4  7  1  0
  4  3  1  0
  4  6  1  0
  5  4  1  0
  8 10  1  0
  9 14  2  0
 10  9  1  0
 10 11  2  0
 11 12  1  0
 12 13  2  0
 14 13  1  0
  1 15  1  0
  1 16  1  0
  2 17  1  0
  2 18  1  0
  9 19  1  0
 11 20  1  0
 13 21  1  0
M  ISO  7  15   8  16   8  17   8  18   8  19  14  20  14  21  14
M  END
>  <minimizedAffinity>  (1) 
-3.84900975

>  <minimizedRMSD>  (1) 
2.10910749

$$$$
