
     RDKit          3D

 24 25  0  0  0  0  0  0  0  0999 V2000
   47.3950   34.5450   41.1700 C   0  0  0  0  0  0  0  0  0  0  0  0
   48.6780   35.3430   41.2510 C   0  0  0  0  0  0  0  0  0  0  0  0
   49.7790   34.6460   42.5130 S   0  0  0  0  0  0  0  0  0  0  0  0
   50.2490   32.9680   42.1110 C   0  0  0  0  0  0  0  0  0  0  0  0
   49.3690   32.0090   42.6190 C   0  0  0  0  0  0  0  0  0  0  0  0
   50.1250   30.3670   42.0340 S   0  0  0  0  0  0  0  0  0  0  0  0
   51.5210   31.3770   41.1970 C   0  0  0  0  0  0  0  0  0  0  0  0
   51.2500   32.4410   41.4350 N   0  0  0  0  0  0  0  0  0  0  0  0
   46.3200   35.2180   41.7590 O   0  0  0  0  0  0  0  0  0  0  0  0
   45.0050   36.0470   43.4960 C   0  0  0  0  0  0  0  0  0  0  0  0
   45.8800   35.0410   43.0450 C   0  0  0  0  0  0  0  0  0  0  0  0
   46.1950   34.0070   43.9240 C   0  0  0  0  0  0  0  0  0  0  0  0
   45.6510   34.0280   45.1430 N   0  0  0  0  0  0  0  0  0  0  0  0
   44.8230   34.9790   45.5700 C   0  0  0  0  0  0  0  0  0  0  0  0
   44.5000   35.9830   44.7550 N   0  0  0  0  0  0  0  0  0  0  0  0
   47.1597   34.3578   40.1119 H   0  0  0  0  0  0  0  0  0  0  0  0
   47.5464   33.6029   41.7174 H   0  0  0  0  0  0  0  0  0  0  0  0
   49.1836   35.3162   40.2744 H   0  0  0  0  0  0  0  0  0  0  0  0
   48.4356   36.3808   41.5234 H   0  0  0  0  0  0  0  0  0  0  0  0
   48.4576   32.1667   43.2144 H   0  0  0  0  0  0  0  0  0  0  0  0
   52.3813   31.0046   40.6215 H   0  0  0  0  0  0  0  0  0  0  0  0
   44.7317   36.8805   42.8323 H   0  0  0  0  0  0  0  0  0  0  0  0
   46.8734   33.1955   43.6219 H   0  0  0  0  0  0  0  0  0  0  0  0
   44.4084   34.9365   46.5880 H   0  0  0  0  0  0  0  0  0  0  0  0
  1  2  1  0
  1  9  1  0
  2  3  1  0
  4  3  1  0
  4  5  2  0
  6  5  1  0
  7  8  2  0
  7  6  1  0
  8  4  1  0
  9 11  1  0
 10 15  2  0
 11 10  1  0
 11 12  2  0
 12 13  1  0
 13 14  2  0
 15 14  1  0
  1 16  1  0
  1 17  1  0
  2 18  1  0
  2 19  1  0
  5 20  1  0
  7 21  1  0
 10 22  1  0
 12 23  1  0
 14 24  1  0
M  ISO  8  16   8  17   8  18   8  19   8  20  14  21  14  22  14  23  14
M  ISO  1  24  14
M  END
>  <minimizedAffinity>  (1) 
-3.83827901

>  <minimizedRMSD>  (1) 
0.6782794

$$$$
