
     RDKit          3D

 27 27  0  0  0  0  0  0  0  0999 V2000
   45.2310   35.6680   42.4800 O   0  0  0  0  0  0  0  0  0  0  0  0
   46.4340   34.0470   43.6370 C   0  0  0  0  0  0  0  0  0  0  0  0
   45.4260   35.0200   43.6510 C   0  0  0  0  0  0  0  0  0  0  0  0
   44.7330   35.2180   44.8580 C   0  0  0  0  0  0  0  0  0  0  0  0
   45.0740   34.4650   45.9310 N   0  0  0  0  0  0  0  0  0  0  0  0
   46.0370   33.5530   45.8760 C   0  0  0  0  0  0  0  0  0  0  0  0
   46.7310   33.3240   44.7470 N   0  0  0  0  0  0  0  0  0  0  0  0
   44.0160   35.8500   41.8230 C   0  0  0  0  0  0  0  0  0  0  0  0
   43.7400   34.8040   40.7600 C   0  0  0  0  0  0  0  0  0  0  0  0
   42.1590   35.1010   39.9620 S   0  0  0  0  0  0  0  0  0  0  0  0
   41.5410   33.6200   39.1480 C   0  0  0  0  0  0  0  0  0  0  0  0
   40.4640   33.8940   38.1360 C   0  0  0  0  0  0  0  0  0  0  0  0
   42.6850   32.9160   38.4210 C   0  0  0  0  0  0  0  0  0  0  0  0
   46.9956   33.8654   42.7087 H   0  0  0  0  0  0  0  0  0  0  0  0
   43.9315   35.9679   44.9295 H   0  0  0  0  0  0  0  0  0  0  0  0
   46.2736   32.9691   46.7777 H   0  0  0  0  0  0  0  0  0  0  0  0
   43.2079   35.8106   42.5683 H   0  0  0  0  0  0  0  0  0  0  0  0
   44.0666   36.8235   41.3133 H   0  0  0  0  0  0  0  0  0  0  0  0
   44.5376   34.8406   40.0034 H   0  0  0  0  0  0  0  0  0  0  0  0
   43.7103   33.8149   41.2403 H   0  0  0  0  0  0  0  0  0  0  0  0
   41.1107   32.9968   39.9458 H   0  0  0  0  0  0  0  0  0  0  0  0
   39.5246   34.1330   38.6559 H   0  0  0  0  0  0  0  0  0  0  0  0
   40.7611   34.7452   37.5057 H   0  0  0  0  0  0  0  0  0  0  0  0
   40.3182   33.0043   37.5057 H   0  0  0  0  0  0  0  0  0  0  0  0
   43.3800   32.4883   39.1586 H   0  0  0  0  0  0  0  0  0  0  0  0
   42.2787   32.1114   37.7904 H   0  0  0  0  0  0  0  0  0  0  0  0
   43.2201   33.6413   37.7904 H   0  0  0  0  0  0  0  0  0  0  0  0
  1  3  1  0
  2  3  2  0
  2  7  1  0
  3  4  1  0
  4  5  2  0
  6  5  1  0
  7  6  2  0
  8  1  1  0
  9  8  1  0
 10  9  1  0
 11 10  1  0
 12 11  1  0
 13 11  1  0
  2 14  1  0
  4 15  1  0
  6 16  1  0
  8 17  1  0
  8 18  1  0
  9 19  1  0
  9 20  1  0
 11 21  1  0
 12 22  1  0
 12 23  1  0
 12 24  1  0
 13 25  1  0
 13 26  1  0
 13 27  1  0
M  ISO  8  14  14  15  14  16  14  17   8  18   8  19   8  20   8  21   8
M  ISO  6  22   8  23   8  24   8  25   8  26   8  27   8
M  END
>  <minimizedAffinity>  (1) 
-3.30632877

>  <minimizedRMSD>  (1) 
6.31434107

$$$$
