
     RDKit          3D

 34 35  0  0  0  0  0  0  0  0999 V2000
   46.9980   34.5370   41.5570 C   0  0  0  0  0  0  0  0  0  0  0  0
   48.3080   35.2190   41.2840 C   0  0  0  0  0  0  0  0  0  0  0  0
   49.5680   34.7110   42.4790 S   0  0  0  0  0  0  0  0  0  0  0  0
   50.0460   33.0200   42.2540 C   0  0  0  0  0  0  0  0  0  0  0  0
   51.1950   32.5330   41.6350 C   0  0  0  0  0  0  0  0  0  0  0  0
   51.4080   31.1810   41.5470 C   0  0  0  0  0  0  0  0  0  0  0  0
   50.4930   30.3000   42.0680 C   0  0  0  0  0  0  0  0  0  0  0  0
   49.3480   30.7960   42.6850 C   0  0  0  0  0  0  0  0  0  0  0  0
   49.1870   32.1330   42.7440 N   0  0  0  0  0  0  0  0  0  0  0  0
   46.2710   35.1450   42.5760 O   0  0  0  0  0  0  0  0  0  0  0  0
   45.0020   35.3650   44.5160 C   0  0  0  0  0  0  0  0  0  0  0  0
   46.0060   34.6720   43.8010 C   0  0  0  0  0  0  0  0  0  0  0  0
   46.6020   33.5970   44.4190 C   0  0  0  0  0  0  0  0  0  0  0  0
   46.2310   33.2310   45.6660 N   0  0  0  0  0  0  0  0  0  0  0  0
   45.2670   33.9030   46.3410 C   0  0  0  0  0  0  0  0  0  0  0  0
   44.6760   34.9420   45.7690 N   0  0  0  0  0  0  0  0  0  0  0  0
   44.9150   33.4740   47.6510 N   0  0  0  0  0  0  0  0  0  0  0  0
   45.0440   32.0830   47.9800 C   0  0  0  0  0  0  0  0  0  0  0  0
   45.2310   31.1630   47.0710 N   0  0  0  0  0  0  0  0  0  0  0  0
   44.9540   31.7710   49.3660 N   0  0  0  0  0  0  0  0  0  0  0  0
   45.3230   30.1560   47.3260 H   0  0  0  0  0  0  0  0  0  0  0  0
   47.1987   33.4941   41.8436 H   0  0  0  0  0  0  0  0  0  0  0  0
   46.3955   34.6016   40.6389 H   0  0  0  0  0  0  0  0  0  0  0  0
   48.6463   34.9551   40.2711 H   0  0  0  0  0  0  0  0  0  0  0  0
   48.1612   36.3056   41.3716 H   0  0  0  0  0  0  0  0  0  0  0  0
   51.9324   33.2337   41.2163 H   0  0  0  0  0  0  0  0  0  0  0  0
   52.3163   30.8007   41.0567 H   0  0  0  0  0  0  0  0  0  0  0  0
   50.6626   29.2154   41.9987 H   0  0  0  0  0  0  0  0  0  0  0  0
   48.5960   30.1163   43.1122 H   0  0  0  0  0  0  0  0  0  0  0  0
   44.4929   36.2310   44.0679 H   0  0  0  0  0  0  0  0  0  0  0  0
   47.3861   33.0313   43.8944 H   0  0  0  0  0  0  0  0  0  0  0  0
   44.5740   34.1491   48.3502 H   0  0  0  0  0  0  0  0  0  0  0  0
   45.0371   30.7937   49.6803 H   0  0  0  0  0  0  0  0  0  0  0  0
   44.8058   32.5226   50.0545 H   0  0  0  0  0  0  0  0  0  0  0  0
  1 10  1  0
  2  1  1  0
  2  3  1  0
  4  3  1  0
  4  9  1  0
  5  4  2  0
  6  5  1  0
  6  7  2  0
  7  8  1  0
  8  9  2  0
 10 12  1  0
 11 16  2  0
 12 13  2  0
 12 11  1  0
 13 14  1  0
 14 15  2  0
 15 17  1  0
 16 15  1  0
 17 18  1  0
 18 20  1  0
 19 21  1  0
 19 18  2  0
  1 22  1  0
  1 23  1  0
  2 24  1  0
  2 25  1  0
  5 26  1  0
  6 27  1  0
  7 28  1  0
  8 29  1  0
 11 30  1  0
 13 31  1  0
 17 32  1  0
 20 33  1  0
 20 34  1  0
M  ISO  8  22   8  23   8  24   8  25   8  26  14  27  14  28  14  29  14
M  ISO  2  30  14  31  14
M  END
>  <minimizedAffinity>  (1) 
-5.58847904

>  <minimizedRMSD>  (1) 
1.11249423

$$$$
