
     RDKit          3D

 42 44  0  0  0  0  0  0  0  0999 V2000
   47.0780   34.2580   40.5240 C   0  0  0  0  0  0  0  0  0  0  0  0
   48.3370   35.0640   40.6850 C   0  0  0  0  0  0  0  0  0  0  0  0
   49.1070   34.7600   42.2880 S   0  0  0  0  0  0  0  0  0  0  0  0
   49.6470   33.0820   42.4660 C   0  0  0  0  0  0  0  0  0  0  0  0
   50.9010   32.5650   42.1710 C   0  0  0  0  0  0  0  0  0  0  0  0
   51.1480   31.2280   42.3690 C   0  0  0  0  0  0  0  0  0  0  0  0
   50.1650   30.4000   42.8550 C   0  0  0  0  0  0  0  0  0  0  0  0
   48.9110   30.9330   43.1460 C   0  0  0  0  0  0  0  0  0  0  0  0
   48.7230   32.2490   42.9350 N   0  0  0  0  0  0  0  0  0  0  0  0
   46.0360   34.7060   41.3260 O   0  0  0  0  0  0  0  0  0  0  0  0
   43.8650   35.4550   41.7050 C   0  0  0  0  0  0  0  0  0  0  0  0
   44.7260   34.4490   41.2070 C   0  0  0  0  0  0  0  0  0  0  0  0
   44.1500   33.3260   40.6610 C   0  0  0  0  0  0  0  0  0  0  0  0
   42.8030   33.2010   40.6070 N   0  0  0  0  0  0  0  0  0  0  0  0
   41.9920   34.1780   41.0900 C   0  0  0  0  0  0  0  0  0  0  0  0
   42.5220   35.2850   41.6280 N   0  0  0  0  0  0  0  0  0  0  0  0
   40.5800   33.9800   41.0000 N   0  0  0  0  0  0  0  0  0  0  0  0
   40.0190   32.8200   41.6830 C   0  0  0  0  0  0  0  0  0  0  0  0
   38.6950   32.4060   41.1230 C   0  0  0  0  0  0  0  0  0  0  0  0
   38.7440   32.7540   39.6330 C   0  0  0  0  0  0  0  0  0  0  0  0
   38.5770   34.2670   39.5750 C   0  0  0  0  0  0  0  0  0  0  0  0
   39.7370   34.8840   40.2680 C   0  0  0  0  0  0  0  0  0  0  0  0
   46.7591   34.3137   39.4727 H   0  0  0  0  0  0  0  0  0  0  0  0
   47.3078   33.2272   40.8316 H   0  0  0  0  0  0  0  0  0  0  0  0
   49.0442   34.7873   39.8892 H   0  0  0  0  0  0  0  0  0  0  0  0
   48.0777   36.1310   40.6203 H   0  0  0  0  0  0  0  0  0  0  0  0
   51.6924   33.2219   41.7810 H   0  0  0  0  0  0  0  0  0  0  0  0
   52.1414   30.8168   42.1364 H   0  0  0  0  0  0  0  0  0  0  0  0
   50.3655   29.3299   43.0123 H   0  0  0  0  0  0  0  0  0  0  0  0
   48.1009   30.2989   43.5355 H   0  0  0  0  0  0  0  0  0  0  0  0
   44.2824   36.3694   42.1519 H   0  0  0  0  0  0  0  0  0  0  0  0
   44.7888   32.5228   40.2649 H   0  0  0  0  0  0  0  0  0  0  0  0
   40.7215   31.9794   41.5841 H   0  0  0  0  0  0  0  0  0  0  0  0
   39.8628   33.0972   42.7360 H   0  0  0  0  0  0  0  0  0  0  0  0
   38.5429   31.3251   41.2589 H   0  0  0  0  0  0  0  0  0  0  0  0
   37.8636   32.9170   41.6306 H   0  0  0  0  0  0  0  0  0  0  0  0
   39.7089   32.4547   39.1977 H   0  0  0  0  0  0  0  0  0  0  0  0
   37.9640   32.2303   39.0608 H   0  0  0  0  0  0  0  0  0  0  0  0
   38.5484   34.5995   38.5268 H   0  0  0  0  0  0  0  0  0  0  0  0
   37.6374   34.5666   40.0622 H   0  0  0  0  0  0  0  0  0  0  0  0
   40.3568   35.3841   39.5092 H   0  0  0  0  0  0  0  0  0  0  0  0
   39.3095   35.5670   41.0168 H   0  0  0  0  0  0  0  0  0  0  0  0
  1  2  1  0
  1 10  1  0
  2  3  1  0
  3  4  1  0
  4  9  2  0
  5  6  2  0
  5  4  1  0
  6  7  1  0
  7  8  2  0
  9  8  1  0
 12 10  1  0
 12 11  2  0
 13 12  1  0
 14 13  2  0
 14 15  1  0
 15 16  2  0
 16 11  1  0
 17 15  1  0
 17 18  1  0
 19 18  1  0
 20 19  1  0
 21 20  1  0
 21 22  1  0
 22 17  1  0
  1 23  1  0
  1 24  1  0
  2 25  1  0
  2 26  1  0
  5 27  1  0
  6 28  1  0
  7 29  1  0
  8 30  1  0
 11 31  1  0
 13 32  1  0
 18 33  1  0
 18 34  1  0
 19 35  1  0
 19 36  1  0
 20 37  1  0
 20 38  1  0
 21 39  1  0
 21 40  1  0
 22 41  1  0
 22 42  1  0
M  ISO  8  23   8  24   8  25   8  26   8  27  14  28  14  29  14  30  14
M  ISO  8  31  14  32  14  33  13  34  13  35  13  36  13  37  13  38  13
M  ISO  4  39  13  40  13  41  13  42  13
M  END
>  <minimizedAffinity>  (1) 
-5.17140865

>  <minimizedRMSD>  (1) 
5.16896152

$$$$
