
     RDKit          3D

 34 36  0  0  0  0  0  0  0  0999 V2000
   47.1600   34.6100   41.7600 C   0  0  0  0  0  0  0  0  0  0  0  0
   48.4550   35.3730   41.6860 C   0  0  0  0  0  0  0  0  0  0  0  0
   49.8280   34.3650   42.3040 S   0  0  0  0  0  0  0  0  0  0  0  0
   49.7910   32.7140   41.6620 C   0  0  0  0  0  0  0  0  0  0  0  0
   49.6190   32.3380   40.3380 C   0  0  0  0  0  0  0  0  0  0  0  0
   49.6150   30.9990   40.0170 C   0  0  0  0  0  0  0  0  0  0  0  0
   49.7780   30.0380   40.9940 C   0  0  0  0  0  0  0  0  0  0  0  0
   49.9480   30.4420   42.3170 C   0  0  0  0  0  0  0  0  0  0  0  0
   49.9450   31.7620   42.5750 N   0  0  0  0  0  0  0  0  0  0  0  0
   46.4190   34.8740   42.8990 O   0  0  0  0  0  0  0  0  0  0  0  0
   45.3710   34.6100   44.9690 C   0  0  0  0  0  0  0  0  0  0  0  0
   46.3240   34.1560   44.0230 C   0  0  0  0  0  0  0  0  0  0  0  0
   47.0520   33.0320   44.3440 C   0  0  0  0  0  0  0  0  0  0  0  0
   46.8520   32.3990   45.5240 N   0  0  0  0  0  0  0  0  0  0  0  0
   45.9400   32.8440   46.4170 C   0  0  0  0  0  0  0  0  0  0  0  0
   45.2160   33.9350   46.1320 N   0  0  0  0  0  0  0  0  0  0  0  0
   45.6860   32.1990   47.7020 C   0  0  0  0  0  0  0  0  0  0  0  0
   45.2610   30.8710   47.7240 C   0  0  0  0  0  0  0  0  0  0  0  0
   45.1070   30.5420   49.0570 C   0  0  0  0  0  0  0  0  0  0  0  0
   45.4290   31.6330   49.8030 N   0  0  0  0  0  0  0  0  0  0  0  0
   45.7760   32.6230   48.9760 N   0  0  0  0  0  0  0  0  0  0  0  0
   47.3897   33.5345   41.7375 H   0  0  0  0  0  0  0  0  0  0  0  0
   46.5512   34.9292   40.9013 H   0  0  0  0  0  0  0  0  0  0  0  0
   48.6521   35.6492   40.6397 H   0  0  0  0  0  0  0  0  0  0  0  0
   48.3701   36.2754   42.3093 H   0  0  0  0  0  0  0  0  0  0  0  0
   49.4876   33.0993   39.5550 H   0  0  0  0  0  0  0  0  0  0  0  0
   49.4803   30.6916   38.9694 H   0  0  0  0  0  0  0  0  0  0  0  0
   49.7738   28.9695   40.7325 H   0  0  0  0  0  0  0  0  0  0  0  0
   50.0802   29.7057   43.1235 H   0  0  0  0  0  0  0  0  0  0  0  0
   44.7630   35.5026   44.7599 H   0  0  0  0  0  0  0  0  0  0  0  0
   47.8010   32.6459   43.6370 H   0  0  0  0  0  0  0  0  0  0  0  0
   45.0843   30.2182   46.8565 H   0  0  0  0  0  0  0  0  0  0  0  0
   44.7806   29.5668   49.4474 H   0  0  0  0  0  0  0  0  0  0  0  0
   45.4087   31.6866   50.8314 H   0  0  0  0  0  0  0  0  0  0  0  0
  1 10  1  0
  2  1  1  0
  2  3  1  0
  4  3  1  0
  4  9  1  0
  5  4  2  0
  6  5  1  0
  6  7  2  0
  7  8  1  0
  8  9  2  0
 10 12  1  0
 11 16  2  0
 12 13  2  0
 12 11  1  0
 13 14  1  0
 14 15  2  0
 15 17  1  0
 16 15  1  0
 17 18  1  0
 17 21  2  0
 18 19  2  0
 19 20  1  0
 21 20  1  0
  1 22  1  0
  1 23  1  0
  2 24  1  0
  2 25  1  0
  5 26  1  0
  6 27  1  0
  7 28  1  0
  8 29  1  0
 11 30  1  0
 13 31  1  0
 18 32  1  0
 19 33  1  0
 20 34  1  0
M  ISO  8  22   8  23   8  24   8  25   8  26  14  27  14  28  14  29  14
M  ISO  5  30  14  31  14  32  14  33  14  34   9
M  END
>  <minimizedAffinity>  (1) 
-4.79987621

>  <minimizedRMSD>  (1) 
2.42392063

$$$$
