
     RDKit          3D

 34 36  0  0  0  0  0  0  0  0999 V2000
   47.2540   34.4770   41.5470 C   0  0  0  0  0  0  0  0  0  0  0  0
   48.5460   35.2260   41.3420 C   0  0  0  0  0  0  0  0  0  0  0  0
   49.8380   34.5970   42.4290 S   0  0  0  0  0  0  0  0  0  0  0  0
   50.2680   32.9180   42.0660 C   0  0  0  0  0  0  0  0  0  0  0  0
   51.3370   32.4780   41.2980 C   0  0  0  0  0  0  0  0  0  0  0  0
   51.5170   31.1180   41.1190 C   0  0  0  0  0  0  0  0  0  0  0  0
   50.6540   30.2010   41.6920 C   0  0  0  0  0  0  0  0  0  0  0  0
   49.5880   30.6810   42.4590 C   0  0  0  0  0  0  0  0  0  0  0  0
   49.4560   32.0130   42.6020 N   0  0  0  0  0  0  0  0  0  0  0  0
   46.6000   34.8410   42.7200 O   0  0  0  0  0  0  0  0  0  0  0  0
   45.5160   34.6340   44.7660 C   0  0  0  0  0  0  0  0  0  0  0  0
   46.4710   34.1370   43.8520 C   0  0  0  0  0  0  0  0  0  0  0  0
   47.1640   33.0010   44.2030 C   0  0  0  0  0  0  0  0  0  0  0  0
   46.9270   32.3940   45.3890 N   0  0  0  0  0  0  0  0  0  0  0  0
   46.0090   32.8790   46.2560 C   0  0  0  0  0  0  0  0  0  0  0  0
   45.3180   33.9840   45.9410 N   0  0  0  0  0  0  0  0  0  0  0  0
   45.7480   32.2260   47.5370 C   0  0  0  0  0  0  0  0  0  0  0  0
   46.6570   31.6010   48.3660 C   0  0  0  0  0  0  0  0  0  0  0  0
   46.0700   31.1050   49.4720 N   0  0  0  0  0  0  0  0  0  0  0  0
   44.7530   31.4230   49.3430 C   0  0  0  0  0  0  0  0  0  0  0  0
   44.5550   32.1010   48.1750 N   0  0  0  0  0  0  0  0  0  0  0  0
   47.4746   33.4001   41.5873 H   0  0  0  0  0  0  0  0  0  0  0  0
   46.5897   34.7263   40.7064 H   0  0  0  0  0  0  0  0  0  0  0  0
   48.8673   35.1091   40.2965 H   0  0  0  0  0  0  0  0  0  0  0  0
   48.3765   36.2871   41.5773 H   0  0  0  0  0  0  0  0  0  0  0  0
   52.0298   33.1988   40.8391 H   0  0  0  0  0  0  0  0  0  0  0  0
   52.3606   30.7597   40.5108 H   0  0  0  0  0  0  0  0  0  0  0  0
   50.8028   29.1207   41.5477 H   0  0  0  0  0  0  0  0  0  0  0  0
   48.8764   29.9888   42.9328 H   0  0  0  0  0  0  0  0  0  0  0  0
   44.9381   35.5392   44.5280 H   0  0  0  0  0  0  0  0  0  0  0  0
   47.9148   32.5841   43.5156 H   0  0  0  0  0  0  0  0  0  0  0  0
   47.7323   31.5179   48.1494 H   0  0  0  0  0  0  0  0  0  0  0  0
   43.9669   31.1716   50.0702 H   0  0  0  0  0  0  0  0  0  0  0  0
   43.6512   32.4585   47.8339 H   0  0  0  0  0  0  0  0  0  0  0  0
  1 10  1  0
  2  1  1  0
  2  3  1  0
  4  3  1  0
  4  9  1  0
  5  4  2  0
  6  5  1  0
  6  7  2  0
  7  8  1  0
  8  9  2  0
 10 12  1  0
 11 16  2  0
 12 13  2  0
 12 11  1  0
 13 14  1  0
 14 15  2  0
 15 17  1  0
 16 15  1  0
 17 21  1  0
 17 18  2  0
 18 19  1  0
 20 19  2  0
 21 20  1  0
  1 22  1  0
  1 23  1  0
  2 24  1  0
  2 25  1  0
  5 26  1  0
  6 27  1  0
  7 28  1  0
  8 29  1  0
 11 30  1  0
 13 31  1  0
 18 32  1  0
 20 33  1  0
 21 34  1  0
M  ISO  8  22   8  23   8  24   8  25   8  26  14  27  14  28  14  29  14
M  ISO  5  30  14  31  14  32  14  33  14  34   9
M  END
>  <minimizedAffinity>  (1) 
-4.77629709

>  <minimizedRMSD>  (1) 
2.18012214

$$$$
