
     RDKit          3D

 33 35  0  0  0  0  0  0  0  0999 V2000
   47.6930   34.6860   40.7150 C   0  0  0  0  0  0  0  0  0  0  0  0
   48.8340   35.5750   41.1190 C   0  0  0  0  0  0  0  0  0  0  0  0
   49.7280   34.8690   42.5290 S   0  0  0  0  0  0  0  0  0  0  0  0
   49.9590   33.1190   42.3640 C   0  0  0  0  0  0  0  0  0  0  0  0
   51.0280   32.4720   41.7610 C   0  0  0  0  0  0  0  0  0  0  0  0
   51.0450   31.0940   41.7200 C   0  0  0  0  0  0  0  0  0  0  0  0
   50.0130   30.3630   42.2710 C   0  0  0  0  0  0  0  0  0  0  0  0
   48.9480   31.0350   42.8710 C   0  0  0  0  0  0  0  0  0  0  0  0
   48.9850   32.3790   42.8830 N   0  0  0  0  0  0  0  0  0  0  0  0
   46.6360   34.7060   41.6160 O   0  0  0  0  0  0  0  0  0  0  0  0
   44.4740   35.3570   42.1950 C   0  0  0  0  0  0  0  0  0  0  0  0
   45.3260   34.5900   41.3650 C   0  0  0  0  0  0  0  0  0  0  0  0
   44.7380   33.8110   40.3940 C   0  0  0  0  0  0  0  0  0  0  0  0
   43.3920   33.7930   40.2530 N   0  0  0  0  0  0  0  0  0  0  0  0
   42.5890   34.5300   41.0530 C   0  0  0  0  0  0  0  0  0  0  0  0
   43.1320   35.2980   42.0080 N   0  0  0  0  0  0  0  0  0  0  0  0
   41.1940   34.4140   40.7940 N   0  0  0  0  0  0  0  0  0  0  0  0
   40.1110   33.9220   41.4220 C   0  0  0  0  0  0  0  0  0  0  0  0
   39.0200   34.1020   40.6590 N   0  0  0  0  0  0  0  0  0  0  0  0
   39.4510   34.7170   39.5400 C   0  0  0  0  0  0  0  0  0  0  0  0
   40.7970   34.9140   39.6140 N   0  0  0  0  0  0  0  0  0  0  0  0
   47.3221   35.0178   39.7340 H   0  0  0  0  0  0  0  0  0  0  0  0
   48.0770   33.6556   40.6856 H   0  0  0  0  0  0  0  0  0  0  0  0
   49.5255   35.6831   40.2704 H   0  0  0  0  0  0  0  0  0  0  0  0
   48.4316   36.5563   41.4108 H   0  0  0  0  0  0  0  0  0  0  0  0
   51.8526   33.0518   41.3207 H   0  0  0  0  0  0  0  0  0  0  0  0
   51.8887   30.5730   41.2438 H   0  0  0  0  0  0  0  0  0  0  0  0
   50.0297   29.2636   42.2376 H   0  0  0  0  0  0  0  0  0  0  0  0
   48.1073   30.4847   43.3187 H   0  0  0  0  0  0  0  0  0  0  0  0
   44.8966   35.9954   42.9849 H   0  0  0  0  0  0  0  0  0  0  0  0
   45.3657   33.1997   39.7290 H   0  0  0  0  0  0  0  0  0  0  0  0
   40.1177   33.4436   42.4125 H   0  0  0  0  0  0  0  0  0  0  0  0
   38.8128   35.0148   38.6950 H   0  0  0  0  0  0  0  0  0  0  0  0
  1  2  1  0
  1 10  1  0
  2  3  1  0
  4  3  1  0
  4  9  1  0
  5  4  2  0
  6  5  1  0
  6  7  2  0
  7  8  1  0
  8  9  2  0
 12 10  1  0
 12 11  2  0
 13 12  1  0
 14 13  2  0
 14 15  1  0
 15 16  2  0
 16 11  1  0
 17 15  1  0
 17 18  1  0
 19 18  2  0
 20 21  2  0
 20 19  1  0
 21 17  1  0
  1 22  1  0
  1 23  1  0
  2 24  1  0
  2 25  1  0
  5 26  1  0
  6 27  1  0
  7 28  1  0
  8 29  1  0
 11 30  1  0
 13 31  1  0
 18 32  1  0
 20 33  1  0
M  ISO  8  22   8  23   8  24   8  25   8  26  14  27  14  28  14  29  14
M  ISO  4  30  14  31  14  32  14  33  14
M  END
>  <minimizedAffinity>  (1) 
-4.70877266

>  <minimizedRMSD>  (1) 
4.63549519

$$$$
