
     RDKit          3D

 32 34  0  0  0  0  0  0  0  0999 V2000
   47.2520   34.4060   41.6000 C   0  0  0  0  0  0  0  0  0  0  0  0
   48.5290   35.1600   41.3560 C   0  0  0  0  0  0  0  0  0  0  0  0
   49.8560   34.5600   42.4340 S   0  0  0  0  0  0  0  0  0  0  0  0
   50.2720   32.8720   42.0910 C   0  0  0  0  0  0  0  0  0  0  0  0
   51.3130   32.4180   41.2970 C   0  0  0  0  0  0  0  0  0  0  0  0
   51.4860   31.0510   41.1410 C   0  0  0  0  0  0  0  0  0  0  0  0
   50.6470   30.1530   41.7550 C   0  0  0  0  0  0  0  0  0  0  0  0
   49.6050   30.6430   42.5500 C   0  0  0  0  0  0  0  0  0  0  0  0
   49.4820   31.9740   42.6690 N   0  0  0  0  0  0  0  0  0  0  0  0
   46.5870   34.8220   42.7480 O   0  0  0  0  0  0  0  0  0  0  0  0
   45.4470   34.6770   44.7720 C   0  0  0  0  0  0  0  0  0  0  0  0
   46.4330   34.1610   43.9040 C   0  0  0  0  0  0  0  0  0  0  0  0
   47.1290   33.0480   44.3200 C   0  0  0  0  0  0  0  0  0  0  0  0
   46.8650   32.4820   45.5210 N   0  0  0  0  0  0  0  0  0  0  0  0
   45.9160   32.9880   46.3420 C   0  0  0  0  0  0  0  0  0  0  0  0
   45.2220   34.0710   45.9640 N   0  0  0  0  0  0  0  0  0  0  0  0
   45.7480   32.2700   47.5990 C   0  0  0  0  0  0  0  0  0  0  0  0
   46.8640   31.9190   48.2860 N   0  0  0  0  0  0  0  0  0  0  0  0
   46.5520   31.2860   49.3820 O   0  0  0  0  0  0  0  0  0  0  0  0
   45.2250   31.2210   49.4150 C   0  0  0  0  0  0  0  0  0  0  0  0
   44.6980   31.8240   48.3200 N   0  0  0  0  0  0  0  0  0  0  0  0
   47.4899   33.3367   41.7006 H   0  0  0  0  0  0  0  0  0  0  0  0
   46.5868   34.5998   40.7456 H   0  0  0  0  0  0  0  0  0  0  0  0
   48.8304   35.0263   40.3066 H   0  0  0  0  0  0  0  0  0  0  0  0
   48.3544   36.2237   41.5753 H   0  0  0  0  0  0  0  0  0  0  0  0
   51.9895   33.1287   40.7997 H   0  0  0  0  0  0  0  0  0  0  0  0
   52.3099   30.6789   40.5143 H   0  0  0  0  0  0  0  0  0  0  0  0
   50.7915   29.0704   41.6243 H   0  0  0  0  0  0  0  0  0  0  0  0
   48.9099   29.9600   43.0604 H   0  0  0  0  0  0  0  0  0  0  0  0
   44.8650   35.5647   44.4835 H   0  0  0  0  0  0  0  0  0  0  0  0
   47.9053   32.6156   43.6716 H   0  0  0  0  0  0  0  0  0  0  0  0
   44.6382   30.7464   50.2153 H   0  0  0  0  0  0  0  0  0  0  0  0
  1 10  1  0
  2  1  1  0
  2  3  1  0
  4  3  1  0
  4  9  1  0
  5  4  2  0
  6  5  1  0
  6  7  2  0
  7  8  1  0
  8  9  2  0
 10 12  1  0
 11 16  2  0
 12 13  2  0
 12 11  1  0
 13 14  1  0
 14 15  2  0
 15 17  1  0
 16 15  1  0
 17 18  2  0
 17 21  1  0
 18 19  1  0
 19 20  1  0
 21 20  2  0
  1 22  1  0
  1 23  1  0
  2 24  1  0
  2 25  1  0
  5 26  1  0
  6 27  1  0
  7 28  1  0
  8 29  1  0
 11 30  1  0
 13 31  1  0
 20 32  1  0
M  ISO  8  22   8  23   8  24   8  25   8  26  14  27  14  28  14  29  14
M  ISO  3  30  14  31  14  32  14
M  END
>  <minimizedAffinity>  (1) 
-4.60119867

>  <minimizedRMSD>  (1) 
2.02689791

$$$$
