
     RDKit          3D

 39 40  0  0  0  0  0  0  0  0999 V2000
   46.4680   34.2580   42.5610 C   0  0  0  0  0  0  0  0  0  0  0  0
   47.5760   35.1540   42.0760 C   0  0  0  0  0  0  0  0  0  0  0  0
   49.1900   34.5230   42.5710 S   0  0  0  0  0  0  0  0  0  0  0  0
   49.7510   33.2180   41.5140 C   0  0  0  0  0  0  0  0  0  0  0  0
   49.0570   32.6250   40.4650 C   0  0  0  0  0  0  0  0  0  0  0  0
   49.6560   31.6120   39.7420 C   0  0  0  0  0  0  0  0  0  0  0  0
   50.9240   31.1900   40.0500 C   0  0  0  0  0  0  0  0  0  0  0  0
   51.6030   31.7950   41.1030 C   0  0  0  0  0  0  0  0  0  0  0  0
   50.9750   32.7790   41.7780 N   0  0  0  0  0  0  0  0  0  0  0  0
   46.1780   34.4640   43.9080 O   0  0  0  0  0  0  0  0  0  0  0  0
   45.4480   33.8630   46.0220 C   0  0  0  0  0  0  0  0  0  0  0  0
   46.2620   33.5890   44.9140 C   0  0  0  0  0  0  0  0  0  0  0  0
   47.0510   32.4640   44.9700 C   0  0  0  0  0  0  0  0  0  0  0  0
   47.0330   31.6620   46.0610 N   0  0  0  0  0  0  0  0  0  0  0  0
   46.2400   31.9440   47.1210 C   0  0  0  0  0  0  0  0  0  0  0  0
   45.4630   33.0300   47.0940 N   0  0  0  0  0  0  0  0  0  0  0  0
   46.2620   31.0260   48.2910 C   0  0  0  0  0  0  0  0  0  0  0  0
   45.8740   29.6060   47.8660 C   0  0  0  0  0  0  0  0  0  0  0  0
   47.6310   30.9170   48.9290 C   0  0  0  0  0  0  0  0  0  0  0  0
   45.2960   31.5020   49.3740 C   0  0  0  0  0  0  0  0  0  0  0  0
   46.7719   33.2103   42.4200 H   0  0  0  0  0  0  0  0  0  0  0  0
   45.5638   34.4934   41.9804 H   0  0  0  0  0  0  0  0  0  0  0  0
   47.5352   35.2128   40.9783 H   0  0  0  0  0  0  0  0  0  0  0  0
   47.4395   36.1495   42.5236 H   0  0  0  0  0  0  0  0  0  0  0  0
   48.0399   32.9597   40.2132 H   0  0  0  0  0  0  0  0  0  0  0  0
   49.1110   31.1394   38.9116 H   0  0  0  0  0  0  0  0  0  0  0  0
   51.3983   30.3833   39.4718 H   0  0  0  0  0  0  0  0  0  0  0  0
   52.6209   31.4802   41.3765 H   0  0  0  0  0  0  0  0  0  0  0  0
   44.7986   34.7509   46.0228 H   0  0  0  0  0  0  0  0  0  0  0  0
   47.7030   32.2132   44.1203 H   0  0  0  0  0  0  0  0  0  0  0  0
   45.7053   28.9887   48.7607 H   0  0  0  0  0  0  0  0  0  0  0  0
   44.9527   29.6417   47.2661 H   0  0  0  0  0  0  0  0  0  0  0  0
   46.6854   29.1682   47.2661 H   0  0  0  0  0  0  0  0  0  0  0  0
   47.5269   30.9253   50.0240 H   0  0  0  0  0  0  0  0  0  0  0  0
   48.1090   29.9780   48.6132 H   0  0  0  0  0  0  0  0  0  0  0  0
   48.2516   31.7686   48.6132 H   0  0  0  0  0  0  0  0  0  0  0  0
   45.7238   31.2912   50.3653 H   0  0  0  0  0  0  0  0  0  0  0  0
   45.1312   32.5844   49.2684 H   0  0  0  0  0  0  0  0  0  0  0  0
   44.3373   30.9732   49.2684 H   0  0  0  0  0  0  0  0  0  0  0  0
  1 10  1  0
  2  1  1  0
  2  3  1  0
  4  9  1  0
  4  3  1  0
  5  4  2  0
  6  7  2  0
  6  5  1  0
  7  8  1  0
  8  9  2  0
 10 12  1  0
 11 16  2  0
 12 13  2  0
 12 11  1  0
 13 14  1  0
 14 15  2  0
 15 17  1  0
 16 15  1  0
 17 19  1  0
 17 20  1  0
 18 17  1  0
  1 21  1  0
  1 22  1  0
  2 23  1  0
  2 24  1  0
  5 25  1  0
  6 26  1  0
  7 27  1  0
  8 28  1  0
 11 29  1  0
 13 30  1  0
 18 31  1  0
 18 32  1  0
 18 33  1  0
 19 34  1  0
 19 35  1  0
 19 36  1  0
 20 37  1  0
 20 38  1  0
 20 39  1  0
M  ISO  8  21   8  22   8  23   8  24   8  25  14  26  14  27  14  28  14
M  ISO  8  29  14  30  14  31   8  32   8  33   8  34   8  35   8  36   8
M  ISO  3  37   8  38   8  39   8
M  END
>  <minimizedAffinity>  (1) 
-4.51077127

>  <minimizedRMSD>  (1) 
3.19511914

$$$$
