
     RDKit          3D

 30 31  0  0  0  0  0  0  0  0999 V2000
   45.0500   35.4010   42.4290 C   0  0  0  0  0  0  0  0  0  0  0  0
   46.3680   34.8830   42.9730 C   0  0  0  0  0  0  0  0  0  0  0  0
   46.8350   33.3460   42.1520 S   0  0  0  0  0  0  0  0  0  0  0  0
   47.1260   33.5700   40.4200 C   0  0  0  0  0  0  0  0  0  0  0  0
   48.1520   34.2950   39.8290 C   0  0  0  0  0  0  0  0  0  0  0  0
   48.2290   34.3660   38.4620 C   0  0  0  0  0  0  0  0  0  0  0  0
   47.2980   33.7230   37.6700 C   0  0  0  0  0  0  0  0  0  0  0  0
   46.2750   32.9990   38.2820 C   0  0  0  0  0  0  0  0  0  0  0  0
   46.2470   32.9630   39.6300 N   0  0  0  0  0  0  0  0  0  0  0  0
   44.1210   34.3780   42.2420 O   0  0  0  0  0  0  0  0  0  0  0  0
   43.1250   35.3440   40.3790 C   0  0  0  0  0  0  0  0  0  0  0  0
   43.1440   34.3040   41.3320 C   0  0  0  0  0  0  0  0  0  0  0  0
   42.1730   33.3330   41.2370 C   0  0  0  0  0  0  0  0  0  0  0  0
   41.2420   33.3860   40.2590 N   0  0  0  0  0  0  0  0  0  0  0  0
   41.2360   34.3920   39.3490 C   0  0  0  0  0  0  0  0  0  0  0  0
   42.1630   35.3450   39.4170 N   0  0  0  0  0  0  0  0  0  0  0  0
   40.2180   34.4640   38.2670 C   0  0  0  0  0  0  0  0  0  0  0  0
   40.5420   35.4220   37.3240 F   0  0  0  0  0  0  0  0  0  0  0  0
   38.9590   34.7620   38.7280 F   0  0  0  0  0  0  0  0  0  0  0  0
   40.1420   33.2680   37.5650 F   0  0  0  0  0  0  0  0  0  0  0  0
   44.6354   36.1310   43.1397 H   0  0  0  0  0  0  0  0  0  0  0  0
   45.2460   35.8635   41.4504 H   0  0  0  0  0  0  0  0  0  0  0  0
   47.1508   35.6365   42.8015 H   0  0  0  0  0  0  0  0  0  0  0  0
   46.2550   34.6892   44.0499 H   0  0  0  0  0  0  0  0  0  0  0  0
   48.8979   34.8089   40.4532 H   0  0  0  0  0  0  0  0  0  0  0  0
   49.0403   34.9408   37.9914 H   0  0  0  0  0  0  0  0  0  0  0  0
   47.3623   33.7810   36.5734 H   0  0  0  0  0  0  0  0  0  0  0  0
   45.5152   32.4741   37.6843 H   0  0  0  0  0  0  0  0  0  0  0  0
   43.8788   36.1444   40.4133 H   0  0  0  0  0  0  0  0  0  0  0  0
   42.1547   32.5070   41.9632 H   0  0  0  0  0  0  0  0  0  0  0  0
  1  2  1  0
  3  2  1  0
  4  3  1  0
  5  4  2  0
  6  5  1  0
  7  8  1  0
  7  6  2  0
  8  9  2  0
  9  4  1  0
 10  1  1  0
 11 12  2  0
 12 10  1  0
 13 12  1  0
 14 13  2  0
 15 16  2  0
 15 14  1  0
 16 11  1  0
 17 19  1  0
 17 15  1  0
 18 17  1  0
 20 17  1  0
  1 21  1  0
  1 22  1  0
  2 23  1  0
  2 24  1  0
  5 25  1  0
  6 26  1  0
  7 27  1  0
  8 28  1  0
 11 29  1  0
 13 30  1  0
M  ISO  8  21   8  22   8  23   8  24   8  25  14  26  14  27  14  28  14
M  ISO  2  29  14  30  14
M  END
>  <minimizedAffinity>  (1) 
-4.46096087

>  <minimizedRMSD>  (1) 
6.29051685

$$$$
