
     RDKit          3D

 15 16  0  0  0  0  0  0  0  0999 V2000
   44.5070   35.8160   44.6270 C   0  0  0  0  0  0  0  0  0  0  0  0
   45.1670   35.7070   43.3850 C   0  0  0  0  0  0  0  0  0  0  0  0
   46.1250   34.6950   43.2530 C   0  0  0  0  0  0  0  0  0  0  0  0
   46.3600   33.8860   44.3170 N   0  0  0  0  0  0  0  0  0  0  0  0
   45.7130   34.0130   45.4930 C   0  0  0  0  0  0  0  0  0  0  0  0
   44.7900   34.9750   45.6450 N   0  0  0  0  0  0  0  0  0  0  0  0
   45.9860   33.1270   46.6240 C   0  0  0  0  0  0  0  0  0  0  0  0
   47.0410   32.3520   46.9390 N   0  0  0  0  0  0  0  0  0  0  0  0
   46.8260   31.7330   48.0630 O   0  0  0  0  0  0  0  0  0  0  0  0
   45.6450   32.0640   48.5320 C   0  0  0  0  0  0  0  0  0  0  0  0
   45.1150   32.9390   47.6320 N   0  0  0  0  0  0  0  0  0  0  0  0
   43.7484   36.5999   44.7688 H   0  0  0  0  0  0  0  0  0  0  0  0
   44.9380   36.3899   42.5536 H   0  0  0  0  0  0  0  0  0  0  0  0
   46.6741   34.5587   42.3096 H   0  0  0  0  0  0  0  0  0  0  0  0
   45.1785   31.7074   49.4622 H   0  0  0  0  0  0  0  0  0  0  0  0
  1  6  2  0
  2  1  1  0
  3  2  2  0
  3  4  1  0
  4  5  2  0
  5  6  1  0
  5  7  1  0
  7  8  2  0
  7 11  1  0
  8  9  1  0
  9 10  1  0
 11 10  2  0
  1 12  1  0
  2 13  1  0
  3 14  1  0
 10 15  1  0
M  ISO  4  12  14  13  14  14  14  15  14
M  END
>  <minimizedAffinity>  (1) 
-4.01256275

>  <minimizedRMSD>  (1) 
0.529041111

$$$$
