
     RDKit          3D

 47 48  0  0  1  0  0  0  0  0999 V2000
   46.4240   35.1850   42.8030 C   0  0  0  0  0  0  0  0  0  0  0  0
   46.5210   34.9780   41.4360 N   0  0  0  0  0  0  0  0  0  0  0  0
   45.5290   34.1920   40.9400 C   0  0  0  0  0  0  0  0  0  0  0  0
   45.9540   32.9190   40.2520 C   0  0  0  0  0  0  0  0  0  0  0  0
   47.2940   32.4040   40.5510 C   0  0  0  0  0  0  0  0  0  0  0  0
   48.1620   33.3190   41.3460 C   0  0  0  0  0  0  0  0  0  0  0  0
   47.8220   34.7190   40.9690 C   0  0  2  0  0  0  0  0  0  0  0  0
   48.8580   35.6080   41.5690 C   0  0  0  0  0  0  0  0  0  0  0  0
   49.8770   34.9180   42.3980 C   0  0  0  0  0  0  0  0  0  0  0  0
   45.1740   34.8520   43.4560 C   0  0  1  0  0  0  0  0  0  0  0  0
   45.2210   34.2190   45.9290 C   0  0  0  0  0  0  0  0  0  0  0  0
   45.4230   33.9080   44.5560 C   0  0  0  0  0  0  0  0  0  0  0  0
   45.8670   32.6400   44.2420 C   0  0  0  0  0  0  0  0  0  0  0  0
   46.0920   31.7430   45.2240 N   0  0  0  0  0  0  0  0  0  0  0  0
   45.8900   32.0710   46.5330 C   0  0  0  0  0  0  0  0  0  0  0  0
   45.4500   33.3230   46.8720 N   0  0  0  0  0  0  0  0  0  0  0  0
   44.5540   36.1350   43.9770 C   0  0  0  0  0  0  0  0  0  0  0  0
   45.2880   37.2480   43.3960 N   0  0  0  0  0  0  0  0  0  0  0  0
   45.1740   38.5360   43.9640 C   0  0  0  0  0  0  0  0  0  0  0  0
   45.0680   38.7060   45.2570 N   0  0  0  0  0  0  0  0  0  0  0  0
   45.1720   39.7620   43.2560 N   0  0  0  0  0  0  0  0  0  0  0  0
   45.0620   37.9150   45.9320 H   0  0  0  0  0  0  0  0  0  0  0  0
   46.6140   36.2529   42.9861 H   0  0  0  0  0  0  0  0  0  0  0  0
   47.1548   34.4875   43.2383 H   0  0  0  0  0  0  0  0  0  0  0  0
   44.8727   33.9149   41.7781 H   0  0  0  0  0  0  0  0  0  0  0  0
   45.0452   34.7958   40.1581 H   0  0  0  0  0  0  0  0  0  0  0  0
   45.9038   33.0976   39.1678 H   0  0  0  0  0  0  0  0  0  0  0  0
   45.2661   32.1503   40.6340 H   0  0  0  0  0  0  0  0  0  0  0  0
   47.1804   31.4667   41.1154 H   0  0  0  0  0  0  0  0  0  0  0  0
   47.7951   32.2740   39.5804 H   0  0  0  0  0  0  0  0  0  0  0  0
   47.9797   33.1669   42.4201 H   0  0  0  0  0  0  0  0  0  0  0  0
   49.2229   33.1146   41.1395 H   0  0  0  0  0  0  0  0  0  0  0  0
   47.8242   34.8947   39.8831 H   0  0  0  0  0  0  0  0  0  0  0  0
   49.3788   36.1253   40.7498 H   0  0  0  0  0  0  0  0  0  0  0  0
   48.3219   36.2886   42.2468 H   0  0  0  0  0  0  0  0  0  0  0  0
   49.6490   35.0724   43.4630 H   0  0  0  0  0  0  0  0  0  0  0  0
   49.8651   33.8414   42.1728 H   0  0  0  0  0  0  0  0  0  0  0  0
   50.8723   35.3287   42.1728 H   0  0  0  0  0  0  0  0  0  0  0  0
   44.4839   34.3719   42.7466 H   0  0  0  0  0  0  0  0  0  0  0  0
   44.8683   35.2222   46.2102 H   0  0  0  0  0  0  0  0  0  0  0  0
   46.0374   32.3608   43.1918 H   0  0  0  0  0  0  0  0  0  0  0  0
   46.0814   31.3264   47.3197 H   0  0  0  0  0  0  0  0  0  0  0  0
   43.4963   36.1877   43.6797 H   0  0  0  0  0  0  0  0  0  0  0  0
   44.6063   36.1701   45.0752 H   0  0  0  0  0  0  0  0  0  0  0  0
   45.8889   37.0974   42.5731 H   0  0  0  0  0  0  0  0  0  0  0  0
   45.0831   40.6518   43.7672 H   0  0  0  0  0  0  0  0  0  0  0  0
   45.2594   39.7642   42.2297 H   0  0  0  0  0  0  0  0  0  0  0  0
  1 10  1  0
  2  1  1  0
  3  2  1  0
  4  5  1  0
  4  3  1  0
  5  6  1  0
  7  6  1  0
  7  2  1  0
  7  8  1  0
  8  9  1  0
 10 17  1  0
 10 12  1  0
 11 16  2  0
 12 11  1  0
 13 12  2  0
 13 14  1  0
 14 15  2  0
 15 16  1  0
 18 19  1  0
 18 17  1  0
 19 20  2  0
 20 22  1  0
 21 19  1  0
  1 23  1  0
  1 24  1  0
  3 25  1  0
  3 26  1  0
  4 27  1  0
  4 28  1  0
  5 29  1  0
  5 30  1  0
  6 31  1  0
  6 32  1  0
  7 33  1  6
  8 34  1  0
  8 35  1  0
  9 36  1  0
  9 37  1  0
  9 38  1  0
 10 39  1  6
 11 40  1  0
 13 41  1  0
 15 42  1  0
 17 43  1  0
 17 44  1  0
 18 45  1  0
 21 46  1  0
 21 47  1  0
M  ISO  8  23   8  24   8  25  13  26  13  27  13  28  13  29  13  30  13
M  ISO  8  31  13  32  13  33  13  34   8  35   8  36   8  37   8  38   8
M  ISO  6  39   8  40  14  41  14  42  14  43   8  44   8
M  END
>  <minimizedAffinity>  (1) 
-5.40676022

>  <minimizedRMSD>  (1) 
0.622910798

$$$$
