
     RDKit          3D

 22 24  0  0  0  0  0  0  0  0999 V2000
   44.5050   35.9070   44.5410 C   0  0  0  0  0  0  0  0  0  0  0  0
   45.0190   36.1890   43.2630 C   0  0  0  0  0  0  0  0  0  0  0  0
   46.0050   35.3410   42.7680 C   0  0  0  0  0  0  0  0  0  0  0  0
   46.3890   34.3150   43.5570 N   0  0  0  0  0  0  0  0  0  0  0  0
   45.8900   34.0560   44.7750 C   0  0  0  0  0  0  0  0  0  0  0  0
   44.9310   34.8670   45.2750 N   0  0  0  0  0  0  0  0  0  0  0  0
   46.3350   32.9360   45.5920 C   0  0  0  0  0  0  0  0  0  0  0  0
   47.1770   31.9280   45.3460 N   0  0  0  0  0  0  0  0  0  0  0  0
   47.2690   31.1500   46.3970 O   0  0  0  0  0  0  0  0  0  0  0  0
   46.4990   31.6160   47.3570 C   0  0  0  0  0  0  0  0  0  0  0  0
   45.9170   32.7290   46.8530 N   0  0  0  0  0  0  0  0  0  0  0  0
   46.3200   31.0190   48.7150 C   0  0  0  0  0  0  0  0  0  0  0  0
   45.1170   30.0990   48.8000 C   0  0  0  0  0  0  0  0  0  0  0  0
   45.1980   31.4340   49.5680 C   0  0  0  0  0  0  0  0  0  0  0  0
   43.7249   36.5630   44.9547 H   0  0  0  0  0  0  0  0  0  0  0  0
   44.6559   37.0464   42.6774 H   0  0  0  0  0  0  0  0  0  0  0  0
   46.4526   35.4999   41.7758 H   0  0  0  0  0  0  0  0  0  0  0  0
   47.3993   30.9623   48.9195 H   0  0  0  0  0  0  0  0  0  0  0  0
   44.4372   29.9902   47.9421 H   0  0  0  0  0  0  0  0  0  0  0  0
   44.9422   29.0444   49.0595 H   0  0  0  0  0  0  0  0  0  0  0  0
   45.3104   31.4317   50.6622 H   0  0  0  0  0  0  0  0  0  0  0  0
   44.5640   32.3306   49.6333 H   0  0  0  0  0  0  0  0  0  0  0  0
  1  6  2  0
  2  1  1  0
  3  2  2  0
  3  4  1  0
  4  5  2  0
  5  6  1  0
  5  7  1  0
  7 11  1  0
  8  7  2  0
  8  9  1  0
  9 10  1  0
 10 12  1  0
 11 10  2  0
 12 13  1  0
 12 14  1  0
 13 14  1  0
  1 15  1  0
  2 16  1  0
  3 17  1  0
 12 18  1  0
 13 19  1  0
 13 20  1  0
 14 21  1  0
 14 22  1  0
M  ISO  8  15  14  16  14  17  14  18  13  19  13  20  13  21  13  22  13
M  END
>  <minimizedAffinity>  (1) 
-4.80260849

>  <minimizedRMSD>  (1) 
1.21253598

$$$$
