
     RDKit          3D

 17 18  0  0  0  0  0  0  0  0999 V2000
   44.4830   35.7710   44.7230 C   0  0  0  0  0  0  0  0  0  0  0  0
   45.0930   35.6900   43.4640 C   0  0  0  0  0  0  0  0  0  0  0  0
   46.0570   34.6910   43.2620 C   0  0  0  0  0  0  0  0  0  0  0  0
   46.3490   33.8600   44.2890 N   0  0  0  0  0  0  0  0  0  0  0  0
   45.7380   33.9690   45.4950 C   0  0  0  0  0  0  0  0  0  0  0  0
   44.8120   34.9180   45.7110 N   0  0  0  0  0  0  0  0  0  0  0  0
   46.0680   33.0600   46.5930 C   0  0  0  0  0  0  0  0  0  0  0  0
   47.0960   32.1980   46.7890 N   0  0  0  0  0  0  0  0  0  0  0  0
   46.9520   31.6030   47.9340 O   0  0  0  0  0  0  0  0  0  0  0  0
   45.8660   32.0260   48.5290 C   0  0  0  0  0  0  0  0  0  0  0  0
   45.2930   32.9490   47.6930 N   0  0  0  0  0  0  0  0  0  0  0  0
   45.2190   31.7400   49.7630 N   0  0  0  0  0  0  0  0  0  0  0  0
   43.7227   36.5444   44.9069 H   0  0  0  0  0  0  0  0  0  0  0  0
   44.8240   36.3888   42.6582 H   0  0  0  0  0  0  0  0  0  0  0  0
   46.5636   34.5858   42.2913 H   0  0  0  0  0  0  0  0  0  0  0  0
   44.3436   32.2235   50.0097 H   0  0  0  0  0  0  0  0  0  0  0  0
   45.6259   31.0494   50.4099 H   0  0  0  0  0  0  0  0  0  0  0  0
  1  6  2  0
  2  1  1  0
  3  2  2  0
  3  4  1  0
  4  5  2  0
  5  6  1  0
  5  7  1  0
  7  8  2  0
  7 11  1  0
  8  9  1  0
  9 10  1  0
 10 12  1  0
 11 10  2  0
  1 13  1  0
  2 14  1  0
  3 15  1  0
 12 16  1  0
 12 17  1  0
M  ISO  3  13  14  14  14  15  14
M  END
>  <minimizedAffinity>  (1) 
-4.73447084

>  <minimizedRMSD>  (1) 
0.168985426

$$$$
