
     RDKit          3D

 27 28  0  0  0  0  0  0  0  0999 V2000
   44.5000   35.9760   44.5300 C   0  0  0  0  0  0  0  0  0  0  0  0
   45.0010   36.2950   43.2540 C   0  0  0  0  0  0  0  0  0  0  0  0
   45.9760   35.4440   42.6940 C   0  0  0  0  0  0  0  0  0  0  0  0
   46.3750   34.3710   43.4100 N   0  0  0  0  0  0  0  0  0  0  0  0
   45.8690   34.0940   44.6390 C   0  0  0  0  0  0  0  0  0  0  0  0
   44.9490   34.8890   45.1800 N   0  0  0  0  0  0  0  0  0  0  0  0
   46.3300   32.9190   45.3820 C   0  0  0  0  0  0  0  0  0  0  0  0
   47.1760   31.9110   45.1040 N   0  0  0  0  0  0  0  0  0  0  0  0
   47.2550   31.0980   46.1060 O   0  0  0  0  0  0  0  0  0  0  0  0
   46.4860   31.5110   47.0740 C   0  0  0  0  0  0  0  0  0  0  0  0
   45.8920   32.6630   46.6360 N   0  0  0  0  0  0  0  0  0  0  0  0
   46.2490   30.9100   48.4130 C   0  0  0  0  0  0  0  0  0  0  0  0
   45.4280   31.8150   49.2750 C   0  0  0  0  0  0  0  0  0  0  0  0
   47.5670   30.6480   49.0940 C   0  0  0  0  0  0  0  0  0  0  0  0
   45.4900   29.5920   48.2390 C   0  0  0  0  0  0  0  0  0  0  0  0
   43.7386   36.6184   44.9965 H   0  0  0  0  0  0  0  0  0  0  0  0
   44.6428   37.1814   42.7100 H   0  0  0  0  0  0  0  0  0  0  0  0
   46.4003   35.6489   41.7000 H   0  0  0  0  0  0  0  0  0  0  0  0
   45.6284   31.5941   50.3338 H   0  0  0  0  0  0  0  0  0  0  0  0
   45.6911   32.8618   49.0626 H   0  0  0  0  0  0  0  0  0  0  0  0
   44.3606   31.6548   49.0626 H   0  0  0  0  0  0  0  0  0  0  0  0
   47.4280   30.6756   50.1848 H   0  0  0  0  0  0  0  0  0  0  0  0
   47.9426   29.6576   48.7972 H   0  0  0  0  0  0  0  0  0  0  0  0
   48.2928   31.4194   48.7972 H   0  0  0  0  0  0  0  0  0  0  0  0
   45.2494   29.1742   49.2277 H   0  0  0  0  0  0  0  0  0  0  0  0
   44.5593   29.7756   47.6821 H   0  0  0  0  0  0  0  0  0  0  0  0
   46.1159   28.8792   47.6821 H   0  0  0  0  0  0  0  0  0  0  0  0
  1  6  2  0
  2  1  1  0
  3  2  2  0
  3  4  1  0
  4  5  2  0
  5  6  1  0
  5  7  1  0
  7 11  1  0
  8  7  2  0
  8  9  1  0
  9 10  1  0
 10 12  1  0
 11 10  2  0
 12 14  1  0
 12 13  1  0
 15 12  1  0
  1 16  1  0
  2 17  1  0
  3 18  1  0
 13 19  1  0
 13 20  1  0
 13 21  1  0
 14 22  1  0
 14 23  1  0
 14 24  1  0
 15 25  1  0
 15 26  1  0
 15 27  1  0
M  ISO  8  16  14  17  14  18  14  19   8  20   8  21   8  22   8  23   8
M  ISO  4  24   8  25   8  26   8  27   8
M  END
>  <minimizedAffinity>  (1) 
-4.7293005

>  <minimizedRMSD>  (1) 
1.66340077

$$$$
