
     RDKit          3D

 16 17  0  0  0  0  0  0  0  0999 V2000
   44.5050   35.8050   44.6620 C   0  0  0  0  0  0  0  0  0  0  0  0
   45.1560   35.6940   43.4260 C   0  0  0  0  0  0  0  0  0  0  0  0
   46.1180   34.6850   43.2700 C   0  0  0  0  0  0  0  0  0  0  0  0
   46.3700   33.8630   44.3290 N   0  0  0  0  0  0  0  0  0  0  0  0
   45.7200   34.0040   45.5040 C   0  0  0  0  0  0  0  0  0  0  0  0
   44.7980   34.9640   45.6660 N   0  0  0  0  0  0  0  0  0  0  0  0
   46.0010   33.1090   46.6390 C   0  0  0  0  0  0  0  0  0  0  0  0
   47.0760   32.3550   46.9620 N   0  0  0  0  0  0  0  0  0  0  0  0
   46.8540   31.7290   48.0740 O   0  0  0  0  0  0  0  0  0  0  0  0
   45.6580   32.0310   48.5260 C   0  0  0  0  0  0  0  0  0  0  0  0
   45.0990   32.9070   47.6290 N   0  0  0  0  0  0  0  0  0  0  0  0
   44.9010   31.6730   49.6390 O   0  0  0  0  0  0  0  0  0  0  0  0
   43.7472   36.5883   44.8106 H   0  0  0  0  0  0  0  0  0  0  0  0
   44.9188   36.3802   42.5996 H   0  0  0  0  0  0  0  0  0  0  0  0
   46.6552   34.5599   42.3183 H   0  0  0  0  0  0  0  0  0  0  0  0
   43.9932   32.0485   49.7618 H   0  0  0  0  0  0  0  0  0  0  0  0
  1  6  2  0
  2  1  1  0
  3  2  2  0
  3  4  1  0
  4  5  2  0
  5  6  1  0
  5  7  1  0
  7  8  2  0
  7 11  1  0
  8  9  1  0
  9 10  1  0
 10 12  1  0
 11 10  2  0
  1 13  1  0
  2 14  1  0
  3 15  1  0
 12 16  1  0
M  ISO  4  13  14  14  14  15  14  16   3
M  END
>  <minimizedAffinity>  (1) 
-4.64310169

>  <minimizedRMSD>  (1) 
0.0314715542

$$$$
