
     RDKit          3D

 18 19  0  0  0  0  0  0  0  0999 V2000
   44.4680   35.9270   44.7160 C   0  0  0  0  0  0  0  0  0  0  0  0
   45.0600   35.9350   43.4470 C   0  0  0  0  0  0  0  0  0  0  0  0
   46.0110   34.9340   43.1550 C   0  0  0  0  0  0  0  0  0  0  0  0
   46.3020   34.0230   44.1060 N   0  0  0  0  0  0  0  0  0  0  0  0
   45.7050   34.0500   45.3270 C   0  0  0  0  0  0  0  0  0  0  0  0
   44.7920   35.0010   45.6250 N   0  0  0  0  0  0  0  0  0  0  0  0
   46.0330   33.0500   46.3430 C   0  0  0  0  0  0  0  0  0  0  0  0
   47.0340   32.1470   46.4650 N   0  0  0  0  0  0  0  0  0  0  0  0
   46.8870   31.4700   47.5650 O   0  0  0  0  0  0  0  0  0  0  0  0
   45.8210   31.8820   48.1930 C   0  0  0  0  0  0  0  0  0  0  0  0
   45.2570   32.8840   47.4440 N   0  0  0  0  0  0  0  0  0  0  0  0
   45.2560   31.3990   49.4930 C   0  0  0  0  0  0  0  0  0  0  0  0
   43.7234   36.6959   44.9697 H   0  0  0  0  0  0  0  0  0  0  0  0
   44.7921   36.6977   42.7010 H   0  0  0  0  0  0  0  0  0  0  0  0
   46.5045   34.8976   42.1726 H   0  0  0  0  0  0  0  0  0  0  0  0
   45.8020   31.8658   50.3261 H   0  0  0  0  0  0  0  0  0  0  0  0
   44.1919   31.6709   49.5539 H   0  0  0  0  0  0  0  0  0  0  0  0
   45.3591   30.3055   49.5539 H   0  0  0  0  0  0  0  0  0  0  0  0
  1  6  2  0
  2  1  1  0
  3  2  2  0
  3  4  1  0
  4  5  2  0
  5  6  1  0
  5  7  1  0
  7  8  2  0
  7 11  1  0
  8  9  1  0
  9 10  1  0
 10 12  1  0
 11 10  2  0
  1 13  1  0
  2 14  1  0
  3 15  1  0
 12 16  1  0
 12 17  1  0
 12 18  1  0
M  ISO  6  13  14  14  14  15  14  16   8  17   8  18   8
M  END
>  <minimizedAffinity>  (1) 
-4.57226467

>  <minimizedRMSD>  (1) 
0.340092361

$$$$
