
     RDKit          3D

 48 50  0  0  1  0  0  0  0  0999 V2000
   47.6950   33.5060   43.8280 C   0  0  0  0  0  0  0  0  0  0  0  0
   48.0880   32.9340   42.6210 N   0  0  0  0  0  0  0  0  0  0  0  0
   48.5680   31.6680   42.7230 C   0  0  0  0  0  0  0  0  0  0  0  0
   50.0000   31.4430   42.2750 C   0  0  0  0  0  0  0  0  0  0  0  0
   50.8670   32.6140   42.1380 C   0  0  0  0  0  0  0  0  0  0  0  0
   50.1810   33.9300   42.3330 C   0  0  0  0  0  0  0  0  0  0  0  0
   48.7970   33.8110   41.7850 C   0  0  2  0  0  0  0  0  0  0  0  0
   48.2180   35.1760   41.7200 C   0  0  0  0  0  0  0  0  0  0  0  0
   49.2210   36.2780   41.5720 C   0  0  0  0  0  0  0  0  0  0  0  0
   46.3260   33.2510   44.2520 C   0  0  1  0  0  0  0  0  0  0  0  0
   45.4820   33.2840   46.6580 C   0  0  0  0  0  0  0  0  0  0  0  0
   46.3070   32.7510   45.6280 C   0  0  0  0  0  0  0  0  0  0  0  0
   47.1500   31.6770   45.9460 C   0  0  0  0  0  0  0  0  0  0  0  0
   47.1460   31.1990   47.2000 N   0  0  0  0  0  0  0  0  0  0  0  0
   46.3520   31.7240   48.1630 C   0  0  0  0  0  0  0  0  0  0  0  0
   45.5070   32.7840   47.8870 N   0  0  0  0  0  0  0  0  0  0  0  0
   45.5010   34.5040   44.1240 C   0  0  0  0  0  0  0  0  0  0  0  0
   44.6410   34.4180   42.8900 C   0  0  0  0  0  0  0  0  0  0  0  0
   44.2740   35.5970   42.2570 C   0  0  0  0  0  0  0  0  0  0  0  0
   43.4880   35.6110   41.1200 C   0  0  0  0  0  0  0  0  0  0  0  0
   43.0690   34.4360   40.6160 N   0  0  0  0  0  0  0  0  0  0  0  0
   43.4330   33.2850   41.2410 C   0  0  0  0  0  0  0  0  0  0  0  0
   44.2040   33.2420   42.3600 N   0  0  0  0  0  0  0  0  0  0  0  0
   47.8196   34.5952   43.7380 H   0  0  0  0  0  0  0  0  0  0  0  0
   48.3294   33.0354   44.5935 H   0  0  0  0  0  0  0  0  0  0  0  0
   48.4987   31.3696   43.7795 H   0  0  0  0  0  0  0  0  0  0  0  0
   47.9529   31.0698   42.0347 H   0  0  0  0  0  0  0  0  0  0  0  0
   50.4706   30.7710   43.0077 H   0  0  0  0  0  0  0  0  0  0  0  0
   49.9100   31.0456   41.2533 H   0  0  0  0  0  0  0  0  0  0  0  0
   51.6711   32.5335   42.8843 H   0  0  0  0  0  0  0  0  0  0  0  0
   51.2344   32.6073   41.1012 H   0  0  0  0  0  0  0  0  0  0  0  0
   50.1390   34.1746   43.4046 H   0  0  0  0  0  0  0  0  0  0  0  0
   50.7310   34.7296   41.8152 H   0  0  0  0  0  0  0  0  0  0  0  0
   48.7619   33.3958   40.7670 H   0  0  0  0  0  0  0  0  0  0  0  0
   47.5350   35.2172   40.8587 H   0  0  0  0  0  0  0  0  0  0  0  0
   47.7135   35.3442   42.6829 H   0  0  0  0  0  0  0  0  0  0  0  0
   49.5356   36.6236   42.5678 H   0  0  0  0  0  0  0  0  0  0  0  0
   50.0963   35.9054   41.0198 H   0  0  0  0  0  0  0  0  0  0  0  0
   48.7679   37.1145   41.0198 H   0  0  0  0  0  0  0  0  0  0  0  0
   45.8871   32.4810   43.6004 H   0  0  0  0  0  0  0  0  0  0  0  0
   44.8113   34.1259   46.4312 H   0  0  0  0  0  0  0  0  0  0  0  0
   47.8038   31.2335   45.1805 H   0  0  0  0  0  0  0  0  0  0  0  0
   46.3792   31.3020   49.1785 H   0  0  0  0  0  0  0  0  0  0  0  0
   44.8593   34.6121   45.0108 H   0  0  0  0  0  0  0  0  0  0  0  0
   46.1685   35.3747   44.0446 H   0  0  0  0  0  0  0  0  0  0  0  0
   44.6206   36.5538   42.6745 H   0  0  0  0  0  0  0  0  0  0  0  0
   43.2115   36.5606   40.6385 H   0  0  0  0  0  0  0  0  0  0  0  0
   43.0832   32.3324   40.8164 H   0  0  0  0  0  0  0  0  0  0  0  0
  1 10  1  0
  2  3  1  0
  2  1  1  0
  4  3  1  0
  5  4  1  0
  5  6  1  0
  7  6  1  0
  7  2  1  0
  8  7  1  0
  9  8  1  0
 10 12  1  0
 11 16  2  0
 12 13  2  0
 12 11  1  0
 13 14  1  0
 14 15  2  0
 16 15  1  0
 17 10  1  0
 18 17  1  0
 19 18  2  0
 20 19  1  0
 21 20  2  0
 21 22  1  0
 22 23  2  0
 23 18  1  0
  1 24  1  0
  1 25  1  0
  3 26  1  0
  3 27  1  0
  4 28  1  0
  4 29  1  0
  5 30  1  0
  5 31  1  0
  6 32  1  0
  6 33  1  0
  7 34  1  6
  8 35  1  0
  8 36  1  0
  9 37  1  0
  9 38  1  0
  9 39  1  0
 10 40  1  6
 11 41  1  0
 13 42  1  0
 15 43  1  0
 17 44  1  0
 17 45  1  0
 19 46  1  0
 20 47  1  0
 22 48  1  0
M  ISO  8  24   8  25   8  26  13  27  13  28  13  29  13  30  13  31  13
M  ISO  8  32  13  33  13  34  13  35   8  36   8  37   8  38   8  39   8
M  ISO  8  40   8  41  14  42  14  43  14  44   8  45   8  46  14  47  14
M  ISO  1  48  14
M  END
>  <minimizedAffinity>  (1) 
-5.36084366

>  <minimizedRMSD>  (1) 
2.81454158

$$$$
