
     RDKit          3D

 16 17  0  0  0  0  0  0  0  0999 V2000
   44.4930   35.9990   44.5040 C   0  0  0  0  0  0  0  0  0  0  0  0
   45.0830   36.1350   43.2270 C   0  0  0  0  0  0  0  0  0  0  0  0
   46.0420   35.1890   42.8830 C   0  0  0  0  0  0  0  0  0  0  0  0
   46.3370   34.2260   43.7780 N   0  0  0  0  0  0  0  0  0  0  0  0
   45.7640   34.1140   44.9900 C   0  0  0  0  0  0  0  0  0  0  0  0
   44.8260   35.0140   45.3620 N   0  0  0  0  0  0  0  0  0  0  0  0
   46.1060   33.0590   45.9380 C   0  0  0  0  0  0  0  0  0  0  0  0
   47.0550   32.0960   45.9010 N   0  0  0  0  0  0  0  0  0  0  0  0
   46.9710   31.3790   46.9950 O   0  0  0  0  0  0  0  0  0  0  0  0
   46.0080   31.8230   47.7540 C   0  0  0  0  0  0  0  0  0  0  0  0
   45.4540   32.8760   47.1100 N   0  0  0  0  0  0  0  0  0  0  0  0
   45.3730   31.3140   49.3440 S   0  0  0  0  0  0  0  0  0  0  0  0
   43.7290   36.7284   44.8111 H   0  0  0  0  0  0  0  0  0  0  0  0
   44.7984   36.9467   42.5413 H   0  0  0  0  0  0  0  0  0  0  0  0
   46.5465   35.2257   41.9062 H   0  0  0  0  0  0  0  0  0  0  0  0
   46.1078   31.9030   50.3390 H   0  0  0  0  0  0  0  0  0  0  0  0
  1  6  2  0
  2  1  1  0
  3  2  2  0
  3  4  1  0
  4  5  2  0
  5  6  1  0
  5  7  1  0
  7 11  1  0
  8  7  2  0
  8  9  1  0
  9 10  1  0
 10 12  1  0
 11 10  2  0
  1 13  1  0
  2 14  1  0
  3 15  1  0
 12 16  1  0
M  ISO  4  13  14  14  14  15  14  16  11
M  END
>  <minimizedAffinity>  (1) 
-4.31100845

>  <minimizedRMSD>  (1) 
0.731423616

$$$$
