
     RDKit          3D

 26 29  0  0  0  0  0  0  0  0999 V2000
   45.0970   31.9410   43.4260 C   0  0  0  0  0  0  0  0  0  0  0  0
   44.8710   30.6880   42.9980 N   0  0  0  0  0  0  0  0  0  0  0  0
   45.4320   29.8340   43.8030 O   0  0  0  0  0  0  0  0  0  0  0  0
   46.0360   30.4730   44.7670 C   0  0  0  0  0  0  0  0  0  0  0  0
   45.8290   31.8020   44.5360 N   0  0  0  0  0  0  0  0  0  0  0  0
   46.7700   29.9240   45.8540 N   0  0  0  0  0  0  0  0  0  0  0  0
   47.0740   28.6380   46.0280 C   0  0  0  0  0  0  0  0  0  0  0  0
   47.7740   28.4850   47.1620 N   0  0  0  0  0  0  0  0  0  0  0  0
   47.9010   29.7260   47.6970 C   0  0  0  0  0  0  0  0  0  0  0  0
   48.5350   30.1250   48.8640 C   0  0  0  0  0  0  0  0  0  0  0  0
   48.5310   31.4390   49.1990 N   0  0  0  0  0  0  0  0  0  0  0  0
   47.8990   32.3210   48.3700 C   0  0  0  0  0  0  0  0  0  0  0  0
   47.2850   31.9260   47.2370 N   0  0  0  0  0  0  0  0  0  0  0  0
   47.2660   30.6450   46.8730 C   0  0  0  0  0  0  0  0  0  0  0  0
   44.8620   35.5850   43.0630 C   0  0  0  0  0  0  0  0  0  0  0  0
   43.9910   35.7440   41.9750 C   0  0  0  0  0  0  0  0  0  0  0  0
   43.4910   34.5900   41.3760 C   0  0  0  0  0  0  0  0  0  0  0  0
   43.8610   33.3880   41.8600 N   0  0  0  0  0  0  0  0  0  0  0  0
   44.7070   33.2630   42.9140 C   0  0  0  0  0  0  0  0  0  0  0  0
   45.1940   34.3560   43.5000 N   0  0  0  0  0  0  0  0  0  0  0  0
   46.7929   27.8238   45.3439 H   0  0  0  0  0  0  0  0  0  0  0  0
   49.0339   29.3863   49.5086 H   0  0  0  0  0  0  0  0  0  0  0  0
   47.8907   33.3885   48.6354 H   0  0  0  0  0  0  0  0  0  0  0  0
   45.2772   36.4723   43.5633 H   0  0  0  0  0  0  0  0  0  0  0  0
   43.7130   36.7431   41.6083 H   0  0  0  0  0  0  0  0  0  0  0  0
   42.8038   34.6590   40.5199 H   0  0  0  0  0  0  0  0  0  0  0  0
  1  5  1  0
  2  1  2  0
  2  3  1  0
  3  4  1  0
  4  6  1  0
  5  4  2  0
  6  7  1  0
  6 14  1  0
  7  8  2  0
  8  9  1  0
  9 10  2  0
 10 11  1  0
 12 11  2  0
 13 12  1  0
 14 13  2  0
 14  9  1  0
 15 20  2  0
 16 15  1  0
 17 18  1  0
 17 16  2  0
 18 19  2  0
 19  1  1  0
 19 20  1  0
  7 21  1  0
 10 22  1  0
 12 23  1  0
 15 24  1  0
 16 25  1  0
 17 26  1  0
M  ISO  6  21  14  22  14  23  14  24  14  25  14  26  14
M  END
>  <minimizedAffinity>  (1) 
-4.15674353

>  <minimizedRMSD>  (1) 
4.73890209

$$$$
