
     RDKit          3D

 27 29  0  0  0  0  0  0  0  0999 V2000
   45.9840   33.1670   43.8470 C   0  0  0  0  0  0  0  0  0  0  0  0
   47.1980   32.5770   43.7730 N   0  0  0  0  0  0  0  0  0  0  0  0
   47.4710   31.9940   44.9140 O   0  0  0  0  0  0  0  0  0  0  0  0
   46.4840   32.1700   45.7470 C   0  0  0  0  0  0  0  0  0  0  0  0
   45.5470   32.9040   45.0930 N   0  0  0  0  0  0  0  0  0  0  0  0
   46.4310   31.6800   47.0760 N   0  0  0  0  0  0  0  0  0  0  0  0
   47.5550   31.7820   47.9820 C   0  0  0  0  0  0  0  0  0  0  0  0
   47.0930   31.2010   49.2950 C   0  0  0  0  0  0  0  0  0  0  0  0
   45.5640   31.2510   49.2150 C   0  0  0  0  0  0  0  0  0  0  0  0
   45.3310   31.0250   47.7520 C   0  0  0  0  0  0  0  0  0  0  0  0
   43.8760   35.7910   42.4250 C   0  0  0  0  0  0  0  0  0  0  0  0
   43.7330   35.4190   41.0810 C   0  0  0  0  0  0  0  0  0  0  0  0
   44.3750   34.2520   40.6770 C   0  0  0  0  0  0  0  0  0  0  0  0
   45.0870   33.5550   41.5890 N   0  0  0  0  0  0  0  0  0  0  0  0
   45.2050   33.9420   42.8790 C   0  0  0  0  0  0  0  0  0  0  0  0
   44.6000   35.0560   43.2930 N   0  0  0  0  0  0  0  0  0  0  0  0
   48.4111   31.2113   47.5929 H   0  0  0  0  0  0  0  0  0  0  0  0
   47.8814   32.8259   48.0990 H   0  0  0  0  0  0  0  0  0  0  0  0
   47.4435   30.1644   49.4071 H   0  0  0  0  0  0  0  0  0  0  0  0
   47.4865   31.7541   50.1606 H   0  0  0  0  0  0  0  0  0  0  0  0
   45.1042   30.4572   49.8220 H   0  0  0  0  0  0  0  0  0  0  0  0
   45.1262   32.1843   49.5988 H   0  0  0  0  0  0  0  0  0  0  0  0
   44.3725   31.4676   47.4431 H   0  0  0  0  0  0  0  0  0  0  0  0
   45.2842   29.9533   47.5084 H   0  0  0  0  0  0  0  0  0  0  0  0
   43.3839   36.7080   42.7813 H   0  0  0  0  0  0  0  0  0  0  0  0
   43.1402   36.0221   40.3775 H   0  0  0  0  0  0  0  0  0  0  0  0
   44.3040   33.9043   39.6358 H   0  0  0  0  0  0  0  0  0  0  0  0
  1  5  1  0
  2  1  2  0
  2  3  1  0
  3  4  1  0
  4  6  1  0
  5  4  2  0
  6 10  1  0
  6  7  1  0
  7  8  1  0
  9  8  1  0
 10  9  1  0
 11 16  2  0
 12 11  1  0
 13 12  2  0
 13 14  1  0
 14 15  2  0
 15 16  1  0
 15  1  1  0
  7 17  1  0
  7 18  1  0
  8 19  1  0
  8 20  1  0
  9 21  1  0
  9 22  1  0
 10 23  1  0
 10 24  1  0
 11 25  1  0
 12 26  1  0
 13 27  1  0
M  ISO  8  17  13  18  13  19  13  20  13  21  13  22  13  23  13  24  13
M  ISO  3  25  14  26  14  27  14
M  END
>  <minimizedAffinity>  (1) 
-4.12811327

>  <minimizedRMSD>  (1) 
2.93573332

$$$$
