
     RDKit          3D

 20 22  0  0  0  0  0  0  0  0999 V2000
   45.9370   33.5350   43.4540 C   0  0  0  0  0  0  0  0  0  0  0  0
   47.2050   33.0610   43.3900 N   0  0  0  0  0  0  0  0  0  0  0  0
   47.5750   32.6500   44.5630 O   0  0  0  0  0  0  0  0  0  0  0  0
   46.6050   32.8270   45.4180 C   0  0  0  0  0  0  0  0  0  0  0  0
   45.5650   33.3810   44.7510 N   0  0  0  0  0  0  0  0  0  0  0  0
   43.5250   35.7840   41.8670 C   0  0  0  0  0  0  0  0  0  0  0  0
   43.3200   35.1940   40.6130 C   0  0  0  0  0  0  0  0  0  0  0  0
   44.0250   34.0080   40.3150 C   0  0  0  0  0  0  0  0  0  0  0  0
   44.8570   33.5080   41.2550 N   0  0  0  0  0  0  0  0  0  0  0  0
   45.0270   34.1100   42.4600 C   0  0  0  0  0  0  0  0  0  0  0  0
   44.3670   35.2370   42.7590 N   0  0  0  0  0  0  0  0  0  0  0  0
   46.5240   32.5310   46.8460 C   0  0  0  0  0  0  0  0  0  0  0  0
   47.4740   32.1110   47.7020 N   0  0  0  0  0  0  0  0  0  0  0  0
   46.9950   31.9610   48.9020 O   0  0  0  0  0  0  0  0  0  0  0  0
   45.7080   32.2870   48.8460 C   0  0  0  0  0  0  0  0  0  0  0  0
   45.3810   32.6470   47.5780 N   0  0  0  0  0  0  0  0  0  0  0  0
   42.9884   36.7090   42.1249 H   0  0  0  0  0  0  0  0  0  0  0  0
   42.6302   35.6416   39.8824 H   0  0  0  0  0  0  0  0  0  0  0  0
   43.9006   33.5049   39.3447 H   0  0  0  0  0  0  0  0  0  0  0  0
   45.0125   32.2681   49.6980 H   0  0  0  0  0  0  0  0  0  0  0  0
  1  5  1  0
  2  1  2  0
  2  3  1  0
  3  4  1  0
  4 12  1  0
  5  4  2  0
  6 11  2  0
  7  6  1  0
  8  7  2  0
  8  9  1  0
  9 10  2  0
 10 11  1  0
 10  1  1  0
 12 16  1  0
 12 13  2  0
 13 14  1  0
 15 14  1  0
 16 15  2  0
  6 17  1  0
  7 18  1  0
  8 19  1  0
 15 20  1  0
M  ISO  4  17  14  18  14  19  14  20  14
M  END
>  <minimizedAffinity>  (1) 
-4.09909391

>  <minimizedRMSD>  (1) 
3.39440227

$$$$
