
     RDKit          3D

 25 27  0  0  0  0  0  0  0  0999 V2000
   45.7420   33.1630   46.4220 C   0  0  0  0  0  0  0  0  0  0  0  0
   45.1230   33.0190   47.6030 N   0  0  0  0  0  0  0  0  0  0  0  0
   45.6390   31.9860   48.2350 O   0  0  0  0  0  0  0  0  0  0  0  0
   46.5850   31.4390   47.5010 C   0  0  0  0  0  0  0  0  0  0  0  0
   46.6480   32.1720   46.3760 N   0  0  0  0  0  0  0  0  0  0  0  0
   46.1380   34.8130   43.2000 C   0  0  0  0  0  0  0  0  0  0  0  0
   45.2680   35.9270   43.2720 C   0  0  0  0  0  0  0  0  0  0  0  0
   44.5440   36.0900   44.4600 C   0  0  0  0  0  0  0  0  0  0  0  0
   44.6960   35.2030   45.4720 N   0  0  0  0  0  0  0  0  0  0  0  0
   45.5430   34.1480   45.3580 C   0  0  0  0  0  0  0  0  0  0  0  0
   46.2650   33.9510   44.2230 N   0  0  0  0  0  0  0  0  0  0  0  0
   47.3800   30.2810   47.8670 C   0  0  0  0  0  0  0  0  0  0  0  0
   46.9060   29.1380   47.6940 O   0  0  0  0  0  0  0  0  0  0  0  0
   48.7130   30.3730   48.4300 C   0  0  0  0  0  0  0  0  0  0  0  0
   48.9060   31.1680   49.5360 C   0  0  0  0  0  0  0  0  0  0  0  0
   50.1980   31.2410   50.0610 C   0  0  0  0  0  0  0  0  0  0  0  0
   51.2530   30.5990   49.5720 N   0  0  0  0  0  0  0  0  0  0  0  0
   51.0100   29.8230   48.4760 C   0  0  0  0  0  0  0  0  0  0  0  0
   49.7780   29.7050   47.9110 N   0  0  0  0  0  0  0  0  0  0  0  0
   46.7246   34.6488   42.2841 H   0  0  0  0  0  0  0  0  0  0  0  0
   45.1652   36.6321   42.4340 H   0  0  0  0  0  0  0  0  0  0  0  0
   43.8523   36.9381   44.5709 H   0  0  0  0  0  0  0  0  0  0  0  0
   48.0735   31.7255   49.9900 H   0  0  0  0  0  0  0  0  0  0  0  0
   50.3535   31.8772   50.9448 H   0  0  0  0  0  0  0  0  0  0  0  0
   51.8480   29.2679   48.0293 H   0  0  0  0  0  0  0  0  0  0  0  0
  1  2  2  0
  2  3  1  0
  4 12  1  0
  4  3  1  0
  5  1  1  0
  5  4  2  0
  6  7  2  0
  6 11  1  0
  7  8  1  0
  8  9  2  0
 10  9  1  0
 10  1  1  0
 11 10  2  0
 12 14  1  0
 13 12  2  0
 14 15  2  0
 15 16  1  0
 17 16  2  0
 18 17  1  0
 19 14  1  0
 19 18  2  0
  6 20  1  0
  7 21  1  0
  8 22  1  0
 15 23  1  0
 16 24  1  0
 18 25  1  0
M  ISO  6  20  14  21  14  22  14  23  14  24  14  25  14
M  END
>  <minimizedAffinity>  (1) 
-5.15665102

>  <minimizedRMSD>  (1) 
3.87311864

$$$$
