
     RDKit          3D

 18 19  0  0  0  0  0  0  0  0999 V2000
   44.5020   36.0330   44.4630 C   0  0  0  0  0  0  0  0  0  0  0  0
   45.1320   36.1420   43.1870 C   0  0  0  0  0  0  0  0  0  0  0  0
   46.0910   35.1830   42.8580 C   0  0  0  0  0  0  0  0  0  0  0  0
   46.3670   34.2180   43.7560 N   0  0  0  0  0  0  0  0  0  0  0  0
   45.7500   34.1380   44.9680 C   0  0  0  0  0  0  0  0  0  0  0  0
   44.8230   35.0360   45.3230 N   0  0  0  0  0  0  0  0  0  0  0  0
   46.0560   33.0890   45.9360 C   0  0  0  0  0  0  0  0  0  0  0  0
   47.0330   32.1480   45.9340 N   0  0  0  0  0  0  0  0  0  0  0  0
   46.9200   31.4180   47.0120 O   0  0  0  0  0  0  0  0  0  0  0  0
   45.9060   31.8360   47.7300 C   0  0  0  0  0  0  0  0  0  0  0  0
   45.3570   32.8840   47.0630 N   0  0  0  0  0  0  0  0  0  0  0  0
   45.4400   31.2880   49.0100 C   0  0  0  0  0  0  0  0  0  0  0  0
   45.0610   30.1140   49.0500 O   0  0  0  0  0  0  0  0  0  0  0  0
   45.3670   31.9500   50.2500 O   0  0  0  0  0  0  0  0  0  0  0  0
   43.7413   36.7724   44.7540 H   0  0  0  0  0  0  0  0  0  0  0  0
   44.8715   36.9514   42.4892 H   0  0  0  0  0  0  0  0  0  0  0  0
   46.6092   35.2145   41.8882 H   0  0  0  0  0  0  0  0  0  0  0  0
   45.0324   31.4699   51.0485 H   0  0  0  0  0  0  0  0  0  0  0  0
  1  6  2  0
  2  1  1  0
  3  2  2  0
  3  4  1  0
  4  5  2  0
  5  6  1  0
  5  7  1  0
  7 11  1  0
  8  7  2  0
  8  9  1  0
  9 10  1  0
 10 12  1  0
 11 10  2  0
 12 13  2  0
 12 14  1  0
  1 15  1  0
  2 16  1  0
  3 17  1  0
 14 18  1  0
M  ISO  4  15  14  16  14  17  14  18   3
M  END
>  <minimizedAffinity>  (1) 
-4.98049402

>  <minimizedRMSD>  (1) 
0.261129647

$$$$
