
     RDKit          3D

 24 26  0  0  0  0  0  0  0  0999 V2000
   43.7320   33.9290   39.6050 C   0  0  0  0  0  0  0  0  0  0  0  0
   44.8280   33.2460   39.2640 N   0  0  0  0  0  0  0  0  0  0  0  0
   45.7800   33.4900   40.1430 O   0  0  0  0  0  0  0  0  0  0  0  0
   45.3530   34.3100   41.0540 C   0  0  0  0  0  0  0  0  0  0  0  0
   44.0650   34.6030   40.7390 N   0  0  0  0  0  0  0  0  0  0  0  0
   40.5590   35.3680   38.4950 C   0  0  0  0  0  0  0  0  0  0  0  0
   39.8840   34.2490   37.9170 C   0  0  0  0  0  0  0  0  0  0  0  0
   40.5560   33.0020   37.9240 C   0  0  0  0  0  0  0  0  0  0  0  0
   41.7910   32.9370   38.4740 N   0  0  0  0  0  0  0  0  0  0  0  0
   42.3880   34.0390   39.0130 C   0  0  0  0  0  0  0  0  0  0  0  0
   41.7930   35.2510   39.0310 N   0  0  0  0  0  0  0  0  0  0  0  0
   46.1620   34.7780   42.1680 C   0  0  0  0  0  0  0  0  0  0  0  0
   47.3400   35.1590   41.9390 O   0  0  0  0  0  0  0  0  0  0  0  0
   45.6690   34.8250   43.5400 C   0  0  0  0  0  0  0  0  0  0  0  0
   44.8280   35.8150   44.0030 C   0  0  0  0  0  0  0  0  0  0  0  0
   44.5970   35.4950   45.3450 C   0  0  0  0  0  0  0  0  0  0  0  0
   45.3090   34.3320   45.6200 C   0  0  0  0  0  0  0  0  0  0  0  0
   45.9240   33.9820   44.5130 O   0  0  0  0  0  0  0  0  0  0  0  0
   40.0612   36.3489   38.5036 H   0  0  0  0  0  0  0  0  0  0  0  0
   38.8788   34.3522   37.4823 H   0  0  0  0  0  0  0  0  0  0  0  0
   40.0848   32.1067   37.4922 H   0  0  0  0  0  0  0  0  0  0  0  0
   44.4263   36.6701   43.4397 H   0  0  0  0  0  0  0  0  0  0  0  0
   43.9693   36.0581   46.0513 H   0  0  0  0  0  0  0  0  0  0  0  0
   45.3495   33.8040   46.5842 H   0  0  0  0  0  0  0  0  0  0  0  0
  1  5  1  0
  2  1  2  0
  2  3  1  0
  3  4  1  0
  4 12  1  0
  5  4  2  0
  6 11  2  0
  7  8  2  0
  7  6  1  0
  8  9  1  0
  9 10  2  0
 10 11  1  0
 10  1  1  0
 12 14  1  0
 13 12  2  0
 14 15  2  0
 14 18  1  0
 15 16  1  0
 16 17  2  0
 18 17  1  0
  6 19  1  0
  7 20  1  0
  8 21  1  0
 15 22  1  0
 16 23  1  0
 17 24  1  0
M  ISO  6  19  14  20  14  21  14  22  14  23  14  24  14
M  END
>  <minimizedAffinity>  (1) 
-4.85860538

>  <minimizedRMSD>  (1) 
7.42515564

$$$$
