
     RDKit          3D

 24 25  0  0  0  0  0  0  0  0999 V2000
   43.2880   33.8000   41.7320 C   0  0  0  0  0  0  0  0  0  0  0  0
   43.6030   32.5840   42.2200 N   0  0  0  0  0  0  0  0  0  0  0  0
   44.8210   32.6060   42.6920 O   0  0  0  0  0  0  0  0  0  0  0  0
   45.3310   33.7880   42.5370 C   0  0  0  0  0  0  0  0  0  0  0  0
   44.3790   34.5510   41.9350 N   0  0  0  0  0  0  0  0  0  0  0  0
   46.6640   34.2140   42.9310 C   0  0  0  0  0  0  0  0  0  0  0  0
   47.1730   33.8050   43.9730 O   0  0  0  0  0  0  0  0  0  0  0  0
   47.2710   35.1080   42.0130 N   0  0  0  0  0  0  0  0  0  0  0  0
   48.6620   35.2070   42.2700 C   0  0  0  0  0  0  0  0  0  0  0  0
   49.5390   34.7540   43.0530 N   0  0  0  0  0  0  0  0  0  0  0  0
   49.5240   36.0550   41.4800 N   0  0  0  0  0  0  0  0  0  0  0  0
   49.3760   34.0940   43.8040 H   0  0  0  0  0  0  0  0  0  0  0  0
   40.5650   36.0990   40.9240 C   0  0  0  0  0  0  0  0  0  0  0  0
   39.7950   35.3570   40.0060 C   0  0  0  0  0  0  0  0  0  0  0  0
   40.2100   34.0480   39.6540 C   0  0  0  0  0  0  0  0  0  0  0  0
   41.3390   33.5760   40.2250 N   0  0  0  0  0  0  0  0  0  0  0  0
   42.0550   34.3040   41.0980 C   0  0  0  0  0  0  0  0  0  0  0  0
   41.6660   35.5390   41.4330 N   0  0  0  0  0  0  0  0  0  0  0  0
   46.7729   35.6132   41.2663 H   0  0  0  0  0  0  0  0  0  0  0  0
   50.5308   36.1057   41.6914 H   0  0  0  0  0  0  0  0  0  0  0  0
   49.1319   36.6091   40.7053 H   0  0  0  0  0  0  0  0  0  0  0  0
   40.2661   37.1168   41.2150 H   0  0  0  0  0  0  0  0  0  0  0  0
   38.8829   35.7884   39.5679 H   0  0  0  0  0  0  0  0  0  0  0  0
   39.6336   33.4392   38.9419 H   0  0  0  0  0  0  0  0  0  0  0  0
  1  5  1  0
  1  2  2  0
  2  3  1  0
  4  3  1  0
  4  6  1  0
  5  4  2  0
  6  7  2  0
  8  9  1  0
  8  6  1  0
  9 10  2  0
 10 12  1  0
 11  9  1  0
 13 18  2  0
 14 13  1  0
 15 14  2  0
 15 16  1  0
 16 17  2  0
 17 18  1  0
 17  1  1  0
  8 19  1  0
 11 20  1  0
 11 21  1  0
 13 22  1  0
 14 23  1  0
 15 24  1  0
M  ISO  3  22  14  23  14  24  14
M  END
>  <minimizedAffinity>  (1) 
-5.04347467

>  <minimizedRMSD>  (1) 
7.34821081

$$$$
