
     RDKit          3D

 47 49  0  0  1  0  0  0  0  0999 V2000
   47.6480   33.3470   43.9820 C   0  0  0  0  0  0  0  0  0  0  0  0
   47.9880   32.8100   42.7490 N   0  0  0  0  0  0  0  0  0  0  0  0
   48.4530   31.5390   42.7990 C   0  0  0  0  0  0  0  0  0  0  0  0
   49.8480   31.3140   42.2480 C   0  0  0  0  0  0  0  0  0  0  0  0
   50.7590   32.4690   42.1930 C   0  0  0  0  0  0  0  0  0  0  0  0
   50.0960   33.7950   42.4100 C   0  0  0  0  0  0  0  0  0  0  0  0
   48.6900   33.7110   41.9200 C   0  0  2  0  0  0  0  0  0  0  0  0
   48.1240   35.0830   41.9170 C   0  0  0  0  0  0  0  0  0  0  0  0
   49.0940   36.1580   41.5630 C   0  0  0  0  0  0  0  0  0  0  0  0
   46.3550   32.9650   44.5380 C   0  0  1  0  0  0  0  0  0  0  0  0
   46.9930   32.6180   46.9710 C   0  0  0  0  0  0  0  0  0  0  0  0
   46.5410   32.1220   45.7210 C   0  0  0  0  0  0  0  0  0  0  0  0
   46.2560   30.7530   45.6140 C   0  0  0  0  0  0  0  0  0  0  0  0
   46.4220   29.9710   46.6970 N   0  0  0  0  0  0  0  0  0  0  0  0
   46.8560   30.4740   47.8850 C   0  0  0  0  0  0  0  0  0  0  0  0
   47.1490   31.8240   48.0310 N   0  0  0  0  0  0  0  0  0  0  0  0
   45.5390   34.1830   44.8500 C   0  0  0  0  0  0  0  0  0  0  0  0
   44.9250   34.8030   43.6400 C   0  0  0  0  0  0  0  0  0  0  0  0
   44.3930   34.3310   42.4600 C   0  0  0  0  0  0  0  0  0  0  0  0
   43.9650   35.3830   41.6860 C   0  0  0  0  0  0  0  0  0  0  0  0
   44.2360   36.4910   42.3920 N   0  0  0  0  0  0  0  0  0  0  0  0
   44.7910   36.1600   43.5230 N   0  0  0  0  0  0  0  0  0  0  0  0
   47.6545   34.4422   43.8799 H   0  0  0  0  0  0  0  0  0  0  0  0
   48.3913   32.9416   44.6843 H   0  0  0  0  0  0  0  0  0  0  0  0
   48.4534   31.2230   43.8526 H   0  0  0  0  0  0  0  0  0  0  0  0
   47.7829   30.9548   42.1512 H   0  0  0  0  0  0  0  0  0  0  0  0
   50.3280   30.5471   42.8736 H   0  0  0  0  0  0  0  0  0  0  0  0
   49.6886   31.0367   41.1955 H   0  0  0  0  0  0  0  0  0  0  0  0
   51.5271   32.3379   42.9695 H   0  0  0  0  0  0  0  0  0  0  0  0
   51.1752   32.4906   41.1750 H   0  0  0  0  0  0  0  0  0  0  0  0
   50.1005   34.0403   43.4823 H   0  0  0  0  0  0  0  0  0  0  0  0
   50.6381   34.5798   41.8622 H   0  0  0  0  0  0  0  0  0  0  0  0
   48.6180   33.3260   40.8921 H   0  0  0  0  0  0  0  0  0  0  0  0
   47.3002   35.1118   41.1886 H   0  0  0  0  0  0  0  0  0  0  0  0
   47.7987   35.2863   42.9480 H   0  0  0  0  0  0  0  0  0  0  0  0
   49.4976   36.6053   42.4833 H   0  0  0  0  0  0  0  0  0  0  0  0
   49.9169   35.7293   40.9722 H   0  0  0  0  0  0  0  0  0  0  0  0
   48.5833   36.9327   40.9722 H   0  0  0  0  0  0  0  0  0  0  0  0
   45.8023   32.3773   43.7903 H   0  0  0  0  0  0  0  0  0  0  0  0
   47.2216   33.6895   47.0687 H   0  0  0  0  0  0  0  0  0  0  0  0
   45.9036   30.3264   44.6633 H   0  0  0  0  0  0  0  0  0  0  0  0
   46.9769   29.7991   48.7452 H   0  0  0  0  0  0  0  0  0  0  0  0
   44.7342   33.8969   45.5431 H   0  0  0  0  0  0  0  0  0  0  0  0
   46.2177   34.9278   45.2911 H   0  0  0  0  0  0  0  0  0  0  0  0
   44.3214   33.2699   42.1791 H   0  0  0  0  0  0  0  0  0  0  0  0
   43.4967   35.3278   40.6922 H   0  0  0  0  0  0  0  0  0  0  0  0
   44.0362   37.4543   42.0870 H   0  0  0  0  0  0  0  0  0  0  0  0
  1 10  1  0
  2  3  1  0
  2  1  1  0
  4  3  1  0
  5  4  1  0
  5  6  1  0
  7  6  1  0
  7  2  1  0
  8  7  1  0
  9  8  1  0
 10 17  1  0
 10 12  1  0
 11 16  2  0
 12 11  1  0
 13 12  2  0
 13 14  1  0
 14 15  2  0
 15 16  1  0
 18 17  1  0
 19 18  1  0
 20 21  1  0
 20 19  2  0
 21 22  1  0
 22 18  2  0
  1 23  1  0
  1 24  1  0
  3 25  1  0
  3 26  1  0
  4 27  1  0
  4 28  1  0
  5 29  1  0
  5 30  1  0
  6 31  1  0
  6 32  1  0
  7 33  1  6
  8 34  1  0
  8 35  1  0
  9 36  1  0
  9 37  1  0
  9 38  1  0
 10 39  1  6
 11 40  1  0
 13 41  1  0
 15 42  1  0
 17 43  1  0
 17 44  1  0
 19 45  1  0
 20 46  1  0
 21 47  1  0
M  ISO  8  23   8  24   8  25  13  26  13  27  13  28  13  29  13  30  13
M  ISO  8  31  13  32  13  33  13  34   8  35   8  36   8  37   8  38   8
M  ISO  8  39   8  40  14  41  14  42  14  43   8  44   8  45  14  46  14
M  ISO  1  47   9
M  END
>  <minimizedAffinity>  (1) 
-5.26887989

>  <minimizedRMSD>  (1) 
2.60449362

$$$$
