
     RDKit          3D

 40 43  0  0  0  0  0  0  0  0999 V2000
   40.6280   36.2280   41.0950 C   0  0  0  0  0  0  0  0  0  0  0  0
   39.8430   35.5340   40.1730 C   0  0  0  0  0  0  0  0  0  0  0  0
   40.2130   34.2460   39.7660 C   0  0  0  0  0  0  0  0  0  0  0  0
   41.3290   33.7620   40.3150 N   0  0  0  0  0  0  0  0  0  0  0  0
   42.0880   34.4170   41.2000 C   0  0  0  0  0  0  0  0  0  0  0  0
   41.7270   35.6350   41.5730 N   0  0  0  0  0  0  0  0  0  0  0  0
   39.5100   33.3540   38.8970 C   0  0  0  0  0  0  0  0  0  0  0  0
   38.8040   33.9390   37.8340 C   0  0  0  0  0  0  0  0  0  0  0  0
   38.0610   33.2510   36.9020 C   0  0  0  0  0  0  0  0  0  0  0  0
   37.9800   31.8800   36.9890 C   0  0  0  0  0  0  0  0  0  0  0  0
   38.6450   31.2380   38.0090 C   0  0  0  0  0  0  0  0  0  0  0  0
   38.5470   29.8690   38.1360 C   0  0  0  0  0  0  0  0  0  0  0  0
   39.1680   29.1660   39.1760 C   0  0  0  0  0  0  0  0  0  0  0  0
   39.8900   29.9560   40.0720 C   0  0  0  0  0  0  0  0  0  0  0  0
   39.9630   31.3180   39.9100 C   0  0  0  0  0  0  0  0  0  0  0  0
   39.3550   31.9950   38.8860 C   0  0  0  0  0  0  0  0  0  0  0  0
   43.3270   33.8500   41.7720 C   0  0  0  0  0  0  0  0  0  0  0  0
   43.6490   32.6170   42.1720 N   0  0  0  0  0  0  0  0  0  0  0  0
   44.8810   32.6090   42.6090 O   0  0  0  0  0  0  0  0  0  0  0  0
   45.3940   33.8080   42.5110 C   0  0  0  0  0  0  0  0  0  0  0  0
   44.4290   34.5990   41.9880 N   0  0  0  0  0  0  0  0  0  0  0  0
   46.7330   34.1770   42.8980 C   0  0  0  0  0  0  0  0  0  0  0  0
   47.2740   33.7320   43.8950 O   0  0  0  0  0  0  0  0  0  0  0  0
   47.3260   35.0880   42.0110 N   0  0  0  0  0  0  0  0  0  0  0  0
   48.7230   35.2350   42.2480 C   0  0  0  0  0  0  0  0  0  0  0  0
   49.5960   34.7780   43.0350 N   0  0  0  0  0  0  0  0  0  0  0  0
   49.5640   36.1070   41.4780 N   0  0  0  0  0  0  0  0  0  0  0  0
   49.4860   33.9400   43.5840 H   0  0  0  0  0  0  0  0  0  0  0  0
   40.3487   37.2407   41.4213 H   0  0  0  0  0  0  0  0  0  0  0  0
   38.9331   35.9990   39.7657 H   0  0  0  0  0  0  0  0  0  0  0  0
   38.8481   35.0339   37.7384 H   0  0  0  0  0  0  0  0  0  0  0  0
   37.5386   33.7900   36.0979 H   0  0  0  0  0  0  0  0  0  0  0  0
   37.3937   31.3068   36.2558 H   0  0  0  0  0  0  0  0  0  0  0  0
   37.9599   29.3084   37.3937 H   0  0  0  0  0  0  0  0  0  0  0  0
   39.0924   28.0734   39.2790 H   0  0  0  0  0  0  0  0  0  0  0  0
   40.4073   29.4816   40.9190 H   0  0  0  0  0  0  0  0  0  0  0  0
   40.5422   31.8977   40.6438 H   0  0  0  0  0  0  0  0  0  0  0  0
   46.8114   35.5917   41.2745 H   0  0  0  0  0  0  0  0  0  0  0  0
   50.5691   36.1749   41.6926 H   0  0  0  0  0  0  0  0  0  0  0  0
   49.1623   36.6648   40.7109 H   0  0  0  0  0  0  0  0  0  0  0  0
  1  6  2  0
  2  1  1  0
  3  2  2  0
  3  4  1  0
  4  5  2  0
  5  6  1  0
  5 17  1  0
  7  3  1  0
  8  7  2  0
  9 10  2  0
  9  8  1  0
 10 11  1  0
 11 12  1  0
 11 16  2  0
 12 13  2  0
 13 14  1  0
 15 14  2  0
 16  7  1  0
 16 15  1  0
 17 21  1  0
 17 18  2  0
 18 19  1  0
 20 19  1  0
 20 22  1  0
 21 20  2  0
 22 23  2  0
 24 25  1  0
 24 22  1  0
 25 26  2  0
 26 28  1  0
 27 25  1  0
  1 29  1  0
  2 30  1  0
  8 31  1  0
  9 32  1  0
 10 33  1  0
 12 34  1  0
 13 35  1  0
 14 36  1  0
 15 37  1  0
 24 38  1  0
 27 39  1  0
 27 40  1  0
M  ISO  8  29  14  30  14  31  14  32  14  33  14  34  14  35  14  36  14
M  ISO  1  37  14
M  END
>  <minimizedAffinity>  (1) 
-6.99468184

>  <minimizedRMSD>  (1) 
0.374442965

$$$$
