
     RDKit          3D

 34 36  0  0  0  0  0  0  0  0999 V2000
   40.6430   36.1660   41.0570 C   0  0  0  0  0  0  0  0  0  0  0  0
   39.8830   35.4800   40.1030 C   0  0  0  0  0  0  0  0  0  0  0  0
   40.3050   34.1990   39.7150 C   0  0  0  0  0  0  0  0  0  0  0  0
   41.4110   33.6670   40.2540 N   0  0  0  0  0  0  0  0  0  0  0  0
   42.1290   34.3570   41.1780 C   0  0  0  0  0  0  0  0  0  0  0  0
   41.7480   35.5880   41.5720 N   0  0  0  0  0  0  0  0  0  0  0  0
   39.5630   33.4300   38.7270 C   0  0  0  0  0  0  0  0  0  0  0  0
   38.5640   33.9310   37.9240 C   0  0  0  0  0  0  0  0  0  0  0  0
   37.8810   33.1690   36.9980 C   0  0  0  0  0  0  0  0  0  0  0  0
   38.1780   31.8430   36.8340 C   0  0  0  0  0  0  0  0  0  0  0  0
   39.1740   31.2980   37.6170 C   0  0  0  0  0  0  0  0  0  0  0  0
   39.8330   32.0920   38.5320 C   0  0  0  0  0  0  0  0  0  0  0  0
   43.3560   33.8170   41.7860 C   0  0  0  0  0  0  0  0  0  0  0  0
   43.6620   32.6020   42.2470 N   0  0  0  0  0  0  0  0  0  0  0  0
   44.8890   32.5950   42.7000 O   0  0  0  0  0  0  0  0  0  0  0  0
   45.4140   33.7850   42.5530 C   0  0  0  0  0  0  0  0  0  0  0  0
   44.4640   34.5590   41.9830 N   0  0  0  0  0  0  0  0  0  0  0  0
   46.7550   34.1550   42.9420 C   0  0  0  0  0  0  0  0  0  0  0  0
   47.3000   33.6970   43.9300 O   0  0  0  0  0  0  0  0  0  0  0  0
   47.3400   35.0820   42.0650 N   0  0  0  0  0  0  0  0  0  0  0  0
   48.7410   35.2160   42.2860 C   0  0  0  0  0  0  0  0  0  0  0  0
   49.6250   34.7460   43.0490 N   0  0  0  0  0  0  0  0  0  0  0  0
   49.5750   36.0930   41.5110 N   0  0  0  0  0  0  0  0  0  0  0  0
   49.5080   33.9320   43.6280 H   0  0  0  0  0  0  0  0  0  0  0  0
   40.3410   37.1715   41.3854 H   0  0  0  0  0  0  0  0  0  0  0  0
   38.9793   35.9326   39.6689 H   0  0  0  0  0  0  0  0  0  0  0  0
   38.2962   34.9931   38.0254 H   0  0  0  0  0  0  0  0  0  0  0  0
   37.0916   33.6310   36.3869 H   0  0  0  0  0  0  0  0  0  0  0  0
   37.6375   31.2293   36.0984 H   0  0  0  0  0  0  0  0  0  0  0  0
   39.4412   30.2361   37.5123 H   0  0  0  0  0  0  0  0  0  0  0  0
   40.6220   31.6298   39.1434 H   0  0  0  0  0  0  0  0  0  0  0  0
   46.8179   35.6037   41.3465 H   0  0  0  0  0  0  0  0  0  0  0  0
   50.5837   36.1540   41.7105 H   0  0  0  0  0  0  0  0  0  0  0  0
   49.1641   36.6606   40.7561 H   0  0  0  0  0  0  0  0  0  0  0  0
  1  6  2  0
  2  1  1  0
  3  2  2  0
  3  4  1  0
  4  5  2  0
  5  6  1  0
  5 13  1  0
  7  3  1  0
  8  7  2  0
  9  8  1  0
 10  9  2  0
 10 11  1  0
 11 12  2  0
 12  7  1  0
 13 17  1  0
 13 14  2  0
 14 15  1  0
 16 15  1  0
 16 18  1  0
 17 16  2  0
 18 19  2  0
 20 21  1  0
 20 18  1  0
 21 22  2  0
 22 24  1  0
 23 21  1  0
  1 25  1  0
  2 26  1  0
  8 27  1  0
  9 28  1  0
 10 29  1  0
 11 30  1  0
 12 31  1  0
 20 32  1  0
 23 33  1  0
 23 34  1  0
M  ISO  7  25  14  26  14  27  14  28  14  29  14  30  14  31  14
M  END
>  <minimizedAffinity>  (1) 
-6.55648851

>  <minimizedRMSD>  (1) 
0.267303616

$$$$
