
     RDKit          3D

 33 35  0  0  0  0  0  0  0  0999 V2000
   43.4850   33.7510   41.8140 C   0  0  0  0  0  0  0  0  0  0  0  0
   43.7930   32.5270   42.2420 N   0  0  0  0  0  0  0  0  0  0  0  0
   45.0240   32.5110   42.6900 O   0  0  0  0  0  0  0  0  0  0  0  0
   45.5500   33.7030   42.5700 C   0  0  0  0  0  0  0  0  0  0  0  0
   44.5940   34.4910   42.0220 N   0  0  0  0  0  0  0  0  0  0  0  0
   46.8940   34.0670   42.9600 C   0  0  0  0  0  0  0  0  0  0  0  0
   47.4600   33.5620   43.9120 O   0  0  0  0  0  0  0  0  0  0  0  0
   47.4500   35.0490   42.1240 N   0  0  0  0  0  0  0  0  0  0  0  0
   48.8440   35.2150   42.3570 C   0  0  0  0  0  0  0  0  0  0  0  0
   49.7460   34.7160   43.0860 N   0  0  0  0  0  0  0  0  0  0  0  0
   49.6460   36.1800   41.6590 N   0  0  0  0  0  0  0  0  0  0  0  0
   49.6590   33.8490   43.5890 H   0  0  0  0  0  0  0  0  0  0  0  0
   40.7980   36.1400   41.1240 C   0  0  0  0  0  0  0  0  0  0  0  0
   40.0210   35.4730   40.1730 C   0  0  0  0  0  0  0  0  0  0  0  0
   40.4230   34.1890   39.7730 C   0  0  0  0  0  0  0  0  0  0  0  0
   41.5210   33.6280   40.2960 N   0  0  0  0  0  0  0  0  0  0  0  0
   42.2580   34.3050   41.2210 C   0  0  0  0  0  0  0  0  0  0  0  0
   41.8970   35.5400   41.6250 N   0  0  0  0  0  0  0  0  0  0  0  0
   39.6850   33.4080   38.7880 C   0  0  0  0  0  0  0  0  0  0  0  0
   38.6430   33.9010   38.0320 C   0  0  0  0  0  0  0  0  0  0  0  0
   37.9340   33.1780   37.0970 C   0  0  0  0  0  0  0  0  0  0  0  0
   38.2600   31.8770   36.8780 C   0  0  0  0  0  0  0  0  0  0  0  0
   39.2870   31.3880   37.6220 C   0  0  0  0  0  0  0  0  0  0  0  0
   39.9640   32.1140   38.5300 N   0  0  0  0  0  0  0  0  0  0  0  0
   46.9136   35.5844   41.4265 H   0  0  0  0  0  0  0  0  0  0  0  0
   50.6519   36.2597   41.8655 H   0  0  0  0  0  0  0  0  0  0  0  0
   49.2154   36.7926   40.9517 H   0  0  0  0  0  0  0  0  0  0  0  0
   40.5150   37.1479   41.4617 H   0  0  0  0  0  0  0  0  0  0  0  0
   39.1199   35.9410   39.7499 H   0  0  0  0  0  0  0  0  0  0  0  0
   38.3555   34.9514   38.1868 H   0  0  0  0  0  0  0  0  0  0  0  0
   37.1140   33.6485   36.5347 H   0  0  0  0  0  0  0  0  0  0  0  0
   37.7252   31.2573   36.1432 H   0  0  0  0  0  0  0  0  0  0  0  0
   39.5814   30.3386   37.4732 H   0  0  0  0  0  0  0  0  0  0  0  0
  1  5  1  0
  1  2  2  0
  2  3  1  0
  4  3  1  0
  4  6  1  0
  5  4  2  0
  6  7  2  0
  8  9  1  0
  8  6  1  0
  9 10  2  0
 10 12  1  0
 11  9  1  0
 13 18  2  0
 14 13  1  0
 15 14  2  0
 15 16  1  0
 16 17  2  0
 17 18  1  0
 17  1  1  0
 19 15  1  0
 20 19  2  0
 21 20  1  0
 22 21  2  0
 22 23  1  0
 23 24  2  0
 24 19  1  0
  8 25  1  0
 11 26  1  0
 11 27  1  0
 13 28  1  0
 14 29  1  0
 20 30  1  0
 21 31  1  0
 22 32  1  0
 23 33  1  0
M  ISO  6  28  14  29  14  30  14  31  14  32  14  33  14
M  END
>  <minimizedAffinity>  (1) 
-6.34898233

>  <minimizedRMSD>  (1) 
0.498293966

$$$$
