
     RDKit          3D

 32 34  0  0  0  0  0  0  0  0999 V2000
   43.5560   33.7810   41.8280 C   0  0  0  0  0  0  0  0  0  0  0  0
   43.8930   32.5850   42.3120 N   0  0  0  0  0  0  0  0  0  0  0  0
   45.1220   32.6180   42.7560 O   0  0  0  0  0  0  0  0  0  0  0  0
   45.6190   33.8170   42.5810 C   0  0  0  0  0  0  0  0  0  0  0  0
   44.6470   34.5510   42.0000 N   0  0  0  0  0  0  0  0  0  0  0  0
   46.9580   34.2160   42.9560 C   0  0  0  0  0  0  0  0  0  0  0  0
   47.5340   33.7690   43.9310 O   0  0  0  0  0  0  0  0  0  0  0  0
   47.4980   35.1640   42.0710 N   0  0  0  0  0  0  0  0  0  0  0  0
   48.8850   35.3790   42.3040 C   0  0  0  0  0  0  0  0  0  0  0  0
   49.7980   34.9330   43.0500 N   0  0  0  0  0  0  0  0  0  0  0  0
   49.6630   36.3440   41.5790 N   0  0  0  0  0  0  0  0  0  0  0  0
   49.7260   34.0940   43.6040 H   0  0  0  0  0  0  0  0  0  0  0  0
   40.7950   36.0580   41.0710 C   0  0  0  0  0  0  0  0  0  0  0  0
   40.0490   35.3470   40.1230 C   0  0  0  0  0  0  0  0  0  0  0  0
   40.5000   34.0670   39.7470 C   0  0  0  0  0  0  0  0  0  0  0  0
   41.6180   33.5610   40.2950 N   0  0  0  0  0  0  0  0  0  0  0  0
   42.3150   34.2820   41.2120 C   0  0  0  0  0  0  0  0  0  0  0  0
   41.9070   35.5100   41.5910 N   0  0  0  0  0  0  0  0  0  0  0  0
   39.7190   33.3310   38.7570 C   0  0  0  0  0  0  0  0  0  0  0  0
   38.6960   33.9770   38.0950 C   0  0  0  0  0  0  0  0  0  0  0  0
   38.0140   33.2030   37.1800 C   0  0  0  0  0  0  0  0  0  0  0  0
   38.3160   31.9010   36.9400 N   0  0  0  0  0  0  0  0  0  0  0  0
   39.3220   31.3140   37.6120 C   0  0  0  0  0  0  0  0  0  0  0  0
   40.0270   32.0420   38.5280 N   0  0  0  0  0  0  0  0  0  0  0  0
   46.9547   35.6459   41.3406 H   0  0  0  0  0  0  0  0  0  0  0  0
   50.6650   36.4594   41.7878 H   0  0  0  0  0  0  0  0  0  0  0  0
   49.2190   36.9208   40.8502 H   0  0  0  0  0  0  0  0  0  0  0  0
   40.4726   37.0605   41.3888 H   0  0  0  0  0  0  0  0  0  0  0  0
   39.1362   35.7763   39.6842 H   0  0  0  0  0  0  0  0  0  0  0  0
   38.4430   35.0309   38.2829 H   0  0  0  0  0  0  0  0  0  0  0  0
   37.1868   33.6616   36.6183 H   0  0  0  0  0  0  0  0  0  0  0  0
   39.5744   30.2596   37.4262 H   0  0  0  0  0  0  0  0  0  0  0  0
  1  5  1  0
  1  2  2  0
  2  3  1  0
  4  3  1  0
  4  6  1  0
  5  4  2  0
  6  7  2  0
  8  9  1  0
  8  6  1  0
  9 10  2  0
 10 12  1  0
 11  9  1  0
 13 18  2  0
 14 13  1  0
 15 14  2  0
 15 16  1  0
 16 17  2  0
 17 18  1  0
 17  1  1  0
 19 15  1  0
 20 19  2  0
 21 20  1  0
 22 21  2  0
 22 23  1  0
 23 24  2  0
 24 19  1  0
  8 25  1  0
 11 26  1  0
 11 27  1  0
 13 28  1  0
 14 29  1  0
 20 30  1  0
 21 31  1  0
 23 32  1  0
M  ISO  5  28  14  29  14  30  14  31  14  32  14
M  END
>  <minimizedAffinity>  (1) 
-6.1397872

>  <minimizedRMSD>  (1) 
0.524133027

$$$$
