
     RDKit          3D

 53 55  0  0  1  0  0  0  0  0999 V2000
   46.0390   34.9850   41.3880 C   0  0  0  0  0  0  0  0  0  0  0  0
   46.6850   34.1490   40.4810 N   0  0  0  0  0  0  0  0  0  0  0  0
   46.0250   32.9890   40.2780 C   0  0  0  0  0  0  0  0  0  0  0  0
   46.8460   31.7520   40.5560 C   0  0  0  0  0  0  0  0  0  0  0  0
   47.9480   31.8500   41.5210 C   0  0  0  0  0  0  0  0  0  0  0  0
   48.3600   33.2520   41.8420 C   0  0  0  0  0  0  0  0  0  0  0  0
   48.0880   34.1230   40.6690 C   0  0  2  0  0  0  0  0  0  0  0  0
   48.7010   35.4470   40.8930 C   0  0  0  0  0  0  0  0  0  0  0  0
   49.5410   35.5400   42.1290 C   0  0  0  0  0  0  0  0  0  0  0  0
   44.7900   34.5720   41.9490 C   0  0  1  0  0  0  0  0  0  0  0  0
   44.4630   35.5280   44.2950 C   0  0  0  0  0  0  0  0  0  0  0  0
   44.8940   34.4850   43.4310 C   0  0  0  0  0  0  0  0  0  0  0  0
   45.4340   33.3460   44.0070 C   0  0  0  0  0  0  0  0  0  0  0  0
   45.5350   33.2580   45.3430 N   0  0  0  0  0  0  0  0  0  0  0  0
   45.1180   34.2640   46.1490 C   0  0  0  0  0  0  0  0  0  0  0  0
   44.5710   35.4200   45.6100 N   0  0  0  0  0  0  0  0  0  0  0  0
   43.6630   35.4460   41.5490 C   0  0  0  0  0  0  0  0  0  0  0  0
   42.6980   35.0840   40.5240 C   0  0  0  0  0  0  0  0  0  0  0  0
   41.3250   35.6520   40.4880 C   0  0  0  0  0  0  0  0  0  0  0  0
   40.6190   34.8390   41.5960 C   0  0  0  0  0  0  0  0  0  0  0  0
   41.0080   33.4550   41.1970 C   0  0  0  0  0  0  0  0  0  0  0  0
   42.3880   33.5450   40.6390 C   0  0  0  0  0  0  0  0  0  0  0  0
   45.8601   35.9406   40.8734 H   0  0  0  0  0  0  0  0  0  0  0  0
   46.7191   35.0093   42.2522 H   0  0  0  0  0  0  0  0  0  0  0  0
   45.1442   32.9735   40.9367 H   0  0  0  0  0  0  0  0  0  0  0  0
   45.7600   32.9590   39.2108 H   0  0  0  0  0  0  0  0  0  0  0  0
   46.1560   30.9799   40.9270 H   0  0  0  0  0  0  0  0  0  0  0  0
   47.3423   31.5350   39.5986 H   0  0  0  0  0  0  0  0  0  0  0  0
   47.6334   31.3607   42.4546 H   0  0  0  0  0  0  0  0  0  0  0  0
   48.8185   31.3634   41.0568 H   0  0  0  0  0  0  0  0  0  0  0  0
   47.7882   33.6139   42.7092 H   0  0  0  0  0  0  0  0  0  0  0  0
   49.4340   33.2762   42.0786 H   0  0  0  0  0  0  0  0  0  0  0  0
   48.5393   33.7446   39.7400 H   0  0  0  0  0  0  0  0  0  0  0  0
   49.3367   35.6825   40.0268 H   0  0  0  0  0  0  0  0  0  0  0  0
   47.8720   36.1581   41.0233 H   0  0  0  0  0  0  0  0  0  0  0  0
   48.8958   35.4686   43.0170 H   0  0  0  0  0  0  0  0  0  0  0  0
   50.2710   34.7172   42.1390 H   0  0  0  0  0  0  0  0  0  0  0  0
   50.0733   36.5026   42.1390 H   0  0  0  0  0  0  0  0  0  0  0  0
   44.5681   33.5739   41.5432 H   0  0  0  0  0  0  0  0  0  0  0  0
   44.0313   36.4427   43.8626 H   0  0  0  0  0  0  0  0  0  0  0  0
   45.7787   32.5168   43.3717 H   0  0  0  0  0  0  0  0  0  0  0  0
   45.2138   34.1636   47.2402 H   0  0  0  0  0  0  0  0  0  0  0  0
   43.0790   35.6231   42.4642 H   0  0  0  0  0  0  0  0  0  0  0  0
   44.1948   36.2770   41.0626 H   0  0  0  0  0  0  0  0  0  0  0  0
   43.2285   35.4864   39.6484 H   0  0  0  0  0  0  0  0  0  0  0  0
   41.3298   36.7270   40.7211 H   0  0  0  0  0  0  0  0  0  0  0  0
   40.8386   35.5809   39.5040 H   0  0  0  0  0  0  0  0  0  0  0  0
   40.9992   35.0968   42.5955 H   0  0  0  0  0  0  0  0  0  0  0  0
   39.5350   35.0093   41.6734 H   0  0  0  0  0  0  0  0  0  0  0  0
   40.9953   32.7897   42.0729 H   0  0  0  0  0  0  0  0  0  0  0  0
   40.3065   33.0435   40.4564 H   0  0  0  0  0  0  0  0  0  0  0  0
   42.4335   33.0690   39.6484 H   0  0  0  0  0  0  0  0  0  0  0  0
   43.1199   33.0288   41.2776 H   0  0  0  0  0  0  0  0  0  0  0  0
  1 10  1  0
  2  7  1  0
  2  1  1  0
  3  2  1  0
  3  4  1  0
  4  5  1  0
  5  6  1  0
  7  8  1  0
  7  6  1  0
  8  9  1  0
 10 12  1  0
 11 16  2  0
 12 13  2  0
 12 11  1  0
 13 14  1  0
 14 15  2  0
 16 15  1  0
 17 10  1  0
 18 22  1  0
 18 17  1  0
 19 18  1  0
 19 20  1  0
 21 20  1  0
 22 21  1  0
  1 23  1  0
  1 24  1  0
  3 25  1  0
  3 26  1  0
  4 27  1  0
  4 28  1  0
  5 29  1  0
  5 30  1  0
  6 31  1  0
  6 32  1  0
  7 33  1  6
  8 34  1  0
  8 35  1  0
  9 36  1  0
  9 37  1  0
  9 38  1  0
 10 39  1  6
 11 40  1  0
 13 41  1  0
 15 42  1  0
 17 43  1  0
 17 44  1  0
 18 45  1  0
 19 46  1  0
 19 47  1  0
 20 48  1  0
 20 49  1  0
 21 50  1  0
 21 51  1  0
 22 52  1  0
 22 53  1  0
M  ISO  8  23   8  24   8  25  13  26  13  27  13  28  13  29  13  30  13
M  ISO  8  31  13  32  13  33  13  34   8  35   8  36   8  37   8  38   8
M  ISO  8  39   8  40  14  41  14  42  14  43   8  44   8  45  13  46  13
M  ISO  7  47  13  48  13  49  13  50  13  51  13  52  13  53  13
M  END
>  <minimizedAffinity>  (1) 
-5.25730467

>  <minimizedRMSD>  (1) 
2.44580722

$$$$
