
     RDKit          3D

 31 33  0  0  0  0  0  0  0  0999 V2000
   43.3470   33.8290   41.7450 C   0  0  0  0  0  0  0  0  0  0  0  0
   43.6460   32.5990   42.2380 N   0  0  0  0  0  0  0  0  0  0  0  0
   44.8680   32.6090   42.6960 O   0  0  0  0  0  0  0  0  0  0  0  0
   45.3910   33.7970   42.5260 C   0  0  0  0  0  0  0  0  0  0  0  0
   44.4460   34.5580   41.9340 N   0  0  0  0  0  0  0  0  0  0  0  0
   46.7370   34.1680   42.9170 C   0  0  0  0  0  0  0  0  0  0  0  0
   47.2790   33.7430   43.9220 O   0  0  0  0  0  0  0  0  0  0  0  0
   47.3270   35.0640   42.0090 N   0  0  0  0  0  0  0  0  0  0  0  0
   48.7170   35.2220   42.2510 C   0  0  0  0  0  0  0  0  0  0  0  0
   49.5980   34.7830   43.0330 N   0  0  0  0  0  0  0  0  0  0  0  0
   49.5560   36.1020   41.4860 N   0  0  0  0  0  0  0  0  0  0  0  0
   49.4890   33.9290   43.5870 H   0  0  0  0  0  0  0  0  0  0  0  0
   40.6210   36.1310   40.9960 C   0  0  0  0  0  0  0  0  0  0  0  0
   39.8480   35.4190   40.0620 C   0  0  0  0  0  0  0  0  0  0  0  0
   40.2630   34.1210   39.6750 C   0  0  0  0  0  0  0  0  0  0  0  0
   41.3930   33.6470   40.2400 N   0  0  0  0  0  0  0  0  0  0  0  0
   42.1140   34.3360   41.1240 C   0  0  0  0  0  0  0  0  0  0  0  0
   41.7250   35.5640   41.4910 N   0  0  0  0  0  0  0  0  0  0  0  0
   39.5100   33.3670   38.7320 N   0  0  0  0  0  0  0  0  0  0  0  0
   39.4270   32.0790   38.4080 N   0  0  0  0  0  0  0  0  0  0  0  0
   38.5290   31.9150   37.4190 C   0  0  0  0  0  0  0  0  0  0  0  0
   38.0030   33.1500   37.0850 C   0  0  0  0  0  0  0  0  0  0  0  0
   38.6440   34.0550   37.9360 C   0  0  0  0  0  0  0  0  0  0  0  0
   46.8131   35.5476   41.2587 H   0  0  0  0  0  0  0  0  0  0  0  0
   50.5594   36.1771   41.7059 H   0  0  0  0  0  0  0  0  0  0  0  0
   49.1541   36.6578   40.7176 H   0  0  0  0  0  0  0  0  0  0  0  0
   40.3212   37.1403   41.3146 H   0  0  0  0  0  0  0  0  0  0  0  0
   38.9351   35.8630   39.6383 H   0  0  0  0  0  0  0  0  0  0  0  0
   38.2579   30.9563   36.9528 H   0  0  0  0  0  0  0  0  0  0  0  0
   37.2463   33.3714   36.3180 H   0  0  0  0  0  0  0  0  0  0  0  0
   38.4771   35.1420   37.9592 H   0  0  0  0  0  0  0  0  0  0  0  0
  1  5  1  0
  1  2  2  0
  2  3  1  0
  4  3  1  0
  4  6  1  0
  5  4  2  0
  6  7  2  0
  8  9  1  0
  8  6  1  0
  9 10  2  0
 10 12  1  0
 11  9  1  0
 13 18  2  0
 14 13  1  0
 15 14  2  0
 15 16  1  0
 16 17  2  0
 17 18  1  0
 17  1  1  0
 19 15  1  0
 20 19  1  0
 21 20  2  0
 22 21  1  0
 22 23  2  0
 23 19  1  0
  8 24  1  0
 11 25  1  0
 11 26  1  0
 13 27  1  0
 14 28  1  0
 21 29  1  0
 22 30  1  0
 23 31  1  0
M  ISO  5  27  14  28  14  29  14  30  14  31  14
M  END
>  <minimizedAffinity>  (1) 
-6.10018206

>  <minimizedRMSD>  (1) 
0.24955374

$$$$
