
     RDKit          3D

 31 33  0  0  0  0  0  0  0  0999 V2000
   43.3110   33.8200   41.7250 C   0  0  0  0  0  0  0  0  0  0  0  0
   43.6370   32.5900   42.1290 N   0  0  0  0  0  0  0  0  0  0  0  0
   44.8650   32.5870   42.5810 O   0  0  0  0  0  0  0  0  0  0  0  0
   45.3700   33.7920   42.4900 C   0  0  0  0  0  0  0  0  0  0  0  0
   44.4050   34.5770   41.9530 N   0  0  0  0  0  0  0  0  0  0  0  0
   46.7110   34.1630   42.8970 C   0  0  0  0  0  0  0  0  0  0  0  0
   47.2320   33.7400   43.9130 O   0  0  0  0  0  0  0  0  0  0  0  0
   47.3190   35.0520   41.9950 N   0  0  0  0  0  0  0  0  0  0  0  0
   48.7100   35.1980   42.2540 C   0  0  0  0  0  0  0  0  0  0  0  0
   49.5790   34.7380   43.0380 N   0  0  0  0  0  0  0  0  0  0  0  0
   49.5570   36.0870   41.5060 N   0  0  0  0  0  0  0  0  0  0  0  0
   49.4490   33.9270   43.6240 H   0  0  0  0  0  0  0  0  0  0  0  0
   40.6200   36.1940   41.0240 C   0  0  0  0  0  0  0  0  0  0  0  0
   39.8260   35.5090   40.0950 C   0  0  0  0  0  0  0  0  0  0  0  0
   40.2220   34.2130   39.7150 C   0  0  0  0  0  0  0  0  0  0  0  0
   41.3300   33.6690   40.2390 N   0  0  0  0  0  0  0  0  0  0  0  0
   42.0750   34.3660   41.1380 C   0  0  0  0  0  0  0  0  0  0  0  0
   41.7230   35.6090   41.5230 N   0  0  0  0  0  0  0  0  0  0  0  0
   39.4560   33.4240   38.7520 C   0  0  0  0  0  0  0  0  0  0  0  0
   38.6270   33.9820   37.7990 C   0  0  0  0  0  0  0  0  0  0  0  0
   38.1050   32.9000   37.1090 C   0  0  0  0  0  0  0  0  0  0  0  0
   38.5920   31.7600   37.6170 N   0  0  0  0  0  0  0  0  0  0  0  0
   39.4120   32.0790   38.6140 N   0  0  0  0  0  0  0  0  0  0  0  0
   46.8183   35.5390   41.2380 H   0  0  0  0  0  0  0  0  0  0  0  0
   50.5592   36.1563   41.7333 H   0  0  0  0  0  0  0  0  0  0  0  0
   49.1616   36.6546   40.7429 H   0  0  0  0  0  0  0  0  0  0  0  0
   40.3415   37.2087   41.3446 H   0  0  0  0  0  0  0  0  0  0  0  0
   38.9200   35.9704   39.6751 H   0  0  0  0  0  0  0  0  0  0  0  0
   38.4256   35.0495   37.6260 H   0  0  0  0  0  0  0  0  0  0  0  0
   37.3969   32.9669   36.2699 H   0  0  0  0  0  0  0  0  0  0  0  0
   38.3709   30.8075   37.2934 H   0  0  0  0  0  0  0  0  0  0  0  0
  1  5  1  0
  1  2  2  0
  2  3  1  0
  4  3  1  0
  4  6  1  0
  5  4  2  0
  6  7  2  0
  8  9  1  0
  8  6  1  0
  9 10  2  0
 10 12  1  0
 11  9  1  0
 13 18  2  0
 14 13  1  0
 15 14  2  0
 15 16  1  0
 16 17  2  0
 17 18  1  0
 17  1  1  0
 19 15  1  0
 20 19  1  0
 21 22  1  0
 21 20  2  0
 22 23  1  0
 23 19  2  0
  8 24  1  0
 11 25  1  0
 11 26  1  0
 13 27  1  0
 14 28  1  0
 20 29  1  0
 21 30  1  0
 22 31  1  0
M  ISO  5  27  14  28  14  29  14  30  14  31   9
M  END
>  <minimizedAffinity>  (1) 
-6.05463552

>  <minimizedRMSD>  (1) 
0.218705773

$$$$
