
     RDKit          3D

 36 38  0  0  0  0  0  0  0  0999 V2000
   43.3780   33.7790   41.7590 C   0  0  0  0  0  0  0  0  0  0  0  0
   43.6810   32.5700   42.2420 N   0  0  0  0  0  0  0  0  0  0  0  0
   44.9050   32.5670   42.6940 O   0  0  0  0  0  0  0  0  0  0  0  0
   45.4360   33.7520   42.5260 C   0  0  0  0  0  0  0  0  0  0  0  0
   44.4840   34.5140   41.9410 N   0  0  0  0  0  0  0  0  0  0  0  0
   46.7810   34.1240   42.9070 C   0  0  0  0  0  0  0  0  0  0  0  0
   47.3390   33.6680   43.8900 O   0  0  0  0  0  0  0  0  0  0  0  0
   47.3490   35.0550   42.0220 N   0  0  0  0  0  0  0  0  0  0  0  0
   48.7410   35.2230   42.2520 C   0  0  0  0  0  0  0  0  0  0  0  0
   49.6330   34.7720   43.0220 N   0  0  0  0  0  0  0  0  0  0  0  0
   49.5640   36.1230   41.4930 N   0  0  0  0  0  0  0  0  0  0  0  0
   49.5420   33.9040   43.5480 H   0  0  0  0  0  0  0  0  0  0  0  0
   40.6620   36.1020   41.0160 C   0  0  0  0  0  0  0  0  0  0  0  0
   39.8900   35.4040   40.0790 C   0  0  0  0  0  0  0  0  0  0  0  0
   40.3080   34.1160   39.6960 C   0  0  0  0  0  0  0  0  0  0  0  0
   41.4230   33.6060   40.2400 N   0  0  0  0  0  0  0  0  0  0  0  0
   42.1440   34.3130   41.1430 C   0  0  0  0  0  0  0  0  0  0  0  0
   41.7740   35.5490   41.5330 N   0  0  0  0  0  0  0  0  0  0  0  0
   39.5520   33.3770   38.7500 N   0  0  0  0  0  0  0  0  0  0  0  0
   38.2550   33.8010   38.2030 C   0  0  0  0  0  0  0  0  0  0  0  0
   38.0230   32.9180   37.0020 C   0  0  0  0  0  0  0  0  0  0  0  0
   38.6940   31.6370   37.4560 C   0  0  0  0  0  0  0  0  0  0  0  0
   39.9350   32.1020   38.1780 C   0  0  0  0  0  0  0  0  0  0  0  0
   46.8200   35.5558   41.2938 H   0  0  0  0  0  0  0  0  0  0  0  0
   50.5689   36.2040   41.7040 H   0  0  0  0  0  0  0  0  0  0  0  0
   49.1492   36.6873   40.7377 H   0  0  0  0  0  0  0  0  0  0  0  0
   40.3567   37.1105   41.3318 H   0  0  0  0  0  0  0  0  0  0  0  0
   38.9798   35.8513   39.6531 H   0  0  0  0  0  0  0  0  0  0  0  0
   37.4574   33.6575   38.9468 H   0  0  0  0  0  0  0  0  0  0  0  0
   38.2514   34.8679   37.9351 H   0  0  0  0  0  0  0  0  0  0  0  0
   38.5013   33.3277   36.1001 H   0  0  0  0  0  0  0  0  0  0  0  0
   36.9662   32.8026   36.7194 H   0  0  0  0  0  0  0  0  0  0  0  0
   38.0373   31.0722   38.1340 H   0  0  0  0  0  0  0  0  0  0  0  0
   38.9232   30.9626   36.6178 H   0  0  0  0  0  0  0  0  0  0  0  0
   40.2186   31.3893   38.9665 H   0  0  0  0  0  0  0  0  0  0  0  0
   40.8068   32.1820   37.5120 H   0  0  0  0  0  0  0  0  0  0  0  0
  1  5  1  0
  1  2  2  0
  2  3  1  0
  4  3  1  0
  4  6  1  0
  5  4  2  0
  6  7  2  0
  8  9  1  0
  8  6  1  0
  9 10  2  0
 10 12  1  0
 11  9  1  0
 13 18  2  0
 14 13  1  0
 15 14  2  0
 15 16  1  0
 16 17  2  0
 17 18  1  0
 17  1  1  0
 19 15  1  0
 20 19  1  0
 21 22  1  0
 21 20  1  0
 22 23  1  0
 23 19  1  0
  8 24  1  0
 11 25  1  0
 11 26  1  0
 13 27  1  0
 14 28  1  0
 20 29  1  0
 20 30  1  0
 21 31  1  0
 21 32  1  0
 22 33  1  0
 22 34  1  0
 23 35  1  0
 23 36  1  0
M  ISO  8  27  14  28  14  29  13  30  13  31  13  32  13  33  13  34  13
M  ISO  2  35  13  36  13
M  END
>  <minimizedAffinity>  (1) 
-6.01884508

>  <minimizedRMSD>  (1) 
0.213492811

$$$$
