
     RDKit          3D

 26 27  0  0  0  0  0  0  0  0999 V2000
   43.4970   33.8630   41.6910 C   0  0  0  0  0  0  0  0  0  0  0  0
   43.7290   32.6530   42.2420 N   0  0  0  0  0  0  0  0  0  0  0  0
   44.9410   32.6100   42.7330 O   0  0  0  0  0  0  0  0  0  0  0  0
   45.5260   33.7630   42.5250 C   0  0  0  0  0  0  0  0  0  0  0  0
   44.6300   34.5550   41.8730 N   0  0  0  0  0  0  0  0  0  0  0  0
   46.8760   34.0900   42.9300 C   0  0  0  0  0  0  0  0  0  0  0  0
   47.4230   33.5740   43.8900 O   0  0  0  0  0  0  0  0  0  0  0  0
   47.4640   35.0560   42.0970 N   0  0  0  0  0  0  0  0  0  0  0  0
   48.8510   35.2070   42.3570 C   0  0  0  0  0  0  0  0  0  0  0  0
   49.7350   34.7010   43.0970 N   0  0  0  0  0  0  0  0  0  0  0  0
   49.6810   36.1650   41.6830 N   0  0  0  0  0  0  0  0  0  0  0  0
   49.6310   33.8070   43.5790 H   0  0  0  0  0  0  0  0  0  0  0  0
   40.6580   36.0680   41.0800 C   0  0  0  0  0  0  0  0  0  0  0  0
   40.1000   35.5200   39.8940 C   0  0  0  0  0  0  0  0  0  0  0  0
   40.6970   34.3920   39.3000 C   0  0  0  0  0  0  0  0  0  0  0  0
   41.7990   33.8770   39.9080 N   0  0  0  0  0  0  0  0  0  0  0  0
   42.3070   34.4070   41.0210 C   0  0  0  0  0  0  0  0  0  0  0  0
   41.7360   35.4700   41.5720 N   0  0  0  0  0  0  0  0  0  0  0  0
   40.1440   33.8120   38.0820 C   0  0  0  0  0  0  0  0  0  0  0  0
   39.1650   34.3850   37.5380 O   0  0  0  0  0  0  0  0  0  0  0  0
   46.9499   35.5910   41.3826 H   0  0  0  0  0  0  0  0  0  0  0  0
   50.6829   36.2303   41.9127 H   0  0  0  0  0  0  0  0  0  0  0  0
   49.2746   36.7871   40.9697 H   0  0  0  0  0  0  0  0  0  0  0  0
   40.2163   36.9488   41.5689 H   0  0  0  0  0  0  0  0  0  0  0  0
   39.2061   35.9748   39.4422 H   0  0  0  0  0  0  0  0  0  0  0  0
   40.5723   32.8958   37.6493 H   0  0  0  0  0  0  0  0  0  0  0  0
  1  5  1  0
  1  2  2  0
  2  3  1  0
  4  3  1  0
  4  6  1  0
  5  4  2  0
  6  7  2  0
  8  9  1  0
  8  6  1  0
  9 10  2  0
 10 12  1  0
 11  9  1  0
 13 18  2  0
 14 13  1  0
 15 14  2  0
 15 16  1  0
 16 17  2  0
 17 18  1  0
 17  1  1  0
 19 15  1  0
 20 19  2  0
  8 21  1  0
 11 22  1  0
 11 23  1  0
 13 24  1  0
 14 25  1  0
 19 26  1  0
M  ISO  3  24  14  25  14  26   6
M  END
>  <minimizedAffinity>  (1) 
-5.36206388

>  <minimizedRMSD>  (1) 
0.431219965

$$$$
