
     RDKit          3D

 27 28  0  0  0  0  0  0  0  0999 V2000
   43.2880   33.7820   41.6990 C   0  0  0  0  0  0  0  0  0  0  0  0
   43.5970   32.5600   42.1560 N   0  0  0  0  0  0  0  0  0  0  0  0
   44.8200   32.5680   42.6120 O   0  0  0  0  0  0  0  0  0  0  0  0
   45.3370   33.7620   42.4740 C   0  0  0  0  0  0  0  0  0  0  0  0
   44.3830   34.5270   41.9030 N   0  0  0  0  0  0  0  0  0  0  0  0
   46.6820   34.1310   42.8760 C   0  0  0  0  0  0  0  0  0  0  0  0
   47.2220   33.6790   43.8690 O   0  0  0  0  0  0  0  0  0  0  0  0
   47.2620   35.0550   41.9910 N   0  0  0  0  0  0  0  0  0  0  0  0
   48.6570   35.2110   42.2330 C   0  0  0  0  0  0  0  0  0  0  0  0
   49.5240   34.7880   43.0490 N   0  0  0  0  0  0  0  0  0  0  0  0
   49.5070   36.0460   41.4310 N   0  0  0  0  0  0  0  0  0  0  0  0
   49.4310   33.8960   43.5430 H   0  0  0  0  0  0  0  0  0  0  0  0
   40.5750   36.1210   40.9670 C   0  0  0  0  0  0  0  0  0  0  0  0
   39.7970   35.4170   40.0420 C   0  0  0  0  0  0  0  0  0  0  0  0
   40.1930   34.1240   39.6520 C   0  0  0  0  0  0  0  0  0  0  0  0
   41.3180   33.6340   40.2060 N   0  0  0  0  0  0  0  0  0  0  0  0
   42.0520   34.3140   41.0880 C   0  0  0  0  0  0  0  0  0  0  0  0
   41.6770   35.5460   41.4610 N   0  0  0  0  0  0  0  0  0  0  0  0
   39.3870   33.3510   38.6690 C   0  0  0  0  0  0  0  0  0  0  0  0
   46.7425   35.5578   41.2574 H   0  0  0  0  0  0  0  0  0  0  0  0
   50.5103   36.1221   41.6513 H   0  0  0  0  0  0  0  0  0  0  0  0
   49.1133   36.5687   40.6356 H   0  0  0  0  0  0  0  0  0  0  0  0
   40.2846   37.1336   41.2838 H   0  0  0  0  0  0  0  0  0  0  0  0
   38.8855   35.8691   39.6239 H   0  0  0  0  0  0  0  0  0  0  0  0
   38.6938   32.6862   39.2052 H   0  0  0  0  0  0  0  0  0  0  0  0
   38.8140   34.0459   38.0375 H   0  0  0  0  0  0  0  0  0  0  0  0
   40.0573   32.7494   38.0375 H   0  0  0  0  0  0  0  0  0  0  0  0
  1  5  1  0
  1  2  2  0
  2  3  1  0
  4  3  1  0
  4  6  1  0
  5  4  2  0
  6  7  2  0
  8  9  1  0
  8  6  1  0
  9 10  2  0
 10 12  1  0
 11  9  1  0
 13 18  2  0
 14 13  1  0
 15 14  2  0
 15 16  1  0
 16 17  2  0
 17 18  1  0
 17  1  1  0
 19 15  1  0
  8 20  1  0
 11 21  1  0
 11 22  1  0
 13 23  1  0
 14 24  1  0
 19 25  1  0
 19 26  1  0
 19 27  1  0
M  ISO  5  23  14  24  14  25   8  26   8  27   8
M  END
>  <minimizedAffinity>  (1) 
-5.30470276

>  <minimizedRMSD>  (1) 
0.0813211054

$$$$
