
     RDKit          3D

 47 50  0  0  1  0  0  0  0  0999 V2000
   40.7420   35.9620   40.9900 C   0  0  0  0  0  0  0  0  0  0  0  0
   40.2010   35.3450   39.8490 C   0  0  0  0  0  0  0  0  0  0  0  0
   40.8250   34.1950   39.3410 C   0  0  0  0  0  0  0  0  0  0  0  0
   41.9130   33.7200   39.9550 N   0  0  0  0  0  0  0  0  0  0  0  0
   42.4050   34.3500   41.0620 C   0  0  0  0  0  0  0  0  0  0  0  0
   41.8290   35.4570   41.5730 N   0  0  0  0  0  0  0  0  0  0  0  0
   40.2760   33.5230   38.1600 C   0  0  2  0  0  0  0  0  0  0  0  0
   39.0170   34.0710   37.6310 C   0  0  0  0  0  0  0  0  0  0  0  0
   37.9020   33.2930   38.3120 C   0  0  0  0  0  0  0  0  0  0  0  0
   38.4960   31.9300   38.5370 C   0  0  0  0  0  0  0  0  0  0  0  0
   39.9630   32.0680   38.3660 C   0  0  1  0  0  0  0  0  0  0  0  0
   40.6170   31.1480   37.4470 C   0  0  0  0  0  0  0  0  0  0  0  0
   42.0010   31.2680   37.2500 C   0  0  0  0  0  0  0  0  0  0  0  0
   42.7230   30.4310   36.3890 C   0  0  0  0  0  0  0  0  0  0  0  0
   42.0690   29.4440   35.6960 C   0  0  0  0  0  0  0  0  0  0  0  0
   40.7080   29.2920   35.8600 C   0  0  0  0  0  0  0  0  0  0  0  0
   40.0410   30.1400   36.7180 C   0  0  0  0  0  0  0  0  0  0  0  0
   43.6050   33.8490   41.7670 C   0  0  0  0  0  0  0  0  0  0  0  0
   43.8590   32.6830   42.3900 N   0  0  0  0  0  0  0  0  0  0  0  0
   45.0740   32.6860   42.8730 O   0  0  0  0  0  0  0  0  0  0  0  0
   45.6520   33.8390   42.5880 C   0  0  0  0  0  0  0  0  0  0  0  0
   44.7330   34.5670   41.8960 N   0  0  0  0  0  0  0  0  0  0  0  0
   46.9950   34.1940   42.9650 C   0  0  0  0  0  0  0  0  0  0  0  0
   47.5850   33.6780   43.8840 O   0  0  0  0  0  0  0  0  0  0  0  0
   47.5220   35.1930   42.1490 N   0  0  0  0  0  0  0  0  0  0  0  0
   48.9080   35.3800   42.3320 C   0  0  0  0  0  0  0  0  0  0  0  0
   49.8380   34.9160   43.0510 N   0  0  0  0  0  0  0  0  0  0  0  0
   49.7050   36.3320   41.5990 N   0  0  0  0  0  0  0  0  0  0  0  0
   49.7490   34.0730   43.5790 H   0  0  0  0  0  0  0  0  0  0  0  0
   40.2670   36.8641   41.4030 H   0  0  0  0  0  0  0  0  0  0  0  0
   39.3042   35.7562   39.3626 H   0  0  0  0  0  0  0  0  0  0  0  0
   41.1061   33.6885   37.4574 H   0  0  0  0  0  0  0  0  0  0  0  0
   38.9364   35.1419   37.8692 H   0  0  0  0  0  0  0  0  0  0  0  0
   38.9645   33.9753   36.5364 H   0  0  0  0  0  0  0  0  0  0  0  0
   37.6252   33.7618   39.2678 H   0  0  0  0  0  0  0  0  0  0  0  0
   36.9806   33.2600   37.7121 H   0  0  0  0  0  0  0  0  0  0  0  0
   38.2646   31.5792   39.5536 H   0  0  0  0  0  0  0  0  0  0  0  0
   38.0832   31.1977   37.8276 H   0  0  0  0  0  0  0  0  0  0  0  0
   40.4352   31.7212   39.2970 H   0  0  0  0  0  0  0  0  0  0  0  0
   42.5433   32.0541   37.7958 H   0  0  0  0  0  0  0  0  0  0  0  0
   43.8083   30.5645   36.2693 H   0  0  0  0  0  0  0  0  0  0  0  0
   42.6243   28.7807   35.0166 H   0  0  0  0  0  0  0  0  0  0  0  0
   40.1636   28.5068   35.3149 H   0  0  0  0  0  0  0  0  0  0  0  0
   38.9559   29.9958   36.8268 H   0  0  0  0  0  0  0  0  0  0  0  0
   46.9580   35.7383   41.4815 H   0  0  0  0  0  0  0  0  0  0  0  0
   50.7144   36.4123   41.7878 H   0  0  0  0  0  0  0  0  0  0  0  0
   49.2650   36.9318   40.8866 H   0  0  0  0  0  0  0  0  0  0  0  0
  1  6  2  0
  2  1  1  0
  3  2  2  0
  3  4  1  0
  4  5  2  0
  5  6  1  0
  5 18  1  0
  7 11  1  0
  7  3  1  0
  8  7  1  0
  8  9  1  0
  9 10  1  0
 11 10  1  0
 12 11  1  0
 13 12  2  0
 14 13  1  0
 15 16  1  0
 15 14  2  0
 16 17  2  0
 17 12  1  0
 18 22  1  0
 18 19  2  0
 19 20  1  0
 21 20  1  0
 21 23  1  0
 22 21  2  0
 23 24  2  0
 25 26  1  0
 25 23  1  0
 26 27  2  0
 27 29  1  0
 28 26  1  0
  1 30  1  0
  2 31  1  0
  7 32  1  6
  8 33  1  0
  8 34  1  0
  9 35  1  0
  9 36  1  0
 10 37  1  0
 10 38  1  0
 11 39  1  1
 13 40  1  0
 14 41  1  0
 15 42  1  0
 16 43  1  0
 17 44  1  0
 25 45  1  0
 28 46  1  0
 28 47  1  0
M  ISO  8  30  14  31  14  32  13  33  13  34  13  35  13  36  13  37  13
M  ISO  7  38  13  39  13  40  14  41  14  42  14  43  14  44  14
M  END
>  <minimizedAffinity>  (1) 
-6.95921612

>  <minimizedRMSD>  (1) 
0.829257846

$$$$
