
     RDKit          3D

 47 50  0  0  1  0  0  0  0  0999 V2000
   40.7530   35.9590   41.0010 C   0  0  0  0  0  0  0  0  0  0  0  0
   40.2130   35.3490   39.8600 C   0  0  0  0  0  0  0  0  0  0  0  0
   40.8380   34.2020   39.3440 C   0  0  0  0  0  0  0  0  0  0  0  0
   41.9310   33.7190   39.9510 N   0  0  0  0  0  0  0  0  0  0  0  0
   42.4200   34.3470   41.0600 C   0  0  0  0  0  0  0  0  0  0  0  0
   41.8450   35.4490   41.5810 N   0  0  0  0  0  0  0  0  0  0  0  0
   40.2870   33.5320   38.1600 C   0  0  2  0  0  0  0  0  0  0  0  0
   39.0360   34.0860   37.6300 C   0  0  0  0  0  0  0  0  0  0  0  0
   37.9150   33.3100   38.3030 C   0  0  0  0  0  0  0  0  0  0  0  0
   38.5000   31.9450   38.5260 C   0  0  0  0  0  0  0  0  0  0  0  0
   39.9680   32.0780   38.3690 C   0  0  1  0  0  0  0  0  0  0  0  0
   40.6320   31.1520   37.4640 C   0  0  0  0  0  0  0  0  0  0  0  0
   40.0040   30.1440   36.7340 C   0  0  0  0  0  0  0  0  0  0  0  0
   40.6520   29.2760   35.8790 C   0  0  0  0  0  0  0  0  0  0  0  0
   42.0130   29.3970   35.7210 C   0  0  0  0  0  0  0  0  0  0  0  0
   42.7110   30.3520   36.3930 C   0  0  0  0  0  0  0  0  0  0  0  0
   42.0130   31.1720   37.2180 C   0  0  0  0  0  0  0  0  0  0  0  0
   43.6210   33.8430   41.7630 C   0  0  0  0  0  0  0  0  0  0  0  0
   43.8700   32.6860   42.4020 N   0  0  0  0  0  0  0  0  0  0  0  0
   45.0850   32.6840   42.8750 O   0  0  0  0  0  0  0  0  0  0  0  0
   45.6750   33.8240   42.5690 C   0  0  0  0  0  0  0  0  0  0  0  0
   44.7580   34.5470   41.8740 N   0  0  0  0  0  0  0  0  0  0  0  0
   47.0230   34.1670   42.9320 C   0  0  0  0  0  0  0  0  0  0  0  0
   47.6300   33.6530   43.8360 O   0  0  0  0  0  0  0  0  0  0  0  0
   47.5380   35.1640   42.1080 N   0  0  0  0  0  0  0  0  0  0  0  0
   48.9340   35.3980   42.3090 C   0  0  0  0  0  0  0  0  0  0  0  0
   49.8420   34.9350   43.0490 N   0  0  0  0  0  0  0  0  0  0  0  0
   49.7030   36.3600   41.5890 N   0  0  0  0  0  0  0  0  0  0  0  0
   49.8160   33.9750   43.4090 H   0  0  0  0  0  0  0  0  0  0  0  0
   40.2779   36.8584   41.4198 H   0  0  0  0  0  0  0  0  0  0  0  0
   39.3150   35.7618   39.3771 H   0  0  0  0  0  0  0  0  0  0  0  0
   41.1171   33.6924   37.4563 H   0  0  0  0  0  0  0  0  0  0  0  0
   38.9590   35.1562   37.8725 H   0  0  0  0  0  0  0  0  0  0  0  0
   38.9875   33.9952   36.5348 H   0  0  0  0  0  0  0  0  0  0  0  0
   37.6359   33.7766   39.2592 H   0  0  0  0  0  0  0  0  0  0  0  0
   36.9967   33.2830   37.6981 H   0  0  0  0  0  0  0  0  0  0  0  0
   38.2580   31.5900   39.5386 H   0  0  0  0  0  0  0  0  0  0  0  0
   38.0904   31.2179   37.8094 H   0  0  0  0  0  0  0  0  0  0  0  0
   40.4285   31.7328   39.3064 H   0  0  0  0  0  0  0  0  0  0  0  0
   38.9155   30.0327   36.8475 H   0  0  0  0  0  0  0  0  0  0  0  0
   40.0910   28.5023   35.3344 H   0  0  0  0  0  0  0  0  0  0  0  0
   42.5438   28.7129   35.0426 H   0  0  0  0  0  0  0  0  0  0  0  0
   43.7994   30.4553   36.2720 H   0  0  0  0  0  0  0  0  0  0  0  0
   42.5942   31.9373   37.7533 H   0  0  0  0  0  0  0  0  0  0  0  0
   46.9700   35.6814   41.4220 H   0  0  0  0  0  0  0  0  0  0  0  0
   50.7070   36.4716   41.7901 H   0  0  0  0  0  0  0  0  0  0  0  0
   49.2542   36.9429   40.8681 H   0  0  0  0  0  0  0  0  0  0  0  0
  1  6  2  0
  2  1  1  0
  3  2  2  0
  3  4  1  0
  4  5  2  0
  5  6  1  0
  5 18  1  0
  7 11  1  0
  7  3  1  0
  8  7  1  0
  8  9  1  0
  9 10  1  0
 11 10  1  0
 12 11  1  0
 13 12  2  0
 14 13  1  0
 15 14  2  0
 15 16  1  0
 16 17  2  0
 17 12  1  0
 18 22  1  0
 18 19  2  0
 19 20  1  0
 21 20  1  0
 21 23  1  0
 22 21  2  0
 23 24  2  0
 25 26  1  0
 25 23  1  0
 26 27  2  0
 27 29  1  0
 28 26  1  0
  1 30  1  0
  2 31  1  0
  7 32  1  6
  8 33  1  0
  8 34  1  0
  9 35  1  0
  9 36  1  0
 10 37  1  0
 10 38  1  0
 11 39  1  1
 13 40  1  0
 14 41  1  0
 15 42  1  0
 16 43  1  0
 17 44  1  0
 25 45  1  0
 28 46  1  0
 28 47  1  0
M  ISO  8  30  14  31  14  32  13  33  13  34  13  35  13  36  13  37  13
M  ISO  7  38  13  39  13  40  14  41  14  42  14  43  14  44  14
M  END
>  <minimizedAffinity>  (1) 
-6.95671654

>  <minimizedRMSD>  (1) 
0.8174178

$$$$
