
     RDKit          3D

 45 48  0  0  1  0  0  0  0  0999 V2000
   40.7010   35.7720   41.2320 C   0  0  0  0  0  0  0  0  0  0  0  0
   40.2180   35.2480   40.0280 C   0  0  0  0  0  0  0  0  0  0  0  0
   40.9210   34.2070   39.4200 C   0  0  0  0  0  0  0  0  0  0  0  0
   42.0230   33.7570   40.0130 N   0  0  0  0  0  0  0  0  0  0  0  0
   42.4710   34.2740   41.1700 C   0  0  0  0  0  0  0  0  0  0  0  0
   41.8130   35.2810   41.7840 N   0  0  0  0  0  0  0  0  0  0  0  0
   40.4450   33.6160   38.1630 C   0  0  2  0  0  0  0  0  0  0  0  0
   39.5460   34.4630   37.3600 C   0  0  0  0  0  0  0  0  0  0  0  0
   38.1340   34.1030   37.7920 C   0  0  0  0  0  0  0  0  0  0  0  0
   38.2400   32.6540   38.1600 C   0  0  0  0  0  0  0  0  0  0  0  0
   39.6990   32.3370   38.2580 C   0  0  2  0  0  0  0  0  0  0  0  0
   39.8860   31.5400   39.4800 C   0  0  0  0  0  0  0  0  0  0  0  0
   39.0300   31.6860   40.5810 C   0  0  0  0  0  0  0  0  0  0  0  0
   39.3210   30.8580   41.6440 C   0  0  0  0  0  0  0  0  0  0  0  0
   40.3380   29.9780   41.6430 N   0  0  0  0  0  0  0  0  0  0  0  0
   41.1360   29.8710   40.5650 C   0  0  0  0  0  0  0  0  0  0  0  0
   40.9160   30.6450   39.4870 N   0  0  0  0  0  0  0  0  0  0  0  0
   43.6890   33.7830   41.8450 C   0  0  0  0  0  0  0  0  0  0  0  0
   43.9620   32.6250   42.4720 N   0  0  0  0  0  0  0  0  0  0  0  0
   45.1860   32.6320   42.9220 O   0  0  0  0  0  0  0  0  0  0  0  0
   45.7580   33.7790   42.6120 C   0  0  0  0  0  0  0  0  0  0  0  0
   44.8210   34.5000   41.9380 N   0  0  0  0  0  0  0  0  0  0  0  0
   47.1090   34.1350   42.9500 C   0  0  0  0  0  0  0  0  0  0  0  0
   47.7450   33.6090   43.8290 O   0  0  0  0  0  0  0  0  0  0  0  0
   47.5910   35.1600   42.1380 N   0  0  0  0  0  0  0  0  0  0  0  0
   48.9880   35.4020   42.3100 C   0  0  0  0  0  0  0  0  0  0  0  0
   49.9200   34.9320   43.0120 N   0  0  0  0  0  0  0  0  0  0  0  0
   49.7270   36.3920   41.5960 N   0  0  0  0  0  0  0  0  0  0  0  0
   49.9170   33.9620   43.3460 H   0  0  0  0  0  0  0  0  0  0  0  0
   40.1615   36.5932   41.7266 H   0  0  0  0  0  0  0  0  0  0  0  0
   39.3019   35.6488   39.5695 H   0  0  0  0  0  0  0  0  0  0  0  0
   41.4299   33.4719   37.6947 H   0  0  0  0  0  0  0  0  0  0  0  0
   39.6822   34.2562   36.2882 H   0  0  0  0  0  0  0  0  0  0  0  0
   39.7545   35.5319   37.5150 H   0  0  0  0  0  0  0  0  0  0  0  0
   37.8214   34.7066   38.6569 H   0  0  0  0  0  0  0  0  0  0  0  0
   37.3848   34.2928   37.0093 H   0  0  0  0  0  0  0  0  0  0  0  0
   37.7474   32.4720   39.1266 H   0  0  0  0  0  0  0  0  0  0  0  0
   37.7485   32.0194   37.4079 H   0  0  0  0  0  0  0  0  0  0  0  0
   40.1006   31.7180   37.4421 H   0  0  0  0  0  0  0  0  0  0  0  0
   38.1952   32.4022   40.5953 H   0  0  0  0  0  0  0  0  0  0  0  0
   38.6875   30.9204   42.5411 H   0  0  0  0  0  0  0  0  0  0  0  0
   41.9677   29.1511   40.5652 H   0  0  0  0  0  0  0  0  0  0  0  0
   47.0000   35.6890   41.4809 H   0  0  0  0  0  0  0  0  0  0  0  0
   50.7348   36.5098   41.7732 H   0  0  0  0  0  0  0  0  0  0  0  0
   49.2527   36.9889   40.9034 H   0  0  0  0  0  0  0  0  0  0  0  0
  1  6  2  0
  2  1  1  0
  3  4  1  0
  3  2  2  0
  4  5  2  0
  5  6  1  0
  5 18  1  0
  7 11  1  0
  7  3  1  0
  8  9  1  0
  8  7  1  0
  9 10  1  0
 10 11  1  0
 11 12  1  0
 12 17  1  0
 12 13  2  0
 13 14  1  0
 15 14  2  0
 16 15  1  0
 17 16  2  0
 18 22  1  0
 18 19  2  0
 19 20  1  0
 21 20  1  0
 21 23  1  0
 22 21  2  0
 23 24  2  0
 25 26  1  0
 25 23  1  0
 26 27  2  0
 27 29  1  0
 28 26  1  0
  1 30  1  0
  2 31  1  0
  7 32  1  6
  8 33  1  0
  8 34  1  0
  9 35  1  0
  9 36  1  0
 10 37  1  0
 10 38  1  0
 11 39  1  6
 13 40  1  0
 14 41  1  0
 16 42  1  0
 25 43  1  0
 28 44  1  0
 28 45  1  0
M  ISO  8  30  14  31  14  32  13  33  13  34  13  35  13  36  13  37  13
M  ISO  5  38  13  39  13  40  14  41  14  42  14
M  END
>  <minimizedAffinity>  (1) 
-6.78358746

>  <minimizedRMSD>  (1) 
1.15387499

$$$$
