
     RDKit          3D

 45 47  0  0  1  0  0  0  0  0999 V2000
   46.2850   35.0090   42.0270 C   0  0  0  0  0  0  0  0  0  0  0  0
   46.7750   34.4930   40.8260 N   0  0  0  0  0  0  0  0  0  0  0  0
   46.0630   33.4420   40.3530 C   0  0  0  0  0  0  0  0  0  0  0  0
   46.8370   32.1500   40.1640 C   0  0  0  0  0  0  0  0  0  0  0  0
   48.0720   31.9670   40.9420 C   0  0  0  0  0  0  0  0  0  0  0  0
   48.5630   33.2060   41.6130 C   0  0  0  0  0  0  0  0  0  0  0  0
   48.1790   34.3940   40.7950 C   0  0  2  0  0  0  0  0  0  0  0  0
   48.8830   35.5730   41.3560 C   0  0  0  0  0  0  0  0  0  0  0  0
   49.8480   35.2720   42.4550 C   0  0  0  0  0  0  0  0  0  0  0  0
   45.0640   34.4270   42.5510 C   0  0  1  0  0  0  0  0  0  0  0  0
   45.2100   34.4650   45.0950 C   0  0  0  0  0  0  0  0  0  0  0  0
   45.3260   33.7940   43.8470 C   0  0  0  0  0  0  0  0  0  0  0  0
   45.7060   32.4420   43.8530 C   0  0  0  0  0  0  0  0  0  0  0  0
   45.9400   31.8400   45.0320 N   0  0  0  0  0  0  0  0  0  0  0  0
   45.8210   32.5040   46.2100 C   0  0  0  0  0  0  0  0  0  0  0  0
   45.4490   33.8410   46.2420 N   0  0  0  0  0  0  0  0  0  0  0  0
   43.9940   35.4790   42.6730 C   0  0  0  0  0  0  0  0  0  0  0  0
   42.9650   35.3410   41.5800 C   0  0  0  0  0  0  0  0  0  0  0  0
   43.0940   35.2170   40.2450 N   0  0  0  0  0  0  0  0  0  0  0  0
   41.9280   35.1250   39.6990 O   0  0  0  0  0  0  0  0  0  0  0  0
   40.9780   35.1800   40.6000 C   0  0  0  0  0  0  0  0  0  0  0  0
   41.6190   35.3150   41.7740 N   0  0  0  0  0  0  0  0  0  0  0  0
   46.1007   36.0827   41.8748 H   0  0  0  0  0  0  0  0  0  0  0  0
   47.0561   34.7686   42.7737 H   0  0  0  0  0  0  0  0  0  0  0  0
   45.2437   33.2441   41.0599 H   0  0  0  0  0  0  0  0  0  0  0  0
   45.7263   33.7377   39.3484 H   0  0  0  0  0  0  0  0  0  0  0  0
   46.1608   31.3221   40.4235 H   0  0  0  0  0  0  0  0  0  0  0  0
   47.1727   32.1804   39.1169 H   0  0  0  0  0  0  0  0  0  0  0  0
   47.8829   31.2080   41.7154 H   0  0  0  0  0  0  0  0  0  0  0  0
   48.8525   31.6642   40.2284 H   0  0  0  0  0  0  0  0  0  0  0  0
   48.1112   33.2864   42.6127 H   0  0  0  0  0  0  0  0  0  0  0  0
   49.6578   33.1636   41.7106 H   0  0  0  0  0  0  0  0  0  0  0  0
   48.4748   34.3169   39.7383 H   0  0  0  0  0  0  0  0  0  0  0  0
   49.4374   36.0589   40.5396 H   0  0  0  0  0  0  0  0  0  0  0  0
   48.1047   36.2119   41.7988 H   0  0  0  0  0  0  0  0  0  0  0  0
   49.3563   35.4254   43.4270 H   0  0  0  0  0  0  0  0  0  0  0  0
   50.1819   34.2270   42.3738 H   0  0  0  0  0  0  0  0  0  0  0  0
   50.7167   35.9418   42.3738 H   0  0  0  0  0  0  0  0  0  0  0  0
   44.7063   33.6553   41.8535 H   0  0  0  0  0  0  0  0  0  0  0  0
   44.9157   35.5248   45.1105 H   0  0  0  0  0  0  0  0  0  0  0  0
   45.8103   31.8856   42.9099 H   0  0  0  0  0  0  0  0  0  0  0  0
   46.0223   31.9748   47.1531 H   0  0  0  0  0  0  0  0  0  0  0  0
   43.4971   35.3736   43.6487 H   0  0  0  0  0  0  0  0  0  0  0  0
   44.4668   36.4681   42.5827 H   0  0  0  0  0  0  0  0  0  0  0  0
   39.8922   35.1272   40.4322 H   0  0  0  0  0  0  0  0  0  0  0  0
  1 10  1  0
  2  1  1  0
  3  2  1  0
  4  3  1  0
  4  5  1  0
  5  6  1  0
  7  2  1  0
  7  8  1  0
  7  6  1  0
  8  9  1  0
 10 17  1  0
 10 12  1  0
 11 16  2  0
 12 13  2  0
 12 11  1  0
 13 14  1  0
 14 15  2  0
 15 16  1  0
 18 22  1  0
 18 17  1  0
 19 18  2  0
 20 19  1  0
 20 21  1  0
 21 22  2  0
  1 23  1  0
  1 24  1  0
  3 25  1  0
  3 26  1  0
  4 27  1  0
  4 28  1  0
  5 29  1  0
  5 30  1  0
  6 31  1  0
  6 32  1  0
  7 33  1  6
  8 34  1  0
  8 35  1  0
  9 36  1  0
  9 37  1  0
  9 38  1  0
 10 39  1  6
 11 40  1  0
 13 41  1  0
 15 42  1  0
 17 43  1  0
 17 44  1  0
 21 45  1  0
M  ISO  8  23   8  24   8  25  13  26  13  27  13  28  13  29  13  30  13
M  ISO  8  31  13  32  13  33  13  34   8  35   8  36   8  37   8  38   8
M  ISO  7  39   8  40  14  41  14  42  14  43   8  44   8  45  14
M  END
>  <minimizedAffinity>  (1) 
-5.11576366

>  <minimizedRMSD>  (1) 
1.81658554

$$$$
