
     RDKit          3D

 52 55  0  0  1  0  0  0  0  0999 V2000
   40.7950   35.9010   40.9740 C   0  0  0  0  0  0  0  0  0  0  0  0
   40.2550   35.2570   39.8520 C   0  0  0  0  0  0  0  0  0  0  0  0
   40.8710   34.0940   39.3690 C   0  0  0  0  0  0  0  0  0  0  0  0
   41.9640   33.6260   39.9930 N   0  0  0  0  0  0  0  0  0  0  0  0
   42.4590   34.2780   41.0800 C   0  0  0  0  0  0  0  0  0  0  0  0
   41.8860   35.4030   41.5690 N   0  0  0  0  0  0  0  0  0  0  0  0
   40.3160   33.4060   38.2040 C   0  0  2  0  0  0  0  0  0  0  0  0
   39.1150   34.0030   37.6060 C   0  0  0  0  0  0  0  0  0  0  0  0
   37.9320   33.3220   38.2770 C   0  0  0  0  0  0  0  0  0  0  0  0
   38.4310   31.9400   38.6080 C   0  0  0  0  0  0  0  0  0  0  0  0
   39.9110   31.9800   38.4370 C   0  0  1  0  0  0  0  0  0  0  0  0
   40.5060   31.1200   37.5130 N   0  0  0  0  0  0  0  0  0  0  0  0
   39.6950   30.3250   36.6870 C   0  0  0  0  0  0  0  0  0  0  0  0
   40.4660   29.2930   35.8820 C   0  0  0  0  0  0  0  0  0  0  0  0
   41.6840   28.8060   36.6570 C   0  0  0  0  0  0  0  0  0  0  0  0
   42.5850   30.0000   36.8150 C   0  0  0  0  0  0  0  0  0  0  0  0
   41.8730   31.2560   37.2090 C   0  0  0  0  0  0  0  0  0  0  0  0
   43.6600   33.7930   41.7960 C   0  0  0  0  0  0  0  0  0  0  0  0
   43.9090   32.6580   42.4640 N   0  0  0  0  0  0  0  0  0  0  0  0
   45.1280   32.6710   42.9360 O   0  0  0  0  0  0  0  0  0  0  0  0
   45.7160   33.8010   42.5970 C   0  0  0  0  0  0  0  0  0  0  0  0
   44.7960   34.4990   41.8840 N   0  0  0  0  0  0  0  0  0  0  0  0
   47.0630   34.1590   42.9440 C   0  0  0  0  0  0  0  0  0  0  0  0
   47.6830   33.6560   43.8490 O   0  0  0  0  0  0  0  0  0  0  0  0
   47.5640   35.1540   42.1100 N   0  0  0  0  0  0  0  0  0  0  0  0
   48.9610   35.3990   42.3020 C   0  0  0  0  0  0  0  0  0  0  0  0
   49.8820   34.9330   43.0220 N   0  0  0  0  0  0  0  0  0  0  0  0
   49.7100   36.3840   41.5930 N   0  0  0  0  0  0  0  0  0  0  0  0
   49.8640   33.9740   43.3810 H   0  0  0  0  0  0  0  0  0  0  0  0
   40.3229   36.8144   41.3650 H   0  0  0  0  0  0  0  0  0  0  0  0
   39.3590   35.6593   39.3567 H   0  0  0  0  0  0  0  0  0  0  0  0
   41.1850   33.4959   37.5356 H   0  0  0  0  0  0  0  0  0  0  0  0
   39.0911   35.0862   37.7961 H   0  0  0  0  0  0  0  0  0  0  0  0
   39.0954   33.8636   36.5150 H   0  0  0  0  0  0  0  0  0  0  0  0
   37.6411   33.8598   39.1914 H   0  0  0  0  0  0  0  0  0  0  0  0
   37.0404   33.3019   37.6331 H   0  0  0  0  0  0  0  0  0  0  0  0
   38.1739   31.6801   39.6455 H   0  0  0  0  0  0  0  0  0  0  0  0
   37.9726   31.1817   37.9562 H   0  0  0  0  0  0  0  0  0  0  0  0
   40.3080   31.5691   39.3770 H   0  0  0  0  0  0  0  0  0  0  0  0
   38.9665   29.7975   37.3202 H   0  0  0  0  0  0  0  0  0  0  0  0
   39.2133   31.0005   35.9647 H   0  0  0  0  0  0  0  0  0  0  0  0
   40.7974   29.7467   34.9363 H   0  0  0  0  0  0  0  0  0  0  0  0
   39.8069   28.4350   35.6832 H   0  0  0  0  0  0  0  0  0  0  0  0
   41.3810   28.4237   37.6429 H   0  0  0  0  0  0  0  0  0  0  0  0
   42.1935   27.9861   36.1296 H   0  0  0  0  0  0  0  0  0  0  0  0
   43.3317   29.7691   37.5890 H   0  0  0  0  0  0  0  0  0  0  0  0
   43.0375   30.1880   35.8301 H   0  0  0  0  0  0  0  0  0  0  0  0
   42.3766   31.6638   38.0979 H   0  0  0  0  0  0  0  0  0  0  0  0
   41.9171   31.9114   36.3267 H   0  0  0  0  0  0  0  0  0  0  0  0
   46.9879   35.6625   41.4241 H   0  0  0  0  0  0  0  0  0  0  0  0
   50.7149   36.5037   41.7849 H   0  0  0  0  0  0  0  0  0  0  0  0
   49.2461   36.9757   40.8890 H   0  0  0  0  0  0  0  0  0  0  0  0
  1  6  2  0
  2  1  1  0
  3  2  2  0
  3  4  1  0
  4  5  2  0
  5  6  1  0
  5 18  1  0
  7 11  1  0
  7  3  1  0
  8  7  1  0
  8  9  1  0
  9 10  1  0
 11 10  1  0
 12 11  1  0
 13 12  1  0
 14 15  1  0
 14 13  1  0
 15 16  1  0
 16 17  1  0
 17 12  1  0
 18 22  1  0
 18 19  2  0
 19 20  1  0
 21 20  1  0
 21 23  1  0
 22 21  2  0
 23 24  2  0
 25 26  1  0
 25 23  1  0
 26 27  2  0
 27 29  1  0
 28 26  1  0
  1 30  1  0
  2 31  1  0
  7 32  1  6
  8 33  1  0
  8 34  1  0
  9 35  1  0
  9 36  1  0
 10 37  1  0
 10 38  1  0
 11 39  1  1
 13 40  1  0
 13 41  1  0
 14 42  1  0
 14 43  1  0
 15 44  1  0
 15 45  1  0
 16 46  1  0
 16 47  1  0
 17 48  1  0
 17 49  1  0
 25 50  1  0
 28 51  1  0
 28 52  1  0
M  ISO  8  30  14  31  14  32  13  33  13  34  13  35  13  36  13  37  13
M  ISO  8  38  13  39  13  40  13  41  13  42  13  43  13  44  13  45  13
M  ISO  4  46  13  47  13  48  13  49  13
M  END
>  <minimizedAffinity>  (1) 
-6.65814829

>  <minimizedRMSD>  (1) 
0.88032794

$$$$
