
     RDKit          3D

 44 47  0  0  1  0  0  0  0  0999 V2000
   40.7280   35.7920   41.2160 C   0  0  0  0  0  0  0  0  0  0  0  0
   40.2340   35.2420   40.0260 C   0  0  0  0  0  0  0  0  0  0  0  0
   40.9200   34.1790   39.4430 C   0  0  0  0  0  0  0  0  0  0  0  0
   42.0200   33.7220   40.0350 N   0  0  0  0  0  0  0  0  0  0  0  0
   42.4810   34.2650   41.1810 C   0  0  0  0  0  0  0  0  0  0  0  0
   41.8400   35.2980   41.7740 N   0  0  0  0  0  0  0  0  0  0  0  0
   40.4280   33.5690   38.2000 C   0  0  2  0  0  0  0  0  0  0  0  0
   39.5870   34.4350   37.3520 C   0  0  0  0  0  0  0  0  0  0  0  0
   38.1530   34.1570   37.7750 C   0  0  0  0  0  0  0  0  0  0  0  0
   38.1740   32.7180   38.2070 C   0  0  0  0  0  0  0  0  0  0  0  0
   39.6390   32.3330   38.3070 C   0  0  2  0  0  0  0  0  0  0  0  0
   39.8400   31.5240   39.5170 C   0  0  0  0  0  0  0  0  0  0  0  0
   38.8650   31.5910   40.5060 C   0  0  0  0  0  0  0  0  0  0  0  0
   39.2050   30.7730   41.5840 C   0  0  0  0  0  0  0  0  0  0  0  0
   40.4070   30.2370   41.1740 C   0  0  0  0  0  0  0  0  0  0  0  0
   40.7220   30.6990   39.9880 O   0  0  0  0  0  0  0  0  0  0  0  0
   43.6980   33.7760   41.8600 C   0  0  0  0  0  0  0  0  0  0  0  0
   43.9690   32.6250   42.4920 N   0  0  0  0  0  0  0  0  0  0  0  0
   45.1940   32.6320   42.9450 O   0  0  0  0  0  0  0  0  0  0  0  0
   45.7650   33.7780   42.6290 C   0  0  0  0  0  0  0  0  0  0  0  0
   44.8280   34.4890   41.9520 N   0  0  0  0  0  0  0  0  0  0  0  0
   47.1170   34.1380   42.9660 C   0  0  0  0  0  0  0  0  0  0  0  0
   47.7620   33.6000   43.8310 O   0  0  0  0  0  0  0  0  0  0  0  0
   47.5870   35.1780   42.1720 N   0  0  0  0  0  0  0  0  0  0  0  0
   48.9890   35.4150   42.3190 C   0  0  0  0  0  0  0  0  0  0  0  0
   49.9280   34.9420   43.0090 N   0  0  0  0  0  0  0  0  0  0  0  0
   49.7250   36.3960   41.5900 N   0  0  0  0  0  0  0  0  0  0  0  0
   49.9280   33.9740   43.3450 H   0  0  0  0  0  0  0  0  0  0  0  0
   40.2010   36.6316   41.6929 H   0  0  0  0  0  0  0  0  0  0  0  0
   39.3212   35.6422   39.5606 H   0  0  0  0  0  0  0  0  0  0  0  0
   41.4149   33.3625   37.7603 H   0  0  0  0  0  0  0  0  0  0  0  0
   39.7288   34.1861   36.2899 H   0  0  0  0  0  0  0  0  0  0  0  0
   39.8472   35.4970   37.4720 H   0  0  0  0  0  0  0  0  0  0  0  0
   37.8574   34.8112   38.6085 H   0  0  0  0  0  0  0  0  0  0  0  0
   37.4294   34.3464   36.9685 H   0  0  0  0  0  0  0  0  0  0  0  0
   37.6815   32.6049   39.1840 H   0  0  0  0  0  0  0  0  0  0  0  0
   37.6360   32.0753   37.4945 H   0  0  0  0  0  0  0  0  0  0  0  0
   39.9870   31.6842   37.4897 H   0  0  0  0  0  0  0  0  0  0  0  0
   37.9531   32.2033   40.4468 H   0  0  0  0  0  0  0  0  0  0  0  0
   38.6549   30.6002   42.5208 H   0  0  0  0  0  0  0  0  0  0  0  0
   41.0125   29.5266   41.7559 H   0  0  0  0  0  0  0  0  0  0  0  0
   46.9842   35.7240   41.5400 H   0  0  0  0  0  0  0  0  0  0  0  0
   50.7360   36.5071   41.7523 H   0  0  0  0  0  0  0  0  0  0  0  0
   49.2453   36.9932   40.9014 H   0  0  0  0  0  0  0  0  0  0  0  0
  1  6  2  0
  2  1  1  0
  3  2  2  0
  3  4  1  0
  4  5  2  0
  5  6  1  0
  5 17  1  0
  7 11  1  0
  7  3  1  0
  8  9  1  0
  8  7  1  0
  9 10  1  0
 10 11  1  0
 11 12  1  0
 12 16  1  0
 12 13  2  0
 13 14  1  0
 15 14  2  0
 16 15  1  0
 17 21  1  0
 17 18  2  0
 18 19  1  0
 20 19  1  0
 20 22  1  0
 21 20  2  0
 22 23  2  0
 24 25  1  0
 24 22  1  0
 25 26  2  0
 26 28  1  0
 27 25  1  0
  1 29  1  0
  2 30  1  0
  7 31  1  6
  8 32  1  0
  8 33  1  0
  9 34  1  0
  9 35  1  0
 10 36  1  0
 10 37  1  0
 11 38  1  6
 13 39  1  0
 14 40  1  0
 15 41  1  0
 24 42  1  0
 27 43  1  0
 27 44  1  0
M  ISO  8  29  14  30  14  31  13  32  13  33  13  34  13  35  13  36  13
M  ISO  5  37  13  38  13  39  14  40  14  41  14
M  END
>  <minimizedAffinity>  (1) 
-6.64888573

>  <minimizedRMSD>  (1) 
1.25713444

$$$$
