
     RDKit          3D

 43 46  0  0  1  0  0  0  0  0999 V2000
   40.7070   35.7780   41.2320 C   0  0  0  0  0  0  0  0  0  0  0  0
   40.2250   35.2490   40.0310 C   0  0  0  0  0  0  0  0  0  0  0  0
   40.9280   34.1970   39.4290 C   0  0  0  0  0  0  0  0  0  0  0  0
   42.0280   33.7370   40.0190 N   0  0  0  0  0  0  0  0  0  0  0  0
   42.4770   34.2620   41.1790 C   0  0  0  0  0  0  0  0  0  0  0  0
   41.8220   35.2790   41.7880 N   0  0  0  0  0  0  0  0  0  0  0  0
   40.4530   33.5990   38.1720 C   0  0  2  0  0  0  0  0  0  0  0  0
   39.5380   34.4460   37.3750 C   0  0  0  0  0  0  0  0  0  0  0  0
   38.1350   34.0620   37.8140 C   0  0  0  0  0  0  0  0  0  0  0  0
   38.2600   32.6180   38.1720 C   0  0  0  0  0  0  0  0  0  0  0  0
   39.7430   32.3140   38.2480 C   0  0  2  0  0  0  0  0  0  0  0  0
   39.9640   31.4550   39.4370 C   0  0  0  0  0  0  0  0  0  0  0  0
   38.9540   31.6250   40.5360 C   0  0  0  0  0  0  0  0  0  0  0  0
   39.4890   30.4300   41.7110 S   0  0  0  0  0  0  0  0  0  0  0  0
   40.9600   29.8400   40.6610 C   0  0  0  0  0  0  0  0  0  0  0  0
   41.0000   30.6220   39.3630 N   0  0  0  0  0  0  0  0  0  0  0  0
   43.6950   33.7690   41.8550 C   0  0  0  0  0  0  0  0  0  0  0  0
   43.9650   32.6300   42.4830 N   0  0  0  0  0  0  0  0  0  0  0  0
   45.1890   32.6310   42.9300 O   0  0  0  0  0  0  0  0  0  0  0  0
   45.7660   33.7740   42.6120 C   0  0  0  0  0  0  0  0  0  0  0  0
   44.8290   34.4910   41.9370 N   0  0  0  0  0  0  0  0  0  0  0  0
   47.1170   34.1280   42.9430 C   0  0  0  0  0  0  0  0  0  0  0  0
   47.7590   33.5870   43.8090 O   0  0  0  0  0  0  0  0  0  0  0  0
   47.5910   35.1660   42.1450 N   0  0  0  0  0  0  0  0  0  0  0  0
   48.9880   35.4130   42.3110 C   0  0  0  0  0  0  0  0  0  0  0  0
   49.9210   34.9500   43.0140 N   0  0  0  0  0  0  0  0  0  0  0  0
   49.7270   36.3960   41.5890 N   0  0  0  0  0  0  0  0  0  0  0  0
   49.9270   33.9780   43.3410 H   0  0  0  0  0  0  0  0  0  0  0  0
   40.1715   36.6045   41.7221 H   0  0  0  0  0  0  0  0  0  0  0  0
   39.3118   35.6508   39.5677 H   0  0  0  0  0  0  0  0  0  0  0  0
   41.4403   33.4660   37.7055 H   0  0  0  0  0  0  0  0  0  0  0  0
   39.6711   34.2492   36.3010 H   0  0  0  0  0  0  0  0  0  0  0  0
   39.7343   35.5166   37.5338 H   0  0  0  0  0  0  0  0  0  0  0  0
   37.8197   34.6562   38.6844 H   0  0  0  0  0  0  0  0  0  0  0  0
   37.3794   34.2448   37.0358 H   0  0  0  0  0  0  0  0  0  0  0  0
   37.7835   32.4261   39.1447 H   0  0  0  0  0  0  0  0  0  0  0  0
   37.7637   31.9811   37.4250 H   0  0  0  0  0  0  0  0  0  0  0  0
   40.1551   31.7245   37.4157 H   0  0  0  0  0  0  0  0  0  0  0  0
   38.1010   32.3173   40.5916 H   0  0  0  0  0  0  0  0  0  0  0  0
   41.6719   29.0530   40.9505 H   0  0  0  0  0  0  0  0  0  0  0  0
   46.9938   35.7022   41.4994 H   0  0  0  0  0  0  0  0  0  0  0  0
   50.7348   36.5148   41.7652 H   0  0  0  0  0  0  0  0  0  0  0  0
   49.2529   36.9871   40.8914 H   0  0  0  0  0  0  0  0  0  0  0  0
  1  6  2  0
  2  1  1  0
  3  4  1  0
  3  2  2  0
  4  5  2  0
  5  6  1  0
  5 17  1  0
  7 11  1  0
  7  3  1  0
  8  9  1  0
  8  7  1  0
  9 10  1  0
 10 11  1  0
 11 12  1  0
 12 13  2  0
 13 14  1  0
 15 14  1  0
 16 12  1  0
 16 15  2  0
 17 21  1  0
 17 18  2  0
 18 19  1  0
 20 19  1  0
 20 22  1  0
 21 20  2  0
 22 23  2  0
 24 25  1  0
 24 22  1  0
 25 26  2  0
 26 28  1  0
 27 25  1  0
  1 29  1  0
  2 30  1  0
  7 31  1  6
  8 32  1  0
  8 33  1  0
  9 34  1  0
  9 35  1  0
 10 36  1  0
 10 37  1  0
 11 38  1  6
 13 39  1  0
 15 40  1  0
 24 41  1  0
 27 42  1  0
 27 43  1  0
M  ISO  8  29  14  30  14  31  13  32  13  33  13  34  13  35  13  36  13
M  ISO  4  37  13  38  13  39  14  40  14
M  END
>  <minimizedAffinity>  (1) 
-6.62912798

>  <minimizedRMSD>  (1) 
0.927861452

$$$$
