
     RDKit          3D

 49 52  0  0  1  0  0  0  0  0999 V2000
   40.7630   35.9740   41.0480 C   0  0  0  0  0  0  0  0  0  0  0  0
   40.2320   35.3800   39.8930 C   0  0  0  0  0  0  0  0  0  0  0  0
   40.8570   34.2480   39.3580 C   0  0  0  0  0  0  0  0  0  0  0  0
   41.9520   33.7610   39.9680 N   0  0  0  0  0  0  0  0  0  0  0  0
   42.4410   34.3590   41.0830 C   0  0  0  0  0  0  0  0  0  0  0  0
   41.8550   35.4560   41.6220 N   0  0  0  0  0  0  0  0  0  0  0  0
   40.3190   33.6090   38.1590 C   0  0  2  0  0  0  0  0  0  0  0  0
   39.0440   34.1470   37.6570 C   0  0  0  0  0  0  0  0  0  0  0  0
   37.9500   33.3230   38.3180 C   0  0  0  0  0  0  0  0  0  0  0  0
   38.5750   31.9670   38.4980 C   0  0  0  0  0  0  0  0  0  0  0  0
   40.0420   32.1410   38.2780 C   0  0  1  0  0  0  0  0  0  0  0  0
   40.5400   31.3820   37.1590 N   0  0  0  0  0  0  0  0  0  0  0  0
   39.8760   30.1040   36.9950 C   0  0  0  0  0  0  0  0  0  0  0  0
   40.7540   29.3160   36.0540 C   0  0  0  0  0  0  0  0  0  0  0  0
   42.0990   29.9410   36.2230 C   0  0  0  0  0  0  0  0  0  0  0  0
   41.9160   31.0230   37.2760 C   0  0  0  0  0  0  0  0  0  0  0  0
   43.6370   33.8520   41.7830 C   0  0  0  0  0  0  0  0  0  0  0  0
   43.8780   32.6970   42.4230 N   0  0  0  0  0  0  0  0  0  0  0  0
   45.0950   32.6890   42.8960 O   0  0  0  0  0  0  0  0  0  0  0  0
   45.6920   33.8240   42.5870 C   0  0  0  0  0  0  0  0  0  0  0  0
   44.7770   34.5560   41.8890 N   0  0  0  0  0  0  0  0  0  0  0  0
   47.0440   34.1640   42.9460 C   0  0  0  0  0  0  0  0  0  0  0  0
   47.6670   33.6170   43.8220 O   0  0  0  0  0  0  0  0  0  0  0  0
   47.5390   35.1990   42.1600 N   0  0  0  0  0  0  0  0  0  0  0  0
   48.9440   35.4120   42.3270 C   0  0  0  0  0  0  0  0  0  0  0  0
   49.8600   34.9340   43.0500 N   0  0  0  0  0  0  0  0  0  0  0  0
   49.7100   36.3590   41.5850 N   0  0  0  0  0  0  0  0  0  0  0  0
   49.8440   33.9550   43.3620 H   0  0  0  0  0  0  0  0  0  0  0  0
   40.2824   36.8638   41.4807 H   0  0  0  0  0  0  0  0  0  0  0  0
   39.3350   35.7992   39.4137 H   0  0  0  0  0  0  0  0  0  0  0  0
   41.1536   33.8251   37.4758 H   0  0  0  0  0  0  0  0  0  0  0  0
   38.9423   35.2073   37.9318 H   0  0  0  0  0  0  0  0  0  0  0  0
   38.9860   34.0865   36.5602 H   0  0  0  0  0  0  0  0  0  0  0  0
   37.6674   33.7554   39.2892 H   0  0  0  0  0  0  0  0  0  0  0  0
   37.0268   33.2880   37.7209 H   0  0  0  0  0  0  0  0  0  0  0  0
   38.3854   31.5936   39.5152 H   0  0  0  0  0  0  0  0  0  0  0  0
   38.1515   31.2379   37.7915 H   0  0  0  0  0  0  0  0  0  0  0  0
   40.5910   31.7323   39.1392 H   0  0  0  0  0  0  0  0  0  0  0  0
   39.7885   29.5884   37.9627 H   0  0  0  0  0  0  0  0  0  0  0  0
   38.8550   30.2201   36.6023 H   0  0  0  0  0  0  0  0  0  0  0  0
   40.4035   29.4130   35.0159 H   0  0  0  0  0  0  0  0  0  0  0  0
   40.7534   28.2376   36.2709 H   0  0  0  0  0  0  0  0  0  0  0  0
   42.8302   29.1931   36.5636 H   0  0  0  0  0  0  0  0  0  0  0  0
   42.4788   30.3533   35.2765 H   0  0  0  0  0  0  0  0  0  0  0  0
   42.5653   31.8862   37.0680 H   0  0  0  0  0  0  0  0  0  0  0  0
   42.1823   30.6820   38.2873 H   0  0  0  0  0  0  0  0  0  0  0  0
   46.9532   35.7562   41.5218 H   0  0  0  0  0  0  0  0  0  0  0  0
   50.7201   36.4558   41.7615 H   0  0  0  0  0  0  0  0  0  0  0  0
   49.2531   36.9461   40.8726 H   0  0  0  0  0  0  0  0  0  0  0  0
  1  6  2  0
  2  1  1  0
  3  2  2  0
  3  4  1  0
  4  5  2  0
  5  6  1  0
  5 17  1  0
  7 11  1  0
  7  3  1  0
  8  7  1  0
  8  9  1  0
  9 10  1  0
 11 10  1  0
 12 13  1  0
 12 16  1  0
 12 11  1  0
 14 15  1  0
 14 13  1  0
 15 16  1  0
 17 21  1  0
 17 18  2  0
 18 19  1  0
 20 19  1  0
 20 22  1  0
 21 20  2  0
 22 23  2  0
 24 25  1  0
 24 22  1  0
 25 26  2  0
 26 28  1  0
 27 25  1  0
  1 29  1  0
  2 30  1  0
  7 31  1  6
  8 32  1  0
  8 33  1  0
  9 34  1  0
  9 35  1  0
 10 36  1  0
 10 37  1  0
 11 38  1  1
 13 39  1  0
 13 40  1  0
 14 41  1  0
 14 42  1  0
 15 43  1  0
 15 44  1  0
 16 45  1  0
 16 46  1  0
 24 47  1  0
 27 48  1  0
 27 49  1  0
M  ISO  8  29  14  30  14  31  13  32  13  33  13  34  13  35  13  36  13
M  ISO  8  37  13  38  13  39  13  40  13  41  13  42  13  43  13  44  13
M  ISO  2  45  13  46  13
M  END
>  <minimizedAffinity>  (1) 
-6.59384108

>  <minimizedRMSD>  (1) 
0.441923887

$$$$
