
     RDKit          3D

 44 47  0  0  1  0  0  0  0  0999 V2000
   40.8050   35.8880   40.9630 C   0  0  0  0  0  0  0  0  0  0  0  0
   40.2700   35.2400   39.8430 C   0  0  0  0  0  0  0  0  0  0  0  0
   40.8990   34.0690   39.3640 C   0  0  0  0  0  0  0  0  0  0  0  0
   41.9870   33.6130   39.9940 N   0  0  0  0  0  0  0  0  0  0  0  0
   42.4760   34.2710   41.0800 C   0  0  0  0  0  0  0  0  0  0  0  0
   41.8950   35.3990   41.5640 N   0  0  0  0  0  0  0  0  0  0  0  0
   40.3460   33.3730   38.2050 C   0  0  2  0  0  0  0  0  0  0  0  0
   39.1550   33.9770   37.5870 C   0  0  0  0  0  0  0  0  0  0  0  0
   37.9530   33.3360   38.2640 C   0  0  0  0  0  0  0  0  0  0  0  0
   38.4180   31.9530   38.6110 C   0  0  0  0  0  0  0  0  0  0  0  0
   39.9050   31.9640   38.4630 C   0  0  1  0  0  0  0  0  0  0  0  0
   40.3690   31.0520   37.4410 N   0  0  0  0  0  0  0  0  0  0  0  0
   39.6010   30.2800   36.6640 N   0  0  0  0  0  0  0  0  0  0  0  0
   40.3750   29.5760   35.8430 C   0  0  0  0  0  0  0  0  0  0  0  0
   41.6920   29.8990   36.0930 C   0  0  0  0  0  0  0  0  0  0  0  0
   41.6540   30.8400   37.1140 C   0  0  0  0  0  0  0  0  0  0  0  0
   43.6720   33.7940   41.8030 C   0  0  0  0  0  0  0  0  0  0  0  0
   43.9130   32.6690   42.5010 N   0  0  0  0  0  0  0  0  0  0  0  0
   45.1300   32.6810   42.9700 O   0  0  0  0  0  0  0  0  0  0  0  0
   45.7270   33.8000   42.6040 C   0  0  0  0  0  0  0  0  0  0  0  0
   44.8160   34.4970   41.8740 N   0  0  0  0  0  0  0  0  0  0  0  0
   47.0810   34.1510   42.9440 C   0  0  0  0  0  0  0  0  0  0  0  0
   47.7050   33.6420   43.8430 O   0  0  0  0  0  0  0  0  0  0  0  0
   47.5750   35.1510   42.1090 N   0  0  0  0  0  0  0  0  0  0  0  0
   48.9690   35.4030   42.3000 C   0  0  0  0  0  0  0  0  0  0  0  0
   49.8920   34.9440   43.0220 N   0  0  0  0  0  0  0  0  0  0  0  0
   49.7130   36.3920   41.5900 N   0  0  0  0  0  0  0  0  0  0  0  0
   49.8810   33.9840   43.3810 H   0  0  0  0  0  0  0  0  0  0  0  0
   40.3279   36.8008   41.3492 H   0  0  0  0  0  0  0  0  0  0  0  0
   39.3737   35.6365   39.3437 H   0  0  0  0  0  0  0  0  0  0  0  0
   41.2234   33.4373   37.5447 H   0  0  0  0  0  0  0  0  0  0  0  0
   39.1502   35.0646   37.7518 H   0  0  0  0  0  0  0  0  0  0  0  0
   39.1391   33.8090   36.5000 H   0  0  0  0  0  0  0  0  0  0  0  0
   37.6738   33.8924   39.1709 H   0  0  0  0  0  0  0  0  0  0  0  0
   37.0610   33.3307   37.6203 H   0  0  0  0  0  0  0  0  0  0  0  0
   38.1396   31.7055   39.6460 H   0  0  0  0  0  0  0  0  0  0  0  0
   37.9556   31.1987   37.9574 H   0  0  0  0  0  0  0  0  0  0  0  0
   40.3600   31.6022   39.3968 H   0  0  0  0  0  0  0  0  0  0  0  0
   40.0231   28.8558   35.0897 H   0  0  0  0  0  0  0  0  0  0  0  0
   42.5839   29.4967   35.5903 H   0  0  0  0  0  0  0  0  0  0  0  0
   42.5258   31.3273   37.5750 H   0  0  0  0  0  0  0  0  0  0  0  0
   46.9952   35.6568   41.4243 H   0  0  0  0  0  0  0  0  0  0  0  0
   50.7173   36.5169   41.7814 H   0  0  0  0  0  0  0  0  0  0  0  0
   49.2458   36.9811   40.8860 H   0  0  0  0  0  0  0  0  0  0  0  0
  1  6  2  0
  2  1  1  0
  3  2  2  0
  3  4  1  0
  4  5  2  0
  5  6  1  0
  5 17  1  0
  7 11  1  0
  7  3  1  0
  8  7  1  0
  8  9  1  0
  9 10  1  0
 11 10  1  0
 12 11  1  0
 13 12  1  0
 14 15  1  0
 14 13  2  0
 15 16  2  0
 16 12  1  0
 17 21  1  0
 17 18  2  0
 18 19  1  0
 20 22  1  0
 20 19  1  0
 21 20  2  0
 22 23  2  0
 24 25  1  0
 24 22  1  0
 25 26  2  0
 26 28  1  0
 27 25  1  0
  1 29  1  0
  2 30  1  0
  7 31  1  6
  8 32  1  0
  8 33  1  0
  9 34  1  0
  9 35  1  0
 10 36  1  0
 10 37  1  0
 11 38  1  1
 14 39  1  0
 15 40  1  0
 16 41  1  0
 24 42  1  0
 27 43  1  0
 27 44  1  0
M  ISO  8  29  14  30  14  31  13  32  13  33  13  34  13  35  13  36  13
M  ISO  5  37  13  38  13  39  14  40  14  41  14
M  END
>  <minimizedAffinity>  (1) 
-6.58869362

>  <minimizedRMSD>  (1) 
0.728177249

$$$$
