
     RDKit          3D

 42 45  0  0  1  0  0  0  0  0999 V2000
   40.8150   35.8970   40.9840 C   0  0  0  0  0  0  0  0  0  0  0  0
   40.2590   35.2320   39.8640 C   0  0  0  0  0  0  0  0  0  0  0  0
   40.8830   34.0720   39.4020 C   0  0  0  0  0  0  0  0  0  0  0  0
   41.9810   33.6130   40.0190 N   0  0  0  0  0  0  0  0  0  0  0  0
   42.4910   34.2730   41.0930 C   0  0  0  0  0  0  0  0  0  0  0  0
   41.9150   35.4040   41.5740 N   0  0  0  0  0  0  0  0  0  0  0  0
   40.3320   33.3580   38.2500 C   0  0  2  0  0  0  0  0  0  0  0  0
   39.1640   33.9690   37.6000 C   0  0  0  0  0  0  0  0  0  0  0  0
   37.9500   33.3510   38.2750 C   0  0  0  0  0  0  0  0  0  0  0  0
   38.4000   31.9640   38.6480 C   0  0  0  0  0  0  0  0  0  0  0  0
   39.8880   31.9520   38.5020 C   0  0  1  0  0  0  0  0  0  0  0  0
   40.3580   31.0410   37.4330 C   0  0  0  0  0  0  0  0  0  0  0  0
   39.6800   30.2360   36.5870 N   0  0  0  0  0  0  0  0  0  0  0  0
   40.5190   29.6240   35.8190 O   0  0  0  0  0  0  0  0  0  0  0  0
   41.7340   29.9750   36.1060 C   0  0  0  0  0  0  0  0  0  0  0  0
   41.6700   30.8560   37.1040 N   0  0  0  0  0  0  0  0  0  0  0  0
   43.6820   33.8050   41.8080 C   0  0  0  0  0  0  0  0  0  0  0  0
   43.9180   32.6810   42.5100 N   0  0  0  0  0  0  0  0  0  0  0  0
   45.1350   32.6850   42.9800 O   0  0  0  0  0  0  0  0  0  0  0  0
   45.7370   33.7990   42.6080 C   0  0  0  0  0  0  0  0  0  0  0  0
   44.8250   34.5030   41.8730 N   0  0  0  0  0  0  0  0  0  0  0  0
   47.0910   34.1470   42.9440 C   0  0  0  0  0  0  0  0  0  0  0  0
   47.7140   33.6400   43.8450 O   0  0  0  0  0  0  0  0  0  0  0  0
   47.5900   35.1380   42.1020 N   0  0  0  0  0  0  0  0  0  0  0  0
   48.9740   35.3910   42.3020 C   0  0  0  0  0  0  0  0  0  0  0  0
   49.9050   34.9350   43.0200 N   0  0  0  0  0  0  0  0  0  0  0  0
   49.7200   36.3930   41.5980 N   0  0  0  0  0  0  0  0  0  0  0  0
   49.8880   33.9840   43.3960 H   0  0  0  0  0  0  0  0  0  0  0  0
   40.3467   36.8148   41.3691 H   0  0  0  0  0  0  0  0  0  0  0  0
   39.3564   35.6206   39.3697 H   0  0  0  0  0  0  0  0  0  0  0  0
   41.2246   33.4032   37.6088 H   0  0  0  0  0  0  0  0  0  0  0  0
   39.1705   35.0593   37.7453 H   0  0  0  0  0  0  0  0  0  0  0  0
   39.1618   33.7889   36.5148 H   0  0  0  0  0  0  0  0  0  0  0  0
   37.6682   33.9237   39.1709 H   0  0  0  0  0  0  0  0  0  0  0  0
   37.0636   33.3451   37.6236 H   0  0  0  0  0  0  0  0  0  0  0  0
   38.1174   31.7384   39.6869 H   0  0  0  0  0  0  0  0  0  0  0  0
   37.9292   31.2048   38.0061 H   0  0  0  0  0  0  0  0  0  0  0  0
   40.3337   31.5626   39.4292 H   0  0  0  0  0  0  0  0  0  0  0  0
   42.6494   29.6122   35.6157 H   0  0  0  0  0  0  0  0  0  0  0  0
   47.0157   35.6357   41.4068 H   0  0  0  0  0  0  0  0  0  0  0  0
   50.7229   36.5214   41.7945 H   0  0  0  0  0  0  0  0  0  0  0  0
   49.2530   36.9844   40.8958 H   0  0  0  0  0  0  0  0  0  0  0  0
  1  6  2  0
  2  1  1  0
  3  2  2  0
  3  4  1  0
  4  5  2  0
  5  6  1  0
  5 17  1  0
  7 11  1  0
  7  3  1  0
  8  7  1  0
  8  9  1  0
  9 10  1  0
 11 10  1  0
 12 11  1  0
 13 12  2  0
 14 15  1  0
 14 13  1  0
 15 16  2  0
 16 12  1  0
 17 21  1  0
 17 18  2  0
 18 19  1  0
 20 22  1  0
 20 19  1  0
 21 20  2  0
 22 23  2  0
 24 25  1  0
 24 22  1  0
 25 26  2  0
 26 28  1  0
 27 25  1  0
  1 29  1  0
  2 30  1  0
  7 31  1  6
  8 32  1  0
  8 33  1  0
  9 34  1  0
  9 35  1  0
 10 36  1  0
 10 37  1  0
 11 38  1  1
 15 39  1  0
 24 40  1  0
 27 41  1  0
 27 42  1  0
M  ISO  8  29  14  30  14  31  13  32  13  33  13  34  13  35  13  36  13
M  ISO  3  37  13  38  13  39  14
M  END
>  <minimizedAffinity>  (1) 
-6.56970739

>  <minimizedRMSD>  (1) 
0.751930237

$$$$
