
     RDKit          3D

 38 40  0  0  1  0  0  0  0  0999 V2000
   40.6190   35.8050   41.2000 C   0  0  0  0  0  0  0  0  0  0  0  0
   40.1560   35.2980   39.9760 C   0  0  0  0  0  0  0  0  0  0  0  0
   40.8800   34.2680   39.3480 C   0  0  0  0  0  0  0  0  0  0  0  0
   41.9880   33.7980   39.9340 N   0  0  0  0  0  0  0  0  0  0  0  0
   42.4020   34.3190   41.1250 C   0  0  0  0  0  0  0  0  0  0  0  0
   41.7340   35.3060   41.7530 N   0  0  0  0  0  0  0  0  0  0  0  0
   40.4080   33.7190   38.0790 C   0  0  2  0  0  0  0  0  0  0  0  0
   39.2430   34.3750   37.4740 C   0  0  0  0  0  0  0  0  0  0  0  0
   38.0260   33.6210   37.9840 C   0  0  0  0  0  0  0  0  0  0  0  0
   38.5100   32.2150   38.1890 C   0  0  0  0  0  0  0  0  0  0  0  0
   40.0030   32.2750   38.1150 C   0  0  2  0  0  0  0  0  0  0  0  0
   40.5600   31.7030   39.2710 O   0  0  0  0  0  0  0  0  0  0  0  0
   43.6200   33.8220   41.8020 C   0  0  0  0  0  0  0  0  0  0  0  0
   43.8980   32.6520   42.4060 N   0  0  0  0  0  0  0  0  0  0  0  0
   45.1210   32.6630   42.8680 O   0  0  0  0  0  0  0  0  0  0  0  0
   45.6830   33.8240   42.5870 C   0  0  0  0  0  0  0  0  0  0  0  0
   44.7420   34.5490   41.9200 N   0  0  0  0  0  0  0  0  0  0  0  0
   47.0280   34.1860   42.9450 C   0  0  0  0  0  0  0  0  0  0  0  0
   47.6250   33.7290   43.8880 O   0  0  0  0  0  0  0  0  0  0  0  0
   47.5520   35.1310   42.0640 N   0  0  0  0  0  0  0  0  0  0  0  0
   48.9400   35.3940   42.2900 C   0  0  0  0  0  0  0  0  0  0  0  0
   49.8470   34.9550   43.0380 N   0  0  0  0  0  0  0  0  0  0  0  0
   49.6940   36.3750   41.5810 N   0  0  0  0  0  0  0  0  0  0  0  0
   49.8170   34.0200   43.4530 H   0  0  0  0  0  0  0  0  0  0  0  0
   40.0675   36.6114   41.7055 H   0  0  0  0  0  0  0  0  0  0  0  0
   39.2416   35.6995   39.5149 H   0  0  0  0  0  0  0  0  0  0  0  0
   41.3196   33.8910   37.4879 H   0  0  0  0  0  0  0  0  0  0  0  0
   39.2976   34.3153   36.3770 H   0  0  0  0  0  0  0  0  0  0  0  0
   39.1973   35.4412   37.7406 H   0  0  0  0  0  0  0  0  0  0  0  0
   37.6715   34.0517   38.9320 H   0  0  0  0  0  0  0  0  0  0  0  0
   37.1795   33.6728   37.2835 H   0  0  0  0  0  0  0  0  0  0  0  0
   38.1913   31.8413   39.1733 H   0  0  0  0  0  0  0  0  0  0  0  0
   38.0972   31.5334   37.4307 H   0  0  0  0  0  0  0  0  0  0  0  0
   40.3515   31.7333   37.2233 H   0  0  0  0  0  0  0  0  0  0  0  0
   40.1550   32.1189   40.0730 H   0  0  0  0  0  0  0  0  0  0  0  0
   46.9980   35.5914   41.3278 H   0  0  0  0  0  0  0  0  0  0  0  0
   50.6921   36.5116   41.7956 H   0  0  0  0  0  0  0  0  0  0  0  0
   49.2405   36.9470   40.8543 H   0  0  0  0  0  0  0  0  0  0  0  0
  1  6  2  0
  2  1  1  0
  3  4  1  0
  3  2  2  0
  4  5  2  0
  5  6  1  0
  5 13  1  0
  7 11  1  0
  7  3  1  0
  8  9  1  0
  8  7  1  0
  9 10  1  0
 11 10  1  0
 11 12  1  0
 13 17  1  0
 13 14  2  0
 14 15  1  0
 16 15  1  0
 16 18  1  0
 17 16  2  0
 18 19  2  0
 20 21  1  0
 20 18  1  0
 21 22  2  0
 22 24  1  0
 23 21  1  0
  1 25  1  0
  2 26  1  0
  7 27  1  6
  8 28  1  0
  8 29  1  0
  9 30  1  0
  9 31  1  0
 10 32  1  0
 10 33  1  0
 11 34  1  6
 12 35  1  0
 20 36  1  0
 23 37  1  0
 23 38  1  0
M  ISO  8  25  14  26  14  27  13  28  13  29  13  30  13  31  13  32  13
M  ISO  3  33  13  34  13  35   3
M  END
>  <minimizedAffinity>  (1) 
-6.54998207

>  <minimizedRMSD>  (1) 
0.244660199

$$$$
