
     RDKit          3D

 46 48  0  0  1  0  0  0  0  0999 V2000
   40.6250   35.8700   41.2030 C   0  0  0  0  0  0  0  0  0  0  0  0
   40.1620   35.3900   39.9710 C   0  0  0  0  0  0  0  0  0  0  0  0
   40.8740   34.3730   39.3300 C   0  0  0  0  0  0  0  0  0  0  0  0
   41.9640   33.9120   39.9330 N   0  0  0  0  0  0  0  0  0  0  0  0
   42.3980   34.3800   41.1160 C   0  0  0  0  0  0  0  0  0  0  0  0
   41.7310   35.3580   41.7510 N   0  0  0  0  0  0  0  0  0  0  0  0
   40.4240   33.8320   38.0490 C   0  0  2  0  0  0  0  0  0  0  0  0
   39.1290   34.3480   37.5580 C   0  0  0  0  0  0  0  0  0  0  0  0
   38.0710   33.3870   38.0790 C   0  0  0  0  0  0  0  0  0  0  0  0
   38.7760   32.0600   38.1390 C   0  0  0  0  0  0  0  0  0  0  0  0
   40.2380   32.3690   37.9560 C   0  0  2  0  0  0  0  0  0  0  0  0
   41.0280   31.4700   38.8230 C   0  0  0  0  0  0  0  0  0  0  0  0
   39.9850   30.5090   39.4340 C   0  0  0  0  0  0  0  0  0  0  0  0
   41.9580   30.5550   38.0500 C   0  0  0  0  0  0  0  0  0  0  0  0
   43.6100   33.8630   41.7840 C   0  0  0  0  0  0  0  0  0  0  0  0
   43.8780   32.6820   42.3700 N   0  0  0  0  0  0  0  0  0  0  0  0
   45.0980   32.6760   42.8330 O   0  0  0  0  0  0  0  0  0  0  0  0
   45.6700   33.8360   42.5730 C   0  0  0  0  0  0  0  0  0  0  0  0
   44.7380   34.5830   41.9160 N   0  0  0  0  0  0  0  0  0  0  0  0
   47.0170   34.1850   42.9390 C   0  0  0  0  0  0  0  0  0  0  0  0
   47.6260   33.6730   43.8470 O   0  0  0  0  0  0  0  0  0  0  0  0
   47.5340   35.1830   42.1190 N   0  0  0  0  0  0  0  0  0  0  0  0
   48.9340   35.4010   42.3080 C   0  0  0  0  0  0  0  0  0  0  0  0
   49.8450   34.9240   43.0330 N   0  0  0  0  0  0  0  0  0  0  0  0
   49.7070   36.3590   41.5900 N   0  0  0  0  0  0  0  0  0  0  0  0
   49.8130   33.9670   43.3960 H   0  0  0  0  0  0  0  0  0  0  0  0
   40.0765   36.6707   41.7208 H   0  0  0  0  0  0  0  0  0  0  0  0
   39.2519   35.8073   39.5153 H   0  0  0  0  0  0  0  0  0  0  0  0
   41.2848   34.1678   37.4521 H   0  0  0  0  0  0  0  0  0  0  0  0
   38.9493   35.3615   37.9460 H   0  0  0  0  0  0  0  0  0  0  0  0
   39.1104   34.4116   36.4600 H   0  0  0  0  0  0  0  0  0  0  0  0
   37.7259   33.6910   39.0782 H   0  0  0  0  0  0  0  0  0  0  0  0
   37.1753   33.3600   37.4410 H   0  0  0  0  0  0  0  0  0  0  0  0
   38.6045   31.5779   39.1127 H   0  0  0  0  0  0  0  0  0  0  0  0
   38.4068   31.3680   37.3677 H   0  0  0  0  0  0  0  0  0  0  0  0
   40.6401   32.1406   36.9579 H   0  0  0  0  0  0  0  0  0  0  0  0
   41.6203   32.0828   39.5185 H   0  0  0  0  0  0  0  0  0  0  0  0
   40.0391   30.5589   40.5315 H   0  0  0  0  0  0  0  0  0  0  0  0
   38.9779   30.8023   39.1028 H   0  0  0  0  0  0  0  0  0  0  0  0
   40.1951   29.4813   39.1028 H   0  0  0  0  0  0  0  0  0  0  0  0
   42.5597   29.9630   38.7553 H   0  0  0  0  0  0  0  0  0  0  0  0
   41.3645   29.8789   37.4170 H   0  0  0  0  0  0  0  0  0  0  0  0
   42.6243   31.1594   37.4170 H   0  0  0  0  0  0  0  0  0  0  0  0
   46.9647   35.7120   41.4431 H   0  0  0  0  0  0  0  0  0  0  0  0
   50.7139   36.4574   41.7832 H   0  0  0  0  0  0  0  0  0  0  0  0
   49.2588   36.9530   40.8778 H   0  0  0  0  0  0  0  0  0  0  0  0
  1  6  2  0
  2  1  1  0
  3  4  1  0
  3  2  2  0
  4  5  2  0
  5  6  1  0
  5 15  1  0
  7  3  1  0
  8  7  1  0
  8  9  1  0
  9 10  1  0
 11  7  1  0
 11 10  1  0
 11 12  1  0
 12 13  1  0
 14 12  1  0
 15 19  1  0
 15 16  2  0
 16 17  1  0
 18 17  1  0
 18 20  1  0
 19 18  2  0
 20 21  2  0
 22 23  1  0
 22 20  1  0
 23 24  2  0
 24 26  1  0
 25 23  1  0
  1 27  1  0
  2 28  1  0
  7 29  1  6
  8 30  1  0
  8 31  1  0
  9 32  1  0
  9 33  1  0
 10 34  1  0
 10 35  1  0
 11 36  1  6
 12 37  1  0
 13 38  1  0
 13 39  1  0
 13 40  1  0
 14 41  1  0
 14 42  1  0
 14 43  1  0
 22 44  1  0
 25 45  1  0
 25 46  1  0
M  ISO  8  27  14  28  14  29  13  30  13  31  13  32  13  33  13  34  13
M  ISO  8  35  13  36  13  37   8  38   8  39   8  40   8  41   8  42   8
M  ISO  1  43   8
M  END
>  <minimizedAffinity>  (1) 
-6.52124071

>  <minimizedRMSD>  (1) 
0.219064221

$$$$
