
     RDKit          3D

 49 51  0  0  1  0  0  0  0  0999 V2000
   40.8450   35.8330   40.9840 C   0  0  0  0  0  0  0  0  0  0  0  0
   40.2940   35.1590   39.8860 C   0  0  0  0  0  0  0  0  0  0  0  0
   40.9080   33.9760   39.4310 C   0  0  0  0  0  0  0  0  0  0  0  0
   42.0020   33.5260   40.0590 N   0  0  0  0  0  0  0  0  0  0  0  0
   42.5070   34.2120   41.1260 C   0  0  0  0  0  0  0  0  0  0  0  0
   41.9390   35.3510   41.5850 N   0  0  0  0  0  0  0  0  0  0  0  0
   40.3410   33.2490   38.2940 C   0  0  2  0  0  0  0  0  0  0  0  0
   39.2650   33.9310   37.5600 C   0  0  0  0  0  0  0  0  0  0  0  0
   37.9600   33.4940   38.2100 C   0  0  0  0  0  0  0  0  0  0  0  0
   38.2460   32.0900   38.6670 C   0  0  0  0  0  0  0  0  0  0  0  0
   39.7220   31.9310   38.6560 C   0  0  1  0  0  0  0  0  0  0  0  0
   40.2200   30.7900   37.8170 C   0  0  0  0  0  0  0  0  0  0  0  0
   40.4080   29.5410   38.6560 C   0  0  0  0  0  0  0  0  0  0  0  0
   41.5400   31.0410   37.1650 C   0  0  0  0  0  0  0  0  0  0  0  0
   39.2340   30.4020   36.7360 C   0  0  0  0  0  0  0  0  0  0  0  0
   43.7080   33.7430   41.8450 C   0  0  0  0  0  0  0  0  0  0  0  0
   43.9580   32.6240   42.5480 N   0  0  0  0  0  0  0  0  0  0  0  0
   45.1780   32.6460   43.0100 O   0  0  0  0  0  0  0  0  0  0  0  0
   45.7670   33.7650   42.6350 C   0  0  0  0  0  0  0  0  0  0  0  0
   44.8470   34.4490   41.9070 N   0  0  0  0  0  0  0  0  0  0  0  0
   47.1170   34.1230   42.9660 C   0  0  0  0  0  0  0  0  0  0  0  0
   47.7650   33.6000   43.8390 O   0  0  0  0  0  0  0  0  0  0  0  0
   47.5910   35.1510   42.1560 N   0  0  0  0  0  0  0  0  0  0  0  0
   48.9890   35.4040   42.3160 C   0  0  0  0  0  0  0  0  0  0  0  0
   49.9250   34.9420   43.0230 N   0  0  0  0  0  0  0  0  0  0  0  0
   49.7220   36.3880   41.5900 N   0  0  0  0  0  0  0  0  0  0  0  0
   49.9310   33.9670   43.3440 H   0  0  0  0  0  0  0  0  0  0  0  0
   40.3781   36.7585   41.3519 H   0  0  0  0  0  0  0  0  0  0  0  0
   39.3946   35.5484   39.3865 H   0  0  0  0  0  0  0  0  0  0  0  0
   41.2448   33.1510   37.6747 H   0  0  0  0  0  0  0  0  0  0  0  0
   39.2803   33.6356   36.5005 H   0  0  0  0  0  0  0  0  0  0  0  0
   39.3847   35.0237   37.5995 H   0  0  0  0  0  0  0  0  0  0  0  0
   37.7100   34.1416   39.0633 H   0  0  0  0  0  0  0  0  0  0  0  0
   37.1004   33.5544   37.5263 H   0  0  0  0  0  0  0  0  0  0  0  0
   37.8554   31.9351   39.6836 H   0  0  0  0  0  0  0  0  0  0  0  0
   37.7634   31.3531   38.0082 H   0  0  0  0  0  0  0  0  0  0  0  0
   40.0413   31.6430   39.6685 H   0  0  0  0  0  0  0  0  0  0  0  0
   40.3680   29.8064   39.7228 H   0  0  0  0  0  0  0  0  0  0  0  0
   39.6080   28.8216   38.4269 H   0  0  0  0  0  0  0  0  0  0  0  0
   41.3843   29.0889   38.4269 H   0  0  0  0  0  0  0  0  0  0  0  0
   42.3089   31.1872   37.9380 H   0  0  0  0  0  0  0  0  0  0  0  0
   41.8095   30.1780   36.5384 H   0  0  0  0  0  0  0  0  0  0  0  0
   41.4739   31.9427   36.5384 H   0  0  0  0  0  0  0  0  0  0  0  0
   38.3060   30.0368   37.2001 H   0  0  0  0  0  0  0  0  0  0  0  0
   39.0109   31.2794   36.1112 H   0  0  0  0  0  0  0  0  0  0  0  0
   39.6686   29.6079   36.1112 H   0  0  0  0  0  0  0  0  0  0  0  0
   46.9925   35.6784   41.5044 H   0  0  0  0  0  0  0  0  0  0  0  0
   50.7301   36.5105   41.7624 H   0  0  0  0  0  0  0  0  0  0  0  0
   49.2435   36.9764   40.8931 H   0  0  0  0  0  0  0  0  0  0  0  0
  1  6  2  0
  2  1  1  0
  3  2  2  0
  3  4  1  0
  4  5  2  0
  5  6  1  0
  5 16  1  0
  7 11  1  0
  7  3  1  0
  8  9  1  0
  8  7  1  0
  9 10  1  0
 11 10  1  0
 12 11  1  0
 12 13  1  0
 14 12  1  0
 15 12  1  0
 16 20  1  0
 16 17  2  0
 17 18  1  0
 19 21  1  0
 19 18  1  0
 20 19  2  0
 21 22  2  0
 23 24  1  0
 23 21  1  0
 24 25  2  0
 25 27  1  0
 26 24  1  0
  1 28  1  0
  2 29  1  0
  7 30  1  6
  8 31  1  0
  8 32  1  0
  9 33  1  0
  9 34  1  0
 10 35  1  0
 10 36  1  0
 11 37  1  1
 13 38  1  0
 13 39  1  0
 13 40  1  0
 14 41  1  0
 14 42  1  0
 14 43  1  0
 15 44  1  0
 15 45  1  0
 15 46  1  0
 23 47  1  0
 26 48  1  0
 26 49  1  0
M  ISO  8  28  14  29  14  30  13  31  13  32  13  33  13  34  13  35  13
M  ISO  8  36  13  37  13  38   8  39   8  40   8  41   8  42   8  43   8
M  ISO  3  44   8  45   8  46   8
M  END
>  <minimizedAffinity>  (1) 
-6.40919399

>  <minimizedRMSD>  (1) 
0.819895327

$$$$
