
     RDKit          3D

 39 41  0  0  1  0  0  0  0  0999 V2000
   40.6980   35.9980   41.1100 C   0  0  0  0  0  0  0  0  0  0  0  0
   40.2220   35.4440   39.9090 C   0  0  0  0  0  0  0  0  0  0  0  0
   40.9080   34.3580   39.3410 C   0  0  0  0  0  0  0  0  0  0  0  0
   41.9950   33.8800   39.9560 N   0  0  0  0  0  0  0  0  0  0  0  0
   42.4270   34.4440   41.1210 C   0  0  0  0  0  0  0  0  0  0  0  0
   41.7930   35.4860   41.6920 N   0  0  0  0  0  0  0  0  0  0  0  0
   40.4160   33.7670   38.0990 C   0  0  2  0  0  0  0  0  0  0  0  0
   39.0840   34.1830   37.6510 C   0  0  0  0  0  0  0  0  0  0  0  0
   38.0990   33.1950   38.2500 C   0  0  0  0  0  0  0  0  0  0  0  0
   38.8710   31.9070   38.3280 C   0  0  0  0  0  0  0  0  0  0  0  0
   40.3060   32.2700   38.1080 C   0  0  1  0  0  0  0  0  0  0  0  0
   40.8600   31.6690   36.9130 N   0  0  0  0  0  0  0  0  0  0  0  0
   43.6210   33.9390   41.8290 C   0  0  0  0  0  0  0  0  0  0  0  0
   43.8610   32.7810   42.4710 N   0  0  0  0  0  0  0  0  0  0  0  0
   45.0780   32.7740   42.9500 O   0  0  0  0  0  0  0  0  0  0  0  0
   45.6680   33.9150   42.6410 C   0  0  0  0  0  0  0  0  0  0  0  0
   44.7600   34.6420   41.9420 N   0  0  0  0  0  0  0  0  0  0  0  0
   47.0190   34.2530   43.0090 C   0  0  0  0  0  0  0  0  0  0  0  0
   47.6090   33.7360   43.9290 O   0  0  0  0  0  0  0  0  0  0  0  0
   47.5550   35.2380   42.1840 N   0  0  0  0  0  0  0  0  0  0  0  0
   48.9480   35.3990   42.3480 C   0  0  0  0  0  0  0  0  0  0  0  0
   49.8810   34.9090   43.0500 N   0  0  0  0  0  0  0  0  0  0  0  0
   49.7490   36.3430   41.6140 N   0  0  0  0  0  0  0  0  0  0  0  0
   49.7690   34.1080   43.6320 H   0  0  0  0  0  0  0  0  0  0  0  0
   40.1744   36.8485   41.5711 H   0  0  0  0  0  0  0  0  0  0  0  0
   39.3257   35.8549   39.4213 H   0  0  0  0  0  0  0  0  0  0  0  0
   41.2023   34.1434   37.4282 H   0  0  0  0  0  0  0  0  0  0  0  0
   38.8645   35.2008   38.0059 H   0  0  0  0  0  0  0  0  0  0  0  0
   39.0190   34.1930   36.5530 H   0  0  0  0  0  0  0  0  0  0  0  0
   37.7802   33.5202   39.2513 H   0  0  0  0  0  0  0  0  0  0  0  0
   37.1804   33.1005   37.6523 H   0  0  0  0  0  0  0  0  0  0  0  0
   38.7417   31.4436   39.3172 H   0  0  0  0  0  0  0  0  0  0  0  0
   38.5202   31.1819   37.5788 H   0  0  0  0  0  0  0  0  0  0  0  0
   40.9109   31.8616   38.9310 H   0  0  0  0  0  0  0  0  0  0  0  0
   41.5346   30.9371   37.1779 H   0  0  0  0  0  0  0  0  0  0  0  0
   40.1014   31.2511   36.3555 H   0  0  0  0  0  0  0  0  0  0  0  0
   46.9932   35.7922   41.5221 H   0  0  0  0  0  0  0  0  0  0  0  0
   50.7624   36.4038   41.7881 H   0  0  0  0  0  0  0  0  0  0  0  0
   49.3089   36.9578   40.9146 H   0  0  0  0  0  0  0  0  0  0  0  0
  1  6  2  0
  2  1  1  0
  3  2  2  0
  3  4  1  0
  4  5  2  0
  5  6  1  0
  5 13  1  0
  7 11  1  0
  7  3  1  0
  8  7  1  0
  8  9  1  0
  9 10  1  0
 11 10  1  0
 12 11  1  0
 13 17  1  0
 13 14  2  0
 14 15  1  0
 16 15  1  0
 16 18  1  0
 17 16  2  0
 18 19  2  0
 20 21  1  0
 20 18  1  0
 21 22  2  0
 22 24  1  0
 23 21  1  0
  1 25  1  0
  2 26  1  0
  7 27  1  6
  8 28  1  0
  8 29  1  0
  9 30  1  0
  9 31  1  0
 10 32  1  0
 10 33  1  0
 11 34  1  1
 12 35  1  0
 12 36  1  0
 20 37  1  0
 23 38  1  0
 23 39  1  0
M  ISO  8  25  14  26  14  27  13  28  13  29  13  30  13  31  13  32  13
M  ISO  4  33  13  34  13  35   5  36   5
M  END
>  <minimizedAffinity>  (1) 
-6.16828537

>  <minimizedRMSD>  (1) 
0.110070556

$$$$
