
     RDKit          3D

 30 33  0  0  1  0  0  0  0  0999 V2000
   44.4870   34.3720   42.9780 C   0  0  1  0  0  0  0  0  0  0  0  0
   44.8090   35.7950   42.5610 C   0  0  0  0  0  0  0  0  0  0  0  0
   45.0070   34.6740   41.6370 C   0  0  2  0  0  0  0  0  0  0  0  0
   45.3630   33.7380   44.0010 C   0  0  0  0  0  0  0  0  0  0  0  0
   46.3730   32.8340   43.5640 C   0  0  0  0  0  0  0  0  0  0  0  0
   47.2090   32.2410   44.4980 C   0  0  0  0  0  0  0  0  0  0  0  0
   47.0170   32.5630   45.8110 N   0  0  0  0  0  0  0  0  0  0  0  0
   46.0380   33.4360   46.1900 C   0  0  0  0  0  0  0  0  0  0  0  0
   45.2330   34.0060   45.2950 N   0  0  0  0  0  0  0  0  0  0  0  0
   44.0860   34.4420   40.5370 N   0  0  0  0  0  0  0  0  0  0  0  0
   44.3470   33.7310   39.4510 C   0  0  0  0  0  0  0  0  0  0  0  0
   43.2370   33.7650   38.6900 N   0  0  0  0  0  0  0  0  0  0  0  0
   42.3030   34.4850   39.2940 C   0  0  0  0  0  0  0  0  0  0  0  0
   41.0030   34.8300   38.9540 C   0  0  0  0  0  0  0  0  0  0  0  0
   40.3030   35.5920   39.8100 N   0  0  0  0  0  0  0  0  0  0  0  0
   40.7950   36.0350   40.9720 C   0  0  0  0  0  0  0  0  0  0  0  0
   42.0500   35.7120   41.3190 N   0  0  0  0  0  0  0  0  0  0  0  0
   42.8190   34.9420   40.5010 C   0  0  0  0  0  0  0  0  0  0  0  0
   40.5240   34.3360   37.7080 N   0  0  0  0  0  0  0  0  0  0  0  0
   43.6101   33.8271   43.3578 H   0  0  0  0  0  0  0  0  0  0  0  0
   43.9976   36.5173   42.3879 H   0  0  0  0  0  0  0  0  0  0  0  0
   45.4395   36.6043   42.9578 H   0  0  0  0  0  0  0  0  0  0  0  0
   45.8722   34.3662   41.0314 H   0  0  0  0  0  0  0  0  0  0  0  0
   46.4890   32.6079   42.4938 H   0  0  0  0  0  0  0  0  0  0  0  0
   47.9975   31.5374   44.1926 H   0  0  0  0  0  0  0  0  0  0  0  0
   45.9115   33.6735   47.2566 H   0  0  0  0  0  0  0  0  0  0  0  0
   45.2885   33.2129   39.2161 H   0  0  0  0  0  0  0  0  0  0  0  0
   40.1773   36.6575   41.6361 H   0  0  0  0  0  0  0  0  0  0  0  0
   39.5666   34.5580   37.3997 H   0  0  0  0  0  0  0  0  0  0  0  0
   41.1348   33.7565   37.1146 H   0  0  0  0  0  0  0  0  0  0  0  0
  1  4  1  0
  2  1  1  0
  3  2  1  0
  3  1  1  0
  4  9  1  0
  5  4  2  0
  5  6  1  0
  6  7  2  0
  7  8  1  0
  9  8  2  0
 10  3  1  0
 11 10  1  0
 12 13  1  0
 12 11  2  0
 13 18  2  0
 14 13  1  0
 14 15  2  0
 15 16  1  0
 16 17  2  0
 18 10  1  0
 18 17  1  0
 19 14  1  0
  1 20  1  6
  2 21  1  0
  2 22  1  0
  3 23  1  6
  5 24  1  0
  6 25  1  0
  8 26  1  0
 11 27  1  0
 16 28  1  0
 19 29  1  0
 19 30  1  0
M  ISO  8  20  13  21  13  22  13  23  13  24  14  25  14  26  14  27  14
M  ISO  1  28  14
M  END
>  <minimizedAffinity>  (1) 
-5.06675816

>  <minimizedRMSD>  (1) 
1.79751408

$$$$
