
     RDKit          3D

 30 32  0  0  1  0  0  0  0  0999 V2000
   44.5660   34.8680   43.6870 C   0  0  1  0  0  0  0  0  0  0  0  0
   45.1400   36.1690   43.1660 C   0  0  0  0  0  0  0  0  0  0  0  0
   44.8420   35.0550   42.2570 C   0  0  2  0  0  0  0  0  0  0  0  0
   45.4240   34.0120   44.5360 C   0  0  0  0  0  0  0  0  0  0  0  0
   46.3870   33.1980   43.8860 C   0  0  0  0  0  0  0  0  0  0  0  0
   47.2290   32.3770   44.6440 C   0  0  0  0  0  0  0  0  0  0  0  0
   47.0670   32.4130   45.9990 N   0  0  0  0  0  0  0  0  0  0  0  0
   46.1320   33.2080   46.5870 C   0  0  0  0  0  0  0  0  0  0  0  0
   45.3360   33.9850   45.8580 N   0  0  0  0  0  0  0  0  0  0  0  0
   41.5070   34.9260   39.5970 C   0  0  0  0  0  0  0  0  0  0  0  0
   42.7300   34.3860   39.2040 C   0  0  0  0  0  0  0  0  0  0  0  0
   43.7750   34.4540   40.1050 C   0  0  0  0  0  0  0  0  0  0  0  0
   43.6500   35.0370   41.3720 C   0  0  0  0  0  0  0  0  0  0  0  0
   42.4300   35.5530   41.7110 C   0  0  0  0  0  0  0  0  0  0  0  0
   41.3530   35.5000   40.8270 C   0  0  0  0  0  0  0  0  0  0  0  0
   40.2190   34.7990   38.3910 S   0  0  0  0  0  0  0  0  0  0  0  0
   40.6280   35.6820   37.2540 O   0  0  0  0  0  0  0  0  0  0  0  0
   40.2100   33.3800   37.9400 O   0  0  0  0  0  0  0  0  0  0  0  0
   43.6818   34.5535   44.2608 H   0  0  0  0  0  0  0  0  0  0  0  0
   44.5212   37.0782   43.1477 H   0  0  0  0  0  0  0  0  0  0  0  0
   46.0256   36.7812   43.3917 H   0  0  0  0  0  0  0  0  0  0  0  0
   45.4551   34.5731   41.4812 H   0  0  0  0  0  0  0  0  0  0  0  0
   46.4715   33.2122   42.7893 H   0  0  0  0  0  0  0  0  0  0  0  0
   47.9852   31.7334   44.1708 H   0  0  0  0  0  0  0  0  0  0  0  0
   46.0330   33.2079   47.6825 H   0  0  0  0  0  0  0  0  0  0  0  0
   42.8584   33.9233   38.2143 H   0  0  0  0  0  0  0  0  0  0  0  0
   44.7482   34.0316   39.8143 H   0  0  0  0  0  0  0  0  0  0  0  0
   42.2958   36.0182   42.6987 H   0  0  0  0  0  0  0  0  0  0  0  0
   40.3796   35.9203   41.1200 H   0  0  0  0  0  0  0  0  0  0  0  0
   38.9847   35.1601   38.8633 H   0  0  0  0  0  0  0  0  0  0  0  0
  1  4  1  0
  2  1  1  0
  3  2  1  0
  3  1  1  0
  4  9  1  0
  5  4  2  0
  5  6  1  0
  6  7  2  0
  7  8  1  0
  9  8  2  0
 10 15  2  0
 11 10  1  0
 11 12  2  0
 12 13  1  0
 13 14  2  0
 13  3  1  0
 15 14  1  0
 16 10  1  0
 17 16  2  0
 18 16  2  0
  1 19  1  6
  2 20  1  0
  2 21  1  0
  3 22  1  6
  5 23  1  0
  6 24  1  0
  8 25  1  0
 11 26  1  0
 12 27  1  0
 14 28  1  0
 15 29  1  0
 16 30  1  0
M  ISO  8  19  13  20  13  21  13  22  13  23  14  24  14  25  14  26  14
M  ISO  4  27  14  28  14  29  14  30  11
M  END
>  <minimizedAffinity>  (1) 
-5.03043032

>  <minimizedRMSD>  (1) 
1.64249265

$$$$
