
     RDKit          3D

 28 30  0  0  1  0  0  0  0  0999 V2000
   46.5890   31.7140   45.3570 C   0  0  1  0  0  0  0  0  0  0  0  0
   45.5900   31.5100   44.2320 C   0  0  0  0  0  0  0  0  0  0  0  0
   46.0400   32.8570   44.6210 C   0  0  2  0  0  0  0  0  0  0  0  0
   46.8530   33.6000   43.6630 N   0  0  0  0  0  0  0  0  0  0  0  0
   48.0710   33.0980   43.3840 C   0  0  0  0  0  0  0  0  0  0  0  0
   48.8360   33.8050   42.4760 C   0  0  0  0  0  0  0  0  0  0  0  0
   48.3000   34.9570   41.9330 C   0  0  0  0  0  0  0  0  0  0  0  0
   49.0440   35.7250   40.9930 N   0  0  0  0  0  0  0  0  0  0  0  0
   47.0620   35.4170   42.2530 N   0  0  0  0  0  0  0  0  0  0  0  0
   46.3050   34.7180   43.1510 C   0  0  0  0  0  0  0  0  0  0  0  0
   45.1530   35.0870   43.4920 O   0  0  0  0  0  0  0  0  0  0  0  0
   46.1270   31.4310   46.7580 C   0  0  0  0  0  0  0  0  0  0  0  0
   46.2480   32.4540   47.7400 C   0  0  0  0  0  0  0  0  0  0  0  0
   45.8000   32.1730   49.0240 C   0  0  0  0  0  0  0  0  0  0  0  0
   45.2730   30.9470   49.2720 N   0  0  0  0  0  0  0  0  0  0  0  0
   45.1770   29.9940   48.2980 C   0  0  0  0  0  0  0  0  0  0  0  0
   45.6000   30.2400   47.0610 N   0  0  0  0  0  0  0  0  0  0  0  0
   47.6060   31.3673   45.5925 H   0  0  0  0  0  0  0  0  0  0  0  0
   44.5637   31.1831   44.4554 H   0  0  0  0  0  0  0  0  0  0  0  0
   45.5664   30.9289   43.2983 H   0  0  0  0  0  0  0  0  0  0  0  0
   45.5498   33.7856   44.9488 H   0  0  0  0  0  0  0  0  0  0  0  0
   48.4377   32.1737   43.8542 H   0  0  0  0  0  0  0  0  0  0  0  0
   49.8420   33.4609   42.1938 H   0  0  0  0  0  0  0  0  0  0  0  0
   49.9884   35.4231   40.7138 H   0  0  0  0  0  0  0  0  0  0  0  0
   48.6379   36.5825   40.5921 H   0  0  0  0  0  0  0  0  0  0  0  0
   46.6815   33.4337   47.4904 H   0  0  0  0  0  0  0  0  0  0  0  0
   45.8706   32.9268   49.8220 H   0  0  0  0  0  0  0  0  0  0  0  0
   44.7449   29.0117   48.5394 H   0  0  0  0  0  0  0  0  0  0  0  0
  1 12  1  0
  2  3  1  0
  2  1  1  0
  3  1  1  0
  4  3  1  0
  5  4  1  0
  6  5  2  0
  7  9  2  0
  7  6  1  0
  8  7  1  0
  9 10  1  0
 10 11  2  0
 10  4  1  0
 12 17  1  0
 12 13  2  0
 13 14  1  0
 14 15  2  0
 16 15  1  0
 17 16  2  0
  1 18  1  6
  2 19  1  0
  2 20  1  0
  3 21  1  1
  5 22  1  0
  6 23  1  0
  8 24  1  0
  8 25  1  0
 13 26  1  0
 14 27  1  0
 16 28  1  0
M  ISO  8  18  13  19  13  20  13  21  13  22  14  23  14  26  14  27  14
M  ISO  1  28  14
M  END
>  <minimizedAffinity>  (1) 
-4.94082403

>  <minimizedRMSD>  (1) 
4.76062441

$$$$
