
     RDKit          3D

 46 48  0  0  1  0  0  0  0  0999 V2000
   46.2980   34.8680   41.9510 C   0  0  0  0  0  0  0  0  0  0  0  0
   46.8430   34.4450   40.7410 N   0  0  0  0  0  0  0  0  0  0  0  0
   46.1950   33.3910   40.1890 C   0  0  0  0  0  0  0  0  0  0  0  0
   47.0400   32.1560   39.9410 C   0  0  0  0  0  0  0  0  0  0  0  0
   48.2590   31.9800   40.7490 C   0  0  0  0  0  0  0  0  0  0  0  0
   48.6740   33.2010   41.5010 C   0  0  0  0  0  0  0  0  0  0  0  0
   48.2490   34.4200   40.7430 C   0  0  2  0  0  0  0  0  0  0  0  0
   48.8830   35.5910   41.3940 C   0  0  0  0  0  0  0  0  0  0  0  0
   49.8410   35.2620   42.4910 C   0  0  0  0  0  0  0  0  0  0  0  0
   45.1480   34.1390   42.4550 C   0  0  1  0  0  0  0  0  0  0  0  0
   45.2130   34.3790   44.9930 C   0  0  0  0  0  0  0  0  0  0  0  0
   45.4290   33.6320   43.8020 C   0  0  0  0  0  0  0  0  0  0  0  0
   45.9300   32.3270   43.9240 C   0  0  0  0  0  0  0  0  0  0  0  0
   46.1840   31.8360   45.1500 N   0  0  0  0  0  0  0  0  0  0  0  0
   45.9680   32.5720   46.2710 C   0  0  0  0  0  0  0  0  0  0  0  0
   45.4730   33.8670   46.1910 N   0  0  0  0  0  0  0  0  0  0  0  0
   43.9280   35.0200   42.4580 C   0  0  0  0  0  0  0  0  0  0  0  0
   43.0640   34.7420   41.3030 N   0  0  0  0  0  0  0  0  0  0  0  0
   42.1710   33.7200   41.2110 C   0  0  0  0  0  0  0  0  0  0  0  0
   41.5420   33.7460   40.0310 N   0  0  0  0  0  0  0  0  0  0  0  0
   42.0460   34.7990   39.3660 C   0  0  0  0  0  0  0  0  0  0  0  0
   42.9510   35.3760   40.1490 N   0  0  0  0  0  0  0  0  0  0  0  0
   45.9952   35.9183   41.8277 H   0  0  0  0  0  0  0  0  0  0  0  0
   47.0904   34.6934   42.6937 H   0  0  0  0  0  0  0  0  0  0  0  0
   45.3733   33.1084   40.8636 H   0  0  0  0  0  0  0  0  0  0  0  0
   45.8613   33.7301   39.1972 H   0  0  0  0  0  0  0  0  0  0  0  0
   46.3995   31.2798   40.1197 H   0  0  0  0  0  0  0  0  0  0  0  0
   47.4073   32.2759   38.9111 H   0  0  0  0  0  0  0  0  0  0  0  0
   48.0792   31.1724   41.4739 H   0  0  0  0  0  0  0  0  0  0  0  0
   49.0736   31.7478   40.0472 H   0  0  0  0  0  0  0  0  0  0  0  0
   48.1979   33.2009   42.4926 H   0  0  0  0  0  0  0  0  0  0  0  0
   49.7675   33.2051   41.6204 H   0  0  0  0  0  0  0  0  0  0  0  0
   48.5702   34.4272   39.6910 H   0  0  0  0  0  0  0  0  0  0  0  0
   49.4278   36.1562   40.6234 H   0  0  0  0  0  0  0  0  0  0  0  0
   48.0668   36.1625   41.8601 H   0  0  0  0  0  0  0  0  0  0  0  0
   49.3556   35.4287   43.4639 H   0  0  0  0  0  0  0  0  0  0  0  0
   50.1449   34.2080   42.4086 H   0  0  0  0  0  0  0  0  0  0  0  0
   50.7283   35.9069   42.4086 H   0  0  0  0  0  0  0  0  0  0  0  0
   44.9484   33.2831   41.7934 H   0  0  0  0  0  0  0  0  0  0  0  0
   44.8216   35.4044   44.9204 H   0  0  0  0  0  0  0  0  0  0  0  0
   46.1125   31.7139   43.0291 H   0  0  0  0  0  0  0  0  0  0  0  0
   46.1884   32.1359   47.2565 H   0  0  0  0  0  0  0  0  0  0  0  0
   43.3590   34.8405   43.3821 H   0  0  0  0  0  0  0  0  0  0  0  0
   44.2573   36.0680   42.4001 H   0  0  0  0  0  0  0  0  0  0  0  0
   41.9909   32.9742   41.9993 H   0  0  0  0  0  0  0  0  0  0  0  0
   41.7606   35.1249   38.3549 H   0  0  0  0  0  0  0  0  0  0  0  0
  1 10  1  0
  2  7  1  0
  2  1  1  0
  3  2  1  0
  4  3  1  0
  4  5  1  0
  5  6  1  0
  7  8  1  0
  7  6  1  0
  8  9  1  0
 10 17  1  0
 10 12  1  0
 11 16  2  0
 12 13  2  0
 12 11  1  0
 13 14  1  0
 14 15  2  0
 16 15  1  0
 18 17  1  0
 19 18  1  0
 20 19  2  0
 21 20  1  0
 21 22  2  0
 22 18  1  0
  1 23  1  0
  1 24  1  0
  3 25  1  0
  3 26  1  0
  4 27  1  0
  4 28  1  0
  5 29  1  0
  5 30  1  0
  6 31  1  0
  6 32  1  0
  7 33  1  6
  8 34  1  0
  8 35  1  0
  9 36  1  0
  9 37  1  0
  9 38  1  0
 10 39  1  6
 11 40  1  0
 13 41  1  0
 15 42  1  0
 17 43  1  0
 17 44  1  0
 19 45  1  0
 21 46  1  0
M  ISO  8  23   8  24   8  25  13  26  13  27  13  28  13  29  13  30  13
M  ISO  8  31  13  32  13  33  13  34   8  35   8  36   8  37   8  38   8
M  ISO  8  39   8  40  14  41  14  42  14  43   8  44   8  45  14  46  14
M  END
>  <minimizedAffinity>  (1) 
-4.90912485

>  <minimizedRMSD>  (1) 
2.13774824

$$$$
