
     RDKit          3D

 25 27  0  0  1  0  0  0  0  0999 V2000
   45.1240   33.2370   41.8800 C   0  0  1  0  0  0  0  0  0  0  0  0
   45.2590   34.0280   40.5910 C   0  0  0  0  0  0  0  0  0  0  0  0
   46.3570   33.2150   41.0840 C   0  0  1  0  0  0  0  0  0  0  0  0
   44.9910   33.9790   43.1560 C   0  0  0  0  0  0  0  0  0  0  0  0
   45.4630   33.3250   44.3050 C   0  0  0  0  0  0  0  0  0  0  0  0
   45.3800   33.9720   45.5430 C   0  0  0  0  0  0  0  0  0  0  0  0
   44.8360   35.2260   45.5600 N   0  0  0  0  0  0  0  0  0  0  0  0
   44.3910   35.8230   44.4210 C   0  0  0  0  0  0  0  0  0  0  0  0
   44.4720   35.1950   43.2270 N   0  0  0  0  0  0  0  0  0  0  0  0
   47.6050   33.8770   41.5280 C   0  0  0  0  0  0  0  0  0  0  0  0
   47.9460   35.2080   41.2520 C   0  0  0  0  0  0  0  0  0  0  0  0
   49.1240   35.7690   41.6940 C   0  0  0  0  0  0  0  0  0  0  0  0
   50.0060   35.0570   42.4170 N   0  0  0  0  0  0  0  0  0  0  0  0
   49.6830   33.7790   42.6850 C   0  0  0  0  0  0  0  0  0  0  0  0
   48.5410   33.2100   42.2650 N   0  0  0  0  0  0  0  0  0  0  0  0
   44.4710   32.4538   42.2926 H   0  0  0  0  0  0  0  0  0  0  0  0
   45.3275   35.1255   40.6211 H   0  0  0  0  0  0  0  0  0  0  0  0
   44.6941   34.0923   39.6493 H   0  0  0  0  0  0  0  0  0  0  0  0
   46.9639   32.3918   40.6790 H   0  0  0  0  0  0  0  0  0  0  0  0
   45.8933   32.3152   44.2330 H   0  0  0  0  0  0  0  0  0  0  0  0
   45.7380   33.4910   46.4652 H   0  0  0  0  0  0  0  0  0  0  0  0
   43.9584   36.8330   44.4729 H   0  0  0  0  0  0  0  0  0  0  0  0
   47.2507   35.8246   40.6635 H   0  0  0  0  0  0  0  0  0  0  0  0
   49.3470   36.8184   41.4510 H   0  0  0  0  0  0  0  0  0  0  0  0
   50.3859   33.1724   43.2748 H   0  0  0  0  0  0  0  0  0  0  0  0
  1  4  1  0
  2  3  1  0
  2  1  1  0
  3 10  1  0
  3  1  1  0
  4  9  1  0
  4  5  2  0
  5  6  1  0
  6  7  2  0
  8  7  1  0
  9  8  2  0
 10 15  1  0
 11 10  2  0
 11 12  1  0
 12 13  2  0
 13 14  1  0
 15 14  2  0
  1 16  1  6
  2 17  1  0
  2 18  1  0
  3 19  1  6
  5 20  1  0
  6 21  1  0
  8 22  1  0
 11 23  1  0
 12 24  1  0
 14 25  1  0
M  ISO  8  16  13  17  13  18  13  19  13  20  14  21  14  22  14  23  14
M  ISO  2  24  14  25  14
M  END
>  <minimizedAffinity>  (1) 
-4.48260593

>  <minimizedRMSD>  (1) 
2.70613933

$$$$
