
     RDKit          3D

 24 26  0  0  1  0  0  0  0  0999 V2000
   47.1360   32.2560   43.0290 C   0  0  1  0  0  0  0  0  0  0  0  0
   47.1690   32.2800   44.5400 C   0  0  0  0  0  0  0  0  0  0  0  0
   45.9060   32.4500   43.7990 C   0  0  1  0  0  0  0  0  0  0  0  0
   47.7590   33.3910   42.2850 C   0  0  0  0  0  0  0  0  0  0  0  0
   48.7540   34.1690   42.9400 C   0  0  0  0  0  0  0  0  0  0  0  0
   49.3280   35.2110   42.2280 C   0  0  0  0  0  0  0  0  0  0  0  0
   48.9130   35.4290   40.9640 N   0  0  0  0  0  0  0  0  0  0  0  0
   47.9690   34.6740   40.3720 C   0  0  0  0  0  0  0  0  0  0  0  0
   47.3930   33.6620   41.0250 N   0  0  0  0  0  0  0  0  0  0  0  0
   45.2910   33.7570   43.9490 N   0  0  0  0  0  0  0  0  0  0  0  0
   44.6470   34.4540   42.9990 N   0  0  0  0  0  0  0  0  0  0  0  0
   44.2080   35.6120   43.4740 C   0  0  0  0  0  0  0  0  0  0  0  0
   44.5790   35.7030   44.8200 C   0  0  0  0  0  0  0  0  0  0  0  0
   45.2570   34.5180   45.0780 C   0  0  0  0  0  0  0  0  0  0  0  0
   47.4448   31.5566   42.2381 H   0  0  0  0  0  0  0  0  0  0  0  0
   47.3595   31.3552   45.1043 H   0  0  0  0  0  0  0  0  0  0  0  0
   47.7141   32.8529   45.3046 H   0  0  0  0  0  0  0  0  0  0  0  0
   44.9285   31.9494   43.7376 H   0  0  0  0  0  0  0  0  0  0  0  0
   49.0571   33.9514   43.9748 H   0  0  0  0  0  0  0  0  0  0  0  0
   50.1033   35.8446   42.6835 H   0  0  0  0  0  0  0  0  0  0  0  0
   47.6683   34.8936   39.3369 H   0  0  0  0  0  0  0  0  0  0  0  0
   43.6484   36.3705   42.9071 H   0  0  0  0  0  0  0  0  0  0  0  0
   44.3785   36.5288   45.5184 H   0  0  0  0  0  0  0  0  0  0  0  0
   45.6986   34.2375   46.0456 H   0  0  0  0  0  0  0  0  0  0  0  0
  1  3  1  0
  1  2  1  0
  3 10  1  0
  3  2  1  0
  4  5  2  0
  4  1  1  0
  6  5  1  0
  7  6  2  0
  8  7  1  0
  8  9  2  0
  9  4  1  0
 10 14  1  0
 11 12  2  0
 11 10  1  0
 12 13  1  0
 13 14  2  0
  1 15  1  6
  2 16  1  0
  2 17  1  0
  3 18  1  1
  5 19  1  0
  6 20  1  0
  8 21  1  0
 12 22  1  0
 13 23  1  0
 14 24  1  0
M  ISO  8  15  13  16  13  17  13  18  13  19  14  20  14  21  14  22  14
M  ISO  2  23  14  24  14
M  END
>  <minimizedAffinity>  (1) 
-3.95503879

>  <minimizedRMSD>  (1) 
4.47619581

$$$$
