
     RDKit          3D

 24 26  0  0  1  0  0  0  0  0999 V2000
   44.5080   34.8480   43.4810 C   0  0  1  0  0  0  0  0  0  0  0  0
   45.0850   36.2440   43.4690 C   0  0  0  0  0  0  0  0  0  0  0  0
   45.0310   35.4380   42.2420 C   0  0  1  0  0  0  0  0  0  0  0  0
   45.2300   33.7830   44.2190 C   0  0  0  0  0  0  0  0  0  0  0  0
   45.2180   32.4880   43.6780 C   0  0  0  0  0  0  0  0  0  0  0  0
   45.8890   31.4610   44.3230 C   0  0  0  0  0  0  0  0  0  0  0  0
   46.5390   31.7610   45.4660 N   0  0  0  0  0  0  0  0  0  0  0  0
   46.5380   33.0260   45.9750 C   0  0  0  0  0  0  0  0  0  0  0  0
   45.8830   34.0270   45.3460 N   0  0  0  0  0  0  0  0  0  0  0  0
   46.3730   34.9300   41.7650 C   0  0  0  0  0  0  0  0  0  0  0  0
   47.7170   35.1350   42.1230 C   0  0  0  0  0  0  0  0  0  0  0  0
   48.6840   34.4670   41.4470 C   0  0  0  0  0  0  0  0  0  0  0  0
   48.3250   33.5180   40.3290 C   0  0  0  0  0  0  0  0  0  0  0  0
   46.4590   33.6850   40.3480 S   0  0  0  0  0  0  0  0  0  0  0  0
   43.5541   34.3746   43.7567 H   0  0  0  0  0  0  0  0  0  0  0  0
   44.4248   37.1159   43.5870 H   0  0  0  0  0  0  0  0  0  0  0  0
   45.8737   36.7705   44.0264 H   0  0  0  0  0  0  0  0  0  0  0  0
   44.6113   35.5776   41.2348 H   0  0  0  0  0  0  0  0  0  0  0  0
   44.6760   32.2881   42.7419 H   0  0  0  0  0  0  0  0  0  0  0  0
   45.8913   30.4385   43.9174 H   0  0  0  0  0  0  0  0  0  0  0  0
   47.0777   33.2347   46.9105 H   0  0  0  0  0  0  0  0  0  0  0  0
   47.9796   35.8257   42.9378 H   0  0  0  0  0  0  0  0  0  0  0  0
   49.7400   34.6179   41.7156 H   0  0  0  0  0  0  0  0  0  0  0  0
   48.9736   32.9040   39.6868 H   0  0  0  0  0  0  0  0  0  0  0  0
  1  4  1  0
  2  1  1  0
  3  2  1  0
  3  1  1  0
  4  9  1  0
  5  4  2  0
  5  6  1  0
  6  7  2  0
  7  8  1  0
  9  8  2  0
 10 11  2  0
 10  3  1  0
 12 11  1  0
 13 14  1  0
 13 12  2  0
 14 10  1  0
  1 15  1  6
  2 16  1  0
  2 17  1  0
  3 18  1  6
  5 19  1  0
  6 20  1  0
  8 21  1  0
 11 22  1  0
 12 23  1  0
 13 24  1  0
M  ISO  8  15  13  16  13  17  13  18  13  19  14  20  14  21  14  22  14
M  ISO  2  23  14  24  14
M  END
>  <minimizedAffinity>  (1) 
-3.89980841

>  <minimizedRMSD>  (1) 
1.464324

$$$$
