
     RDKit          3D

 47 49  0  0  1  0  0  0  0  0999 V2000
   46.1690   34.8760   41.8220 C   0  0  0  0  0  0  0  0  0  0  0  0
   46.7570   34.3610   40.6630 N   0  0  0  0  0  0  0  0  0  0  0  0
   46.0910   33.3010   40.1640 C   0  0  0  0  0  0  0  0  0  0  0  0
   46.9550   32.0780   39.9830 C   0  0  0  0  0  0  0  0  0  0  0  0
   48.1130   31.8960   40.8840 C   0  0  0  0  0  0  0  0  0  0  0  0
   48.5280   33.1490   41.5880 C   0  0  0  0  0  0  0  0  0  0  0  0
   48.1670   34.3230   40.7410 C   0  0  2  0  0  0  0  0  0  0  0  0
   48.7920   35.5270   41.3290 C   0  0  0  0  0  0  0  0  0  0  0  0
   49.7610   35.2490   42.4300 C   0  0  0  0  0  0  0  0  0  0  0  0
   45.0230   34.1960   42.3720 C   0  0  1  0  0  0  0  0  0  0  0  0
   45.0680   34.6010   44.8880 C   0  0  0  0  0  0  0  0  0  0  0  0
   45.2870   33.7770   43.7510 C   0  0  0  0  0  0  0  0  0  0  0  0
   45.7760   32.4820   43.9760 C   0  0  0  0  0  0  0  0  0  0  0  0
   46.0190   32.0620   45.2310 N   0  0  0  0  0  0  0  0  0  0  0  0
   45.7970   32.8810   46.2970 C   0  0  0  0  0  0  0  0  0  0  0  0
   45.3130   34.1710   46.1170 N   0  0  0  0  0  0  0  0  0  0  0  0
   43.8030   35.0790   42.2980 C   0  0  0  0  0  0  0  0  0  0  0  0
   42.9120   34.7400   41.1900 N   0  0  0  0  0  0  0  0  0  0  0  0
   42.7580   35.1940   39.9610 C   0  0  0  0  0  0  0  0  0  0  0  0
   41.7630   34.5220   39.2900 C   0  0  0  0  0  0  0  0  0  0  0  0
   41.2700   33.6080   40.1330 N   0  0  0  0  0  0  0  0  0  0  0  0
   41.9710   33.7490   41.2750 C   0  0  0  0  0  0  0  0  0  0  0  0
   45.8582   35.9071   41.5979 H   0  0  0  0  0  0  0  0  0  0  0  0
   46.9459   34.7610   42.5922 H   0  0  0  0  0  0  0  0  0  0  0  0
   45.2712   33.0492   40.8529 H   0  0  0  0  0  0  0  0  0  0  0  0
   45.7252   33.5889   39.1674 H   0  0  0  0  0  0  0  0  0  0  0  0
   46.3050   31.1993   40.1071 H   0  0  0  0  0  0  0  0  0  0  0  0
   47.4046   32.2093   38.9877 H   0  0  0  0  0  0  0  0  0  0  0  0
   47.8493   31.1430   41.6412 H   0  0  0  0  0  0  0  0  0  0  0  0
   48.9616   31.5818   40.2585 H   0  0  0  0  0  0  0  0  0  0  0  0
   48.0086   33.2181   42.5552 H   0  0  0  0  0  0  0  0  0  0  0  0
   49.6140   33.1357   41.7622 H   0  0  0  0  0  0  0  0  0  0  0  0
   48.5448   34.2614   39.7097 H   0  0  0  0  0  0  0  0  0  0  0  0
   49.3253   36.0620   40.5294 H   0  0  0  0  0  0  0  0  0  0  0  0
   47.9763   36.1167   41.7729 H   0  0  0  0  0  0  0  0  0  0  0  0
   49.2638   35.3917   43.4008 H   0  0  0  0  0  0  0  0  0  0  0  0
   50.1189   34.2119   42.3503 H   0  0  0  0  0  0  0  0  0  0  0  0
   50.6143   35.9386   42.3503 H   0  0  0  0  0  0  0  0  0  0  0  0
   44.8287   33.2932   41.7744 H   0  0  0  0  0  0  0  0  0  0  0  0
   44.6852   35.6221   44.7440 H   0  0  0  0  0  0  0  0  0  0  0  0
   45.9611   31.8090   43.1258 H   0  0  0  0  0  0  0  0  0  0  0  0
   46.0037   32.5160   47.3139 H   0  0  0  0  0  0  0  0  0  0  0  0
   43.2428   34.9806   43.2395 H   0  0  0  0  0  0  0  0  0  0  0  0
   44.1544   36.1079   42.1313 H   0  0  0  0  0  0  0  0  0  0  0  0
   43.3529   36.0105   39.5258 H   0  0  0  0  0  0  0  0  0  0  0  0
   41.4348   34.7022   38.2557 H   0  0  0  0  0  0  0  0  0  0  0  0
   41.8060   33.1371   42.1741 H   0  0  0  0  0  0  0  0  0  0  0  0
  1 10  1  0
  2  7  1  0
  2  1  1  0
  3  2  1  0
  4  3  1  0
  4  5  1  0
  5  6  1  0
  7  8  1  0
  7  6  1  0
  8  9  1  0
 10 12  1  0
 11 16  2  0
 12 13  2  0
 12 11  1  0
 13 14  1  0
 14 15  2  0
 16 15  1  0
 17 10  1  0
 18 22  1  0
 18 17  1  0
 19 18  1  0
 20 19  2  0
 20 21  1  0
 21 22  2  0
  1 23  1  0
  1 24  1  0
  3 25  1  0
  3 26  1  0
  4 27  1  0
  4 28  1  0
  5 29  1  0
  5 30  1  0
  6 31  1  0
  6 32  1  0
  7 33  1  6
  8 34  1  0
  8 35  1  0
  9 36  1  0
  9 37  1  0
  9 38  1  0
 10 39  1  6
 11 40  1  0
 13 41  1  0
 15 42  1  0
 17 43  1  0
 17 44  1  0
 19 45  1  0
 20 46  1  0
 22 47  1  0
M  ISO  8  23   8  24   8  25  13  26  13  27  13  28  13  29  13  30  13
M  ISO  8  31  13  32  13  33  13  34   8  35   8  36   8  37   8  38   8
M  ISO  8  39   8  40  14  41  14  42  14  43   8  44   8  45  14  46  14
M  ISO  1  47  14
M  END
>  <minimizedAffinity>  (1) 
-4.89006281

>  <minimizedRMSD>  (1) 
2.24657321

$$$$
