
     RDKit          3D

 26 27  0  0  1  0  0  0  0  0999 V2000
   44.6010   35.0190   43.5500 C   0  0  1  0  0  0  0  0  0  0  0  0
   45.1580   36.3760   43.1890 C   0  0  0  0  0  0  0  0  0  0  0  0
   45.0380   35.3250   42.1800 C   0  0  2  0  0  0  0  0  0  0  0  0
   45.4240   34.1270   44.4160 C   0  0  0  0  0  0  0  0  0  0  0  0
   46.4050   33.3070   43.7890 C   0  0  0  0  0  0  0  0  0  0  0  0
   47.1890   32.4800   44.5790 C   0  0  0  0  0  0  0  0  0  0  0  0
   46.9760   32.4950   45.9240 N   0  0  0  0  0  0  0  0  0  0  0  0
   46.0250   33.2950   46.4850 C   0  0  0  0  0  0  0  0  0  0  0  0
   45.2690   34.0920   45.7330 N   0  0  0  0  0  0  0  0  0  0  0  0
   43.9670   35.2590   41.1310 C   0  0  0  0  0  0  0  0  0  0  0  0
   44.0350   34.0440   40.2590 C   0  0  0  0  0  0  0  0  0  0  0  0
   42.5880   35.2790   41.7750 C   0  0  0  0  0  0  0  0  0  0  0  0
   43.6742   34.6323   43.9989 H   0  0  0  0  0  0  0  0  0  0  0  0
   44.4953   37.2532   43.1539 H   0  0  0  0  0  0  0  0  0  0  0  0
   45.9742   37.0113   43.5634 H   0  0  0  0  0  0  0  0  0  0  0  0
   45.7730   34.9556   41.4497 H   0  0  0  0  0  0  0  0  0  0  0  0
   46.5385   33.3293   42.6974 H   0  0  0  0  0  0  0  0  0  0  0  0
   47.9585   31.8324   44.1335 H   0  0  0  0  0  0  0  0  0  0  0  0
   45.8803   33.2816   47.5754 H   0  0  0  0  0  0  0  0  0  0  0  0
   44.1390   36.1427   40.4989 H   0  0  0  0  0  0  0  0  0  0  0  0
   44.0854   33.1433   40.8884 H   0  0  0  0  0  0  0  0  0  0  0  0
   43.1380   33.9978   39.6239 H   0  0  0  0  0  0  0  0  0  0  0  0
   44.9315   34.0982   39.6239 H   0  0  0  0  0  0  0  0  0  0  0  0
   42.6946   35.2775   42.8698 H   0  0  0  0  0  0  0  0  0  0  0  0
   42.0495   36.1851   41.4603 H   0  0  0  0  0  0  0  0  0  0  0  0
   42.0234   34.3889   41.4603 H   0  0  0  0  0  0  0  0  0  0  0  0
  1  4  1  0
  2  1  1  0
  3  2  1  0
  3  1  1  0
  4  9  1  0
  5  4  2  0
  5  6  1  0
  6  7  2  0
  7  8  1  0
  9  8  2  0
 10 12  1  0
 10  3  1  0
 11 10  1  0
  1 13  1  6
  2 14  1  0
  2 15  1  0
  3 16  1  6
  5 17  1  0
  6 18  1  0
  8 19  1  0
 10 20  1  0
 11 21  1  0
 11 22  1  0
 11 23  1  0
 12 24  1  0
 12 25  1  0
 12 26  1  0
M  ISO  8  13  13  14  13  15  13  16  13  17  14  18  14  19  14  20   8
M  ISO  6  21   8  22   8  23   8  24   8  25   8  26   8
M  END
>  <minimizedAffinity>  (1) 
-3.70920324

>  <minimizedRMSD>  (1) 
0.803542614

$$$$
