
     RDKit          3D

 23 24  0  0  1  0  0  0  0  0999 V2000
   45.3420   34.3120   42.9360 C   0  0  1  0  0  0  0  0  0  0  0  0
   45.6310   35.7960   42.9520 C   0  0  0  0  0  0  0  0  0  0  0  0
   46.4170   34.8680   42.1180 C   0  0  1  0  0  0  0  0  0  0  0  0
   45.5600   33.5520   44.1930 C   0  0  0  0  0  0  0  0  0  0  0  0
   45.8630   32.1980   43.9950 C   0  0  0  0  0  0  0  0  0  0  0  0
   46.1060   31.3750   45.1050 C   0  0  0  0  0  0  0  0  0  0  0  0
   46.0270   31.9640   46.3300 N   0  0  0  0  0  0  0  0  0  0  0  0
   45.7350   33.2670   46.4820 C   0  0  0  0  0  0  0  0  0  0  0  0
   45.5050   34.0430   45.4280 N   0  0  0  0  0  0  0  0  0  0  0  0
   47.8700   34.8410   42.4310 C   0  0  0  0  0  0  0  0  0  0  0  0
   48.7040   35.5070   41.3340 C   0  0  0  0  0  0  0  0  0  0  0  0
   44.4992   33.6446   42.7028 H   0  0  0  0  0  0  0  0  0  0  0  0
   44.9291   36.5021   42.4843 H   0  0  0  0  0  0  0  0  0  0  0  0
   45.8597   36.5442   43.7252 H   0  0  0  0  0  0  0  0  0  0  0  0
   46.6482   34.6851   41.0582 H   0  0  0  0  0  0  0  0  0  0  0  0
   45.9099   31.7837   42.9771 H   0  0  0  0  0  0  0  0  0  0  0  0
   46.3481   30.3080   44.9913 H   0  0  0  0  0  0  0  0  0  0  0  0
   45.6857   33.6972   47.4932 H   0  0  0  0  0  0  0  0  0  0  0  0
   48.0393   35.3732   43.3787 H   0  0  0  0  0  0  0  0  0  0  0  0
   48.1827   33.7890   42.5048 H   0  0  0  0  0  0  0  0  0  0  0  0
   49.4846   36.1304   41.7944 H   0  0  0  0  0  0  0  0  0  0  0  0
   49.1738   34.7328   40.7096 H   0  0  0  0  0  0  0  0  0  0  0  0
   48.0529   36.1365   40.7096 H   0  0  0  0  0  0  0  0  0  0  0  0
  1  2  1  0
  1  4  1  0
  3 10  1  0
  3  1  1  0
  3  2  1  0
  4  9  1  0
  5  4  2  0
  5  6  1  0
  6  7  2  0
  7  8  1  0
  9  8  2  0
 11 10  1  0
  1 12  1  6
  2 13  1  0
  2 14  1  0
  3 15  1  6
  5 16  1  0
  6 17  1  0
  8 18  1  0
 10 19  1  0
 10 20  1  0
 11 21  1  0
 11 22  1  0
 11 23  1  0
M  ISO  8  12  13  13  13  14  13  15  13  16  14  17  14  18  14  19   8
M  ISO  4  20   8  21   8  22   8  23   8
M  END
>  <minimizedAffinity>  (1) 
-3.5800333

>  <minimizedRMSD>  (1) 
1.56135035

$$$$
