
     RDKit          3D

 29 30  0  0  1  0  0  0  0  0999 V2000
   45.0790   34.0320   43.8400 C   0  0  1  0  0  0  0  0  0  0  0  0
   45.8840   35.0400   43.0270 C   0  0  0  0  0  0  0  0  0  0  0  0
   45.2610   33.8730   42.4010 C   0  0  2  0  0  0  0  0  0  0  0  0
   45.8500   33.1630   44.7980 C   0  0  0  0  0  0  0  0  0  0  0  0
   46.4720   31.9710   44.3290 C   0  0  0  0  0  0  0  0  0  0  0  0
   47.1850   31.2120   45.2470 C   0  0  0  0  0  0  0  0  0  0  0  0
   47.2540   31.6420   46.5380 N   0  0  0  0  0  0  0  0  0  0  0  0
   46.6410   32.7940   46.9420 C   0  0  0  0  0  0  0  0  0  0  0  0
   45.9510   33.5380   46.0800 N   0  0  0  0  0  0  0  0  0  0  0  0
   44.2390   34.1380   41.3690 C   0  0  0  0  0  0  0  0  0  0  0  0
   42.9990   33.2880   41.5780 C   0  0  0  0  0  0  0  0  0  0  0  0
   44.8160   33.8250   40.0040 C   0  0  0  0  0  0  0  0  0  0  0  0
   43.7660   35.5680   41.3000 C   0  0  0  0  0  0  0  0  0  0  0  0
   44.2026   34.0508   44.5045 H   0  0  0  0  0  0  0  0  0  0  0  0
   45.4845   36.0480   42.8415 H   0  0  0  0  0  0  0  0  0  0  0  0
   46.9002   35.4584   43.0758 H   0  0  0  0  0  0  0  0  0  0  0  0
   45.5780   32.9932   41.8218 H   0  0  0  0  0  0  0  0  0  0  0  0
   46.3904   31.6625   43.2763 H   0  0  0  0  0  0  0  0  0  0  0  0
   47.6844   30.2818   44.9382 H   0  0  0  0  0  0  0  0  0  0  0  0
   46.7184   33.1109   47.9925 H   0  0  0  0  0  0  0  0  0  0  0  0
   42.8172   33.1634   42.6557 H   0  0  0  0  0  0  0  0  0  0  0  0
   42.1327   33.7831   41.1149 H   0  0  0  0  0  0  0  0  0  0  0  0
   43.1484   32.3015   41.1149 H   0  0  0  0  0  0  0  0  0  0  0  0
   45.7772   33.3036   40.1230 H   0  0  0  0  0  0  0  0  0  0  0  0
   44.1167   33.1826   39.4488 H   0  0  0  0  0  0  0  0  0  0  0  0
   44.9732   34.7615   39.4488 H   0  0  0  0  0  0  0  0  0  0  0  0
   43.6361   35.9608   42.3192 H   0  0  0  0  0  0  0  0  0  0  0  0
   44.5111   36.1753   40.7652 H   0  0  0  0  0  0  0  0  0  0  0  0
   42.8057   35.6112   40.7652 H   0  0  0  0  0  0  0  0  0  0  0  0
  1  4  1  0
  2  1  1  0
  3  2  1  0
  3  1  1  0
  4  9  1  0
  5  4  2  0
  5  6  1  0
  6  7  2  0
  7  8  1  0
  9  8  2  0
 10 11  1  0
 10  3  1  0
 12 10  1  0
 13 10  1  0
  1 14  1  6
  2 15  1  0
  2 16  1  0
  3 17  1  1
  5 18  1  0
  6 19  1  0
  8 20  1  0
 11 21  1  0
 11 22  1  0
 11 23  1  0
 12 24  1  0
 12 25  1  0
 12 26  1  0
 13 27  1  0
 13 28  1  0
 13 29  1  0
M  ISO  8  14  13  15  13  16  13  17  13  18  14  19  14  20  14  21   8
M  ISO  8  22   8  23   8  24   8  25   8  26   8  27   8  28   8  29   8
M  END
>  <minimizedAffinity>  (1) 
-3.30693984

>  <minimizedRMSD>  (1) 
1.81839716

$$$$
