
     RDKit          3D

 19 20  0  0  1  0  0  0  0  0999 V2000
   44.7320   34.6530   43.1100 C   0  0  1  0  0  0  0  0  0  0  0  0
   45.1380   36.1090   43.2010 C   0  0  0  0  0  0  0  0  0  0  0  0
   45.6810   35.2280   42.1490 C   0  0  1  0  0  0  0  0  0  0  0  0
   45.2250   33.7180   44.1790 C   0  0  0  0  0  0  0  0  0  0  0  0
   45.5210   32.3730   43.8240 C   0  0  0  0  0  0  0  0  0  0  0  0
   45.9900   31.5410   44.8260 C   0  0  0  0  0  0  0  0  0  0  0  0
   46.1370   32.0510   46.0630 N   0  0  0  0  0  0  0  0  0  0  0  0
   45.8480   33.3360   46.3750 C   0  0  0  0  0  0  0  0  0  0  0  0
   45.3950   34.1660   45.4360 N   0  0  0  0  0  0  0  0  0  0  0  0
   47.1480   34.9840   42.2730 C   0  0  0  0  0  0  0  0  0  0  0  0
   47.1140   34.6000   41.1110 O   0  0  0  0  0  0  0  0  0  0  0  0
   43.7871   34.0969   43.0214 H   0  0  0  0  0  0  0  0  0  0  0  0
   44.4195   36.9010   42.9431 H   0  0  0  0  0  0  0  0  0  0  0  0
   45.5658   36.7573   43.9799 H   0  0  0  0  0  0  0  0  0  0  0  0
   45.7048   35.1963   41.0497 H   0  0  0  0  0  0  0  0  0  0  0  0
   45.3829   32.0088   42.7953 H   0  0  0  0  0  0  0  0  0  0  0  0
   46.2364   30.4896   44.6166 H   0  0  0  0  0  0  0  0  0  0  0  0
   45.9873   33.6957   47.4052 H   0  0  0  0  0  0  0  0  0  0  0  0
   47.9135   35.0977   43.0547 H   0  0  0  0  0  0  0  0  0  0  0  0
  1  2  1  0
  1  4  1  0
  3 10  1  0
  3  1  1  0
  3  2  1  0
  4  9  1  0
  5  4  2  0
  5  6  1  0
  6  7  2  0
  7  8  1  0
  9  8  2  0
 11 10  2  0
  1 12  1  6
  2 13  1  0
  2 14  1  0
  3 15  1  6
  5 16  1  0
  6 17  1  0
  8 18  1  0
 10 19  1  0
M  ISO  8  12  13  13  13  14  13  15  13  16  14  17  14  18  14  19   6
M  END
>  <minimizedAffinity>  (1) 
-3.2293911

>  <minimizedRMSD>  (1) 
1.1173588

$$$$
