
     RDKit          3D

 20 21  0  0  1  0  0  0  0  0999 V2000
   45.6370   33.5160   44.4230 C   0  0  0  0  0  0  0  0  0  0  0  0
   46.2630   32.3310   43.9480 C   0  0  0  0  0  0  0  0  0  0  0  0
   46.9630   31.5330   44.8630 C   0  0  0  0  0  0  0  0  0  0  0  0
   47.0080   31.9370   46.1670 N   0  0  0  0  0  0  0  0  0  0  0  0
   46.3900   33.0850   46.5710 C   0  0  0  0  0  0  0  0  0  0  0  0
   45.7110   33.8650   45.7010 N   0  0  0  0  0  0  0  0  0  0  0  0
   44.9150   34.3320   43.4230 C   0  0  1  0  0  0  0  0  0  0  0  0
   45.0430   35.8380   43.4930 C   0  0  0  0  0  0  0  0  0  0  0  0
   45.6190   35.0740   42.3720 C   0  0  1  0  0  0  0  0  0  0  0  0
   47.1180   35.1140   42.2810 C   0  0  0  0  0  0  0  0  0  0  0  0
   46.1993   32.0472   42.8871 H   0  0  0  0  0  0  0  0  0  0  0  0
   47.4621   30.6074   44.5402 H   0  0  0  0  0  0  0  0  0  0  0  0
   46.4459   33.3820   47.6287 H   0  0  0  0  0  0  0  0  0  0  0  0
   44.0981   33.5953   43.4185 H   0  0  0  0  0  0  0  0  0  0  0  0
   44.1616   36.4763   43.3326 H   0  0  0  0  0  0  0  0  0  0  0  0
   45.4258   36.5597   44.2296 H   0  0  0  0  0  0  0  0  0  0  0  0
   45.5209   35.0438   41.2768 H   0  0  0  0  0  0  0  0  0  0  0  0
   47.5467   35.1254   43.2940 H   0  0  0  0  0  0  0  0  0  0  0  0
   47.4764   34.2251   41.7412 H   0  0  0  0  0  0  0  0  0  0  0  0
   47.4285   36.0208   41.7412 H   0  0  0  0  0  0  0  0  0  0  0  0
  1  6  1  0
  2  1  2  0
  2  3  1  0
  3  4  2  0
  4  5  1  0
  6  5  2  0
  7  8  1  0
  7  1  1  0
  9  7  1  0
  9  8  1  0
 10  9  1  0
  2 11  1  0
  3 12  1  0
  5 13  1  0
  7 14  1  6
  8 15  1  0
  8 16  1  0
  9 17  1  6
 10 18  1  0
 10 19  1  0
 10 20  1  0
M  ISO  8  11  14  12  14  13  14  14  13  15  13  16  13  17  13  18   8
M  ISO  2  19   8  20   8
M  END
>  <minimizedAffinity>  (1) 
-3.15103793

>  <minimizedRMSD>  (1) 
0.852849066

$$$$
