
     RDKit          3D

 42 43  0  0  1  0  0  0  0  0999 V2000
   46.5530   34.9590   41.5920 N   0  0  0  0  0  0  0  0  0  0  0  0
   45.5480   34.2420   41.0270 C   0  0  0  0  0  0  0  0  0  0  0  0
   45.9570   33.0170   40.2290 C   0  0  0  0  0  0  0  0  0  0  0  0
   47.2930   32.4550   40.4640 C   0  0  0  0  0  0  0  0  0  0  0  0
   48.1710   33.2900   41.3370 C   0  0  0  0  0  0  0  0  0  0  0  0
   47.8480   34.7290   41.1010 C   0  0  2  0  0  0  0  0  0  0  0  0
   46.4900   35.0530   42.9790 C   0  0  0  0  0  0  0  0  0  0  0  0
   45.2480   34.6170   43.6080 C   0  0  1  0  0  0  0  0  0  0  0  0
   45.5050   33.8310   46.0160 C   0  0  0  0  0  0  0  0  0  0  0  0
   45.5280   33.5930   44.6150 C   0  0  0  0  0  0  0  0  0  0  0  0
   45.8290   32.2960   44.1690 C   0  0  0  0  0  0  0  0  0  0  0  0
   46.0810   31.3390   45.0810 N   0  0  0  0  0  0  0  0  0  0  0  0
   46.0520   31.5960   46.4120 C   0  0  0  0  0  0  0  0  0  0  0  0
   45.7580   32.8660   46.8900 N   0  0  0  0  0  0  0  0  0  0  0  0
   44.5280   35.7890   44.2130 C   0  0  0  0  0  0  0  0  0  0  0  0
   44.8380   37.0360   43.5050 N   0  0  0  0  0  0  0  0  0  0  0  0
   48.8970   35.5380   41.7690 C   0  0  0  0  0  0  0  0  0  0  0  0
   49.9800   34.7490   42.4260 C   0  0  0  0  0  0  0  0  0  0  0  0
   44.8808   33.9073   41.8350 H   0  0  0  0  0  0  0  0  0  0  0  0
   45.0788   34.9207   40.2995 H   0  0  0  0  0  0  0  0  0  0  0  0
   45.8981   33.2859   39.1640 H   0  0  0  0  0  0  0  0  0  0  0  0
   45.2654   32.2291   40.5619 H   0  0  0  0  0  0  0  0  0  0  0  0
   47.1728   31.4702   40.9390 H   0  0  0  0  0  0  0  0  0  0  0  0
   47.7871   32.4016   39.4827 H   0  0  0  0  0  0  0  0  0  0  0  0
   47.9912   33.0382   42.3926 H   0  0  0  0  0  0  0  0  0  0  0  0
   49.2279   33.0984   41.0999 H   0  0  0  0  0  0  0  0  0  0  0  0
   47.8470   35.0113   40.0378 H   0  0  0  0  0  0  0  0  0  0  0  0
   47.3058   34.4416   43.3922 H   0  0  0  0  0  0  0  0  0  0  0  0
   46.5651   36.1279   43.2003 H   0  0  0  0  0  0  0  0  0  0  0  0
   44.5932   34.1767   42.8416 H   0  0  0  0  0  0  0  0  0  0  0  0
   45.2715   34.8407   46.3847 H   0  0  0  0  0  0  0  0  0  0  0  0
   45.8583   32.0664   43.0936 H   0  0  0  0  0  0  0  0  0  0  0  0
   46.2648   30.7854   47.1245 H   0  0  0  0  0  0  0  0  0  0  0  0
   43.4442   35.6083   44.1604 H   0  0  0  0  0  0  0  0  0  0  0  0
   44.8579   35.8944   45.2571 H   0  0  0  0  0  0  0  0  0  0  0  0
   45.0236   37.7826   44.1898 H   0  0  0  0  0  0  0  0  0  0  0  0
   45.6702   36.8975   42.9140 H   0  0  0  0  0  0  0  0  0  0  0  0
   49.3599   36.1883   41.0121 H   0  0  0  0  0  0  0  0  0  0  0  0
   48.3912   36.0937   42.5724 H   0  0  0  0  0  0  0  0  0  0  0  0
   49.8771   34.8240   43.5186 H   0  0  0  0  0  0  0  0  0  0  0  0
   49.9017   33.6948   42.1218 H   0  0  0  0  0  0  0  0  0  0  0  0
   50.9595   35.1466   42.1218 H   0  0  0  0  0  0  0  0  0  0  0  0
  1  7  1  0
  2  1  1  0
  3  4  1  0
  3  2  1  0
  4  5  1  0
  6  5  1  0
  6  1  1  0
  6 17  1  0
  7  8  1  0
  8 15  1  0
  8 10  1  0
  9 14  2  0
 10  9  1  0
 11 10  2  0
 11 12  1  0
 12 13  2  0
 13 14  1  0
 16 15  1  0
 17 18  1  0
  2 19  1  0
  2 20  1  0
  3 21  1  0
  3 22  1  0
  4 23  1  0
  4 24  1  0
  5 25  1  0
  5 26  1  0
  6 27  1  6
  7 28  1  0
  7 29  1  0
  8 30  1  6
  9 31  1  0
 11 32  1  0
 13 33  1  0
 15 34  1  0
 15 35  1  0
 16 36  1  0
 16 37  1  0
 17 38  1  0
 17 39  1  0
 18 40  1  0
 18 41  1  0
 18 42  1  0
M  ISO  8  19  13  20  13  21  13  22  13  23  13  24  13  25  13  26  13
M  ISO  8  27  13  28   8  29   8  30   8  31  14  32  14  33  14  34   8
M  ISO  8  35   8  36   5  37   5  38   8  39   8  40   8  41   8  42   8
M  END
>  <minimizedAffinity>  (1) 
-4.87096596

>  <minimizedRMSD>  (1) 
0.196447492

$$$$
