
     RDKit          3D

 31 33  0  0  1  0  0  0  0  0999 V2000
   49.0790   34.1770   41.4410 C   0  0  1  0  0  0  0  0  0  0  0  0
   48.7800   35.6060   41.7300 C   0  0  0  0  0  0  0  0  0  0  0  0
   48.4960   34.5700   42.7460 C   0  0  1  0  0  0  0  0  0  0  0  0
   48.2800   33.4150   40.4570 C   0  0  0  0  0  0  0  0  0  0  0  0
   48.2480   32.0100   40.5650 C   0  0  0  0  0  0  0  0  0  0  0  0
   47.5320   31.2750   39.6450 C   0  0  0  0  0  0  0  0  0  0  0  0
   46.8870   31.9470   38.6720 N   0  0  0  0  0  0  0  0  0  0  0  0
   46.9270   33.2930   38.5850 C   0  0  0  0  0  0  0  0  0  0  0  0
   47.6210   34.0190   39.4730 N   0  0  0  0  0  0  0  0  0  0  0  0
   46.7610   34.1750   43.0060 S   0  0  0  0  0  0  0  0  0  0  0  0
   46.4160   31.9370   46.9310 C   0  0  0  0  0  0  0  0  0  0  0  0
   45.6820   33.0830   46.8300 C   0  0  0  0  0  0  0  0  0  0  0  0
   45.7050   33.8170   45.6650 C   0  0  0  0  0  0  0  0  0  0  0  0
   46.4770   33.3890   44.5900 C   0  0  0  0  0  0  0  0  0  0  0  0
   47.2150   32.2030   44.7330 C   0  0  0  0  0  0  0  0  0  0  0  0
   47.1980   31.4620   45.8990 C   0  0  0  0  0  0  0  0  0  0  0  0
   46.3580   31.0640   48.4660 S   0  0  0  0  0  0  0  0  0  0  0  0
   47.7000   31.0640   49.1130 O   0  0  0  0  0  0  0  0  0  0  0  0
   45.4460   31.8400   49.3900 O   0  0  0  0  0  0  0  0  0  0  0  0
   49.9707   33.6189   41.1194 H   0  0  0  0  0  0  0  0  0  0  0  0
   49.6025   36.3194   41.8867 H   0  0  0  0  0  0  0  0  0  0  0  0
   48.1917   36.3932   41.2359 H   0  0  0  0  0  0  0  0  0  0  0  0
   48.7764   34.4104   43.7976 H   0  0  0  0  0  0  0  0  0  0  0  0
   48.7903   31.5041   41.3773 H   0  0  0  0  0  0  0  0  0  0  0  0
   47.4887   30.1774   39.7033 H   0  0  0  0  0  0  0  0  0  0  0  0
   46.3832   33.8011   37.7750 H   0  0  0  0  0  0  0  0  0  0  0  0
   45.0712   33.4209   47.6802 H   0  0  0  0  0  0  0  0  0  0  0  0
   45.1134   34.7409   45.5846 H   0  0  0  0  0  0  0  0  0  0  0  0
   47.8269   31.8523   43.8888 H   0  0  0  0  0  0  0  0  0  0  0  0
   47.7818   30.5351   45.9997 H   0  0  0  0  0  0  0  0  0  0  0  0
   45.9365   29.7800   48.2411 H   0  0  0  0  0  0  0  0  0  0  0  0
  1  2  1  0
  1  3  1  0
  2  3  1  0
  3 10  1  0
  4  5  2  0
  4  1  1  0
  6  5  1  0
  7  6  2  0
  8  7  1  0
  8  9  2  0
  9  4  1  0
 10 14  1  0
 11 17  1  0
 12 11  2  0
 13 12  1  0
 14 15  1  0
 14 13  2  0
 15 16  2  0
 16 11  1  0
 17 18  2  0
 17 19  2  0
  1 20  1  1
  2 21  1  0
  2 22  1  0
  3 23  1  1
  5 24  1  0
  6 25  1  0
  8 26  1  0
 12 27  1  0
 13 28  1  0
 15 29  1  0
 16 30  1  0
 17 31  1  0
M  ISO  8  20  13  21  13  22  13  23  13  24  14  25  14  26  14  27  14
M  ISO  4  28  14  29  14  30  14  31  11
M  END
>  <minimizedAffinity>  (1) 
-4.57780266

>  <minimizedRMSD>  (1) 
7.33578539

$$$$
