
     RDKit          3D

 25 27  0  0  1  0  0  0  0  0999 V2000
   45.7200   35.6230   43.1560 C   0  0  1  0  0  0  0  0  0  0  0  0
   44.2830   35.2830   43.3600 C   0  0  0  0  0  0  0  0  0  0  0  0
   45.2800   34.7900   44.3020 C   0  0  1  0  0  0  0  0  0  0  0  0
   46.4760   35.0120   42.0250 C   0  0  0  0  0  0  0  0  0  0  0  0
   47.8810   35.1690   42.0120 C   0  0  0  0  0  0  0  0  0  0  0  0
   48.5770   34.6070   40.9690 C   0  0  0  0  0  0  0  0  0  0  0  0
   47.9070   33.9310   39.9990 N   0  0  0  0  0  0  0  0  0  0  0  0
   46.5740   33.8010   40.0410 C   0  0  0  0  0  0  0  0  0  0  0  0
   45.8570   34.3390   41.0490 N   0  0  0  0  0  0  0  0  0  0  0  0
   45.6710   33.0330   44.2190 S   0  0  0  0  0  0  0  0  0  0  0  0
   46.2120   32.4830   45.8400 C   0  0  0  0  0  0  0  0  0  0  0  0
   45.9710   31.2650   46.4690 C   0  0  0  0  0  0  0  0  0  0  0  0
   46.5800   31.3250   47.6720 N   0  0  0  0  0  0  0  0  0  0  0  0
   47.1720   32.5450   47.7660 C   0  0  0  0  0  0  0  0  0  0  0  0
   46.9450   33.2450   46.6500 N   0  0  0  0  0  0  0  0  0  0  0  0
   46.3020   36.5491   43.0394 H   0  0  0  0  0  0  0  0  0  0  0  0
   43.5730   36.0636   43.6707 H   0  0  0  0  0  0  0  0  0  0  0  0
   43.5016   34.8157   42.7428 H   0  0  0  0  0  0  0  0  0  0  0  0
   45.4070   34.8461   45.3932 H   0  0  0  0  0  0  0  0  0  0  0  0
   48.3991   35.7220   42.8093 H   0  0  0  0  0  0  0  0  0  0  0  0
   49.6716   34.7039   40.9194 H   0  0  0  0  0  0  0  0  0  0  0  0
   46.0574   33.2481   39.2426 H   0  0  0  0  0  0  0  0  0  0  0  0
   45.3964   30.4187   46.0646 H   0  0  0  0  0  0  0  0  0  0  0  0
   47.7508   32.9025   48.6304 H   0  0  0  0  0  0  0  0  0  0  0  0
   47.2766   34.1999   46.4524 H   0  0  0  0  0  0  0  0  0  0  0  0
  1  2  1  0
  1  3  1  0
  2  3  1  0
  4  1  1  0
  5  4  2  0
  6  5  1  0
  7  8  1  0
  7  6  2  0
  8  9  2  0
  9  4  1  0
 10  3  1  0
 10 11  1  0
 11 12  2  0
 11 15  1  0
 12 13  1  0
 13 14  2  0
 15 14  1  0
  1 16  1  1
  2 17  1  0
  2 18  1  0
  3 19  1  1
  5 20  1  0
  6 21  1  0
  8 22  1  0
 12 23  1  0
 14 24  1  0
 15 25  1  0
M  ISO  8  16  13  17  13  18  13  19  13  20  14  21  14  22  14  23  14
M  ISO  2  24  14  25   9
M  END
>  <minimizedAffinity>  (1) 
-4.46781158

>  <minimizedRMSD>  (1) 
5.99649763

$$$$
