
     RDKit          3D

 21 22  0  0  1  0  0  0  0  0999 V2000
   44.9560   34.4530   43.0690 C   0  0  1  0  0  0  0  0  0  0  0  0
   45.2190   35.9180   43.0780 C   0  0  0  0  0  0  0  0  0  0  0  0
   46.0100   35.0480   42.2110 C   0  0  1  0  0  0  0  0  0  0  0  0
   45.3170   33.6030   44.2350 C   0  0  0  0  0  0  0  0  0  0  0  0
   45.6250   32.2390   44.0170 C   0  0  0  0  0  0  0  0  0  0  0  0
   45.9800   31.4440   45.0820 C   0  0  0  0  0  0  0  0  0  0  0  0
   46.0170   32.0130   46.3130 N   0  0  0  0  0  0  0  0  0  0  0  0
   45.7190   33.3120   46.5000 C   0  0  0  0  0  0  0  0  0  0  0  0
   45.3710   34.1070   45.4590 N   0  0  0  0  0  0  0  0  0  0  0  0
   47.7160   34.7650   42.6960 S   0  0  0  0  0  0  0  0  0  0  0  0
   48.9280   35.4320   41.5450 C   0  0  0  0  0  0  0  0  0  0  0  0
   48.5010   35.2530   40.2310 F   0  0  0  0  0  0  0  0  0  0  0  0
   49.2320   36.7490   41.8240 F   0  0  0  0  0  0  0  0  0  0  0  0
   50.0900   34.6970   41.6830 F   0  0  0  0  0  0  0  0  0  0  0  0
   44.0736   33.8174   42.9037 H   0  0  0  0  0  0  0  0  0  0  0  0
   44.4853   36.6101   42.6390 H   0  0  0  0  0  0  0  0  0  0  0  0
   45.4546   36.6588   43.8562 H   0  0  0  0  0  0  0  0  0  0  0  0
   46.2354   35.0205   41.1347 H   0  0  0  0  0  0  0  0  0  0  0  0
   45.5808   31.8171   43.0021 H   0  0  0  0  0  0  0  0  0  0  0  0
   46.2259   30.3813   44.9401 H   0  0  0  0  0  0  0  0  0  0  0  0
   45.7585   33.7355   47.5145 H   0  0  0  0  0  0  0  0  0  0  0  0
  1  2  1  0
  1  4  1  0
  3 10  1  0
  3  1  1  0
  3  2  1  0
  4  9  1  0
  5  4  2  0
  5  6  1  0
  6  7  2  0
  7  8  1  0
  9  8  2  0
 11 14  1  0
 11 13  1  0
 11 10  1  0
 12 11  1  0
  1 15  1  6
  2 16  1  0
  2 17  1  0
  3 18  1  6
  5 19  1  0
  6 20  1  0
  8 21  1  0
M  ISO  7  15  13  16  13  17  13  18  13  19  14  20  14  21  14
M  END
>  <minimizedAffinity>  (1) 
-4.35710239

>  <minimizedRMSD>  (1) 
0.941081941

$$$$
