
     RDKit          3D

 26 28  0  0  1  0  0  0  0  0999 V2000
   45.6200   35.0390   43.4330 C   0  0  1  0  0  0  0  0  0  0  0  0
   45.1660   36.4500   43.5870 C   0  0  0  0  0  0  0  0  0  0  0  0
   44.2270   35.4390   43.1140 C   0  0  1  0  0  0  0  0  0  0  0  0
   46.5740   34.6850   42.3410 C   0  0  0  0  0  0  0  0  0  0  0  0
   46.3180   33.4990   41.6230 C   0  0  0  0  0  0  0  0  0  0  0  0
   47.1810   33.1380   40.6140 C   0  0  0  0  0  0  0  0  0  0  0  0
   48.2400   33.9320   40.3510 N   0  0  0  0  0  0  0  0  0  0  0  0
   48.4670   35.0670   41.0550 C   0  0  0  0  0  0  0  0  0  0  0  0
   47.6370   35.4420   42.0460 N   0  0  0  0  0  0  0  0  0  0  0  0
   43.7870   35.4990   41.3690 S   0  0  0  0  0  0  0  0  0  0  0  0
   42.1140   34.9600   41.0580 C   0  0  0  0  0  0  0  0  0  0  0  0
   41.9080   33.5800   40.9950 C   0  0  0  0  0  0  0  0  0  0  0  0
   40.6000   33.1600   40.7520 C   0  0  0  0  0  0  0  0  0  0  0  0
   39.5800   34.0280   40.5870 N   0  0  0  0  0  0  0  0  0  0  0  0
   39.8220   35.3690   40.6560 C   0  0  0  0  0  0  0  0  0  0  0  0
   41.0780   35.8010   40.8890 N   0  0  0  0  0  0  0  0  0  0  0  0
   46.0859   34.2839   44.0832 H   0  0  0  0  0  0  0  0  0  0  0  0
   45.0475   36.8819   44.5917 H   0  0  0  0  0  0  0  0  0  0  0  0
   45.5143   37.4223   43.2084 H   0  0  0  0  0  0  0  0  0  0  0  0
   43.2310   35.0989   43.4340 H   0  0  0  0  0  0  0  0  0  0  0  0
   45.4454   32.8744   41.8647 H   0  0  0  0  0  0  0  0  0  0  0  0
   47.0110   32.2197   40.0328 H   0  0  0  0  0  0  0  0  0  0  0  0
   49.3408   35.6901   40.8136 H   0  0  0  0  0  0  0  0  0  0  0  0
   42.7319   32.8637   41.1296 H   0  0  0  0  0  0  0  0  0  0  0  0
   40.3924   32.0814   40.6927 H   0  0  0  0  0  0  0  0  0  0  0  0
   39.0017   36.0897   40.5230 H   0  0  0  0  0  0  0  0  0  0  0  0
  1  2  1  0
  3  1  1  0
  3  2  1  0
  4  1  1  0
  5  4  2  0
  6  5  1  0
  7  6  2  0
  7  8  1  0
  8  9  2  0
  9  4  1  0
 10  3  1  0
 11 10  1  0
 12 11  2  0
 13 12  1  0
 14 15  1  0
 14 13  2  0
 15 16  2  0
 16 11  1  0
  1 17  1  1
  2 18  1  0
  2 19  1  0
  3 20  1  1
  5 21  1  0
  6 22  1  0
  8 23  1  0
 12 24  1  0
 13 25  1  0
 15 26  1  0
M  ISO  8  17  13  18  13  19  13  20  13  21  14  22  14  23  14  24  14
M  ISO  2  25  14  26  14
M  END
>  <minimizedAffinity>  (1) 
-4.21468592

>  <minimizedRMSD>  (1) 
5.95757008

$$$$
