
     RDKit          3D

 26 28  0  0  1  0  0  0  0  0999 V2000
   44.6440   34.7110   43.6530 C   0  0  1  0  0  0  0  0  0  0  0  0
   45.0120   36.1460   43.8200 C   0  0  0  0  0  0  0  0  0  0  0  0
   45.3540   35.4440   42.5840 C   0  0  1  0  0  0  0  0  0  0  0  0
   45.3210   33.6640   44.4420 C   0  0  0  0  0  0  0  0  0  0  0  0
   45.4530   32.3750   43.8940 C   0  0  0  0  0  0  0  0  0  0  0  0
   46.0690   31.3780   44.6310 C   0  0  0  0  0  0  0  0  0  0  0  0
   46.5240   31.6840   45.8560 N   0  0  0  0  0  0  0  0  0  0  0  0
   46.3910   32.9340   46.3760 C   0  0  0  0  0  0  0  0  0  0  0  0
   45.7970   33.8990   45.6680 N   0  0  0  0  0  0  0  0  0  0  0  0
   47.1150   35.0380   42.3680 S   0  0  0  0  0  0  0  0  0  0  0  0
   47.2580   34.4510   40.6590 C   0  0  0  0  0  0  0  0  0  0  0  0
   48.2860   34.6680   39.7640 C   0  0  0  0  0  0  0  0  0  0  0  0
   48.1510   34.0650   38.5430 C   0  0  0  0  0  0  0  0  0  0  0  0
   47.1080   33.3020   38.1880 N   0  0  0  0  0  0  0  0  0  0  0  0
   46.1190   33.1060   39.0780 C   0  0  0  0  0  0  0  0  0  0  0  0
   46.1960   33.6810   40.3110 N   0  0  0  0  0  0  0  0  0  0  0  0
   43.7153   34.1246   43.7130 H   0  0  0  0  0  0  0  0  0  0  0  0
   44.2290   36.9186   43.8149 H   0  0  0  0  0  0  0  0  0  0  0  0
   45.5759   36.7220   44.5685 H   0  0  0  0  0  0  0  0  0  0  0  0
   45.1672   35.6202   41.5144 H   0  0  0  0  0  0  0  0  0  0  0  0
   45.0690   32.1606   42.8858 H   0  0  0  0  0  0  0  0  0  0  0  0
   46.1825   30.3625   44.2236 H   0  0  0  0  0  0  0  0  0  0  0  0
   46.7742   33.1513   47.3839 H   0  0  0  0  0  0  0  0  0  0  0  0
   49.1595   35.2871   40.0164 H   0  0  0  0  0  0  0  0  0  0  0  0
   48.9516   34.2166   37.8040 H   0  0  0  0  0  0  0  0  0  0  0  0
   45.2516   32.4842   38.8118 H   0  0  0  0  0  0  0  0  0  0  0  0
  1  2  1  0
  1  4  1  0
  3  1  1  0
  3  2  1  0
  4  9  1  0
  5  4  2  0
  5  6  1  0
  6  7  2  0
  7  8  1  0
  9  8  2  0
 10  3  1  0
 11 10  1  0
 12 11  2  0
 13 12  1  0
 14 13  2  0
 14 15  1  0
 15 16  2  0
 16 11  1  0
  1 17  1  6
  2 18  1  0
  2 19  1  0
  3 20  1  6
  5 21  1  0
  6 22  1  0
  8 23  1  0
 12 24  1  0
 13 25  1  0
 15 26  1  0
M  ISO  8  17  13  18  13  19  13  20  13  21  14  22  14  23  14  24  14
M  ISO  2  25  14  26  14
M  END
>  <minimizedAffinity>  (1) 
-4.06448221

>  <minimizedRMSD>  (1) 
0.665914774

$$$$
