
     RDKit          3D

 24 25  0  0  1  0  0  0  0  0999 V2000
   45.1520   34.5790   41.1350 C   0  0  1  0  0  0  0  0  0  0  0  0
   44.9970   33.2400   40.4630 C   0  0  0  0  0  0  0  0  0  0  0  0
   43.9610   34.2700   40.3330 C   0  0  1  0  0  0  0  0  0  0  0  0
   45.1110   34.6430   42.6130 C   0  0  0  0  0  0  0  0  0  0  0  0
   44.7090   35.8780   43.1910 C   0  0  0  0  0  0  0  0  0  0  0  0
   44.6310   35.9980   44.5700 C   0  0  0  0  0  0  0  0  0  0  0  0
   44.9610   34.9160   45.3040 N   0  0  0  0  0  0  0  0  0  0  0  0
   45.3400   33.7540   44.7360 C   0  0  0  0  0  0  0  0  0  0  0  0
   45.4300   33.6250   43.3980 N   0  0  0  0  0  0  0  0  0  0  0  0
   42.4410   33.9460   41.2660 S   0  0  0  0  0  0  0  0  0  0  0  0
   41.4640   35.4460   41.5190 C   0  0  0  0  0  0  0  0  0  0  0  0
   40.3760   35.4550   40.4550 C   0  0  0  0  0  0  0  0  0  0  0  0
   45.8840   35.4001   41.1300 H   0  0  0  0  0  0  0  0  0  0  0  0
   45.6274   32.9789   39.6002 H   0  0  0  0  0  0  0  0  0  0  0  0
   45.0205   32.1911   40.7937 H   0  0  0  0  0  0  0  0  0  0  0  0
   43.4612   34.7638   39.4866 H   0  0  0  0  0  0  0  0  0  0  0  0
   44.4609   36.7346   42.5470 H   0  0  0  0  0  0  0  0  0  0  0  0
   44.3130   36.9374   45.0459 H   0  0  0  0  0  0  0  0  0  0  0  0
   45.5807   32.8937   45.3778 H   0  0  0  0  0  0  0  0  0  0  0  0
   41.0115   35.4371   42.5216 H   0  0  0  0  0  0  0  0  0  0  0  0
   42.0958   36.3430   41.4410 H   0  0  0  0  0  0  0  0  0  0  0  0
   39.3888   35.4632   40.9401 H   0  0  0  0  0  0  0  0  0  0  0  0
   40.4838   36.3523   39.8279 H   0  0  0  0  0  0  0  0  0  0  0  0
   40.4690   34.5561   39.8279 H   0  0  0  0  0  0  0  0  0  0  0  0
  1  4  1  0
  2  1  1  0
  3  2  1  0
  3  1  1  0
  3 10  1  0
  4  5  2  0
  4  9  1  0
  5  6  1  0
  6  7  2  0
  8  7  1  0
  9  8  2  0
 10 11  1  0
 12 11  1  0
  1 13  1  6
  2 14  1  0
  2 15  1  0
  3 16  1  6
  5 17  1  0
  6 18  1  0
  8 19  1  0
 11 20  1  0
 11 21  1  0
 12 22  1  0
 12 23  1  0
 12 24  1  0
M  ISO  8  13  13  14  13  15  13  16  13  17  14  18  14  19  14  20   8
M  ISO  4  21   8  22   8  23   8  24   8
M  END
>  <minimizedAffinity>  (1) 
-3.53424168

>  <minimizedRMSD>  (1) 
4.53337002

$$$$
