
     RDKit          3D

 21 22  0  0  1  0  0  0  0  0999 V2000
   44.9300   34.4520   43.1240 C   0  0  1  0  0  0  0  0  0  0  0  0
   45.2750   35.9070   43.1280 C   0  0  0  0  0  0  0  0  0  0  0  0
   45.9280   35.0100   42.1750 C   0  0  1  0  0  0  0  0  0  0  0  0
   45.3500   33.5690   44.2250 C   0  0  0  0  0  0  0  0  0  0  0  0
   45.6150   32.2040   43.9500 C   0  0  0  0  0  0  0  0  0  0  0  0
   46.0030   31.3770   44.9740 C   0  0  0  0  0  0  0  0  0  0  0  0
   46.1210   31.8970   46.2180 N   0  0  0  0  0  0  0  0  0  0  0  0
   45.8640   33.2090   46.4710 C   0  0  0  0  0  0  0  0  0  0  0  0
   45.4800   34.0310   45.4670 N   0  0  0  0  0  0  0  0  0  0  0  0
   47.6530   34.6160   42.4980 S   0  0  0  0  0  0  0  0  0  0  0  0
   48.7950   35.5910   41.5350 C   0  0  0  0  0  0  0  0  0  0  0  0
   44.0025   33.8671   43.0367 H   0  0  0  0  0  0  0  0  0  0  0  0
   44.5419   36.6462   42.7728 H   0  0  0  0  0  0  0  0  0  0  0  0
   45.6261   36.6192   43.8892 H   0  0  0  0  0  0  0  0  0  0  0  0
   46.0463   34.9961   41.0815 H   0  0  0  0  0  0  0  0  0  0  0  0
   45.5108   31.8121   42.9275 H   0  0  0  0  0  0  0  0  0  0  0  0
   46.2137   30.3136   44.7877 H   0  0  0  0  0  0  0  0  0  0  0  0
   45.9685   33.6020   47.4931 H   0  0  0  0  0  0  0  0  0  0  0  0
   49.4555   36.1549   42.2101 H   0  0  0  0  0  0  0  0  0  0  0  0
   49.4000   34.9266   40.9006 H   0  0  0  0  0  0  0  0  0  0  0  0
   48.2337   36.2927   40.9006 H   0  0  0  0  0  0  0  0  0  0  0  0
  1  2  1  0
  1  4  1  0
  3 10  1  0
  3  1  1  0
  3  2  1  0
  4  9  1  0
  5  4  2  0
  5  6  1  0
  6  7  2  0
  7  8  1  0
  9  8  2  0
 11 10  1  0
  1 12  1  6
  2 13  1  0
  2 14  1  0
  3 15  1  6
  5 16  1  0
  6 17  1  0
  8 18  1  0
 11 19  1  0
 11 20  1  0
 11 21  1  0
M  ISO  8  12  13  13  13  14  13  15  13  16  14  17  14  18  14  19   8
M  ISO  2  20   8  21   8
M  END
>  <minimizedAffinity>  (1) 
-3.21877718

>  <minimizedRMSD>  (1) 
0.479329318

$$$$
