
     RDKit          3D

 27 28  0  0  1  0  0  0  0  0999 V2000
   45.0020   34.1430   43.4520 C   0  0  1  0  0  0  0  0  0  0  0  0
   45.3410   35.6120   43.4800 C   0  0  0  0  0  0  0  0  0  0  0  0
   45.9450   34.7160   42.4840 C   0  0  1  0  0  0  0  0  0  0  0  0
   45.4450   33.2910   44.5800 C   0  0  0  0  0  0  0  0  0  0  0  0
   45.7040   31.9260   44.2870 C   0  0  0  0  0  0  0  0  0  0  0  0
   46.1460   31.0770   45.2870 C   0  0  0  0  0  0  0  0  0  0  0  0
   46.2950   31.6020   46.5200 N   0  0  0  0  0  0  0  0  0  0  0  0
   46.0550   32.9030   46.7780 C   0  0  0  0  0  0  0  0  0  0  0  0
   45.6200   33.7400   45.8150 N   0  0  0  0  0  0  0  0  0  0  0  0
   47.6960   34.3550   42.7800 S   0  0  0  0  0  0  0  0  0  0  0  0
   48.7610   34.8280   41.4230 C   0  0  0  0  0  0  0  0  0  0  0  0
   48.1330   34.5960   40.0610 C   0  0  0  0  0  0  0  0  0  0  0  0
   49.2680   36.2390   41.5050 C   0  0  0  0  0  0  0  0  0  0  0  0
   44.0944   33.5286   43.3582 H   0  0  0  0  0  0  0  0  0  0  0  0
   44.5935   36.3576   43.1713 H   0  0  0  0  0  0  0  0  0  0  0  0
   45.7230   36.3135   44.2363 H   0  0  0  0  0  0  0  0  0  0  0  0
   46.0088   34.7013   41.3860 H   0  0  0  0  0  0  0  0  0  0  0  0
   45.5536   31.5437   43.2666 H   0  0  0  0  0  0  0  0  0  0  0  0
   46.3664   30.0185   45.0843 H   0  0  0  0  0  0  0  0  0  0  0  0
   46.2174   33.2896   47.7950 H   0  0  0  0  0  0  0  0  0  0  0  0
   49.6250   34.1559   41.5313 H   0  0  0  0  0  0  0  0  0  0  0  0
   47.1082   34.2174   40.1894 H   0  0  0  0  0  0  0  0  0  0  0  0
   48.1066   35.5437   39.5032 H   0  0  0  0  0  0  0  0  0  0  0  0
   48.7290   33.8587   39.5032 H   0  0  0  0  0  0  0  0  0  0  0  0
   49.3727   36.5302   42.5606 H   0  0  0  0  0  0  0  0  0  0  0  0
   50.2466   36.3065   41.0073 H   0  0  0  0  0  0  0  0  0  0  0  0
   48.5561   36.9139   41.0073 H   0  0  0  0  0  0  0  0  0  0  0  0
  1  2  1  0
  1  4  1  0
  3 10  1  0
  3  1  1  0
  3  2  1  0
  4  9  1  0
  5  4  2  0
  5  6  1  0
  6  7  2  0
  7  8  1  0
  9  8  2  0
 11 13  1  0
 11 10  1  0
 12 11  1  0
  1 14  1  6
  2 15  1  0
  2 16  1  0
  3 17  1  6
  5 18  1  0
  6 19  1  0
  8 20  1  0
 11 21  1  0
 12 22  1  0
 12 23  1  0
 12 24  1  0
 13 25  1  0
 13 26  1  0
 13 27  1  0
M  ISO  8  14  13  15  13  16  13  17  13  18  14  19  14  20  14  21   8
M  ISO  6  22   8  23   8  24   8  25   8  26   8  27   8
M  END
>  <minimizedAffinity>  (1) 
-3.84982991

>  <minimizedRMSD>  (1) 
0.977726161

$$$$
