
     RDKit          3D

 32 34  0  0  1  0  0  0  0  0999 V2000
   45.6430   35.0740   43.4690 C   0  0  1  0  0  0  0  0  0  0  0  0
   45.0940   36.4470   43.2830 C   0  0  0  0  0  0  0  0  0  0  0  0
   44.2800   35.2950   42.9250 C   0  0  1  0  0  0  0  0  0  0  0  0
   46.7390   34.5910   42.5770 C   0  0  0  0  0  0  0  0  0  0  0  0
   46.8580   33.1960   42.4200 C   0  0  0  0  0  0  0  0  0  0  0  0
   47.8560   32.6930   41.6190 C   0  0  0  0  0  0  0  0  0  0  0  0
   48.6840   33.5780   41.0130 N   0  0  0  0  0  0  0  0  0  0  0  0
   48.5490   34.9170   41.1790 C   0  0  0  0  0  0  0  0  0  0  0  0
   47.5850   35.4220   41.9560 N   0  0  0  0  0  0  0  0  0  0  0  0
   44.0460   34.9900   41.1720 S   0  0  0  0  0  0  0  0  0  0  0  0
   42.3320   34.7500   40.7130 C   0  0  1  0  0  0  0  0  0  0  0  0
   41.3650   35.5730   41.5320 C   0  0  0  0  0  0  0  0  0  0  0  0
   42.0690   34.9960   39.2440 C   0  0  0  0  0  0  0  0  0  0  0  0
   41.6910   33.7100   38.6010 C   0  0  0  0  0  0  0  0  0  0  0  0
   40.4870   33.2410   38.2150 N   0  0  0  0  0  0  0  0  0  0  0  0
   40.6410   32.0680   37.6990 O   0  0  0  0  0  0  0  0  0  0  0  0
   41.9090   31.7000   37.7120 C   0  0  0  0  0  0  0  0  0  0  0  0
   42.5550   32.7360   38.2790 N   0  0  0  0  0  0  0  0  0  0  0  0
   46.0679   34.5001   44.3057 H   0  0  0  0  0  0  0  0  0  0  0  0
   44.8284   37.0551   44.1603 H   0  0  0  0  0  0  0  0  0  0  0  0
   45.4312   37.3515   42.7556 H   0  0  0  0  0  0  0  0  0  0  0  0
   43.2742   34.9421   43.1969 H   0  0  0  0  0  0  0  0  0  0  0  0
   46.1605   32.5170   42.9323 H   0  0  0  0  0  0  0  0  0  0  0  0
   47.9780   31.6093   41.4751 H   0  0  0  0  0  0  0  0  0  0  0  0
   49.2436   35.5987   40.6663 H   0  0  0  0  0  0  0  0  0  0  0  0
   42.1509   33.6872   40.9314 H   0  0  0  0  0  0  0  0  0  0  0  0
   41.5584   35.4084   42.6023 H   0  0  0  0  0  0  0  0  0  0  0  0
   41.4984   36.6388   41.2950 H   0  0  0  0  0  0  0  0  0  0  0  0
   40.3342   35.2709   41.2950 H   0  0  0  0  0  0  0  0  0  0  0  0
   41.2486   35.7202   39.1319 H   0  0  0  0  0  0  0  0  0  0  0  0
   42.9734   35.4003   38.7659 H   0  0  0  0  0  0  0  0  0  0  0  0
   42.3406   30.7581   37.3424 H   0  0  0  0  0  0  0  0  0  0  0  0
  2  1  1  0
  3  2  1  0
  3  1  1  0
  4  1  1  0
  5  4  2  0
  6  5  1  0
  7  8  1  0
  7  6  2  0
  8  9  2  0
  9  4  1  0
 10  3  1  0
 11 10  1  0
 11 12  1  0
 13 11  1  0
 14 13  1  0
 15 14  2  0
 16 17  1  0
 16 15  1  0
 17 18  2  0
 18 14  1  0
  1 19  1  1
  2 20  1  0
  2 21  1  0
  3 22  1  1
  5 23  1  0
  6 24  1  0
  8 25  1  0
 11 26  1  6
 12 27  1  0
 12 28  1  0
 12 29  1  0
 13 30  1  0
 13 31  1  0
 17 32  1  0
M  ISO  8  19  13  20  13  21  13  22  13  23  14  24  14  25  14  26   8
M  ISO  6  27   8  28   8  29   8  30   8  31   8  32  14
M  END
>  <minimizedAffinity>  (1) 
-4.13926268

>  <minimizedRMSD>  (1) 
7.39162779

$$$$
