
     RDKit          3D

 28 29  0  0  1  0  0  0  0  0999 V2000
   45.6010   35.0460   43.3950 C   0  0  1  0  0  0  0  0  0  0  0  0
   45.1430   36.4620   43.3720 C   0  0  0  0  0  0  0  0  0  0  0  0
   44.2170   35.4030   42.9960 C   0  0  1  0  0  0  0  0  0  0  0  0
   46.5740   34.5570   42.3760 C   0  0  0  0  0  0  0  0  0  0  0  0
   46.4620   33.2110   41.9730 C   0  0  0  0  0  0  0  0  0  0  0  0
   47.3470   32.7220   41.0420 C   0  0  0  0  0  0  0  0  0  0  0  0
   48.2940   33.5620   40.5490 N   0  0  0  0  0  0  0  0  0  0  0  0
   48.3770   34.8530   40.9570 C   0  0  0  0  0  0  0  0  0  0  0  0
   47.5230   35.3490   41.8650 N   0  0  0  0  0  0  0  0  0  0  0  0
   43.8200   35.2820   41.2480 S   0  0  0  0  0  0  0  0  0  0  0  0
   42.3240   34.3530   40.9140 C   0  0  1  0  0  0  0  0  0  0  0  0
   42.4300   32.8860   41.2860 C   0  0  0  0  0  0  0  0  0  0  0  0
   41.1070   34.9330   41.6030 C   0  0  0  0  0  0  0  0  0  0  0  0
   40.2900   36.1190   40.5010 S   0  0  0  0  0  0  0  0  0  0  0  0
   46.0551   34.3787   44.1423 H   0  0  0  0  0  0  0  0  0  0  0  0
   44.9986   37.0073   44.3164 H   0  0  0  0  0  0  0  0  0  0  0  0
   45.5013   37.3845   42.8918 H   0  0  0  0  0  0  0  0  0  0  0  0
   43.2155   35.0913   43.3274 H   0  0  0  0  0  0  0  0  0  0  0  0
   45.6801   32.5633   42.3961 H   0  0  0  0  0  0  0  0  0  0  0  0
   47.2899   31.6766   40.7045 H   0  0  0  0  0  0  0  0  0  0  0  0
   49.1575   35.5040   40.5364 H   0  0  0  0  0  0  0  0  0  0  0  0
   42.2002   34.4336   39.8240 H   0  0  0  0  0  0  0  0  0  0  0  0
   42.4373   32.7851   42.3813 H   0  0  0  0  0  0  0  0  0  0  0  0
   41.5690   32.3399   40.8732 H   0  0  0  0  0  0  0  0  0  0  0  0
   43.3606   32.4694   40.8732 H   0  0  0  0  0  0  0  0  0  0  0  0
   40.4064   34.1223   41.8520 H   0  0  0  0  0  0  0  0  0  0  0  0
   41.4194   35.4464   42.5243 H   0  0  0  0  0  0  0  0  0  0  0  0
   39.6390   37.0641   41.2493 H   0  0  0  0  0  0  0  0  0  0  0  0
  2  1  1  0
  3  2  1  0
  3  1  1  0
  4  1  1  0
  5  4  2  0
  6  5  1  0
  7  8  1  0
  7  6  2  0
  8  9  2  0
  9  4  1  0
 10  3  1  0
 11 10  1  0
 11 12  1  0
 11 13  1  0
 14 13  1  0
  1 15  1  1
  2 16  1  0
  2 17  1  0
  3 18  1  1
  5 19  1  0
  6 20  1  0
  8 21  1  0
 11 22  1  6
 12 23  1  0
 12 24  1  0
 12 25  1  0
 13 26  1  0
 13 27  1  0
 14 28  1  0
M  ISO  8  15  13  16  13  17  13  18  13  19  14  20  14  21  14  22   8
M  ISO  6  23   8  24   8  25   8  26   8  27   8  28  11
M  END
>  <minimizedAffinity>  (1) 
-3.59294248

>  <minimizedRMSD>  (1) 
5.4904108

$$$$
