
     RDKit          3D

 54 56  0  0  1  0  0  0  0  0999 V2000
   48.3330   33.4910   43.2090 C   0  0  0  0  0  0  0  0  0  0  0  0
   48.7630   34.1980   42.1030 N   0  0  0  0  0  0  0  0  0  0  0  0
   47.7530   34.6840   41.3390 C   0  0  0  0  0  0  0  0  0  0  0  0
   47.6860   34.1950   39.9090 C   0  0  0  0  0  0  0  0  0  0  0  0
   48.4430   32.9930   39.5560 C   0  0  0  0  0  0  0  0  0  0  0  0
   49.3030   32.4390   40.6470 C   0  0  0  0  0  0  0  0  0  0  0  0
   49.8390   33.6040   41.4180 C   0  0  2  0  0  0  0  0  0  0  0  0
   50.9020   33.0770   42.3280 C   0  0  0  0  0  0  0  0  0  0  0  0
   51.1850   31.6110   42.1810 C   0  0  0  0  0  0  0  0  0  0  0  0
   46.9720   32.9650   43.1970 C   0  0  1  0  0  0  0  0  0  0  0  0
   47.8020   30.6030   43.6560 C   0  0  0  0  0  0  0  0  0  0  0  0
   46.9870   31.5250   42.9470 C   0  0  0  0  0  0  0  0  0  0  0  0
   46.1460   31.0210   41.9680 C   0  0  0  0  0  0  0  0  0  0  0  0
   46.1270   29.6930   41.7210 N   0  0  0  0  0  0  0  0  0  0  0  0
   46.9170   28.8420   42.4150 C   0  0  0  0  0  0  0  0  0  0  0  0
   47.7720   29.3040   43.4030 N   0  0  0  0  0  0  0  0  0  0  0  0
   46.3040   33.2920   44.5090 C   0  0  0  0  0  0  0  0  0  0  0  0
   45.1240   34.0310   44.2760 N   0  0  0  0  0  0  0  0  0  0  0  0
   44.7730   35.0570   45.1820 C   0  0  0  0  0  0  0  0  0  0  0  0
   44.7040   36.4260   44.5580 C   0  0  0  0  0  0  0  0  0  0  0  0
   44.3430   36.4350   43.1920 N   0  0  0  0  0  0  0  0  0  0  0  0
   44.6900   35.3740   42.3520 C   0  0  0  0  0  0  0  0  0  0  0  0
   44.5110   34.0350   43.0240 C   0  0  0  0  0  0  0  0  0  0  0  0
   49.0134   32.6360   43.3360 H   0  0  0  0  0  0  0  0  0  0  0  0
   48.3364   34.2280   44.0256 H   0  0  0  0  0  0  0  0  0  0  0  0
   46.8055   34.4139   41.8282 H   0  0  0  0  0  0  0  0  0  0  0  0
   47.9409   35.7654   41.2659 H   0  0  0  0  0  0  0  0  0  0  0  0
   46.6287   33.9938   39.6816 H   0  0  0  0  0  0  0  0  0  0  0  0
   48.1572   34.9976   39.3226 H   0  0  0  0  0  0  0  0  0  0  0  0
   47.7255   32.2138   39.2594 H   0  0  0  0  0  0  0  0  0  0  0  0
   49.1280   33.2899   38.7482 H   0  0  0  0  0  0  0  0  0  0  0  0
   48.7059   31.7923   41.3067 H   0  0  0  0  0  0  0  0  0  0  0  0
   50.1222   31.8339   40.2312 H   0  0  0  0  0  0  0  0  0  0  0  0
   50.2902   34.3803   40.7826 H   0  0  0  0  0  0  0  0  0  0  0  0
   51.8320   33.6274   42.1229 H   0  0  0  0  0  0  0  0  0  0  0  0
   50.5308   33.2197   43.3536 H   0  0  0  0  0  0  0  0  0  0  0  0
   51.2734   31.1529   43.1772 H   0  0  0  0  0  0  0  0  0  0  0  0
   50.3627   31.1324   41.6290 H   0  0  0  0  0  0  0  0  0  0  0  0
   52.1264   31.4728   41.6290 H   0  0  0  0  0  0  0  0  0  0  0  0
   46.3974   33.4337   42.3845 H   0  0  0  0  0  0  0  0  0  0  0  0
   48.4778   30.9793   44.4381 H   0  0  0  0  0  0  0  0  0  0  0  0
   45.4968   31.6990   41.3946 H   0  0  0  0  0  0  0  0  0  0  0  0
   46.8801   27.7656   42.1914 H   0  0  0  0  0  0  0  0  0  0  0  0
   46.0521   32.3581   45.0328 H   0  0  0  0  0  0  0  0  0  0  0  0
   46.9905   33.8906   45.1258 H   0  0  0  0  0  0  0  0  0  0  0  0
   43.7867   34.8205   45.6077 H   0  0  0  0  0  0  0  0  0  0  0  0
   45.5648   35.0937   45.9447 H   0  0  0  0  0  0  0  0  0  0  0  0
   43.9612   37.0182   45.1126 H   0  0  0  0  0  0  0  0  0  0  0  0
   45.7199   36.8441   44.6135 H   0  0  0  0  0  0  0  0  0  0  0  0
   43.3163   36.5107   43.1603 H   0  0  0  0  0  0  0  0  0  0  0  0
   45.7441   35.4849   42.0577 H   0  0  0  0  0  0  0  0  0  0  0  0
   44.0253   35.4045   41.4761 H   0  0  0  0  0  0  0  0  0  0  0  0
   43.4368   33.8321   43.1463 H   0  0  0  0  0  0  0  0  0  0  0  0
   44.9749   33.2582   42.3984 H   0  0  0  0  0  0  0  0  0  0  0  0
  2  1  1  0
  3  2  1  0
  4  3  1  0
  5  4  1  0
  5  6  1  0
  6  7  1  0
  7  2  1  0
  7  8  1  0
  9  8  1  0
 10  1  1  0
 10 17  1  0
 12 10  1  0
 12 11  2  0
 13 12  1  0
 14 13  2  0
 14 15  1  0
 15 16  2  0
 16 11  1  0
 18 17  1  0
 18 19  1  0
 20 19  1  0
 21 20  1  0
 22 23  1  0
 22 21  1  0
 23 18  1  0
  1 24  1  0
  1 25  1  0
  3 26  1  0
  3 27  1  0
  4 28  1  0
  4 29  1  0
  5 30  1  0
  5 31  1  0
  6 32  1  0
  6 33  1  0
  7 34  1  6
  8 35  1  0
  8 36  1  0
  9 37  1  0
  9 38  1  0
  9 39  1  0
 10 40  1  6
 11 41  1  0
 13 42  1  0
 15 43  1  0
 17 44  1  0
 17 45  1  0
 19 46  1  0
 19 47  1  0
 20 48  1  0
 20 49  1  0
 21 50  1  0
 22 51  1  0
 22 52  1  0
 23 53  1  0
 23 54  1  0
M  ISO  8  24   8  25   8  26  13  27  13  28  13  29  13  30  13  31  13
M  ISO  8  32  13  33  13  34  13  35   8  36   8  37   8  38   8  39   8
M  ISO  8  40   8  41  14  42  14  43  14  44   8  45   8  46  13  47  13
M  ISO  7  48  13  49  13  50   5  51  13  52  13  53  13  54  13
M  END
>  <minimizedAffinity>  (1) 
-4.06973219

>  <minimizedRMSD>  (1) 
3.14181352

$$$$
