
     RDKit          3D

 39 41  0  0  1  0  0  0  0  0999 V2000
   45.6590   34.5490   44.2360 C   0  0  1  0  0  0  0  0  0  0  0  0
   44.6390   35.6370   43.9750 C   0  0  0  0  0  0  0  0  0  0  0  0
   45.4620   34.0090   45.6220 C   0  0  0  0  0  0  0  0  0  0  0  0
   45.7650   32.6010   45.7220 N   0  0  0  0  0  0  0  0  0  0  0  0
   45.6090   31.8900   46.9210 C   0  0  0  0  0  0  0  0  0  0  0  0
   45.5730   32.4930   48.1600 C   0  0  0  0  0  0  0  0  0  0  0  0
   45.4170   31.7390   49.3020 C   0  0  0  0  0  0  0  0  0  0  0  0
   45.2900   30.3580   49.2680 C   0  0  0  0  0  0  0  0  0  0  0  0
   45.3230   29.7210   48.0290 C   0  0  0  0  0  0  0  0  0  0  0  0
   45.4800   30.5190   46.9150 C   0  0  0  0  0  0  0  0  0  0  0  0
   45.6920   33.2770   42.9640 S   0  0  0  0  0  0  0  0  0  0  0  0
   46.7620   34.2870   40.5700 C   0  0  1  0  0  0  0  0  0  0  0  0
   45.9340   33.1310   40.1870 C   0  0  0  0  0  0  0  0  0  0  0  0
   45.5080   33.9260   41.3150 C   0  0  1  0  0  0  0  0  0  0  0  0
   48.0960   34.0860   41.2340 C   0  0  0  0  0  0  0  0  0  0  0  0
   48.6170   35.2100   41.8790 C   0  0  0  0  0  0  0  0  0  0  0  0
   49.8530   35.0920   42.4890 C   0  0  0  0  0  0  0  0  0  0  0  0
   50.4850   33.8900   42.4230 N   0  0  0  0  0  0  0  0  0  0  0  0
   49.9420   32.8220   41.7850 C   0  0  0  0  0  0  0  0  0  0  0  0
   48.7520   32.9060   41.1880 N   0  0  0  0  0  0  0  0  0  0  0  0
   46.6635   34.9937   44.1794 H   0  0  0  0  0  0  0  0  0  0  0  0
   44.2697   36.0309   44.9334 H   0  0  0  0  0  0  0  0  0  0  0  0
   45.1083   36.4496   43.4010 H   0  0  0  0  0  0  0  0  0  0  0  0
   43.7979   35.2210   43.4010 H   0  0  0  0  0  0  0  0  0  0  0  0
   46.1196   34.5598   46.3106 H   0  0  0  0  0  0  0  0  0  0  0  0
   44.4006   34.1386   45.8802 H   0  0  0  0  0  0  0  0  0  0  0  0
   46.1062   32.1033   44.8873 H   0  0  0  0  0  0  0  0  0  0  0  0
   45.6697   33.5860   48.2374 H   0  0  0  0  0  0  0  0  0  0  0  0
   45.3922   32.2501   50.2757 H   0  0  0  0  0  0  0  0  0  0  0  0
   45.1663   29.7802   50.1958 H   0  0  0  0  0  0  0  0  0  0  0  0
   45.2279   28.6285   47.9431 H   0  0  0  0  0  0  0  0  0  0  0  0
   45.5043   30.0166   45.9367 H   0  0  0  0  0  0  0  0  0  0  0  0
   47.1524   35.1749   40.0511 H   0  0  0  0  0  0  0  0  0  0  0  0
   45.3570   33.1610   39.2510 H   0  0  0  0  0  0  0  0  0  0  0  0
   46.1362   32.0601   40.0376 H   0  0  0  0  0  0  0  0  0  0  0  0
   44.5718   34.4382   41.5818 H   0  0  0  0  0  0  0  0  0  0  0  0
   48.0618   36.1594   41.9012 H   0  0  0  0  0  0  0  0  0  0  0  0
   50.3107   35.9449   43.0116 H   0  0  0  0  0  0  0  0  0  0  0  0
   50.4930   31.8703   41.7598 H   0  0  0  0  0  0  0  0  0  0  0  0
  1  3  1  0
  2  1  1  0
  3  4  1  0
  4  5  1  0
  5  6  2  0
  6  7  1  0
  8  7  2  0
  9  8  1  0
 10  5  1  0
 10  9  2  0
 11  1  1  0
 12 15  1  0
 12 14  1  0
 13 12  1  0
 13 14  1  0
 14 11  1  0
 15 16  2  0
 16 17  1  0
 18 17  2  0
 19 18  1  0
 20 15  1  0
 20 19  2  0
  1 21  1  1
  2 22  1  0
  2 23  1  0
  2 24  1  0
  3 25  1  0
  3 26  1  0
  4 27  1  0
  6 28  1  0
  7 29  1  0
  8 30  1  0
  9 31  1  0
 10 32  1  0
 12 33  1  6
 13 34  1  0
 13 35  1  0
 14 36  1  6
 16 37  1  0
 17 38  1  0
 19 39  1  0
M  ISO  8  21   8  22   8  23   8  24   8  25   8  26   8  28  14  29  14
M  ISO  8  30  14  31  14  32  14  33  13  34  13  35  13  36  13  37  14
M  ISO  2  38  14  39  14
M  END
>  <minimizedAffinity>  (1) 
-5.26310825

>  <minimizedRMSD>  (1) 
8.35059166

$$$$
