
     RDKit          3D

 36 38  0  0  1  0  0  0  0  0999 V2000
   45.8310   32.9410   44.4490 C   0  0  1  0  0  0  0  0  0  0  0  0
   45.3570   34.1270   45.2510 C   0  0  0  0  0  0  0  0  0  0  0  0
   46.0150   31.7460   45.3220 C   0  0  0  0  0  0  0  0  0  0  0  0
   45.4230   31.9280   46.6470 N   0  0  0  0  0  0  0  0  0  0  0  0
   47.2680   30.8500   49.5800 N   0  0  0  0  0  0  0  0  0  0  0  0
   46.0840   31.1540   49.1280 N   0  0  0  0  0  0  0  0  0  0  0  0
   46.1470   31.4960   47.8180 C   0  0  0  0  0  0  0  0  0  0  0  0
   47.5000   31.3820   47.4710 C   0  0  0  0  0  0  0  0  0  0  0  0
   48.2000   30.9690   48.6080 C   0  0  0  0  0  0  0  0  0  0  0  0
   44.8290   32.6010   42.9990 S   0  0  0  0  0  0  0  0  0  0  0  0
   44.9040   34.9320   41.4470 C   0  0  1  0  0  0  0  0  0  0  0  0
   43.8070   34.1190   40.8960 C   0  0  0  0  0  0  0  0  0  0  0  0
   44.0510   34.0540   42.3180 C   0  0  1  0  0  0  0  0  0  0  0  0
   46.3360   34.5740   41.1940 C   0  0  0  0  0  0  0  0  0  0  0  0
   47.2740   35.1760   42.0340 C   0  0  0  0  0  0  0  0  0  0  0  0
   48.6110   34.8760   41.8220 C   0  0  0  0  0  0  0  0  0  0  0  0
   48.9310   34.0300   40.8250 N   0  0  0  0  0  0  0  0  0  0  0  0
   47.9880   33.4610   40.0260 C   0  0  0  0  0  0  0  0  0  0  0  0
   46.6940   33.7320   40.2100 N   0  0  0  0  0  0  0  0  0  0  0  0
   46.8169   33.2099   44.0418 H   0  0  0  0  0  0  0  0  0  0  0  0
   45.4464   33.9032   46.3243 H   0  0  0  0  0  0  0  0  0  0  0  0
   45.9734   35.0047   45.0068 H   0  0  0  0  0  0  0  0  0  0  0  0
   44.3054   34.3381   45.0068 H   0  0  0  0  0  0  0  0  0  0  0  0
   45.5406   30.8790   44.8390 H   0  0  0  0  0  0  0  0  0  0  0  0
   47.0958   31.5910   45.4556 H   0  0  0  0  0  0  0  0  0  0  0  0
   44.4941   32.3623   46.7437 H   0  0  0  0  0  0  0  0  0  0  0  0
   47.4669   30.5583   50.5476 H   0  0  0  0  0  0  0  0  0  0  0  0
   47.9338   31.5820   46.4801 H   0  0  0  0  0  0  0  0  0  0  0  0
   49.2804   30.7807   48.6938 H   0  0  0  0  0  0  0  0  0  0  0  0
   45.1799   35.9964   41.4187 H   0  0  0  0  0  0  0  0  0  0  0  0
   42.8983   34.6130   40.5216 H   0  0  0  0  0  0  0  0  0  0  0  0
   43.7380   33.3675   40.0957 H   0  0  0  0  0  0  0  0  0  0  0  0
   43.4216   34.1937   43.2092 H   0  0  0  0  0  0  0  0  0  0  0  0
   46.9640   35.8633   42.8349 H   0  0  0  0  0  0  0  0  0  0  0  0
   49.3935   35.3198   42.4550 H   0  0  0  0  0  0  0  0  0  0  0  0
   48.2939   32.7735   39.2236 H   0  0  0  0  0  0  0  0  0  0  0  0
  1  2  1  0
  1  3  1  0
  3  4  1  0
  4  7  1  0
  6  5  1  0
  7  6  2  0
  8  7  1  0
  8  9  2  0
  9  5  1  0
 10  1  1  0
 11 13  1  0
 12 11  1  0
 12 13  1  0
 13 10  1  0
 14 11  1  0
 14 15  2  0
 16 15  1  0
 17 16  2  0
 18 19  2  0
 18 17  1  0
 19 14  1  0
  1 20  1  6
  2 21  1  0
  2 22  1  0
  2 23  1  0
  3 24  1  0
  3 25  1  0
  4 26  1  0
  5 27  1  0
  8 28  1  0
  9 29  1  0
 11 30  1  1
 12 31  1  0
 12 32  1  0
 13 33  1  1
 15 34  1  0
 16 35  1  0
 18 36  1  0
M  ISO  8  20   8  21   8  22   8  23   8  24   8  25   8  27   9  28  14
M  ISO  8  29  14  30  13  31  13  32  13  33  13  34  14  35  14  36  14
M  END
>  <minimizedAffinity>  (1) 
-4.73197746

>  <minimizedRMSD>  (1) 
7.95252752

$$$$
