
     RDKit          3D

 36 38  0  0  1  0  0  0  0  0999 V2000
   46.6550   32.6370   46.4810 S   0  0  0  0  0  0  0  0  0  0  0  0
   46.1710   30.8790   48.6150 C   0  0  1  0  0  0  0  0  0  0  0  0
   45.6410   32.1860   49.0390 C   0  0  0  0  0  0  0  0  0  0  0  0
   45.5600   31.8430   47.6400 C   0  0  1  0  0  0  0  0  0  0  0  0
   47.6480   30.6330   48.5840 C   0  0  0  0  0  0  0  0  0  0  0  0
   48.0650   29.5330   47.8190 C   0  0  0  0  0  0  0  0  0  0  0  0
   49.4180   29.2560   47.7650 C   0  0  0  0  0  0  0  0  0  0  0  0
   50.2780   30.0620   48.4540 N   0  0  0  0  0  0  0  0  0  0  0  0
   49.8270   31.1180   49.1810 C   0  0  0  0  0  0  0  0  0  0  0  0
   48.5160   31.4140   49.2540 N   0  0  0  0  0  0  0  0  0  0  0  0
   45.8000   33.5110   45.1710 C   0  0  1  0  0  0  0  0  0  0  0  0
   44.9710   34.6690   45.6620 C   0  0  0  0  0  0  0  0  0  0  0  0
   46.7010   33.9280   44.0680 C   0  0  0  0  0  0  0  0  0  0  0  0
   47.2950   32.7750   43.3790 N   0  0  0  0  0  0  0  0  0  0  0  0
   48.6340   32.9350   42.9290 C   0  0  0  0  0  0  0  0  0  0  0  0
   48.9640   34.2970   42.8490 C   0  0  0  0  0  0  0  0  0  0  0  0
   50.2250   34.4490   42.4160 N   0  0  0  0  0  0  0  0  0  0  0  0
   50.7320   33.2080   42.2120 C   0  0  0  0  0  0  0  0  0  0  0  0
   49.7740   32.2960   42.5190 N   0  0  0  0  0  0  0  0  0  0  0  0
   46.0029   29.8322   48.9081 H   0  0  0  0  0  0  0  0  0  0  0  0
   44.7225   32.2312   49.6426 H   0  0  0  0  0  0  0  0  0  0  0  0
   46.0584   33.0378   49.5960 H   0  0  0  0  0  0  0  0  0  0  0  0
   44.7421   31.8117   46.9051 H   0  0  0  0  0  0  0  0  0  0  0  0
   47.3371   28.9100   47.2786 H   0  0  0  0  0  0  0  0  0  0  0  0
   49.7940   28.4042   47.1793 H   0  0  0  0  0  0  0  0  0  0  0  0
   50.5503   31.7455   49.7224 H   0  0  0  0  0  0  0  0  0  0  0  0
   45.0976   32.7718   44.7583 H   0  0  0  0  0  0  0  0  0  0  0  0
   44.9660   34.6760   46.7620 H   0  0  0  0  0  0  0  0  0  0  0  0
   45.4011   35.6111   45.2913 H   0  0  0  0  0  0  0  0  0  0  0  0
   43.9405   34.5655   45.2913 H   0  0  0  0  0  0  0  0  0  0  0  0
   46.1234   34.5176   43.3409 H   0  0  0  0  0  0  0  0  0  0  0  0
   47.5180   34.5230   44.5023 H   0  0  0  0  0  0  0  0  0  0  0  0
   46.7714   31.9005   43.2303 H   0  0  0  0  0  0  0  0  0  0  0  0
   48.2846   35.1233   43.1052 H   0  0  0  0  0  0  0  0  0  0  0  0
   51.7478   32.9788   41.8576 H   0  0  0  0  0  0  0  0  0  0  0  0
   49.8878   31.2744   42.4533 H   0  0  0  0  0  0  0  0  0  0  0  0
  1  4  1  0
  2  3  1  0
  4  2  1  0
  4  3  1  0
  5  2  1  0
  5 10  1  0
  6  5  2  0
  7  6  1  0
  7  8  2  0
  8  9  1  0
  9 10  2  0
 11 12  1  0
 11  1  1  0
 13 11  1  0
 14 13  1  0
 15 14  1  0
 16 15  2  0
 17 16  1  0
 18 17  2  0
 18 19  1  0
 19 15  1  0
  2 20  1  1
  3 21  1  0
  3 22  1  0
  4 23  1  6
  6 24  1  0
  7 25  1  0
  9 26  1  0
 11 27  1  6
 12 28  1  0
 12 29  1  0
 12 30  1  0
 13 31  1  0
 13 32  1  0
 14 33  1  0
 16 34  1  0
 18 35  1  0
 19 36  1  0
M  ISO  8  20  13  21  13  22  13  23  13  24  14  25  14  26  14  27   8
M  ISO  8  28   8  29   8  30   8  31   8  32   8  34  14  35  14  36   9
M  END
>  <minimizedAffinity>  (1) 
-4.32648611

>  <minimizedRMSD>  (1) 
5.80695343

$$$$
