
     RDKit          3D

 33 34  0  0  1  0  0  0  0  0999 V2000
   47.2610   34.9040   42.2310 S   0  0  0  0  0  0  0  0  0  0  0  0
   44.6330   34.0880   42.7630 C   0  0  1  0  0  0  0  0  0  0  0  0
   44.5800   35.5540   42.6470 C   0  0  0  0  0  0  0  0  0  0  0  0
   45.5300   34.8420   41.8230 C   0  0  1  0  0  0  0  0  0  0  0  0
   45.2160   33.4340   43.9830 C   0  0  0  0  0  0  0  0  0  0  0  0
   45.5490   32.0860   43.8390 C   0  0  0  0  0  0  0  0  0  0  0  0
   46.0740   31.4270   44.9380 C   0  0  0  0  0  0  0  0  0  0  0  0
   46.2330   32.1300   46.0900 N   0  0  0  0  0  0  0  0  0  0  0  0
   45.8960   33.4430   46.1860 C   0  0  0  0  0  0  0  0  0  0  0  0
   45.3880   34.1040   45.1410 N   0  0  0  0  0  0  0  0  0  0  0  0
   48.3050   34.0290   41.0590 C   0  0  1  0  0  0  0  0  0  0  0  0
   48.3820   32.5400   41.3150 C   0  0  0  0  0  0  0  0  0  0  0  0
   47.9290   34.2660   39.6280 C   0  0  0  0  0  0  0  0  0  0  0  0
   48.9390   33.7670   38.7060 N   0  0  0  0  0  0  0  0  0  0  0  0
   48.5870   33.6820   37.3090 C   0  0  0  0  0  0  0  0  0  0  0  0
   47.6400   34.6250   36.8190 N   0  0  0  0  0  0  0  0  0  0  0  0
   49.1290   32.7900   36.5980 O   0  0  0  0  0  0  0  0  0  0  0  0
   43.9023   33.2699   42.6801 H   0  0  0  0  0  0  0  0  0  0  0  0
   43.7058   36.0320   42.1809 H   0  0  0  0  0  0  0  0  0  0  0  0
   44.6596   36.3826   43.3661 H   0  0  0  0  0  0  0  0  0  0  0  0
   45.7433   34.8226   40.7441 H   0  0  0  0  0  0  0  0  0  0  0  0
   45.3991   31.5637   42.8826 H   0  0  0  0  0  0  0  0  0  0  0  0
   46.3543   30.3649   44.8801 H   0  0  0  0  0  0  0  0  0  0  0  0
   46.0437   33.9708   47.1397 H   0  0  0  0  0  0  0  0  0  0  0  0
   49.3018   34.4619   41.2295 H   0  0  0  0  0  0  0  0  0  0  0  0
   48.3916   32.3544   42.3992 H   0  0  0  0  0  0  0  0  0  0  0  0
   47.5082   32.0451   40.8660 H   0  0  0  0  0  0  0  0  0  0  0  0
   49.3021   32.1379   40.8660 H   0  0  0  0  0  0  0  0  0  0  0  0
   46.9772   33.7545   39.4221 H   0  0  0  0  0  0  0  0  0  0  0  0
   47.8397   35.3519   39.4769 H   0  0  0  0  0  0  0  0  0  0  0  0
   49.8719   33.4846   39.0389 H   0  0  0  0  0  0  0  0  0  0  0  0
   47.3573   34.6040   35.8288 H   0  0  0  0  0  0  0  0  0  0  0  0
   47.2374   35.3284   37.4547 H   0  0  0  0  0  0  0  0  0  0  0  0
  2  5  1  0
  3  2  1  0
  4  1  1  0
  4  3  1  0
  4  2  1  0
  5 10  1  0
  6  5  2  0
  6  7  1  0
  7  8  2  0
  8  9  1  0
 10  9  2  0
 11 12  1  0
 11  1  1  0
 13 11  1  0
 14 13  1  0
 15 14  1  0
 16 15  1  0
 17 15  2  0
  2 18  1  6
  3 19  1  0
  3 20  1  0
  4 21  1  6
  6 22  1  0
  7 23  1  0
  9 24  1  0
 11 25  1  6
 12 26  1  0
 12 27  1  0
 12 28  1  0
 13 29  1  0
 13 30  1  0
 14 31  1  0
 16 32  1  0
 16 33  1  0
M  ISO  8  18  13  19  13  20  13  21  13  22  14  23  14  24  14  25   8
M  ISO  5  26   8  27   8  28   8  29   8  30   8
M  END
>  <minimizedAffinity>  (1) 
-4.31789303

>  <minimizedRMSD>  (1) 
0.540633082

$$$$
