
     RDKit          3D

 38 39  0  0  1  0  0  0  0  0999 V2000
   44.6770   34.0220   42.6550 C   0  0  1  0  0  0  0  0  0  0  0  0
   44.5710   35.4810   42.4880 C   0  0  0  0  0  0  0  0  0  0  0  0
   45.5950   34.7850   41.7430 C   0  0  1  0  0  0  0  0  0  0  0  0
   45.2110   33.4330   43.9290 C   0  0  0  0  0  0  0  0  0  0  0  0
   45.5830   32.0890   43.8540 C   0  0  0  0  0  0  0  0  0  0  0  0
   46.0630   31.4840   45.0040 C   0  0  0  0  0  0  0  0  0  0  0  0
   46.1400   32.2450   46.1340 N   0  0  0  0  0  0  0  0  0  0  0  0
   45.7710   33.5390   46.1630 C   0  0  0  0  0  0  0  0  0  0  0  0
   45.3040   34.1490   45.0710 N   0  0  0  0  0  0  0  0  0  0  0  0
   47.2940   34.9360   42.2550 S   0  0  0  0  0  0  0  0  0  0  0  0
   48.4650   34.4330   40.9830 C   0  0  1  0  0  0  0  0  0  0  0  0
   49.2740   33.1990   41.3550 C   0  0  0  0  0  0  0  0  0  0  0  0
   47.8350   34.2370   39.6390 C   0  0  0  0  0  0  0  0  0  0  0  0
   48.7060   34.7300   38.5770 N   0  0  0  0  0  0  0  0  0  0  0  0
   48.4320   34.0690   37.3180 C   0  0  0  0  0  0  0  0  0  0  0  0
   47.0210   33.5500   37.2130 C   0  0  0  0  0  0  0  0  0  0  0  0
   49.3380   32.8420   37.2870 C   0  0  0  0  0  0  0  0  0  0  0  0
   43.9882   33.1700   42.5566 H   0  0  0  0  0  0  0  0  0  0  0  0
   43.7064   35.9069   41.9578 H   0  0  0  0  0  0  0  0  0  0  0  0
   44.5752   36.3338   43.1827 H   0  0  0  0  0  0  0  0  0  0  0  0
   45.8709   34.7408   40.6791 H   0  0  0  0  0  0  0  0  0  0  0  0
   45.4975   31.5285   42.9114 H   0  0  0  0  0  0  0  0  0  0  0  0
   46.3710   30.4280   45.0062 H   0  0  0  0  0  0  0  0  0  0  0  0
   45.8557   34.1040   47.1030 H   0  0  0  0  0  0  0  0  0  0  0  0
   49.1582   35.2843   40.9146 H   0  0  0  0  0  0  0  0  0  0  0  0
   49.3299   33.1137   42.4503 H   0  0  0  0  0  0  0  0  0  0  0  0
   48.7873   32.3032   40.9418 H   0  0  0  0  0  0  0  0  0  0  0  0
   50.2896   33.2881   40.9418 H   0  0  0  0  0  0  0  0  0  0  0  0
   47.6480   33.1644   39.4822 H   0  0  0  0  0  0  0  0  0  0  0  0
   46.8910   34.8009   39.6085 H   0  0  0  0  0  0  0  0  0  0  0  0
   48.5555   35.7426   38.4634 H   0  0  0  0  0  0  0  0  0  0  0  0
   48.5919   34.7917   36.5043 H   0  0  0  0  0  0  0  0  0  0  0  0
   46.6099   33.3988   38.2220 H   0  0  0  0  0  0  0  0  0  0  0  0
   46.4016   34.2791   36.6702 H   0  0  0  0  0  0  0  0  0  0  0  0
   47.0217   32.5933   36.6702 H   0  0  0  0  0  0  0  0  0  0  0  0
   49.5683   32.5301   38.3164 H   0  0  0  0  0  0  0  0  0  0  0  0
   48.8270   32.0221   36.7611 H   0  0  0  0  0  0  0  0  0  0  0  0
   50.2720   33.0891   36.7611 H   0  0  0  0  0  0  0  0  0  0  0  0
  1  4  1  0
  2  1  1  0
  3 10  1  0
  3  2  1  0
  3  1  1  0
  4  9  1  0
  5  4  2  0
  5  6  1  0
  6  7  2  0
  7  8  1  0
  9  8  2  0
 11 12  1  0
 11 10  1  0
 13 11  1  0
 14 13  1  0
 15 14  1  0
 16 15  1  0
 17 15  1  0
  1 18  1  6
  2 19  1  0
  2 20  1  0
  3 21  1  6
  5 22  1  0
  6 23  1  0
  8 24  1  0
 11 25  1  6
 12 26  1  0
 12 27  1  0
 12 28  1  0
 13 29  1  0
 13 30  1  0
 14 31  1  0
 15 32  1  0
 16 33  1  0
 16 34  1  0
 16 35  1  0
 17 36  1  0
 17 37  1  0
 17 38  1  0
M  ISO  8  18  13  19  13  20  13  21  13  22  14  23  14  24  14  25   8
M  ISO  8  26   8  27   8  28   8  29   8  30   8  31   5  32   8  33   8
M  ISO  5  34   8  35   8  36   8  37   8  38   8
M  END
>  <minimizedAffinity>  (1) 
-4.0444088

>  <minimizedRMSD>  (1) 
0.845373034

$$$$
