
     RDKit          3D

 43 46  0  0  1  0  0  0  0  0999 V2000
   44.9770   33.2750   43.1260 S   0  0  0  0  0  0  0  0  0  0  0  0
   44.4270   35.7720   41.9710 C   0  0  1  0  0  0  0  0  0  0  0  0
   44.4170   35.9860   43.4100 C   0  0  0  0  0  0  0  0  0  0  0  0
   45.3320   34.9920   42.9000 C   0  0  1  0  0  0  0  0  0  0  0  0
   43.2990   35.0520   41.2660 C   0  0  0  0  0  0  0  0  0  0  0  0
   42.0230   35.3370   41.7310 C   0  0  0  0  0  0  0  0  0  0  0  0
   40.9690   34.6840   41.1260 C   0  0  0  0  0  0  0  0  0  0  0  0
   41.2370   33.8150   40.1270 N   0  0  0  0  0  0  0  0  0  0  0  0
   42.5060   33.5540   39.6900 C   0  0  0  0  0  0  0  0  0  0  0  0
   43.5430   34.1820   40.2700 N   0  0  0  0  0  0  0  0  0  0  0  0
   42.6350   32.5910   38.6010 C   0  0  0  0  0  0  0  0  0  0  0  0
   44.0080   32.4630   38.1150 C   0  0  0  0  0  0  0  0  0  0  0  0
   43.8330   31.1690   36.7380 S   0  0  0  0  0  0  0  0  0  0  0  0
   42.0240   31.0610   37.0760 C   0  0  0  0  0  0  0  0  0  0  0  0
   41.8150   31.8030   37.9440 N   0  0  0  0  0  0  0  0  0  0  0  0
   45.8390   32.5230   44.5170 C   0  0  1  0  0  0  0  0  0  0  0  0
   47.0790   31.7530   44.1200 C   0  0  0  0  0  0  0  0  0  0  0  0
   46.1790   33.5430   45.5820 C   0  0  0  0  0  0  0  0  0  0  0  0
   45.2950   33.4860   46.6920 N   0  0  0  0  0  0  0  0  0  0  0  0
   45.8000   32.5400   47.6440 C   0  0  0  0  0  0  0  0  0  0  0  0
   45.0220   31.7040   48.3840 C   0  0  0  0  0  0  0  0  0  0  0  0
   45.7360   30.8580   49.2390 C   0  0  0  0  0  0  0  0  0  0  0  0
   47.0760   30.8770   49.3150 N   0  0  0  0  0  0  0  0  0  0  0  0
   47.8180   31.7350   48.5510 C   0  0  0  0  0  0  0  0  0  0  0  0
   47.1560   32.5820   47.7000 N   0  0  0  0  0  0  0  0  0  0  0  0
   44.5464   36.4240   41.0931 H   0  0  0  0  0  0  0  0  0  0  0  0
   44.8128   36.9267   43.8205 H   0  0  0  0  0  0  0  0  0  0  0  0
   43.6270   35.9704   44.1753 H   0  0  0  0  0  0  0  0  0  0  0  0
   46.4133   34.8165   43.0003 H   0  0  0  0  0  0  0  0  0  0  0  0
   41.8586   36.0543   42.5486 H   0  0  0  0  0  0  0  0  0  0  0  0
   39.9337   34.8668   41.4498 H   0  0  0  0  0  0  0  0  0  0  0  0
   44.9130   32.9845   38.4601 H   0  0  0  0  0  0  0  0  0  0  0  0
   41.2914   30.4230   36.5600 H   0  0  0  0  0  0  0  0  0  0  0  0
   45.1293   31.7923   44.9323 H   0  0  0  0  0  0  0  0  0  0  0  0
   47.6108   31.4228   45.0245 H   0  0  0  0  0  0  0  0  0  0  0  0
   46.7902   30.8751   43.5234 H   0  0  0  0  0  0  0  0  0  0  0  0
   47.7378   32.4011   43.5234 H   0  0  0  0  0  0  0  0  0  0  0  0
   47.2031   33.3546   45.9367 H   0  0  0  0  0  0  0  0  0  0  0  0
   46.0844   34.5416   45.1305 H   0  0  0  0  0  0  0  0  0  0  0  0
   44.4302   34.0357   46.7964 H   0  0  0  0  0  0  0  0  0  0  0  0
   43.9242   31.6943   48.3156 H   0  0  0  0  0  0  0  0  0  0  0  0
   45.1792   30.1515   49.8721 H   0  0  0  0  0  0  0  0  0  0  0  0
   48.9159   31.7453   48.6174 H   0  0  0  0  0  0  0  0  0  0  0  0
  1 16  1  0
  2  4  1  0
  2  3  1  0
  4  1  1  0
  4  3  1  0
  5  6  2  0
  5  2  1  0
  7  6  1  0
  8  7  2  0
  9  8  1  0
  9 10  2  0
 10  5  1  0
 11  9  1  0
 12 11  2  0
 13 14  1  0
 13 12  1  0
 14 15  2  0
 15 11  1  0
 16 18  1  0
 17 16  1  0
 18 19  1  0
 19 20  1  0
 20 25  1  0
 20 21  2  0
 21 22  1  0
 22 23  2  0
 24 23  1  0
 25 24  2  0
  2 26  1  6
  3 27  1  0
  3 28  1  0
  4 29  1  6
  6 30  1  0
  7 31  1  0
 12 32  1  0
 14 33  1  0
 16 34  1  1
 17 35  1  0
 17 36  1  0
 17 37  1  0
 18 38  1  0
 18 39  1  0
 19 40  1  0
 21 41  1  0
 22 42  1  0
 24 43  1  0
M  ISO  8  26  13  27  13  28  13  29  13  30  14  31  14  32  14  33  14
M  ISO  8  34   8  35   8  36   8  37   8  38   8  39   8  41  14  42  14
M  ISO  1  43  14
M  END
>  <minimizedAffinity>  (1) 
-5.34818649

>  <minimizedRMSD>  (1) 
9.01676369

$$$$
