
     RDKit          3D

 52 55  0  0  1  0  0  0  0  0999 V2000
   44.9240   34.5650   42.7230 C   0  0  1  0  0  0  0  0  0  0  0  0
   45.2810   35.8810   43.2310 C   0  0  0  0  0  0  0  0  0  0  0  0
   46.0520   35.3760   42.1220 C   0  0  1  0  0  0  0  0  0  0  0  0
   45.2530   33.3090   43.5000 C   0  0  0  0  0  0  0  0  0  0  0  0
   45.1840   32.1350   42.7560 C   0  0  0  0  0  0  0  0  0  0  0  0
   45.4510   30.9540   43.4320 C   0  0  0  0  0  0  0  0  0  0  0  0
   45.7630   31.0060   44.7700 N   0  0  0  0  0  0  0  0  0  0  0  0
   45.8130   32.1930   45.4390 C   0  0  0  0  0  0  0  0  0  0  0  0
   45.5630   33.3500   44.8260 N   0  0  0  0  0  0  0  0  0  0  0  0
   46.1440   32.1430   46.8210 N   0  0  0  0  0  0  0  0  0  0  0  0
   47.4170   31.5900   47.2480 C   0  0  0  0  0  0  0  0  0  0  0  0
   47.0770   30.3890   48.1150 C   0  0  0  0  0  0  0  0  0  0  0  0
   46.2940   30.9180   49.3050 C   0  0  0  0  0  0  0  0  0  0  0  0
   45.0070   31.5270   48.8410 C   0  0  0  0  0  0  0  0  0  0  0  0
   45.2270   32.6400   47.8300 C   0  0  0  0  0  0  0  0  0  0  0  0
   47.6980   34.7860   42.3810 S   0  0  0  0  0  0  0  0  0  0  0  0
   48.3330   33.7600   41.0480 C   0  0  1  0  0  0  0  0  0  0  0  0
   48.6470   32.3380   41.4690 C   0  0  0  0  0  0  0  0  0  0  0  0
   47.4030   33.7530   39.8540 C   0  0  0  0  0  0  0  0  0  0  0  0
   47.9200   34.4840   38.7530 N   0  0  0  0  0  0  0  0  0  0  0  0
   47.7310   33.7200   37.5530 C   0  0  0  0  0  0  0  0  0  0  0  0
   48.7110   33.4270   36.6540 C   0  0  0  0  0  0  0  0  0  0  0  0
   48.3050   32.6600   35.5730 C   0  0  0  0  0  0  0  0  0  0  0  0
   47.0360   32.2420   35.4300 N   0  0  0  0  0  0  0  0  0  0  0  0
   46.0780   32.5540   36.3500 C   0  0  0  0  0  0  0  0  0  0  0  0
   46.4380   33.3080   37.4310 N   0  0  0  0  0  0  0  0  0  0  0  0
   43.9955   34.0961   42.3651 H   0  0  0  0  0  0  0  0  0  0  0  0
   44.5954   36.7266   43.0734 H   0  0  0  0  0  0  0  0  0  0  0  0
   45.5448   36.2648   44.2275 H   0  0  0  0  0  0  0  0  0  0  0  0
   46.3158   35.7689   41.1290 H   0  0  0  0  0  0  0  0  0  0  0  0
   44.9305   32.1434   41.6857 H   0  0  0  0  0  0  0  0  0  0  0  0
   45.4137   29.9891   42.9051 H   0  0  0  0  0  0  0  0  0  0  0  0
   48.0105   31.2773   46.3762 H   0  0  0  0  0  0  0  0  0  0  0  0
   48.0156   32.3304   47.7989 H   0  0  0  0  0  0  0  0  0  0  0  0
   46.4656   29.6723   47.5471 H   0  0  0  0  0  0  0  0  0  0  0  0
   47.9879   29.8657   48.4414 H   0  0  0  0  0  0  0  0  0  0  0  0
   46.0770   30.0898   49.9956 H   0  0  0  0  0  0  0  0  0  0  0  0
   46.8920   31.6850   49.8188 H   0  0  0  0  0  0  0  0  0  0  0  0
   44.3921   30.7427   48.3754 H   0  0  0  0  0  0  0  0  0  0  0  0
   44.5057   31.9630   49.7177 H   0  0  0  0  0  0  0  0  0  0  0  0
   45.6597   33.5196   48.3291 H   0  0  0  0  0  0  0  0  0  0  0  0
   44.2729   32.9382   47.3709 H   0  0  0  0  0  0  0  0  0  0  0  0
   49.2865   34.2265   40.7594 H   0  0  0  0  0  0  0  0  0  0  0  0
   48.6608   32.2753   42.5671 H   0  0  0  0  0  0  0  0  0  0  0  0
   47.8770   31.6598   41.0727 H   0  0  0  0  0  0  0  0  0  0  0  0
   49.6310   32.0471   41.0727 H   0  0  0  0  0  0  0  0  0  0  0  0
   47.2412   32.7113   39.5400 H   0  0  0  0  0  0  0  0  0  0  0  0
   46.4636   34.2356   40.1616 H   0  0  0  0  0  0  0  0  0  0  0  0
   48.3602   35.4136   38.8066 H   0  0  0  0  0  0  0  0  0  0  0  0
   49.7479   33.7733   36.7765 H   0  0  0  0  0  0  0  0  0  0  0  0
   49.0455   32.3847   34.8076 H   0  0  0  0  0  0  0  0  0  0  0  0
   45.0417   32.2072   36.2245 H   0  0  0  0  0  0  0  0  0  0  0  0
  1  2  1  0
  1  4  1  0
  3 16  1  0
  3  1  1  0
  3  2  1  0
  4  9  2  0
  5  6  2  0
  5  4  1  0
  6  7  1  0
  7  8  2  0
  8 10  1  0
  9  8  1  0
 10 11  1  0
 10 15  1  0
 11 12  1  0
 12 13  1  0
 14 13  1  0
 15 14  1  0
 17 18  1  0
 17 16  1  0
 19 17  1  0
 20 19  1  0
 21 20  1  0
 22 21  2  0
 23 22  1  0
 24 23  2  0
 24 25  1  0
 25 26  2  0
 26 21  1  0
  1 27  1  6
  2 28  1  0
  2 29  1  0
  3 30  1  6
  5 31  1  0
  6 32  1  0
 11 33  1  0
 11 34  1  0
 12 35  1  0
 12 36  1  0
 13 37  1  0
 13 38  1  0
 14 39  1  0
 14 40  1  0
 15 41  1  0
 15 42  1  0
 17 43  1  6
 18 44  1  0
 18 45  1  0
 18 46  1  0
 19 47  1  0
 19 48  1  0
 20 49  1  0
 22 50  1  0
 23 51  1  0
 25 52  1  0
M  ISO  8  27  13  28  13  29  13  30  13  31  14  32  14  33  13  34  13
M  ISO  8  35  13  36  13  37  13  38  13  39  13  40  13  41  13  42  13
M  ISO  8  43   8  44   8  45   8  46   8  47   8  48   8  50  14  51  14
M  ISO  1  52  14
M  END
>  <minimizedAffinity>  (1) 
-5.32975721

>  <minimizedRMSD>  (1) 
1.13871145

$$$$
