
     RDKit          3D

 42 45  0  0  1  0  0  0  0  0999 V2000
   47.9090   34.0130   39.2410 S   0  0  0  0  0  0  0  0  0  0  0  0
   46.3740   31.9740   38.0850 C   0  0  1  0  0  0  0  0  0  0  0  0
   46.2520   31.7920   39.5230 C   0  0  0  0  0  0  0  0  0  0  0  0
   46.3820   33.1470   39.0440 C   0  0  1  0  0  0  0  0  0  0  0  0
   47.6400   31.6150   37.3490 C   0  0  0  0  0  0  0  0  0  0  0  0
   48.5670   30.8870   38.0840 C   0  0  0  0  0  0  0  0  0  0  0  0
   49.7530   30.5610   37.4540 C   0  0  0  0  0  0  0  0  0  0  0  0
   49.9480   30.9630   36.1720 N   0  0  0  0  0  0  0  0  0  0  0  0
   49.0070   31.6790   35.4820 C   0  0  0  0  0  0  0  0  0  0  0  0
   47.8420   32.0130   36.0630 N   0  0  0  0  0  0  0  0  0  0  0  0
   49.2560   32.0910   34.1030 C   0  0  0  0  0  0  0  0  0  0  0  0
   50.2450   31.8260   33.2160 N   0  0  0  0  0  0  0  0  0  0  0  0
   49.9950   32.4480   32.1010 O   0  0  0  0  0  0  0  0  0  0  0  0
   48.8590   33.1340   32.1980 C   0  0  0  0  0  0  0  0  0  0  0  0
   48.4080   32.9050   33.4470 N   0  0  0  0  0  0  0  0  0  0  0  0
   48.2440   34.5470   40.9260 C   0  0  1  0  0  0  0  0  0  0  0  0
   49.0260   35.8440   41.0130 C   0  0  0  0  0  0  0  0  0  0  0  0
   46.9770   34.6570   41.7440 C   0  0  0  0  0  0  0  0  0  0  0  0
   46.8870   33.6590   42.7500 N   0  0  0  0  0  0  0  0  0  0  0  0
   46.0950   34.1610   43.8360 C   0  0  0  0  0  0  0  0  0  0  0  0
   45.9920   33.5760   45.0620 C   0  0  0  0  0  0  0  0  0  0  0  0
   45.1790   34.2410   45.9690 C   0  0  0  0  0  0  0  0  0  0  0  0
   44.5430   35.3830   45.6460 N   0  0  0  0  0  0  0  0  0  0  0  0
   44.6690   35.9430   44.4080 C   0  0  0  0  0  0  0  0  0  0  0  0
   45.4630   35.3120   43.4900 N   0  0  0  0  0  0  0  0  0  0  0  0
   45.7868   31.6569   37.2105 H   0  0  0  0  0  0  0  0  0  0  0  0
   45.2938   31.4573   39.9469 H   0  0  0  0  0  0  0  0  0  0  0  0
   46.8029   31.1916   40.2619 H   0  0  0  0  0  0  0  0  0  0  0  0
   45.8014   34.0703   39.1871 H   0  0  0  0  0  0  0  0  0  0  0  0
   48.3659   30.5833   39.1219 H   0  0  0  0  0  0  0  0  0  0  0  0
   50.5267   29.9850   37.9828 H   0  0  0  0  0  0  0  0  0  0  0  0
   48.3879   33.7562   31.4228 H   0  0  0  0  0  0  0  0  0  0  0  0
   48.8811   33.7567   41.3498 H   0  0  0  0  0  0  0  0  0  0  0  0
   49.1843   36.1066   42.0694 H   0  0  0  0  0  0  0  0  0  0  0  0
   49.9995   35.7192   40.5163 H   0  0  0  0  0  0  0  0  0  0  0  0
   48.4612   36.6467   40.5163 H   0  0  0  0  0  0  0  0  0  0  0  0
   46.9536   35.6456   42.2257 H   0  0  0  0  0  0  0  0  0  0  0  0
   46.1265   34.5179   41.0604 H   0  0  0  0  0  0  0  0  0  0  0  0
   47.3202   32.7255   42.7071 H   0  0  0  0  0  0  0  0  0  0  0  0
   46.5162   32.6426   45.3151 H   0  0  0  0  0  0  0  0  0  0  0  0
   45.0507   33.8240   46.9788 H   0  0  0  0  0  0  0  0  0  0  0  0
   44.1460   36.8770   44.1549 H   0  0  0  0  0  0  0  0  0  0  0  0
  1 16  1  0
  2  4  1  0
  2  3  1  0
  4  1  1  0
  4  3  1  0
  5  6  2  0
  5  2  1  0
  7  6  1  0
  8  7  2  0
  9 10  2  0
  9  8  1  0
 10  5  1  0
 11  9  1  0
 12 11  2  0
 13 14  1  0
 13 12  1  0
 14 15  2  0
 15 11  1  0
 16 17  1  0
 16 18  1  0
 18 19  1  0
 19 20  1  0
 20 21  2  0
 21 22  1  0
 23 22  2  0
 24 23  1  0
 25 20  1  0
 25 24  2  0
  2 26  1  6
  3 27  1  0
  3 28  1  0
  4 29  1  6
  6 30  1  0
  7 31  1  0
 14 32  1  0
 16 33  1  1
 17 34  1  0
 17 35  1  0
 17 36  1  0
 18 37  1  0
 18 38  1  0
 19 39  1  0
 21 40  1  0
 22 41  1  0
 24 42  1  0
M  ISO  8  26  13  27  13  28  13  29  13  30  14  31  14  32  14  33   8
M  ISO  8  34   8  35   8  36   8  37   8  38   8  40  14  41  14  42  14
M  END
>  <minimizedAffinity>  (1) 
-5.05555582

>  <minimizedRMSD>  (1) 
9.87268734

$$$$
