
     RDKit          3D

 44 47  0  0  1  0  0  0  0  0999 V2000
   47.7860   34.8790   42.4890 S   0  0  0  0  0  0  0  0  0  0  0  0
   45.0170   34.5340   42.7410 C   0  0  1  0  0  0  0  0  0  0  0  0
   45.2980   35.8560   43.2770 C   0  0  0  0  0  0  0  0  0  0  0  0
   46.1260   35.4040   42.1850 C   0  0  1  0  0  0  0  0  0  0  0  0
   45.3750   33.2800   43.5040 C   0  0  0  0  0  0  0  0  0  0  0  0
   45.4750   32.1310   42.7270 C   0  0  0  0  0  0  0  0  0  0  0  0
   45.7750   30.9530   43.3950 C   0  0  0  0  0  0  0  0  0  0  0  0
   45.9530   30.9790   44.7510 N   0  0  0  0  0  0  0  0  0  0  0  0
   45.8410   32.1450   45.4610 C   0  0  0  0  0  0  0  0  0  0  0  0
   45.5540   33.2960   44.8540 N   0  0  0  0  0  0  0  0  0  0  0  0
   46.0530   32.0440   46.9020 C   0  0  0  0  0  0  0  0  0  0  0  0
   47.2590   31.9410   47.5680 C   0  0  0  0  0  0  0  0  0  0  0  0
   47.0080   31.8690   48.9070 N   0  0  0  0  0  0  0  0  0  0  0  0
   45.6690   31.9280   49.0290 C   0  0  0  0  0  0  0  0  0  0  0  0
   45.0610   32.0360   47.8110 N   0  0  0  0  0  0  0  0  0  0  0  0
   48.5810   34.0940   41.0780 C   0  0  1  0  0  0  0  0  0  0  0  0
   48.9610   32.6470   41.3210 C   0  0  0  0  0  0  0  0  0  0  0  0
   47.7430   34.2030   39.8250 C   0  0  0  0  0  0  0  0  0  0  0  0
   48.5080   34.5600   38.6840 N   0  0  0  0  0  0  0  0  0  0  0  0
   48.0690   33.7860   37.5640 C   0  0  0  0  0  0  0  0  0  0  0  0
   48.8710   33.3610   36.5500 C   0  0  0  0  0  0  0  0  0  0  0  0
   48.2300   32.6100   35.5740 C   0  0  0  0  0  0  0  0  0  0  0  0
   46.9230   32.3270   35.6270 N   0  0  0  0  0  0  0  0  0  0  0  0
   46.1470   32.7710   36.6590 C   0  0  0  0  0  0  0  0  0  0  0  0
   46.7390   33.5170   37.6460 N   0  0  0  0  0  0  0  0  0  0  0  0
   44.1207   34.0300   42.3502 H   0  0  0  0  0  0  0  0  0  0  0  0
   44.5794   36.6719   43.1097 H   0  0  0  0  0  0  0  0  0  0  0  0
   45.5135   36.2359   44.2865 H   0  0  0  0  0  0  0  0  0  0  0  0
   46.4026   35.8251   41.2072 H   0  0  0  0  0  0  0  0  0  0  0  0
   45.3238   32.1551   41.6377 H   0  0  0  0  0  0  0  0  0  0  0  0
   45.8688   30.0078   42.8402 H   0  0  0  0  0  0  0  0  0  0  0  0
   48.2534   31.9205   47.0981 H   0  0  0  0  0  0  0  0  0  0  0  0
   45.1322   31.8936   49.9885 H   0  0  0  0  0  0  0  0  0  0  0  0
   44.0497   32.0986   47.6260 H   0  0  0  0  0  0  0  0  0  0  0  0
   49.5165   34.6542   40.9334 H   0  0  0  0  0  0  0  0  0  0  0  0
   49.0107   32.4578   42.4035 H   0  0  0  0  0  0  0  0  0  0  0  0
   48.2054   31.9884   40.8679 H   0  0  0  0  0  0  0  0  0  0  0  0
   49.9427   32.4447   40.8679 H   0  0  0  0  0  0  0  0  0  0  0  0
   47.2630   33.2313   39.6370 H   0  0  0  0  0  0  0  0  0  0  0  0
   47.0009   34.9981   39.9896 H   0  0  0  0  0  0  0  0  0  0  0  0
   49.2595   35.2642   38.6654 H   0  0  0  0  0  0  0  0  0  0  0  0
   49.9450   33.5946   36.5070 H   0  0  0  0  0  0  0  0  0  0  0  0
   48.8188   32.2332   34.7247 H   0  0  0  0  0  0  0  0  0  0  0  0
   45.0731   32.5361   36.6979 H   0  0  0  0  0  0  0  0  0  0  0  0
  2  3  1  0
  2  5  1  0
  4  1  1  0
  4  2  1  0
  4  3  1  0
  5 10  2  0
  6  7  2  0
  6  5  1  0
  7  8  1  0
  8  9  2  0
  9 11  1  0
 10  9  1  0
 11 12  2  0
 11 15  1  0
 12 13  1  0
 13 14  2  0
 15 14  1  0
 16 17  1  0
 16  1  1  0
 18 16  1  0
 19 18  1  0
 20 25  1  0
 20 19  1  0
 21 20  2  0
 22 23  2  0
 22 21  1  0
 23 24  1  0
 24 25  2  0
  2 26  1  6
  3 27  1  0
  3 28  1  0
  4 29  1  6
  6 30  1  0
  7 31  1  0
 12 32  1  0
 14 33  1  0
 15 34  1  0
 16 35  1  6
 17 36  1  0
 17 37  1  0
 17 38  1  0
 18 39  1  0
 18 40  1  0
 19 41  1  0
 21 42  1  0
 22 43  1  0
 24 44  1  0
M  ISO  8  26  13  27  13  28  13  29  13  30  14  31  14  32  14  33  14
M  ISO  8  34   9  35   8  36   8  37   8  38   8  39   8  40   8  42  14
M  ISO  2  43  14  44  14
M  END
>  <minimizedAffinity>  (1) 
-5.03024673

>  <minimizedRMSD>  (1) 
1.08450687

$$$$
