
     RDKit          3D

 40 42  0  0  1  0  0  0  0  0999 V2000
   48.4710   33.9700   41.2740 C   0  0  1  0  0  0  0  0  0  0  0  0
   48.7170   32.4780   41.3340 C   0  0  0  0  0  0  0  0  0  0  0  0
   47.6960   34.3170   40.0200 C   0  0  0  0  0  0  0  0  0  0  0  0
   48.5420   34.6150   38.9180 N   0  0  0  0  0  0  0  0  0  0  0  0
   48.1110   33.8510   37.7820 C   0  0  0  0  0  0  0  0  0  0  0  0
   48.9180   33.5000   36.7410 C   0  0  0  0  0  0  0  0  0  0  0  0
   48.3020   32.7480   35.7520 C   0  0  0  0  0  0  0  0  0  0  0  0
   47.0010   32.3960   35.8280 N   0  0  0  0  0  0  0  0  0  0  0  0
   46.2280   32.7680   36.8880 C   0  0  0  0  0  0  0  0  0  0  0  0
   46.8010   33.5100   37.8830 N   0  0  0  0  0  0  0  0  0  0  0  0
   47.6860   34.6360   42.7480 S   0  0  0  0  0  0  0  0  0  0  0  0
   44.9350   34.3230   43.1960 C   0  0  1  0  0  0  0  0  0  0  0  0
   45.2500   35.6800   43.6160 C   0  0  0  0  0  0  0  0  0  0  0  0
   46.0110   35.1430   42.5120 C   0  0  1  0  0  0  0  0  0  0  0  0
   45.3410   33.1280   44.0320 C   0  0  0  0  0  0  0  0  0  0  0  0
   45.3310   31.9170   43.3470 C   0  0  0  0  0  0  0  0  0  0  0  0
   45.6740   30.7900   44.0860 C   0  0  0  0  0  0  0  0  0  0  0  0
   45.9960   30.9240   45.4120 N   0  0  0  0  0  0  0  0  0  0  0  0
   45.9840   32.1510   46.0190 C   0  0  0  0  0  0  0  0  0  0  0  0
   45.6620   33.2570   45.3500 N   0  0  0  0  0  0  0  0  0  0  0  0
   46.3280   32.2970   47.4390 C   0  0  0  0  0  0  0  0  0  0  0  0
   45.3310   32.9820   48.0880 F   0  0  0  0  0  0  0  0  0  0  0  0
   46.3970   31.0180   47.9950 F   0  0  0  0  0  0  0  0  0  0  0  0
   47.5430   32.9410   47.6110 F   0  0  0  0  0  0  0  0  0  0  0  0
   49.4575   34.4550   41.2345 H   0  0  0  0  0  0  0  0  0  0  0  0
   48.7699   32.1571   42.3848 H   0  0  0  0  0  0  0  0  0  0  0  0
   47.8938   31.9501   40.8304 H   0  0  0  0  0  0  0  0  0  0  0  0
   49.6661   32.2423   40.8304 H   0  0  0  0  0  0  0  0  0  0  0  0
   47.0578   33.4619   39.7527 H   0  0  0  0  0  0  0  0  0  0  0  0
   47.1009   35.2168   40.2352 H   0  0  0  0  0  0  0  0  0  0  0  0
   49.3351   35.2720   38.9321 H   0  0  0  0  0  0  0  0  0  0  0  0
   49.9775   33.7912   36.6894 H   0  0  0  0  0  0  0  0  0  0  0  0
   48.8911   32.4288   34.8796 H   0  0  0  0  0  0  0  0  0  0  0  0
   45.1683   32.4779   36.9412 H   0  0  0  0  0  0  0  0  0  0  0  0
   44.0166   33.7969   42.8964 H   0  0  0  0  0  0  0  0  0  0  0  0
   44.5242   36.4859   43.4320 H   0  0  0  0  0  0  0  0  0  0  0  0
   45.5261   36.1318   44.5802 H   0  0  0  0  0  0  0  0  0  0  0  0
   46.2291   35.4884   41.4907 H   0  0  0  0  0  0  0  0  0  0  0  0
   45.0667   31.8546   42.2811 H   0  0  0  0  0  0  0  0  0  0  0  0
   45.6869   29.7983   43.6102 H   0  0  0  0  0  0  0  0  0  0  0  0
  1  2  1  0
  1 11  1  0
  3  1  1  0
  4  3  1  0
  5 10  1  0
  5  4  1  0
  6  5  2  0
  7  8  2  0
  7  6  1  0
  8  9  1  0
  9 10  2  0
 12 13  1  0
 12 15  1  0
 14 11  1  0
 14 12  1  0
 14 13  1  0
 15 20  1  0
 16 15  2  0
 16 17  1  0
 17 18  2  0
 18 19  1  0
 19 21  1  0
 20 19  2  0
 21 24  1  0
 21 23  1  0
 21 22  1  0
  1 25  1  6
  2 26  1  0
  2 27  1  0
  2 28  1  0
  3 29  1  0
  3 30  1  0
  4 31  1  0
  6 32  1  0
  7 33  1  0
  9 34  1  0
 12 35  1  6
 13 36  1  0
 13 37  1  0
 14 38  1  6
 16 39  1  0
 17 40  1  0
M  ISO  8  25   8  26   8  27   8  28   8  29   8  30   8  32  14  33  14
M  ISO  7  34  14  35  13  36  13  37  13  38  13  39  14  40  14
M  END
>  <minimizedAffinity>  (1) 
-4.90943336

>  <minimizedRMSD>  (1) 
0.735972822

$$$$
