
     RDKit          3D

 46 48  0  0  1  0  0  0  0  0999 V2000
   48.5800   34.0210   41.3120 C   0  0  1  0  0  0  0  0  0  0  0  0
   49.0070   32.5690   41.2810 C   0  0  0  0  0  0  0  0  0  0  0  0
   47.7580   34.3460   40.0830 C   0  0  0  0  0  0  0  0  0  0  0  0
   48.5660   34.6570   38.9550 N   0  0  0  0  0  0  0  0  0  0  0  0
   48.1200   33.8870   37.8340 C   0  0  0  0  0  0  0  0  0  0  0  0
   48.9000   33.5410   36.7730 C   0  0  0  0  0  0  0  0  0  0  0  0
   48.2630   32.7770   35.8040 C   0  0  0  0  0  0  0  0  0  0  0  0
   46.9730   32.4090   35.9130 N   0  0  0  0  0  0  0  0  0  0  0  0
   46.2220   32.7750   36.9940 C   0  0  0  0  0  0  0  0  0  0  0  0
   46.8160   33.5300   37.9710 N   0  0  0  0  0  0  0  0  0  0  0  0
   47.7290   34.4950   42.8270 S   0  0  0  0  0  0  0  0  0  0  0  0
   45.0030   34.1800   43.4070 C   0  0  1  0  0  0  0  0  0  0  0  0
   45.3050   35.5810   43.6620 C   0  0  0  0  0  0  0  0  0  0  0  0
   46.0340   34.9380   42.5960 C   0  0  1  0  0  0  0  0  0  0  0  0
   45.4670   33.0970   44.3570 C   0  0  0  0  0  0  0  0  0  0  0  0
   45.5430   31.8270   43.7960 C   0  0  0  0  0  0  0  0  0  0  0  0
   45.9390   30.7970   44.6370 C   0  0  0  0  0  0  0  0  0  0  0  0
   46.2290   31.0740   45.9470 N   0  0  0  0  0  0  0  0  0  0  0  0
   46.1340   32.3500   46.4360 C   0  0  0  0  0  0  0  0  0  0  0  0
   45.7570   33.3670   45.6620 N   0  0  0  0  0  0  0  0  0  0  0  0
   46.4750   32.5220   47.8720 C   0  0  0  0  0  0  0  0  0  0  0  0
   45.3900   31.8500   48.7110 C   0  0  0  0  0  0  0  0  0  0  0  0
   47.7890   31.9190   48.2600 C   0  0  0  0  0  0  0  0  0  0  0  0
   49.4996   34.6245   41.3009 H   0  0  0  0  0  0  0  0  0  0  0  0
   49.1164   32.1969   42.3104 H   0  0  0  0  0  0  0  0  0  0  0  0
   48.2458   31.9741   40.7551 H   0  0  0  0  0  0  0  0  0  0  0  0
   49.9691   32.4809   40.7551 H   0  0  0  0  0  0  0  0  0  0  0  0
   47.1301   33.4766   39.8384 H   0  0  0  0  0  0  0  0  0  0  0  0
   47.1488   35.2326   40.3128 H   0  0  0  0  0  0  0  0  0  0  0  0
   49.3469   35.3286   38.9461 H   0  0  0  0  0  0  0  0  0  0  0  0
   49.9543   33.8436   36.6897 H   0  0  0  0  0  0  0  0  0  0  0  0
   48.8322   32.4618   34.9170 H   0  0  0  0  0  0  0  0  0  0  0  0
   45.1680   32.4715   37.0778 H   0  0  0  0  0  0  0  0  0  0  0  0
   44.0868   33.6069   43.2018 H   0  0  0  0  0  0  0  0  0  0  0  0
   44.5561   36.3492   43.4192 H   0  0  0  0  0  0  0  0  0  0  0  0
   45.6076   36.1418   44.5586 H   0  0  0  0  0  0  0  0  0  0  0  0
   46.2053   35.1687   41.5342 H   0  0  0  0  0  0  0  0  0  0  0  0
   45.3012   31.6478   42.7380 H   0  0  0  0  0  0  0  0  0  0  0  0
   46.0193   29.7683   44.2558 H   0  0  0  0  0  0  0  0  0  0  0  0
   46.5451   33.6052   48.0504 H   0  0  0  0  0  0  0  0  0  0  0  0
   45.6139   31.9886   49.7790 H   0  0  0  0  0  0  0  0  0  0  0  0
   44.4144   32.3022   48.4791 H   0  0  0  0  0  0  0  0  0  0  0  0
   45.3603   30.7751   48.4791 H   0  0  0  0  0  0  0  0  0  0  0  0
   47.8665   31.8834   49.3567 H   0  0  0  0  0  0  0  0  0  0  0  0
   47.8584   30.8989   47.8542 H   0  0  0  0  0  0  0  0  0  0  0  0
   48.6076   32.5315   47.8542 H   0  0  0  0  0  0  0  0  0  0  0  0
  1 11  1  0
  2  1  1  0
  3  1  1  0
  4  3  1  0
  5 10  1  0
  5  4  1  0
  6  5  2  0
  7  8  2  0
  7  6  1  0
  8  9  1  0
  9 10  2  0
 12 13  1  0
 12 15  1  0
 14 11  1  0
 14 12  1  0
 14 13  1  0
 15 20  1  0
 16 15  2  0
 16 17  1  0
 17 18  2  0
 18 19  1  0
 19 21  1  0
 20 19  2  0
 21 23  1  0
 21 22  1  0
  1 24  1  6
  2 25  1  0
  2 26  1  0
  2 27  1  0
  3 28  1  0
  3 29  1  0
  4 30  1  0
  6 31  1  0
  7 32  1  0
  9 33  1  0
 12 34  1  6
 13 35  1  0
 13 36  1  0
 14 37  1  6
 16 38  1  0
 17 39  1  0
 21 40  1  0
 22 41  1  0
 22 42  1  0
 22 43  1  0
 23 44  1  0
 23 45  1  0
 23 46  1  0
M  ISO  8  24   8  25   8  26   8  27   8  28   8  29   8  31  14  32  14
M  ISO  8  33  14  34  13  35  13  36  13  37  13  38  14  39  14  40   8
M  ISO  6  41   8  42   8  43   8  44   8  45   8  46   8
M  END
>  <minimizedAffinity>  (1) 
-4.90314102

>  <minimizedRMSD>  (1) 
0.625435054

$$$$
