
     RDKit          3D

 39 41  0  0  1  0  0  0  0  0999 V2000
   48.2900   33.8780   41.1820 C   0  0  1  0  0  0  0  0  0  0  0  0
   48.3220   32.3800   41.3990 C   0  0  0  0  0  0  0  0  0  0  0  0
   47.5720   34.2020   39.8910 C   0  0  0  0  0  0  0  0  0  0  0  0
   48.4670   34.4920   38.8280 N   0  0  0  0  0  0  0  0  0  0  0  0
   48.0570   33.7530   37.6640 C   0  0  0  0  0  0  0  0  0  0  0  0
   48.8890   33.4030   36.6470 C   0  0  0  0  0  0  0  0  0  0  0  0
   48.2890   32.6750   35.6220 C   0  0  0  0  0  0  0  0  0  0  0  0
   46.9830   32.3510   35.6520 N   0  0  0  0  0  0  0  0  0  0  0  0
   46.1810   32.7240   36.6950 C   0  0  0  0  0  0  0  0  0  0  0  0
   46.7280   33.4360   37.7140 N   0  0  0  0  0  0  0  0  0  0  0  0
   47.6120   34.8000   42.5700 S   0  0  0  0  0  0  0  0  0  0  0  0
   44.9820   34.2990   43.4060 C   0  0  1  0  0  0  0  0  0  0  0  0
   45.1710   35.7340   43.5520 C   0  0  0  0  0  0  0  0  0  0  0  0
   45.8730   35.0900   42.4670 C   0  0  1  0  0  0  0  0  0  0  0  0
   45.6180   33.3240   44.3730 C   0  0  0  0  0  0  0  0  0  0  0  0
   45.5880   31.9970   43.9550 C   0  0  0  0  0  0  0  0  0  0  0  0
   46.1370   31.0610   44.8220 C   0  0  0  0  0  0  0  0  0  0  0  0
   46.6660   31.4790   46.0130 N   0  0  0  0  0  0  0  0  0  0  0  0
   46.6630   32.8030   46.3620 C   0  0  0  0  0  0  0  0  0  0  0  0
   46.1470   33.7340   45.5610 N   0  0  0  0  0  0  0  0  0  0  0  0
   47.2410   33.1120   47.6230 N   0  0  0  0  0  0  0  0  0  0  0  0
   49.3362   34.2089   41.1049 H   0  0  0  0  0  0  0  0  0  0  0  0
   48.3266   32.1658   42.4779 H   0  0  0  0  0  0  0  0  0  0  0  0
   47.4334   31.9237   40.9384 H   0  0  0  0  0  0  0  0  0  0  0  0
   49.2293   31.9621   40.9384 H   0  0  0  0  0  0  0  0  0  0  0  0
   46.9534   33.3385   39.6053 H   0  0  0  0  0  0  0  0  0  0  0  0
   46.9596   35.0989   40.0657 H   0  0  0  0  0  0  0  0  0  0  0  0
   49.2764   35.1268   38.8814 H   0  0  0  0  0  0  0  0  0  0  0  0
   49.9550   33.6742   36.6346 H   0  0  0  0  0  0  0  0  0  0  0  0
   48.8995   32.3561   34.7643 H   0  0  0  0  0  0  0  0  0  0  0  0
   45.1150   32.4530   36.7083 H   0  0  0  0  0  0  0  0  0  0  0  0
   44.1090   33.6362   43.3136 H   0  0  0  0  0  0  0  0  0  0  0  0
   44.3369   36.4153   43.3281 H   0  0  0  0  0  0  0  0  0  0  0  0
   45.4888   36.3767   44.3862 H   0  0  0  0  0  0  0  0  0  0  0  0
   45.9403   35.2716   41.3842 H   0  0  0  0  0  0  0  0  0  0  0  0
   45.1522   31.7046   42.9883 H   0  0  0  0  0  0  0  0  0  0  0  0
   46.1465   29.9942   44.5540 H   0  0  0  0  0  0  0  0  0  0  0  0
   47.2728   34.0883   47.9496 H   0  0  0  0  0  0  0  0  0  0  0  0
   47.6281   32.3596   48.2103 H   0  0  0  0  0  0  0  0  0  0  0  0
  1  2  1  0
  1 11  1  0
  3  1  1  0
  4  3  1  0
  5 10  1  0
  5  4  1  0
  6  5  2  0
  7  8  2  0
  7  6  1  0
  8  9  1  0
  9 10  2  0
 12 13  1  0
 12 15  1  0
 14 11  1  0
 14 12  1  0
 14 13  1  0
 15 20  1  0
 16 15  2  0
 16 17  1  0
 17 18  2  0
 18 19  1  0
 19 21  1  0
 20 19  2  0
  1 22  1  6
  2 23  1  0
  2 24  1  0
  2 25  1  0
  3 26  1  0
  3 27  1  0
  4 28  1  0
  6 29  1  0
  7 30  1  0
  9 31  1  0
 12 32  1  6
 13 33  1  0
 13 34  1  0
 14 35  1  6
 16 36  1  0
 17 37  1  0
 21 38  1  0
 21 39  1  0
M  ISO  8  22   8  23   8  24   8  25   8  26   8  27   8  29  14  30  14
M  ISO  7  31  14  32  13  33  13  34  13  35  13  36  14  37  14
M  END
>  <minimizedAffinity>  (1) 
-4.85011148

>  <minimizedRMSD>  (1) 
0.320333242

$$$$
