
     RDKit          3D

 38 40  0  0  1  0  0  0  0  0999 V2000
   48.2810   33.8850   41.1850 C   0  0  1  0  0  0  0  0  0  0  0  0
   48.3110   32.3890   41.4120 C   0  0  0  0  0  0  0  0  0  0  0  0
   47.5650   34.1980   39.8900 C   0  0  0  0  0  0  0  0  0  0  0  0
   48.4630   34.4860   38.8260 N   0  0  0  0  0  0  0  0  0  0  0  0
   48.0600   33.7520   37.6630 C   0  0  0  0  0  0  0  0  0  0  0  0
   48.8920   33.4000   36.6450 C   0  0  0  0  0  0  0  0  0  0  0  0
   48.2890   32.6740   35.6220 C   0  0  0  0  0  0  0  0  0  0  0  0
   46.9770   32.3510   35.6500 N   0  0  0  0  0  0  0  0  0  0  0  0
   46.1780   32.7240   36.6920 C   0  0  0  0  0  0  0  0  0  0  0  0
   46.7340   33.4390   37.7170 N   0  0  0  0  0  0  0  0  0  0  0  0
   47.5970   34.8130   42.5650 S   0  0  0  0  0  0  0  0  0  0  0  0
   44.9790   34.2820   43.4150 C   0  0  1  0  0  0  0  0  0  0  0  0
   45.1610   35.7190   43.5620 C   0  0  0  0  0  0  0  0  0  0  0  0
   45.8530   35.0780   42.4700 C   0  0  1  0  0  0  0  0  0  0  0  0
   45.6310   33.3130   44.3790 C   0  0  0  0  0  0  0  0  0  0  0  0
   45.5950   31.9830   43.9690 C   0  0  0  0  0  0  0  0  0  0  0  0
   46.1570   31.0520   44.8310 C   0  0  0  0  0  0  0  0  0  0  0  0
   46.7050   31.4780   46.0160 N   0  0  0  0  0  0  0  0  0  0  0  0
   46.7040   32.8040   46.3540 C   0  0  0  0  0  0  0  0  0  0  0  0
   46.1760   33.7310   45.5560 N   0  0  0  0  0  0  0  0  0  0  0  0
   47.2540   33.2480   47.5460 O   0  0  0  0  0  0  0  0  0  0  0  0
   49.3266   34.2178   41.1082 H   0  0  0  0  0  0  0  0  0  0  0  0
   48.3151   32.1821   42.4924 H   0  0  0  0  0  0  0  0  0  0  0  0
   47.4219   31.9308   40.9543 H   0  0  0  0  0  0  0  0  0  0  0  0
   49.2178   31.9668   40.9543 H   0  0  0  0  0  0  0  0  0  0  0  0
   46.9510   33.3300   39.6079 H   0  0  0  0  0  0  0  0  0  0  0  0
   46.9481   35.0932   40.0576 H   0  0  0  0  0  0  0  0  0  0  0  0
   49.2728   35.1201   38.8820 H   0  0  0  0  0  0  0  0  0  0  0  0
   49.9586   33.6686   36.6318 H   0  0  0  0  0  0  0  0  0  0  0  0
   48.8989   32.3533   34.7646 H   0  0  0  0  0  0  0  0  0  0  0  0
   45.1113   32.4557   36.7071 H   0  0  0  0  0  0  0  0  0  0  0  0
   44.1104   33.6127   43.3283 H   0  0  0  0  0  0  0  0  0  0  0  0
   44.3209   36.3961   43.3480 H   0  0  0  0  0  0  0  0  0  0  0  0
   45.4841   36.3632   44.3930 H   0  0  0  0  0  0  0  0  0  0  0  0
   45.9058   35.2532   41.3853 H   0  0  0  0  0  0  0  0  0  0  0  0
   45.1441   31.6854   43.0108 H   0  0  0  0  0  0  0  0  0  0  0  0
   46.1635   29.9840   44.5679 H   0  0  0  0  0  0  0  0  0  0  0  0
   47.2411   34.2127   47.7681 H   0  0  0  0  0  0  0  0  0  0  0  0
  1  2  1  0
  1 11  1  0
  3  1  1  0
  4  3  1  0
  5 10  1  0
  5  4  1  0
  6  5  2  0
  7  8  2  0
  7  6  1  0
  8  9  1  0
  9 10  2  0
 12 13  1  0
 12 15  1  0
 14 11  1  0
 14 12  1  0
 14 13  1  0
 15 20  1  0
 16 15  2  0
 16 17  1  0
 17 18  2  0
 18 19  1  0
 19 21  1  0
 20 19  2  0
  1 22  1  6
  2 23  1  0
  2 24  1  0
  2 25  1  0
  3 26  1  0
  3 27  1  0
  4 28  1  0
  6 29  1  0
  7 30  1  0
  9 31  1  0
 12 32  1  6
 13 33  1  0
 13 34  1  0
 14 35  1  6
 16 36  1  0
 17 37  1  0
 21 38  1  0
M  ISO  8  22   8  23   8  24   8  25   8  26   8  27   8  29  14  30  14
M  ISO  8  31  14  32  13  33  13  34  13  35  13  36  14  37  14  38   3
M  END
>  <minimizedAffinity>  (1) 
-4.84120941

>  <minimizedRMSD>  (1) 
0.337332726

$$$$
