
     RDKit          3D

 48 52  0  0  1  0  0  0  0  0999 V2000
   45.0150   34.0990   42.7840 C   0  0  1  0  0  0  0  0  0  0  0  0
   45.2240   34.9590   43.9380 C   0  0  0  0  0  0  0  0  0  0  0  0
   46.1850   35.0600   42.8660 C   0  0  1  0  0  0  0  0  0  0  0  0
   45.2800   32.6110   42.8620 C   0  0  0  0  0  0  0  0  0  0  0  0
   45.3510   31.9720   41.6270 C   0  0  0  0  0  0  0  0  0  0  0  0
   45.5660   30.6010   41.6480 C   0  0  0  0  0  0  0  0  0  0  0  0
   45.6950   29.9620   42.8520 N   0  0  0  0  0  0  0  0  0  0  0  0
   45.6150   30.6520   44.0320 C   0  0  0  0  0  0  0  0  0  0  0  0
   45.4090   31.9690   44.0580 N   0  0  0  0  0  0  0  0  0  0  0  0
   45.7480   29.9910   45.2850 N   0  0  0  0  0  0  0  0  0  0  0  0
   46.7080   30.3640   46.1790 C   0  0  0  0  0  0  0  0  0  0  0  0
   46.6740   29.6230   47.2980 N   0  0  0  0  0  0  0  0  0  0  0  0
   45.6620   28.7430   47.1220 C   0  0  0  0  0  0  0  0  0  0  0  0
   45.0960   27.7230   47.8590 C   0  0  0  0  0  0  0  0  0  0  0  0
   44.0690   27.0390   47.3520 N   0  0  0  0  0  0  0  0  0  0  0  0
   43.5380   27.2830   46.1440 C   0  0  0  0  0  0  0  0  0  0  0  0
   44.0590   28.2810   45.3740 N   0  0  0  0  0  0  0  0  0  0  0  0
   45.1000   28.9760   45.8840 C   0  0  0  0  0  0  0  0  0  0  0  0
   47.7970   34.3570   43.0350 S   0  0  0  0  0  0  0  0  0  0  0  0
   48.6150   34.0010   41.4740 C   0  0  1  0  0  0  0  0  0  0  0  0
   49.0310   32.5520   41.3210 C   0  0  0  0  0  0  0  0  0  0  0  0
   47.7730   34.4230   40.2890 C   0  0  0  0  0  0  0  0  0  0  0  0
   48.5580   34.7680   39.1560 N   0  0  0  0  0  0  0  0  0  0  0  0
   48.1520   33.9600   38.0450 C   0  0  0  0  0  0  0  0  0  0  0  0
   48.9120   33.7250   36.9390 C   0  0  0  0  0  0  0  0  0  0  0  0
   48.3250   32.8990   35.9910 C   0  0  0  0  0  0  0  0  0  0  0  0
   47.1030   32.3750   36.1560 N   0  0  0  0  0  0  0  0  0  0  0  0
   46.3690   32.6320   37.2760 C   0  0  0  0  0  0  0  0  0  0  0  0
   46.9050   33.4400   38.2370 N   0  0  0  0  0  0  0  0  0  0  0  0
   44.1785   33.9134   42.0942 H   0  0  0  0  0  0  0  0  0  0  0  0
   44.5312   35.7929   44.1241 H   0  0  0  0  0  0  0  0  0  0  0  0
   45.3091   34.7719   45.0186 H   0  0  0  0  0  0  0  0  0  0  0  0
   46.5831   35.8953   42.2713 H   0  0  0  0  0  0  0  0  0  0  0  0
   45.2422   32.5256   40.6827 H   0  0  0  0  0  0  0  0  0  0  0  0
   45.6320   30.0340   40.7077 H   0  0  0  0  0  0  0  0  0  0  0  0
   47.4270   31.1778   46.0035 H   0  0  0  0  0  0  0  0  0  0  0  0
   45.4884   27.4759   48.8565 H   0  0  0  0  0  0  0  0  0  0  0  0
   42.6909   26.6840   45.7784 H   0  0  0  0  0  0  0  0  0  0  0  0
   49.5368   34.6009   41.4935 H   0  0  0  0  0  0  0  0  0  0  0  0
   49.1606   32.1007   42.3158 H   0  0  0  0  0  0  0  0  0  0  0  0
   48.2539   32.0039   40.7681 H   0  0  0  0  0  0  0  0  0  0  0  0
   49.9805   32.4995   40.7681 H   0  0  0  0  0  0  0  0  0  0  0  0
   47.1070   33.5912   40.0160 H   0  0  0  0  0  0  0  0  0  0  0  0
   47.2050   35.3171   40.5855 H   0  0  0  0  0  0  0  0  0  0  0  0
   49.2989   35.4832   39.1367 H   0  0  0  0  0  0  0  0  0  0  0  0
   49.9149   34.1573   36.8075 H   0  0  0  0  0  0  0  0  0  0  0  0
   48.8825   32.6663   35.0718 H   0  0  0  0  0  0  0  0  0  0  0  0
   45.3664   32.1976   37.4025 H   0  0  0  0  0  0  0  0  0  0  0  0
  1  4  1  0
  1  3  1  0
  1  2  1  0
  3 19  1  0
  3  2  1  0
  4  9  2  0
  5  6  2  0
  5  4  1  0
  6  7  1  0
  7  8  2  0
  8  9  1  0
  8 10  1  0
 10 18  1  0
 10 11  1  0
 11 12  2  0
 13 12  1  0
 13 14  2  0
 15 14  1  0
 16 15  2  0
 17 18  2  0
 17 16  1  0
 18 13  1  0
 20 19  1  0
 21 20  1  0
 22 20  1  0
 23 22  1  0
 24 29  1  0
 24 23  1  0
 25 24  2  0
 26 27  2  0
 26 25  1  0
 27 28  1  0
 28 29  2  0
  1 30  1  6
  2 31  1  0
  2 32  1  0
  3 33  1  6
  5 34  1  0
  6 35  1  0
 11 36  1  0
 14 37  1  0
 16 38  1  0
 20 39  1  1
 21 40  1  0
 21 41  1  0
 21 42  1  0
 22 43  1  0
 22 44  1  0
 23 45  1  0
 25 46  1  0
 26 47  1  0
 28 48  1  0
M  ISO  8  30  13  31  13  32  13  33  13  34  14  35  14  36  14  37  14
M  ISO  8  38  14  39   8  40   8  41   8  42   8  43   8  44   8  46  14
M  ISO  2  47  14  48  14
M  END
>  <minimizedAffinity>  (1) 
-4.81328583

>  <minimizedRMSD>  (1) 
3.50902677

$$$$
