
     RDKit          3D

 49 51  0  0  1  0  0  0  0  0999 V2000
   48.5830   34.0040   41.3050 C   0  0  1  0  0  0  0  0  0  0  0  0
   48.9630   32.5330   41.3020 C   0  0  0  0  0  0  0  0  0  0  0  0
   47.7550   34.3220   40.0800 C   0  0  0  0  0  0  0  0  0  0  0  0
   48.5470   34.6590   38.9520 N   0  0  0  0  0  0  0  0  0  0  0  0
   48.1140   33.8870   37.8270 C   0  0  0  0  0  0  0  0  0  0  0  0
   48.9080   33.5340   36.7780 C   0  0  0  0  0  0  0  0  0  0  0  0
   48.2810   32.7710   35.8010 C   0  0  0  0  0  0  0  0  0  0  0  0
   46.9840   32.4120   35.8930 N   0  0  0  0  0  0  0  0  0  0  0  0
   46.2200   32.7870   36.9610 C   0  0  0  0  0  0  0  0  0  0  0  0
   46.8060   33.5400   37.9430 N   0  0  0  0  0  0  0  0  0  0  0  0
   47.7730   34.5420   42.8180 S   0  0  0  0  0  0  0  0  0  0  0  0
   45.0260   34.1130   43.2020 C   0  0  1  0  0  0  0  0  0  0  0  0
   45.3010   35.4330   43.7460 C   0  0  0  0  0  0  0  0  0  0  0  0
   46.0840   35.0190   42.6060 C   0  0  1  0  0  0  0  0  0  0  0  0
   45.4590   32.8550   43.9210 C   0  0  0  0  0  0  0  0  0  0  0  0
   45.5810   31.7250   43.1220 C   0  0  0  0  0  0  0  0  0  0  0  0
   45.9480   30.5540   43.7460 C   0  0  0  0  0  0  0  0  0  0  0  0
   46.1730   30.5540   45.1030 N   0  0  0  0  0  0  0  0  0  0  0  0
   46.0380   31.7010   45.8400 C   0  0  0  0  0  0  0  0  0  0  0  0
   45.6820   32.8550   45.2630 N   0  0  0  0  0  0  0  0  0  0  0  0
   46.3080   31.5760   47.2980 C   0  0  0  0  0  0  0  0  0  0  0  0
   47.4320   32.4850   47.7390 C   0  0  0  0  0  0  0  0  0  0  0  0
   46.6620   30.1620   47.7070 C   0  0  0  0  0  0  0  0  0  0  0  0
   45.0720   31.9570   48.1130 C   0  0  0  0  0  0  0  0  0  0  0  0
   49.5200   34.5790   41.2683 H   0  0  0  0  0  0  0  0  0  0  0  0
   49.0552   32.1760   42.3384 H   0  0  0  0  0  0  0  0  0  0  0  0
   48.1849   31.9543   40.7827 H   0  0  0  0  0  0  0  0  0  0  0  0
   49.9241   32.4036   40.7827 H   0  0  0  0  0  0  0  0  0  0  0  0
   47.1447   33.4415   39.8303 H   0  0  0  0  0  0  0  0  0  0  0  0
   47.1320   35.1963   40.3198 H   0  0  0  0  0  0  0  0  0  0  0  0
   49.3116   35.3491   38.9439 H   0  0  0  0  0  0  0  0  0  0  0  0
   49.9651   33.8305   36.7097 H   0  0  0  0  0  0  0  0  0  0  0  0
   48.8612   32.4491   34.9236 H   0  0  0  0  0  0  0  0  0  0  0  0
   45.1625   32.4921   37.0305 H   0  0  0  0  0  0  0  0  0  0  0  0
   44.1220   33.5939   42.8507 H   0  0  0  0  0  0  0  0  0  0  0  0
   44.5552   36.2330   43.6288 H   0  0  0  0  0  0  0  0  0  0  0  0
   45.5576   35.8023   44.7499 H   0  0  0  0  0  0  0  0  0  0  0  0
   46.2997   35.4583   41.6209 H   0  0  0  0  0  0  0  0  0  0  0  0
   45.3927   31.7642   42.0389 H   0  0  0  0  0  0  0  0  0  0  0  0
   46.0603   29.6269   43.1647 H   0  0  0  0  0  0  0  0  0  0  0  0
   47.4694   32.5152   48.8379 H   0  0  0  0  0  0  0  0  0  0  0  0
   48.3871   32.1023   47.3500 H   0  0  0  0  0  0  0  0  0  0  0  0
   47.2576   33.4990   47.3500 H   0  0  0  0  0  0  0  0  0  0  0  0
   46.6797   30.0913   48.8046 H   0  0  0  0  0  0  0  0  0  0  0  0
   45.9105   29.4655   47.3068 H   0  0  0  0  0  0  0  0  0  0  0  0
   47.6530   29.9018   47.3068 H   0  0  0  0  0  0  0  0  0  0  0  0
   45.3039   31.8855   49.1859 H   0  0  0  0  0  0  0  0  0  0  0  0
   44.7759   32.9881   47.8698 H   0  0  0  0  0  0  0  0  0  0  0  0
   44.2468   31.2715   47.8698 H   0  0  0  0  0  0  0  0  0  0  0  0
  1 11  1  0
  2  1  1  0
  3  1  1  0
  4  3  1  0
  5 10  1  0
  5  4  1  0
  6  5  2  0
  7  8  2  0
  7  6  1  0
  8  9  1  0
  9 10  2  0
 12 13  1  0
 12 15  1  0
 14 11  1  0
 14 12  1  0
 14 13  1  0
 15 20  2  0
 16 17  2  0
 16 15  1  0
 17 18  1  0
 18 19  2  0
 19 21  1  0
 20 19  1  0
 21 23  1  0
 21 22  1  0
 21 24  1  0
  1 25  1  6
  2 26  1  0
  2 27  1  0
  2 28  1  0
  3 29  1  0
  3 30  1  0
  4 31  1  0
  6 32  1  0
  7 33  1  0
  9 34  1  0
 12 35  1  6
 13 36  1  0
 13 37  1  0
 14 38  1  6
 16 39  1  0
 17 40  1  0
 22 41  1  0
 22 42  1  0
 22 43  1  0
 23 44  1  0
 23 45  1  0
 23 46  1  0
 24 47  1  0
 24 48  1  0
 24 49  1  0
M  ISO  8  25   8  26   8  27   8  28   8  29   8  30   8  32  14  33  14
M  ISO  8  34  14  35  13  36  13  37  13  38  13  39  14  40  14  41   8
M  ISO  8  42   8  43   8  44   8  45   8  46   8  47   8  48   8  49   8
M  END
>  <minimizedAffinity>  (1) 
-4.78144884

>  <minimizedRMSD>  (1) 
1.0407666

$$$$
