
     RDKit          3D

 27 28  0  0  1  0  0  0  0  0999 V2000
   45.5200   35.7340   42.9580 C   0  0  0  0  0  0  0  0  0  0  0  0
   44.2560   35.7690   42.3510 C   0  0  0  0  0  0  0  0  0  0  0  0
   44.0830   34.9980   41.1920 C   0  0  0  0  0  0  0  0  0  0  0  0
   45.1320   34.2670   40.7210 N   0  0  0  0  0  0  0  0  0  0  0  0
   46.3220   34.2730   41.3460 C   0  0  0  0  0  0  0  0  0  0  0  0
   46.4970   34.9980   42.4440 N   0  0  0  0  0  0  0  0  0  0  0  0
   47.3770   33.4880   40.7920 N   0  0  0  0  0  0  0  0  0  0  0  0
   47.1930   33.0150   39.4300 C   0  0  0  0  0  0  0  0  0  0  0  0
   48.4280   32.5540   38.7460 C   0  0  0  0  0  0  0  0  0  0  0  0
   49.6250   32.8070   39.4900 N   0  0  0  0  0  0  0  0  0  0  0  0
   49.4100   32.1960   40.7920 C   0  0  0  0  0  0  0  0  0  0  0  0
   48.5390   33.1850   41.5530 C   0  0  1  0  0  0  0  0  0  0  0  0
   49.3510   34.2720   42.1310 C   0  0  0  0  0  0  0  0  0  0  0  0
   48.8760   34.8070   43.3200 F   0  0  0  0  0  0  0  0  0  0  0  0
   49.1940   35.3540   41.2050 F   0  0  0  0  0  0  0  0  0  0  0  0
   50.7070   34.0740   42.1380 F   0  0  0  0  0  0  0  0  0  0  0  0
   45.7031   36.3225   43.8691 H   0  0  0  0  0  0  0  0  0  0  0  0
   43.4365   36.3744   42.7656 H   0  0  0  0  0  0  0  0  0  0  0  0
   43.1144   34.9837   40.6709 H   0  0  0  0  0  0  0  0  0  0  0  0
   46.4843   32.1741   39.4551 H   0  0  0  0  0  0  0  0  0  0  0  0
   46.8309   33.8794   38.8541 H   0  0  0  0  0  0  0  0  0  0  0  0
   48.3471   31.4703   38.5757 H   0  0  0  0  0  0  0  0  0  0  0  0
   48.5067   33.1209   37.8066 H   0  0  0  0  0  0  0  0  0  0  0  0
   50.4369   32.3799   39.0217 H   0  0  0  0  0  0  0  0  0  0  0  0
   48.8950   31.2299   40.6853 H   0  0  0  0  0  0  0  0  0  0  0  0
   50.3566   31.9927   41.3141 H   0  0  0  0  0  0  0  0  0  0  0  0
   48.1041   32.7577   42.4686 H   0  0  0  0  0  0  0  0  0  0  0  0
  2  1  2  0
  3  2  1  0
  4  3  2  0
  4  5  1  0
  5  6  2  0
  6  1  1  0
  7  5  1  0
  7 12  1  0
  8  7  1  0
  9  8  1  0
  9 10  1  0
 10 11  1  0
 11 12  1  0
 12 13  1  0
 13 16  1  0
 13 14  1  0
 15 13  1  0
  1 17  1  0
  2 18  1  0
  3 19  1  0
  8 20  1  0
  8 21  1  0
  9 22  1  0
  9 23  1  0
 10 24  1  0
 11 25  1  0
 11 26  1  0
 12 27  1  1
M  ISO  8  17  14  18  14  19  14  20  13  21  13  22  13  23  13  24   5
M  ISO  3  25  13  26  13  27  13
M  END
>  <minimizedAffinity>  (1) 
-4.73618507

>  <minimizedRMSD>  (1) 
6.81444502

$$$$
