
     RDKit          3D

 27 28  0  0  1  0  0  0  0  0999 V2000
   44.6030   35.4060   45.6130 C   0  0  0  0  0  0  0  0  0  0  0  0
   44.6860   35.8410   44.2810 C   0  0  0  0  0  0  0  0  0  0  0  0
   45.3010   34.9610   43.3670 C   0  0  0  0  0  0  0  0  0  0  0  0
   45.7710   33.7630   43.8040 N   0  0  0  0  0  0  0  0  0  0  0  0
   45.6680   33.3920   45.0940 C   0  0  0  0  0  0  0  0  0  0  0  0
   45.0900   34.2130   45.9730 N   0  0  0  0  0  0  0  0  0  0  0  0
   46.1940   32.1160   45.4490 N   0  0  0  0  0  0  0  0  0  0  0  0
   47.0720   31.4330   44.5370 C   0  0  0  0  0  0  0  0  0  0  0  0
   47.9820   30.4400   45.1740 C   0  0  0  0  0  0  0  0  0  0  0  0
   47.7800   30.2540   46.5870 N   0  0  0  0  0  0  0  0  0  0  0  0
   46.3560   30.1450   46.8350 C   0  0  0  0  0  0  0  0  0  0  0  0
   45.8180   31.5600   46.7220 C   0  0  1  0  0  0  0  0  0  0  0  0
   46.3260   32.3900   47.8330 C   0  0  0  0  0  0  0  0  0  0  0  0
   45.7470   32.5130   48.9620 O   0  0  0  0  0  0  0  0  0  0  0  0
   47.5100   33.1000   47.6740 O   0  0  0  0  0  0  0  0  0  0  0  0
   44.1328   36.0526   46.3685 H   0  0  0  0  0  0  0  0  0  0  0  0
   44.2914   36.8184   43.9663 H   0  0  0  0  0  0  0  0  0  0  0  0
   45.3997   35.2420   42.3081 H   0  0  0  0  0  0  0  0  0  0  0  0
   47.6903   32.1867   44.0275 H   0  0  0  0  0  0  0  0  0  0  0  0
   46.4263   30.8664   43.8500 H   0  0  0  0  0  0  0  0  0  0  0  0
   47.8321   29.4704   44.6766 H   0  0  0  0  0  0  0  0  0  0  0  0
   49.0017   30.8355   45.0569 H   0  0  0  0  0  0  0  0  0  0  0  0
   48.2538   29.3932   46.8958 H   0  0  0  0  0  0  0  0  0  0  0  0
   45.8836   29.4926   46.0858 H   0  0  0  0  0  0  0  0  0  0  0  0
   46.1448   29.7044   47.8205 H   0  0  0  0  0  0  0  0  0  0  0  0
   44.7202   31.5415   46.7882 H   0  0  0  0  0  0  0  0  0  0  0  0
   47.8558   33.6582   48.4149 H   0  0  0  0  0  0  0  0  0  0  0  0
  1  6  2  0
  2  1  1  0
  3  4  1  0
  3  2  2  0
  4  5  2  0
  5  7  1  0
  5  6  1  0
  7 12  1  0
  8  9  1  0
  8  7  1  0
  9 10  1  0
 10 11  1  0
 12 11  1  0
 12 13  1  0
 13 14  2  0
 15 13  1  0
  1 16  1  0
  2 17  1  0
  3 18  1  0
  8 19  1  0
  8 20  1  0
  9 21  1  0
  9 22  1  0
 10 23  1  0
 11 24  1  0
 11 25  1  0
 12 26  1  6
 15 27  1  0
M  ISO  8  16  14  17  14  18  14  19  13  20  13  21  13  22  13  23   5
M  ISO  4  24  13  25  13  26  13  27   3
M  END
>  <minimizedAffinity>  (1) 
-4.6746664

>  <minimizedRMSD>  (1) 
2.08301353

$$$$
