
     RDKit          3D

 40 42  0  0  1  0  0  0  0  0999 V2000
   45.2410   35.3170   44.0970 C   0  0  0  0  0  0  0  0  0  0  0  0
   44.2620   35.3190   43.0680 C   0  0  0  0  0  0  0  0  0  0  0  0
   44.0540   34.1110   42.3590 C   0  0  0  0  0  0  0  0  0  0  0  0
   44.7910   33.0120   42.6890 N   0  0  0  0  0  0  0  0  0  0  0  0
   45.7120   33.0630   43.6790 C   0  0  0  0  0  0  0  0  0  0  0  0
   45.9270   34.1930   44.3640 N   0  0  0  0  0  0  0  0  0  0  0  0
   46.4370   31.8510   43.9530 N   0  0  0  0  0  0  0  0  0  0  0  0
   46.4410   30.8100   42.9660 C   0  0  0  0  0  0  0  0  0  0  0  0
   47.6330   29.8930   43.0290 C   0  0  0  0  0  0  0  0  0  0  0  0
   48.5370   30.1600   44.1190 N   0  0  0  0  0  0  0  0  0  0  0  0
   47.6830   30.3230   45.3210 C   0  0  0  0  0  0  0  0  0  0  0  0
   47.1380   31.7320   45.2160 C   0  0  2  0  0  0  0  0  0  0  0  0
   46.2640   31.9870   46.4040 C   0  0  0  0  0  0  0  0  0  0  0  0
   45.5920   30.7640   46.9610 C   0  0  0  0  0  0  0  0  0  0  0  0
   44.7850   31.2370   48.1720 C   0  0  0  0  0  0  0  0  0  0  0  0
   45.7720   31.5420   49.2900 C   0  0  0  0  0  0  0  0  0  0  0  0
   47.1700   31.7020   48.7200 C   0  0  0  0  0  0  0  0  0  0  0  0
   47.1070   32.6180   47.4910 C   0  0  0  0  0  0  0  0  0  0  0  0
   45.4370   36.2330   44.6737 H   0  0  0  0  0  0  0  0  0  0  0  0
   43.6864   36.2258   42.8305 H   0  0  0  0  0  0  0  0  0  0  0  0
   43.3077   34.0597   41.5526 H   0  0  0  0  0  0  0  0  0  0  0  0
   46.4214   31.2797   41.9715 H   0  0  0  0  0  0  0  0  0  0  0  0
   45.5568   30.1869   43.1657 H   0  0  0  0  0  0  0  0  0  0  0  0
   47.2670   28.8608   43.1315 H   0  0  0  0  0  0  0  0  0  0  0  0
   48.2032   30.0580   42.1029 H   0  0  0  0  0  0  0  0  0  0  0  0
   49.1885   29.3724   44.2459 H   0  0  0  0  0  0  0  0  0  0  0  0
   46.8639   29.5888   45.3175 H   0  0  0  0  0  0  0  0  0  0  0  0
   48.2422   30.1611   46.2543 H   0  0  0  0  0  0  0  0  0  0  0  0
   47.9323   32.4929   45.2254 H   0  0  0  0  0  0  0  0  0  0  0  0
   45.4553   32.6485   46.0598 H   0  0  0  0  0  0  0  0  0  0  0  0
   44.9250   30.3187   46.2081 H   0  0  0  0  0  0  0  0  0  0  0  0
   46.3266   29.9954   47.2432 H   0  0  0  0  0  0  0  0  0  0  0  0
   44.2178   32.1436   47.9143 H   0  0  0  0  0  0  0  0  0  0  0  0
   44.0703   30.4625   48.4873 H   0  0  0  0  0  0  0  0  0  0  0  0
   45.4752   32.4738   49.7936 H   0  0  0  0  0  0  0  0  0  0  0  0
   45.7691   30.7109   50.0106 H   0  0  0  0  0  0  0  0  0  0  0  0
   47.8289   32.1485   49.4793 H   0  0  0  0  0  0  0  0  0  0  0  0
   47.5677   30.7183   48.4300 H   0  0  0  0  0  0  0  0  0  0  0  0
   48.1255   32.7831   47.1096 H   0  0  0  0  0  0  0  0  0  0  0  0
   46.6524   33.5760   47.7835 H   0  0  0  0  0  0  0  0  0  0  0  0
  1  6  2  0
  2  1  1  0
  3  4  1  0
  3  2  2  0
  4  5  2  0
  5  7  1  0
  5  6  1  0
  7 12  1  0
  8  9  1  0
  8  7  1  0
  9 10  1  0
 10 11  1  0
 12 11  1  0
 12 13  1  0
 13 14  1  0
 13 18  1  0
 14 15  1  0
 15 16  1  0
 17 16  1  0
 18 17  1  0
  1 19  1  0
  2 20  1  0
  3 21  1  0
  8 22  1  0
  8 23  1  0
  9 24  1  0
  9 25  1  0
 10 26  1  0
 11 27  1  0
 11 28  1  0
 12 29  1  6
 13 30  1  0
 14 31  1  0
 14 32  1  0
 15 33  1  0
 15 34  1  0
 16 35  1  0
 16 36  1  0
 17 37  1  0
 17 38  1  0
 18 39  1  0
 18 40  1  0
M  ISO  8  19  14  20  14  21  14  22  13  23  13  24  13  25  13  26   5
M  ISO  8  27  13  28  13  29  13  30  13  31  13  32  13  33  13  34  13
M  ISO  6  35  13  36  13  37  13  38  13  39  13  40  13
M  END
>  <minimizedAffinity>  (1) 
-4.54245329

>  <minimizedRMSD>  (1) 
3.62762809

$$$$
